1:0:0
     RDKit          3D

101108  0  0  1  0  0  0  0  0999 V2000
  -24.6680  -24.5100   15.6170 C   0  0  0  0  0  2  0  0  0  0  0  0
  -25.4070  -25.3510   14.7300 O   0  0  0  0  0  0  0  0  0  0  0  0
  -25.8360  -26.5800   15.3080 C   0  0  0  0  0  2  0  0  0  0  0  0
  -27.2630  -26.8990   14.8180 C   0  0  0  0  0  2  0  0  0  0  0  0
  -28.2320  -25.8330   15.1840 N   0  0  0  0  0  4  0  0  0  0  0  0
  -27.7370  -24.9590   15.2570 H   0  0  0  0  0  0  0  0  0  0  0  0
  -28.8770  -25.7240   14.4150 H   0  0  0  0  0  0  0  0  0  0  0  0
  -29.0500  -26.0880   16.3990 C   0  0  0  0  0  2  0  0  0  0  0  0
  -28.1950  -26.2620   17.6720 C   0  0  0  0  0  2  0  0  0  0  0  0
  -28.9630  -26.6770   18.9380 C   0  0  0  0  0  2  0  0  0  0  0  0
  -28.1620  -26.5970   20.1250 O   0  0  0  0  0  0  0  0  0  0  0  0
  -24.5110  -31.8410   23.2870 C   0  0  0  0  0  0  0  0  0  0  0  0
  -27.0190  -27.3640   20.1550 C   0  0  0  0  0  0  0  0  0  0  0  0
  -23.2470  -30.4690   21.6650 C   0  0  0  0  0  3  0  0  0  0  0  0
  -24.6450  -28.8910   20.2280 C   0  0  0  0  0  0  0  0  0  0  0  0
  -25.7790  -30.7650   21.4300 C   0  0  0  0  0  2  0  0  0  0  0  0
  -25.8240  -29.3970   20.7920 C   0  0  0  0  0  0  0  0  0  0  0  0
  -27.0170  -28.6400   20.7520 C   0  0  0  0  0  3  0  0  0  0  0  0
  -25.8150  -26.8420   19.6420 C   0  0  0  0  0  3  0  0  0  0  0  0
  -24.6340  -27.6080   19.6510 C   0  0  0  0  0  3  0  0  0  0  0  0
  -23.4200  -29.7760   20.2880 C   0  0  0  0  0  2  0  0  0  0  0  0
  -24.5310  -31.0400   22.1830 N   0  0  0  0  0  0  0  0  0  0  0  0
  -23.4460  -32.1410   23.8420 O   0  0  0  0  0  0  0  0  0  0  0  0
  -22.5850  -29.4650   22.6370 C   0  0  0  0  0  0  0  0  0  0  0  0
  -21.2610  -29.2830   22.5010 N   0  0  0  0  0  0  0  0  0  0  0  0
  -23.2590  -28.8500   23.4680 O   0  0  0  0  0  0  0  0  0  0  0  0
  -20.7740  -29.8330   21.8060 H   0  0  0  0  0  0  0  0  0  0  0  0
  -17.8870  -28.0800   22.9680 C   0  0  0  0  0  0  0  0  0  0  0  0
  -20.4370  -28.3600   23.2840 C   0  0  0  0  0  3  0  0  0  0  0  0
  -20.5580  -26.9110   22.7530 C   0  0  0  0  0  2  0  0  0  0  0  0
  -19.4800  -26.5560   21.7250 C   0  0  0  0  0  2  0  0  0  0  0  0
  -18.0840  -26.7130   22.3350 C   0  0  0  0  0  2  0  0  0  0  0  0
  -18.9900  -28.8600   23.4000 C   0  0  0  0  0  0  0  0  0  0  0  0
  -18.7480  -30.1440   23.9400 C   0  0  0  0  0  3  0  0  0  0  0  0
  -17.4360  -30.6400   24.0620 C   0  0  0  0  0  3  0  0  0  0  0  0
  -16.3480  -29.8540   23.6470 C   0  0  0  0  0  3  0  0  0  0  0  0
  -16.5750  -28.5800   23.1020 C   0  0  0  0  0  3  0  0  0  0  0  0
  -25.8240  -32.4400   23.8840 C   0  0  0  0  0  3  0  0  0  0  0  0
  -25.5620  -33.8510   24.1950 N   0  0  0  0  0  0  0  0  0  0  0  0
  -25.9280  -34.8800   23.4200 C   0  0  0  0  0  0  0  0  0  0  0  0
  -26.5930  -34.7400   22.3870 O   0  0  0  0  0  0  0  0  0  0  0  0
  -24.9760  -34.0350   24.9960 H   0  0  0  0  0  0  0  0  0  0  0  0
  -24.2780  -36.7340   23.0220 C   0  0  0  0  0  1  0  0  0  0  0  0
  -25.4880  -36.2880   23.8570 C   0  0  0  0  0  3  0  0  0  0  0  0
  -27.6400  -37.1000   24.7210 C   0  0  0  0  0  1  0  0  0  0  0  0
  -26.5640  -37.2980   23.7540 N   0  0  0  0  0  0  0  0  0  0  0  0
  -26.1940  -38.2360   23.8780 H   0  0  0  0  0  0  0  0  0  0  0  0
  -26.3400  -31.6670   25.1600 C   0  0  1  0  0  0  0  0  0  0  0  0
  -25.2520  -31.4430   26.2360 C   0  0  0  0  0  1  0  0  0  0  0  0
  -26.9070  -30.2810   24.7710 C   0  0  0  0  0  1  0  0  0  0  0  0
  -27.5030  -32.4520   25.8110 C   0  0  0  0  0  1  0  0  0  0  0  0
  -25.6850  -23.6800   16.4110 C   0  0  0  0  0  2  0  0  0  0  0  0
  -25.1320  -22.6450   17.4060 C   0  0  0  0  0  2  0  0  0  0  0  0
  -26.2850  -21.7040   17.7980 C   0  0  0  0  0  2  0  0  0  0  0  0
  -25.9800  -20.5810   18.8030 C   0  0  0  0  0  2  0  0  0  0  0  0
  -27.1530  -19.6890   18.8910 N   0  0  0  0  0  4  0  0  0  0  0  0
  -27.2680  -19.2210   18.0090 H   0  0  0  0  0  0  0  0  0  0  0  0
  -27.9670  -20.2600   19.0390 H   0  0  0  0  0  0  0  0  0  0  0  0
  -27.1320  -18.6830   19.9650 C   0  0  0  0  0  2  0  0  0  0  0  0
  -29.3960  -18.1150   20.9480 C   0  0  0  0  0  3  0  0  0  0  0  0
  -28.4830  -17.9920   19.9730 C   0  0  0  0  0  3  0  0  0  0  0  0
  -30.7810  -17.4970   20.9060 C   0  0  0  0  0  2  0  0  0  0  0  0
  -30.9450  -16.2910   21.8480 C   0  0  0  0  0  2  0  0  0  0  0  0
  -30.7050  -14.3560   20.2960 C   0  0  0  0  0  0  0  0  0  0  0  0
  -30.2430  -12.3870   18.8840 C   0  0  0  0  0  2  0  0  0  0  0  0
  -29.2240  -12.7180   17.7780 C   0  0  0  0  0  2  0  0  0  0  0  0
  -27.7820  -12.5570   18.2950 C   0  0  0  0  0  2  0  0  0  0  0  0
  -27.5490  -13.2790   19.6470 C   0  0  0  0  0  3  0  0  0  0  0  0
  -28.6620  -12.9220   20.6560 C   0  0  0  0  0  2  0  0  0  0  0  0
  -29.9640  -13.2470   20.0430 N   0  0  0  0  0  0  0  0  0  0  0  0
  -31.7010  -14.6700   19.6370 O   0  0  0  0  0  0  0  0  0  0  0  0
  -30.2890  -15.0930   21.3340 N   0  0  0  0  0  0  0  0  0  0  0  0
  -29.4670  -14.7690   21.8210 H   0  0  0  0  0  0  0  0  0  0  0  0
  -25.1790  -13.8490   20.4840 C   0  0  0  0  0  0  0  0  0  0  0  0
  -24.1370  -13.0580   20.8880 C   0  0  0  0  0  0  0  0  0  0  0  0
  -24.6120  -11.7130   20.8110 C   0  0  0  0  0  0  0  0  0  0  0  0
  -26.2210  -12.9840   20.1850 N   0  0  0  0  0  0  0  0  0  0  0  0
  -25.8840  -11.6940   20.4350 N   0  0  0  0  0  0  0  0  0  0  0  0
  -23.9100  -10.4410   21.0180 C   0  0  0  0  0  0  0  0  0  0  0  0
  -24.3750   -9.4830   21.9450 C   0  0  0  0  0  3  0  0  0  0  0  0
  -23.6730   -8.2740   22.1380 C   0  0  0  0  0  3  0  0  0  0  0  0
  -22.4930   -8.0150   21.4010 C   0  0  0  0  0  0  0  0  0  0  0  0
  -22.0470   -8.9620   20.4630 C   0  0  0  0  0  3  0  0  0  0  0  0
  -22.7490  -10.1620   20.2680 C   0  0  0  0  0  3  0  0  0  0  0  0
  -21.7600   -6.8570   21.5040 O   0  0  0  0  0  0  0  0  0  0  0  0
  -21.7210   -6.1300   22.6670 C   0  0  0  0  0  0  0  0  0  0  0  0
  -21.2430   -6.6820   23.8750 C   0  0  0  0  0  3  0  0  0  0  0  0
  -21.1530   -5.8790   25.0300 C   0  0  0  0  0  3  0  0  0  0  0  0
  -21.5360   -4.5250   24.9780 C   0  0  0  0  0  0  0  0  0  0  0  0
  -22.0090   -3.9720   23.7740 C   0  0  0  0  0  3  0  0  0  0  0  0
  -22.0990   -4.7730   22.6210 C   0  0  0  0  0  0  0  0  0  0  0  0
  -22.5350   -4.2290   21.4580 F   0  0  0  0  0  0  0  0  0  0  0  0
  -21.4450   -3.7490   26.0850 F   0  0  0  0  0  0  0  0  0  0  0  0
  -22.7520  -13.5170   21.2400 C   0  0  0  0  0  0  0  0  0  0  0  0
  -22.0820  -12.8040   22.1380 N   0  0  0  0  0  0  0  0  0  0  0  0
  -22.2740  -14.5420   20.7570 O   0  0  0  0  0  0  0  0  0  0  0  0
  -22.4820  -11.9730   22.5500 H   0  0  0  0  0  0  0  0  0  0  0  0
  -21.1550  -13.0930   22.4170 H   0  0  0  0  0  0  0  0  0  0  0  0
  -25.3250  -15.2230   20.3300 N   0  0  0  0  0  0  0  0  0  0  0  0
  -24.5740  -15.8750   20.5310 H   0  0  0  0  0  0  0  0  0  0  0  0
  -26.1910  -15.6680   20.0600 H   0  0  0  0  0  0  0  0  0  0  0  0
  1 52  1  0
  2  3  1  0
  2  1  1  0
  4  5  1  0
  4  3  1  0
  5  6  1  0
  5  8  1  0
  7  5  1  0
  8  9  1  0
  9 10  1  0
 10 11  1  0
 11 13  1  0
 12 23  2  0
 13 18  1  0
 14 22  1  0
 14 24  1  0
 15 21  1  0
 15 17  1  0
 16 22  1  0
 17 16  1  0
 18 17  2  0
 19 20  1  0
 19 13  2  0
 20 15  2  0
 21 14  1  0
 22 12  1  0
 24 26  2  0
 25 24  1  0
 27 25  1  0
 28 37  2  0
 28 33  1  0
 29 25  1  0
 29 33  1  0
 30 29  1  0
 31 32  1  0
 31 30  1  0
 32 28  1  0
 33 34  2  0
 34 35  1  0
 36 35  2  0
 37 36  1  0
 38 12  1  0
 38 39  1  0
 38 48  1  0
 39 42  1  0
 40 44  1  0
 40 39  1  0
 41 40  2  0
 44 43  1  0
 46 44  1  0
 46 47  1  0
 46 45  1  0
 48 51  1  1
 48 49  1  0
 50 48  1  0
 52 53  1  0
 53 54  1  0
 54 55  1  0
 55 56  1  0
 56 58  1  0
 56 59  1  0
 57 56  1  0
 59 61  1  0
 61 60  2  0
 62 60  1  0
 62 63  1  0
 64 72  1  0
 65 70  1  0
 66 67  1  0
 66 65  1  0
 68 67  1  0
 68 77  1  0
 68 69  1  0
 70 64  1  0
 70 69  1  0
 71 64  2  0
 72 73  1  0
 72 63  1  0
 74 75  2  0
 75 94  1  0
 76 75  1  0
 76 79  1  0
 77 78  1  0
 77 74  1  0
 78 76  2  0
 79 80  1  0
 80 81  2  0
 82 85  1  0
 82 81  1  0
 83 82  2  0
 84 83  1  0
 84 79  2  0
 85 86  1  0
 86 87  1  0
 87 88  2  0
 89 88  1  0
 89 93  1  0
 90 89  2  0
 91 86  2  0
 91 90  1  0
 92 91  1  0
 94 95  1  0
 95 98  1  0
 95 97  1  0
 96 94  2  0
 99 74  1  0
 99100  1  0
101 99  1  0
M  ISO  4  10 101  11 101  64 100  72 100
M  END
>  <TORSDO>  (1) 
F 32

>  <SCORE>  (1) 
-9.789

>  <name>  (1) 
1

>  <ligand_id>  (1) 
1

>  <original_smiles>  (1) 
[H]C(=C([H])C([H])([H])[N+]([H])([H])C([H])([H])C([H])([H])C([H])([H])C([H])([H])C([H])([H])OC([H])([H])C([H])([H])[N+]([H])([H])C([H])([H])C([H])([H])C([H])([H])Oc1c([H])c([H])c2c(c1[H])C([H])([H])N(C(=O)C([H])(N([H])C(=O)C([H])(N([H])C([H])([H])[H])C([H])([H])[H])C(C([H])([H])[H])(C([H])([H])[H])C([H])([H])[H])C([H])(C(=O)N([H])C1([H])c3c([H])c([H])c([H])c([H])c3C([H])([H])C([H])([H])C1([H])[H])C2([H])[H])C([H])([H])C([H])([H])N([H])C(=O)N1C([H])([H])C([H])([H])C([H])([H])C([H])(n2nc(-c3c([H])c([H])c(Oc4c([H])c([H])c(F)c([H])c4F)c([H])c3[H])c(C(=O)N([H])[H])c2N([H])[H])C1([H])[H]

>  <smiles>  (1) 
[H]C(=C([H])C([H])([H])[N+]([H])([H])C([H])([H])C([H])([H])C([H])([H])C([H])([H])C([H])([H])OC([H])([H])C([H])([H])[N+]([H])([H])C([H])([H])C([H])([H])C([H])([H])Oc1c([H])c([H])c2c(c1[H])C([H])([H])N(C(=O)C([H])(N([H])C(=O)C([H])(N([H])C([H])([H])[H])C([H])([H])[H])C(C([H])([H])[H])(C([H])([H])[H])C([H])([H])[H])C([H])(C(=O)N([H])C1([H])c3c([H])c([H])c([H])c([H])c3C([H])([H])C([H])([H])C1([H])[H])C2([H])[H])C([H])([H])C([H])([H])N([H])C(=O)N1C([H])([H])C([H])([H])C([H])([H])C([H])(n2nc(-c3c([H])c([H])c(Oc4c([H])c([H])c(F)c([H])c4F)c([H])c3[H])c(C(=O)N([H])[H])c2N([H])[H])C1([H])[H]

$$$$
2:0:0
     RDKit          3D

110117  0  0  1  0  0  0  0  0999 V2000
  -30.4570  -21.5260   16.5090 C   0  0  0  0  0  0  0  0  0  0  0  0
  -30.5560  -20.9550   17.7120 N   0  0  0  0  0  0  0  0  0  0  0  0
  -30.4190  -20.8770   15.4610 O   0  0  0  0  0  0  0  0  0  0  0  0
  -30.5480  -21.5410   18.5380 H   0  0  0  0  0  0  0  0  0  0  0  0
  -30.4280  -22.9700   16.6120 C   0  0  0  0  0  3  0  0  0  0  0  0
  -31.2390  -23.7140   15.8300 C   0  0  0  0  0  3  0  0  0  0  0  0
  -31.3220  -25.1650   15.8970 C   0  0  0  0  0  0  0  0  0  0  0  0
  -31.3050  -25.6450   17.1450 N   0  0  0  0  0  0  0  0  0  0  0  0
  -31.4500  -25.8940   14.9150 O   0  0  0  0  0  0  0  0  0  0  0  0
  -31.1630  -24.9710   17.8790 H   0  0  0  0  0  0  0  0  0  0  0  0
  -31.6340  -27.0070   17.5530 C   0  0  0  0  0  2  0  0  0  0  0  0
  -32.9720  -27.0430   18.3160 C   0  0  0  0  0  2  0  0  0  0  0  0
  -32.8930  -27.8230   19.5050 O   0  0  0  0  0  0  0  0  0  0  0  0
  -33.6100  -27.3610   20.6480 C   0  0  0  0  0  2  0  0  0  0  0  0
  -32.6570  -27.0350   21.8160 C   0  0  0  0  0  2  0  0  0  0  0  0
  -32.1110  -28.2220   22.3850 O   0  0  0  0  0  0  0  0  0  0  0  0
  -26.4780  -31.9390   24.5500 C   0  0  0  0  0  0  0  0  0  0  0  0
  -30.8020  -28.5600   22.1130 C   0  0  0  0  0  0  0  0  0  0  0  0
  -26.0750  -30.4100   22.6510 C   0  0  0  0  0  3  0  0  0  0  0  0
  -28.1490  -29.3860   21.5920 C   0  0  0  0  0  0  0  0  0  0  0  0
  -28.3970  -31.4020   23.0550 C   0  0  0  0  0  2  0  0  0  0  0  0
  -28.9700  -30.1460   22.4330 C   0  0  0  0  0  0  0  0  0  0  0  0
  -30.2940  -29.7390   22.6900 C   0  0  0  0  0  3  0  0  0  0  0  0
  -29.9440  -27.7760   21.3040 C   0  0  0  0  0  3  0  0  0  0  0  0
  -28.6270  -28.1900   21.0310 C   0  0  0  0  0  3  0  0  0  0  0  0
  -26.7520  -29.9100   21.3480 C   0  0  0  0  0  2  0  0  0  0  0  0
  -26.9820  -31.2670   23.4790 N   0  0  0  0  0  0  0  0  0  0  0  0
  -25.2720  -31.8880   24.8290 O   0  0  0  0  0  0  0  0  0  0  0  0
  -25.5250  -29.1840   23.4130 C   0  0  0  0  0  0  0  0  0  0  0  0
  -24.3830  -28.6540   22.9430 N   0  0  0  0  0  0  0  0  0  0  0  0
  -26.1290  -28.7170   24.3830 O   0  0  0  0  0  0  0  0  0  0  0  0
  -23.9520  -29.1020   22.1450 H   0  0  0  0  0  0  0  0  0  0  0  0
  -21.5320  -26.4870   22.4780 C   0  0  0  0  0  0  0  0  0  0  0  0
  -23.6960  -27.4790   23.4790 C   0  0  0  0  0  3  0  0  0  0  0  0
  -24.3870  -26.1750   23.0210 C   0  0  0  0  0  2  0  0  0  0  0  0
  -23.7830  -25.5870   21.7440 C   0  0  0  0  0  2  0  0  0  0  0  0
  -22.2960  -25.2830   21.9460 C   0  0  0  0  0  2  0  0  0  0  0  0
  -22.1950  -27.5250   23.1820 C   0  0  0  0  0  0  0  0  0  0  0  0
  -21.4500  -28.6370   23.6270 C   0  0  0  0  0  3  0  0  0  0  0  0
  -20.0660  -28.7200   23.3850 C   0  0  0  0  0  3  0  0  0  0  0  0
  -19.4110  -27.6830   22.6980 C   0  0  0  0  0  3  0  0  0  0  0  0
  -20.1430  -26.5680   22.2500 C   0  0  0  0  0  3  0  0  0  0  0  0
  -27.3890  -32.8190   25.4640 C   0  0  0  0  0  3  0  0  0  0  0  0
  -26.7310  -34.1240   25.6160 N   0  0  0  0  0  0  0  0  0  0  0  0
  -26.8470  -35.1380   24.7480 C   0  0  0  0  0  0  0  0  0  0  0  0
  -27.5920  -35.0970   23.7660 O   0  0  0  0  0  0  0  0  0  0  0  0
  -26.0710  -34.2120   26.3740 H   0  0  0  0  0  0  0  0  0  0  0  0
  -24.7180  -36.3440   24.1710 C   0  0  0  0  0  1  0  0  0  0  0  0
  -26.0020  -36.4000   25.0140 C   0  0  0  0  0  3  0  0  0  0  0  0
  -27.9210  -37.8260   25.5600 C   0  0  0  0  0  1  0  0  0  0  0  0
  -26.7250  -37.6610   24.7400 N   0  0  0  0  0  0  0  0  0  0  0  0
  -26.1220  -38.4630   24.8990 H   0  0  0  0  0  0  0  0  0  0  0  0
  -27.6750  -32.1730   26.8750 C   0  0  1  0  0  0  0  0  0  0  0  0
  -26.4870  -31.3570   27.4380 C   0  0  0  0  0  1  0  0  0  0  0  0
  -28.9030  -31.2350   26.8080 C   0  0  0  0  0  1  0  0  0  0  0  0
  -28.0220  -33.2780   27.8980 C   0  0  0  0  0  1  0  0  0  0  0  0
  -30.7310  -19.5230   17.9310 C   0  0  0  0  0  2  0  0  0  0  0  0
  -31.8090  -19.2390   18.9940 C   0  0  0  0  0  2  0  0  0  0  0  0
  -31.3350  -19.3530   20.4530 C   0  0  0  0  0  2  0  0  0  0  0  0
  -30.8760  -20.6710   20.7170 O   0  0  0  0  0  0  0  0  0  0  0  0
  -29.8850  -20.7060   21.7340 C   0  0  0  0  0  2  0  0  0  0  0  0
  -29.3990  -22.1520   21.8550 C   0  0  0  0  0  2  0  0  0  0  0  0
  -27.8710  -22.2650   21.7510 C   0  0  0  0  0  2  0  0  0  0  0  0
  -27.3820  -23.7170   21.8230 C   0  0  0  0  0  2  0  0  0  0  0  0
  -28.3870  -24.6320   21.3830 O   0  0  0  0  0  0  0  0  0  0  0  0
  -28.7720  -24.5660   20.0050 C   0  0  0  0  0  2  0  0  0  0  0  0
  -29.9860  -23.6660   19.7130 C   0  0  0  0  0  2  0  0  0  0  0  0
  -31.3190  -24.2210   20.2400 C   0  0  0  0  0  2  0  0  0  0  0  0
  -32.3460  -23.7500   19.3800 O   0  0  0  0  0  0  0  0  0  0  0  0
  -33.6550  -23.9500   19.8890 C   0  0  0  0  0  2  0  0  0  0  0  0
  -34.6220  -23.1320   19.0220 C   0  0  0  0  0  2  0  0  0  0  0  0
  -35.5630  -23.9820   18.1510 C   0  0  0  0  0  2  0  0  0  0  0  0
  -38.0650  -24.5850   18.3550 C   0  0  0  0  0  0  0  0  0  0  0  0
  -39.7750  -24.8830   16.6130 C   0  0  0  0  0  2  0  0  0  0  0  0
  -39.5350  -26.1950   15.8430 C   0  0  0  0  0  2  0  0  0  0  0  0
  -38.5620  -25.9640   14.6670 C   0  0  0  0  0  2  0  0  0  0  0  0
  -37.2840  -25.1980   15.1000 C   0  0  0  0  0  3  0  0  0  0  0  0
  -37.6800  -23.9380   15.9040 C   0  0  0  0  0  2  0  0  0  0  0  0
  -38.4700  -24.3750   17.0660 N   0  0  0  0  0  0  0  0  0  0  0  0
  -38.8060  -25.0690   19.2080 O   0  0  0  0  0  0  0  0  0  0  0  0
  -36.8660  -24.1600   18.7870 N   0  0  0  0  0  0  0  0  0  0  0  0
  -36.8080  -24.2300   19.7940 H   0  0  0  0  0  0  0  0  0  0  0  0
  -35.1580  -25.2890   13.6490 C   0  0  0  0  0  0  0  0  0  0  0  0
  -34.8590  -24.7480   12.4260 C   0  0  0  0  0  0  0  0  0  0  0  0
  -36.0140  -23.9980   12.0400 C   0  0  0  0  0  0  0  0  0  0  0  0
  -36.4420  -24.8650   13.9510 N   0  0  0  0  0  0  0  0  0  0  0  0
  -36.9350  -24.0420   12.9920 N   0  0  0  0  0  0  0  0  0  0  0  0
  -36.3240  -23.2880   10.7930 C   0  0  0  0  0  0  0  0  0  0  0  0
  -36.5390  -21.8930   10.7770 C   0  0  0  0  0  3  0  0  0  0  0  0
  -36.8120  -21.2290    9.5640 C   0  0  0  0  0  3  0  0  0  0  0  0
  -36.8730  -21.9590    8.3540 C   0  0  0  0  0  0  0  0  0  0  0  0
  -36.6860  -23.3520    8.3800 C   0  0  0  0  0  3  0  0  0  0  0  0
  -36.4210  -24.0140    9.5890 C   0  0  0  0  0  3  0  0  0  0  0  0
  -37.1600  -21.4060    7.1310 O   0  0  0  0  0  0  0  0  0  0  0  0
  -36.7940  -20.1220    6.8200 C   0  0  0  0  0  0  0  0  0  0  0  0
  -35.4410  -19.7290    6.7470 C   0  0  0  0  0  3  0  0  0  0  0  0
  -35.1100  -18.4190    6.3550 C   0  0  0  0  0  3  0  0  0  0  0  0
  -36.1260  -17.5020    6.0230 C   0  0  0  0  0  0  0  0  0  0  0  0
  -37.4750  -17.8940    6.0900 C   0  0  0  0  0  3  0  0  0  0  0  0
  -37.8080  -19.2010    6.4840 C   0  0  0  0  0  0  0  0  0  0  0  0
  -39.1080  -19.5820    6.5230 F   0  0  0  0  0  0  0  0  0  0  0  0
  -35.8110  -16.2420    5.6390 F   0  0  0  0  0  0  0  0  0  0  0  0
  -33.6160  -24.9820   11.6130 C   0  0  0  0  0  0  0  0  0  0  0  0
  -33.0000  -23.9140   11.1210 N   0  0  0  0  0  0  0  0  0  0  0  0
  -33.1560  -26.1120   11.4520 O   0  0  0  0  0  0  0  0  0  0  0  0
  -33.3760  -22.9880   11.2730 H   0  0  0  0  0  0  0  0  0  0  0  0
  -32.1390  -24.0220   10.6010 H   0  0  0  0  0  0  0  0  0  0  0  0
  -34.4570  -26.1170   14.5190 N   0  0  0  0  0  0  0  0  0  0  0  0
  -33.4750  -26.3230   14.3930 H   0  0  0  0  0  0  0  0  0  0  0  0
  -34.7800  -26.3570   15.4490 H   0  0  0  0  0  0  0  0  0  0  0  0
  1  5  1  0
  1  2  1  0
  2 57  1  0
  2  4  1  0
  3  1  2  0
  6  7  1  0
  6  5  2  0
  7  8  1  0
  8 11  1  0
  8 10  1  0
  9  7  2  0
 11 12  1  0
 12 13  1  0
 13 14  1  0
 14 15  1  0
 15 16  1  0
 17 28  2  0
 18 16  1  0
 18 23  1  0
 19 29  1  0
 19 27  1  0
 20 22  1  0
 21 27  1  0
 22 23  2  0
 22 21  1  0
 24 18  2  0
 25 24  1  0
 25 20  2  0
 26 20  1  0
 26 19  1  0
 27 17  1  0
 29 31  2  0
 30 29  1  0
 32 30  1  0
 33 38  1  0
 34 30  1  0
 35 34  1  0
 36 37  1  0
 36 35  1  0
 37 33  1  0
 38 34  1  0
 38 39  2  0
 40 39  1  0
 41 40  2  0
 42 33  2  0
 42 41  1  0
 43 17  1  0
 43 44  1  0
 43 53  1  0
 44 47  1  0
 45 49  1  0
 45 44  1  0
 46 45  2  0
 49 48  1  0
 51 52  1  0
 51 49  1  0
 51 50  1  0
 53 54  1  1
 53 56  1  0
 55 53  1  0
 57 58  1  0
 58 59  1  0
 59 60  1  0
 60 61  1  0
 61 62  1  0
 63 64  1  0
 63 62  1  0
 65 64  1  0
 66 65  1  0
 67 66  1  0
 67 68  1  0
 69 70  1  0
 69 68  1  0
 71 70  1  0
 72 81  1  0
 72 71  1  0
 73 81  1  0
 73 80  2  0
 74 79  1  0
 75 74  1  0
 76 77  1  0
 76 75  1  0
 77 86  1  0
 77 78  1  0
 78 79  1  0
 79 73  1  0
 81 82  1  0
 83 86  1  0
 83108  1  0
 84 83  2  0
 85 84  1  0
 85 87  2  0
 87 86  1  0
 88 85  1  0
 89 88  1  0
 90 89  2  0
 91 92  2  0
 91 90  1  0
 92 93  1  0
 93 88  2  0
 94 91  1  0
 95 94  1  0
 96 95  1  0
 97 96  2  0
 98 99  2  0
 98 97  1  0
 99100  1  0
100101  1  0
100 95  2  0
102 98  1  0
103 84  1  0
104106  1  0
104103  1  0
105103  2  0
107104  1  0
108110  1  0
109108  1  0
M  ISO  4  15 101  16 101  73 100  81 100
M  END
>  <TORSDO>  (2) 
F 39

>  <SCORE>  (2) 
-3.078

>  <name>  (2) 
2

>  <ligand_id>  (2) 
2

>  <original_smiles>  (2) 
[H]C(C(=O)N([H])C([H])([H])C([H])([H])OC([H])([H])C([H])([H])Oc1c([H])c([H])c2c(c1[H])C([H])([H])N(C(=O)C([H])(N([H])C(=O)C([H])(N([H])C([H])([H])[H])C([H])([H])[H])C(C([H])([H])[H])(C([H])([H])[H])C([H])([H])[H])C([H])(C(=O)N([H])C1([H])c3c([H])c([H])c([H])c([H])c3C([H])([H])C([H])([H])C1([H])[H])C2([H])[H])=C([H])C(=O)N([H])C([H])([H])C([H])([H])C([H])([H])OC([H])([H])C([H])([H])C([H])([H])C([H])([H])OC([H])([H])C([H])([H])C([H])([H])OC([H])([H])C([H])([H])C([H])([H])N([H])C(=O)N1C([H])([H])C([H])([H])C([H])([H])C([H])(n2nc(-c3c([H])c([H])c(Oc4c([H])c([H])c(F)c([H])c4F)c([H])c3[H])c(C(=O)N([H])[H])c2N([H])[H])C1([H])[H]

>  <smiles>  (2) 
[H]C(C(=O)N([H])C([H])([H])C([H])([H])OC([H])([H])C([H])([H])Oc1c([H])c([H])c2c(c1[H])C([H])([H])N(C(=O)C([H])(N([H])C(=O)C([H])(N([H])C([H])([H])[H])C([H])([H])[H])C(C([H])([H])[H])(C([H])([H])[H])C([H])([H])[H])C([H])(C(=O)N([H])C1([H])c3c([H])c([H])c([H])c([H])c3C([H])([H])C([H])([H])C1([H])[H])C2([H])[H])=C([H])C(=O)N([H])C([H])([H])C([H])([H])C([H])([H])OC([H])([H])C([H])([H])C([H])([H])C([H])([H])OC([H])([H])C([H])([H])C([H])([H])OC([H])([H])C([H])([H])C([H])([H])N([H])C(=O)N1C([H])([H])C([H])([H])C([H])([H])C([H])(n2nc(-c3c([H])c([H])c(Oc4c([H])c([H])c(F)c([H])c4F)c([H])c3[H])c(C(=O)N([H])[H])c2N([H])[H])C1([H])[H]

$$$$
3:0:0
     RDKit          3D

101108  0  0  1  0  0  0  0  0999 V2000
  -30.1550  -20.8090   20.6410 C   0  0  0  0  0  3  0  0  0  0  0  0
  -29.7920  -18.3490   20.8660 C   0  0  0  0  0  0  0  0  0  0  0  0
  -29.3470  -19.5870   20.6350 N   0  0  0  0  0  0  0  0  0  0  0  0
  -30.9490  -18.1160   21.2280 O   0  0  0  0  0  0  0  0  0  0  0  0
  -28.3750  -19.6980   20.3880 H   0  0  0  0  0  0  0  0  0  0  0  0
  -28.7890  -17.2030   20.6010 C   0  0  0  0  0  3  0  0  0  0  0  0
  -29.9440  -14.9980   20.4000 C   0  0  0  0  0  0  0  0  0  0  0  0
  -31.2140  -12.9370   19.9250 C   0  0  0  0  0  2  0  0  0  0  0  0
  -32.7180  -13.1220   20.2070 C   0  0  0  0  0  2  0  0  0  0  0  0
  -33.4360  -13.7160   18.9810 C   0  0  0  0  0  2  0  0  0  0  0  0
  -32.7170  -14.9720   18.4240 C   0  0  0  0  0  3  0  0  0  0  0  0
  -31.2080  -14.6940   18.2390 C   0  0  0  0  0  2  0  0  0  0  0  0
  -30.6530  -14.2360   19.5300 N   0  0  0  0  0  0  0  0  0  0  0  0
  -29.7170  -14.6700   21.5700 O   0  0  0  0  0  0  0  0  0  0  0  0
  -29.4490  -16.1200   19.8770 N   0  0  0  0  0  0  0  0  0  0  0  0
  -29.6720  -16.3060   18.9130 H   0  0  0  0  0  0  0  0  0  0  0  0
  -34.6010  -15.9570   16.9670 C   0  0  0  0  0  0  0  0  0  0  0  0
  -34.7010  -16.1610   15.6170 C   0  0  0  0  0  0  0  0  0  0  0  0
  -33.4580  -15.7310   15.0600 C   0  0  0  0  0  0  0  0  0  0  0  0
  -33.3350  -15.4320   17.1810 N   0  0  0  0  0  0  0  0  0  0  0  0
  -32.6300  -15.3460   16.0230 N   0  0  0  0  0  0  0  0  0  0  0  0
  -33.0280  -15.6090   13.6600 C   0  0  0  0  0  0  0  0  0  0  0  0
  -32.0800  -16.4920   13.0990 C   0  0  0  0  0  3  0  0  0  0  0  0
  -31.6960  -16.3660   11.7480 C   0  0  0  0  0  3  0  0  0  0  0  0
  -32.2640  -15.3530   10.9390 C   0  0  0  0  0  0  0  0  0  0  0  0
  -33.1910  -14.4620   11.5080 C   0  0  0  0  0  3  0  0  0  0  0  0
  -33.5690  -14.5860   12.8550 C   0  0  0  0  0  3  0  0  0  0  0  0
  -31.9310  -15.1390    9.6230 O   0  0  0  0  0  0  0  0  0  0  0  0
  -31.7940  -16.1770    8.7380 C   0  0  0  0  0  0  0  0  0  0  0  0
  -32.9140  -16.8540    8.2030 C   0  0  0  0  0  3  0  0  0  0  0  0
  -32.7300  -17.8680    7.2430 C   0  0  0  0  0  3  0  0  0  0  0  0
  -31.4330  -18.2010    6.8070 C   0  0  0  0  0  0  0  0  0  0  0  0
  -30.3190  -17.5250    7.3340 C   0  0  0  0  0  3  0  0  0  0  0  0
  -30.5000  -16.5140    8.2940 C   0  0  0  0  0  0  0  0  0  0  0  0
  -29.4240  -15.8510    8.7830 F   0  0  0  0  0  0  0  0  0  0  0  0
  -31.2570  -19.1700    5.8780 F   0  0  0  0  0  0  0  0  0  0  0  0
  -35.9130  -16.6390   14.8710 C   0  0  0  0  0  0  0  0  0  0  0  0
  -35.7510  -17.6370   14.0100 N   0  0  0  0  0  0  0  0  0  0  0  0
  -37.0260  -16.1590   15.0840 O   0  0  0  0  0  0  0  0  0  0  0  0
  -34.8430  -18.0460   13.8470 H   0  0  0  0  0  0  0  0  0  0  0  0
  -36.5480  -17.9980   13.5040 H   0  0  0  0  0  0  0  0  0  0  0  0
  -35.4800  -16.1580   18.0270 N   0  0  0  0  0  0  0  0  0  0  0  0
  -36.4230  -16.5070   17.8960 H   0  0  0  0  0  0  0  0  0  0  0  0
  -35.2590  -15.9680   18.9980 H   0  0  0  0  0  0  0  0  0  0  0  0
  -27.8910  -17.7400   18.2070 C   0  0  0  0  0  1  0  0  0  0  0  0
  -26.3220  -16.9200   20.0110 C   0  0  0  0  0  1  0  0  0  0  0  0
  -27.6060  -17.7180   19.7260 C   0  0  0  0  0  3  0  0  0  0  0  0
  -29.4870  -21.9020   21.4930 C   0  0  0  0  0  0  0  0  0  0  0  0
  -30.2580  -22.9320   21.8600 N   0  0  0  0  0  0  0  0  0  0  0  0
  -28.2900  -21.8320   21.7880 O   0  0  0  0  0  0  0  0  0  0  0  0
  -31.2250  -22.9290   21.5610 H   0  0  0  0  0  0  0  0  0  0  0  0
  -29.8090  -24.0910   22.6230 C   0  0  0  0  0  2  0  0  0  0  0  0
  -29.2560  -25.1920   21.7030 C   0  0  0  0  0  2  0  0  0  0  0  0
  -30.3220  -25.7950   20.9760 O   0  0  0  0  0  0  0  0  0  0  0  0
  -30.0880  -27.1760   20.7090 C   0  0  0  0  0  2  0  0  0  0  0  0
  -31.3010  -27.7960   19.9990 C   0  0  0  0  0  2  0  0  0  0  0  0
  -30.9750  -28.2260   18.6780 O   0  0  0  0  0  0  0  0  0  0  0  0
  -35.4560  -33.3260   16.5130 C   0  0  0  0  0  0  0  0  0  0  0  0
  -32.0660  -28.5640   17.9160 C   0  0  0  0  0  0  0  0  0  0  0  0
  -35.6340  -31.1570   15.3370 C   0  0  0  0  0  3  0  0  0  0  0  0
  -34.3390  -29.2240   16.3810 C   0  0  0  0  0  0  0  0  0  0  0  0
  -34.7870  -31.2700   17.7480 C   0  0  0  0  0  2  0  0  0  0  0  0
  -33.9500  -30.0460   17.4470 C   0  0  0  0  0  0  0  0  0  0  0  0
  -32.8070  -29.7270   18.2120 C   0  0  0  0  0  3  0  0  0  0  0  0
  -32.4530  -27.7530   16.8280 C   0  0  0  0  0  3  0  0  0  0  0  0
  -33.5880  -28.0780   16.0600 C   0  0  0  0  0  3  0  0  0  0  0  0
  -35.5790  -29.6310   15.6190 C   0  0  0  0  0  2  0  0  0  0  0  0
  -35.2710  -31.9770   16.5380 N   0  0  0  0  0  0  0  0  0  0  0  0
  -35.9590  -33.8860   15.5290 O   0  0  0  0  0  0  0  0  0  0  0  0
  -34.7560  -31.4610   14.1020 C   0  0  0  0  0  0  0  0  0  0  0  0
  -35.3320  -31.2850   12.9010 N   0  0  0  0  0  0  0  0  0  0  0  0
  -33.5810  -31.8150   14.2330 O   0  0  0  0  0  0  0  0  0  0  0  0
  -36.3010  -31.0010   12.8790 H   0  0  0  0  0  0  0  0  0  0  0  0
  -35.8940  -31.1770    9.3350 C   0  0  0  0  0  0  0  0  0  0  0  0
  -34.6870  -31.4730   11.6020 C   0  0  0  0  0  3  0  0  0  0  0  0
  -33.8590  -30.2290   11.2070 C   0  0  0  0  0  2  0  0  0  0  0  0
  -34.6430  -29.2270   10.3540 C   0  0  0  0  0  2  0  0  0  0  0  0
  -35.1350  -29.8900    9.0640 C   0  0  0  0  0  2  0  0  0  0  0  0
  -35.6960  -31.9120   10.5340 C   0  0  0  0  0  0  0  0  0  0  0  0
  -36.4550  -33.0820   10.7540 C   0  0  0  0  0  3  0  0  0  0  0  0
  -37.3920  -33.5220    9.8010 C   0  0  0  0  0  3  0  0  0  0  0  0
  -37.5710  -32.8010    8.6070 C   0  0  0  0  0  3  0  0  0  0  0  0
  -36.8210  -31.6340    8.3750 C   0  0  0  0  0  3  0  0  0  0  0  0
  -35.0660  -34.2280   17.7270 C   0  0  0  0  0  3  0  0  0  0  0  0
  -36.2540  -35.0100   18.0950 N   0  0  0  0  0  0  0  0  0  0  0  0
  -37.1860  -34.6090   18.9690 C   0  0  0  0  0  0  0  0  0  0  0  0
  -37.0980  -33.5590   19.6110 O   0  0  0  0  0  0  0  0  0  0  0  0
  -36.4200  -35.8540   17.5690 H   0  0  0  0  0  0  0  0  0  0  0  0
  -39.6210  -34.9150   18.4190 C   0  0  0  0  0  1  0  0  0  0  0  0
  -38.4160  -35.5180   19.1590 C   0  0  0  0  0  3  0  0  0  0  0  0
  -37.8600  -36.6720   21.2550 C   0  0  0  0  0  1  0  0  0  0  0  0
  -38.7650  -35.7470   20.5780 N   0  0  0  0  0  0  0  0  0  0  0  0
  -39.7120  -36.1100   20.6610 H   0  0  0  0  0  0  0  0  0  0  0  0
  -33.8420  -35.1770   17.4290 C   0  0  1  0  0  0  0  0  0  0  0  0
  -34.2150  -36.4330   16.6080 C   0  0  0  0  0  1  0  0  0  0  0  0
  -32.7380  -34.4170   16.6580 C   0  0  0  0  0  1  0  0  0  0  0  0
  -33.2100  -35.6490   18.7610 C   0  0  0  0  0  1  0  0  0  0  0  0
  -30.2570  -21.3360   19.1890 C   0  0  0  0  0  2  0  0  0  0  0  0
  -30.6070  -20.0450   17.0660 C   0  0  0  0  0  2  0  0  0  0  0  0
  -31.0710  -20.4410   18.2620 C   0  0  0  0  0  0  0  0  0  0  0  0
  -32.4370  -20.0190   18.7690 C   0  0  0  0  0  1  0  0  0  0  0  0
  1 98  1  0
  1 48  1  0
  2  4  2  0
  3  1  1  0
  3  2  1  0
  5  3  1  0
  6 47  1  0
  6  2  1  0
  7 14  2  0
  8  9  1  0
 10  9  1  0
 11 20  1  0
 11 10  1  0
 12 11  1  0
 12 13  1  0
 13  8  1  0
 13  7  1  0
 15  7  1  0
 15  6  1  0
 16 15  1  0
 17 20  1  0
 17 42  1  0
 18 17  2  0
 19 18  1  0
 19 21  2  0
 21 20  1  0
 22 19  1  0
 23 22  1  0
 24 23  2  0
 25 26  2  0
 25 24  1  0
 26 27  1  0
 27 22  2  0
 28 25  1  0
 29 28  1  0
 30 29  2  0
 31 30  1  0
 32 31  2  0
 32 33  1  0
 33 34  2  0
 34 29  1  0
 34 35  1  0
 36 32  1  0
 37 39  2  0
 37 18  1  0
 38 37  1  0
 40 38  1  0
 41 38  1  0
 42 44  1  0
 43 42  1  0
 45 47  1  0
 47 46  1  0
 48 50  2  0
 48 49  1  0
 49 52  1  0
 51 49  1  0
 53 52  1  0
 54 53  1  0
 55 54  1  0
 56 55  1  0
 57 56  1  0
 58 68  1  0
 59 64  1  0
 59 57  1  0
 60 70  1  0
 60 67  1  0
 60 68  1  0
 61 63  1  0
 63 62  1  0
 63 64  2  0
 65 59  2  0
 66 61  2  0
 66 65  1  0
 67 61  1  0
 68 62  1  0
 69 58  2  0
 70 72  2  0
 71 70  1  0
 73 71  1  0
 74 79  1  0
 75 71  1  0
 76 75  1  0
 77 76  1  0
 78 74  1  0
 78 77  1  0
 79 80  2  0
 79 75  1  0
 81 80  1  0
 82 81  2  0
 83 82  1  0
 83 74  2  0
 84 58  1  0
 84 85  1  0
 85 86  1  0
 86 90  1  0
 86 87  2  0
 88 85  1  0
 90 89  1  0
 90 92  1  0
 92 93  1  0
 92 91  1  0
 94 84  1  0
 94 97  1  1
 95 94  1  0
 96 94  1  0
 99100  2  0
100101  1  0
100 98  1  0
M  ISO  4   7 100  15 100  56 101  57 101
M  END
>  <TORSDO>  (3) 
F 27

>  <SCORE>  (3) 
-4.471

>  <name>  (3) 
3

>  <ligand_id>  (3) 
3

>  <original_smiles>  (3) 
[H]C([H])=C(C([H])([H])[H])C([H])([H])C([H])(C(=O)N([H])C([H])([H])C([H])([H])OC([H])([H])C([H])([H])Oc1c([H])c([H])c2c(c1[H])C([H])([H])N(C(=O)C([H])(N([H])C(=O)C([H])(N([H])C([H])([H])[H])C([H])([H])[H])C(C([H])([H])[H])(C([H])([H])[H])C([H])([H])[H])C([H])(C(=O)N([H])C1([H])c3c([H])c([H])c([H])c([H])c3C([H])([H])C([H])([H])C1([H])[H])C2([H])[H])N([H])C(=O)C([H])(N([H])C(=O)N1C([H])([H])C([H])([H])C([H])([H])C([H])(n2nc(-c3c([H])c([H])c(Oc4c([H])c([H])c(F)c([H])c4F)c([H])c3[H])c(C(=O)N([H])[H])c2N([H])[H])C1([H])[H])C([H])(C([H])([H])[H])C([H])([H])[H]

>  <smiles>  (3) 
[H]C([H])=C(C([H])([H])[H])C([H])([H])C([H])(C(=O)N([H])C([H])([H])C([H])([H])OC([H])([H])C([H])([H])Oc1c([H])c([H])c2c(c1[H])C([H])([H])N(C(=O)C([H])(N([H])C(=O)C([H])(N([H])C([H])([H])[H])C([H])([H])[H])C(C([H])([H])[H])(C([H])([H])[H])C([H])([H])[H])C([H])(C(=O)N([H])C1([H])c3c([H])c([H])c([H])c([H])c3C([H])([H])C([H])([H])C1([H])[H])C2([H])[H])N([H])C(=O)C([H])(N([H])C(=O)N1C([H])([H])C([H])([H])C([H])([H])C([H])(n2nc(-c3c([H])c([H])c(Oc4c([H])c([H])c(F)c([H])c4F)c([H])c3[H])c(C(=O)N([H])[H])c2N([H])[H])C1([H])[H])C([H])(C([H])([H])[H])C([H])([H])[H]

$$$$
4:0:0
     RDKit          3D

 95102  0  0  1  0  0  0  0  0999 V2000
  -26.8750  -22.1890   21.5180 C   0  0  0  0  0  2  0  0  0  0  0  0
  -28.2650  -22.8360   21.6100 C   0  0  0  0  0  2  0  0  0  0  0  0
  -29.2140  -22.0710   20.8680 O   0  0  0  0  0  0  0  0  0  0  0  0
  -29.6700  -22.6870   19.6630 C   0  0  0  0  0  2  0  0  0  0  0  0
  -28.9630  -22.0430   18.4570 C   0  0  0  0  0  2  0  0  0  0  0  0
  -28.8470  -20.5750   18.6290 N   0  0  0  0  0  4  0  0  0  0  0  0
  -28.2190  -20.4080   19.4020 H   0  0  0  0  0  0  0  0  0  0  0  0
  -28.4180  -20.1860   17.8030 H   0  0  0  0  0  0  0  0  0  0  0  0
  -30.1330  -19.8730   18.8550 C   0  0  0  0  0  2  0  0  0  0  0  0
  -29.9450  -18.3850   19.2170 C   0  0  0  0  0  2  0  0  0  0  0  0
  -31.7650  -16.8380   19.7290 C   0  0  0  0  0  0  0  0  0  0  0  0
  -32.0020  -14.3840   19.8800 C   0  0  0  0  0  2  0  0  0  0  0  0
  -31.3220  -13.6790   18.6910 C   0  0  0  0  0  2  0  0  0  0  0  0
  -29.8250  -13.4470   18.9770 C   0  0  0  0  0  2  0  0  0  0  0  0
  -29.1080  -14.7230   19.4920 C   0  0  0  0  0  3  0  0  0  0  0  0
  -29.9160  -15.3750   20.6340 C   0  0  0  0  0  2  0  0  0  0  0  0
  -31.2810  -15.6380   20.1450 N   0  0  0  0  0  0  0  0  0  0  0  0
  -32.8520  -16.9800   19.1670 O   0  0  0  0  0  0  0  0  0  0  0  0
  -31.0430  -17.9130   20.0620 N   0  0  0  0  0  0  0  0  0  0  0  0
  -31.6500  -18.6810   20.3120 H   0  0  0  0  0  0  0  0  0  0  0  0
  -26.6760  -15.2990   20.1120 C   0  0  0  0  0  0  0  0  0  0  0  0
  -25.5990  -14.5110   20.4210 C   0  0  0  0  0  0  0  0  0  0  0  0
  -26.0710  -13.1640   20.3810 C   0  0  0  0  0  0  0  0  0  0  0  0
  -27.7360  -14.4300   19.9060 N   0  0  0  0  0  0  0  0  0  0  0  0
  -27.3730  -13.1400   20.1210 N   0  0  0  0  0  0  0  0  0  0  0  0
  -25.3490  -11.8900   20.5140 C   0  0  0  0  0  0  0  0  0  0  0  0
  -25.6620  -10.9680   21.5380 C   0  0  0  0  0  3  0  0  0  0  0  0
  -24.9420   -9.7580   21.6560 C   0  0  0  0  0  3  0  0  0  0  0  0
  -23.8970   -9.4630   20.7500 C   0  0  0  0  0  0  0  0  0  0  0  0
  -23.6030  -10.3750   19.7220 C   0  0  0  0  0  3  0  0  0  0  0  0
  -24.3230  -11.5750   19.6010 C   0  0  0  0  0  3  0  0  0  0  0  0
  -23.1600   -8.3050   20.7760 O   0  0  0  0  0  0  0  0  0  0  0  0
  -22.7840   -7.7170   21.9560 C   0  0  0  0  0  0  0  0  0  0  0  0
  -22.0230   -8.4090   22.9230 C   0  0  0  0  0  3  0  0  0  0  0  0
  -21.5980   -7.7450   24.0920 C   0  0  0  0  0  3  0  0  0  0  0  0
  -21.9230   -6.3910   24.2900 C   0  0  0  0  0  0  0  0  0  0  0  0
  -22.6790   -5.6980   23.3260 C   0  0  0  0  0  3  0  0  0  0  0  0
  -23.1040   -6.3600   22.1610 C   0  0  0  0  0  0  0  0  0  0  0  0
  -23.8120   -5.6840   21.2250 F   0  0  0  0  0  0  0  0  0  0  0  0
  -21.5090   -5.7490   25.4080 F   0  0  0  0  0  0  0  0  0  0  0  0
  -24.1890  -14.9740   20.6460 C   0  0  0  0  0  0  0  0  0  0  0  0
  -23.4330  -14.2530   21.4680 N   0  0  0  0  0  0  0  0  0  0  0  0
  -23.7640  -16.0070   20.1320 O   0  0  0  0  0  0  0  0  0  0  0  0
  -23.7880  -13.4140   21.9040 H   0  0  0  0  0  0  0  0  0  0  0  0
  -22.4870  -14.5450   21.6660 H   0  0  0  0  0  0  0  0  0  0  0  0
  -26.8430  -16.6720   19.9650 N   0  0  0  0  0  0  0  0  0  0  0  0
  -26.0660  -17.3210   20.0170 H   0  0  0  0  0  0  0  0  0  0  0  0
  -27.6860  -17.0920   19.5960 H   0  0  0  0  0  0  0  0  0  0  0  0
  -25.7490  -23.2320   21.6370 C   0  0  0  0  0  2  0  0  0  0  0  0
  -24.6290  -23.0630   20.5950 C   0  0  0  0  0  2  0  0  0  0  0  0
  -24.8730  -23.8380   19.4250 O   0  0  0  0  0  0  0  0  0  0  0  0
  -25.8130  -23.2950   18.5060 C   0  0  0  0  0  2  0  0  0  0  0  0
  -26.4460  -24.4460   17.7090 C   0  0  0  0  0  2  0  0  0  0  0  0
  -27.3620  -25.3410   18.5660 C   0  0  0  0  0  2  0  0  0  0  0  0
  -27.4260  -26.6750   18.0640 O   0  0  0  0  0  0  0  0  0  0  0  0
  -25.2680  -30.7260   23.4650 C   0  0  0  0  0  0  0  0  0  0  0  0
  -26.4480  -27.5130   18.5420 C   0  0  0  0  0  0  0  0  0  0  0  0
  -23.5790  -30.2960   21.7070 C   0  0  0  0  0  3  0  0  0  0  0  0
  -24.4620  -29.2350   19.5670 C   0  0  0  0  0  0  0  0  0  0  0  0
  -26.0760  -30.3030   21.1500 C   0  0  0  0  0  2  0  0  0  0  0  0
  -25.7720  -29.3010   20.0590 C   0  0  0  0  0  0  0  0  0  0  0  0
  -26.7710  -28.4500   19.5430 C   0  0  0  0  0  3  0  0  0  0  0  0
  -25.1200  -27.4500   18.0600 C   0  0  0  0  0  3  0  0  0  0  0  0
  -24.1280  -28.3070   18.5660 C   0  0  0  0  0  3  0  0  0  0  0  0
  -23.4560  -30.1890   20.1620 C   0  0  0  0  0  2  0  0  0  0  0  0
  -25.0020  -30.4310   22.1610 N   0  0  0  0  0  0  0  0  0  0  0  0
  -24.3530  -30.9370   24.2710 O   0  0  0  0  0  0  0  0  0  0  0  0
  -22.8450  -29.0950   22.3440 C   0  0  0  0  0  0  0  0  0  0  0  0
  -21.5070  -29.0890   22.2290 N   0  0  0  0  0  0  0  0  0  0  0  0
  -23.4720  -28.1890   22.9000 O   0  0  0  0  0  0  0  0  0  0  0  0
  -21.0710  -29.8660   21.7530 H   0  0  0  0  0  0  0  0  0  0  0  0
  -18.0600  -28.0130   22.2710 C   0  0  0  0  0  0  0  0  0  0  0  0
  -20.6040  -28.0500   22.7210 C   0  0  0  0  0  3  0  0  0  0  0  0
  -20.6790  -26.7870   21.8330 C   0  0  0  0  0  2  0  0  0  0  0  0
  -19.6270  -26.7750   20.7190 C   0  0  0  0  0  2  0  0  0  0  0  0
  -18.2150  -26.8500   21.3070 C   0  0  0  0  0  2  0  0  0  0  0  0
  -19.1840  -28.5870   22.9220 C   0  0  0  0  0  0  0  0  0  0  0  0
  -18.9900  -29.6910   23.7810 C   0  0  0  0  0  3  0  0  0  0  0  0
  -17.7030  -30.2190   23.9960 C   0  0  0  0  0  3  0  0  0  0  0  0
  -16.5900  -29.6350   23.3650 C   0  0  0  0  0  3  0  0  0  0  0  0
  -16.7690  -28.5320   22.5090 C   0  0  0  0  0  3  0  0  0  0  0  0
  -26.7320  -30.8400   23.9980 C   0  0  0  0  0  3  0  0  0  0  0  0
  -27.2050  -29.5640   24.7950 C   0  0  1  0  0  0  0  0  0  0  0  0
  -26.2160  -29.1190   25.8970 C   0  0  0  0  0  1  0  0  0  0  0  0
  -27.4200  -28.3680   23.8380 C   0  0  0  0  0  1  0  0  0  0  0  0
  -28.5680  -29.8430   25.4680 C   0  0  0  0  0  1  0  0  0  0  0  0
  -26.8000  -32.0420   24.8430 N   0  0  0  0  0  0  0  0  0  0  0  0
  -27.3490  -33.2040   24.4670 C   0  0  0  0  0  0  0  0  0  0  0  0
  -27.9230  -33.3550   23.3850 O   0  0  0  0  0  0  0  0  0  0  0  0
  -26.3080  -32.0040   25.7230 H   0  0  0  0  0  0  0  0  0  0  0  0
  -26.1370  -35.3460   24.9810 C   0  0  0  0  0  1  0  0  0  0  0  0
  -27.2450  -34.3880   25.4470 C   0  0  0  0  0  3  0  0  0  0  0  0
  -29.5480  -34.3650   26.2970 C   0  0  0  0  0  1  0  0  0  0  0  0
  -28.5130  -35.1320   25.6090 N   0  0  0  0  0  0  0  0  0  0  0  0
  -28.3610  -35.9920   26.1290 H   0  0  0  0  0  0  0  0  0  0  0  0
  1  2  1  0
  1 49  1  0
  3  2  1  0
  4  3  1  0
  5  6  1  0
  5  4  1  0
  6  9  1  0
  6  7  1  0
  8  6  1  0
  9 10  1  0
 10 19  1  0
 11 19  1  0
 11 17  1  0
 12 17  1  0
 13 14  1  0
 13 12  1  0
 15 14  1  0
 15 24  1  0
 15 16  1  0
 17 16  1  0
 18 11  2  0
 19 20  1  0
 21 22  2  0
 22 41  1  0
 23 22  1  0
 23 26  1  0
 24 21  1  0
 24 25  1  0
 25 23  2  0
 26 27  1  0
 27 28  2  0
 29 32  1  0
 29 28  1  0
 30 29  2  0
 31 30  1  0
 31 26  2  0
 32 33  1  0
 33 38  2  0
 33 34  1  0
 34 35  2  0
 35 36  1  0
 36 40  1  0
 37 36  2  0
 38 37  1  0
 39 38  1  0
 41 42  1  0
 42 45  1  0
 42 44  1  0
 43 41  2  0
 46 47  1  0
 46 21  1  0
 48 46  1  0
 50 49  1  0
 51 50  1  0
 52 51  1  0
 53 52  1  0
 53 54  1  0
 55 57  1  0
 55 54  1  0
 56 67  2  0
 57 62  1  0
 58 66  1  0
 58 68  1  0
 59 61  1  0
 59 65  1  0
 60 66  1  0
 61 60  1  0
 62 61  2  0
 63 57  2  0
 63 64  1  0
 64 59  2  0
 65 58  1  0
 66 56  1  0
 68 70  2  0
 69 68  1  0
 71 69  1  0
 72 81  2  0
 72 77  1  0
 73 69  1  0
 73 77  1  0
 74 73  1  0
 75 76  1  0
 75 74  1  0
 76 72  1  0
 77 78  2  0
 78 79  1  0
 80 79  2  0
 81 80  1  0
 82 56  1  0
 82 83  1  0
 82 87  1  0
 83 86  1  1
 83 84  1  0
 85 83  1  0
 87 90  1  0
 88 87  1  0
 88 92  1  0
 89 88  2  0
 92 91  1  0
 92 94  1  0
 94 95  1  0
 94 93  1  0
M  ISO  4  11 100  19 100  54 101  55 101
M  END
>  <TORSDO>  (4) 
F 29

>  <SCORE>  (4) 
-6.014

>  <name>  (4) 
4

>  <ligand_id>  (4) 
4

>  <original_smiles>  (4) 
[H]c1c([H])c([H])c2c(c1[H])C([H])([H])C([H])([H])C([H])([H])C2([H])N([H])C(=O)C1([H])N(C(=O)C([H])(N([H])C(=O)C([H])(N([H])C([H])([H])[H])C([H])([H])[H])C(C([H])([H])[H])(C([H])([H])[H])C([H])([H])[H])C([H])([H])c2c([H])c(OC([H])([H])C([H])([H])C([H])([H])OC([H])([H])C([H])([H])C([H])([H])C([H])([H])OC([H])([H])C([H])([H])[N+]([H])([H])C([H])([H])C([H])([H])N([H])C(=O)N3C([H])([H])C([H])([H])C([H])([H])C([H])(n4nc(-c5c([H])c([H])c(Oc6c([H])c([H])c(F)c([H])c6F)c([H])c5[H])c(C(=O)N([H])[H])c4N([H])[H])C3([H])[H])c([H])c([H])c2C1([H])[H]

>  <smiles>  (4) 
[H]c1c([H])c([H])c2c(c1[H])C([H])([H])C([H])([H])C([H])([H])C2([H])N([H])C(=O)C1([H])N(C(=O)C([H])(N([H])C(=O)C([H])(N([H])C([H])([H])[H])C([H])([H])[H])C(C([H])([H])[H])(C([H])([H])[H])C([H])([H])[H])C([H])([H])c2c([H])c(OC([H])([H])C([H])([H])C([H])([H])OC([H])([H])C([H])([H])C([H])([H])C([H])([H])OC([H])([H])C([H])([H])[N+]([H])([H])C([H])([H])C([H])([H])N([H])C(=O)N3C([H])([H])C([H])([H])C([H])([H])C([H])(n4nc(-c5c([H])c([H])c(Oc6c([H])c([H])c(F)c([H])c6F)c([H])c5[H])c(C(=O)N([H])[H])c4N([H])[H])C3([H])[H])c([H])c([H])c2C1([H])[H]

$$$$
5:0:0
     RDKit          3D

101108  0  0  1  0  0  0  0  0999 V2000
  -26.8550  -23.5690   21.5030 C   0  0  0  0  0  0  0  0  0  0  0  0
  -26.3480  -24.3150   22.7370 N   0  0  0  0  0  0  0  0  0  0  0  0
  -26.0510  -23.5750   20.5690 O   0  0  0  0  0  0  0  0  0  0  0  0
  -27.0500  -24.2950   23.4670 H   0  0  0  0  0  0  0  0  0  0  0  0
  -24.9150  -25.1480   23.2500 C   0  0  0  0  0  2  0  0  0  0  0  0
  -24.1330  -26.0480   24.7730 C   0  0  0  0  0  1  0  0  0  0  0  0
  -22.8210  -27.5170   25.1880 C   0  0  0  0  0  1  0  0  0  0  0  0
  -21.7540  -28.6280   24.1490 O   0  0  0  0  0  0  0  0  0  0  0  0
  -21.2360  -28.7790   22.3670 C   0  0  0  0  0  1  0  0  0  0  0  0
  -22.1510  -28.0990   20.7480 C   0  0  0  0  0  3  0  0  0  0  0  0
  -23.7580  -27.1090   20.3440 C   0  0  0  0  0  2  0  0  0  0  0  0
  -25.4870  -27.1330   20.4520 O   0  0  0  0  0  0  0  0  0  0  0  0
  -24.8030  -31.9570   23.2460 C   0  0  0  0  0  0  0  0  0  0  0  0
  -26.4810  -27.6990   19.6540 C   0  0  0  0  0  3  0  0  0  0  0  0
  -23.7000  -30.3140   21.7940 C   0  0  0  0  0  3  0  0  0  0  0  0
  -24.7630  -29.6730   19.6320 C   0  0  0  0  0  3  0  0  0  0  0  0
  -26.0150  -31.0760   21.2540 C   0  0  0  0  0  2  0  0  0  0  0  0
  -25.9520  -29.8820   20.3260 C   0  0  0  0  0  3  0  0  0  0  0  0
  -26.9490  -28.9060   20.2260 C   0  0  0  0  0  2  0  0  0  0  0  0
  -25.7720  -27.7800   18.4880 C   0  0  0  0  0  2  0  0  0  0  0  0
  -24.7320  -28.7320   18.5690 C   0  0  0  0  0  2  0  0  0  0  0  0
  -23.6160  -30.4300   20.2200 C   0  0  0  0  0  2  0  0  0  0  0  0
  -24.8470  -31.1520   22.1560 N   0  0  0  0  0  0  0  0  0  0  0  0
  -23.7830  -32.1130   23.9330 O   0  0  0  0  0  0  0  0  0  0  0  0
  -23.8240  -28.8000   22.5170 C   0  0  0  0  0  0  0  0  0  0  0  0
  -23.2460  -27.4220   22.1700 N   0  0  1  0  0  4  0  0  0  0  0  0
  -24.2560  -28.8670   23.6300 O   0  0  0  0  0  0  0  0  0  0  0  0
  -23.7450  -26.8080   22.7920 H   0  0  0  0  0  0  0  0  0  0  0  0
  -19.8460  -25.6050   20.1090 C   0  0  0  0  0  0  0  0  0  0  0  0
  -21.8100  -26.5520   21.7550 C   0  0  2  0  0  0  0  0  0  0  0  0
  -22.3430  -25.1730   21.6670 C   0  0  0  0  0  2  0  0  0  0  0  0
  -22.0790  -24.5260   20.3370 C   0  0  0  0  0  2  0  0  0  0  0  0
  -20.5920  -24.3060   20.1760 C   0  0  0  0  0  2  0  0  0  0  0  0
  -20.3610  -26.7470   20.8100 C   0  0  0  0  0  0  0  0  0  0  0  0
  -19.4440  -27.8770   20.6320 C   0  0  0  0  0  3  0  0  0  0  0  0
  -18.2850  -27.8890   19.8040 C   0  0  0  0  0  3  0  0  0  0  0  0
  -17.8670  -26.7240   19.1570 C   0  0  0  0  0  3  0  0  0  0  0  0
  -18.6520  -25.5800   19.3340 C   0  0  0  0  0  3  0  0  0  0  0  0
  -26.0860  -32.7060   23.6660 C   0  0  0  0  0  3  0  0  0  0  0  0
  -25.6810  -34.0300   24.1450 N   0  0  0  0  0  0  0  0  0  0  0  0
  -25.7790  -35.1550   23.4280 C   0  0  0  0  0  0  0  0  0  0  0  0
  -26.2790  -35.1870   22.3000 O   0  0  0  0  0  0  0  0  0  0  0  0
  -25.1940  -34.0610   25.0290 H   0  0  0  0  0  0  0  0  0  0  0  0
  -23.8810  -36.8050   23.4850 C   0  0  0  0  0  1  0  0  0  0  0  0
  -25.2570  -36.4520   24.0740 C   0  0  0  0  0  3  0  0  0  0  0  0
  -27.4220  -37.4480   24.6650 C   0  0  0  0  0  1  0  0  0  0  0  0
  -26.1790  -37.5990   23.9110 N   0  0  0  0  0  0  0  0  0  0  0  0
  -25.7320  -38.4670   24.1940 H   0  0  0  0  0  0  0  0  0  0  0  0
  -26.8870  -31.9100   24.7630 C   0  0  1  0  0  0  0  0  0  0  0  0
  -26.0160  -31.4150   25.9400 C   0  0  0  0  0  1  0  0  0  0  0  0
  -27.6140  -30.6770   24.1730 C   0  0  0  0  0  1  0  0  0  0  0  0
  -27.9980  -32.8130   25.3360 C   0  0  0  0  0  1  0  0  0  0  0  0
  -28.3680  -22.6550   21.0650 C   0  0  0  0  0  0  0  0  0  0  0  0
  -29.1470  -19.7530   20.3950 C   0  0  0  0  0  0  0  0  0  0  0  0
  -28.7630  -21.2100   20.1860 N   0  0  0  0  0  4  0  0  0  0  0  0
  -29.0360  -19.3660   21.5580 O   0  0  0  0  0  0  0  0  0  0  0  0
  -28.8290  -21.4360   19.2030 H   0  0  0  0  0  0  0  0  0  0  0  0
  -28.8830  -18.5310   18.0510 C   0  0  0  0  0  1  0  0  0  0  0  0
  -29.7410  -18.4270   19.3200 C   0  0  0  0  0  0  0  0  0  0  0  0
  -31.0700  -15.6260   19.2320 C   0  0  0  0  0  0  0  0  0  0  0  0
  -31.3920  -13.0240   18.7720 C   0  0  0  0  0  2  0  0  0  0  0  0
  -30.4460  -12.4450   17.6730 C   0  0  0  0  0  2  0  0  0  0  0  0
  -29.0200  -12.2320   18.2130 C   0  0  0  0  0  2  0  0  0  0  0  0
  -28.5860  -13.4280   19.0920 C   0  0  0  0  0  3  0  0  0  0  0  0
  -29.6220  -13.7730   20.1690 C   0  0  0  0  0  2  0  0  0  0  0  0
  -30.7720  -14.2500   19.4340 N   0  0  0  0  0  0  0  0  0  0  0  0
  -32.2070  -15.7430   18.7160 O   0  0  0  0  0  0  0  0  0  0  0  0
  -30.0660  -16.7430   19.5030 N   0  0  0  0  0  4  0  0  0  0  0  0
  -29.2610  -16.3230   19.9440 H   0  0  0  0  0  0  0  0  0  0  0  0
  -26.4110  -14.2450   20.1010 C   0  0  0  0  0  0  0  0  0  0  0  0
  -25.3240  -13.5830   20.5900 C   0  0  0  0  0  0  0  0  0  0  0  0
  -25.6210  -12.1890   20.4690 C   0  0  0  0  0  0  0  0  0  0  0  0
  -27.2900  -13.2590   19.6990 N   0  0  0  0  0  0  0  0  0  0  0  0
  -26.8440  -12.0150   19.9880 N   0  0  0  0  0  0  0  0  0  0  0  0
  -24.7880  -11.0110   20.7250 C   0  0  0  0  0  0  0  0  0  0  0  0
  -25.1540  -10.0410   21.6830 C   0  0  0  0  0  3  0  0  0  0  0  0
  -24.3230   -8.9260   21.9200 C   0  0  0  0  0  3  0  0  0  0  0  0
  -23.1130   -8.7760   21.2000 C   0  0  0  0  0  0  0  0  0  0  0  0
  -22.7670   -9.7360   20.2320 C   0  0  0  0  0  3  0  0  0  0  0  0
  -23.5980  -10.8420   19.9930 C   0  0  0  0  0  3  0  0  0  0  0  0
  -22.2540   -7.7150   21.3460 O   0  0  0  0  0  0  0  0  0  0  0  0
  -22.0450   -7.1220   22.5640 C   0  0  0  0  0  0  0  0  0  0  0  0
  -21.5650   -7.8480   23.6750 C   0  0  0  0  0  3  0  0  0  0  0  0
  -21.3000   -7.1830   24.8890 C   0  0  0  0  0  3  0  0  0  0  0  0
  -21.5050   -5.7940   24.9910 C   0  0  0  0  0  0  0  0  0  0  0  0
  -21.9790   -5.0690   23.8830 C   0  0  0  0  0  3  0  0  0  0  0  0
  -22.2450   -5.7310   22.6720 C   0  0  0  0  0  0  0  0  0  0  0  0
  -22.6810   -5.0240   21.6030 F   0  0  0  0  0  0  0  0  0  0  0  0
  -21.2420   -5.1530   26.1540 F   0  0  0  0  0  0  0  0  0  0  0  0
  -24.0400  -14.2060   21.0470 C   0  0  0  0  0  0  0  0  0  0  0  0
  -23.3800  -13.5970   22.0220 N   0  0  0  0  0  0  0  0  0  0  0  0
  -23.6430  -15.2700   20.5710 O   0  0  0  0  0  0  0  0  0  0  0  0
  -23.7190  -12.7360   22.4250 H   0  0  0  0  0  0  0  0  0  0  0  0
  -22.5210  -13.9970   22.3740 H   0  0  0  0  0  0  0  0  0  0  0  0
  -26.7190  -15.5950   19.9410 N   0  0  0  0  0  0  0  0  0  0  0  0
  -26.0580  -16.3230   20.1830 H   0  0  0  0  0  0  0  0  0  0  0  0
  -27.5350  -15.9490   19.4580 H   0  0  0  0  0  0  0  0  0  0  0  0
  -30.7790  -23.6460   21.2680 C   0  0  0  0  0  1  0  0  0  0  0  0
  -29.3890  -23.7400   20.6060 C   0  0  0  0  0  3  0  0  0  0  0  0
  -29.8260  -25.1340   18.4890 C   0  0  0  0  0  1  0  0  0  0  0  0
  -29.5190  -23.7490   19.0700 C   0  0  0  0  0  2  0  0  0  0  0  0
  1  2  1  0
  2  5  1  0
  2  4  1  0
  3  1  2  0
  5  6  1  0
  8  7  1  0
  9  8  1  0
 10 11  1  0
 10 30  1  0
 10 26  1  0
 11 12  1  0
 13 24  2  0
 14 20  1  0
 14 19  1  0
 14 12  1  0
 15 22  1  0
 15 23  1  0
 15 25  1  0
 16 21  1  0
 16 22  1  0
 16 18  1  0
 17 23  1  0
 18 19  1  0
 18 17  1  0
 20 21  1  0
 23 13  1  0
 25 27  2  0
 26 25  1  0
 26 28  1  6
 29 33  1  0
 29 34  1  0
 30 31  1  6
 30 26  1  0
 32 31  1  0
 33 32  1  0
 34 30  1  0
 35 34  2  0
 36 35  1  0
 37 38  1  0
 37 36  2  0
 38 29  2  0
 39 13  1  0
 39 40  1  0
 39 49  1  0
 40 43  1  0
 41 45  1  0
 41 40  1  0
 42 41  2  0
 45 44  1  0
 47 45  1  0
 47 48  1  0
 47 46  1  0
 49 52  1  1
 49 50  1  0
 51 49  1  0
 53  1  1  0
 54 56  2  0
 55 54  1  0
 55 53  2  3
 57 55  1  0
 58 59  1  0
 59 68  2  3
 59 54  1  0
 60 66  1  0
 60 68  1  0
 61 66  1  0
 62 63  1  0
 62 61  1  0
 64 63  1  0
 64 73  1  0
 64 65  1  0
 66 65  1  0
 67 60  2  0
 68 69  1  0
 70 71  2  0
 71 90  1  0
 72 71  1  0
 72 75  1  0
 73 74  1  0
 73 70  1  0
 74 72  2  0
 75 76  1  0
 76 77  2  0
 78 81  1  0
 78 77  1  0
 79 78  2  0
 80 79  1  0
 80 75  2  0
 81 82  1  0
 82 87  2  0
 82 83  1  0
 83 84  2  0
 84 85  1  0
 85 89  1  0
 86 85  2  0
 87 86  1  0
 88 87  1  0
 90 91  1  0
 91 94  1  0
 91 93  1  0
 92 90  2  0
 95 70  1  0
 95 96  1  0
 97 95  1  0
 99 53  1  0
 99 98  1  0
100101  1  0
101 99  1  0
M  ISO  4  11 101  12 101  60 100  68 100
M  END
>  <TORSDO>  (5) 
F 28

>  <SCORE>  (5) 
-13.065

>  <name>  (5) 
5

>  <ligand_id>  (5) 
5

>  <original_smiles>  (5) 
[H]c1c([H])c([H])c2c(c1[H])C([H])([H])C([H])([H])C([H])([H])C2([H])N([H])C(=O)C1([H])N(C(=O)C([H])(N([H])C(=O)C([H])(N([H])C([H])([H])[H])C([H])([H])[H])C(C([H])([H])[H])(C([H])([H])[H])C([H])([H])[H])C([H])([H])c2c([H])c(OC([H])([H])C([H])([H])C([H])([H])OC([H])([H])C([H])([H])C([H])([H])N([H])C(=O)C([H])(N([H])C(=O)C([H])(N([H])C(=O)N3C([H])([H])C([H])([H])C([H])([H])C([H])(n4nc(-c5c([H])c([H])c(Oc6c([H])c([H])c(F)c([H])c6F)c([H])c5[H])c(C(=O)N([H])[H])c4N([H])[H])C3([H])[H])C([H])([H])[H])C([H])(C([H])([H])[H])C([H])([H])C([H])([H])[H])c([H])c([H])c2C1([H])[H]

>  <smiles>  (5) 
[H]c1c([H])c([H])c2c(c1[H])C([H])([H])C([H])([H])C([H])([H])C2([H])N([H])C(=O)C1([H])N(C(=O)C([H])(N([H])C(=O)C([H])(N([H])C([H])([H])[H])C([H])([H])[H])C(C([H])([H])[H])(C([H])([H])[H])C([H])([H])[H])C([H])([H])c2c([H])c(OC([H])([H])C([H])([H])C([H])([H])OC([H])([H])C([H])([H])C([H])([H])N([H])C(=O)C([H])(N([H])C(=O)C([H])(N([H])C(=O)N3C([H])([H])C([H])([H])C([H])([H])C([H])(n4nc(-c5c([H])c([H])c(Oc6c([H])c([H])c(F)c([H])c6F)c([H])c5[H])c(C(=O)N([H])[H])c4N([H])[H])C3([H])[H])C([H])([H])[H])C([H])(C([H])([H])[H])C([H])([H])C([H])([H])[H])c([H])c([H])c2C1([H])[H]

$$$$
6:0:0
     RDKit          3D

109116  0  0  1  0  0  0  0  0999 V2000
  -19.7270  -26.7600   17.1170 C   0  0  0  0  0  2  0  0  0  0  0  0
  -20.3080  -27.7740   16.1010 C   0  0  0  0  0  2  0  0  0  0  0  0
  -21.1250  -28.8450   16.7200 N   0  0  0  0  0  4  0  0  0  0  0  0
  -21.9290  -28.4510   17.1810 H   0  0  0  0  0  0  0  0  0  0  0  0
  -20.5620  -29.3230   17.4070 H   0  0  0  0  0  0  0  0  0  0  0  0
  -21.6250  -29.8540   15.7600 C   0  0  0  0  0  2  0  0  0  0  0  0
  -22.5410  -30.8960   16.4370 C   0  0  0  0  0  2  0  0  0  0  0  0
  -24.0160  -30.8380   15.9990 C   0  0  0  0  0  2  0  0  0  0  0  0
  -24.6390  -29.6160   16.3880 O   0  0  0  0  0  0  0  0  0  0  0  0
  -26.0500  -29.6600   16.1600 C   0  0  0  0  0  2  0  0  0  0  0  0
  -26.7280  -28.2900   16.3570 C   0  0  0  0  0  2  0  0  0  0  0  0
  -27.7550  -28.4010   17.3370 O   0  0  0  0  0  0  0  0  0  0  0  0
  -28.5300  -27.2160   17.5000 C   0  0  0  0  0  2  0  0  0  0  0  0
  -29.2270  -27.2250   18.8850 C   0  0  0  0  0  2  0  0  0  0  0  0
  -28.3910  -26.7620   19.9520 O   0  0  0  0  0  0  0  0  0  0  0  0
  -24.6120  -31.8700   23.2140 C   0  0  0  0  0  0  0  0  0  0  0  0
  -27.2270  -27.4700   20.0840 C   0  0  0  0  0  0  0  0  0  0  0  0
  -23.3980  -30.4950   21.5590 C   0  0  0  0  0  3  0  0  0  0  0  0
  -24.8400  -28.9540   20.1330 C   0  0  0  0  0  0  0  0  0  0  0  0
  -25.9240  -30.8460   21.3620 C   0  0  0  0  0  2  0  0  0  0  0  0
  -26.0010  -29.4810   20.7140 C   0  0  0  0  0  0  0  0  0  0  0  0
  -27.2040  -28.7460   20.6870 C   0  0  0  0  0  3  0  0  0  0  0  0
  -26.0420  -26.9230   19.5550 C   0  0  0  0  0  3  0  0  0  0  0  0
  -24.8490  -27.6700   19.5590 C   0  0  0  0  0  3  0  0  0  0  0  0
  -23.6090  -29.8300   20.1740 C   0  0  0  0  0  2  0  0  0  0  0  0
  -24.6640  -31.0820   22.1040 N   0  0  0  0  0  0  0  0  0  0  0  0
  -23.5310  -32.1430   23.7560 O   0  0  0  0  0  0  0  0  0  0  0  0
  -22.7430  -29.4630   22.5040 C   0  0  0  0  0  0  0  0  0  0  0  0
  -21.4140  -29.3040   22.3810 N   0  0  0  0  0  0  0  0  0  0  0  0
  -23.4220  -28.8110   23.3010 O   0  0  0  0  0  0  0  0  0  0  0  0
  -20.9270  -29.9020   21.7280 H   0  0  0  0  0  0  0  0  0  0  0  0
  -18.0270  -28.1390   22.8440 C   0  0  0  0  0  0  0  0  0  0  0  0
  -20.5840  -28.3640   23.1330 C   0  0  0  0  0  3  0  0  0  0  0  0
  -20.6750  -26.9390   22.5410 C   0  0  0  0  0  2  0  0  0  0  0  0
  -19.5750  -26.6370   21.5180 C   0  0  0  0  0  2  0  0  0  0  0  0
  -18.1900  -26.7950   22.1560 C   0  0  0  0  0  2  0  0  0  0  0  0
  -19.1510  -28.8840   23.2850 C   0  0  0  0  0  0  0  0  0  0  0  0
  -18.9460  -30.1450   23.8870 C   0  0  0  0  0  3  0  0  0  0  0  0
  -17.6470  -30.6600   24.0530 C   0  0  0  0  0  3  0  0  0  0  0  0
  -16.5350  -29.9100   23.6290 C   0  0  0  0  0  3  0  0  0  0  0  0
  -16.7260  -28.6520   23.0310 C   0  0  0  0  0  3  0  0  0  0  0  0
  -25.9030  -32.4840   23.8410 C   0  0  0  0  0  3  0  0  0  0  0  0
  -26.4480  -31.6620   25.0710 C   0  0  1  0  0  0  0  0  0  0  0  0
  -25.3780  -31.3700   26.1490 C   0  0  0  0  0  1  0  0  0  0  0  0
  -27.0300  -30.3050   24.6050 C   0  0  0  0  0  1  0  0  0  0  0  0
  -27.6040  -32.4370   25.7470 C   0  0  0  0  0  1  0  0  0  0  0  0
  -25.5880  -33.8630   24.2330 N   0  0  0  0  0  0  0  0  0  0  0  0
  -25.9030  -34.9480   23.5120 C   0  0  0  0  0  0  0  0  0  0  0  0
  -26.5570  -34.8900   22.4680 O   0  0  0  0  0  0  0  0  0  0  0  0
  -25.0050  -33.9840   25.0470 H   0  0  0  0  0  0  0  0  0  0  0  0
  -24.1480  -36.7320   23.2640 C   0  0  0  0  0  1  0  0  0  0  0  0
  -25.4110  -36.3120   24.0330 C   0  0  0  0  0  3  0  0  0  0  0  0
  -27.5590  -37.1790   24.8460 C   0  0  0  0  0  1  0  0  0  0  0  0
  -26.4290  -37.3800   23.9430 N   0  0  0  0  0  0  0  0  0  0  0  0
  -26.0180  -38.2880   24.1460 H   0  0  0  0  0  0  0  0  0  0  0  0
  -20.7590  -25.8400   17.8120 C   0  0  0  0  0  2  0  0  0  0  0  0
  -21.3920  -24.8550   16.8980 N   0  0  0  0  0  4  0  0  0  0  0  0
  -21.4910  -25.2470   15.9760 H   0  0  0  0  0  0  0  0  0  0  0  0
  -20.7860  -24.0500   16.8190 H   0  0  0  0  0  0  0  0  0  0  0  0
  -22.7310  -24.4040   17.3420 C   0  0  0  0  0  2  0  0  0  0  0  0
  -23.5010  -23.6860   16.2210 C   0  0  0  0  0  2  0  0  0  0  0  0
  -24.9590  -23.3990   16.5960 C   0  0  0  0  0  2  0  0  0  0  0  0
  -25.0020  -22.4760   17.6730 O   0  0  0  0  0  0  0  0  0  0  0  0
  -26.3330  -22.1860   18.0680 C   0  0  0  0  0  2  0  0  0  0  0  0
  -26.3040  -21.0550   19.0990 C   0  0  0  0  0  2  0  0  0  0  0  0
  -27.7160  -20.6110   19.5030 C   0  0  0  0  0  2  0  0  0  0  0  0
  -27.7160  -19.4020   20.4450 C   0  0  0  0  0  2  0  0  0  0  0  0
  -29.0670  -19.0230   20.6530 O   0  0  0  0  0  0  0  0  0  0  0  0
  -29.2010  -17.8430   21.4290 C   0  0  0  0  0  2  0  0  0  0  0  0
  -30.6940  -17.4990   21.5150 C   0  0  0  0  0  2  0  0  0  0  0  0
  -31.0110  -16.2300   22.3290 C   0  0  0  0  0  2  0  0  0  0  0  0
  -30.7770  -14.3340   20.7160 C   0  0  0  0  0  0  0  0  0  0  0  0
  -30.4140  -12.2880   19.3890 C   0  0  0  0  0  2  0  0  0  0  0  0
  -29.4820  -12.5380   18.1900 C   0  0  0  0  0  2  0  0  0  0  0  0
  -28.0080  -12.3830   18.6060 C   0  0  0  0  0  2  0  0  0  0  0  0
  -27.6650  -13.2010   19.8780 C   0  0  0  0  0  3  0  0  0  0  0  0
  -28.6990  -12.9340   20.9930 C   0  0  0  0  0  2  0  0  0  0  0  0
  -30.0480  -13.2190   20.4650 N   0  0  0  0  0  0  0  0  0  0  0  0
  -31.7740  -14.6620   20.0650 O   0  0  0  0  0  0  0  0  0  0  0  0
  -30.3740  -15.0320   21.7850 N   0  0  0  0  0  0  0  0  0  0  0  0
  -29.5800  -14.6600   22.2860 H   0  0  0  0  0  0  0  0  0  0  0  0
  -25.2600  -13.8160   20.5660 C   0  0  0  0  0  0  0  0  0  0  0  0
  -24.1830  -13.0430   20.9160 C   0  0  0  0  0  0  0  0  0  0  0  0
  -24.6380  -11.6910   20.8710 C   0  0  0  0  0  0  0  0  0  0  0  0
  -26.3030  -12.9320   20.3350 N   0  0  0  0  0  0  0  0  0  0  0  0
  -25.9300  -11.6480   20.5730 N   0  0  0  0  0  0  0  0  0  0  0  0
  -23.9050  -10.4290   21.0400 C   0  0  0  0  0  0  0  0  0  0  0  0
  -24.3610   -9.4210   21.9180 C   0  0  0  0  0  3  0  0  0  0  0  0
  -23.6290   -8.2250   22.0750 C   0  0  0  0  0  3  0  0  0  0  0  0
  -22.4270   -8.0280   21.3550 C   0  0  0  0  0  0  0  0  0  0  0  0
  -21.9900   -9.0250   20.4640 C   0  0  0  0  0  3  0  0  0  0  0  0
  -22.7220  -10.2130   20.3050 C   0  0  0  0  0  3  0  0  0  0  0  0
  -21.6640   -6.8870   21.4240 O   0  0  0  0  0  0  0  0  0  0  0  0
  -21.6860   -6.0730   22.5280 C   0  0  0  0  0  0  0  0  0  0  0  0
  -21.4010   -6.5640   23.8210 C   0  0  0  0  0  3  0  0  0  0  0  0
  -21.3660   -5.6790   24.9170 C   0  0  0  0  0  3  0  0  0  0  0  0
  -21.6050   -4.3060   24.7220 C   0  0  0  0  0  0  0  0  0  0  0  0
  -21.8820   -3.8140   23.4340 C   0  0  0  0  0  3  0  0  0  0  0  0
  -21.9190   -4.6960   22.3400 C   0  0  0  0  0  0  0  0  0  0  0  0
  -22.1660   -4.2150   21.0980 F   0  0  0  0  0  0  0  0  0  0  0  0
  -21.5630   -3.4540   25.7730 F   0  0  0  0  0  0  0  0  0  0  0  0
  -22.7870  -13.5240   21.1840 C   0  0  0  0  0  0  0  0  0  0  0  0
  -22.0510  -12.8230   22.0400 N   0  0  0  0  0  0  0  0  0  0  0  0
  -22.3550  -14.5550   20.6710 O   0  0  0  0  0  0  0  0  0  0  0  0
  -22.4120  -11.9880   22.4770 H   0  0  0  0  0  0  0  0  0  0  0  0
  -21.1130  -13.1250   22.2620 H   0  0  0  0  0  0  0  0  0  0  0  0
  -25.4340  -15.1870   20.4070 N   0  0  0  0  0  0  0  0  0  0  0  0
  -24.6690  -15.8450   20.5080 H   0  0  0  0  0  0  0  0  0  0  0  0
  -26.2920  -15.6200   20.0910 H   0  0  0  0  0  0  0  0  0  0  0  0
  1 56  1  0
  2  3  1  0
  2  1  1  0
  3  4  1  0
  3  5  1  0
  6  7  1  0
  6  3  1  0
  8  9  1  0
  8  7  1  0
 10 11  1  0
 10  9  1  0
 11 12  1  0
 12 13  1  0
 13 14  1  0
 14 15  1  0
 15 17  1  0
 16 27  2  0
 17 22  1  0
 18 26  1  0
 18 28  1  0
 19 25  1  0
 19 21  1  0
 20 26  1  0
 21 20  1  0
 22 21  2  0
 23 24  1  0
 23 17  2  0
 24 19  2  0
 25 18  1  0
 26 16  1  0
 28 30  2  0
 29 28  1  0
 31 29  1  0
 32 41  2  0
 32 37  1  0
 33 29  1  0
 33 37  1  0
 34 33  1  0
 35 36  1  0
 35 34  1  0
 36 32  1  0
 37 38  2  0
 38 39  1  0
 40 39  2  0
 41 40  1  0
 42 16  1  0
 42 47  1  0
 42 43  1  0
 43 46  1  1
 43 44  1  0
 45 43  1  0
 47 50  1  0
 48 52  1  0
 48 47  1  0
 49 48  2  0
 52 51  1  0
 54 52  1  0
 54 55  1  0
 54 53  1  0
 57 60  1  0
 57 56  1  0
 58 57  1  0
 59 57  1  0
 61 62  1  0
 61 60  1  0
 62 63  1  0
 63 64  1  0
 64 65  1  0
 65 66  1  0
 66 67  1  0
 67 68  1  0
 68 69  1  0
 69 70  1  0
 70 71  1  0
 72 80  1  0
 73 78  1  0
 74 75  1  0
 74 73  1  0
 76 75  1  0
 76 85  1  0
 76 77  1  0
 78 72  1  0
 78 77  1  0
 79 72  2  0
 80 81  1  0
 80 71  1  0
 82 83  2  0
 83102  1  0
 84 83  1  0
 84 87  1  0
 85 82  1  0
 85 86  1  0
 86 84  2  0
 87 88  1  0
 88 89  2  0
 90 93  1  0
 90 89  1  0
 91 90  2  0
 92 91  1  0
 92 87  2  0
 93 94  1  0
 94 95  1  0
 95 96  2  0
 97 96  1  0
 97101  1  0
 98 97  2  0
 99 94  2  0
 99 98  1  0
100 99  1  0
102103  1  0
103106  1  0
103105  1  0
104102  2  0
107108  1  0
107 82  1  0
109107  1  0
M  ISO  4  14 101  15 101  72 100  80 100
M  END
>  <TORSDO>  (6) 
F 41

>  <SCORE>  (6) 
10.017

>  <name>  (6) 
6

>  <ligand_id>  (6) 
6

>  <original_smiles>  (6) 
[H]c1c([H])c([H])c2c(c1[H])C([H])([H])C([H])([H])C([H])([H])C2([H])N([H])C(=O)C1([H])N(C(=O)C([H])(N([H])C(=O)C([H])(N([H])C([H])([H])[H])C([H])([H])[H])C(C([H])([H])[H])(C([H])([H])[H])C([H])([H])[H])C([H])([H])c2c([H])c(OC([H])([H])C([H])([H])OC([H])([H])C([H])([H])OC([H])([H])C([H])([H])C([H])([H])[N+]([H])([H])C([H])([H])C([H])([H])C([H])([H])[N+]([H])([H])C([H])([H])C([H])([H])C([H])([H])OC([H])([H])C([H])([H])C([H])([H])C([H])([H])OC([H])([H])C([H])([H])C([H])([H])N([H])C(=O)N3C([H])([H])C([H])([H])C([H])([H])C([H])(n4nc(-c5c([H])c([H])c(Oc6c([H])c([H])c(F)c([H])c6F)c([H])c5[H])c(C(=O)N([H])[H])c4N([H])[H])C3([H])[H])c([H])c([H])c2C1([H])[H]

>  <smiles>  (6) 
[H]c1c([H])c([H])c2c(c1[H])C([H])([H])C([H])([H])C([H])([H])C2([H])N([H])C(=O)C1([H])N(C(=O)C([H])(N([H])C(=O)C([H])(N([H])C([H])([H])[H])C([H])([H])[H])C(C([H])([H])[H])(C([H])([H])[H])C([H])([H])[H])C([H])([H])c2c([H])c(OC([H])([H])C([H])([H])OC([H])([H])C([H])([H])OC([H])([H])C([H])([H])C([H])([H])[N+]([H])([H])C([H])([H])C([H])([H])C([H])([H])[N+]([H])([H])C([H])([H])C([H])([H])C([H])([H])OC([H])([H])C([H])([H])C([H])([H])C([H])([H])OC([H])([H])C([H])([H])C([H])([H])N([H])C(=O)N3C([H])([H])C([H])([H])C([H])([H])C([H])(n4nc(-c5c([H])c([H])c(Oc6c([H])c([H])c(F)c([H])c6F)c([H])c5[H])c(C(=O)N([H])[H])c4N([H])[H])C3([H])[H])c([H])c([H])c2C1([H])[H]

$$$$
7:0:0
     RDKit          3D

101108  0  0  1  0  0  0  0  0999 V2000
  -23.6170  -24.7770   16.1370 C   0  0  0  0  0  2  0  0  0  0  0  0
  -23.8630  -26.2800   15.9480 C   0  0  0  0  0  2  0  0  0  0  0  0
  -24.8980  -26.4920   14.9910 O   0  0  0  0  0  0  0  0  0  0  0  0
  -25.8700  -27.4660   15.3690 C   0  0  0  0  0  2  0  0  0  0  0  0
  -27.2140  -26.7610   15.6410 C   0  0  0  0  0  2  0  0  0  0  0  0
  -28.7040  -26.5100   17.6130 C   0  0  0  0  0  0  0  0  0  0  0  0
  -27.8500  -27.2290   16.8710 N   0  0  0  0  0  0  0  0  0  0  0  0
  -29.0820  -25.3820   17.2860 O   0  0  0  0  0  0  0  0  0  0  0  0
  -27.5870  -28.1450   17.2140 H   0  0  0  0  0  0  0  0  0  0  0  0
  -29.1870  -27.1300   18.9360 C   0  0  0  0  0  2  0  0  0  0  0  0
  -28.3420  -26.7360   20.0240 O   0  0  0  0  0  0  0  0  0  0  0  0
  -24.5380  -31.8620   23.2100 C   0  0  0  0  0  0  0  0  0  0  0  0
  -27.1730  -27.4490   20.1140 C   0  0  0  0  0  0  0  0  0  0  0  0
  -23.3200  -30.4560   21.5800 C   0  0  0  0  0  3  0  0  0  0  0  0
  -24.7670  -28.9100   20.1620 C   0  0  0  0  0  0  0  0  0  0  0  0
  -25.8380  -30.8270   21.3570 C   0  0  0  0  0  2  0  0  0  0  0  0
  -25.9270  -29.4540   20.7280 C   0  0  0  0  0  0  0  0  0  0  0  0
  -27.1380  -28.7290   20.7040 C   0  0  0  0  0  3  0  0  0  0  0  0
  -25.9910  -26.8910   19.5890 C   0  0  0  0  0  3  0  0  0  0  0  0
  -24.7890  -27.6210   19.6010 C   0  0  0  0  0  3  0  0  0  0  0  0
  -23.5210  -29.7640   20.2050 C   0  0  0  0  0  2  0  0  0  0  0  0
  -24.5830  -31.0610   22.1100 N   0  0  0  0  0  0  0  0  0  0  0  0
  -23.4620  -32.1320   23.7600 O   0  0  0  0  0  0  0  0  0  0  0  0
  -22.6770  -29.4380   22.5470 C   0  0  0  0  0  0  0  0  0  0  0  0
  -21.3510  -29.2630   22.4340 N   0  0  0  0  0  0  0  0  0  0  0  0
  -23.3680  -28.8060   23.3510 O   0  0  0  0  0  0  0  0  0  0  0  0
  -20.8580  -29.8280   21.7560 H   0  0  0  0  0  0  0  0  0  0  0  0
  -17.9750  -28.0870   22.9640 C   0  0  0  0  0  0  0  0  0  0  0  0
  -20.5370  -28.3300   23.2110 C   0  0  0  0  0  3  0  0  0  0  0  0
  -20.6240  -26.8980   22.6360 C   0  0  0  0  0  2  0  0  0  0  0  0
  -19.5120  -26.5800   21.6310 C   0  0  0  0  0  2  0  0  0  0  0  0
  -18.1370  -26.7350   22.2880 C   0  0  0  0  0  2  0  0  0  0  0  0
  -19.1030  -28.8430   23.3820 C   0  0  0  0  0  0  0  0  0  0  0  0
  -18.8990  -30.1080   23.9720 C   0  0  0  0  0  3  0  0  0  0  0  0
  -17.5990  -30.6200   24.1490 C   0  0  0  0  0  3  0  0  0  0  0  0
  -16.4860  -29.8620   23.7440 C   0  0  0  0  0  3  0  0  0  0  0  0
  -16.6750  -28.5970   23.1590 C   0  0  0  0  0  3  0  0  0  0  0  0
  -25.8290  -32.4940   23.8200 C   0  0  0  0  0  3  0  0  0  0  0  0
  -26.3720  -31.7080   25.0770 C   0  0  1  0  0  0  0  0  0  0  0  0
  -25.3000  -31.4470   26.1600 C   0  0  0  0  0  1  0  0  0  0  0  0
  -26.9540  -30.3400   24.6510 C   0  0  0  0  0  1  0  0  0  0  0  0
  -27.5330  -32.4960   25.7290 C   0  0  0  0  0  1  0  0  0  0  0  0
  -25.5180  -33.8860   24.1700 N   0  0  0  0  0  0  0  0  0  0  0  0
  -25.8310  -34.9480   23.4170 C   0  0  0  0  0  0  0  0  0  0  0  0
  -26.4870  -34.8610   22.3740 O   0  0  0  0  0  0  0  0  0  0  0  0
  -24.9390  -34.0280   24.9850 H   0  0  0  0  0  0  0  0  0  0  0  0
  -24.0790  -36.7250   23.1070 C   0  0  0  0  0  1  0  0  0  0  0  0
  -25.3390  -36.3280   23.8930 C   0  0  0  0  0  3  0  0  0  0  0  0
  -27.4850  -37.2200   24.6850 C   0  0  0  0  0  1  0  0  0  0  0  0
  -26.3590  -37.3900   23.7710 N   0  0  0  0  0  0  0  0  0  0  0  0
  -25.9510  -38.3050   23.9380 H   0  0  0  0  0  0  0  0  0  0  0  0
  -24.8900  -24.0650   16.6170 C   0  0  0  0  0  2  0  0  0  0  0  0
  -24.6670  -22.7000   17.2820 C   0  0  0  0  0  2  0  0  0  0  0  0
  -26.0190  -22.0920   17.6850 C   0  0  0  0  0  2  0  0  0  0  0  0
  -25.9400  -20.7790   18.4840 C   0  0  0  0  0  2  0  0  0  0  0  0
  -27.3070  -20.3130   18.7980 N   0  0  0  0  0  4  0  0  0  0  0  0
  -27.7940  -21.0670   19.2510 H   0  0  0  0  0  0  0  0  0  0  0  0
  -27.7810  -20.1190   17.9310 H   0  0  0  0  0  0  0  0  0  0  0  0
  -27.4130  -19.1220   19.6640 C   0  0  0  0  0  2  0  0  0  0  0  0
  -28.8960  -18.8200   19.9430 C   0  0  0  0  0  2  0  0  0  0  0  0
  -29.1560  -17.5900   20.8260 C   0  0  0  0  0  2  0  0  0  0  0  0
  -30.6690  -17.3800   21.0250 C   0  0  0  0  0  2  0  0  0  0  0  0
  -31.0470  -16.1640   21.8860 C   0  0  0  0  0  2  0  0  0  0  0  0
  -30.8560  -14.2010   20.3420 C   0  0  0  0  0  0  0  0  0  0  0  0
  -30.4200  -12.1450   19.0460 C   0  0  0  0  0  2  0  0  0  0  0  0
  -29.4500  -12.3970   17.8760 C   0  0  0  0  0  2  0  0  0  0  0  0
  -27.9850  -12.2970   18.3430 C   0  0  0  0  0  2  0  0  0  0  0  0
  -27.7100  -13.1380   19.6160 C   0  0  0  0  0  3  0  0  0  0  0  0
  -28.7690  -12.8350   20.6940 C   0  0  0  0  0  2  0  0  0  0  0  0
  -30.1050  -13.0920   20.1220 N   0  0  0  0  0  0  0  0  0  0  0  0
  -31.8500  -14.5000   19.6720 O   0  0  0  0  0  0  0  0  0  0  0  0
  -30.4540  -14.9300   21.3890 N   0  0  0  0  0  0  0  0  0  0  0  0
  -29.6510  -14.5770   21.8890 H   0  0  0  0  0  0  0  0  0  0  0  0
  -25.3420  -13.8380   20.3550 C   0  0  0  0  0  0  0  0  0  0  0  0
  -24.2560  -13.1050   20.7540 C   0  0  0  0  0  0  0  0  0  0  0  0
  -24.6730  -11.7380   20.7300 C   0  0  0  0  0  0  0  0  0  0  0  0
  -26.3540  -12.9200   20.1170 N   0  0  0  0  0  0  0  0  0  0  0  0
  -25.9540  -11.6530   20.3960 N   0  0  0  0  0  0  0  0  0  0  0  0
  -23.9110  -10.5020   20.9500 C   0  0  0  0  0  0  0  0  0  0  0  0
  -24.3440   -9.5220   21.8700 C   0  0  0  0  0  3  0  0  0  0  0  0
  -23.5860   -8.3490   22.0760 C   0  0  0  0  0  3  0  0  0  0  0  0
  -22.3820   -8.1480   21.3610 C   0  0  0  0  0  0  0  0  0  0  0  0
  -21.9660   -9.1170   20.4300 C   0  0  0  0  0  3  0  0  0  0  0  0
  -22.7240  -10.2820   20.2220 C   0  0  0  0  0  3  0  0  0  0  0  0
  -21.5940   -7.0290   21.4770 O   0  0  0  0  0  0  0  0  0  0  0  0
  -21.5710   -6.2810   22.6270 C   0  0  0  0  0  0  0  0  0  0  0  0
  -21.2530   -6.8480   23.8800 C   0  0  0  0  0  3  0  0  0  0  0  0
  -21.1730   -6.0300   25.0240 C   0  0  0  0  0  3  0  0  0  0  0  0
  -21.4030   -4.6450   24.9170 C   0  0  0  0  0  0  0  0  0  0  0  0
  -21.7140   -4.0770   23.6690 C   0  0  0  0  0  3  0  0  0  0  0  0
  -21.7950   -4.8930   22.5260 C   0  0  0  0  0  0  0  0  0  0  0  0
  -22.0750   -4.3370   21.3230 F   0  0  0  0  0  0  0  0  0  0  0  0
  -21.3180   -3.8570   26.0140 F   0  0  0  0  0  0  0  0  0  0  0  0
  -22.8800  -13.6300   21.0500 C   0  0  0  0  0  0  0  0  0  0  0  0
  -22.1500  -12.9690   21.9420 N   0  0  0  0  0  0  0  0  0  0  0  0
  -22.4620  -14.6610   20.5250 O   0  0  0  0  0  0  0  0  0  0  0  0
  -22.5010  -12.1340   22.3880 H   0  0  0  0  0  0  0  0  0  0  0  0
  -21.2280  -13.3020   22.1830 H   0  0  0  0  0  0  0  0  0  0  0  0
  -25.5490  -15.1990   20.1590 N   0  0  0  0  0  0  0  0  0  0  0  0
  -24.8090  -15.8830   20.2770 H   0  0  0  0  0  0  0  0  0  0  0  0
  -26.4150  -15.5990   19.8220 H   0  0  0  0  0  0  0  0  0  0  0  0
  1 52  1  0
  2  1  1  0
  3  4  1  0
  3  2  1  0
  4  5  1  0
  5  7  1  0
  6 10  1  0
  7  9  1  0
  7  6  1  0
  8  6  2  0
 10 11  1  0
 11 13  1  0
 12 23  2  0
 13 18  1  0
 14 22  1  0
 14 24  1  0
 15 21  1  0
 15 17  1  0
 16 22  1  0
 17 16  1  0
 18 17  2  0
 19 20  1  0
 19 13  2  0
 20 15  2  0
 21 14  1  0
 22 12  1  0
 24 26  2  0
 25 24  1  0
 27 25  1  0
 28 37  2  0
 28 33  1  0
 29 25  1  0
 29 33  1  0
 30 29  1  0
 31 32  1  0
 31 30  1  0
 32 28  1  0
 33 34  2  0
 34 35  1  0
 36 35  2  0
 37 36  1  0
 38 12  1  0
 38 43  1  0
 38 39  1  0
 39 42  1  1
 39 40  1  0
 41 39  1  0
 43 46  1  0
 44 48  1  0
 44 43  1  0
 45 44  2  0
 48 47  1  0
 50 48  1  0
 50 51  1  0
 50 49  1  0
 52 53  1  0
 53 54  1  0
 54 55  1  0
 55 56  1  0
 56 57  1  0
 56 59  1  0
 58 56  1  0
 59 60  1  0
 60 61  1  0
 61 62  1  0
 62 63  1  0
 64 72  1  0
 65 70  1  0
 66 67  1  0
 66 65  1  0
 68 67  1  0
 68 77  1  0
 68 69  1  0
 70 64  1  0
 70 69  1  0
 71 64  2  0
 72 63  1  0
 72 73  1  0
 74 75  2  0
 75 94  1  0
 76 75  1  0
 76 79  1  0
 77 74  1  0
 77 78  1  0
 78 76  2  0
 79 80  1  0
 80 81  2  0
 82 85  1  0
 82 81  1  0
 83 82  2  0
 84 83  1  0
 84 79  2  0
 85 86  1  0
 86 87  1  0
 87 88  2  0
 89 88  1  0
 89 93  1  0
 90 89  2  0
 91 86  2  0
 91 90  1  0
 92 91  1  0
 94 95  1  0
 95 98  1  0
 95 97  1  0
 96 94  2  0
 99100  1  0
 99 74  1  0
101 99  1  0
M  ISO  4  10 101  11 101  64 100  72 100
M  END
>  <TORSDO>  (7) 
F 32

>  <SCORE>  (7) 
-10.513

>  <name>  (7) 
7

>  <ligand_id>  (7) 
7

>  <original_smiles>  (7) 
[H]c1c([H])c([H])c2c(c1[H])C([H])([H])C([H])([H])C([H])([H])C2([H])N([H])C(=O)C1([H])N(C(=O)C([H])(N([H])C(=O)C([H])(N([H])C([H])([H])[H])C([H])([H])[H])C(C([H])([H])[H])(C([H])([H])[H])C([H])([H])[H])C([H])([H])c2c([H])c(OC([H])([H])C(=O)N([H])C([H])([H])C([H])([H])OC([H])([H])C([H])([H])C([H])([H])C([H])([H])C([H])([H])C([H])([H])[N+]([H])([H])C([H])([H])C([H])([H])C([H])([H])C([H])([H])C([H])([H])N([H])C(=O)N3C([H])([H])C([H])([H])C([H])([H])C([H])(n4nc(-c5c([H])c([H])c(Oc6c([H])c([H])c(F)c([H])c6F)c([H])c5[H])c(C(=O)N([H])[H])c4N([H])[H])C3([H])[H])c([H])c([H])c2C1([H])[H]

>  <smiles>  (7) 
[H]c1c([H])c([H])c2c(c1[H])C([H])([H])C([H])([H])C([H])([H])C2([H])N([H])C(=O)C1([H])N(C(=O)C([H])(N([H])C(=O)C([H])(N([H])C([H])([H])[H])C([H])([H])[H])C(C([H])([H])[H])(C([H])([H])[H])C([H])([H])[H])C([H])([H])c2c([H])c(OC([H])([H])C(=O)N([H])C([H])([H])C([H])([H])OC([H])([H])C([H])([H])C([H])([H])C([H])([H])C([H])([H])C([H])([H])[N+]([H])([H])C([H])([H])C([H])([H])C([H])([H])C([H])([H])C([H])([H])N([H])C(=O)N3C([H])([H])C([H])([H])C([H])([H])C([H])(n4nc(-c5c([H])c([H])c(Oc6c([H])c([H])c(F)c([H])c6F)c([H])c5[H])c(C(=O)N([H])[H])c4N([H])[H])C3([H])[H])c([H])c([H])c2C1([H])[H]

$$$$
9:0:0
     RDKit          3D

 95102  0  0  1  0  0  0  0  0999 V2000
  -27.0170  -23.4920   23.8250 C   0  0  0  0  0  2  0  0  0  0  0  0
  -25.9110  -24.3780   23.2490 C   0  0  0  0  0  2  0  0  0  0  0  0
  -25.1840  -23.6320   22.2850 O   0  0  0  0  0  0  0  0  0  0  0  0
  -24.9170  -24.3350   21.0780 C   0  0  0  0  0  2  0  0  0  0  0  0
  -25.7890  -23.7630   19.9420 C   0  0  0  0  0  2  0  0  0  0  0  0
  -27.2330  -24.3060   19.8660 C   0  0  0  0  0  2  0  0  0  0  0  0
  -27.5160  -25.3080   18.7210 C   0  0  0  0  0  2  0  0  0  0  0  0
  -27.6550  -26.6640   19.1390 O   0  0  0  0  0  0  0  0  0  0  0  0
  -24.8230  -31.5120   23.4340 C   0  0  0  0  0  0  0  0  0  0  0  0
  -26.5520  -27.4590   19.3560 C   0  0  0  0  0  0  0  0  0  0  0  0
  -23.2850  -30.5800   21.7340 C   0  0  0  0  0  3  0  0  0  0  0  0
  -24.3740  -29.1790   19.9040 C   0  0  0  0  0  0  0  0  0  0  0  0
  -25.7960  -30.6940   21.2900 C   0  0  0  0  0  2  0  0  0  0  0  0
  -25.6380  -29.4560   20.4380 C   0  0  0  0  0  0  0  0  0  0  0  0
  -26.7230  -28.5960   20.1710 C   0  0  0  0  0  3  0  0  0  0  0  0
  -25.2820  -27.2200   18.7850 C   0  0  0  0  0  3  0  0  0  0  0  0
  -24.1920  -28.0630   19.0720 C   0  0  0  0  0  3  0  0  0  0  0  0
  -23.2610  -30.1420   20.2450 C   0  0  0  0  0  2  0  0  0  0  0  0
  -24.6630  -30.9300   22.2130 N   0  0  0  0  0  0  0  0  0  0  0  0
  -23.8470  -31.8010   24.1400 O   0  0  0  0  0  0  0  0  0  0  0  0
  -22.6040  -29.4790   22.5810 C   0  0  0  0  0  0  0  0  0  0  0  0
  -21.2640  -29.4070   22.4970 N   0  0  0  0  0  0  0  0  0  0  0  0
  -23.2720  -28.7010   23.2660 O   0  0  0  0  0  0  0  0  0  0  0  0
  -20.7900  -30.0890   21.9200 H   0  0  0  0  0  0  0  0  0  0  0  0
  -17.8420  -28.3290   22.9190 C   0  0  0  0  0  0  0  0  0  0  0  0
  -20.4120  -28.4300   23.1740 C   0  0  0  0  0  3  0  0  0  0  0  0
  -20.4350  -27.0680   22.4430 C   0  0  0  0  0  2  0  0  0  0  0  0
  -19.3090  -26.9130   21.4160 C   0  0  0  0  0  2  0  0  0  0  0  0
  -17.9430  -27.0570   22.0940 C   0  0  0  0  0  2  0  0  0  0  0  0
  -19.0030  -28.9840   23.4120 C   0  0  0  0  0  0  0  0  0  0  0  0
  -18.8580  -30.1800   24.1440 C   0  0  0  0  0  3  0  0  0  0  0  0
  -17.5840  -30.7230   24.3910 C   0  0  0  0  0  3  0  0  0  0  0  0
  -16.4360  -30.0630   23.9180 C   0  0  0  0  0  3  0  0  0  0  0  0
  -16.5660  -28.8680   23.1900 C   0  0  0  0  0  3  0  0  0  0  0  0
  -26.2360  -31.8690   23.9940 C   0  0  0  0  0  3  0  0  0  0  0  0
  -26.1710  -33.2340   24.5320 N   0  0  0  0  0  0  0  0  0  0  0  0
  -26.6010  -34.3270   23.8850 C   0  0  0  0  0  0  0  0  0  0  0  0
  -27.1690  -34.2780   22.7910 O   0  0  0  0  0  0  0  0  0  0  0  0
  -25.6800  -33.3540   25.4060 H   0  0  0  0  0  0  0  0  0  0  0  0
  -25.1420  -36.3740   23.9180 C   0  0  0  0  0  1  0  0  0  0  0  0
  -26.3620  -35.6930   24.5590 C   0  0  0  0  0  3  0  0  0  0  0  0
  -28.6550  -36.1450   25.3050 C   0  0  0  0  0  1  0  0  0  0  0  0
  -27.5310  -36.5960   24.4890 N   0  0  0  0  0  0  0  0  0  0  0  0
  -27.2780  -37.5330   24.7910 H   0  0  0  0  0  0  0  0  0  0  0  0
  -26.7440  -30.8580   25.0940 C   0  0  1  0  0  0  0  0  0  0  0  0
  -25.7270  -30.6110   26.2340 C   0  0  0  0  0  1  0  0  0  0  0  0
  -27.0770  -29.4880   24.4550 C   0  0  0  0  0  1  0  0  0  0  0  0
  -28.0590  -31.3800   25.7220 C   0  0  0  0  0  1  0  0  0  0  0  0
  -28.0500  -23.1320   22.7460 C   0  0  0  0  0  2  0  0  0  0  0  0
  -29.4650  -22.9510   23.3040 C   0  0  0  0  0  2  0  0  0  0  0  0
  -30.2010  -22.0570   22.4750 O   0  0  0  0  0  0  0  0  0  0  0  0
  -30.9690  -22.6860   21.4530 C   0  0  0  0  0  2  0  0  0  0  0  0
  -30.6400  -22.0920   20.0740 C   0  0  0  0  0  2  0  0  0  0  0  0
  -30.8900  -20.6880   20.0440 O   0  0  0  0  0  0  0  0  0  0  0  0
  -29.7100  -19.9060   19.9300 C   0  0  0  0  0  2  0  0  0  0  0  0
  -30.0180  -18.4030   20.0710 C   0  0  0  0  0  2  0  0  0  0  0  0
  -29.8100  -17.8600   21.5050 C   0  0  0  0  0  2  0  0  0  0  0  0
  -30.3870  -15.3820   21.3390 C   0  0  0  0  0  0  0  0  0  0  0  0
  -30.5690  -12.9170   21.2350 C   0  0  0  0  0  2  0  0  0  0  0  0
  -30.0530  -12.3870   19.8830 C   0  0  0  0  0  2  0  0  0  0  0  0
  -28.5310  -12.1460   19.9360 C   0  0  0  0  0  2  0  0  0  0  0  0
  -27.7610  -13.3670   20.5090 C   0  0  0  0  0  3  0  0  0  0  0  0
  -28.4150  -13.8740   21.8140 C   0  0  0  0  0  2  0  0  0  0  0  0
  -29.8400  -14.1540   21.5450 N   0  0  0  0  0  0  0  0  0  0  0  0
  -31.5500  -15.5540   20.9620 O   0  0  0  0  0  0  0  0  0  0  0  0
  -29.5620  -16.4120   21.5810 N   0  0  0  0  0  0  0  0  0  0  0  0
  -28.6380  -16.1510   21.8890 H   0  0  0  0  0  0  0  0  0  0  0  0
  -25.2510  -13.9240   20.6780 C   0  0  0  0  0  0  0  0  0  0  0  0
  -24.1460  -13.1340   20.8460 C   0  0  0  0  0  0  0  0  0  0  0  0
  -24.6340  -11.7950   20.9540 C   0  0  0  0  0  0  0  0  0  0  0  0
  -26.3420  -13.0670   20.7000 N   0  0  0  0  0  0  0  0  0  0  0  0
  -25.9600  -11.7830   20.9180 N   0  0  0  0  0  0  0  0  0  0  0  0
  -23.9090  -10.5190   21.0320 C   0  0  0  0  0  0  0  0  0  0  0  0
  -24.1040   -9.6210   22.1020 C   0  0  0  0  0  3  0  0  0  0  0  0
  -23.3790   -8.4100   22.1630 C   0  0  0  0  0  3  0  0  0  0  0  0
  -22.4460   -8.0910   21.1460 C   0  0  0  0  0  0  0  0  0  0  0  0
  -22.2730   -8.9770   20.0700 C   0  0  0  0  0  3  0  0  0  0  0  0
  -23.0000  -10.1800   20.0090 C   0  0  0  0  0  3  0  0  0  0  0  0
  -21.7160   -6.9260   21.1080 O   0  0  0  0  0  0  0  0  0  0  0  0
  -21.1930   -6.3660   22.2460 C   0  0  0  0  0  0  0  0  0  0  0  0
  -20.3120   -7.0760   23.0900 C   0  0  0  0  0  3  0  0  0  0  0  0
  -19.7450   -6.4380   24.2100 C   0  0  0  0  0  3  0  0  0  0  0  0
  -20.0500   -5.0920   24.4840 C   0  0  0  0  0  0  0  0  0  0  0  0
  -20.9240   -4.3820   23.6420 C   0  0  0  0  0  3  0  0  0  0  0  0
  -21.4910   -5.0170   22.5240 C   0  0  0  0  0  0  0  0  0  0  0  0
  -22.3150   -4.3230   21.7030 F   0  0  0  0  0  0  0  0  0  0  0  0
  -19.5000   -4.4760   25.5580 F   0  0  0  0  0  0  0  0  0  0  0  0
  -22.7130  -13.5820   20.8100 C   0  0  0  0  0  0  0  0  0  0  0  0
  -21.8360  -12.8910   21.5290 N   0  0  0  0  0  0  0  0  0  0  0  0
  -22.3710  -14.5800   20.1770 O   0  0  0  0  0  0  0  0  0  0  0  0
  -22.1180  -12.0840   22.0670 H   0  0  0  0  0  0  0  0  0  0  0  0
  -20.8660  -13.1710   21.5410 H   0  0  0  0  0  0  0  0  0  0  0  0
  -25.4200  -15.2950   20.4960 N   0  0  0  0  0  0  0  0  0  0  0  0
  -24.6320  -15.9320   20.4300 H   0  0  0  0  0  0  0  0  0  0  0  0
  -26.3110  -15.7610   20.3700 H   0  0  0  0  0  0  0  0  0  0  0  0
  2  1  1  0
  3  2  1  0
  4  3  1  0
  5  4  1  0
  6  5  1  0
  7  8  1  0
  7  6  1  0
  8 10  1  0
  9 20  2  0
 10 15  1  0
 11 19  1  0
 11 21  1  0
 12 18  1  0
 12 14  1  0
 13 19  1  0
 14 13  1  0
 15 14  2  0
 16 17  1  0
 16 10  2  0
 17 12  2  0
 18 11  1  0
 19  9  1  0
 21 23  2  0
 22 21  1  0
 24 22  1  0
 25 34  2  0
 25 30  1  0
 26 22  1  0
 26 30  1  0
 27 26  1  0
 28 29  1  0
 28 27  1  0
 29 25  1  0
 30 31  2  0
 31 32  1  0
 33 32  2  0
 34 33  1  0
 35  9  1  0
 35 36  1  0
 35 45  1  0
 36 39  1  0
 37 36  1  0
 37 41  1  0
 38 37  2  0
 41 40  1  0
 43 41  1  0
 43 44  1  0
 43 42  1  0
 45 48  1  1
 45 46  1  0
 47 45  1  0
 49 50  1  0
 49  1  1  0
 51 50  1  0
 52 51  1  0
 53 52  1  0
 54 53  1  0
 55 54  1  0
 55 56  1  0
 56 57  1  0
 57 66  1  0
 58 64  1  0
 58 66  1  0
 59 64  1  0
 60 61  1  0
 60 59  1  0
 62 61  1  0
 62 71  1  0
 62 63  1  0
 64 63  1  0
 65 58  2  0
 66 67  1  0
 68 71  1  0
 68 69  2  0
 69 70  1  0
 70 73  1  0
 71 72  1  0
 72 70  2  0
 73 74  1  0
 74 75  2  0
 76 75  1  0
 77 76  2  0
 78 77  1  0
 78 73  2  0
 79 76  1  0
 79 80  1  0
 80 85  2  0
 80 81  1  0
 81 82  2  0
 82 83  1  0
 83 87  1  0
 84 83  2  0
 85 84  1  0
 86 85  1  0
 88 69  1  0
 88 89  1  0
 89 92  1  0
 89 91  1  0
 90 88  2  0
 93 68  1  0
 94 93  1  0
 95 93  1  0
M  ISO  4   7 101   8 101  58 100  66 100
M  END
>  <TORSDO>  (8) 
F 31

>  <SCORE>  (8) 
-3.985

>  <name>  (8) 
9

>  <ligand_id>  (8) 
9

>  <original_smiles>  (8) 
[H]c1c([H])c([H])c2c(c1[H])C([H])([H])C([H])([H])C([H])([H])C2([H])N([H])C(=O)C1([H])N(C(=O)C([H])(N([H])C(=O)C([H])(N([H])C([H])([H])[H])C([H])([H])[H])C(C([H])([H])[H])(C([H])([H])[H])C([H])([H])[H])C([H])([H])c2c([H])c(OC([H])([H])C([H])([H])C([H])([H])C([H])([H])OC([H])([H])C([H])([H])C([H])([H])C([H])([H])OC([H])([H])C([H])([H])OC([H])([H])C([H])([H])C([H])([H])N([H])C(=O)N3C([H])([H])C([H])([H])C([H])([H])C([H])(n4nc(-c5c([H])c([H])c(Oc6c([H])c([H])c(F)c([H])c6F)c([H])c5[H])c(C(=O)N([H])[H])c4N([H])[H])C3([H])[H])c([H])c([H])c2C1([H])[H]

>  <smiles>  (8) 
[H]c1c([H])c([H])c2c(c1[H])C([H])([H])C([H])([H])C([H])([H])C2([H])N([H])C(=O)C1([H])N(C(=O)C([H])(N([H])C(=O)C([H])(N([H])C([H])([H])[H])C([H])([H])[H])C(C([H])([H])[H])(C([H])([H])[H])C([H])([H])[H])C([H])([H])c2c([H])c(OC([H])([H])C([H])([H])C([H])([H])C([H])([H])OC([H])([H])C([H])([H])C([H])([H])C([H])([H])OC([H])([H])C([H])([H])OC([H])([H])C([H])([H])C([H])([H])N([H])C(=O)N3C([H])([H])C([H])([H])C([H])([H])C([H])(n4nc(-c5c([H])c([H])c(Oc6c([H])c([H])c(F)c([H])c6F)c([H])c5[H])c(C(=O)N([H])[H])c4N([H])[H])C3([H])[H])c([H])c([H])c2C1([H])[H]

$$$$
10:0:0
     RDKit          3D

113120  0  0  1  0  0  0  0  0999 V2000
  -22.6680  -20.2120   22.5050 C   0  0  0  0  0  0  0  0  0  0  0  0
  -21.7600  -19.6520   23.3050 N   0  0  0  0  0  0  0  0  0  0  0  0
  -22.4730  -20.4050   21.3010 O   0  0  0  0  0  0  0  0  0  0  0  0
  -22.0200  -19.5140   24.2730 H   0  0  0  0  0  0  0  0  0  0  0  0
  -23.7930  -21.8280   24.1340 C   0  0  0  0  0  1  0  0  0  0  0  0
  -23.9830  -20.6460   23.1660 C   0  0  0  0  0  3  0  0  0  0  0  0
  -26.2770  -21.0210   22.2610 C   0  0  0  0  0  0  0  0  0  0  0  0
  -24.9510  -20.9750   22.1270 N   0  0  0  0  0  0  0  0  0  0  0  0
  -26.8430  -20.8540   23.3400 O   0  0  0  0  0  0  0  0  0  0  0  0
  -24.5470  -21.0870   21.2040 H   0  0  0  0  0  0  0  0  0  0  0  0
  -27.7590  -20.0030   20.4980 C   0  0  0  0  0  1  0  0  0  0  0  0
  -27.0950  -21.3000   20.9980 C   0  0  0  0  0  3  0  0  0  0  0  0
  -28.1220  -22.4280   21.2710 C   0  0  0  0  0  2  0  0  0  0  0  0
  -28.6100  -23.1700   20.0270 C   0  0  0  0  0  0  0  0  0  0  0  0
  -29.4410  -24.1930   20.2460 N   0  0  0  0  0  0  0  0  0  0  0  0
  -28.2360  -22.8520   18.8960 O   0  0  0  0  0  0  0  0  0  0  0  0
  -29.6870  -24.4060   21.2040 H   0  0  0  0  0  0  0  0  0  0  0  0
  -29.9030  -25.1280   19.2250 C   0  0  0  0  0  2  0  0  0  0  0  0
  -28.7830  -26.1080   18.8560 C   0  0  0  0  0  2  0  0  0  0  0  0
  -28.4240  -26.7990   20.0510 O   0  0  0  0  0  0  0  0  0  0  0  0
  -24.6130  -31.8730   23.2160 C   0  0  0  0  0  0  0  0  0  0  0  0
  -27.2330  -27.4820   20.0610 C   0  0  0  0  0  0  0  0  0  0  0  0
  -23.3950  -30.5000   21.5560 C   0  0  0  0  0  3  0  0  0  0  0  0
  -24.8360  -28.9700   20.1170 C   0  0  0  0  0  0  0  0  0  0  0  0
  -25.9200  -30.8490   21.3610 C   0  0  0  0  0  2  0  0  0  0  0  0
  -25.9950  -29.4850   20.7110 C   0  0  0  0  0  0  0  0  0  0  0  0
  -27.1920  -28.7420   20.6930 C   0  0  0  0  0  3  0  0  0  0  0  0
  -26.0500  -26.9590   19.4920 C   0  0  0  0  0  3  0  0  0  0  0  0
  -24.8540  -27.6990   19.5160 C   0  0  0  0  0  3  0  0  0  0  0  0
  -23.6020  -29.8380   20.1680 C   0  0  0  0  0  2  0  0  0  0  0  0
  -24.6610  -31.0870   22.1030 N   0  0  0  0  0  0  0  0  0  0  0  0
  -23.5340  -32.1470   23.7590 O   0  0  0  0  0  0  0  0  0  0  0  0
  -22.7380  -29.4690   22.5010 C   0  0  0  0  0  0  0  0  0  0  0  0
  -21.4120  -29.3040   22.3750 N   0  0  0  0  0  0  0  0  0  0  0  0
  -23.4170  -28.8240   23.3040 O   0  0  0  0  0  0  0  0  0  0  0  0
  -20.9260  -29.8750   21.6970 H   0  0  0  0  0  0  0  0  0  0  0  0
  -18.0280  -28.1390   22.8500 C   0  0  0  0  0  0  0  0  0  0  0  0
  -20.5860  -28.3670   23.1350 C   0  0  0  0  0  3  0  0  0  0  0  0
  -20.6790  -26.9410   22.5440 C   0  0  0  0  0  2  0  0  0  0  0  0
  -19.5770  -26.6410   21.5230 C   0  0  0  0  0  2  0  0  0  0  0  0
  -18.1940  -26.7950   22.1610 C   0  0  0  0  0  2  0  0  0  0  0  0
  -19.1530  -28.8850   23.2930 C   0  0  0  0  0  0  0  0  0  0  0  0
  -18.9450  -30.1450   23.8940 C   0  0  0  0  0  3  0  0  0  0  0  0
  -17.6450  -30.6600   24.0590 C   0  0  0  0  0  3  0  0  0  0  0  0
  -16.5350  -29.9110   23.6320 C   0  0  0  0  0  3  0  0  0  0  0  0
  -16.7270  -28.6530   23.0340 C   0  0  0  0  0  3  0  0  0  0  0  0
  -25.9030  -32.4860   23.8420 C   0  0  0  0  0  3  0  0  0  0  0  0
  -25.5920  -33.8660   24.2370 N   0  0  0  0  0  0  0  0  0  0  0  0
  -25.9040  -34.9500   23.5150 C   0  0  0  0  0  0  0  0  0  0  0  0
  -26.5570  -34.8940   22.4680 O   0  0  0  0  0  0  0  0  0  0  0  0
  -25.0150  -33.9830   25.0560 H   0  0  0  0  0  0  0  0  0  0  0  0
  -24.1500  -36.7320   23.2630 C   0  0  0  0  0  1  0  0  0  0  0  0
  -25.4110  -36.3140   24.0350 C   0  0  0  0  0  3  0  0  0  0  0  0
  -27.5600  -37.1810   24.8460 C   0  0  0  0  0  1  0  0  0  0  0  0
  -26.4310  -37.3820   23.9420 N   0  0  0  0  0  0  0  0  0  0  0  0
  -26.0220  -38.2910   24.1430 H   0  0  0  0  0  0  0  0  0  0  0  0
  -26.4460  -31.6630   25.0720 C   0  0  1  0  0  0  0  0  0  0  0  0
  -25.3740  -31.3760   26.1490 C   0  0  0  0  0  1  0  0  0  0  0  0
  -27.0230  -30.3070   24.6040 C   0  0  0  0  0  1  0  0  0  0  0  0
  -27.6080  -32.4310   25.7450 C   0  0  0  0  0  1  0  0  0  0  0  0
  -20.4080  -19.2460   22.9390 C   0  0  0  0  0  2  0  0  0  0  0  0
  -20.3090  -17.7990   22.4090 C   0  0  0  0  0  2  0  0  0  0  0  0
  -21.2550  -16.7710   23.0560 C   0  0  0  0  0  2  0  0  0  0  0  0
  -21.2610  -16.8910   24.4740 O   0  0  0  0  0  0  0  0  0  0  0  0
  -22.1400  -15.9580   25.0880 C   0  0  0  0  0  2  0  0  0  0  0  0
  -22.3590  -16.3430   26.5570 C   0  0  0  0  0  2  0  0  0  0  0  0
  -23.2560  -17.5740   26.7570 C   0  0  0  0  0  2  0  0  0  0  0  0
  -24.6010  -17.2260   26.4630 O   0  0  0  0  0  0  0  0  0  0  0  0
  -25.5180  -18.2470   26.8270 C   0  0  0  0  0  2  0  0  0  0  0  0
  -26.9390  -17.7520   26.5450 C   0  0  0  0  0  2  0  0  0  0  0  0
  -27.2890  -17.7580   25.0590 C   0  0  0  0  0  2  0  0  0  0  0  0
  -28.5890  -17.2170   24.9250 O   0  0  0  0  0  0  0  0  0  0  0  0
  -28.9620  -17.0360   23.5730 C   0  0  0  0  0  2  0  0  0  0  0  0
  -30.4330  -16.6090   23.5660 C   0  0  0  0  0  2  0  0  0  0  0  0
  -30.9780  -16.3190   22.1610 C   0  0  0  0  0  2  0  0  0  0  0  0
  -30.7770  -14.3650   20.6420 C   0  0  0  0  0  0  0  0  0  0  0  0
  -30.4030  -12.2790   19.3920 C   0  0  0  0  0  2  0  0  0  0  0  0
  -29.4710  -12.4850   18.1830 C   0  0  0  0  0  2  0  0  0  0  0  0
  -28.0040  -12.3190   18.6160 C   0  0  0  0  0  2  0  0  0  0  0  0
  -27.6510  -13.1910   19.8470 C   0  0  0  0  0  3  0  0  0  0  0  0
  -28.6860  -12.9920   20.9740 C   0  0  0  0  0  2  0  0  0  0  0  0
  -30.0350  -13.2510   20.4250 N   0  0  0  0  0  0  0  0  0  0  0  0
  -31.8210  -14.6330   20.0390 O   0  0  0  0  0  0  0  0  0  0  0  0
  -30.3100  -15.1530   21.6040 N   0  0  0  0  0  0  0  0  0  0  0  0
  -29.4350  -14.8680   22.0170 H   0  0  0  0  0  0  0  0  0  0  0  0
  -25.2560  -13.8150   20.5650 C   0  0  0  0  0  0  0  0  0  0  0  0
  -24.1810  -13.0450   20.9170 C   0  0  0  0  0  0  0  0  0  0  0  0
  -24.6330  -11.6900   20.8710 C   0  0  0  0  0  0  0  0  0  0  0  0
  -26.2940  -12.9280   20.3210 N   0  0  0  0  0  0  0  0  0  0  0  0
  -25.9230  -11.6450   20.5670 N   0  0  0  0  0  0  0  0  0  0  0  0
  -23.9000  -10.4290   21.0410 C   0  0  0  0  0  0  0  0  0  0  0  0
  -24.3590   -9.4210   21.9170 C   0  0  0  0  0  3  0  0  0  0  0  0
  -23.6280   -8.2230   22.0750 C   0  0  0  0  0  3  0  0  0  0  0  0
  -22.4250   -8.0260   21.3560 C   0  0  0  0  0  0  0  0  0  0  0  0
  -21.9880   -9.0230   20.4660 C   0  0  0  0  0  3  0  0  0  0  0  0
  -22.7180  -10.2120   20.3060 C   0  0  0  0  0  3  0  0  0  0  0  0
  -21.6630   -6.8850   21.4250 O   0  0  0  0  0  0  0  0  0  0  0  0
  -21.6850   -6.0720   22.5290 C   0  0  0  0  0  0  0  0  0  0  0  0
  -21.4010   -6.5610   23.8220 C   0  0  0  0  0  3  0  0  0  0  0  0
  -21.3670   -5.6760   24.9180 C   0  0  0  0  0  3  0  0  0  0  0  0
  -21.6050   -4.3030   24.7230 C   0  0  0  0  0  0  0  0  0  0  0  0
  -21.8820   -3.8130   23.4350 C   0  0  0  0  0  3  0  0  0  0  0  0
  -21.9190   -4.6950   22.3410 C   0  0  0  0  0  0  0  0  0  0  0  0
  -22.1660   -4.2140   21.0980 F   0  0  0  0  0  0  0  0  0  0  0  0
  -21.5630   -3.4510   25.7740 F   0  0  0  0  0  0  0  0  0  0  0  0
  -22.7850  -13.5270   21.1830 C   0  0  0  0  0  0  0  0  0  0  0  0
  -22.0490  -12.8320   22.0430 N   0  0  0  0  0  0  0  0  0  0  0  0
  -22.3520  -14.5550   20.6620 O   0  0  0  0  0  0  0  0  0  0  0  0
  -22.4160  -12.0060   22.4920 H   0  0  0  0  0  0  0  0  0  0  0  0
  -21.1040  -13.1220   22.2470 H   0  0  0  0  0  0  0  0  0  0  0  0
  -25.4290  -15.1870   20.4110 N   0  0  0  0  0  0  0  0  0  0  0  0
  -24.6560  -15.8360   20.5020 H   0  0  0  0  0  0  0  0  0  0  0  0
  -26.2800  -15.6320   20.0950 H   0  0  0  0  0  0  0  0  0  0  0  0
  1  6  1  0
  1  2  1  0
  2  4  1  0
  3  1  2  0
  6  5  1  0
  7  9  2  0
  8  7  1  0
  8  6  1  0
 10  8  1  0
 12 11  1  0
 12 13  1  0
 12  7  1  0
 14 15  1  0
 14 13  1  0
 15 17  1  0
 16 14  2  0
 18 15  1  0
 19 18  1  0
 19 20  1  0
 20 22  1  0
 21 32  2  0
 22 27  1  0
 23 31  1  0
 23 33  1  0
 24 30  1  0
 24 26  1  0
 25 31  1  0
 26 25  1  0
 27 26  2  0
 28 29  1  0
 28 22  2  0
 29 24  2  0
 30 23  1  0
 31 21  1  0
 33 35  2  0
 34 33  1  0
 36 34  1  0
 37 46  2  0
 37 42  1  0
 38 34  1  0
 38 42  1  0
 39 38  1  0
 40 41  1  0
 40 39  1  0
 41 37  1  0
 42 43  2  0
 43 44  1  0
 45 44  2  0
 46 45  1  0
 47 21  1  0
 47 48  1  0
 47 57  1  0
 48 51  1  0
 49 53  1  0
 49 48  1  0
 50 49  2  0
 53 52  1  0
 55 53  1  0
 55 56  1  0
 55 54  1  0
 57 60  1  1
 57 58  1  0
 59 57  1  0
 61  2  1  0
 62 61  1  0
 62 63  1  0
 63 64  1  0
 64 65  1  0
 65 66  1  0
 66 67  1  0
 68 67  1  0
 68 69  1  0
 70 69  1  0
 71 70  1  0
 72 71  1  0
 73 72  1  0
 74 73  1  0
 75 74  1  0
 76 84  1  0
 77 82  1  0
 78 79  1  0
 78 77  1  0
 80 79  1  0
 80 89  1  0
 80 81  1  0
 82 76  1  0
 82 81  1  0
 83 76  2  0
 84 85  1  0
 84 75  1  0
 86 87  2  0
 87106  1  0
 88 87  1  0
 88 91  1  0
 89 86  1  0
 89 90  1  0
 90 88  2  0
 91 92  1  0
 92 93  2  0
 94 97  1  0
 94 93  1  0
 95 94  2  0
 96 95  1  0
 96 91  2  0
 97 98  1  0
 98 99  1  0
 99100  2  0
101100  1  0
101105  1  0
102101  2  0
103 98  2  0
103102  1  0
104103  1  0
106107  1  0
107110  1  0
107109  1  0
108106  2  0
111112  1  0
111 86  1  0
113111  1  0
M  ISO  4  19 101  20 101  76 100  84 100
M  END
>  <TORSDO>  (9) 
F 38

>  <SCORE>  (9) 
94.780

>  <name>  (9) 
10

>  <ligand_id>  (9) 
10

>  <original_smiles>  (9) 
[H]c1c([H])c([H])c2c(c1[H])C([H])([H])C([H])([H])C([H])([H])C2([H])N([H])C(=O)C1([H])N(C(=O)C([H])(N([H])C(=O)C([H])(N([H])C([H])([H])[H])C([H])([H])[H])C(C([H])([H])[H])(C([H])([H])[H])C([H])([H])[H])C([H])([H])c2c([H])c(OC([H])([H])C([H])([H])N([H])C(=O)C([H])([H])C([H])(C(=O)N([H])C([H])(C(=O)N([H])C([H])([H])C([H])([H])C([H])([H])OC([H])([H])C([H])([H])C([H])([H])OC([H])([H])C([H])([H])C([H])([H])OC([H])([H])C([H])([H])C([H])([H])N([H])C(=O)N3C([H])([H])C([H])([H])C([H])([H])C([H])(n4nc(-c5c([H])c([H])c(Oc6c([H])c([H])c(F)c([H])c6F)c([H])c5[H])c(C(=O)N([H])[H])c4N([H])[H])C3([H])[H])C([H])([H])[H])C([H])([H])[H])c([H])c([H])c2C1([H])[H]

>  <smiles>  (9) 
[H]c1c([H])c([H])c2c(c1[H])C([H])([H])C([H])([H])C([H])([H])C2([H])N([H])C(=O)C1([H])N(C(=O)C([H])(N([H])C(=O)C([H])(N([H])C([H])([H])[H])C([H])([H])[H])C(C([H])([H])[H])(C([H])([H])[H])C([H])([H])[H])C([H])([H])c2c([H])c(OC([H])([H])C([H])([H])N([H])C(=O)C([H])([H])C([H])(C(=O)N([H])C([H])(C(=O)N([H])C([H])([H])C([H])([H])C([H])([H])OC([H])([H])C([H])([H])C([H])([H])OC([H])([H])C([H])([H])C([H])([H])OC([H])([H])C([H])([H])C([H])([H])N([H])C(=O)N3C([H])([H])C([H])([H])C([H])([H])C([H])(n4nc(-c5c([H])c([H])c(Oc6c([H])c([H])c(F)c([H])c6F)c([H])c5[H])c(C(=O)N([H])[H])c4N([H])[H])C3([H])[H])C([H])([H])[H])C([H])([H])[H])c([H])c([H])c2C1([H])[H]

$$$$
11:0:0
     RDKit          3D

 99106  0  0  1  0  0  0  0  0999 V2000
  -25.6910  -19.3140   22.3300 C   0  0  0  0  0  0  0  0  0  0  0  0
  -25.6630  -20.3800   23.1450 N   0  0  0  0  0  0  0  0  0  0  0  0
  -24.7390  -18.5320   22.2410 O   0  0  0  0  0  0  0  0  0  0  0  0
  -26.4680  -20.9940   23.1570 H   0  0  0  0  0  0  0  0  0  0  0  0
  -24.5560  -20.7250   24.0430 C   0  0  0  0  0  2  0  0  0  0  0  0
  -24.0440  -22.1570   23.8020 C   0  0  0  0  0  2  0  0  0  0  0  0
  -25.1470  -23.0550   23.8350 O   0  0  0  0  0  0  0  0  0  0  0  0
  -24.7740  -24.4210   23.9980 C   0  0  0  0  0  2  0  0  0  0  0  0
  -26.0310  -25.2880   23.8500 C   0  0  0  0  0  2  0  0  0  0  0  0
  -25.9580  -26.6480   24.5770 C   0  0  0  0  0  2  0  0  0  0  0  0
  -26.0910  -27.7420   23.6640 O   0  0  0  0  0  0  0  0  0  0  0  0
  -29.6950  -26.9900   17.5930 C   0  0  0  0  0  0  0  0  0  0  0  0
  -27.3000  -27.9450   23.0280 C   0  0  0  0  0  0  0  0  0  0  0  0
  -31.0350  -27.6780   19.5500 C   0  0  0  0  0  3  0  0  0  0  0  0
  -29.7150  -28.3760   21.6100 C   0  0  0  0  0  0  0  0  0  0  0  0
  -28.5470  -28.2650   19.4010 C   0  0  0  0  0  2  0  0  0  0  0  0
  -28.5100  -28.2200   20.9130 C   0  0  0  0  0  0  0  0  0  0  0  0
  -27.3040  -28.0230   21.6180 C   0  0  0  0  0  3  0  0  0  0  0  0
  -28.5300  -28.0810   23.7150 C   0  0  0  0  0  3  0  0  0  0  0  0
  -29.7300  -28.3080   23.0130 C   0  0  0  0  0  3  0  0  0  0  0  0
  -30.9590  -28.6090   20.7880 C   0  0  0  0  0  2  0  0  0  0  0  0
  -29.7350  -27.6050   18.8090 N   0  0  0  0  0  0  0  0  0  0  0  0
  -30.7220  -26.5330   17.0700 O   0  0  0  0  0  0  0  0  0  0  0  0
  -31.5650  -26.2980   20.0000 C   0  0  0  0  0  0  0  0  0  0  0  0
  -32.4820  -25.7230   19.2040 N   0  0  0  0  0  0  0  0  0  0  0  0
  -31.1780  -25.7830   21.0520 O   0  0  0  0  0  0  0  0  0  0  0  0
  -32.7470  -26.2160   18.3620 H   0  0  0  0  0  0  0  0  0  0  0  0
  -33.7590  -22.7600   17.5830 C   0  0  0  0  0  0  0  0  0  0  0  0
  -33.1490  -24.4440   19.4430 C   0  0  0  0  0  3  0  0  0  0  0  0
  -34.6710  -24.6400   19.6280 C   0  0  0  0  0  2  0  0  0  0  0  0
  -35.4620  -24.4770   18.3260 C   0  0  0  0  0  2  0  0  0  0  0  0
  -35.2370  -23.0840   17.7300 C   0  0  0  0  0  2  0  0  0  0  0  0
  -32.7770  -23.4090   18.3750 C   0  0  0  0  0  0  0  0  0  0  0  0
  -31.4160  -23.0940   18.1750 C   0  0  0  0  0  3  0  0  0  0  0  0
  -31.0320  -22.1460   17.2070 C   0  0  0  0  0  3  0  0  0  0  0  0
  -32.0080  -21.4940   16.4360 C   0  0  0  0  0  3  0  0  0  0  0  0
  -33.3690  -21.7980   16.6260 C   0  0  0  0  0  3  0  0  0  0  0  0
  -28.3640  -26.8530   16.7880 C   0  0  0  0  0  3  0  0  0  0  0  0
  -27.2090  -26.1490   17.6020 C   0  0  1  0  0  0  0  0  0  0  0  0
  -27.6620  -24.8730   18.3510 C   0  0  0  0  0  1  0  0  0  0  0  0
  -26.6110  -27.1200   18.6460 C   0  0  0  0  0  1  0  0  0  0  0  0
  -26.0540  -25.7650   16.6460 C   0  0  0  0  0  1  0  0  0  0  0  0
  -28.6650  -26.1040   15.5610 N   0  0  0  0  0  0  0  0  0  0  0  0
  -28.9510  -26.6660   14.3770 C   0  0  0  0  0  0  0  0  0  0  0  0
  -28.9160  -27.8850   14.1900 O   0  0  0  0  0  0  0  0  0  0  0  0
  -28.7670  -25.1050   15.6540 H   0  0  0  0  0  0  0  0  0  0  0  0
  -30.8640  -25.7280   13.0410 C   0  0  0  0  0  1  0  0  0  0  0  0
  -29.3380  -25.7250   13.2200 C   0  0  0  0  0  3  0  0  0  0  0  0
  -27.2630  -25.7370   11.9060 C   0  0  0  0  0  1  0  0  0  0  0  0
  -28.6850  -26.0720   11.9380 N   0  0  0  0  0  0  0  0  0  0  0  0
  -29.1400  -25.6020   11.1600 H   0  0  0  0  0  0  0  0  0  0  0  0
  -26.9620  -19.0840   21.4900 C   0  0  0  0  0  2  0  0  0  0  0  0
  -26.7160  -18.0550   20.5260 O   0  0  0  0  0  0  0  0  0  0  0  0
  -27.6510  -18.0110   19.4550 C   0  0  0  0  0  2  0  0  0  0  0  0
  -28.1880  -16.5710   19.3100 C   0  0  0  0  0  2  0  0  0  0  0  0
  -29.3020  -16.4890   18.4220 O   0  0  0  0  0  0  0  0  0  0  0  0
  -30.4130  -17.3320   18.7210 C   0  0  0  0  0  2  0  0  0  0  0  0
  -30.9440  -17.9960   17.4430 C   0  0  0  0  0  2  0  0  0  0  0  0
  -32.4800  -18.0360   17.3860 C   0  0  0  0  0  2  0  0  0  0  0  0
  -33.1060  -16.6940   17.7880 C   0  0  0  0  0  2  0  0  0  0  0  0
  -34.6260  -16.6520   17.6060 C   0  0  0  0  0  2  0  0  0  0  0  0
  -36.1460  -17.8830   19.0440 C   0  0  0  0  0  0  0  0  0  0  0  0
  -36.2340  -20.2910   18.5670 C   0  0  0  0  0  2  0  0  0  0  0  0
  -36.6560  -21.1570   19.7620 C   0  0  0  0  0  2  0  0  0  0  0  0
  -35.4370  -21.5260   20.6240 C   0  0  0  0  0  2  0  0  0  0  0  0
  -34.5590  -20.2960   20.9780 C   0  0  0  0  0  3  0  0  0  0  0  0
  -34.2760  -19.4070   19.7440 C   0  0  0  0  0  2  0  0  0  0  0  0
  -35.5420  -19.0950   19.0540 N   0  0  0  0  0  0  0  0  0  0  0  0
  -37.3650  -17.7140   18.9900 O   0  0  0  0  0  0  0  0  0  0  0  0
  -35.3250  -16.8400   18.8750 N   0  0  0  0  0  0  0  0  0  0  0  0
  -35.7560  -15.9820   19.1770 H   0  0  0  0  0  0  0  0  0  0  0  0
  -33.1140  -21.0900   22.9590 C   0  0  0  0  0  0  0  0  0  0  0  0
  -31.7940  -21.4520   23.0460 C   0  0  0  0  0  0  0  0  0  0  0  0
  -31.2510  -21.2810   21.7380 C   0  0  0  0  0  0  0  0  0  0  0  0
  -33.3200  -20.7100   21.6410 N   0  0  0  0  0  0  0  0  0  0  0  0
  -32.1700  -20.7860   20.9180 N   0  0  0  0  0  0  0  0  0  0  0  0
  -29.9220  -21.6100   21.2060 C   0  0  0  0  0  0  0  0  0  0  0  0
  -29.3710  -20.9140   20.1080 C   0  0  0  0  0  3  0  0  0  0  0  0
  -28.0820  -21.2370   19.6280 C   0  0  0  0  0  3  0  0  0  0  0  0
  -27.3290  -22.2640   20.2470 C   0  0  0  0  0  0  0  0  0  0  0  0
  -27.8910  -22.9680   21.3260 C   0  0  0  0  0  3  0  0  0  0  0  0
  -29.1740  -22.6480   21.8000 C   0  0  0  0  0  3  0  0  0  0  0  0
  -26.0810  -22.6650   19.8330 O   0  0  0  0  0  0  0  0  0  0  0  0
  -25.4000  -21.9930   18.8490 C   0  0  0  0  0  0  0  0  0  0  0  0
  -25.4140  -20.5850   18.7610 C   0  0  0  0  0  3  0  0  0  0  0  0
  -24.6440  -19.9310   17.7790 C   0  0  0  0  0  3  0  0  0  0  0  0
  -23.8540  -20.6830   16.8890 C   0  0  0  0  0  0  0  0  0  0  0  0
  -23.8290  -22.0870   16.9800 C   0  0  0  0  0  3  0  0  0  0  0  0
  -24.5980  -22.7390   17.9600 C   0  0  0  0  0  0  0  0  0  0  0  0
  -24.5580  -24.0910   18.0550 F   0  0  0  0  0  0  0  0  0  0  0  0
  -23.1090  -20.0590   15.9470 F   0  0  0  0  0  0  0  0  0  0  0  0
  -31.1020  -22.0170   24.2520 C   0  0  0  0  0  0  0  0  0  0  0  0
  -29.7950  -21.8040   24.3560 N   0  0  0  0  0  0  0  0  0  0  0  0
  -31.7230  -22.6110   25.1310 O   0  0  0  0  0  0  0  0  0  0  0  0
  -29.2930  -21.2880   23.6490 H   0  0  0  0  0  0  0  0  0  0  0  0
  -29.2920  -22.1460   25.1640 H   0  0  0  0  0  0  0  0  0  0  0  0
  -34.1510  -21.0710   23.8840 N   0  0  0  0  0  0  0  0  0  0  0  0
  -34.0180  -21.3680   24.8450 H   0  0  0  0  0  0  0  0  0  0  0  0
  -35.1020  -20.7840   23.6820 H   0  0  0  0  0  0  0  0  0  0  0  0
  1  2  1  0
  2  4  1  0
  2  5  1  0
  3  1  2  0
  6  7  1  0
  6  5  1  0
  7  8  1  0
  9  8  1  0
  9 10  1  0
 11 10  1  0
 12 22  1  0
 13 11  1  0
 13 19  1  0
 14 24  1  0
 14 21  1  0
 15 20  1  0
 16 17  1  0
 17 15  2  0
 17 18  1  0
 18 13  2  0
 20 19  2  0
 21 15  1  0
 22 16  1  0
 22 14  1  0
 23 12  2  0
 24 26  2  0
 25 24  1  0
 27 25  1  0
 28 32  1  0
 28 33  1  0
 29 25  1  0
 29 30  1  0
 31 30  1  0
 32 31  1  0
 33 29  1  0
 34 33  2  0
 35 34  1  0
 36 37  1  0
 36 35  2  0
 37 28  2  0
 38 12  1  0
 38 39  1  0
 39 40  1  1
 39 41  1  0
 42 39  1  0
 43 46  1  0
 43 38  1  0
 44 43  1  0
 45 44  2  0
 48 47  1  0
 48 44  1  0
 49 50  1  0
 50 48  1  0
 51 50  1  0
 52  1  1  0
 53 52  1  0
 54 53  1  0
 55 54  1  0
 56 57  1  0
 56 55  1  0
 58 57  1  0
 59 58  1  0
 59 60  1  0
 61 60  1  0
 61 70  1  0
 62 68  1  0
 63 68  1  0
 63 64  1  0
 64 65  1  0
 65 66  1  0
 66 67  1  0
 66 75  1  0
 68 67  1  0
 69 62  2  0
 70 62  1  0
 70 71  1  0
 72 73  2  0
 72 97  1  0
 73 92  1  0
 74 73  1  0
 75 72  1  0
 76 75  1  0
 76 74  2  0
 77 74  1  0
 77 82  1  0
 78 77  2  0
 79 78  1  0
 79 80  2  0
 80 81  1  0
 81 82  2  0
 83 80  1  0
 84 83  1  0
 85 84  1  0
 86 85  2  0
 87 88  2  0
 87 86  1  0
 88 89  1  0
 89 90  1  0
 89 84  2  0
 91 87  1  0
 92 93  1  0
 92 94  2  0
 93 96  1  0
 95 93  1  0
 97 98  1  0
 99 97  1  0
M  ISO  4  10 101  11 101  62 100  70 100
M  END
>  <TORSDO>  (10) 
F 32

>  <SCORE>  (10) 
31.173

>  <name>  (10) 
11

>  <ligand_id>  (10) 
11

>  <original_smiles>  (10) 
[H]c1c([H])c([H])c2c(c1[H])C([H])([H])C([H])([H])C([H])([H])C2([H])N([H])C(=O)C1([H])N(C(=O)C([H])(N([H])C(=O)C([H])(N([H])C([H])([H])[H])C([H])([H])[H])C(C([H])([H])[H])(C([H])([H])[H])C([H])([H])[H])C([H])([H])c2c([H])c(OC([H])([H])C([H])([H])C([H])([H])OC([H])([H])C([H])([H])N([H])C(=O)C([H])([H])OC([H])([H])C([H])([H])OC([H])([H])C([H])([H])C([H])([H])C([H])([H])C([H])([H])N([H])C(=O)N3C([H])([H])C([H])([H])C([H])([H])C([H])(n4nc(-c5c([H])c([H])c(Oc6c([H])c([H])c(F)c([H])c6F)c([H])c5[H])c(C(=O)N([H])[H])c4N([H])[H])C3([H])[H])c([H])c([H])c2C1([H])[H]

>  <smiles>  (10) 
[H]c1c([H])c([H])c2c(c1[H])C([H])([H])C([H])([H])C([H])([H])C2([H])N([H])C(=O)C1([H])N(C(=O)C([H])(N([H])C(=O)C([H])(N([H])C([H])([H])[H])C([H])([H])[H])C(C([H])([H])[H])(C([H])([H])[H])C([H])([H])[H])C([H])([H])c2c([H])c(OC([H])([H])C([H])([H])C([H])([H])OC([H])([H])C([H])([H])N([H])C(=O)C([H])([H])OC([H])([H])C([H])([H])OC([H])([H])C([H])([H])C([H])([H])C([H])([H])C([H])([H])N([H])C(=O)N3C([H])([H])C([H])([H])C([H])([H])C([H])(n4nc(-c5c([H])c([H])c(Oc6c([H])c([H])c(F)c([H])c6F)c([H])c5[H])c(C(=O)N([H])[H])c4N([H])[H])C3([H])[H])c([H])c([H])c2C1([H])[H]

$$$$
12:0:0
     RDKit          3D

107115  0  0  1  0  0  0  0  0999 V2000
  -26.8920  -21.9030   20.4340 C   0  0  0  0  0  0  0  0  0  0  0  0
  -30.2980  -21.2440   18.8130 C   0  0  0  0  0  2  0  0  0  0  0  0
  -27.6920  -22.0550   18.0400 C   0  0  0  0  0  2  0  0  0  0  0  0
  -30.6990  -22.7500   18.9040 C   0  0  0  0  0  2  0  0  0  0  0  0
  -28.6980  -23.1110   17.4960 C   0  0  0  0  0  2  0  0  0  0  0  0
  -29.0860  -20.8460   19.7090 C   0  0  0  0  0  3  0  0  0  0  0  0
  -27.8660  -21.6960   19.4770 N   0  0  0  0  0  0  0  0  0  0  0  0
  -29.5620  -23.6630   18.5790 N   0  0  2  0  0  4  0  0  0  0  0  0
  -27.0780  -21.7640   21.6470 O   0  0  0  0  0  0  0  0  0  0  0  0
  -28.9940  -23.6170   19.4120 H   0  0  0  0  0  0  0  0  0  0  0  0
  -29.5850  -20.5140   21.1430 C   0  0  0  0  0  0  0  0  0  0  0  0
  -29.8070  -19.2480   21.5380 N   0  0  0  0  0  0  0  0  0  0  0  0
  -29.8580  -21.4410   21.9030 O   0  0  0  0  0  0  0  0  0  0  0  0
  -30.1050  -19.1310   22.4950 H   0  0  0  0  0  0  0  0  0  0  0  0
  -29.7580  -17.9980   20.7800 C   0  0  0  0  0  2  0  0  0  0  0  0
  -31.1130  -17.2770   20.8380 C   0  0  0  0  0  2  0  0  0  0  0  0
  -31.5050  -14.9420   19.9340 C   0  0  0  0  0  0  0  0  0  0  0  0
  -31.1930  -12.6900   18.9530 C   0  0  0  0  0  2  0  0  0  0  0  0
  -30.1850  -12.7660   17.7890 C   0  0  0  0  0  2  0  0  0  0  0  0
  -28.7250  -12.7080   18.2840 C   0  0  0  0  0  2  0  0  0  0  0  0
  -28.4540  -13.6790   19.4610 C   0  0  0  0  0  3  0  0  0  0  0  0
  -29.5410  -13.4980   20.5410 C   0  0  0  0  0  2  0  0  0  0  0  0
  -30.8530  -13.7530   19.9100 N   0  0  0  0  0  0  0  0  0  0  0  0
  -32.5230  -15.1830   19.2710 O   0  0  0  0  0  0  0  0  0  0  0  0
  -30.9020  -15.8400   20.7220 N   0  0  0  0  0  0  0  0  0  0  0  0
  -30.1260  -15.4650   21.2460 H   0  0  0  0  0  0  0  0  0  0  0  0
  -26.1700  -14.4430   20.3710 C   0  0  0  0  0  0  0  0  0  0  0  0
  -25.0610  -13.7370   20.7690 C   0  0  0  0  0  0  0  0  0  0  0  0
  -25.3970  -12.3570   20.6160 C   0  0  0  0  0  0  0  0  0  0  0  0
  -27.1130  -13.4910   20.0110 N   0  0  0  0  0  0  0  0  0  0  0  0
  -26.6520  -12.2260   20.2050 N   0  0  0  0  0  0  0  0  0  0  0  0
  -24.5740  -11.1510   20.7790 C   0  0  0  0  0  0  0  0  0  0  0  0
  -24.9550  -10.1130   21.6580 C   0  0  0  0  0  3  0  0  0  0  0  0
  -24.1390   -8.9710   21.8090 C   0  0  0  0  0  3  0  0  0  0  0  0
  -22.9300   -8.8640   21.0810 C   0  0  0  0  0  0  0  0  0  0  0  0
  -22.5680   -9.8880   20.1890 C   0  0  0  0  0  3  0  0  0  0  0  0
  -23.3840  -11.0220   20.0350 C   0  0  0  0  0  3  0  0  0  0  0  0
  -22.0830   -7.7830   21.1490 O   0  0  0  0  0  0  0  0  0  0  0  0
  -21.9420   -7.0480   22.2990 C   0  0  0  0  0  0  0  0  0  0  0  0
  -21.5190   -7.6360   23.5100 C   0  0  0  0  0  3  0  0  0  0  0  0
  -21.3200   -6.8340   24.6520 C   0  0  0  0  0  3  0  0  0  0  0  0
  -21.5330   -5.4430   24.5820 C   0  0  0  0  0  0  0  0  0  0  0  0
  -21.9530   -4.8550   23.3750 C   0  0  0  0  0  3  0  0  0  0  0  0
  -22.1530   -5.6560   22.2360 C   0  0  0  0  0  0  0  0  0  0  0  0
  -22.5380   -5.0790   21.0730 F   0  0  0  0  0  0  0  0  0  0  0  0
  -21.3360   -4.6720   25.6760 F   0  0  0  0  0  0  0  0  0  0  0  0
  -23.7370  -14.3130   21.1720 C   0  0  0  0  0  0  0  0  0  0  0  0
  -23.0170  -13.6310   22.0610 N   0  0  0  0  0  0  0  0  0  0  0  0
  -23.3500  -15.3970   20.7400 O   0  0  0  0  0  0  0  0  0  0  0  0
  -23.3350  -12.7500   22.4310 H   0  0  0  0  0  0  0  0  0  0  0  0
  -22.1330  -13.9990   22.3780 H   0  0  0  0  0  0  0  0  0  0  0  0
  -26.4380  -15.8030   20.2760 N   0  0  0  0  0  0  0  0  0  0  0  0
  -25.7290  -16.5060   20.4640 H   0  0  0  0  0  0  0  0  0  0  0  0
  -27.2910  -16.1880   19.8860 H   0  0  0  0  0  0  0  0  0  0  0  0
  -25.4190  -22.2920   20.0210 C   0  0  0  0  0  0  0  0  0  0  0  0
  -24.9220  -23.4050   20.5940 N   0  0  0  0  0  0  0  0  0  0  0  0
  -24.7330  -21.5830   19.2820 O   0  0  0  0  0  0  0  0  0  0  0  0
  -25.5480  -23.9410   21.1820 H   0  0  0  0  0  0  0  0  0  0  0  0
  -23.5060  -23.7870   20.6510 C   0  0  0  0  0  2  0  0  0  0  0  0
  -23.0000  -24.5150   19.3880 C   0  0  0  0  0  2  0  0  0  0  0  0
  -22.7140  -23.5890   18.2760 N   0  0  0  0  0  4  0  0  0  0  0  0
  -23.5000  -22.9880   18.0940 H   0  0  0  0  0  0  0  0  0  0  0  0
  -22.4860  -24.0940   17.4370 H   0  0  0  0  0  0  0  0  0  0  0  0
  -21.9240  -23.0160   18.5040 H   0  0  0  0  0  0  0  0  0  0  0  0
  -29.8950  -25.1210   18.4550 C   0  0  0  0  0  2  0  0  0  0  0  0
  -28.6100  -26.0060   18.4390 C   0  0  0  0  0  2  0  0  0  0  0  0
  -28.6220  -27.2730   19.1380 O   0  0  0  0  0  0  0  0  0  0  0  0
  -24.6610  -31.6390   23.2270 C   0  0  0  0  0  0  0  0  0  0  0  0
  -27.3970  -27.9120   19.3210 C   0  0  0  0  0  0  0  0  0  0  0  0
  -23.4550  -30.4530   21.4260 C   0  0  0  0  0  3  0  0  0  0  0  0
  -24.9160  -29.2510   19.7220 C   0  0  0  0  0  0  0  0  0  0  0  0
  -25.9500  -30.9770   21.1970 C   0  0  0  0  0  2  0  0  0  0  0  0
  -26.0780  -29.7370   20.3300 C   0  0  0  0  0  0  0  0  0  0  0  0
  -27.3190  -29.0770   20.1290 C   0  0  0  0  0  3  0  0  0  0  0  0
  -26.1960  -27.4400   18.7270 C   0  0  0  0  0  3  0  0  0  0  0  0
  -24.9720  -28.0980   18.9220 C   0  0  0  0  0  3  0  0  0  0  0  0
  -23.6320  -30.0150   19.9520 C   0  0  0  0  0  2  0  0  0  0  0  0
  -24.7070  -31.0280   22.0080 N   0  0  0  0  0  0  0  0  0  0  0  0
  -23.5920  -31.7580   23.8450 O   0  0  0  0  0  0  0  0  0  0  0  0
  -22.8970  -29.2560   22.2340 C   0  0  0  0  0  0  0  0  0  0  0  0
  -21.5930  -28.9790   22.0780 N   0  0  0  0  0  0  0  0  0  0  0  0
  -23.6360  -28.5840   22.9590 O   0  0  0  0  0  0  0  0  0  0  0  0
  -21.0520  -29.5670   21.4600 H   0  0  0  0  0  0  0  0  0  0  0  0
  -18.3600  -27.3870   22.3380 C   0  0  0  0  0  0  0  0  0  0  0  0
  -20.8700  -27.8770   22.7120 C   0  0  0  0  0  3  0  0  0  0  0  0
  -21.1310  -26.5420   21.9710 C   0  0  0  0  0  2  0  0  0  0  0  0
  -20.0820  -26.2330   20.8970 C   0  0  0  0  0  2  0  0  0  0  0  0
  -18.6890  -26.1490   21.5230 C   0  0  0  0  0  2  0  0  0  0  0  0
  -19.3810  -28.2060   22.8870 C   0  0  0  0  0  0  0  0  0  0  0  0
  -19.0140  -29.3640   23.6090 C   0  0  0  0  0  3  0  0  0  0  0  0
  -17.6590  -29.6980   23.7920 C   0  0  0  0  0  3  0  0  0  0  0  0
  -16.6540  -28.8750   23.2560 C   0  0  0  0  0  3  0  0  0  0  0  0
  -17.0060  -27.7190   22.5360 C   0  0  0  0  0  3  0  0  0  0  0  0
  -25.9410  -32.2380   23.8890 C   0  0  0  0  0  3  0  0  0  0  0  0
  -26.4820  -31.3680   25.0890 C   0  0  1  0  0  0  0  0  0  0  0  0
  -25.4030  -31.0310   26.1450 C   0  0  0  0  0  1  0  0  0  0  0  0
  -27.0740  -30.0330   24.5750 C   0  0  0  0  0  1  0  0  0  0  0  0
  -27.6350  -32.1150   25.7990 C   0  0  0  0  0  1  0  0  0  0  0  0
  -25.6090  -33.5960   24.3420 N   0  0  0  0  0  0  0  0  0  0  0  0
  -25.9050  -34.7130   23.6650 C   0  0  0  0  0  0  0  0  0  0  0  0
  -26.5520  -34.7140   22.6150 O   0  0  0  0  0  0  0  0  0  0  0  0
  -25.0290  -33.6660   25.1640 H   0  0  0  0  0  0  0  0  0  0  0  0
  -24.1190  -36.4770   23.5100 C   0  0  0  0  0  1  0  0  0  0  0  0
  -25.3990  -36.0470   24.2480 C   0  0  0  0  0  3  0  0  0  0  0  0
  -27.5370  -36.9180   25.0820 C   0  0  0  0  0  1  0  0  0  0  0  0
  -26.4020  -37.1330   24.1850 N   0  0  0  0  0  0  0  0  0  0  0  0
  -25.9800  -38.0260   24.4190 H   0  0  0  0  0  0  0  0  0  0  0  0
  1  9  2  0
  2  4  1  0
  2  6  1  0
  3  7  1  0
  5  3  1  0
  5  8  1  0
  6 11  1  0
  7  6  1  0
  7  1  1  0
  8  4  1  0
  8 10  1  1
 11 12  1  0
 11 13  2  0
 12 14  1  0
 15 16  1  0
 15 12  1  0
 17 25  1  0
 18 23  1  0
 19 20  1  0
 19 18  1  0
 21 20  1  0
 21 30  1  0
 21 22  1  0
 23 17  1  0
 23 22  1  0
 24 17  2  0
 25 16  1  0
 25 26  1  0
 27 28  2  0
 28 47  1  0
 29 28  1  0
 29 32  1  0
 30 31  1  0
 30 27  1  0
 31 29  2  0
 32 33  1  0
 33 34  2  0
 35 38  1  0
 35 34  1  0
 36 35  2  0
 37 36  1  0
 37 32  2  0
 38 39  1  0
 39 40  1  0
 40 41  2  0
 42 41  1  0
 42 46  1  0
 43 42  2  0
 44 39  2  0
 44 43  1  0
 45 44  1  0
 47 48  1  0
 48 51  1  0
 48 50  1  0
 49 47  2  0
 52 27  1  0
 52 53  1  0
 54 52  1  0
 55  1  1  0
 55 56  1  0
 56 59  1  0
 56 58  1  0
 57 55  2  0
 60 59  1  0
 61 64  1  0
 61 60  1  0
 62 61  1  0
 63 61  1  0
 65  8  1  0
 66 65  1  0
 66 67  1  0
 67 69  1  0
 68 79  2  0
 69 74  1  0
 70 78  1  0
 70 80  1  0
 71 77  1  0
 71 73  1  0
 72 78  1  0
 73 72  1  0
 74 73  2  0
 75 76  1  0
 75 69  2  0
 76 71  2  0
 77 70  1  0
 78 68  1  0
 80 82  2  0
 81 80  1  0
 83 81  1  0
 84 93  2  0
 84 89  1  0
 85 81  1  0
 85 89  1  0
 86 85  1  0
 87 88  1  0
 87 86  1  0
 88 84  1  0
 89 90  2  0
 90 91  1  0
 92 91  2  0
 93 92  1  0
 94 68  1  0
 94 99  1  0
 94 95  1  0
 95 98  1  1
 95 96  1  0
 97 95  1  0
 99102  1  0
100104  1  0
100 99  1  0
101100  2  0
104103  1  0
106104  1  0
106107  1  0
106105  1  0
M  ISO  4  17 100  25 100  66 101  67 101
M  END
>  <TORSDO>  (11) 
F 25

>  <SCORE>  (11) 
-9.313

>  <name>  (11) 
12

>  <ligand_id>  (11) 
12

>  <original_smiles>  (11) 
[H]c1c([H])c([H])c2c(c1[H])C([H])([H])C([H])([H])C([H])([H])C2([H])N([H])C(=O)C1([H])N(C(=O)C([H])(N([H])C(=O)C([H])(N([H])C([H])([H])[H])C([H])([H])[H])C(C([H])([H])[H])(C([H])([H])[H])C([H])([H])[H])C([H])([H])c2c([H])c(OC([H])([H])C([H])([H])[N+]3([H])C([H])([H])C([H])([H])N(C(=O)C(=O)N([H])C([H])([H])C([H])([H])[N+]([H])([H])[H])C([H])(C(=O)N([H])C([H])([H])C([H])([H])N([H])C(=O)N4C([H])([H])C([H])([H])C([H])([H])C([H])(n5nc(-c6c([H])c([H])c(Oc7c([H])c([H])c(F)c([H])c7F)c([H])c6[H])c(C(=O)N([H])[H])c5N([H])[H])C4([H])[H])C([H])([H])C3([H])[H])c([H])c([H])c2C1([H])[H]

>  <smiles>  (11) 
[H]c1c([H])c([H])c2c(c1[H])C([H])([H])C([H])([H])C([H])([H])C2([H])N([H])C(=O)C1([H])N(C(=O)C([H])(N([H])C(=O)C([H])(N([H])C([H])([H])[H])C([H])([H])[H])C(C([H])([H])[H])(C([H])([H])[H])C([H])([H])[H])C([H])([H])c2c([H])c(OC([H])([H])C([H])([H])[N+]3([H])C([H])([H])C([H])([H])N(C(=O)C(=O)N([H])C([H])([H])C([H])([H])[N+]([H])([H])[H])C([H])(C(=O)N([H])C([H])([H])C([H])([H])N([H])C(=O)N4C([H])([H])C([H])([H])C([H])([H])C([H])(n5nc(-c6c([H])c([H])c(Oc7c([H])c([H])c(F)c([H])c7F)c([H])c6[H])c(C(=O)N([H])[H])c5N([H])[H])C4([H])[H])C([H])([H])C3([H])[H])c([H])c([H])c2C1([H])[H]

$$$$
13:0:0
     RDKit          3D

 98108  0  0  1  0  0  0  0  0999 V2000
  -27.4960  -25.5170   17.3250 C   0  0  0  0  0  2  0  0  0  0  0  0
  -27.2850  -26.8690   16.8680 O   0  0  0  0  0  0  0  0  0  0  0  0
  -27.0750  -27.9420   17.8330 C   0  0  0  0  0  2  0  0  0  0  0  0
  -25.7460  -28.0390   18.7730 C   0  0  0  0  0  3  0  0  0  0  0  0
  -25.2360  -26.8350   21.7190 C   0  0  0  0  0  3  0  0  0  0  0  0
  -25.7490  -25.5560   22.2050 O   0  0  0  0  0  0  0  0  0  0  0  0
  -26.5210  -25.5360   23.4060 C   0  0  0  0  0  2  0  0  0  0  0  0
  -27.9930  -25.9630   23.2390 C   0  0  0  0  0  2  0  0  0  0  0  0
  -28.6390  -25.5720   21.8900 C   0  0  0  0  0  2  0  0  0  0  0  0
  -28.8370  -26.7120   21.0570 O   0  0  0  0  0  0  0  0  0  0  0  0
  -24.8720  -32.1320   24.0350 C   0  0  0  0  0  0  0  0  0  0  0  0
  -27.7240  -27.4680   20.9300 C   0  0  0  0  0  0  0  0  0  0  0  0
  -23.6540  -30.8670   22.2920 C   0  0  0  0  0  3  0  0  0  0  0  0
  -24.9720  -29.3700   20.7540 C   0  0  0  0  0  0  0  0  0  0  0  0
  -26.2220  -31.2670   22.1600 C   0  0  0  0  0  2  0  0  0  0  0  0
  -26.3500  -29.9710   21.4420 C   0  0  0  0  0  0  0  0  0  0  0  0
  -27.7460  -29.0460   21.5160 C   0  0  0  0  0  3  0  0  0  0  0  0
  -26.2980  -26.8390   20.2320 C   0  0  2  0  0  0  0  0  0  0  0  0
  -24.9130  -27.8030   20.1530 C   0  0  1  0  0  0  0  0  0  0  0  0
  -23.7960  -30.2770   20.8610 C   0  0  0  0  0  2  0  0  0  0  0  0
  -24.9330  -31.4090   22.8830 N   0  0  0  0  0  0  0  0  0  0  0  0
  -23.7830  -32.4050   24.5570 O   0  0  0  0  0  0  0  0  0  0  0  0
  -22.9400  -29.8300   23.1940 C   0  0  0  0  0  0  0  0  0  0  0  0
  -21.6540  -29.5850   22.9080 N   0  0  0  0  0  0  0  0  0  0  0  0
  -23.5350  -29.2600   24.1110 O   0  0  0  0  0  0  0  0  0  0  0  0
  -21.2350  -30.0950   22.1440 H   0  0  0  0  0  0  0  0  0  0  0  0
  -18.2910  -28.2900   23.0300 C   0  0  0  0  0  0  0  0  0  0  0  0
  -20.7860  -28.6330   23.5970 C   0  0  0  0  0  3  0  0  0  0  0  0
  -21.0050  -27.1980   23.0650 C   0  0  0  0  0  2  0  0  0  0  0  0
  -20.0430  -26.8240   21.9330 C   0  0  0  0  0  2  0  0  0  0  0  0
  -18.5910  -26.9350   22.4060 C   0  0  0  0  0  2  0  0  0  0  0  0
  -19.3260  -29.0940   23.5750 C   0  0  0  0  0  0  0  0  0  0  0  0
  -19.0010  -30.3580   24.1120 C   0  0  0  0  0  3  0  0  0  0  0  0
  -17.6720  -30.8190   24.1110 C   0  0  0  0  0  3  0  0  0  0  0  0
  -16.6460  -30.0130   23.5830 C   0  0  0  0  0  3  0  0  0  0  0  0
  -16.9570  -28.7510   23.0470 C   0  0  0  0  0  3  0  0  0  0  0  0
  -26.1520  -32.6890   24.7290 C   0  0  0  0  0  3  0  0  0  0  0  0
  -26.4920  -31.9630   26.0850 C   0  0  1  0  0  0  0  0  0  0  0  0
  -25.2900  -31.8580   27.0520 C   0  0  0  0  0  1  0  0  0  0  0  0
  -27.0120  -30.5300   25.8280 C   0  0  0  0  0  1  0  0  0  0  0  0
  -27.6300  -32.7260   26.8060 C   0  0  0  0  0  1  0  0  0  0  0  0
  -25.9430  -34.1260   24.9350 N   0  0  0  0  0  0  0  0  0  0  0  0
  -26.4440  -35.0830   24.1430 C   0  0  0  0  0  0  0  0  0  0  0  0
  -27.1960  -34.8440   23.1950 O   0  0  0  0  0  0  0  0  0  0  0  0
  -25.2700  -34.3870   25.6420 H   0  0  0  0  0  0  0  0  0  0  0  0
  -24.9420  -36.9980   23.4980 C   0  0  0  0  0  1  0  0  0  0  0  0
  -26.0490  -36.5380   24.4590 C   0  0  0  0  0  3  0  0  0  0  0  0
  -28.1620  -37.2800   25.4680 C   0  0  0  0  0  1  0  0  0  0  0  0
  -27.1860  -37.4810   24.3970 N   0  0  0  0  0  0  0  0  0  0  0  0
  -26.8610  -38.4440   24.4410 H   0  0  0  0  0  0  0  0  0  0  0  0
  -28.3350  -24.5750   16.4280 C   0  0  0  0  0  2  0  0  0  0  0  0
  -28.1120  -23.0460   16.7090 C   0  0  0  0  0  2  0  0  0  0  0  0
  -28.7760  -21.1990   18.2810 C   0  0  0  0  0  0  0  0  0  0  0  0
  -29.0180  -22.3900   17.6800 N   0  0  0  0  0  0  0  0  0  0  0  0
  -27.6680  -20.6620   18.2200 O   0  0  0  0  0  0  0  0  0  0  0  0
  -29.9460  -22.7790   17.7800 H   0  0  0  0  0  0  0  0  0  0  0  0
  -29.9400  -20.4820   19.0210 C   0  0  0  0  0  3  0  0  0  0  0  0
  -29.5870  -19.1700   19.8120 C   0  0  0  0  0  3  0  0  0  0  0  0
  -30.8040  -18.2300   20.1220 C   0  0  0  0  0  2  0  0  0  0  0  0
  -30.6910  -17.2840   21.3670 C   0  0  0  0  0  2  0  0  0  0  0  0
  -31.1190  -14.8130   20.8740 C   0  0  0  0  0  0  0  0  0  0  0  0
  -30.8740  -12.6970   19.6410 C   0  0  0  0  0  2  0  0  0  0  0  0
  -30.0040  -12.9940   18.4000 C   0  0  0  0  0  2  0  0  0  0  0  0
  -28.5040  -12.8760   18.7420 C   0  0  0  0  0  2  0  0  0  0  0  0
  -28.1160  -13.6520   20.0280 C   0  0  0  0  0  3  0  0  0  0  0  0
  -29.1030  -13.3420   21.1760 C   0  0  0  0  0  2  0  0  0  0  0  0
  -30.4590  -13.6400   20.6880 N   0  0  0  0  0  0  0  0  0  0  0  0
  -32.3220  -14.9550   20.6340 O   0  0  0  0  0  0  0  0  0  0  0  0
  -30.3180  -15.8750   21.1180 N   0  0  0  0  0  0  0  0  0  0  0  0
  -29.3380  -15.6540   21.2110 H   0  0  0  0  0  0  0  0  0  0  0  0
  -25.6940  -14.2990   20.6040 C   0  0  0  0  0  0  0  0  0  0  0  0
  -24.5870  -13.5430   20.8820 C   0  0  0  0  0  0  0  0  0  0  0  0
  -25.0210  -12.1830   20.8470 C   0  0  0  0  0  0  0  0  0  0  0  0
  -26.7320  -13.3990   20.4160 N   0  0  0  0  0  0  0  0  0  0  0  0
  -26.3270  -12.1210   20.6250 N   0  0  0  0  0  0  0  0  0  0  0  0
  -24.2580  -10.9330   20.9560 C   0  0  0  0  0  0  0  0  0  0  0  0
  -24.5940   -9.9430   21.9060 C   0  0  0  0  0  3  0  0  0  0  0  0
  -23.8350   -8.7570   22.0020 C   0  0  0  0  0  3  0  0  0  0  0  0
  -22.7270   -8.5530   21.1460 C   0  0  0  0  0  0  0  0  0  0  0  0
  -22.4120   -9.5320   20.1860 C   0  0  0  0  0  3  0  0  0  0  0  0
  -23.1720  -10.7090   20.0880 C   0  0  0  0  0  3  0  0  0  0  0  0
  -21.9470   -7.4210   21.1500 O   0  0  0  0  0  0  0  0  0  0  0  0
  -21.7640   -6.6790   22.2890 C   0  0  0  0  0  0  0  0  0  0  0  0
  -21.1730   -7.2280   23.4480 C   0  0  0  0  0  3  0  0  0  0  0  0
  -20.9390   -6.4110   24.5730 C   0  0  0  0  0  3  0  0  0  0  0  0
  -21.2850   -5.0470   24.5370 C   0  0  0  0  0  0  0  0  0  0  0  0
  -21.8680   -4.4970   23.3810 C   0  0  0  0  0  3  0  0  0  0  0  0
  -22.1030   -5.3120   22.2590 C   0  0  0  0  0  0  0  0  0  0  0  0
  -22.6460   -4.7740   21.1400 F   0  0  0  0  0  0  0  0  0  0  0  0
  -21.0530   -4.2590   25.6130 F   0  0  0  0  0  0  0  0  0  0  0  0
  -23.1840  -14.0440   21.0720 C   0  0  0  0  0  0  0  0  0  0  0  0
  -22.3860  -13.3450   21.8700 N   0  0  0  0  0  0  0  0  0  0  0  0
  -22.8040  -15.0900   20.5470 O   0  0  0  0  0  0  0  0  0  0  0  0
  -22.7060  -12.4970   22.3160 H   0  0  0  0  0  0  0  0  0  0  0  0
  -21.4410  -13.6620   22.0380 H   0  0  0  0  0  0  0  0  0  0  0  0
  -25.8970  -15.6700   20.4710 N   0  0  0  0  0  0  0  0  0  0  0  0
  -25.1320  -16.3330   20.5420 H   0  0  0  0  0  0  0  0  0  0  0  0
  -26.7660  -16.1010   20.1810 H   0  0  0  0  0  0  0  0  0  0  0  0
  2  1  1  0
  2  3  1  0
  4  3  1  0
 19  4  1  6
 18  4  1  1
  5  6  1  0
  6  7  1  0
  8  7  1  0
  9  8  1  0
 10  9  1  0
 11 22  2  0
 12 10  1  0
 12 17  2  0
 13 21  1  0
 13 23  1  0
 14 20  1  0
 14 16  2  0
 15 21  1  0
 16 17  1  0
 16 15  1  0
 18 12  1  0
 18  5  1  0
 19 18  1  0
 19 14  1  0
 19  5  1  0
 20 13  1  0
 21 11  1  0
 23 25  2  0
 24 23  1  0
 26 24  1  0
 27 36  2  0
 27 32  1  0
 28 24  1  0
 29 28  1  0
 30 31  1  0
 30 29  1  0
 31 27  1  0
 32 28  1  0
 32 33  2  0
 34 33  1  0
 35 34  2  0
 36 35  1  0
 37 11  1  0
 37 42  1  0
 37 38  1  0
 38 41  1  1
 38 39  1  0
 40 38  1  0
 42 45  1  0
 43 47  1  0
 43 42  1  0
 44 43  2  0
 47 46  1  0
 49 50  1  0
 49 47  1  0
 49 48  1  0
 51 52  1  0
 51  1  1  0
 52 54  1  0
 53 57  1  0
 54 56  1  0
 54 53  1  0
 55 53  2  0
 57 58  2  0
 58 59  1  0
 59 60  1  0
 61 69  1  0
 62 67  1  0
 63 64  1  0
 63 62  1  0
 65 64  1  0
 65 74  1  0
 65 66  1  0
 67 61  1  0
 67 66  1  0
 68 61  2  0
 69 70  1  0
 69 60  1  0
 71 72  2  0
 72 91  1  0
 73 72  1  0
 73 76  1  0
 74 71  1  0
 74 75  1  0
 75 73  2  0
 76 77  1  0
 77 78  2  0
 79 82  1  0
 79 78  1  0
 80 79  2  0
 81 80  1  0
 81 76  2  0
 82 83  1  0
 83 84  1  0
 84 85  2  0
 86 85  1  0
 86 90  1  0
 87 86  2  0
 88 83  2  0
 88 87  1  0
 89 88  1  0
 91 92  1  0
 92 95  1  0
 92 94  1  0
 93 91  2  0
 96 97  1  0
 96 71  1  0
 98 96  1  0
M  ISO  4   9 101  10 101  61 100  69 100
M  END
>  <TORSDO>  (12) 
F 31

>  <SCORE>  (12) 
-8.981

>  <name>  (12) 
13

>  <ligand_id>  (12) 
13

>  <original_smiles>  (12) 
[H]c1c([H])c([H])c2c(c1[H])C([H])([H])C([H])([H])C([H])([H])C2([H])N([H])C(=O)C1([H])N(C(=O)C([H])(N([H])C(=O)C([H])(N([H])C([H])([H])[H])C([H])([H])[H])C(C([H])([H])[H])(C([H])([H])[H])C([H])([H])[H])C([H])([H])c2c([H])c(OC([H])([H])C([H])([H])C([H])([H])OC([H])([H])C([H])([H])C([H])([H])OC([H])([H])C([H])([H])C([H])([H])N([H])C(=O)C([H])([H])C([H])([H])C([H])([H])C([H])([H])N([H])C(=O)N3C([H])([H])C([H])([H])C([H])([H])C([H])(n4nc(-c5c([H])c([H])c(Oc6c([H])c([H])c(F)c([H])c6F)c([H])c5[H])c(C(=O)N([H])[H])c4N([H])[H])C3([H])[H])c([H])c([H])c2C1([H])[H]

>  <smiles>  (12) 
[H]c1c([H])c([H])c2c(c1[H])C([H])([H])C([H])([H])C([H])([H])C2([H])N([H])C(=O)C1([H])N(C(=O)C([H])(N([H])C(=O)C([H])(N([H])C([H])([H])[H])C([H])([H])[H])C(C([H])([H])[H])(C([H])([H])[H])C([H])([H])[H])C([H])([H])c2c([H])c(OC([H])([H])C([H])([H])C([H])([H])OC([H])([H])C([H])([H])C([H])([H])OC([H])([H])C([H])([H])C([H])([H])N([H])C(=O)C([H])([H])C([H])([H])C([H])([H])C([H])([H])N([H])C(=O)N3C([H])([H])C([H])([H])C([H])([H])C([H])(n4nc(-c5c([H])c([H])c(Oc6c([H])c([H])c(F)c([H])c6F)c([H])c5[H])c(C(=O)N([H])[H])c4N([H])[H])C3([H])[H])c([H])c([H])c2C1([H])[H]

$$$$
14:0:0
     RDKit          3D

101109  0  0  1  0  0  0  0  0999 V2000
  -27.8250  -23.5230   17.1170 C   0  0  0  0  0  2  0  0  0  0  0  0
  -26.3710  -23.2400   17.5350 C   0  0  0  0  0  2  0  0  0  0  0  0
  -25.9080  -21.9890   19.6410 C   0  0  0  0  0  2  0  0  0  0  0  0
  -26.8000  -22.9440   20.4540 C   0  0  0  0  0  2  0  0  0  0  0  0
  -28.8510  -23.5070   19.3860 C   0  0  0  0  0  2  0  0  0  0  0  0
  -28.8760  -22.9930   18.0140 N   0  0  0  0  0  0  0  0  0  0  0  0
  -26.2360  -21.9120   18.1910 N   0  0  1  0  0  4  0  0  0  0  0  0
  -28.1800  -22.6550   20.2550 O   0  0  0  0  0  0  0  0  0  0  0  0
  -27.1770  -21.5350   18.1660 H   0  0  0  0  0  0  0  0  0  0  0  0
  -25.3590  -20.9390   17.4700 C   0  0  0  0  0  2  0  0  0  0  0  0
  -26.1750  -19.9760   16.6100 C   0  0  0  0  0  2  0  0  0  0  0  0
  -27.0960  -19.3770   17.5100 O   0  0  0  0  0  0  0  0  0  0  0  0
  -27.9980  -18.4930   16.8730 C   0  0  0  0  0  2  0  0  0  0  0  0
  -28.5710  -17.5600   17.9460 C   0  0  0  0  0  2  0  0  0  0  0  0
  -29.4470  -18.2690   19.0080 C   0  0  0  0  0  2  0  0  0  0  0  0
  -30.3560  -17.2910   19.7720 C   0  0  0  0  0  2  0  0  0  0  0  0
  -29.9080  -16.8930   21.2050 C   0  0  0  0  0  2  0  0  0  0  0  0
  -31.2360  -14.8410   20.9850 C   0  0  0  0  0  0  0  0  0  0  0  0
  -30.8440  -12.8890   19.5490 C   0  0  0  0  0  2  0  0  0  0  0  0
  -29.9810  -13.2420   18.3200 C   0  0  0  0  0  2  0  0  0  0  0  0
  -28.4910  -13.0970   18.6740 C   0  0  0  0  0  2  0  0  0  0  0  0
  -28.1100  -13.8710   19.9660 C   0  0  0  0  0  3  0  0  0  0  0  0
  -29.0810  -13.5320   21.1190 C   0  0  0  0  0  2  0  0  0  0  0  0
  -30.4580  -13.7820   20.6500 N   0  0  0  0  0  0  0  0  0  0  0  0
  -32.3740  -15.0250   20.5480 O   0  0  0  0  0  0  0  0  0  0  0  0
  -30.6760  -15.7700   21.7660 N   0  0  0  0  0  0  0  0  0  0  0  0
  -31.3400  -16.1070   22.4510 H   0  0  0  0  0  0  0  0  0  0  0  0
  -25.6820  -14.5240   20.5300 C   0  0  0  0  0  0  0  0  0  0  0  0
  -24.5760  -13.7730   20.8070 C   0  0  0  0  0  0  0  0  0  0  0  0
  -25.0090  -12.4120   20.7830 C   0  0  0  0  0  0  0  0  0  0  0  0
  -26.7200  -13.6250   20.3450 N   0  0  0  0  0  0  0  0  0  0  0  0
  -26.3140  -12.3480   20.5550 N   0  0  0  0  0  0  0  0  0  0  0  0
  -24.2520  -11.1630   20.9090 C   0  0  0  0  0  0  0  0  0  0  0  0
  -24.6080  -10.1670   21.8460 C   0  0  0  0  0  3  0  0  0  0  0  0
  -23.8520   -8.9800   21.9540 C   0  0  0  0  0  3  0  0  0  0  0  0
  -22.7240   -8.7800   21.1240 C   0  0  0  0  0  0  0  0  0  0  0  0
  -22.3870   -9.7630   20.1760 C   0  0  0  0  0  3  0  0  0  0  0  0
  -23.1450  -10.9390   20.0670 C   0  0  0  0  0  3  0  0  0  0  0  0
  -21.9450   -7.6480   21.1410 O   0  0  0  0  0  0  0  0  0  0  0  0
  -21.7900   -6.9010   22.2820 C   0  0  0  0  0  0  0  0  0  0  0  0
  -21.2990   -7.4590   23.4830 C   0  0  0  0  0  3  0  0  0  0  0  0
  -21.0900   -6.6370   24.6090 C   0  0  0  0  0  3  0  0  0  0  0  0
  -21.3630   -5.2570   24.5360 C   0  0  0  0  0  0  0  0  0  0  0  0
  -21.8490   -4.7000   23.3390 C   0  0  0  0  0  3  0  0  0  0  0  0
  -22.0580   -5.5190   22.2160 C   0  0  0  0  0  0  0  0  0  0  0  0
  -22.5050   -4.9700   21.0620 F   0  0  0  0  0  0  0  0  0  0  0  0
  -21.1560   -4.4660   25.6150 F   0  0  0  0  0  0  0  0  0  0  0  0
  -23.1720  -14.2750   20.9980 C   0  0  0  0  0  0  0  0  0  0  0  0
  -22.3780  -13.5860   21.8060 N   0  0  0  0  0  0  0  0  0  0  0  0
  -22.7880  -15.3150   20.4620 O   0  0  0  0  0  0  0  0  0  0  0  0
  -22.6980  -12.7470   22.2670 H   0  0  0  0  0  0  0  0  0  0  0  0
  -21.4350  -13.9070   21.9840 H   0  0  0  0  0  0  0  0  0  0  0  0
  -25.8940  -15.8940   20.4050 N   0  0  0  0  0  0  0  0  0  0  0  0
  -25.1540  -16.5710   20.5480 H   0  0  0  0  0  0  0  0  0  0  0  0
  -26.7950  -16.3160   20.2230 H   0  0  0  0  0  0  0  0  0  0  0  0
  -30.2270  -23.0750   17.4270 C   0  0  0  0  0  2  0  0  0  0  0  0
  -30.9420  -24.4530   17.4800 C   0  0  0  0  0  2  0  0  0  0  0  0
  -30.0340  -25.5170   17.7650 O   0  0  0  0  0  0  0  0  0  0  0  0
  -30.6110  -26.6010   18.4860 C   0  0  0  0  0  2  0  0  0  0  0  0
  -29.5170  -27.6010   18.9100 C   0  0  0  0  0  2  0  0  0  0  0  0
  -28.6530  -27.0300   19.8980 O   0  0  0  0  0  0  0  0  0  0  0  0
  -24.6680  -31.9610   23.2230 C   0  0  0  0  0  0  0  0  0  0  0  0
  -27.4610  -27.7010   20.0210 C   0  0  0  0  0  0  0  0  0  0  0  0
  -23.5060  -30.5560   21.5480 C   0  0  0  0  0  3  0  0  0  0  0  0
  -25.0050  -29.0860   20.1060 C   0  0  0  0  0  0  0  0  0  0  0  0
  -26.0160  -31.0000   21.3600 C   0  0  0  0  0  2  0  0  0  0  0  0
  -26.1460  -29.6470   20.6940 C   0  0  0  0  0  0  0  0  0  0  0  0
  -27.3790  -28.9600   20.6550 C   0  0  0  0  0  3  0  0  0  0  0  0
  -26.3010  -27.1300   19.4660 C   0  0  0  0  0  3  0  0  0  0  0  0
  -25.0740  -27.8170   19.4990 C   0  0  0  0  0  3  0  0  0  0  0  0
  -23.7380  -29.9060   20.1590 C   0  0  0  0  0  2  0  0  0  0  0  0
  -24.7470  -31.1860   22.1040 N   0  0  0  0  0  0  0  0  0  0  0  0
  -23.5790  -32.1880   23.7660 O   0  0  0  0  0  0  0  0  0  0  0  0
  -22.8800  -29.4990   22.4860 C   0  0  0  0  0  0  0  0  0  0  0  0
  -21.5670  -29.2700   22.3360 N   0  0  0  0  0  0  0  0  0  0  0  0
  -23.5760  -28.8890   23.3020 O   0  0  0  0  0  0  0  0  0  0  0  0
  -21.0680  -29.8200   21.6500 H   0  0  0  0  0  0  0  0  0  0  0  0
  -18.2390  -27.9120   22.7230 C   0  0  0  0  0  0  0  0  0  0  0  0
  -20.7720  -28.2890   23.0760 C   0  0  0  0  0  3  0  0  0  0  0  0
  -20.9610  -26.8680   22.4950 C   0  0  0  0  0  2  0  0  0  0  0  0
  -19.9060  -26.4990   21.4480 C   0  0  0  0  0  2  0  0  0  0  0  0
  -18.4990  -26.5770   22.0500 C   0  0  0  0  0  2  0  0  0  0  0  0
  -19.3070  -28.7250   23.1900 C   0  0  0  0  0  0  0  0  0  0  0  0
  -19.0100  -29.9760   23.7740 C   0  0  0  0  0  3  0  0  0  0  0  0
  -17.6780  -30.4120   23.9050 C   0  0  0  0  0  3  0  0  0  0  0  0
  -16.6250  -29.5960   23.4570 C   0  0  0  0  0  3  0  0  0  0  0  0
  -16.9070  -28.3490   22.8690 C   0  0  0  0  0  3  0  0  0  0  0  0
  -25.9370  -32.6090   23.8610 C   0  0  0  0  0  3  0  0  0  0  0  0
  -25.6000  -33.9980   24.1990 N   0  0  0  0  0  0  0  0  0  0  0  0
  -25.9200  -35.0620   23.4500 C   0  0  0  0  0  0  0  0  0  0  0  0
  -26.6010  -34.9800   22.4240 O   0  0  0  0  0  0  0  0  0  0  0  0
  -24.9990  -34.1370   24.9980 H   0  0  0  0  0  0  0  0  0  0  0  0
  -24.1610  -36.8210   23.0870 C   0  0  0  0  0  1  0  0  0  0  0  0
  -25.4010  -36.4380   23.9120 C   0  0  0  0  0  3  0  0  0  0  0  0
  -27.5110  -37.3540   24.7640 C   0  0  0  0  0  1  0  0  0  0  0  0
  -26.4140  -37.5100   23.8140 N   0  0  0  0  0  0  0  0  0  0  0  0
  -25.9900  -38.4220   23.9660 H   0  0  0  0  0  0  0  0  0  0  0  0
  -26.4600  -31.8350   25.1320 C   0  0  1  0  0  0  0  0  0  0  0  0
  -25.3660  -31.5650   26.1900 C   0  0  0  0  0  1  0  0  0  0  0  0
  -27.0750  -30.4750   24.7270 C   0  0  0  0  0  1  0  0  0  0  0  0
  -27.5910  -32.6450   25.8070 C   0  0  0  0  0  1  0  0  0  0  0  0
  1  2  1  0
  1  6  1  0
  2  7  1  0
  3  4  1  0
  5  8  1  0
  6  5  1  0
  7  3  1  0
  8  4  1  0
  7  9  1  1
 10  7  1  0
 11 10  1  0
 11 12  1  0
 13 12  1  0
 13 14  1  0
 14 15  1  0
 15 16  1  0
 16 17  1  0
 17 26  1  0
 18 26  1  0
 19 24  1  0
 20 21  1  0
 20 19  1  0
 22 21  1  0
 22 31  1  0
 22 23  1  0
 24 18  1  0
 24 23  1  0
 25 18  2  0
 26 27  1  0
 28 29  2  0
 29 48  1  0
 30 29  1  0
 30 33  1  0
 31 28  1  0
 31 32  1  0
 32 30  2  0
 33 34  1  0
 34 35  2  0
 36 39  1  0
 36 35  1  0
 37 36  2  0
 38 37  1  0
 38 33  2  0
 39 40  1  0
 40 41  1  0
 41 42  2  0
 43 42  1  0
 43 47  1  0
 44 43  2  0
 45 40  2  0
 45 44  1  0
 46 45  1  0
 48 49  1  0
 49 52  1  0
 49 51  1  0
 50 48  2  0
 53 28  1  0
 53 54  1  0
 55 53  1  0
 56 57  1  0
 56  6  1  0
 57 58  1  0
 58 59  1  0
 59 60  1  0
 60 61  1  0
 61 63  1  0
 62 73  2  0
 63 68  1  0
 64 72  1  0
 64 74  1  0
 65 71  1  0
 65 67  1  0
 66 72  1  0
 67 66  1  0
 68 67  2  0
 69 70  1  0
 69 63  2  0
 70 65  2  0
 71 64  1  0
 72 62  1  0
 74 76  2  0
 75 74  1  0
 77 75  1  0
 78 87  2  0
 78 83  1  0
 79 75  1  0
 79 83  1  0
 80 79  1  0
 81 82  1  0
 81 80  1  0
 82 78  1  0
 83 84  2  0
 84 85  1  0
 86 85  2  0
 87 86  1  0
 88 62  1  0
 88 89  1  0
 88 98  1  0
 89 92  1  0
 90 94  1  0
 90 89  1  0
 91 90  2  0
 94 93  1  0
 96 94  1  0
 96 97  1  0
 96 95  1  0
 98101  1  1
 98 99  1  0
100 98  1  0
M  ISO  4  18 100  26 100  60 101  61 101
M  END
>  <TORSDO>  (13) 
F 29

>  <SCORE>  (13) 
-9.299

>  <name>  (13) 
14

>  <ligand_id>  (13) 
14

>  <original_smiles>  (13) 
[H]c1c([H])c([H])c2c(c1[H])C([H])([H])C([H])([H])C([H])([H])C2([H])N([H])C(=O)C1([H])N(C(=O)C([H])(N([H])C(=O)C([H])(N([H])C([H])([H])[H])C([H])([H])[H])C(C([H])([H])[H])(C([H])([H])[H])C([H])([H])[H])C([H])([H])c2c([H])c(OC([H])([H])C([H])([H])OC([H])([H])C([H])([H])N3C([H])([H])OC([H])([H])C([H])([H])[N+]([H])(C([H])([H])C([H])([H])OC([H])([H])C([H])([H])C([H])([H])C([H])([H])C([H])([H])N([H])C(=O)N4C([H])([H])C([H])([H])C([H])([H])C([H])(n5nc(-c6c([H])c([H])c(Oc7c([H])c([H])c(F)c([H])c7F)c([H])c6[H])c(C(=O)N([H])[H])c5N([H])[H])C4([H])[H])C([H])([H])C3([H])[H])c([H])c([H])c2C1([H])[H]

>  <smiles>  (13) 
[H]c1c([H])c([H])c2c(c1[H])C([H])([H])C([H])([H])C([H])([H])C2([H])N([H])C(=O)C1([H])N(C(=O)C([H])(N([H])C(=O)C([H])(N([H])C([H])([H])[H])C([H])([H])[H])C(C([H])([H])[H])(C([H])([H])[H])C([H])([H])[H])C([H])([H])c2c([H])c(OC([H])([H])C([H])([H])OC([H])([H])C([H])([H])N3C([H])([H])OC([H])([H])C([H])([H])[N+]([H])(C([H])([H])C([H])([H])OC([H])([H])C([H])([H])C([H])([H])C([H])([H])C([H])([H])N([H])C(=O)N4C([H])([H])C([H])([H])C([H])([H])C([H])(n5nc(-c6c([H])c([H])c(Oc7c([H])c([H])c(F)c([H])c7F)c([H])c6[H])c(C(=O)N([H])[H])c5N([H])[H])C4([H])[H])C([H])([H])C3([H])[H])c([H])c([H])c2C1([H])[H]

$$$$
15:0:0
     RDKit          3D

 96103  0  0  1  0  0  0  0  0999 V2000
  -34.2200  -22.7790   17.4560 C   0  0  0  0  0  2  0  0  0  0  0  0
  -32.9540  -22.1380   17.0290 N   0  0  0  0  0  4  0  0  0  0  0  0
  -32.2290  -22.7140   17.4390 H   0  0  0  0  0  0  0  0  0  0  0  0
  -32.8550  -22.2000   16.0270 H   0  0  0  0  0  0  0  0  0  0  0  0
  -32.7720  -20.7430   17.4960 C   0  0  0  0  0  2  0  0  0  0  0  0
  -31.3540  -20.2170   17.2140 C   0  0  0  0  0  2  0  0  0  0  0  0
  -31.1230  -19.0770   18.0380 O   0  0  0  0  0  0  0  0  0  0  0  0
  -29.7620  -18.9220   18.4320 C   0  0  0  0  0  2  0  0  0  0  0  0
  -29.6230  -17.7260   19.3880 C   0  0  0  0  0  2  0  0  0  0  0  0
  -30.6880  -17.7310   20.5040 C   0  0  0  0  0  2  0  0  0  0  0  0
  -30.4540  -16.7540   21.6770 C   0  0  0  0  0  2  0  0  0  0  0  0
  -30.6770  -14.5010   20.5650 C   0  0  0  0  0  0  0  0  0  0  0  0
  -30.3780  -12.4010   19.3120 C   0  0  0  0  0  2  0  0  0  0  0  0
  -29.4350  -12.6530   18.1190 C   0  0  0  0  0  2  0  0  0  0  0  0
  -27.9610  -12.4930   18.5440 C   0  0  0  0  0  2  0  0  0  0  0  0
  -27.6230  -13.2870   19.8320 C   0  0  0  0  0  3  0  0  0  0  0  0
  -28.6730  -13.0160   20.9320 C   0  0  0  0  0  2  0  0  0  0  0  0
  -30.0030  -13.3380   20.3790 N   0  0  0  0  0  0  0  0  0  0  0  0
  -31.7710  -14.7480   20.0500 O   0  0  0  0  0  0  0  0  0  0  0  0
  -30.0170  -15.4130   21.2920 N   0  0  0  0  0  0  0  0  0  0  0  0
  -29.1150  -15.1200   21.6430 H   0  0  0  0  0  0  0  0  0  0  0  0
  -25.2060  -13.8700   20.5010 C   0  0  0  0  0  0  0  0  0  0  0  0
  -24.1430  -13.0860   20.8650 C   0  0  0  0  0  0  0  0  0  0  0  0
  -24.6220  -11.7410   20.8500 C   0  0  0  0  0  0  0  0  0  0  0  0
  -26.2660  -13.0010   20.2930 N   0  0  0  0  0  0  0  0  0  0  0  0
  -25.9150  -11.7160   20.5550 N   0  0  0  0  0  0  0  0  0  0  0  0
  -23.9110  -10.4710   21.0480 C   0  0  0  0  0  0  0  0  0  0  0  0
  -24.3570   -9.5130   21.9860 C   0  0  0  0  0  3  0  0  0  0  0  0
  -23.6480   -8.3070   22.1680 C   0  0  0  0  0  3  0  0  0  0  0  0
  -22.4800   -8.0500   21.4110 C   0  0  0  0  0  0  0  0  0  0  0  0
  -22.0530   -8.9970   20.4630 C   0  0  0  0  0  3  0  0  0  0  0  0
  -22.7630  -10.1940   20.2800 C   0  0  0  0  0  3  0  0  0  0  0  0
  -21.7430   -6.8930   21.4990 O   0  0  0  0  0  0  0  0  0  0  0  0
  -21.7110   -6.1450   22.6490 C   0  0  0  0  0  0  0  0  0  0  0  0
  -21.2940   -6.6950   23.8810 C   0  0  0  0  0  3  0  0  0  0  0  0
  -21.2110   -5.8770   25.0240 C   0  0  0  0  0  3  0  0  0  0  0  0
  -21.5370   -4.5110   24.9360 C   0  0  0  0  0  0  0  0  0  0  0  0
  -21.9450   -3.9590   23.7090 C   0  0  0  0  0  3  0  0  0  0  0  0
  -22.0300   -4.7740   22.5680 C   0  0  0  0  0  0  0  0  0  0  0  0
  -22.4080   -4.2360   21.3830 F   0  0  0  0  0  0  0  0  0  0  0  0
  -21.4490   -3.7240   26.0330 F   0  0  0  0  0  0  0  0  0  0  0  0
  -22.7360  -13.5490   21.1210 C   0  0  0  0  0  0  0  0  0  0  0  0
  -22.0120  -12.8470   21.9850 N   0  0  0  0  0  0  0  0  0  0  0  0
  -22.2910  -14.5650   20.5920 O   0  0  0  0  0  0  0  0  0  0  0  0
  -22.3890  -12.0230   22.4290 H   0  0  0  0  0  0  0  0  0  0  0  0
  -21.0700  -13.1390   22.2090 H   0  0  0  0  0  0  0  0  0  0  0  0
  -25.3510  -15.2420   20.3160 N   0  0  0  0  0  0  0  0  0  0  0  0
  -24.5680  -15.8790   20.4060 H   0  0  0  0  0  0  0  0  0  0  0  0
  -26.1930  -15.6910   19.9790 H   0  0  0  0  0  0  0  0  0  0  0  0
  -34.0130  -24.2900   17.5980 C   0  0  0  0  0  2  0  0  0  0  0  0
  -32.8550  -24.4220   18.4180 O   0  0  0  0  0  0  0  0  0  0  0  0
  -32.5610  -25.7520   18.8080 C   0  0  0  0  0  2  0  0  0  0  0  0
  -31.2650  -25.6840   19.6250 C   0  0  0  0  0  2  0  0  0  0  0  0
  -30.8480  -27.0200   20.2550 C   0  0  0  0  0  2  0  0  0  0  0  0
  -29.5470  -26.8990   21.0610 C   0  0  0  0  0  2  0  0  0  0  0  0
  -28.4620  -26.6570   20.1630 O   0  0  0  0  0  0  0  0  0  0  0  0
  -24.6250  -31.8650   23.2150 C   0  0  0  0  0  0  0  0  0  0  0  0
  -27.3200  -27.4290   20.2170 C   0  0  0  0  0  0  0  0  0  0  0  0
  -23.4240  -30.4340   21.5910 C   0  0  0  0  0  3  0  0  0  0  0  0
  -24.8890  -28.8800   20.1960 C   0  0  0  0  0  0  0  0  0  0  0  0
  -25.9390  -30.8190   21.3810 C   0  0  0  0  0  2  0  0  0  0  0  0
  -26.0350  -29.4370   20.7720 C   0  0  0  0  0  0  0  0  0  0  0  0
  -27.2510  -28.7270   20.7780 C   0  0  0  0  0  3  0  0  0  0  0  0
  -26.1550  -26.8810   19.6370 C   0  0  0  0  0  3  0  0  0  0  0  0
  -24.9410  -27.5960   19.6240 C   0  0  0  0  0  3  0  0  0  0  0  0
  -23.6360  -29.7250   20.2240 C   0  0  0  0  0  2  0  0  0  0  0  0
  -24.6810  -31.0530   22.1230 N   0  0  0  0  0  0  0  0  0  0  0  0
  -23.5440  -32.1420   23.7520 O   0  0  0  0  0  0  0  0  0  0  0  0
  -22.7770  -29.4280   22.5680 C   0  0  0  0  0  0  0  0  0  0  0  0
  -21.4530  -29.2430   22.4420 N   0  0  0  0  0  0  0  0  0  0  0  0
  -23.4600  -28.8130   23.3900 O   0  0  0  0  0  0  0  0  0  0  0  0
  -20.9630  -29.7900   21.7480 H   0  0  0  0  0  0  0  0  0  0  0  0
  -18.0750  -28.0770   22.9640 C   0  0  0  0  0  0  0  0  0  0  0  0
  -20.6350  -28.3160   23.2230 C   0  0  0  0  0  3  0  0  0  0  0  0
  -20.7250  -26.8810   22.6550 C   0  0  0  0  0  2  0  0  0  0  0  0
  -19.6150  -26.5590   21.6490 C   0  0  0  0  0  2  0  0  0  0  0  0
  -18.2370  -26.7210   22.2990 C   0  0  0  0  0  2  0  0  0  0  0  0
  -19.2010  -28.8340   23.3840 C   0  0  0  0  0  0  0  0  0  0  0  0
  -18.9970  -30.1050   23.9630 C   0  0  0  0  0  3  0  0  0  0  0  0
  -17.6970  -30.6190   24.1310 C   0  0  0  0  0  3  0  0  0  0  0  0
  -16.5850  -29.8590   23.7280 C   0  0  0  0  0  3  0  0  0  0  0  0
  -16.7740  -28.5900   23.1510 C   0  0  0  0  0  3  0  0  0  0  0  0
  -25.9110  -32.5070   23.8270 C   0  0  0  0  0  3  0  0  0  0  0  0
  -25.5910  -33.8970   24.1690 N   0  0  0  0  0  0  0  0  0  0  0  0
  -25.9110  -34.9580   23.4160 C   0  0  0  0  0  0  0  0  0  0  0  0
  -26.5770  -34.8680   22.3790 O   0  0  0  0  0  0  0  0  0  0  0  0
  -25.0010  -34.0420   24.9750 H   0  0  0  0  0  0  0  0  0  0  0  0
  -24.1640  -36.7330   23.0750 C   0  0  0  0  0  1  0  0  0  0  0  0
  -25.4100  -36.3380   23.8830 C   0  0  0  0  0  3  0  0  0  0  0  0
  -27.5400  -37.2320   24.7140 C   0  0  0  0  0  1  0  0  0  0  0  0
  -26.4310  -37.4020   23.7770 N   0  0  0  0  0  0  0  0  0  0  0  0
  -26.0170  -38.3150   23.9400 H   0  0  0  0  0  0  0  0  0  0  0  0
  -26.4540  -31.7280   25.0870 C   0  0  1  0  0  0  0  0  0  0  0  0
  -25.3710  -31.4360   26.1510 C   0  0  0  0  0  1  0  0  0  0  0  0
  -27.0800  -30.3790   24.6640 C   0  0  0  0  0  1  0  0  0  0  0  0
  -27.5800  -32.5460   25.7630 C   0  0  0  0  0  1  0  0  0  0  0  0
  1 50  1  0
  2  3  1  0
  2  1  1  0
  2  5  1  0
  4  2  1  0
  6  5  1  0
  6  7  1  0
  7  8  1  0
  8  9  1  0
  9 10  1  0
 10 11  1  0
 12 20  1  0
 13 18  1  0
 14 15  1  0
 14 13  1  0
 16 15  1  0
 16 25  1  0
 16 17  1  0
 18 12  1  0
 18 17  1  0
 19 12  2  0
 20 21  1  0
 20 11  1  0
 22 23  2  0
 23 42  1  0
 24 23  1  0
 24 27  1  0
 25 22  1  0
 25 26  1  0
 26 24  2  0
 27 28  1  0
 28 29  2  0
 30 33  1  0
 30 29  1  0
 31 30  2  0
 32 31  1  0
 32 27  2  0
 33 34  1  0
 34 35  1  0
 35 36  2  0
 37 36  1  0
 37 41  1  0
 38 37  2  0
 39 34  2  0
 39 38  1  0
 40 39  1  0
 42 43  1  0
 43 46  1  0
 43 45  1  0
 44 42  2  0
 47 48  1  0
 47 22  1  0
 49 47  1  0
 50 51  1  0
 51 52  1  0
 52 53  1  0
 53 54  1  0
 54 55  1  0
 56 58  1  0
 56 55  1  0
 57 68  2  0
 58 63  1  0
 59 67  1  0
 59 69  1  0
 60 66  1  0
 60 62  1  0
 61 67  1  0
 62 63  2  0
 62 61  1  0
 64 58  2  0
 65 64  1  0
 65 60  2  0
 66 59  1  0
 67 57  1  0
 69 71  2  0
 70 69  1  0
 72 70  1  0
 73 82  2  0
 73 78  1  0
 74 70  1  0
 74 78  1  0
 75 74  1  0
 76 77  1  0
 76 75  1  0
 77 73  1  0
 78 79  2  0
 79 80  1  0
 81 80  2  0
 82 81  1  0
 83 57  1  0
 83 84  1  0
 83 93  1  0
 84 87  1  0
 85 89  1  0
 85 84  1  0
 86 85  2  0
 89 88  1  0
 91 89  1  0
 91 92  1  0
 91 90  1  0
 93 96  1  1
 93 94  1  0
 95 93  1  0
M  ISO  4  12 100  20 100  55 101  56 101
M  END
>  <TORSDO>  (14) 
F 30

>  <SCORE>  (14) 
-10.829

>  <name>  (14) 
15

>  <ligand_id>  (14) 
15

>  <original_smiles>  (14) 
[H]c1c([H])c([H])c2c(c1[H])C([H])([H])C([H])([H])C([H])([H])C2([H])N([H])C(=O)C1([H])N(C(=O)C([H])(N([H])C(=O)C([H])(N([H])C([H])([H])[H])C([H])([H])[H])C(C([H])([H])[H])(C([H])([H])[H])C([H])([H])[H])C([H])([H])c2c([H])c(OC([H])([H])C([H])([H])C([H])([H])C([H])([H])OC([H])([H])C([H])([H])[N+]([H])([H])C([H])([H])C([H])([H])OC([H])([H])C([H])([H])C([H])([H])C([H])([H])N([H])C(=O)N3C([H])([H])C([H])([H])C([H])([H])C([H])(n4nc(-c5c([H])c([H])c(Oc6c([H])c([H])c(F)c([H])c6F)c([H])c5[H])c(C(=O)N([H])[H])c4N([H])[H])C3([H])[H])c([H])c([H])c2C1([H])[H]

>  <smiles>  (14) 
[H]c1c([H])c([H])c2c(c1[H])C([H])([H])C([H])([H])C([H])([H])C2([H])N([H])C(=O)C1([H])N(C(=O)C([H])(N([H])C(=O)C([H])(N([H])C([H])([H])[H])C([H])([H])[H])C(C([H])([H])[H])(C([H])([H])[H])C([H])([H])[H])C([H])([H])c2c([H])c(OC([H])([H])C([H])([H])C([H])([H])C([H])([H])OC([H])([H])C([H])([H])[N+]([H])([H])C([H])([H])C([H])([H])OC([H])([H])C([H])([H])C([H])([H])C([H])([H])N([H])C(=O)N3C([H])([H])C([H])([H])C([H])([H])C([H])(n4nc(-c5c([H])c([H])c(Oc6c([H])c([H])c(F)c([H])c6F)c([H])c5[H])c(C(=O)N([H])[H])c4N([H])[H])C3([H])[H])c([H])c([H])c2C1([H])[H]

$$$$
16:0:0
     RDKit          3D

102109  0  0  1  0  0  0  0  0999 V2000
  -29.5190  -20.1210   23.2550 C   0  0  0  0  0  2  0  0  0  0  0  0
  -29.8920  -19.3700   22.0380 N   0  0  0  0  0  4  0  0  0  0  0  0
  -29.0940  -19.0310   21.5240 H   0  0  0  0  0  0  0  0  0  0  0  0
  -30.3650  -20.0510   21.4530 H   0  0  0  0  0  0  0  0  0  0  0  0
  -30.9620  -18.3620   22.1640 C   0  0  0  0  0  2  0  0  0  0  0  0
  -32.0140  -17.2430   20.0880 C   0  0  0  0  0  0  0  0  0  0  0  0
  -31.7240  -18.3340   20.8440 C   0  0  0  0  0  3  0  0  0  0  0  0
  -32.2960  -14.8270   20.2900 C   0  0  0  0  0  0  0  0  0  0  0  0
  -31.7790  -12.7400   19.1260 C   0  0  0  0  0  2  0  0  0  0  0  0
  -30.8800  -13.0770   17.9170 C   0  0  0  0  0  2  0  0  0  0  0  0
  -29.3950  -13.1000   18.3230 C   0  0  0  0  0  2  0  0  0  0  0  0
  -29.1290  -13.9420   19.5980 C   0  0  0  0  0  3  0  0  0  0  0  0
  -30.1430  -13.5970   20.7150 C   0  0  0  0  0  2  0  0  0  0  0  0
  -31.5010  -13.7360   20.1680 N   0  0  0  0  0  0  0  0  0  0  0  0
  -33.4800  -14.8510   19.9500 O   0  0  0  0  0  0  0  0  0  0  0  0
  -31.6160  -15.9640   20.5140 N   0  0  0  0  0  4  0  0  0  0  0  0
  -30.6770  -15.8710   20.8660 H   0  0  0  0  0  0  0  0  0  0  0  0
  -26.7840  -14.7620   20.2730 C   0  0  0  0  0  0  0  0  0  0  0  0
  -25.6420  -14.0900   20.6110 C   0  0  0  0  0  0  0  0  0  0  0  0
  -25.9770  -12.7020   20.5760 C   0  0  0  0  0  0  0  0  0  0  0  0
  -27.7480  -13.7910   20.0530 N   0  0  0  0  0  0  0  0  0  0  0  0
  -27.2630  -12.5460   20.2910 N   0  0  0  0  0  0  0  0  0  0  0  0
  -25.1350  -11.5080   20.7360 C   0  0  0  0  0  0  0  0  0  0  0  0
  -25.4450  -10.5060   21.6840 C   0  0  0  0  0  3  0  0  0  0  0  0
  -24.6100   -9.3760   21.8300 C   0  0  0  0  0  3  0  0  0  0  0  0
  -23.4510   -9.2410   21.0290 C   0  0  0  0  0  0  0  0  0  0  0  0
  -23.1620  -10.2290   20.0700 C   0  0  0  0  0  3  0  0  0  0  0  0
  -23.9960  -11.3490   19.9220 C   0  0  0  0  0  3  0  0  0  0  0  0
  -22.5990   -8.1660   21.0860 O   0  0  0  0  0  0  0  0  0  0  0  0
  -22.3620   -7.4950   22.2590 C   0  0  0  0  0  0  0  0  0  0  0  0
  -21.8410   -8.1460   23.3980 C   0  0  0  0  0  3  0  0  0  0  0  0
  -21.5430   -7.4020   24.5600 C   0  0  0  0  0  3  0  0  0  0  0  0
  -21.7610   -6.0120   24.5800 C   0  0  0  0  0  0  0  0  0  0  0  0
  -22.2810   -5.3640   23.4470 C   0  0  0  0  0  3  0  0  0  0  0  0
  -22.5770   -6.1040   22.2890 C   0  0  0  0  0  0  0  0  0  0  0  0
  -23.0530   -5.4690   21.1920 F   0  0  0  0  0  0  0  0  0  0  0  0
  -21.4720   -5.2980   25.6930 F   0  0  0  0  0  0  0  0  0  0  0  0
  -24.2870  -14.6920   20.8610 C   0  0  0  0  0  0  0  0  0  0  0  0
  -23.4870  -14.0650   21.7160 N   0  0  0  0  0  0  0  0  0  0  0  0
  -23.9470  -15.7490   20.3330 O   0  0  0  0  0  0  0  0  0  0  0  0
  -23.7730  -13.2110   22.1680 H   0  0  0  0  0  0  0  0  0  0  0  0
  -22.5840  -14.4620   21.9370 H   0  0  0  0  0  0  0  0  0  0  0  0
  -27.0830  -16.1100   20.1090 N   0  0  0  0  0  0  0  0  0  0  0  0
  -26.3740  -16.8330   20.1730 H   0  0  0  0  0  0  0  0  0  0  0  0
  -27.9640  -16.4550   19.7580 H   0  0  0  0  0  0  0  0  0  0  0  0
  -32.7150  -17.4160   18.8020 C   0  0  0  0  0  0  0  0  0  0  0  0
  -32.3860  -16.5230   17.8770 N   0  0  0  0  0  0  0  0  0  0  0  0
  -33.5170  -18.3110   18.5410 O   0  0  0  0  0  0  0  0  0  0  0  0
  -31.6810  -15.8310   18.0720 H   0  0  0  0  0  0  0  0  0  0  0  0
  -32.8510  -16.5280   16.9800 H   0  0  0  0  0  0  0  0  0  0  0  0
  -32.0650  -19.5930   20.5040 O   0  0  0  0  0  0  0  0  0  0  0  0
  -32.5760  -19.5410   19.6980 H   0  0  0  0  0  0  0  0  0  0  0  0
  -29.6100  -21.6150   22.9170 C   0  0  0  0  0  2  0  0  0  0  0  0
  -30.6500  -21.7040   21.9470 O   0  0  0  0  0  0  0  0  0  0  0  0
  -30.8540  -22.9980   21.4050 C   0  0  0  0  0  2  0  0  0  0  0  0
  -31.4630  -22.8000   20.0110 C   0  0  0  0  0  2  0  0  0  0  0  0
  -31.9320  -24.1020   19.3540 C   0  0  0  0  0  2  0  0  0  0  0  0
  -30.8230  -24.9330   19.0400 O   0  0  0  0  0  0  0  0  0  0  0  0
  -31.2460  -26.1650   18.4730 C   0  0  0  0  0  2  0  0  0  0  0  0
  -30.0550  -26.9730   17.9470 C   0  0  0  0  0  2  0  0  0  0  0  0
  -29.2070  -27.6570   19.0310 C   0  0  0  0  0  2  0  0  0  0  0  0
  -27.9660  -26.9690   19.1960 O   0  0  0  0  0  0  0  0  0  0  0  0
  -24.7250  -31.9590   23.1620 C   0  0  0  0  0  0  0  0  0  0  0  0
  -26.8560  -27.7420   19.4670 C   0  0  0  0  0  0  0  0  0  0  0  0
  -23.2890  -30.7460   21.5490 C   0  0  0  0  0  3  0  0  0  0  0  0
  -24.5190  -29.2830   19.8620 C   0  0  0  0  0  0  0  0  0  0  0  0
  -25.7880  -31.0430   21.1090 C   0  0  0  0  0  2  0  0  0  0  0  0
  -25.7460  -29.7270   20.3660 C   0  0  0  0  0  0  0  0  0  0  0  0
  -26.9110  -28.9610   20.1820 C   0  0  0  0  0  3  0  0  0  0  0  0
  -25.6100  -27.2900   18.9870 C   0  0  0  0  0  3  0  0  0  0  0  0
  -24.4410  -28.0560   19.1750 C   0  0  0  0  0  3  0  0  0  0  0  0
  -23.3240  -30.1760   20.1050 C   0  0  0  0  0  2  0  0  0  0  0  0
  -24.6260  -31.2560   21.9990 N   0  0  0  0  0  0  0  0  0  0  0  0
  -23.7200  -32.2240   23.8370 O   0  0  0  0  0  0  0  0  0  0  0  0
  -22.7020  -29.6680   22.4880 C   0  0  0  0  0  0  0  0  0  0  0  0
  -21.3730  -29.4890   22.4300 N   0  0  0  0  0  0  0  0  0  0  0  0
  -23.4340  -29.0000   23.2230 O   0  0  0  0  0  0  0  0  0  0  0  0
  -20.8420  -30.0810   21.8080 H   0  0  0  0  0  0  0  0  0  0  0  0
  -18.0490  -28.1850   22.9680 C   0  0  0  0  0  0  0  0  0  0  0  0
  -20.6030  -28.5080   23.1940 C   0  0  0  0  0  3  0  0  0  0  0  0
  -20.7360  -27.0960   22.5790 C   0  0  0  0  0  2  0  0  0  0  0  0
  -19.6210  -26.7670   21.5790 C   0  0  0  0  0  2  0  0  0  0  0  0
  -18.2500  -26.8550   22.2560 C   0  0  0  0  0  2  0  0  0  0  0  0
  -19.1550  -28.9650   23.3950 C   0  0  0  0  0  0  0  0  0  0  0  0
  -18.9140  -30.2090   24.0210 C   0  0  0  0  0  3  0  0  0  0  0  0
  -17.6020  -30.6690   24.2240 C   0  0  0  0  0  3  0  0  0  0  0  0
  -16.5100  -29.8830   23.8160 C   0  0  0  0  0  3  0  0  0  0  0  0
  -16.7350  -28.6420   23.1930 C   0  0  0  0  0  3  0  0  0  0  0  0
  -26.0980  -32.4870   23.6840 C   0  0  0  0  0  3  0  0  0  0  0  0
  -25.8880  -33.8540   24.1790 N   0  0  0  0  0  0  0  0  0  0  0  0
  -26.1960  -34.9640   23.4950 C   0  0  0  0  0  0  0  0  0  0  0  0
  -26.7640  -34.9400   22.3990 O   0  0  0  0  0  0  0  0  0  0  0  0
  -25.3770  -33.9490   25.0440 H   0  0  0  0  0  0  0  0  0  0  0  0
  -24.5380  -36.8520   23.4630 C   0  0  0  0  0  1  0  0  0  0  0  0
  -25.8160  -36.3160   24.1270 C   0  0  0  0  0  3  0  0  0  0  0  0
  -28.0450  -37.0220   24.8740 C   0  0  0  0  0  1  0  0  0  0  0  0
  -26.8890  -37.3320   24.0380 N   0  0  0  0  0  0  0  0  0  0  0  0
  -26.5390  -38.2470   24.3070 H   0  0  0  0  0  0  0  0  0  0  0  0
  -26.7250  -31.5750   24.8100 C   0  0  1  0  0  0  0  0  0  0  0  0
  -25.7450  -31.2390   25.9580 C   0  0  0  0  0  1  0  0  0  0  0  0
  -27.2300  -30.2420   24.2110 C   0  0  0  0  0  1  0  0  0  0  0  0
  -27.9590  -32.2780   25.4240 C   0  0  0  0  0  1  0  0  0  0  0  0
  2  5  1  0
  2  1  1  0
  3  2  1  0
  4  2  1  0
  6 16  2  0
  6  7  1  0
  7  5  1  0
  8 16  1  0
  9 14  1  0
 10 11  1  0
 10  9  1  0
 12 11  1  0
 12 21  1  0
 12 13  1  0
 14  8  1  0
 14 13  1  0
 15  8  2  0
 16 17  1  0
 18 19  2  0
 19 38  1  0
 20 19  1  0
 20 23  1  0
 21 18  1  0
 21 22  1  0
 22 20  2  0
 23 24  1  0
 24 25  2  0
 26 29  1  0
 26 25  1  0
 27 26  2  0
 28 27  1  0
 28 23  2  0
 29 30  1  0
 30 35  2  0
 30 31  1  0
 31 32  2  0
 32 33  1  0
 33 37  1  0
 34 33  2  0
 35 34  1  0
 36 35  1  0
 38 39  1  0
 39 42  1  0
 39 41  1  0
 40 38  2  0
 43 44  1  0
 43 18  1  0
 45 43  1  0
 46  6  1  0
 47 49  1  0
 47 46  1  0
 48 46  2  0
 50 47  1  0
 51  7  1  0
 52 51  1  0
 53  1  1  0
 54 53  1  0
 55 54  1  0
 56 55  1  0
 57 56  1  0
 58 57  1  0
 59 58  1  0
 60 59  1  0
 60 61  1  0
 61 62  1  0
 62 64  1  0
 63 74  2  0
 64 69  1  0
 65 73  1  0
 65 75  1  0
 66 72  1  0
 66 68  1  0
 67 73  1  0
 68 67  1  0
 69 68  2  0
 70 71  1  0
 70 64  2  0
 71 66  2  0
 72 65  1  0
 73 63  1  0
 75 77  2  0
 76 75  1  0
 78 76  1  0
 79 88  2  0
 79 84  1  0
 80 76  1  0
 80 84  1  0
 81 80  1  0
 82 83  1  0
 82 81  1  0
 83 79  1  0
 84 85  2  0
 85 86  1  0
 87 86  2  0
 88 87  1  0
 89 63  1  0
 89 90  1  0
 89 99  1  0
 90 93  1  0
 91 95  1  0
 91 90  1  0
 92 91  2  0
 95 94  1  0
 97 95  1  0
 97 98  1  0
 97 96  1  0
 99102  1  1
 99100  1  0
101 99  1  0
M  ISO  4   8 100  16 100  61 101  62 101
M  END
>  <TORSDO>  (15) 
F 30

>  <SCORE>  (15) 
-7.400

>  <name>  (15) 
16

>  <ligand_id>  (15) 
16

>  <original_smiles>  (15) 
[H]OC(=C(C(=O)N([H])[H])N([H])C(=O)N1C([H])([H])C([H])([H])C([H])([H])C([H])(n2nc(-c3c([H])c([H])c(Oc4c([H])c([H])c(F)c([H])c4F)c([H])c3[H])c(C(=O)N([H])[H])c2N([H])[H])C1([H])[H])C([H])([H])[N+]([H])([H])C([H])([H])C([H])([H])OC([H])([H])C([H])([H])C([H])([H])OC([H])([H])C([H])([H])C([H])([H])Oc1c([H])c([H])c2c(c1[H])C([H])([H])N(C(=O)C([H])(N([H])C(=O)C([H])(N([H])C([H])([H])[H])C([H])([H])[H])C(C([H])([H])[H])(C([H])([H])[H])C([H])([H])[H])C([H])(C(=O)N([H])C1([H])c3c([H])c([H])c([H])c([H])c3C([H])([H])C([H])([H])C1([H])[H])C2([H])[H]

>  <smiles>  (15) 
[H]OC(=C(C(=O)N([H])[H])N([H])C(=O)N1C([H])([H])C([H])([H])C([H])([H])C([H])(n2nc(-c3c([H])c([H])c(Oc4c([H])c([H])c(F)c([H])c4F)c([H])c3[H])c(C(=O)N([H])[H])c2N([H])[H])C1([H])[H])C([H])([H])[N+]([H])([H])C([H])([H])C([H])([H])OC([H])([H])C([H])([H])C([H])([H])OC([H])([H])C([H])([H])C([H])([H])Oc1c([H])c([H])c2c(c1[H])C([H])([H])N(C(=O)C([H])(N([H])C(=O)C([H])(N([H])C([H])([H])[H])C([H])([H])[H])C(C([H])([H])[H])(C([H])([H])[H])C([H])([H])[H])C([H])(C(=O)N([H])C1([H])c3c([H])c([H])c([H])c([H])c3C([H])([H])C([H])([H])C1([H])[H])C2([H])[H]

$$$$
17:0:0
     RDKit          3D

 96103  0  0  1  0  0  0  0  0999 V2000
  -30.8750  -18.9910   24.1890 C   0  0  0  0  0  2  0  0  0  0  0  0
  -30.9870  -16.6170   23.4890 C   0  0  0  0  0  0  0  0  0  0  0  0
  -31.4950  -17.8550   23.5150 N   0  0  0  0  0  0  0  0  0  0  0  0
  -29.9390  -16.3200   24.0690 O   0  0  0  0  0  0  0  0  0  0  0  0
  -32.3480  -18.0400   23.0030 H   0  0  0  0  0  0  0  0  0  0  0  0
  -31.7490  -15.5400   22.7090 C   0  0  0  0  0  3  0  0  0  0  0  0
  -30.8600  -14.2760   20.7500 C   0  0  0  0  0  0  0  0  0  0  0  0
  -30.3990  -12.2910   19.3710 C   0  0  0  0  0  2  0  0  0  0  0  0
  -29.4600  -12.5490   18.1840 C   0  0  0  0  0  2  0  0  0  0  0  0
  -27.9950  -12.3880   18.6170 C   0  0  0  0  0  2  0  0  0  0  0  0
  -27.6670  -13.2120   19.8870 C   0  0  0  0  0  3  0  0  0  0  0  0
  -28.7120  -12.9800   21.0030 C   0  0  0  0  0  2  0  0  0  0  0  0
  -30.0640  -13.2190   20.4600 N   0  0  0  0  0  0  0  0  0  0  0  0
  -31.7550  -14.6820   20.0020 O   0  0  0  0  0  0  0  0  0  0  0  0
  -30.7730  -14.6960   22.0140 N   0  0  0  0  0  0  0  0  0  0  0  0
  -30.0310  -14.3170   22.5820 H   0  0  0  0  0  0  0  0  0  0  0  0
  -25.2590  -13.8190   20.5710 C   0  0  0  0  0  0  0  0  0  0  0  0
  -24.1850  -13.0460   20.9190 C   0  0  0  0  0  0  0  0  0  0  0  0
  -24.6410  -11.6930   20.8770 C   0  0  0  0  0  0  0  0  0  0  0  0
  -26.3060  -12.9380   20.3480 N   0  0  0  0  0  0  0  0  0  0  0  0
  -25.9350  -11.6530   20.5850 N   0  0  0  0  0  0  0  0  0  0  0  0
  -23.9080  -10.4310   21.0430 C   0  0  0  0  0  0  0  0  0  0  0  0
  -24.3630   -9.4220   21.9210 C   0  0  0  0  0  3  0  0  0  0  0  0
  -23.6300   -8.2250   22.0760 C   0  0  0  0  0  3  0  0  0  0  0  0
  -22.4290   -8.0290   21.3550 C   0  0  0  0  0  0  0  0  0  0  0  0
  -21.9930   -9.0280   20.4660 C   0  0  0  0  0  3  0  0  0  0  0  0
  -22.7250  -10.2160   20.3070 C   0  0  0  0  0  3  0  0  0  0  0  0
  -21.6640   -6.8900   21.4250 O   0  0  0  0  0  0  0  0  0  0  0  0
  -21.6860   -6.0750   22.5290 C   0  0  0  0  0  0  0  0  0  0  0  0
  -21.4030   -6.5650   23.8220 C   0  0  0  0  0  3  0  0  0  0  0  0
  -21.3650   -5.6790   24.9190 C   0  0  0  0  0  3  0  0  0  0  0  0
  -21.6040   -4.3060   24.7230 C   0  0  0  0  0  0  0  0  0  0  0  0
  -21.8820   -3.8160   23.4350 C   0  0  0  0  0  3  0  0  0  0  0  0
  -21.9200   -4.6980   22.3400 C   0  0  0  0  0  0  0  0  0  0  0  0
  -22.1660   -4.2170   21.0990 F   0  0  0  0  0  0  0  0  0  0  0  0
  -21.5620   -3.4540   25.7740 F   0  0  0  0  0  0  0  0  0  0  0  0
  -22.7860  -13.5250   21.1860 C   0  0  0  0  0  0  0  0  0  0  0  0
  -22.0490  -12.8240   22.0410 N   0  0  0  0  0  0  0  0  0  0  0  0
  -22.3550  -14.5570   20.6740 O   0  0  0  0  0  0  0  0  0  0  0  0
  -22.4050  -11.9830   22.4710 H   0  0  0  0  0  0  0  0  0  0  0  0
  -21.1140  -13.1340   22.2710 H   0  0  0  0  0  0  0  0  0  0  0  0
  -25.4320  -15.1910   20.4090 N   0  0  0  0  0  0  0  0  0  0  0  0
  -24.6690  -15.8520   20.5040 H   0  0  0  0  0  0  0  0  0  0  0  0
  -26.2970  -15.6230   20.1070 H   0  0  0  0  0  0  0  0  0  0  0  0
  -32.6480  -14.6350   23.5970 C   0  0  0  0  0  2  0  0  0  0  0  0
  -35.0070  -15.4300   23.0530 C   0  0  0  0  0  1  0  0  0  0  0  0
  -34.4910  -14.5030   25.3430 C   0  0  0  0  0  1  0  0  0  0  0  0
  -33.9340  -15.2940   24.1450 C   0  0  0  0  0  3  0  0  0  0  0  0
  -29.8920  -19.7120   23.2560 C   0  0  0  0  0  2  0  0  0  0  0  0
  -30.6030  -20.4210   22.2480 O   0  0  0  0  0  0  0  0  0  0  0  0
  -29.7320  -21.0080   21.2860 C   0  0  0  0  0  2  0  0  0  0  0  0
  -30.3510  -22.2860   20.6930 C   0  0  0  0  0  2  0  0  0  0  0  0
  -29.2830  -23.1270   20.2640 O   0  0  0  0  0  0  0  0  0  0  0  0
  -29.5880  -24.5200   20.2320 C   0  0  0  0  0  2  0  0  0  0  0  0
  -28.2880  -25.2800   19.9140 C   0  0  0  0  0  2  0  0  0  0  0  0
  -28.4060  -26.6990   20.0980 O   0  0  0  0  0  0  0  0  0  0  0  0
  -24.6160  -31.8650   23.2120 C   0  0  0  0  0  0  0  0  0  0  0  0
  -27.2310  -27.4300   20.0910 C   0  0  0  0  0  0  0  0  0  0  0  0
  -23.4030  -30.4890   21.5570 C   0  0  0  0  0  3  0  0  0  0  0  0
  -24.8470  -28.9580   20.1190 C   0  0  0  0  0  0  0  0  0  0  0  0
  -25.9310  -30.8300   21.3650 C   0  0  0  0  0  2  0  0  0  0  0  0
  -26.0090  -29.4650   20.7110 C   0  0  0  0  0  0  0  0  0  0  0  0
  -27.2030  -28.7090   20.6940 C   0  0  0  0  0  3  0  0  0  0  0  0
  -26.0440  -26.9410   19.4930 C   0  0  0  0  0  3  0  0  0  0  0  0
  -24.8580  -27.6940   19.5090 C   0  0  0  0  0  3  0  0  0  0  0  0
  -23.6080  -29.8240   20.1710 C   0  0  0  0  0  2  0  0  0  0  0  0
  -24.6700  -31.0730   22.1050 N   0  0  0  0  0  0  0  0  0  0  0  0
  -23.5340  -32.1450   23.7500 O   0  0  0  0  0  0  0  0  0  0  0  0
  -22.7410  -29.4620   22.5030 C   0  0  0  0  0  0  0  0  0  0  0  0
  -21.4140  -29.2980   22.3740 N   0  0  0  0  0  0  0  0  0  0  0  0
  -23.4170  -28.8170   23.3080 O   0  0  0  0  0  0  0  0  0  0  0  0
  -20.9310  -29.8740   21.7000 H   0  0  0  0  0  0  0  0  0  0  0  0
  -18.0260  -28.1340   22.8470 C   0  0  0  0  0  0  0  0  0  0  0  0
  -20.5830  -28.3620   23.1320 C   0  0  0  0  0  3  0  0  0  0  0  0
  -20.6750  -26.9350   22.5430 C   0  0  0  0  0  2  0  0  0  0  0  0
  -19.5740  -26.6360   21.5190 C   0  0  0  0  0  2  0  0  0  0  0  0
  -18.1910  -26.7880   22.1600 C   0  0  0  0  0  2  0  0  0  0  0  0
  -19.1510  -28.8800   23.2880 C   0  0  0  0  0  0  0  0  0  0  0  0
  -18.9440  -30.1400   23.8870 C   0  0  0  0  0  3  0  0  0  0  0  0
  -17.6450  -30.6540   24.0530 C   0  0  0  0  0  3  0  0  0  0  0  0
  -16.5340  -29.9040   23.6310 C   0  0  0  0  0  3  0  0  0  0  0  0
  -16.7250  -28.6470   23.0320 C   0  0  0  0  0  3  0  0  0  0  0  0
  -25.9040  -32.4790   23.8430 C   0  0  0  0  0  3  0  0  0  0  0  0
  -25.5880  -33.8600   24.2330 N   0  0  0  0  0  0  0  0  0  0  0  0
  -25.9010  -34.9460   23.5140 C   0  0  0  0  0  0  0  0  0  0  0  0
  -26.5590  -34.8900   22.4720 O   0  0  0  0  0  0  0  0  0  0  0  0
  -24.9880  -33.9730   25.0390 H   0  0  0  0  0  0  0  0  0  0  0  0
  -24.1470  -36.7350   23.2620 C   0  0  0  0  0  1  0  0  0  0  0  0
  -25.4070  -36.3100   24.0320 C   0  0  0  0  0  3  0  0  0  0  0  0
  -27.5560  -37.1810   24.8440 C   0  0  0  0  0  1  0  0  0  0  0  0
  -26.4260  -37.3800   23.9400 N   0  0  0  0  0  0  0  0  0  0  0  0
  -26.0140  -38.2860   24.1420 H   0  0  0  0  0  0  0  0  0  0  0  0
  -26.4460  -31.6570   25.0760 C   0  0  1  0  0  0  0  0  0  0  0  0
  -25.3710  -31.3680   26.1500 C   0  0  0  0  0  1  0  0  0  0  0  0
  -27.0280  -30.2990   24.6170 C   0  0  0  0  0  1  0  0  0  0  0  0
  -27.6060  -32.4260   25.7500 C   0  0  0  0  0  1  0  0  0  0  0  0
  2  3  1  0
  2  4  2  0
  3  1  1  0
  5  3  1  0
  6  2  1  0
  6 45  1  0
  7 15  1  0
  8 13  1  0
  9 10  1  0
  9  8  1  0
 11 10  1  0
 11 20  1  0
 11 12  1  0
 13  7  1  0
 13 12  1  0
 14  7  2  0
 15 16  1  0
 15  6  1  0
 17 18  2  0
 18 37  1  0
 19 18  1  0
 19 22  1  0
 20 17  1  0
 20 21  1  0
 21 19  2  0
 22 23  1  0
 23 24  2  0
 25 28  1  0
 25 24  1  0
 26 25  2  0
 27 26  1  0
 27 22  2  0
 28 29  1  0
 29 30  1  0
 30 31  2  0
 32 31  1  0
 32 36  1  0
 33 32  2  0
 34 29  2  0
 34 33  1  0
 35 34  1  0
 37 38  1  0
 38 41  1  0
 38 40  1  0
 39 37  2  0
 42 43  1  0
 42 17  1  0
 44 42  1  0
 45 48  1  0
 46 48  1  0
 48 47  1  0
 49  1  1  0
 50 49  1  0
 51 50  1  0
 52 51  1  0
 53 52  1  0
 54 53  1  0
 55 56  1  0
 55 54  1  0
 57 68  2  0
 58 56  1  0
 58 63  1  0
 59 67  1  0
 59 69  1  0
 60 66  1  0
 60 62  1  0
 61 67  1  0
 62 61  1  0
 63 62  2  0
 64 65  1  0
 64 58  2  0
 65 60  2  0
 66 59  1  0
 67 57  1  0
 69 71  2  0
 70 69  1  0
 72 70  1  0
 73 82  2  0
 73 78  1  0
 74 70  1  0
 74 78  1  0
 75 74  1  0
 76 77  1  0
 76 75  1  0
 77 73  1  0
 78 79  2  0
 79 80  1  0
 81 80  2  0
 82 81  1  0
 83 57  1  0
 83 84  1  0
 83 93  1  0
 84 87  1  0
 85 89  1  0
 85 84  1  0
 86 85  2  0
 89 88  1  0
 91 89  1  0
 91 92  1  0
 91 90  1  0
 93 96  1  1
 93 94  1  0
 95 93  1  0
M  ISO  4   7 100  15 100  55 101  56 101
M  END
>  <TORSDO>  (16) 
F 27

>  <SCORE>  (16) 
18.486

>  <name>  (16) 
17

>  <ligand_id>  (16) 
17

>  <original_smiles>  (16) 
[H]c1c([H])c([H])c2c(c1[H])C([H])([H])C([H])([H])C([H])([H])C2([H])N([H])C(=O)C1([H])N(C(=O)C([H])(N([H])C(=O)C([H])(N([H])C([H])([H])[H])C([H])([H])[H])C(C([H])([H])[H])(C([H])([H])[H])C([H])([H])[H])C([H])([H])c2c([H])c(OC([H])([H])C([H])([H])OC([H])([H])C([H])([H])OC([H])([H])C([H])([H])N([H])C(=O)C([H])(N([H])C(=O)N3C([H])([H])C([H])([H])C([H])([H])C([H])(n4nc(-c5c([H])c([H])c(Oc6c([H])c([H])c(F)c([H])c6F)c([H])c5[H])c(C(=O)N([H])[H])c4N([H])[H])C3([H])[H])C([H])([H])C([H])(C([H])([H])[H])C([H])([H])[H])c([H])c([H])c2C1([H])[H]

>  <smiles>  (16) 
[H]c1c([H])c([H])c2c(c1[H])C([H])([H])C([H])([H])C([H])([H])C2([H])N([H])C(=O)C1([H])N(C(=O)C([H])(N([H])C(=O)C([H])(N([H])C([H])([H])[H])C([H])([H])[H])C(C([H])([H])[H])(C([H])([H])[H])C([H])([H])[H])C([H])([H])c2c([H])c(OC([H])([H])C([H])([H])OC([H])([H])C([H])([H])OC([H])([H])C([H])([H])N([H])C(=O)C([H])(N([H])C(=O)N3C([H])([H])C([H])([H])C([H])([H])C([H])(n4nc(-c5c([H])c([H])c(Oc6c([H])c([H])c(F)c([H])c6F)c([H])c5[H])c(C(=O)N([H])[H])c4N([H])[H])C3([H])[H])C([H])([H])C([H])(C([H])([H])[H])C([H])([H])[H])c([H])c([H])c2C1([H])[H]

$$$$
18:0:0
     RDKit          3D

107115  0  0  1  0  0  0  0  0999 V2000
  -29.1290  -21.4410   19.2620 C   0  0  0  0  0  0  0  0  0  0  0  0
  -28.9650  -22.6690   18.7360 N   0  0  0  0  0  0  0  0  0  0  0  0
  -29.0370  -20.4200   18.5800 O   0  0  0  0  0  0  0  0  0  0  0  0
  -28.9040  -23.4400   19.3860 H   0  0  0  0  0  0  0  0  0  0  0  0
  -27.1540  -22.8190   17.0750 C   0  0  0  0  0  1  0  0  0  0  0  0
  -28.6700  -22.9300   17.3200 C   0  0  0  0  0  3  0  0  0  0  0  0
  -29.2050  -24.2990   16.8090 C   0  0  0  0  0  2  0  0  0  0  0  0
  -30.6600  -24.7480   17.1530 C   0  0  0  0  0  3  0  0  0  0  0  0
  -30.7320  -25.5030   18.4280 N   0  0  0  0  0  4  0  0  0  0  0  0
  -30.1570  -25.0510   19.1180 H   0  0  0  0  0  0  0  0  0  0  0  0
  -31.6860  -25.4160   18.7500 H   0  0  0  0  0  0  0  0  0  0  0  0
  -30.3560  -26.9340   18.3230 C   0  0  0  0  0  2  0  0  0  0  0  0
  -29.7210  -27.4620   19.6180 C   0  0  0  0  0  2  0  0  0  0  0  0
  -28.5010  -26.7400   19.8230 O   0  0  0  0  0  0  0  0  0  0  0  0
  -24.6030  -31.7030   23.2050 C   0  0  0  0  0  0  0  0  0  0  0  0
  -27.3330  -27.4630   19.9410 C   0  0  0  0  0  0  0  0  0  0  0  0
  -23.4060  -30.3290   21.5280 C   0  0  0  0  0  3  0  0  0  0  0  0
  -24.8820  -28.8660   20.0460 C   0  0  0  0  0  0  0  0  0  0  0  0
  -25.9170  -30.7580   21.3150 C   0  0  0  0  0  2  0  0  0  0  0  0
  -26.0280  -29.4100   20.6400 C   0  0  0  0  0  0  0  0  0  0  0  0
  -27.2520  -28.7120   20.5990 C   0  0  0  0  0  3  0  0  0  0  0  0
  -26.1660  -26.9130   19.3750 C   0  0  0  0  0  3  0  0  0  0  0  0
  -24.9410  -27.6090   19.4210 C   0  0  0  0  0  3  0  0  0  0  0  0
  -23.6170  -29.6910   20.1270 C   0  0  0  0  0  2  0  0  0  0  0  0
  -24.6590  -30.9450   22.0750 N   0  0  0  0  0  0  0  0  0  0  0  0
  -23.5230  -31.9360   23.7660 O   0  0  0  0  0  0  0  0  0  0  0  0
  -22.7890  -29.2670   22.4630 C   0  0  0  0  0  0  0  0  0  0  0  0
  -21.4740  -29.0340   22.3150 N   0  0  0  0  0  0  0  0  0  0  0  0
  -23.4870  -28.6570   23.2770 O   0  0  0  0  0  0  0  0  0  0  0  0
  -20.9730  -29.5830   21.6300 H   0  0  0  0  0  0  0  0  0  0  0  0
  -18.1570  -27.6660   22.7040 C   0  0  0  0  0  0  0  0  0  0  0  0
  -20.6870  -28.0510   23.0580 C   0  0  0  0  0  3  0  0  0  0  0  0
  -20.8800  -26.6300   22.4810 C   0  0  0  0  0  2  0  0  0  0  0  0
  -19.8260  -26.2590   21.4320 C   0  0  0  0  0  2  0  0  0  0  0  0
  -18.4210  -26.3300   22.0320 C   0  0  0  0  0  2  0  0  0  0  0  0
  -19.2210  -28.4800   23.1740 C   0  0  0  0  0  0  0  0  0  0  0  0
  -18.9190  -29.7290   23.7600 C   0  0  0  0  0  3  0  0  0  0  0  0
  -17.5870  -30.1630   23.8860 C   0  0  0  0  0  3  0  0  0  0  0  0
  -16.5370  -29.3460   23.4340 C   0  0  0  0  0  3  0  0  0  0  0  0
  -16.8230  -28.1000   22.8480 C   0  0  0  0  0  3  0  0  0  0  0  0
  -25.8860  -32.3370   23.8320 C   0  0  0  0  0  3  0  0  0  0  0  0
  -25.5710  -33.7300   24.1730 N   0  0  0  0  0  0  0  0  0  0  0  0
  -25.9040  -34.7880   23.4240 C   0  0  0  0  0  0  0  0  0  0  0  0
  -26.5810  -34.6960   22.3970 O   0  0  0  0  0  0  0  0  0  0  0  0
  -24.9710  -33.8740   24.9720 H   0  0  0  0  0  0  0  0  0  0  0  0
  -24.1710  -36.5720   23.0680 C   0  0  0  0  0  1  0  0  0  0  0  0
  -25.4060  -36.1690   23.8880 C   0  0  0  0  0  3  0  0  0  0  0  0
  -27.5300  -37.0550   24.7420 C   0  0  0  0  0  1  0  0  0  0  0  0
  -26.4340  -37.2280   23.7930 N   0  0  0  0  0  0  0  0  0  0  0  0
  -26.0240  -38.1450   23.9460 H   0  0  0  0  0  0  0  0  0  0  0  0
  -26.4090  -31.5570   25.1010 C   0  0  1  0  0  0  0  0  0  0  0  0
  -25.3180  -31.3000   26.1660 C   0  0  0  0  0  1  0  0  0  0  0  0
  -27.0070  -30.1910   24.6900 C   0  0  0  0  0  1  0  0  0  0  0  0
  -27.5510  -32.3570   25.7710 C   0  0  0  0  0  1  0  0  0  0  0  0
  -31.6590  -23.5800   17.2480 C   0  0  0  0  0  0  0  0  0  0  0  0
  -31.9220  -22.7810   15.9780 C   0  0  0  0  0  1  0  0  0  0  0  0
  -32.2310  -23.2650   18.2960 O   0  0  0  0  0  0  0  0  0  0  0  0
  -29.3790  -21.3260   20.7740 C   0  0  0  0  0  3  0  0  0  0  0  0
  -28.3080  -20.5060   21.3570 N   0  0  0  0  0  4  0  0  0  0  0  0
  -28.3400  -19.5940   20.9340 H   0  0  0  0  0  0  0  0  0  0  0  0
  -27.4170  -20.9160   21.1390 H   0  0  0  0  0  0  0  0  0  0  0  0
  -28.4010  -20.4280   22.3530 H   0  0  0  0  0  0  0  0  0  0  0  0
  -30.7880  -20.7680   21.1270 C   0  0  0  0  0  2  0  0  0  0  0  0
  -30.4730  -18.4470   22.1260 C   0  0  0  0  0  3  0  0  0  0  0  0
  -31.6280  -18.6330   19.9920 C   0  0  0  0  0  3  0  0  0  0  0  0
  -30.5660  -17.0450   22.0550 C   0  0  0  0  0  3  0  0  0  0  0  0
  -31.7270  -17.2270   19.9210 C   0  0  0  0  0  3  0  0  0  0  0  0
  -30.9680  -19.2500   21.0770 C   0  0  0  0  0  0  0  0  0  0  0  0
  -31.1670  -16.4200   20.9430 C   0  0  0  0  0  0  0  0  0  0  0  0
  -31.5250  -14.1630   19.9460 C   0  0  0  0  0  0  0  0  0  0  0  0
  -30.9710  -12.0650   18.7650 C   0  0  0  0  0  2  0  0  0  0  0  0
  -29.9750  -12.3440   17.6220 C   0  0  0  0  0  2  0  0  0  0  0  0
  -28.5240  -12.3190   18.1390 C   0  0  0  0  0  2  0  0  0  0  0  0
  -28.3310  -13.1930   19.4070 C   0  0  0  0  0  3  0  0  0  0  0  0
  -29.4190  -12.8700   20.4540 C   0  0  0  0  0  2  0  0  0  0  0  0
  -30.7450  -13.0550   19.8280 N   0  0  0  0  0  0  0  0  0  0  0  0
  -32.5310  -14.3550   19.2560 O   0  0  0  0  0  0  0  0  0  0  0  0
  -31.1370  -14.9980   20.9210 N   0  0  0  0  0  0  0  0  0  0  0  0
  -30.4460  -14.5850   21.5290 H   0  0  0  0  0  0  0  0  0  0  0  0
  -26.0450  -14.0050   20.2800 C   0  0  0  0  0  0  0  0  0  0  0  0
  -24.9340  -13.3250   20.7030 C   0  0  0  0  0  0  0  0  0  0  0  0
  -25.2620  -11.9390   20.6110 C   0  0  0  0  0  0  0  0  0  0  0  0
  -26.9870  -13.0380   19.9620 N   0  0  0  0  0  0  0  0  0  0  0  0
  -26.5190  -11.7880   20.2160 N   0  0  0  0  0  0  0  0  0  0  0  0
  -24.4350  -10.7440   20.8220 C   0  0  0  0  0  0  0  0  0  0  0  0
  -24.7930   -9.7560   21.7660 C   0  0  0  0  0  3  0  0  0  0  0  0
  -23.9720   -8.6250   21.9640 C   0  0  0  0  0  3  0  0  0  0  0  0
  -22.7800   -8.4730   21.2170 C   0  0  0  0  0  0  0  0  0  0  0  0
  -22.4410   -9.4480   20.2620 C   0  0  0  0  0  3  0  0  0  0  0  0
  -23.2600  -10.5710   20.0640 C   0  0  0  0  0  3  0  0  0  0  0  0
  -21.9340   -7.3950   21.3230 O   0  0  0  0  0  0  0  0  0  0  0  0
  -21.7760   -6.7180   22.5060 C   0  0  0  0  0  0  0  0  0  0  0  0
  -21.3450   -7.3680   23.6830 C   0  0  0  0  0  3  0  0  0  0  0  0
  -21.1280   -6.6220   24.8590 C   0  0  0  0  0  3  0  0  0  0  0  0
  -21.3300   -5.2280   24.8580 C   0  0  0  0  0  0  0  0  0  0  0  0
  -21.7540   -4.5790   23.6850 C   0  0  0  0  0  3  0  0  0  0  0  0
  -21.9720   -5.3230   22.5120 C   0  0  0  0  0  0  0  0  0  0  0  0
  -22.3600   -4.6900   21.3770 F   0  0  0  0  0  0  0  0  0  0  0  0
  -21.1140   -4.5110   25.9840 F   0  0  0  0  0  0  0  0  0  0  0  0
  -23.6090  -13.9220   21.0810 C   0  0  0  0  0  0  0  0  0  0  0  0
  -22.8890  -13.2870   21.9990 N   0  0  0  0  0  0  0  0  0  0  0  0
  -23.2240  -14.9850   20.5950 O   0  0  0  0  0  0  0  0  0  0  0  0
  -23.2140  -12.4240   22.4120 H   0  0  0  0  0  0  0  0  0  0  0  0
  -22.0000  -13.6680   22.2940 H   0  0  0  0  0  0  0  0  0  0  0  0
  -26.3280  -15.3580   20.1240 N   0  0  0  0  0  0  0  0  0  0  0  0
  -25.6350  -16.0790   20.2960 H   0  0  0  0  0  0  0  0  0  0  0  0
  -27.2010  -15.7230   19.7620 H   0  0  0  0  0  0  0  0  0  0  0  0
  1 58  1  0
  2  1  1  0
  2  4  1  0
  3  1  2  0
  6  5  1  0
  6  2  1  0
  7  6  1  0
  8  7  1  0
  8 55  1  0
  8  9  1  0
  9 11  1  0
  9 10  1  0
 12  9  1  0
 12 13  1  0
 13 14  1  0
 14 16  1  0
 15 26  2  0
 16 21  1  0
 17 25  1  0
 17 27  1  0
 18 24  1  0
 18 20  1  0
 19 25  1  0
 20 19  1  0
 21 20  2  0
 22 23  1  0
 22 16  2  0
 23 18  2  0
 24 17  1  0
 25 15  1  0
 27 29  2  0
 28 27  1  0
 30 28  1  0
 31 40  2  0
 31 36  1  0
 32 28  1  0
 32 36  1  0
 33 32  1  0
 34 35  1  0
 34 33  1  0
 35 31  1  0
 36 37  2  0
 37 38  1  0
 39 38  2  0
 40 39  1  0
 41 15  1  0
 41 42  1  0
 41 51  1  0
 42 45  1  0
 43 47  1  0
 43 42  1  0
 44 43  2  0
 47 46  1  0
 49 47  1  0
 49 50  1  0
 49 48  1  0
 51 54  1  1
 51 52  1  0
 53 51  1  0
 55 57  2  0
 56 55  1  0
 58 63  1  0
 58 59  1  0
 59 62  1  0
 60 59  1  0
 61 59  1  0
 65 68  1  0
 66 64  1  0
 67 65  2  0
 67 69  1  0
 68 63  1  0
 68 64  2  0
 69 66  2  0
 70 78  1  0
 71 76  1  0
 72 73  1  0
 72 71  1  0
 74 73  1  0
 74 83  1  0
 74 75  1  0
 76 70  1  0
 76 75  1  0
 77 70  2  0
 78 69  1  0
 78 79  1  0
 80 81  2  0
 81100  1  0
 82 81  1  0
 82 85  1  0
 83 84  1  0
 83 80  1  0
 84 82  2  0
 85 86  1  0
 86 87  2  0
 88 91  1  0
 88 87  1  0
 89 88  2  0
 90 89  1  0
 90 85  2  0
 91 92  1  0
 92 97  2  0
 92 93  1  0
 93 94  2  0
 95 94  1  0
 95 99  1  0
 96 95  2  0
 97 96  1  0
 98 97  1  0
100101  1  0
101104  1  0
101103  1  0
102100  2  0
105 80  1  0
105106  1  0
107105  1  0
M  ISO  4  13 101  14 101  70 100  78 100
M  END
>  <TORSDO>  (17) 
F 27

>  <SCORE>  (17) 
-10.738

>  <name>  (17) 
18

>  <ligand_id>  (17) 
18

>  <original_smiles>  (17) 
[H]c1c([H])c([H])c2c(c1[H])C([H])([H])C([H])([H])C([H])([H])C2([H])N([H])C(=O)C1([H])N(C(=O)C([H])(N([H])C(=O)C([H])(N([H])C([H])([H])[H])C([H])([H])[H])C(C([H])([H])[H])(C([H])([H])[H])C([H])([H])[H])C([H])([H])c2c([H])c(OC([H])([H])C([H])([H])[N+]([H])([H])C([H])(C(=O)C([H])([H])[H])C([H])([H])C([H])(N([H])C(=O)C([H])(C([H])([H])c3c([H])c([H])c(N([H])C(=O)N4C([H])([H])C([H])([H])C([H])([H])C([H])(n5nc(-c6c([H])c([H])c(Oc7c([H])c([H])c(F)c([H])c7F)c([H])c6[H])c(C(=O)N([H])[H])c5N([H])[H])C4([H])[H])c([H])c3[H])[N+]([H])([H])[H])C([H])([H])[H])c([H])c([H])c2C1([H])[H]

>  <smiles>  (17) 
[H]c1c([H])c([H])c2c(c1[H])C([H])([H])C([H])([H])C([H])([H])C2([H])N([H])C(=O)C1([H])N(C(=O)C([H])(N([H])C(=O)C([H])(N([H])C([H])([H])[H])C([H])([H])[H])C(C([H])([H])[H])(C([H])([H])[H])C([H])([H])[H])C([H])([H])c2c([H])c(OC([H])([H])C([H])([H])[N+]([H])([H])C([H])(C(=O)C([H])([H])[H])C([H])([H])C([H])(N([H])C(=O)C([H])(C([H])([H])c3c([H])c([H])c(N([H])C(=O)N4C([H])([H])C([H])([H])C([H])([H])C([H])(n5nc(-c6c([H])c([H])c(Oc7c([H])c([H])c(F)c([H])c7F)c([H])c6[H])c(C(=O)N([H])[H])c5N([H])[H])C4([H])[H])c([H])c3[H])[N+]([H])([H])[H])C([H])([H])[H])c([H])c([H])c2C1([H])[H]

$$$$
19:0:0
     RDKit          3D

103110  0  0  1  0  0  0  0  0999 V2000
  -23.0710  -24.0880   16.9640 C   0  0  0  0  0  2  0  0  0  0  0  0
  -23.4960  -22.7680   17.2630 O   0  0  0  0  0  0  0  0  0  0  0  0
  -24.3130  -22.1710   16.2700 C   0  0  0  0  0  2  0  0  0  0  0  0
  -24.7610  -20.8080   16.8160 C   0  0  0  0  0  2  0  0  0  0  0  0
  -25.8730  -20.9950   17.6890 O   0  0  0  0  0  0  0  0  0  0  0  0
  -26.1050  -19.9010   18.5690 C   0  0  0  0  0  2  0  0  0  0  0  0
  -27.5570  -19.9400   19.0820 C   0  0  0  0  0  2  0  0  0  0  0  0
  -27.8570  -18.8130   20.0900 C   0  0  0  0  0  2  0  0  0  0  0  0
  -29.2880  -18.7160   20.4640 N   0  0  0  0  0  4  0  0  0  0  0  0
  -29.8340  -18.6140   19.6250 H   0  0  0  0  0  0  0  0  0  0  0  0
  -29.5860  -19.5630   20.9230 H   0  0  0  0  0  0  0  0  0  0  0  0
  -29.5780  -17.5660   21.3520 C   0  0  0  0  0  2  0  0  0  0  0  0
  -31.0750  -17.1940   21.3770 C   0  0  0  0  0  2  0  0  0  0  0  0
  -31.3670  -15.8440   22.0690 C   0  0  0  0  0  2  0  0  0  0  0  0
  -30.9050  -14.1240   20.3000 C   0  0  0  0  0  0  0  0  0  0  0  0
  -30.3620  -12.1700   18.8930 C   0  0  0  0  0  2  0  0  0  0  0  0
  -29.3660  -12.5050   17.7690 C   0  0  0  0  0  2  0  0  0  0  0  0
  -27.9180  -12.3840   18.2780 C   0  0  0  0  0  2  0  0  0  0  0  0
  -27.6870  -13.1600   19.6000 C   0  0  0  0  0  3  0  0  0  0  0  0
  -28.7790  -12.8120   20.6350 C   0  0  0  0  0  2  0  0  0  0  0  0
  -30.1030  -13.0620   20.0320 N   0  0  0  0  0  0  0  0  0  0  0  0
  -31.8460  -14.4730   19.5830 O   0  0  0  0  0  0  0  0  0  0  0  0
  -30.6450  -14.7230   21.4700 N   0  0  0  0  0  0  0  0  0  0  0  0
  -29.8920  -14.3190   22.0090 H   0  0  0  0  0  0  0  0  0  0  0  0
  -25.3320  -13.8230   20.4160 C   0  0  0  0  0  0  0  0  0  0  0  0
  -24.2610  -13.0760   20.8220 C   0  0  0  0  0  0  0  0  0  0  0  0
  -24.6820  -11.7120   20.7490 C   0  0  0  0  0  0  0  0  0  0  0  0
  -26.3450  -12.9200   20.1290 N   0  0  0  0  0  0  0  0  0  0  0  0
  -25.9560  -11.6430   20.3830 N   0  0  0  0  0  0  0  0  0  0  0  0
  -23.9330  -10.4670   20.9560 C   0  0  0  0  0  0  0  0  0  0  0  0
  -24.3600   -9.4910   21.8840 C   0  0  0  0  0  3  0  0  0  0  0  0
  -23.6120   -8.3100   22.0770 C   0  0  0  0  0  3  0  0  0  0  0  0
  -22.4240   -8.0940   21.3410 C   0  0  0  0  0  0  0  0  0  0  0  0
  -22.0150   -9.0570   20.4010 C   0  0  0  0  0  3  0  0  0  0  0  0
  -22.7630  -10.2310   20.2060 C   0  0  0  0  0  3  0  0  0  0  0  0
  -21.6480   -6.9640   21.4410 O   0  0  0  0  0  0  0  0  0  0  0  0
  -21.5800   -6.2390   22.6040 C   0  0  0  0  0  0  0  0  0  0  0  0
  -21.1560   -6.8190   23.8200 C   0  0  0  0  0  3  0  0  0  0  0  0
  -21.0350   -6.0220   24.9750 C   0  0  0  0  0  3  0  0  0  0  0  0
  -21.3270   -4.6460   24.9170 C   0  0  0  0  0  0  0  0  0  0  0  0
  -21.7440   -4.0650   23.7070 C   0  0  0  0  0  3  0  0  0  0  0  0
  -21.8680   -4.8600   22.5530 C   0  0  0  0  0  0  0  0  0  0  0  0
  -22.2490   -4.2920   21.3840 F   0  0  0  0  0  0  0  0  0  0  0  0
  -21.2030   -3.8790   26.0250 F   0  0  0  0  0  0  0  0  0  0  0  0
  -22.8900  -13.5830   21.1640 C   0  0  0  0  0  0  0  0  0  0  0  0
  -22.1840  -12.8930   22.0520 N   0  0  0  0  0  0  0  0  0  0  0  0
  -22.4570  -14.6290   20.6800 O   0  0  0  0  0  0  0  0  0  0  0  0
  -22.5460  -12.0460   22.4630 H   0  0  0  0  0  0  0  0  0  0  0  0
  -21.2660  -13.2170   22.3240 H   0  0  0  0  0  0  0  0  0  0  0  0
  -25.5250  -15.1920   20.2480 N   0  0  0  0  0  0  0  0  0  0  0  0
  -24.7770  -15.8600   20.3890 H   0  0  0  0  0  0  0  0  0  0  0  0
  -26.3640  -15.6050   19.8650 H   0  0  0  0  0  0  0  0  0  0  0  0
  -22.1270  -24.5570   18.0890 C   0  0  0  0  0  2  0  0  0  0  0  0
  -22.8400  -24.7770   19.3760 N   0  0  0  0  0  4  0  0  0  0  0  0
  -23.7200  -25.2380   19.1990 H   0  0  0  0  0  0  0  0  0  0  0  0
  -22.2830  -25.3980   19.9430 H   0  0  0  0  0  0  0  0  0  0  0  0
  -23.1170  -23.5610   20.1820 C   0  0  0  0  0  2  0  0  0  0  0  0
  -24.3060  -23.7600   21.1330 C   0  0  0  0  0  2  0  0  0  0  0  0
  -25.4920  -24.0000   20.3810 O   0  0  0  0  0  0  0  0  0  0  0  0
  -26.5870  -24.3340   21.2280 C   0  0  0  0  0  2  0  0  0  0  0  0
  -27.8750  -24.5770   20.4200 C   0  0  0  0  0  2  0  0  0  0  0  0
  -28.6490  -25.8420   20.8450 C   0  0  0  0  0  2  0  0  0  0  0  0
  -28.4910  -26.8900   19.8960 O   0  0  0  0  0  0  0  0  0  0  0  0
  -24.6650  -31.7920   23.3140 C   0  0  0  0  0  0  0  0  0  0  0  0
  -27.3070  -27.5740   19.9790 C   0  0  0  0  0  0  0  0  0  0  0  0
  -23.4530  -30.4960   21.5880 C   0  0  0  0  0  3  0  0  0  0  0  0
  -24.9060  -29.0520   20.0680 C   0  0  0  0  0  0  0  0  0  0  0  0
  -25.9750  -30.8660   21.4150 C   0  0  0  0  0  2  0  0  0  0  0  0
  -26.0570  -29.5380   20.7010 C   0  0  0  0  0  0  0  0  0  0  0  0
  -27.2580  -28.8040   20.6610 C   0  0  0  0  0  3  0  0  0  0  0  0
  -26.1480  -27.0960   19.3280 C   0  0  0  0  0  3  0  0  0  0  0  0
  -24.9470  -27.8310   19.3710 C   0  0  0  0  0  3  0  0  0  0  0  0
  -23.6560  -29.8960   20.1690 C   0  0  0  0  0  2  0  0  0  0  0  0
  -24.7170  -31.0620   22.1660 N   0  0  0  0  0  0  0  0  0  0  0  0
  -23.5870  -32.0300   23.8730 O   0  0  0  0  0  0  0  0  0  0  0  0
  -22.8070  -29.4190   22.4880 C   0  0  0  0  0  0  0  0  0  0  0  0
  -21.4930  -29.2020   22.3120 N   0  0  0  0  0  0  0  0  0  0  0  0
  -23.4850  -28.7840   23.3000 O   0  0  0  0  0  0  0  0  0  0  0  0
  -21.0120  -29.7430   21.6070 H   0  0  0  0  0  0  0  0  0  0  0  0
  -18.1400  -27.9050   22.6570 C   0  0  0  0  0  0  0  0  0  0  0  0
  -20.6810  -28.2270   23.0380 C   0  0  0  0  0  3  0  0  0  0  0  0
  -20.8450  -26.8150   22.4350 C   0  0  0  0  0  2  0  0  0  0  0  0
  -19.7910  -26.4750   21.3740 C   0  0  0  0  0  2  0  0  0  0  0  0
  -18.3730  -26.5830   21.9420 C   0  0  0  0  0  2  0  0  0  0  0  0
  -19.2210  -28.6840   23.1540 C   0  0  0  0  0  0  0  0  0  0  0  0
  -18.9420  -29.9220   23.7740 C   0  0  0  0  0  3  0  0  0  0  0  0
  -17.6150  -30.3790   23.9100 C   0  0  0  0  0  3  0  0  0  0  0  0
  -16.5510  -29.5960   23.4290 C   0  0  0  0  0  3  0  0  0  0  0  0
  -16.8150  -28.3600   22.8130 C   0  0  0  0  0  3  0  0  0  0  0  0
  -25.9550  -32.3840   23.9620 C   0  0  0  0  0  3  0  0  0  0  0  0
  -25.6680  -33.7770   24.3300 N   0  0  0  0  0  0  0  0  0  0  0  0
  -26.0290  -34.8450   23.6060 C   0  0  0  0  0  0  0  0  0  0  0  0
  -26.7080  -34.7590   22.5780 O   0  0  0  0  0  0  0  0  0  0  0  0
  -25.0800  -33.9180   25.1370 H   0  0  0  0  0  0  0  0  0  0  0  0
  -24.3340  -36.6740   23.2810 C   0  0  0  0  0  1  0  0  0  0  0  0
  -25.5560  -36.2270   24.0990 C   0  0  0  0  0  3  0  0  0  0  0  0
  -27.6930  -37.0550   24.9840 C   0  0  0  0  0  1  0  0  0  0  0  0
  -26.6050  -37.2670   24.0330 N   0  0  0  0  0  0  0  0  0  0  0  0
  -26.2100  -38.1890   24.2010 H   0  0  0  0  0  0  0  0  0  0  0  0
  -26.4490  -31.5640   25.2160 C   0  0  1  0  0  0  0  0  0  0  0  0
  -25.3440  -31.3040   26.2640 C   0  0  0  0  0  1  0  0  0  0  0  0
  -27.0180  -30.1940   24.7790 C   0  0  0  0  0  1  0  0  0  0  0  0
  -27.6050  -32.3160   25.9140 C   0  0  0  0  0  1  0  0  0  0  0  0
  1  2  1  0
  1 53  1  0
  3  4  1  0
  3  2  1  0
  4  5  1  0
  5  6  1  0
  6  7  1  0
  7  8  1  0
  8  9  1  0
  9 11  1  0
  9 12  1  0
 10  9  1  0
 12 13  1  0
 13 14  1  0
 15 23  1  0
 16 21  1  0
 17 18  1  0
 17 16  1  0
 19 18  1  0
 19 28  1  0
 19 20  1  0
 21 15  1  0
 21 20  1  0
 22 15  2  0
 23 24  1  0
 23 14  1  0
 25 26  2  0
 26 45  1  0
 27 26  1  0
 27 30  1  0
 28 29  1  0
 28 25  1  0
 29 27  2  0
 30 31  1  0
 31 32  2  0
 33 36  1  0
 33 32  1  0
 34 33  2  0
 35 34  1  0
 35 30  2  0
 36 37  1  0
 37 38  1  0
 38 39  2  0
 40 39  1  0
 40 44  1  0
 41 40  2  0
 42 37  2  0
 42 41  1  0
 43 42  1  0
 45 46  1  0
 46 49  1  0
 46 48  1  0
 47 45  2  0
 50 51  1  0
 50 25  1  0
 52 50  1  0
 53 54  1  0
 54 56  1  0
 54 57  1  0
 55 54  1  0
 57 58  1  0
 59 58  1  0
 59 60  1  0
 61 62  1  0
 61 60  1  0
 63 65  1  0
 63 62  1  0
 64 75  2  0
 65 70  1  0
 66 74  1  0
 66 76  1  0
 67 73  1  0
 67 69  1  0
 68 74  1  0
 69 68  1  0
 70 69  2  0
 71 72  1  0
 71 65  2  0
 72 67  2  0
 73 66  1  0
 74 64  1  0
 76 78  2  0
 77 76  1  0
 79 77  1  0
 80 89  2  0
 80 85  1  0
 81 77  1  0
 81 85  1  0
 82 81  1  0
 83 84  1  0
 83 82  1  0
 84 80  1  0
 85 86  2  0
 86 87  1  0
 88 87  2  0
 89 88  1  0
 90 64  1  0
 90 91  1  0
 90100  1  0
 91 94  1  0
 92 96  1  0
 92 91  1  0
 93 92  2  0
 96 95  1  0
 98 96  1  0
 98 99  1  0
 98 97  1  0
100103  1  1
100101  1  0
102100  1  0
M  ISO  4  15 100  23 100  62 101  63 101
M  END
>  <TORSDO>  (18) 
F 35

>  <SCORE>  (18) 
-9.473

>  <name>  (18) 
19

>  <ligand_id>  (18) 
19

>  <original_smiles>  (18) 
[H]c1c([H])c([H])c2c(c1[H])C([H])([H])C([H])([H])C([H])([H])C2([H])N([H])C(=O)C1([H])N(C(=O)C([H])(N([H])C(=O)C([H])(N([H])C([H])([H])[H])C([H])([H])[H])C(C([H])([H])[H])(C([H])([H])[H])C([H])([H])[H])C([H])([H])c2c([H])c(OC([H])([H])C([H])([H])C([H])([H])OC([H])([H])C([H])([H])[N+]([H])([H])C([H])([H])C([H])([H])OC([H])([H])C([H])([H])OC([H])([H])C([H])([H])C([H])([H])[N+]([H])([H])C([H])([H])C([H])([H])C([H])([H])N([H])C(=O)N3C([H])([H])C([H])([H])C([H])([H])C([H])(n4nc(-c5c([H])c([H])c(Oc6c([H])c([H])c(F)c([H])c6F)c([H])c5[H])c(C(=O)N([H])[H])c4N([H])[H])C3([H])[H])c([H])c([H])c2C1([H])[H]

>  <smiles>  (18) 
[H]c1c([H])c([H])c2c(c1[H])C([H])([H])C([H])([H])C([H])([H])C2([H])N([H])C(=O)C1([H])N(C(=O)C([H])(N([H])C(=O)C([H])(N([H])C([H])([H])[H])C([H])([H])[H])C(C([H])([H])[H])(C([H])([H])[H])C([H])([H])[H])C([H])([H])c2c([H])c(OC([H])([H])C([H])([H])C([H])([H])OC([H])([H])C([H])([H])[N+]([H])([H])C([H])([H])C([H])([H])OC([H])([H])C([H])([H])OC([H])([H])C([H])([H])C([H])([H])[N+]([H])([H])C([H])([H])C([H])([H])C([H])([H])N([H])C(=O)N3C([H])([H])C([H])([H])C([H])([H])C([H])(n4nc(-c5c([H])c([H])c(Oc6c([H])c([H])c(F)c([H])c6F)c([H])c5[H])c(C(=O)N([H])[H])c4N([H])[H])C3([H])[H])c([H])c([H])c2C1([H])[H]

$$$$
20:0:0
     RDKit          3D

103110  0  0  1  0  0  0  0  0999 V2000
  -31.4750  -22.5780   21.2010 N   0  0  0  0  0  4  0  0  0  0  0  0
  -30.6210  -22.3560   20.7140 H   0  0  0  0  0  0  0  0  0  0  0  0
  -31.2330  -23.2910   21.8730 H   0  0  0  0  0  0  0  0  0  0  0  0
  -32.3200  -21.5790   23.3330 C   0  0  0  0  0  1  0  0  0  0  0  0
  -31.8540  -21.3220   21.8890 C   0  0  0  0  0  3  0  0  0  0  0  0
  -30.6740  -20.3360   21.8600 C   0  0  0  0  0  0  0  0  0  0  0  0
  -30.9670  -19.0350   21.7180 N   0  0  0  0  0  0  0  0  0  0  0  0
  -29.5160  -20.7510   21.9510 O   0  0  0  0  0  0  0  0  0  0  0  0
  -31.9410  -18.7940   21.6180 H   0  0  0  0  0  0  0  0  0  0  0  0
  -30.0250  -17.9300   21.5460 C   0  0  0  0  0  3  0  0  0  0  0  0
  -29.4280  -18.0320   20.1240 C   0  0  0  0  0  0  0  0  0  0  0  0
  -28.1500  -18.3740   20.0130 N   0  0  0  0  0  0  0  0  0  0  0  0
  -30.1250  -17.8460   19.1290 O   0  0  0  0  0  0  0  0  0  0  0  0
  -27.6130  -18.6190   20.8350 H   0  0  0  0  0  0  0  0  0  0  0  0
  -27.7270  -18.4870   19.1030 H   0  0  0  0  0  0  0  0  0  0  0  0
  -30.8410  -16.6210   21.7650 C   0  0  0  0  0  2  0  0  0  0  0  0
  -30.7000  -14.5200   20.4220 C   0  0  0  0  0  0  0  0  0  0  0  0
  -30.3970  -12.3730   19.2440 C   0  0  0  0  0  2  0  0  0  0  0  0
  -29.4340  -12.5270   18.0530 C   0  0  0  0  0  2  0  0  0  0  0  0
  -27.9690  -12.3660   18.5010 C   0  0  0  0  0  2  0  0  0  0  0  0
  -27.6330  -13.2200   19.7520 C   0  0  0  0  0  3  0  0  0  0  0  0
  -28.7000  -13.0410   20.8530 C   0  0  0  0  0  2  0  0  0  0  0  0
  -30.0180  -13.3550   20.2700 N   0  0  0  0  0  0  0  0  0  0  0  0
  -31.7270  -14.7840   19.7910 O   0  0  0  0  0  0  0  0  0  0  0  0
  -30.2020  -15.3700   21.3320 N   0  0  0  0  0  0  0  0  0  0  0  0
  -29.3600  -15.0830   21.8100 H   0  0  0  0  0  0  0  0  0  0  0  0
  -25.2350  -13.7910   20.4960 C   0  0  0  0  0  0  0  0  0  0  0  0
  -24.1840  -13.0000   20.8810 C   0  0  0  0  0  0  0  0  0  0  0  0
  -24.6620  -11.6560   20.8340 C   0  0  0  0  0  0  0  0  0  0  0  0
  -26.2900  -12.9260   20.2490 N   0  0  0  0  0  0  0  0  0  0  0  0
  -25.9460  -11.6360   20.5030 N   0  0  0  0  0  0  0  0  0  0  0  0
  -23.9580  -10.3820   21.0330 C   0  0  0  0  0  0  0  0  0  0  0  0
  -24.3850   -9.4490   22.0040 C   0  0  0  0  0  3  0  0  0  0  0  0
  -23.6850   -8.2380   22.1910 C   0  0  0  0  0  3  0  0  0  0  0  0
  -22.5410   -7.9510   21.4070 C   0  0  0  0  0  0  0  0  0  0  0  0
  -22.1320   -8.8740   20.4290 C   0  0  0  0  0  3  0  0  0  0  0  0
  -22.8330  -10.0770   20.2400 C   0  0  0  0  0  3  0  0  0  0  0  0
  -21.8140   -6.7900   21.4980 O   0  0  0  0  0  0  0  0  0  0  0  0
  -21.6740   -6.1170   22.6860 C   0  0  0  0  0  0  0  0  0  0  0  0
  -21.0700   -6.7160   23.8140 C   0  0  0  0  0  3  0  0  0  0  0  0
  -20.8850   -5.9680   24.9940 C   0  0  0  0  0  3  0  0  0  0  0  0
  -21.2940   -4.6200   25.0450 C   0  0  0  0  0  0  0  0  0  0  0  0
  -21.8890   -4.0210   23.9220 C   0  0  0  0  0  3  0  0  0  0  0  0
  -22.0770   -4.7680   22.7460 C   0  0  0  0  0  0  0  0  0  0  0  0
  -22.6330   -4.1800   21.6590 F   0  0  0  0  0  0  0  0  0  0  0  0
  -21.1100   -3.9000   26.1770 F   0  0  0  0  0  0  0  0  0  0  0  0
  -22.7850  -13.4550   21.1830 C   0  0  0  0  0  0  0  0  0  0  0  0
  -22.0780  -12.7290   22.0430 N   0  0  0  0  0  0  0  0  0  0  0  0
  -22.3240  -14.4850   20.6910 O   0  0  0  0  0  0  0  0  0  0  0  0
  -22.4630  -11.8970   22.4650 H   0  0  0  0  0  0  0  0  0  0  0  0
  -21.1390  -13.0110   22.2860 H   0  0  0  0  0  0  0  0  0  0  0  0
  -25.3750  -15.1630   20.3220 N   0  0  0  0  0  0  0  0  0  0  0  0
  -24.6010  -15.8050   20.4430 H   0  0  0  0  0  0  0  0  0  0  0  0
  -26.2110  -15.6150   19.9710 H   0  0  0  0  0  0  0  0  0  0  0  0
  -32.4440  -23.1240   20.2170 C   0  0  0  0  0  2  0  0  0  0  0  0
  -32.6770  -24.6290   20.4000 C   0  0  0  0  0  2  0  0  0  0  0  0
  -31.4310  -25.2970   20.2200 O   0  0  0  0  0  0  0  0  0  0  0  0
  -31.5750  -26.7130   20.2340 C   0  0  0  0  0  2  0  0  0  0  0  0
  -30.1890  -27.3670   20.2500 C   0  0  0  0  0  2  0  0  0  0  0  0
  -29.5690  -27.1660   18.9820 O   0  0  0  0  0  0  0  0  0  0  0  0
  -28.3640  -26.4140   19.0580 C   0  0  0  0  0  2  0  0  0  0  0  0
  -27.7060  -26.3530   17.6710 C   0  0  0  0  0  2  0  0  0  0  0  0
  -26.2890  -26.2310   17.7870 O   0  0  0  0  0  0  0  0  0  0  0  0
  -25.5170  -30.7770   23.2670 C   0  0  0  0  0  0  0  0  0  0  0  0
  -25.5710  -27.2070   18.4430 C   0  0  0  0  0  0  0  0  0  0  0  0
  -23.5350  -30.4720   21.8110 C   0  0  0  0  0  3  0  0  0  0  0  0
  -23.9490  -29.1960   19.6390 C   0  0  0  0  0  0  0  0  0  0  0  0
  -25.8950  -30.1550   20.8860 C   0  0  0  0  0  2  0  0  0  0  0  0
  -25.3160  -29.1350   19.9320 C   0  0  0  0  0  0  0  0  0  0  0  0
  -26.1280  -28.1450   19.3460 C   0  0  0  0  0  3  0  0  0  0  0  0
  -24.1900  -27.2740   18.1660 C   0  0  0  0  0  3  0  0  0  0  0  0
  -23.3760  -28.2590   18.7600 C   0  0  0  0  0  3  0  0  0  0  0  0
  -23.1590  -30.2960   20.3140 C   0  0  0  0  0  2  0  0  0  0  0  0
  -25.0190  -30.4500   22.0400 N   0  0  0  0  0  0  0  0  0  0  0  0
  -24.7690  -31.1340   24.1860 O   0  0  0  0  0  0  0  0  0  0  0  0
  -22.7750  -29.4080   22.6340 C   0  0  0  0  0  0  0  0  0  0  0  0
  -21.4350  -29.4910   22.6270 N   0  0  0  0  0  0  0  0  0  0  0  0
  -23.3820  -28.5170   23.2360 O   0  0  0  0  0  0  0  0  0  0  0  0
  -21.0100  -30.2530   22.1180 H   0  0  0  0  0  0  0  0  0  0  0  0
  -17.9670  -28.5190   22.8600 C   0  0  0  0  0  0  0  0  0  0  0  0
  -20.5140  -28.5770   23.2980 C   0  0  0  0  0  3  0  0  0  0  0  0
  -20.5530  -27.1710   22.6530 C   0  0  0  0  0  2  0  0  0  0  0  0
  -19.4980  -26.9820   21.5580 C   0  0  0  0  0  2  0  0  0  0  0  0
  -18.0920  -27.1960   22.1250 C   0  0  0  0  0  2  0  0  0  0  0  0
  -19.1060  -29.1760   23.3970 C   0  0  0  0  0  0  0  0  0  0  0  0
  -18.9400  -30.4220   24.0380 C   0  0  0  0  0  3  0  0  0  0  0  0
  -17.6660  -31.0100   24.1510 C   0  0  0  0  0  3  0  0  0  0  0  0
  -16.5400  -30.3490   23.6320 C   0  0  0  0  0  3  0  0  0  0  0  0
  -16.6900  -29.1050   22.9920 C   0  0  0  0  0  3  0  0  0  0  0  0
  -27.0500  -30.7410   23.5620 C   0  0  0  0  0  3  0  0  0  0  0  0
  -27.3670  -31.8990   24.4060 N   0  0  0  0  0  0  0  0  0  0  0  0
  -28.0160  -32.9920   23.9840 C   0  0  0  0  0  0  0  0  0  0  0  0
  -28.4800  -33.0950   22.8450 O   0  0  0  0  0  0  0  0  0  0  0  0
  -26.9680  -31.9030   25.3330 H   0  0  0  0  0  0  0  0  0  0  0  0
  -27.2150  -35.2940   24.5990 C   0  0  0  0  0  1  0  0  0  0  0  0
  -28.1760  -34.1560   24.9810 C   0  0  0  0  0  3  0  0  0  0  0  0
  -30.4920  -33.7380   25.6780 C   0  0  0  0  0  1  0  0  0  0  0  0
  -29.5590  -34.6770   25.0610 N   0  0  0  0  0  0  0  0  0  0  0  0
  -29.5860  -35.5460   25.5880 H   0  0  0  0  0  0  0  0  0  0  0  0
  -27.5180  -29.4010   24.2490 C   0  0  1  0  0  0  0  0  0  0  0  0
  -26.6850  -29.0180   25.4940 C   0  0  0  0  0  1  0  0  0  0  0  0
  -27.4470  -28.2250   23.2470 C   0  0  0  0  0  1  0  0  0  0  0  0
  -28.9970  -29.5240   24.6850 C   0  0  0  0  0  1  0  0  0  0  0  0
  1  3  1  0
  1  5  1  0
  2  1  1  0
  5  4  1  0
  6  5  1  0
  6  8  2  0
  7  6  1  0
  9  7  1  0
 10  7  1  0
 10 16  1  0
 11 10  1  0
 12 11  1  0
 12 14  1  0
 13 11  2  0
 15 12  1  0
 17 25  1  0
 18 23  1  0
 19 20  1  0
 19 18  1  0
 21 20  1  0
 21 30  1  0
 21 22  1  0
 23 17  1  0
 23 22  1  0
 24 17  2  0
 25 16  1  0
 25 26  1  0
 27 28  2  0
 28 47  1  0
 29 28  1  0
 29 32  1  0
 30 27  1  0
 30 31  1  0
 31 29  2  0
 32 33  1  0
 33 34  2  0
 35 38  1  0
 35 34  1  0
 36 35  2  0
 37 36  1  0
 37 32  2  0
 38 39  1  0
 39 44  2  0
 39 40  1  0
 40 41  2  0
 41 42  1  0
 42 46  1  0
 43 42  2  0
 44 43  1  0
 45 44  1  0
 47 48  1  0
 48 51  1  0
 48 50  1  0
 49 47  2  0
 52 53  1  0
 52 27  1  0
 54 52  1  0
 55 56  1  0
 55  1  1  0
 57 58  1  0
 57 56  1  0
 58 59  1  0
 60 61  1  0
 60 59  1  0
 62 63  1  0
 62 61  1  0
 63 65  1  0
 64 75  2  0
 65 70  1  0
 66 74  1  0
 66 76  1  0
 67 69  1  0
 67 73  1  0
 68 74  1  0
 69 68  1  0
 70 69  2  0
 71 65  2  0
 71 72  1  0
 72 67  2  0
 73 66  1  0
 74 64  1  0
 76 78  2  0
 77 76  1  0
 79 77  1  0
 80 89  2  0
 80 85  1  0
 81 77  1  0
 81 85  1  0
 82 81  1  0
 83 84  1  0
 83 82  1  0
 84 80  1  0
 85 86  2  0
 86 87  1  0
 88 87  2  0
 89 88  1  0
 90 64  1  0
 90100  1  0
 90 91  1  0
 91 94  1  0
 92 91  1  0
 92 96  1  0
 93 92  2  0
 96 95  1  0
 96 98  1  0
 98 99  1  0
 98 97  1  0
100103  1  1
100101  1  0
102100  1  0
M  ISO  4  17 100  25 100  62 101  63 101
M  END
>  <TORSDO>  (19) 
F 29

>  <SCORE>  (19) 
-9.326

>  <name>  (19) 
20

>  <ligand_id>  (19) 
20

>  <original_smiles>  (19) 
[H]c1c([H])c([H])c2c(c1[H])C([H])([H])C([H])([H])C([H])([H])C2([H])N([H])C(=O)C1([H])N(C(=O)C([H])(N([H])C(=O)C([H])(N([H])C([H])([H])[H])C([H])([H])[H])C(C([H])([H])[H])(C([H])([H])[H])C([H])([H])[H])C([H])([H])c2c([H])c(OC([H])([H])C([H])([H])OC([H])([H])C([H])([H])OC([H])([H])C([H])([H])[N+]([H])([H])C([H])(C(=O)N([H])C([H])(C(=O)N([H])[H])C([H])([H])N([H])C(=O)N3C([H])([H])C([H])([H])C([H])([H])C([H])(n4nc(-c5c([H])c([H])c(Oc6c([H])c([H])c(F)c([H])c6F)c([H])c5[H])c(C(=O)N([H])[H])c4N([H])[H])C3([H])[H])C([H])([H])[H])c([H])c([H])c2C1([H])[H]

>  <smiles>  (19) 
[H]c1c([H])c([H])c2c(c1[H])C([H])([H])C([H])([H])C([H])([H])C2([H])N([H])C(=O)C1([H])N(C(=O)C([H])(N([H])C(=O)C([H])(N([H])C([H])([H])[H])C([H])([H])[H])C(C([H])([H])[H])(C([H])([H])[H])C([H])([H])[H])C([H])([H])c2c([H])c(OC([H])([H])C([H])([H])OC([H])([H])C([H])([H])OC([H])([H])C([H])([H])[N+]([H])([H])C([H])(C(=O)N([H])C([H])(C(=O)N([H])[H])C([H])([H])N([H])C(=O)N3C([H])([H])C([H])([H])C([H])([H])C([H])(n4nc(-c5c([H])c([H])c(Oc6c([H])c([H])c(F)c([H])c6F)c([H])c5[H])c(C(=O)N([H])[H])c4N([H])[H])C3([H])[H])C([H])([H])[H])c([H])c([H])c2C1([H])[H]

$$$$
21:0:0
     RDKit          3D

 93100  0  0  1  0  0  0  0  0999 V2000
  -29.7190  -19.0070   20.8140 C   0  0  0  0  0  0  0  0  0  0  0  0
  -28.6510  -19.8210   20.4420 N   0  0  0  0  0  0  0  0  0  0  0  0
  -30.5770  -19.4530   21.5780 O   0  0  0  0  0  0  0  0  0  0  0  0
  -27.9010  -19.2350   20.1060 H   0  0  0  0  0  0  0  0  0  0  0  0
  -27.2390  -21.2950   18.9910 C   0  0  0  0  0  1  0  0  0  0  0  0
  -28.5340  -21.2400   19.8580 C   0  0  0  0  0  3  0  0  0  0  0  0
  -28.2000  -23.8570   20.2030 C   0  0  0  0  0  3  0  0  0  0  0  0
  -28.5640  -22.6010   20.6870 C   0  0  0  0  0  3  0  0  0  0  0  0
  -28.1060  -25.2490   20.9400 C   0  0  0  0  0  2  0  0  0  0  0  0
  -28.2680  -26.5340   20.1840 O   0  0  0  0  0  0  0  0  0  0  0  0
  -24.5830  -31.9770   23.2590 C   0  0  0  0  0  0  0  0  0  0  0  0
  -27.1760  -27.4220   20.1700 C   0  0  0  0  0  0  0  0  0  0  0  0
  -23.3760  -30.5800   21.6210 C   0  0  0  0  0  3  0  0  0  0  0  0
  -24.8190  -29.0450   20.1690 C   0  0  0  0  0  0  0  0  0  0  0  0
  -25.9120  -30.9140   21.4130 C   0  0  0  0  0  2  0  0  0  0  0  0
  -25.9920  -29.5360   20.7600 C   0  0  0  0  0  0  0  0  0  0  0  0
  -27.1800  -28.7340   20.7470 C   0  0  0  0  0  3  0  0  0  0  0  0
  -25.9860  -26.9880   19.5570 C   0  0  0  0  0  3  0  0  0  0  0  0
  -24.8210  -27.7780   19.5610 C   0  0  0  0  0  3  0  0  0  0  0  0
  -23.5800  -29.9160   20.2350 C   0  0  0  0  0  2  0  0  0  0  0  0
  -24.6460  -31.1730   22.1580 N   0  0  0  0  0  0  0  0  0  0  0  0
  -23.5000  -32.2500   23.7980 O   0  0  0  0  0  0  0  0  0  0  0  0
  -22.7280  -29.5570   22.5840 C   0  0  0  0  0  0  0  0  0  0  0  0
  -21.4090  -29.3410   22.4480 N   0  0  0  0  0  0  0  0  0  0  0  0
  -23.4190  -28.9610   23.4160 O   0  0  0  0  0  0  0  0  0  0  0  0
  -20.9170  -29.8770   21.7460 H   0  0  0  0  0  0  0  0  0  0  0  0
  -18.0600  -28.0410   22.9060 C   0  0  0  0  0  0  0  0  0  0  0  0
  -20.6080  -28.3890   23.2150 C   0  0  0  0  0  3  0  0  0  0  0  0
  -20.7630  -26.9550   22.6570 C   0  0  0  0  0  2  0  0  0  0  0  0
  -19.6850  -26.5820   21.6320 C   0  0  0  0  0  2  0  0  0  0  0  0
  -18.2920  -26.6890   22.2530 C   0  0  0  0  0  2  0  0  0  0  0  0
  -19.1500  -28.8430   23.3430 C   0  0  0  0  0  0  0  0  0  0  0  0
  -18.8770  -30.1040   23.9140 C   0  0  0  0  0  3  0  0  0  0  0  0
  -17.5530  -30.5670   24.0550 C   0  0  0  0  0  3  0  0  0  0  0  0
  -16.4820  -29.7600   23.6340 C   0  0  0  0  0  3  0  0  0  0  0  0
  -16.7350  -28.5000   23.0640 C   0  0  0  0  0  3  0  0  0  0  0  0
  -25.8680  -32.6170   23.8720 C   0  0  0  0  0  3  0  0  0  0  0  0
  -25.5530  -34.0150   24.1990 N   0  0  0  0  0  0  0  0  0  0  0  0
  -25.8980  -35.0710   23.4470 C   0  0  0  0  0  0  0  0  0  0  0  0
  -26.5800  -34.9660   22.4230 O   0  0  0  0  0  0  0  0  0  0  0  0
  -24.9490  -34.1680   24.9930 H   0  0  0  0  0  0  0  0  0  0  0  0
  -24.1950  -36.8790   23.0540 C   0  0  0  0  0  1  0  0  0  0  0  0
  -25.4080  -36.4610   23.9010 C   0  0  0  0  0  3  0  0  0  0  0  0
  -27.5230  -37.3250   24.7980 C   0  0  0  0  0  1  0  0  0  0  0  0
  -26.4510  -37.5060   23.8240 N   0  0  0  0  0  0  0  0  0  0  0  0
  -26.0530  -38.4310   23.9560 H   0  0  0  0  0  0  0  0  0  0  0  0
  -26.3890  -31.8560   25.1500 C   0  0  1  0  0  0  0  0  0  0  0  0
  -25.2970  -31.6190   26.2210 C   0  0  0  0  0  1  0  0  0  0  0  0
  -26.9770  -30.4790   24.7630 C   0  0  0  0  0  1  0  0  0  0  0  0
  -27.5390  -32.6590   25.7990 C   0  0  0  0  0  1  0  0  0  0  0  0
  -29.9470  -17.4890   20.2390 C   0  0  0  0  0  3  0  0  0  0  0  0
  -30.7560  -15.0720   21.1640 C   0  0  0  0  0  0  0  0  0  0  0  0
  -30.7750  -12.6800   20.3610 C   0  0  0  0  0  2  0  0  0  0  0  0
  -30.0160  -12.4930   19.0190 C   0  0  0  0  0  2  0  0  0  0  0  0
  -28.4910  -12.4430   19.2490 C   0  0  0  0  0  2  0  0  0  0  0  0
  -27.9490  -13.3940   20.3620 C   0  0  0  0  0  3  0  0  0  0  0  0
  -28.8480  -13.4490   21.5970 C   0  0  0  0  0  2  0  0  0  0  0  0
  -30.1820  -13.8130   21.1110 N   0  0  0  0  0  0  0  0  0  0  0  0
  -31.9720  -15.1580   20.9470 O   0  0  0  0  0  0  0  0  0  0  0  0
  -29.9460  -16.2160   21.1570 N   0  0  0  0  0  0  0  0  0  0  0  0
  -29.9390  -16.6030   22.1150 H   0  0  0  0  0  0  0  0  0  0  0  0
  -25.4930  -13.9960   20.7640 C   0  0  0  0  0  0  0  0  0  0  0  0
  -24.3970  -13.2140   21.0190 C   0  0  0  0  0  0  0  0  0  0  0  0
  -24.8640  -11.8660   21.0730 C   0  0  0  0  0  0  0  0  0  0  0  0
  -26.5620  -13.1110   20.6940 N   0  0  0  0  0  0  0  0  0  0  0  0
  -26.1840  -11.8330   20.9320 N   0  0  0  0  0  0  0  0  0  0  0  0
  -24.1320  -10.6080   21.1870 C   0  0  0  0  0  0  0  0  0  0  0  0
  -24.4510   -9.6620   22.1870 C   0  0  0  0  0  3  0  0  0  0  0  0
  -23.7220   -8.4620   22.2930 C   0  0  0  0  0  3  0  0  0  0  0  0
  -22.6600   -8.2000   21.3980 C   0  0  0  0  0  0  0  0  0  0  0  0
  -22.3650   -9.1270   20.3840 C   0  0  0  0  0  3  0  0  0  0  0  0
  -23.0940  -10.3260   20.2740 C   0  0  0  0  0  3  0  0  0  0  0  0
  -21.9150   -7.0430   21.4060 O   0  0  0  0  0  0  0  0  0  0  0  0
  -21.7180   -6.3270   22.5570 C   0  0  0  0  0  0  0  0  0  0  0  0
  -21.0960   -6.8980   23.6900 C   0  0  0  0  0  3  0  0  0  0  0  0
  -20.8480   -6.1080   24.8310 C   0  0  0  0  0  3  0  0  0  0  0  0
  -21.2120   -4.7460   24.8330 C   0  0  0  0  0  0  0  0  0  0  0  0
  -21.8270   -4.1750   23.7050 C   0  0  0  0  0  3  0  0  0  0  0  0
  -22.0770   -4.9640   22.5690 C   0  0  0  0  0  0  0  0  0  0  0  0
  -22.6440   -4.4040   21.4710 F   0  0  0  0  0  0  0  0  0  0  0  0
  -20.9630   -3.9820   25.9220 F   0  0  0  0  0  0  0  0  0  0  0  0
  -22.9800  -13.6830   21.1040 C   0  0  0  0  0  0  0  0  0  0  0  0
  -22.1560  -12.9980   21.8930 N   0  0  0  0  0  0  0  0  0  0  0  0
  -22.5970  -14.6850   20.5090 O   0  0  0  0  0  0  0  0  0  0  0  0
  -22.4620  -12.1800   22.4010 H   0  0  0  0  0  0  0  0  0  0  0  0
  -21.1970  -13.3010   21.9690 H   0  0  0  0  0  0  0  0  0  0  0  0
  -25.6660  -15.3620   20.5780 N   0  0  0  0  0  0  0  0  0  0  0  0
  -24.8980  -16.0240   20.6120 H   0  0  0  0  0  0  0  0  0  0  0  0
  -26.5580  -15.8200   20.4180 H   0  0  0  0  0  0  0  0  0  0  0  0
  -29.7230  -15.8840   18.1310 C   0  0  0  0  0  1  0  0  0  0  0  0
  -30.9120  -18.0110   17.8960 C   0  0  0  0  0  1  0  0  0  0  0  0
  -28.4260  -17.9380   18.0940 C   0  0  0  0  0  1  0  0  0  0  0  0
  -29.7350  -17.3280   18.6440 C   0  0  2  0  0  0  0  0  0  0  0  0
  1  3  2  0
  2  1  1  0
  4  2  1  0
  6  5  1  0
  6  2  1  0
  6  8  1  0
  7  8  2  0
  7  9  1  0
 10  9  1  0
 11 22  2  0
 12 10  1  0
 12 17  1  0
 13 21  1  0
 13 23  1  0
 14 20  1  0
 14 16  1  0
 15 21  1  0
 16 15  1  0
 17 16  2  0
 18 19  1  0
 18 12  2  0
 19 14  2  0
 20 13  1  0
 21 11  1  0
 23 25  2  0
 24 23  1  0
 26 24  1  0
 27 36  2  0
 27 32  1  0
 28 24  1  0
 28 32  1  0
 29 28  1  0
 30 31  1  0
 30 29  1  0
 31 27  1  0
 32 33  2  0
 33 34  1  0
 35 34  2  0
 36 35  1  0
 37 11  1  0
 37 38  1  0
 37 47  1  0
 38 41  1  0
 39 43  1  0
 39 38  1  0
 40 39  2  0
 43 42  1  0
 45 43  1  0
 45 46  1  0
 45 44  1  0
 47 50  1  1
 47 48  1  0
 49 47  1  0
 51  1  1  0
 51 60  1  0
 53 58  1  0
 54 55  1  0
 54 53  1  0
 56 55  1  0
 56 65  1  0
 56 57  1  0
 58 52  1  0
 58 57  1  0
 59 52  2  0
 60 52  1  0
 60 61  1  0
 62 63  2  0
 63 64  1  0
 63 82  1  0
 64 67  1  0
 65 62  1  0
 65 66  1  0
 66 64  2  0
 67 68  1  0
 68 69  2  0
 70 73  1  0
 70 69  1  0
 71 70  2  0
 72 71  1  0
 72 67  2  0
 73 74  1  0
 74 79  2  0
 74 75  1  0
 75 76  2  0
 76 77  1  0
 77 81  1  0
 78 77  2  0
 79 78  1  0
 80 79  1  0
 82 83  1  0
 83 86  1  0
 83 85  1  0
 84 82  2  0
 87 88  1  0
 87 62  1  0
 89 87  1  0
 93 90  1  1
 91 93  1  0
 92 93  1  0
 93 51  1  0
M  ISO  4   9 101  10 101  52 100  60 100
M  END
>  <TORSDO>  (20) 
F 21

>  <SCORE>  (20) 
-12.391

>  <name>  (20) 
21

>  <ligand_id>  (20) 
21

>  <original_smiles>  (20) 
[H]C(=C([H])C([H])(N([H])C(=O)C([H])(N([H])C(=O)N1C([H])([H])C([H])([H])C([H])([H])C([H])(n2nc(-c3c([H])c([H])c(Oc4c([H])c([H])c(F)c([H])c4F)c([H])c3[H])c(C(=O)N([H])[H])c2N([H])[H])C1([H])[H])C(C([H])([H])[H])(C([H])([H])[H])C([H])([H])[H])C([H])([H])[H])C([H])([H])Oc1c([H])c([H])c2c(c1[H])C([H])([H])N(C(=O)C([H])(N([H])C(=O)C([H])(N([H])C([H])([H])[H])C([H])([H])[H])C(C([H])([H])[H])(C([H])([H])[H])C([H])([H])[H])C([H])(C(=O)N([H])C1([H])c3c([H])c([H])c([H])c([H])c3C([H])([H])C([H])([H])C1([H])[H])C2([H])[H]

>  <smiles>  (20) 
[H]C(=C([H])C([H])(N([H])C(=O)C([H])(N([H])C(=O)N1C([H])([H])C([H])([H])C([H])([H])C([H])(n2nc(-c3c([H])c([H])c(Oc4c([H])c([H])c(F)c([H])c4F)c([H])c3[H])c(C(=O)N([H])[H])c2N([H])[H])C1([H])[H])C(C([H])([H])[H])(C([H])([H])[H])C([H])([H])[H])C([H])([H])[H])C([H])([H])Oc1c([H])c([H])c2c(c1[H])C([H])([H])N(C(=O)C([H])(N([H])C(=O)C([H])(N([H])C([H])([H])[H])C([H])([H])[H])C(C([H])([H])[H])(C([H])([H])[H])C([H])([H])[H])C([H])(C(=O)N([H])C1([H])c3c([H])c([H])c([H])c([H])c3C([H])([H])C([H])([H])C1([H])[H])C2([H])[H]

$$$$
22:0:0
     RDKit          3D

 98100  0  0  1  0  0  0  0  0999 V2000
  -22.4400  -12.7720   19.0190 C   0  0  0  0  0  0  0  0  0  0  0  0
  -21.9560  -11.8500   20.0730 N   0  0  0  0  0  0  0  0  0  0  0  0
  -22.9380  -12.2670   18.0160 O   0  0  0  0  0  0  0  0  0  0  0  0
  -21.3580  -12.3840   20.6920 H   0  0  0  0  0  0  0  0  0  0  0  0
  -22.3910  -14.5010   18.8920 C   0  0  0  0  0  2  0  0  0  0  0  0
  -23.6390  -15.5250   18.9280 O   0  0  0  0  0  0  0  0  0  0  0  0
  -23.7410  -17.0990   19.2940 C   0  0  0  0  0  2  0  0  0  0  0  0
  -24.9240  -18.3610   18.8990 C   0  0  0  0  0  2  0  0  0  0  0  0
  -25.4690  -19.8490   19.7060 C   0  0  0  0  0  2  0  0  0  0  0  0
  -26.0510  -21.2560   19.1630 O   0  0  0  0  0  0  0  0  0  0  0  0
  -26.8670  -22.4590   19.8810 C   0  0  0  0  0  3  0  0  0  0  0  0
  -26.9710  -24.1790   19.4870 C   0  0  0  0  0  3  0  0  0  0  0  0
  -27.7690  -25.5570   19.9290 O   0  0  0  0  0  0  0  0  0  0  0  0
  -24.6460  -31.6260   23.0250 C   0  0  0  0  0  0  0  0  0  0  0  0
  -27.0780  -26.8400   19.8560 C   0  0  0  0  0  0  0  0  0  0  0  0
  -23.4840  -30.2350   21.3850 C   0  0  0  0  0  3  0  0  0  0  0  0
  -24.9280  -28.7580   19.8850 C   0  0  0  0  0  0  0  0  0  0  0  0
  -26.0540  -30.4770   21.2580 C   0  0  0  0  0  2  0  0  0  0  0  0
  -26.1120  -29.0990   20.5530 C   0  0  0  0  0  0  0  0  0  0  0  0
  -27.2080  -28.1320   20.5560 C   0  0  0  0  0  3  0  0  0  0  0  0
  -25.9720  -26.7690   19.0100 C   0  0  0  0  0  3  0  0  0  0  0  0
  -24.8840  -27.6220   19.0940 C   0  0  0  0  0  3  0  0  0  0  0  0
  -23.7090  -29.6470   19.9780 C   0  0  0  0  0  2  0  0  0  0  0  0
  -24.7510  -30.8050   21.9380 N   0  0  0  0  0  0  0  0  0  0  0  0
  -23.5490  -31.8800   23.5470 O   0  0  0  0  0  0  0  0  0  0  0  0
  -22.8450  -29.1680   22.3120 C   0  0  0  0  0  0  0  0  0  0  0  0
  -21.5190  -28.9690   22.2000 N   0  0  0  0  0  0  0  0  0  0  0  0
  -23.5430  -28.5340   23.1080 O   0  0  0  0  0  0  0  0  0  0  0  0
  -21.0110  -29.5350   21.5340 H   0  0  0  0  0  0  0  0  0  0  0  0
  -18.1700  -27.6890   22.7340 C   0  0  0  0  0  0  0  0  0  0  0  0
  -20.7280  -28.0000   22.9650 C   0  0  0  0  0  3  0  0  0  0  0  0
  -20.8490  -26.5810   22.3610 C   0  0  0  0  0  2  0  0  0  0  0  0
  -19.7370  -26.2530   21.3610 C   0  0  0  0  0  2  0  0  0  0  0  0
  -18.3630  -26.3570   22.0280 C   0  0  0  0  0  2  0  0  0  0  0  0
  -19.2800  -28.4670   23.1600 C   0  0  0  0  0  0  0  0  0  0  0  0
  -19.0420  -29.7120   23.7820 C   0  0  0  0  0  3  0  0  0  0  0  0
  -17.7300  -30.1790   23.9810 C   0  0  0  0  0  3  0  0  0  0  0  0
  -16.6360  -29.3990   23.5700 C   0  0  0  0  0  3  0  0  0  0  0  0
  -16.8570  -28.1550   22.9530 C   0  0  0  0  0  3  0  0  0  0  0  0
  -25.8990  -32.3010   23.6530 C   0  0  0  0  0  3  0  0  0  0  0  0
  -25.5180  -33.6720   24.0370 N   0  0  0  0  0  0  0  0  0  0  0  0
  -25.7800  -34.7720   23.3210 C   0  0  0  0  0  0  0  0  0  0  0  0
  -26.4370  -34.7450   22.2770 O   0  0  0  0  0  0  0  0  0  0  0  0
  -24.9280  -33.7610   24.8510 H   0  0  0  0  0  0  0  0  0  0  0  0
  -23.9500  -36.4850   23.0760 C   0  0  0  0  0  1  0  0  0  0  0  0
  -25.2300  -36.1150   23.8440 C   0  0  0  0  0  3  0  0  0  0  0  0
  -27.3360  -37.0780   24.6610 C   0  0  0  0  0  1  0  0  0  0  0  0
  -26.2010  -37.2270   23.7530 N   0  0  0  0  0  0  0  0  0  0  0  0
  -25.7530  -38.1170   23.9500 H   0  0  0  0  0  0  0  0  0  0  0  0
  -26.4550  -31.5190   24.9060 C   0  0  1  0  0  0  0  0  0  0  0  0
  -25.3790  -31.2060   25.9730 C   0  0  0  0  0  1  0  0  0  0  0  0
  -27.0960  -30.1760   24.4870 C   0  0  0  0  0  1  0  0  0  0  0  0
  -27.5780  -32.3450   25.5760 C   0  0  0  0  0  1  0  0  0  0  0  0
  -22.3330  -10.3860   20.8790 C   0  0  0  0  0  1  0  0  0  0  0  0
  -25.8250   -9.3980   20.7010 C   0  0  0  0  0  1  0  0  0  0  0  0
  -29.0090  -11.5950   20.4040 C   0  0  2  0  0  0  0  0  0  0  0  0
  -29.9680  -10.6520   19.4970 C   0  0  0  0  0  1  0  0  0  0  0  0
  -29.1710  -11.4630   18.0280 C   0  0  0  0  0  1  0  0  0  0  0  0
  -27.8440  -12.5460   18.3320 C   0  0  0  0  0  2  0  0  0  0  0  0
  -27.5670  -13.3220   19.9110 C   0  0  0  0  0  2  0  0  0  0  0  0
  -28.3950  -12.4750   21.4190 C   0  0  0  0  0  1  0  0  0  0  0  0
  -29.6560  -11.3030   21.0980 N   0  0  0  0  0  1  0  0  0  0  0  0
  -29.9510  -12.7540   19.9610 O   0  0  0  0  0  1  0  0  0  0  0  0
  -27.5720  -10.4730   20.2910 N   0  0  0  0  0  1  0  0  0  0  0  0
  -27.2680  -10.8240   19.3940 H   0  0  0  0  0  0  0  0  0  0  0  0
  -25.4710  -14.1790   20.9600 C   0  0  0  0  0  0  0  0  0  0  0  0
  -24.4730  -13.4580   21.5120 C   0  0  0  0  0  0  0  0  0  0  0  0
  -24.8930  -12.2200   21.1240 C   0  0  0  0  0  3  0  0  0  0  0  0
  -26.2490  -13.3020   20.2800 N   0  0  0  0  0  0  0  0  0  0  0  0
  -25.7390  -12.1530   20.2290 N   0  0  0  0  0  2  0  0  0  0  0  0
  -24.4870  -11.0660   21.2370 C   0  0  0  0  0  0  0  0  0  0  0  0
  -24.3300  -10.2540   22.6440 C   0  0  0  0  0  3  0  0  0  0  0  0
  -23.7420   -8.8250   22.7290 C   0  0  0  0  0  3  0  0  0  0  0  0
  -23.1630   -8.0420   21.6060 C   0  0  0  0  0  0  0  0  0  0  0  0
  -23.5180   -8.5850   20.1990 C   0  0  0  0  0  3  0  0  0  0  0  0
  -24.1140  -10.0550   19.8450 C   0  0  0  0  0  3  0  0  0  0  0  0
  -22.0750   -7.0890   21.8320 O   0  0  0  0  0  0  0  0  0  0  0  0
  -21.7610   -6.2960   22.9840 C   0  0  0  0  0  0  0  0  0  0  0  0
  -21.3910   -6.8210   24.2580 C   0  0  0  0  0  3  0  0  0  0  0  0
  -21.1690   -5.9820   25.3870 C   0  0  0  0  0  3  0  0  0  0  0  0
  -21.2780   -4.5820   25.2760 C   0  0  0  0  0  0  0  0  0  0  0  0
  -21.5140   -4.0330   24.0070 C   0  0  0  0  0  3  0  0  0  0  0  0
  -21.7180   -4.8720   22.8830 C   0  0  0  0  0  0  0  0  0  0  0  0
  -21.8880   -4.2780   21.6810 F   0  0  0  0  0  0  0  0  0  0  0  0
  -21.1510   -3.7730   26.3630 F   0  0  0  0  0  0  0  0  0  0  0  0
  -23.1770  -13.8610   22.1410 C   0  0  0  0  0  0  0  0  0  0  0  0
  -22.5590  -13.0340   22.9780 N   0  0  0  0  0  0  0  0  0  0  0  0
  -22.6290  -14.8870   21.7860 O   0  0  0  0  0  0  0  0  0  0  0  0
  -23.0080  -12.1860   23.2860 H   0  0  0  0  0  0  0  0  0  0  0  0
  -21.6990  -13.3180   23.4270 H   0  0  0  0  0  0  0  0  0  0  0  0
  -25.8470  -15.4840   20.9560 N   0  0  0  0  0  0  0  0  0  0  0  0
  -25.2730  -16.2080   21.3650 H   0  0  0  0  0  0  0  0  0  0  0  0
  -26.5990  -15.8380   20.3800 H   0  0  0  0  0  0  0  0  0  0  0  0
  -26.4170   -8.2500   21.5710 C   0  0  0  0  0  0  0  0  0  0  0  0
  -26.2870   -6.9920   21.1550 N   0  0  0  0  0  0  0  0  0  0  0  0
  -27.0340   -8.5070   22.6040 O   0  0  0  0  0  0  0  0  0  0  0  0
  -25.7990   -6.7910   20.2940 H   0  0  0  0  0  0  0  0  0  0  0  0
  -26.6980   -6.2340   21.6780 H   0  0  0  0  0  0  0  0  0  0  0  0
  1  2  1  0
  2  4  1  0
  2 54  1  0
  3  1  2  0
  5  6  1  0
  5  1  1  0
  6  7  1  0
  8  7  1  0
  8  9  1  0
 10  9  1  0
 10 11  1  0
 12 11  2  0
 12 13  1  0
 14 25  2  0
 15 13  1  0
 15 20  1  0
 16 24  1  0
 16 26  1  0
 17 23  1  0
 17 19  1  0
 18 24  1  0
 19 20  2  0
 19 18  1  0
 21 22  1  0
 21 15  2  0
 22 17  2  0
 23 16  1  0
 24 14  1  0
 26 28  2  0
 27 26  1  0
 29 27  1  0
 30 39  2  0
 30 35  1  0
 31 27  1  0
 31 35  1  0
 32 31  1  0
 33 34  1  0
 33 32  1  0
 34 30  1  0
 35 36  2  0
 36 37  1  0
 38 37  2  0
 39 38  1  0
 40 14  1  0
 40 41  1  0
 40 50  1  0
 41 44  1  0
 42 46  1  0
 42 41  1  0
 43 42  2  0
 46 45  1  0
 48 46  1  0
 48 49  1  0
 48 47  1  0
 50 53  1  1
 50 51  1  0
 52 50  1  0
 55 94  1  0
 56 62  1  0
 56 61  1  6
 57 56  1  0
 58 59  1  0
 59 60  1  0
 60 69  1  0
 63 56  1  0
 65 64  1  0
 66 67  2  0
 67 86  1  0
 68 71  1  0
 68 67  1  0
 69 66  1  0
 70 69  1  0
 70 68  1  0
 71 72  1  0
 72 73  2  0
 74 77  1  0
 74 73  1  0
 75 74  2  0
 76 75  1  0
 76 71  2  0
 77 78  1  0
 78 79  1  0
 79 80  2  0
 81 80  1  0
 81 85  1  0
 82 81  2  0
 83 78  2  0
 83 82  1  0
 84 83  1  0
 86 87  1  0
 87 89  1  0
 87 90  1  0
 88 86  2  0
 91 66  1  0
 91 92  1  0
 93 91  1  0
 94 96  2  0
 95 94  1  0
 95 98  1  0
 97 95  1  0
M  ISO  4  12 101  13 101  56 100  64 100
M  END
>  <TORSDO>  (21) 
F 27

>  <SCORE>  (21) 
3.649

>  <name>  (21) 
22

>  <ligand_id>  (21) 
22

>  <original_smiles>  (21) 
[H]c1c([H])c([H])c2c(c1[H])C([H])([H])C([H])([H])C([H])([H])C2([H])N([H])C(=O)C1([H])N(C(=O)C([H])(N([H])C(=O)C([H])(N([H])C([H])([H])[H])C([H])([H])[H])C(C([H])([H])[H])(C([H])([H])[H])C([H])([H])[H])C([H])([H])c2c([H])c(OC([H])([H])C([H])([H])OC([H])([H])C([H])([H])C([H])([H])OC([H])([H])C(=O)N([H])C([H])([H])C([H])(C(=O)N([H])[H])N([H])C(=O)N3C([H])([H])C([H])([H])C([H])([H])C([H])(n4nc(-c5c([H])c([H])c(Oc6c([H])c([H])c(F)c([H])c6F)c([H])c5[H])c(C(=O)N([H])[H])c4N([H])[H])C3([H])[H])c([H])c([H])c2C1([H])[H]

>  <smiles>  (21) 
[H]c1c([H])c([H])c2c(c1[H])C([H])([H])C([H])([H])C([H])([H])C2([H])N([H])C(=O)C1([H])N(C(=O)C([H])(N([H])C(=O)C([H])(N([H])C([H])([H])[H])C([H])([H])[H])C(C([H])([H])[H])(C([H])([H])[H])C([H])([H])[H])C([H])([H])c2c([H])c(OC([H])([H])C([H])([H])OC([H])([H])C([H])([H])C([H])([H])OC([H])([H])C(=O)N([H])C([H])([H])C([H])(C(=O)N([H])[H])N([H])C(=O)N3C([H])([H])C([H])([H])C([H])([H])C([H])(n4nc(-c5c([H])c([H])c(Oc6c([H])c([H])c(F)c([H])c6F)c([H])c5[H])c(C(=O)N([H])[H])c4N([H])[H])C3([H])[H])c([H])c([H])c2C1([H])[H]

$$$$
24:0:0
     RDKit          3D

102109  0  0  1  0  0  0  0  0999 V2000
  -28.5850  -22.5040   20.8290 C   0  0  0  0  0  0  0  0  0  0  0  0
  -28.7940  -21.5810   19.8810 N   0  0  0  0  0  0  0  0  0  0  0  0
  -27.5280  -22.6250   21.4550 O   0  0  0  0  0  0  0  0  0  0  0  0
  -29.7330  -21.5780   19.4960 H   0  0  0  0  0  0  0  0  0  0  0  0
  -29.7940  -23.4440   21.1160 C   0  0  0  0  0  0  0  0  0  0  0  0
  -29.4500  -24.6140   21.6730 N   0  0  0  0  0  0  0  0  0  0  0  0
  -30.9490  -23.1050   20.8420 O   0  0  0  0  0  0  0  0  0  0  0  0
  -28.4570  -24.7290   21.8290 H   0  0  0  0  0  0  0  0  0  0  0  0
  -30.3300  -25.7270   22.0220 C   0  0  0  0  0  2  0  0  0  0  0  0
  -30.1510  -26.8920   21.0450 C   0  0  0  0  0  2  0  0  0  0  0  0
  -30.2600  -26.3630   19.7380 O   0  0  0  0  0  0  0  0  0  0  0  0
  -29.2610  -26.8470   18.8690 C   0  0  0  0  0  2  0  0  0  0  0  0
  -29.6950  -26.5430   17.4160 C   0  0  0  0  0  2  0  0  0  0  0  0
  -28.7580  -26.9230   16.4110 O   0  0  0  0  0  0  0  0  0  0  0  0
  -24.8600  -28.8280   22.0410 C   0  0  0  0  0  0  0  0  0  0  0  0
  -27.5330  -27.2810   16.8940 C   0  0  0  0  0  0  0  0  0  0  0  0
  -23.6140  -28.0480   20.0510 C   0  0  0  0  0  3  0  0  0  0  0  0
  -24.9710  -27.8170   17.9110 C   0  0  0  0  0  0  0  0  0  0  0  0
  -25.8990  -29.1720   19.8030 C   0  0  0  0  0  2  0  0  0  0  0  0
  -26.1020  -28.3350   18.5590 C   0  0  0  0  0  0  0  0  0  0  0  0
  -27.3880  -28.0730   18.0530 C   0  0  0  0  0  3  0  0  0  0  0  0
  -26.3940  -26.7720   16.2430 C   0  0  0  0  0  3  0  0  0  0  0  0
  -25.1110  -27.0290   16.7540 C   0  0  0  0  0  3  0  0  0  0  0  0
  -23.6300  -28.1640   18.5050 C   0  0  0  0  0  2  0  0  0  0  0  0
  -24.8180  -28.6730   20.6870 N   0  0  0  0  0  0  0  0  0  0  0  0
  -23.9010  -28.5020   22.7540 O   0  0  0  0  0  0  0  0  0  0  0  0
  -23.4130  -26.5630   20.4360 C   0  0  0  0  0  0  0  0  0  0  0  0
  -22.1870  -26.0530   20.2280 N   0  0  0  0  0  0  0  0  0  0  0  0
  -24.3450  -25.8930   20.8850 O   0  0  0  0  0  0  0  0  0  0  0  0
  -21.4760  -26.6730   19.8670 H   0  0  0  0  0  0  0  0  0  0  0  0
  -19.3970  -23.7690   20.0280 C   0  0  0  0  0  0  0  0  0  0  0  0
  -21.7770  -24.6720   20.4830 C   0  0  0  0  0  3  0  0  0  0  0  0
  -22.2400  -23.7310   19.3470 C   0  0  0  0  0  2  0  0  0  0  0  0
  -21.1840  -23.5420   18.2540 C   0  0  0  0  0  2  0  0  0  0  0  0
  -19.8950  -22.9620   18.8430 C   0  0  0  0  0  2  0  0  0  0  0  0
  -20.2770  -24.5820   20.7900 C   0  0  0  0  0  0  0  0  0  0  0  0
  -19.7540  -25.3370   21.8610 C   0  0  0  0  0  3  0  0  0  0  0  0
  -18.3840  -25.2890   22.1750 C   0  0  0  0  0  3  0  0  0  0  0  0
  -17.5210  -24.4660   21.4310 C   0  0  0  0  0  3  0  0  0  0  0  0
  -18.0290  -23.7050   20.3650 C   0  0  0  0  0  3  0  0  0  0  0  0
  -26.1050  -29.4440   22.7530 C   0  0  0  0  0  3  0  0  0  0  0  0
  -26.8820  -28.4070   23.6540 C   0  0  1  0  0  0  0  0  0  0  0  0
  -25.9690  -27.6090   24.6150 C   0  0  0  0  0  1  0  0  0  0  0  0
  -27.6430  -27.3920   22.7710 C   0  0  0  0  0  1  0  0  0  0  0  0
  -27.9470  -29.1420   24.5000 C   0  0  0  0  0  1  0  0  0  0  0  0
  -25.6430  -30.5850   23.5530 N   0  0  0  0  0  0  0  0  0  0  0  0
  -25.8100  -31.8700   23.2130 C   0  0  0  0  0  0  0  0  0  0  0  0
  -26.4450  -32.2190   22.2140 O   0  0  0  0  0  0  0  0  0  0  0  0
  -25.0750  -30.3680   24.3600 H   0  0  0  0  0  0  0  0  0  0  0  0
  -23.8870  -33.4690   23.4610 C   0  0  0  0  0  1  0  0  0  0  0  0
  -25.1670  -32.9350   24.1230 C   0  0  0  0  0  3  0  0  0  0  0  0
  -27.1990  -33.6690   25.2830 C   0  0  0  0  0  1  0  0  0  0  0  0
  -26.0710  -34.0600   24.4420 N   0  0  0  0  0  0  0  0  0  0  0  0
  -25.5700  -34.8070   24.9140 H   0  0  0  0  0  0  0  0  0  0  0  0
  -27.8940  -20.4830   19.5210 C   0  0  0  0  0  2  0  0  0  0  0  0
  -26.8820  -20.8040   18.3910 C   0  0  0  0  0  2  0  0  0  0  0  0
  -27.5200  -20.7520   16.9940 C   0  0  0  0  0  2  0  0  0  0  0  0
  -28.1140  -19.4690   16.8410 O   0  0  0  0  0  0  0  0  0  0  0  0
  -29.1790  -19.4160   15.8970 C   0  0  0  0  0  2  0  0  0  0  0  0
  -29.9730  -18.1330   16.1760 C   0  0  0  0  0  2  0  0  0  0  0  0
  -30.3760  -18.1790   17.5430 O   0  0  0  0  0  0  0  0  0  0  0  0
  -31.2970  -17.1750   17.9350 C   0  0  0  0  0  2  0  0  0  0  0  0
  -31.6120  -17.3820   19.4290 C   0  0  0  0  0  2  0  0  0  0  0  0
  -30.7240  -16.5900   20.4310 C   0  0  0  0  0  2  0  0  0  0  0  0
  -31.7340  -14.2920   20.0850 C   0  0  0  0  0  0  0  0  0  0  0  0
  -31.2790  -12.1970   18.8550 C   0  0  0  0  0  2  0  0  0  0  0  0
  -30.2880  -12.4720   17.7080 C   0  0  0  0  0  2  0  0  0  0  0  0
  -28.8290  -12.4150   18.2100 C   0  0  0  0  0  2  0  0  0  0  0  0
  -28.5980  -13.2330   19.5080 C   0  0  0  0  0  3  0  0  0  0  0  0
  -29.6840  -12.8880   20.5440 C   0  0  0  0  0  2  0  0  0  0  0  0
  -31.0030  -13.1550   19.9340 N   0  0  0  0  0  0  0  0  0  0  0  0
  -32.7680  -14.5170   19.4430 O   0  0  0  0  0  0  0  0  0  0  0  0
  -31.2130  -15.0930   22.3240 C   0  0  0  0  0  1  0  0  0  0  0  0
  -31.1560  -15.2380   20.8600 N   0  0  0  0  0  0  0  0  0  0  0  0
  -26.2840  -13.9660   20.3700 C   0  0  0  0  0  0  0  0  0  0  0  0
  -25.1880  -13.2470   20.7650 C   0  0  0  0  0  0  0  0  0  0  0  0
  -25.5590  -11.8720   20.6510 C   0  0  0  0  0  0  0  0  0  0  0  0
  -27.2560  -13.0290   20.0450 N   0  0  0  0  0  0  0  0  0  0  0  0
  -26.8230  -11.7640   20.2670 N   0  0  0  0  0  0  0  0  0  0  0  0
  -24.7640  -10.6490   20.8280 C   0  0  0  0  0  0  0  0  0  0  0  0
  -25.1320   -9.6600   21.7660 C   0  0  0  0  0  3  0  0  0  0  0  0
  -24.3440   -8.5000   21.9320 C   0  0  0  0  0  3  0  0  0  0  0  0
  -23.1750   -8.3240   21.1560 C   0  0  0  0  0  0  0  0  0  0  0  0
  -22.8250   -9.3000   20.2060 C   0  0  0  0  0  3  0  0  0  0  0  0
  -23.6130  -10.4490   20.0400 C   0  0  0  0  0  3  0  0  0  0  0  0
  -22.3620   -7.2170   21.2280 O   0  0  0  0  0  0  0  0  0  0  0  0
  -21.9670   -6.6930   22.4330 C   0  0  0  0  0  0  0  0  0  0  0  0
  -21.3000   -7.4750   23.4000 C   0  0  0  0  0  3  0  0  0  0  0  0
  -20.8510   -6.8800   24.5980 C   0  0  0  0  0  3  0  0  0  0  0  0
  -21.0550   -5.5060   24.8220 C   0  0  0  0  0  0  0  0  0  0  0  0
  -21.7130   -4.7240   23.8550 C   0  0  0  0  0  3  0  0  0  0  0  0
  -22.1660   -5.3170   22.6640 C   0  0  0  0  0  0  0  0  0  0  0  0
  -22.7810   -4.5560   21.7260 F   0  0  0  0  0  0  0  0  0  0  0  0
  -20.6150   -4.9320   25.9660 F   0  0  0  0  0  0  0  0  0  0  0  0
  -23.8410  -13.7970   21.1360 C   0  0  0  0  0  0  0  0  0  0  0  0
  -23.0820  -13.0690   21.9460 N   0  0  0  0  0  0  0  0  0  0  0  0
  -23.4720  -14.9040   20.7440 O   0  0  0  0  0  0  0  0  0  0  0  0
  -23.3920  -12.1710   22.2850 H   0  0  0  0  0  0  0  0  0  0  0  0
  -22.1790  -13.4190   22.2370 H   0  0  0  0  0  0  0  0  0  0  0  0
  -26.5290  -15.3290   20.2430 N   0  0  0  0  0  0  0  0  0  0  0  0
  -25.7980  -16.0190   20.3780 H   0  0  0  0  0  0  0  0  0  0  0  0
  -27.3660  -15.7300   19.8410 H   0  0  0  0  0  0  0  0  0  0  0  0
  1  5  1  0
  1  3  2  0
  2  1  1  0
  4  2  1  0
  5  6  1  0
  6  8  1  0
  6  9  1  0
  7  5  2  0
 10  9  1  0
 11 10  1  0
 12 11  1  0
 13 12  1  0
 14 16  1  0
 14 13  1  0
 15 26  2  0
 16 21  1  0
 17 27  1  0
 17 25  1  0
 18 24  1  0
 18 20  1  0
 19 25  1  0
 20 19  1  0
 21 20  2  0
 22 23  1  0
 22 16  2  0
 23 18  2  0
 24 17  1  0
 25 15  1  0
 27 29  2  0
 28 27  1  0
 30 28  1  0
 31 40  2  0
 31 36  1  0
 32 28  1  0
 32 36  1  0
 33 32  1  0
 34 35  1  0
 34 33  1  0
 35 31  1  0
 36 37  2  0
 37 38  1  0
 39 38  2  0
 40 39  1  0
 41 15  1  0
 41 46  1  0
 41 42  1  0
 42 45  1  1
 42 43  1  0
 44 42  1  0
 46 49  1  0
 47 46  1  0
 47 51  1  0
 48 47  2  0
 51 50  1  0
 51 53  1  0
 53 54  1  0
 53 52  1  0
 55  2  1  0
 56 55  1  0
 57 56  1  0
 58 57  1  0
 59 60  1  0
 59 58  1  0
 60 61  1  0
 61 62  1  0
 62 63  1  0
 63 64  1  0
 64 74  1  0
 65 74  1  0
 66 71  1  0
 67 68  1  0
 67 66  1  0
 69 68  1  0
 69 78  1  0
 69 70  1  0
 71 65  1  0
 71 70  1  0
 72 65  2  0
 74 73  1  0
 75 76  2  0
 76 95  1  0
 77 76  1  0
 77 80  1  0
 78 79  1  0
 78 75  1  0
 79 77  2  0
 80 81  1  0
 81 82  2  0
 83 86  1  0
 83 82  1  0
 84 83  2  0
 85 84  1  0
 85 80  2  0
 86 87  1  0
 87 92  2  0
 87 88  1  0
 88 89  2  0
 89 90  1  0
 90 94  1  0
 91 90  2  0
 92 91  1  0
 93 92  1  0
 95 96  1  0
 96 99  1  0
 96 98  1  0
 97 95  2  0
100 75  1  0
100101  1  0
102100  1  0
M  ISO  4  13 101  14 101  65 100  74 100
M  END
>  <TORSDO>  (22) 
F 32

>  <SCORE>  (22) 
-6.309

>  <name>  (22) 
24

>  <ligand_id>  (22) 
24

>  <original_smiles>  (22) 
[H]c1c([H])c([H])c2c(c1[H])C([H])([H])C([H])([H])C([H])([H])C2([H])N([H])C(=O)C1([H])N(C(=O)C([H])(N([H])C(=O)C([H])(N([H])C([H])([H])[H])C([H])([H])[H])C(C([H])([H])[H])(C([H])([H])[H])C([H])([H])[H])C([H])([H])c2c([H])c(OC([H])([H])C([H])([H])OC([H])([H])C([H])([H])N([H])C(=O)C(=O)N([H])C([H])([H])C([H])([H])C([H])([H])OC([H])([H])C([H])([H])OC([H])([H])C([H])([H])C([H])([H])N(C(=O)N3C([H])([H])C([H])([H])C([H])([H])C([H])(n4nc(-c5c([H])c([H])c(Oc6c([H])c([H])c(F)c([H])c6F)c([H])c5[H])c(C(=O)N([H])[H])c4N([H])[H])C3([H])[H])C([H])([H])[H])c([H])c([H])c2C1([H])[H]

>  <smiles>  (22) 
[H]c1c([H])c([H])c2c(c1[H])C([H])([H])C([H])([H])C([H])([H])C2([H])N([H])C(=O)C1([H])N(C(=O)C([H])(N([H])C(=O)C([H])(N([H])C([H])([H])[H])C([H])([H])[H])C(C([H])([H])[H])(C([H])([H])[H])C([H])([H])[H])C([H])([H])c2c([H])c(OC([H])([H])C([H])([H])OC([H])([H])C([H])([H])N([H])C(=O)C(=O)N([H])C([H])([H])C([H])([H])C([H])([H])OC([H])([H])C([H])([H])OC([H])([H])C([H])([H])C([H])([H])N(C(=O)N3C([H])([H])C([H])([H])C([H])([H])C([H])(n4nc(-c5c([H])c([H])c(Oc6c([H])c([H])c(F)c([H])c6F)c([H])c5[H])c(C(=O)N([H])[H])c4N([H])[H])C3([H])[H])C([H])([H])[H])c([H])c([H])c2C1([H])[H]

$$$$
25:0:0
     RDKit          3D

100107  0  0  1  0  0  0  0  0999 V2000
  -30.5060  -18.6900   23.4020 C   0  0  0  0  0  2  0  0  0  0  0  0
  -30.1900  -19.1010   22.0770 O   0  0  0  0  0  0  0  0  0  0  0  0
  -29.3900  -20.2780   22.0640 C   0  0  0  0  0  2  0  0  0  0  0  0
  -29.0090  -20.6470   20.6250 C   0  0  0  0  0  2  0  0  0  0  0  0
  -28.0640  -21.8630   20.5610 C   0  0  0  0  0  2  0  0  0  0  0  0
  -27.9470  -22.4810   19.1630 C   0  0  0  0  0  2  0  0  0  0  0  0
  -29.1570  -23.1800   18.9200 O   0  0  0  0  0  0  0  0  0  0  0  0
  -29.1430  -24.0350   17.7850 C   0  0  0  0  0  2  0  0  0  0  0  0
  -28.2780  -25.2920   18.0080 C   0  0  0  0  0  2  0  0  0  0  0  0
  -28.3150  -25.8310   19.4500 C   0  0  0  0  0  2  0  0  0  0  0  0
  -28.2250  -27.2490   19.5080 O   0  0  0  0  0  0  0  0  0  0  0  0
  -24.5300  -31.9760   23.2790 C   0  0  0  0  0  0  0  0  0  0  0  0
  -27.0010  -27.8600   19.6630 C   0  0  0  0  0  0  0  0  0  0  0  0
  -23.2230  -30.7120   21.5950 C   0  0  0  0  0  3  0  0  0  0  0  0
  -24.5890  -29.3030   19.9650 C   0  0  0  0  0  0  0  0  0  0  0  0
  -25.7280  -31.1070   21.2750 C   0  0  0  0  0  2  0  0  0  0  0  0
  -25.7760  -29.7960   20.5180 C   0  0  0  0  0  0  0  0  0  0  0  0
  -26.9830  -29.0850   20.3590 C   0  0  0  0  0  3  0  0  0  0  0  0
  -25.7930  -27.3540   19.1280 C   0  0  0  0  0  3  0  0  0  0  0  0
  -24.5900  -28.0790   19.2690 C   0  0  0  0  0  3  0  0  0  0  0  0
  -23.3480  -30.1480   20.1550 C   0  0  0  0  0  2  0  0  0  0  0  0
  -24.5150  -31.2740   22.1090 N   0  0  0  0  0  0  0  0  0  0  0  0
  -23.4850  -32.1970   23.9070 O   0  0  0  0  0  0  0  0  0  0  0  0
  -22.6320  -29.6120   22.5050 C   0  0  0  0  0  0  0  0  0  0  0  0
  -21.3160  -29.3790   22.3770 N   0  0  0  0  0  0  0  0  0  0  0  0
  -23.3520  -28.9720   23.2740 O   0  0  0  0  0  0  0  0  0  0  0  0
  -20.7920  -29.9570   21.7360 H   0  0  0  0  0  0  0  0  0  0  0  0
  -18.0250  -27.9420   22.7590 C   0  0  0  0  0  0  0  0  0  0  0  0
  -20.5520  -28.3630   23.0970 C   0  0  0  0  0  3  0  0  0  0  0  0
  -20.7620  -26.9620   22.4810 C   0  0  0  0  0  2  0  0  0  0  0  0
  -19.7080  -26.5970   21.4300 C   0  0  0  0  0  2  0  0  0  0  0  0
  -18.3060  -26.6280   22.0470 C   0  0  0  0  0  2  0  0  0  0  0  0
  -19.0790  -28.7630   23.2390 C   0  0  0  0  0  0  0  0  0  0  0  0
  -18.7650  -29.9890   23.8630 C   0  0  0  0  0  3  0  0  0  0  0  0
  -17.4260  -30.3990   24.0120 C   0  0  0  0  0  3  0  0  0  0  0  0
  -16.3850  -29.5760   23.5510 C   0  0  0  0  0  3  0  0  0  0  0  0
  -16.6840  -28.3480   22.9310 C   0  0  0  0  0  3  0  0  0  0  0  0
  -25.8550  -32.5550   23.8700 C   0  0  0  0  0  3  0  0  0  0  0  0
  -25.6120  -33.9640   24.2050 N   0  0  0  0  0  0  0  0  0  0  0  0
  -25.9840  -35.0010   23.4430 C   0  0  0  0  0  0  0  0  0  0  0  0
  -26.6410  -34.8670   22.4060 O   0  0  0  0  0  0  0  0  0  0  0  0
  -25.0320  -34.1460   25.0120 H   0  0  0  0  0  0  0  0  0  0  0  0
  -24.3340  -36.8700   23.1010 C   0  0  0  0  0  1  0  0  0  0  0  0
  -25.5600  -36.4080   23.9050 C   0  0  0  0  0  3  0  0  0  0  0  0
  -27.7360  -37.1910   24.7310 C   0  0  0  0  0  1  0  0  0  0  0  0
  -26.6380  -37.4140   23.7930 N   0  0  0  0  0  0  0  0  0  0  0  0
  -26.2730  -38.3510   23.9500 H   0  0  0  0  0  0  0  0  0  0  0  0
  -26.3770  -31.7620   25.1330 C   0  0  1  0  0  0  0  0  0  0  0  0
  -25.3020  -31.5460   26.2220 C   0  0  0  0  0  1  0  0  0  0  0  0
  -26.9160  -30.3740   24.7200 C   0  0  0  0  0  1  0  0  0  0  0  0
  -27.5580  -32.5260   25.7800 C   0  0  0  0  0  1  0  0  0  0  0  0
  -31.7750  -17.8190   23.4250 C   0  0  0  0  0  2  0  0  0  0  0  0
  -31.3940  -16.0690   21.6970 C   0  0  0  0  0  0  0  0  0  0  0  0
  -31.5130  -16.4570   22.9730 N   0  0  0  0  0  0  0  0  0  0  0  0
  -31.5320  -16.8470   20.7500 O   0  0  0  0  0  0  0  0  0  0  0  0
  -31.3810  -15.7600   23.6940 H   0  0  0  0  0  0  0  0  0  0  0  0
  -31.0290  -14.5900   21.4630 C   0  0  0  0  0  3  0  0  0  0  0  0
  -29.5280  -14.3820   19.4600 C   0  0  0  0  0  0  0  0  0  0  0  0
  -28.8550  -12.5540   17.9620 C   0  0  0  0  0  2  0  0  0  0  0  0
  -27.6050  -12.8320   17.1180 C   0  0  0  0  0  2  0  0  0  0  0  0
  -26.3330  -12.4690   17.9070 C   0  0  0  0  0  2  0  0  0  0  0  0
  -26.3120  -13.1040   19.3200 C   0  0  0  0  0  3  0  0  0  0  0  0
  -27.6360  -12.8450   20.0660 C   0  0  0  0  0  2  0  0  0  0  0  0
  -28.7480  -13.3070   19.2160 N   0  0  0  0  0  0  0  0  0  0  0  0
  -30.1660  -14.9860   18.5930 O   0  0  0  0  0  0  0  0  0  0  0  0
  -29.7390  -14.5630   20.7640 N   0  0  0  0  0  0  0  0  0  0  0  0
  -29.0250  -14.1270   21.3240 H   0  0  0  0  0  0  0  0  0  0  0  0
  -24.1450  -13.3630   20.6830 C   0  0  0  0  0  0  0  0  0  0  0  0
  -23.2900  -12.4420   21.2210 C   0  0  0  0  0  0  0  0  0  0  0  0
  -23.8490  -11.1600   20.9200 C   0  0  0  0  0  0  0  0  0  0  0  0
  -25.1670  -12.6350   20.0950 N   0  0  0  0  0  0  0  0  0  0  0  0
  -25.0080  -11.3000   20.2910 N   0  0  0  0  0  0  0  0  0  0  0  0
  -23.3200   -9.8090   21.1440 C   0  0  0  0  0  0  0  0  0  0  0  0
  -23.9230   -8.9210   22.0620 C   0  0  0  0  0  3  0  0  0  0  0  0
  -23.3840   -7.6330   22.2710 C   0  0  0  0  0  3  0  0  0  0  0  0
  -22.2300   -7.2220   21.5620 C   0  0  0  0  0  0  0  0  0  0  0  0
  -21.6490   -8.1020   20.6310 C   0  0  0  0  0  3  0  0  0  0  0  0
  -22.1880   -9.3810   20.4200 C   0  0  0  0  0  3  0  0  0  0  0  0
  -21.6510   -5.9820   21.6810 O   0  0  0  0  0  0  0  0  0  0  0  0
  -21.6150   -5.3180   22.8810 C   0  0  0  0  0  0  0  0  0  0  0  0
  -21.0040   -5.8790   24.0250 C   0  0  0  0  0  3  0  0  0  0  0  0
  -20.9270   -5.1340   25.2190 C   0  0  0  0  0  3  0  0  0  0  0  0
  -21.4500   -3.8270   25.2690 C   0  0  0  0  0  0  0  0  0  0  0  0
  -22.0530   -3.2660   24.1310 C   0  0  0  0  0  3  0  0  0  0  0  0
  -22.1320   -4.0080   22.9390 C   0  0  0  0  0  0  0  0  0  0  0  0
  -22.6950   -3.4550   21.8380 F   0  0  0  0  0  0  0  0  0  0  0  0
  -21.3690   -3.1090   26.4130 F   0  0  0  0  0  0  0  0  0  0  0  0
  -21.9760  -12.7210   21.8920 C   0  0  0  0  0  0  0  0  0  0  0  0
  -21.6000  -11.9040   22.8690 N   0  0  0  0  0  0  0  0  0  0  0  0
  -21.2980  -13.7010   21.5830 O   0  0  0  0  0  0  0  0  0  0  0  0
  -22.1640  -11.1110   23.1350 H   0  0  0  0  0  0  0  0  0  0  0  0
  -20.7330  -12.0720   23.3590 H   0  0  0  0  0  0  0  0  0  0  0  0
  -24.1330  -14.7550   20.6260 N   0  0  0  0  0  0  0  0  0  0  0  0
  -23.3710  -15.3100   21.0000 H   0  0  0  0  0  0  0  0  0  0  0  0
  -24.8320  -15.3100   20.1480 H   0  0  0  0  0  0  0  0  0  0  0  0
  -32.2250  -13.7930   20.8460 C   0  0  0  0  0  0  0  0  0  0  0  0
  -33.3310  -13.6260   21.5620 N   0  0  0  0  0  0  0  0  0  0  0  0
  -32.1360  -13.1890   19.7750 O   0  0  0  0  0  0  0  0  0  0  0  0
  -33.4240  -14.0140   22.4900 H   0  0  0  0  0  0  0  0  0  0  0  0
  -34.0880  -13.0730   21.1860 H   0  0  0  0  0  0  0  0  0  0  0  0
  1 52  1  0
  2  1  1  0
  3  2  1  0
  4  3  1  0
  5  4  1  0
  6  5  1  0
  7  6  1  0
  8  9  1  0
  8  7  1  0
  9 10  1  0
 10 11  1  0
 11 13  1  0
 12 23  2  0
 13 18  1  0
 14 22  1  0
 14 24  1  0
 15 21  1  0
 15 17  1  0
 16 22  1  0
 17 16  1  0
 18 17  2  0
 19 20  1  0
 19 13  2  0
 20 15  2  0
 21 14  1  0
 22 12  1  0
 24 26  2  0
 25 24  1  0
 27 25  1  0
 28 37  2  0
 28 33  1  0
 29 25  1  0
 29 33  1  0
 30 29  1  0
 31 32  1  0
 31 30  1  0
 32 28  1  0
 33 34  2  0
 34 35  1  0
 36 35  2  0
 37 36  1  0
 38 12  1  0
 38 39  1  0
 38 48  1  0
 39 42  1  0
 40 44  1  0
 40 39  1  0
 41 40  2  0
 44 43  1  0
 46 44  1  0
 46 47  1  0
 46 45  1  0
 48 51  1  1
 48 49  1  0
 50 48  1  0
 53 54  1  0
 54 52  1  0
 54 56  1  0
 55 53  2  0
 57 96  1  0
 57 53  1  0
 58 66  1  0
 59 64  1  0
 60 61  1  0
 60 59  1  0
 62 61  1  0
 62 63  1  0
 62 71  1  0
 64 58  1  0
 64 63  1  0
 65 58  2  0
 66 67  1  0
 66 57  1  0
 68 69  2  0
 69 88  1  0
 70 73  1  0
 70 69  1  0
 71 72  1  0
 71 68  1  0
 72 70  2  0
 73 74  1  0
 74 75  2  0
 76 79  1  0
 76 75  1  0
 77 76  2  0
 78 77  1  0
 78 73  2  0
 79 80  1  0
 80 85  2  0
 80 81  1  0
 81 82  2  0
 82 83  1  0
 83 87  1  0
 84 83  2  0
 85 84  1  0
 86 85  1  0
 88 89  1  0
 89 91  1  0
 89 92  1  0
 90 88  2  0
 93 68  1  0
 93 94  1  0
 95 93  1  0
 96 97  1  0
 97 99  1  0
 98 96  2  0
100 97  1  0
M  ISO  4  10 101  11 101  58 100  66 100
M  END
>  <TORSDO>  (23) 
F 29

>  <SCORE>  (23) 
-4.538

>  <name>  (23) 
25

>  <ligand_id>  (23) 
25

>  <original_smiles>  (23) 
[H]c1c([H])c([H])c2c(c1[H])C([H])([H])C([H])([H])C([H])([H])C2([H])N([H])C(=O)C1([H])N(C(=O)C([H])(N([H])C(=O)C([H])(N([H])C([H])([H])[H])C([H])([H])[H])C(C([H])([H])[H])(C([H])([H])[H])C([H])([H])[H])C([H])([H])c2c([H])c(OC([H])([H])C([H])([H])C([H])([H])OC([H])([H])C([H])([H])C([H])([H])C([H])([H])OC([H])([H])C([H])([H])N([H])C(=O)C([H])(C(=O)N([H])[H])N([H])C(=O)N3C([H])([H])C([H])([H])C([H])([H])C([H])(n4nc(-c5c([H])c([H])c(Oc6c([H])c([H])c(F)c([H])c6F)c([H])c5[H])c(C(=O)N([H])[H])c4N([H])[H])C3([H])[H])c([H])c([H])c2C1([H])[H]

>  <smiles>  (23) 
[H]c1c([H])c([H])c2c(c1[H])C([H])([H])C([H])([H])C([H])([H])C2([H])N([H])C(=O)C1([H])N(C(=O)C([H])(N([H])C(=O)C([H])(N([H])C([H])([H])[H])C([H])([H])[H])C(C([H])([H])[H])(C([H])([H])[H])C([H])([H])[H])C([H])([H])c2c([H])c(OC([H])([H])C([H])([H])C([H])([H])OC([H])([H])C([H])([H])C([H])([H])C([H])([H])OC([H])([H])C([H])([H])N([H])C(=O)C([H])(C(=O)N([H])[H])N([H])C(=O)N3C([H])([H])C([H])([H])C([H])([H])C([H])(n4nc(-c5c([H])c([H])c(Oc6c([H])c([H])c(F)c([H])c6F)c([H])c5[H])c(C(=O)N([H])[H])c4N([H])[H])C3([H])[H])c([H])c([H])c2C1([H])[H]

$$$$
26:0:0
     RDKit          3D

 99106  0  0  1  0  0  0  0  0999 V2000
  -30.2610  -17.7760   20.4400 C   0  0  0  0  0  0  0  0  0  0  0  0
  -29.7980  -16.5500   20.1980 N   0  0  0  0  0  0  0  0  0  0  0  0
  -30.8410  -18.0860   21.4820 O   0  0  0  0  0  0  0  0  0  0  0  0
  -29.3800  -16.4070   19.2900 H   0  0  0  0  0  0  0  0  0  0  0  0
  -29.6200  -19.9680   19.6990 C   0  0  0  0  0  3  0  0  0  0  0  0
  -29.8760  -18.6840   19.3850 C   0  0  0  0  0  3  0  0  0  0  0  0
  -29.1500  -20.8960   18.6960 C   0  0  0  0  0  0  0  0  0  0  0  0
  -28.7640  -22.0470   19.2530 N   0  0  0  0  0  0  0  0  0  0  0  0
  -29.0620  -20.6720   17.4880 O   0  0  0  0  0  0  0  0  0  0  0  0
  -28.8650  -22.1390   20.2540 H   0  0  0  0  0  0  0  0  0  0  0  0
  -28.0900  -23.1450   18.5740 C   0  0  0  0  0  2  0  0  0  0  0  0
  -28.9590  -23.7990   17.4850 C   0  0  0  0  0  2  0  0  0  0  0  0
  -29.2110  -25.1590   17.8120 O   0  0  0  0  0  0  0  0  0  0  0  0
  -25.7540  -29.3000   22.3930 C   0  0  0  0  0  0  0  0  0  0  0  0
  -28.1600  -26.0340   17.9690 C   0  0  0  0  0  0  0  0  0  0  0  0
  -24.6950  -29.0700   20.1670 C   0  0  0  0  0  3  0  0  0  0  0  0
  -26.1110  -27.9360   18.3800 C   0  0  0  0  0  0  0  0  0  0  0  0
  -27.2220  -28.8210   20.4370 C   0  0  0  0  0  2  0  0  0  0  0  0
  -27.1880  -27.8610   19.2700 C   0  0  0  0  0  0  0  0  0  0  0  0
  -28.2140  -26.9170   19.0660 C   0  0  0  0  0  3  0  0  0  0  0  0
  -27.0610  -26.1100   17.0820 C   0  0  0  0  0  3  0  0  0  0  0  0
  -26.0390  -27.0580   17.2830 C   0  0  0  0  0  3  0  0  0  0  0  0
  -25.0670  -28.9900   18.6620 C   0  0  0  0  0  2  0  0  0  0  0  0
  -25.8980  -29.0480   21.0620 N   0  0  0  0  0  0  0  0  0  0  0  0
  -24.6500  -29.5940   22.8720 O   0  0  0  0  0  0  0  0  0  0  0  0
  -23.6750  -27.9540   20.4820 C   0  0  0  0  0  0  0  0  0  0  0  0
  -22.3810  -28.3100   20.4740 N   0  0  0  0  0  0  0  0  0  0  0  0
  -24.0470  -26.7970   20.6970 O   0  0  0  0  0  0  0  0  0  0  0  0
  -22.1570  -29.2800   20.2970 H   0  0  0  0  0  0  0  0  0  0  0  0
  -18.8730  -28.2380   21.3320 C   0  0  0  0  0  0  0  0  0  0  0  0
  -21.2430  -27.4200   20.7030 C   0  0  0  0  0  3  0  0  0  0  0  0
  -20.6180  -26.9600   19.3660 C   0  0  0  0  0  2  0  0  0  0  0  0
  -19.4620  -27.8500   18.9010 C   0  0  0  0  0  2  0  0  0  0  0  0
  -18.3490  -27.8760   19.9520 C   0  0  0  0  0  2  0  0  0  0  0  0
  -20.2350  -28.0390   21.6790 C   0  0  0  0  0  0  0  0  0  0  0  0
  -20.6800  -28.4240   22.9620 C   0  0  0  0  0  3  0  0  0  0  0  0
  -19.7890  -28.9960   23.8900 C   0  0  0  0  0  3  0  0  0  0  0  0
  -18.4390  -29.1760   23.5470 C   0  0  0  0  0  3  0  0  0  0  0  0
  -17.9820  -28.7940   22.2730 C   0  0  0  0  0  3  0  0  0  0  0  0
  -26.9690  -29.2540   23.3720 C   0  0  0  0  0  3  0  0  0  0  0  0
  -27.3660  -27.7890   23.8020 C   0  0  1  0  0  0  0  0  0  0  0  0
  -26.1600  -26.9100   24.2090 C   0  0  0  0  0  1  0  0  0  0  0  0
  -28.1100  -27.0690   22.6520 C   0  0  0  0  0  1  0  0  0  0  0  0
  -28.3450  -27.8400   24.9990 C   0  0  0  0  0  1  0  0  0  0  0  0
  -26.6200  -30.0640   24.5460 N   0  0  0  0  0  0  0  0  0  0  0  0
  -27.1240  -31.2770   24.8110 C   0  0  0  0  0  0  0  0  0  0  0  0
  -28.0000  -31.8030   24.1170 O   0  0  0  0  0  0  0  0  0  0  0  0
  -25.8680  -29.7210   25.1260 H   0  0  0  0  0  0  0  0  0  0  0  0
  -25.6140  -33.1360   25.5760 C   0  0  0  0  0  1  0  0  0  0  0  0
  -26.5710  -32.0270   26.0380 C   0  0  0  0  0  3  0  0  0  0  0  0
  -28.4160  -31.5990   27.5990 C   0  0  0  0  0  1  0  0  0  0  0  0
  -27.6260  -32.6070   26.8970 N   0  0  0  0  0  0  0  0  0  0  0  0
  -27.2240  -33.2340   27.5890 H   0  0  0  0  0  0  0  0  0  0  0  0
  -29.4340  -15.5800   21.2310 C   0  0  0  0  0  3  0  0  0  0  0  0
  -27.1090  -15.5070   22.2680 C   0  0  0  0  0  3  0  0  0  0  0  0
  -27.9180  -15.4400   21.1970 C   0  0  0  0  0  3  0  0  0  0  0  0
  -25.6040  -15.3520   22.2040 C   0  0  0  0  0  1  0  0  0  0  0  0
  -30.1270  -14.2000   21.0500 C   0  0  0  0  0  3  0  0  0  0  0  0
  -31.0630  -12.9290   19.0080 C   0  0  0  0  0  0  0  0  0  0  0  0
  -30.3560  -10.8140   17.9590 C   0  0  0  0  0  2  0  0  0  0  0  0
  -29.1480  -11.0750   17.0330 C   0  0  0  0  0  2  0  0  0  0  0  0
  -27.8110  -11.0660   17.8080 C   0  0  0  0  0  2  0  0  0  0  0  0
  -27.8720  -11.9070   19.1110 C   0  0  0  0  0  3  0  0  0  0  0  0
  -29.1310  -11.4900   19.8990 C   0  0  0  0  0  2  0  0  0  0  0  0
  -30.3000  -11.7950   19.0580 N   0  0  0  0  0  0  0  0  0  0  0  0
  -31.9810  -13.0640   18.1960 O   0  0  0  0  0  0  0  0  0  0  0  0
  -30.6790  -14.0220   19.7010 N   0  0  0  0  0  0  0  0  0  0  0  0
  -31.1250  -14.8640   19.3630 H   0  0  0  0  0  0  0  0  0  0  0  0
  -25.8940  -12.7380   20.5370 C   0  0  0  0  0  0  0  0  0  0  0  0
  -24.8220  -12.0810   21.0810 C   0  0  0  0  0  0  0  0  0  0  0  0
  -24.9790  -10.7070   20.7240 C   0  0  0  0  0  0  0  0  0  0  0  0
  -26.6520  -11.7660   19.9020 N   0  0  0  0  0  0  0  0  0  0  0  0
  -26.1120  -10.5310   20.0570 N   0  0  0  0  0  0  0  0  0  0  0  0
  -24.0890   -9.5590   20.9290 C   0  0  0  0  0  0  0  0  0  0  0  0
  -24.2350   -8.7080   22.0460 C   0  0  0  0  0  3  0  0  0  0  0  0
  -23.3600   -7.6160   22.2330 C   0  0  0  0  0  3  0  0  0  0  0  0
  -22.3240   -7.3710   21.3010 C   0  0  0  0  0  0  0  0  0  0  0  0
  -22.1980   -8.2080   20.1780 C   0  0  0  0  0  3  0  0  0  0  0  0
  -23.0730   -9.2910   19.9910 C   0  0  0  0  0  3  0  0  0  0  0  0
  -21.4420   -6.3220   21.3890 O   0  0  0  0  0  0  0  0  0  0  0  0
  -20.7880   -6.0270   22.5580 C   0  0  0  0  0  0  0  0  0  0  0  0
  -19.8860   -6.9330   23.1570 C   0  0  0  0  0  3  0  0  0  0  0  0
  -19.1830   -6.5600   24.3200 C   0  0  0  0  0  3  0  0  0  0  0  0
  -19.3740   -5.2810   24.8790 C   0  0  0  0  0  0  0  0  0  0  0  0
  -20.2680   -4.3770   24.2800 C   0  0  0  0  0  3  0  0  0  0  0  0
  -20.9710   -4.7470   23.1210 C   0  0  0  0  0  0  0  0  0  0  0  0
  -21.8150   -3.8650   22.5340 F   0  0  0  0  0  0  0  0  0  0  0  0
  -18.6930   -4.9190   25.9920 F   0  0  0  0  0  0  0  0  0  0  0  0
  -23.6630  -12.7020   21.8080 C   0  0  0  0  0  0  0  0  0  0  0  0
  -23.0550  -11.9700   22.7350 N   0  0  0  0  0  0  0  0  0  0  0  0
  -23.3180  -13.8630   21.5900 O   0  0  0  0  0  0  0  0  0  0  0  0
  -23.3500  -11.0240   22.9330 H   0  0  0  0  0  0  0  0  0  0  0  0
  -22.2850  -12.3620   23.2590 H   0  0  0  0  0  0  0  0  0  0  0  0
  -26.2730  -14.0770   20.5150 N   0  0  0  0  0  0  0  0  0  0  0  0
  -25.6750  -14.8040   20.8900 H   0  0  0  0  0  0  0  0  0  0  0  0
  -27.0510  -14.4360   19.9780 H   0  0  0  0  0  0  0  0  0  0  0  0
  -31.2160  -13.9340   22.1230 C   0  0  0  0  0  2  0  0  0  0  0  0
  -32.8210  -12.0040   21.8010 C   0  0  0  0  0  2  0  0  0  0  0  0
  -31.6480  -12.4840   22.2400 C   0  0  0  0  0  3  0  0  0  0  0  0
  1  3  2  0
  2  1  1  0
  2 54  1  0
  4  2  1  0
  6  5  2  0
  6  1  1  0
  7  8  1  0
  7  5  1  0
  8 10  1  0
  9  7  2  0
 11  8  1  0
 12 13  1  0
 12 11  1  0
 13 15  1  0
 14 25  2  0
 15 20  1  0
 16 26  1  0
 16 24  1  0
 17 23  1  0
 17 19  1  0
 18 24  1  0
 19 18  1  0
 20 19  2  0
 21 22  1  0
 21 15  2  0
 22 17  2  0
 23 16  1  0
 24 14  1  0
 26 28  2  0
 27 26  1  0
 29 27  1  0
 30 35  2  0
 30 39  1  0
 31 27  1  0
 31 35  1  0
 32 31  1  0
 33 32  1  0
 33 34  1  0
 34 30  1  0
 35 36  1  0
 36 37  2  0
 38 37  1  0
 39 38  2  0
 40 14  1  0
 40 41  1  0
 40 45  1  0
 41 42  1  1
 41 44  1  0
 43 41  1  0
 45 46  1  0
 45 48  1  0
 46 50  1  0
 47 46  2  0
 50 49  1  0
 50 52  1  0
 52 53  1  0
 52 51  1  0
 54 56  1  0
 56 55  2  0
 57 55  1  0
 58 54  1  0
 58 97  1  0
 59 65  1  0
 59 67  1  0
 60 65  1  0
 61 62  1  0
 61 60  1  0
 63 62  1  0
 63 64  1  0
 63 72  1  0
 65 64  1  0
 66 59  2  0
 67 58  1  0
 68 67  1  0
 69 70  2  0
 70 89  1  0
 71 74  1  0
 71 70  1  0
 72 73  1  0
 72 69  1  0
 73 71  2  0
 74 75  1  0
 75 76  2  0
 77 80  1  0
 77 76  1  0
 78 77  2  0
 79 78  1  0
 79 74  2  0
 80 81  1  0
 81 86  2  0
 81 82  1  0
 82 83  2  0
 83 84  1  0
 84 88  1  0
 85 84  2  0
 86 85  1  0
 87 86  1  0
 89 90  1  0
 90 92  1  0
 90 93  1  0
 91 89  2  0
 94 69  1  0
 94 95  1  0
 96 94  1  0
 97 99  1  0
 98 99  2  0
M  ISO  4  12 101  13 101  59 100  67 100
M  END
>  <TORSDO>  (24) 
F 25

>  <SCORE>  (24) 
2.935

>  <name>  (24) 
26

>  <ligand_id>  (24) 
26

>  <original_smiles>  (24) 
[H]C([H])=C([H])C([H])([H])C([H])(N([H])C(=O)N1C([H])([H])C([H])([H])C([H])([H])C([H])(n2nc(-c3c([H])c([H])c(Oc4c([H])c([H])c(F)c([H])c4F)c([H])c3[H])c(C(=O)N([H])[H])c2N([H])[H])C1([H])[H])C([H])(C([H])=C([H])C([H])([H])[H])N([H])C(=O)C([H])=C([H])C(=O)N([H])C([H])([H])C([H])([H])Oc1c([H])c([H])c2c(c1[H])C([H])([H])N(C(=O)C([H])(N([H])C(=O)C([H])(N([H])C([H])([H])[H])C([H])([H])[H])C(C([H])([H])[H])(C([H])([H])[H])C([H])([H])[H])C([H])(C(=O)N([H])C1([H])c3c([H])c([H])c([H])c([H])c3C([H])([H])C([H])([H])C1([H])[H])C2([H])[H]

>  <smiles>  (24) 
[H]C([H])=C([H])C([H])([H])C([H])(N([H])C(=O)N1C([H])([H])C([H])([H])C([H])([H])C([H])(n2nc(-c3c([H])c([H])c(Oc4c([H])c([H])c(F)c([H])c4F)c([H])c3[H])c(C(=O)N([H])[H])c2N([H])[H])C1([H])[H])C([H])(C([H])=C([H])C([H])([H])[H])N([H])C(=O)C([H])=C([H])C(=O)N([H])C([H])([H])C([H])([H])Oc1c([H])c([H])c2c(c1[H])C([H])([H])N(C(=O)C([H])(N([H])C(=O)C([H])(N([H])C([H])([H])[H])C([H])([H])[H])C(C([H])([H])[H])(C([H])([H])[H])C([H])([H])[H])C([H])(C(=O)N([H])C1([H])c3c([H])c([H])c([H])c([H])c3C([H])([H])C([H])([H])C1([H])[H])C2([H])[H]

$$$$
27:0:0
     RDKit          3D

120127  0  0  1  0  0  0  0  0999 V2000
  -27.8460  -20.6700   17.2420 C   0  0  0  0  0  0  0  0  0  0  0  0
  -26.5410  -20.7060   16.9420 N   0  0  0  0  0  0  0  0  0  0  0  0
  -28.7200  -20.6860   16.3730 O   0  0  0  0  0  0  0  0  0  0  0  0
  -25.8720  -20.6370   17.6950 H   0  0  0  0  0  0  0  0  0  0  0  0
  -29.5930  -19.9340   18.9470 C   0  0  0  0  0  1  0  0  0  0  0  0
  -28.2240  -20.6190   18.7410 C   0  0  0  0  0  3  0  0  0  0  0  0
  -28.1340  -22.0180   19.4240 C   0  0  0  0  0  3  0  0  0  0  0  0
  -28.9340  -23.9410   18.0240 C   0  0  0  0  0  0  0  0  0  0  0  0
  -29.1320  -22.9490   18.9000 N   0  0  0  0  0  0  0  0  0  0  0  0
  -27.8480  -24.1970   17.4970 O   0  0  0  0  0  0  0  0  0  0  0  0
  -30.0930  -22.8800   19.2180 H   0  0  0  0  0  0  0  0  0  0  0  0
  -30.2140  -24.7230   17.7790 C   0  0  0  0  0  0  0  0  0  0  0  0
  -30.0670  -25.9830   16.9290 C   0  0  0  0  0  1  0  0  0  0  0  0
  -31.3270  -24.3360   18.2940 N   0  0  0  0  0  0  0  0  0  0  0  0
  -32.5410  -25.1370   18.2120 C   0  0  0  0  0  2  0  0  0  0  0  0
  -32.7400  -25.9490   19.5080 C   0  0  0  0  0  2  0  0  0  0  0  0
  -31.6110  -26.7800   19.7650 O   0  0  0  0  0  0  0  0  0  0  0  0
  -30.7660  -26.3110   20.8130 C   0  0  0  0  0  2  0  0  0  0  0  0
  -29.5290  -27.2130   20.9000 C   0  0  0  0  0  2  0  0  0  0  0  0
  -28.4480  -26.7550   20.0760 O   0  0  0  0  0  0  0  0  0  0  0  0
  -24.6040  -31.8710   23.2110 C   0  0  0  0  0  0  0  0  0  0  0  0
  -27.2820  -27.4980   20.1140 C   0  0  0  0  0  0  0  0  0  0  0  0
  -23.3910  -30.4890   21.5480 C   0  0  0  0  0  3  0  0  0  0  0  0
  -24.8480  -28.9530   20.1180 C   0  0  0  0  0  0  0  0  0  0  0  0
  -25.9050  -30.8590   21.3510 C   0  0  0  0  0  2  0  0  0  0  0  0
  -25.9910  -29.4900   20.7180 C   0  0  0  0  0  0  0  0  0  0  0  0
  -27.1970  -28.7700   20.7250 C   0  0  0  0  0  3  0  0  0  0  0  0
  -26.1220  -26.9670   19.5060 C   0  0  0  0  0  3  0  0  0  0  0  0
  -24.9050  -27.6830   19.5110 C   0  0  0  0  0  3  0  0  0  0  0  0
  -23.6000  -29.8060   20.1660 C   0  0  0  0  0  2  0  0  0  0  0  0
  -24.6500  -31.0870   22.0970 N   0  0  0  0  0  0  0  0  0  0  0  0
  -23.5250  -32.1440   23.7560 O   0  0  0  0  0  0  0  0  0  0  0  0
  -22.7360  -29.4660   22.5010 C   0  0  0  0  0  0  0  0  0  0  0  0
  -21.4100  -29.3020   22.3750 N   0  0  0  0  0  0  0  0  0  0  0  0
  -23.4160  -28.8220   23.3030 O   0  0  0  0  0  0  0  0  0  0  0  0
  -20.9250  -29.8730   21.6960 H   0  0  0  0  0  0  0  0  0  0  0  0
  -18.0270  -28.1370   22.8500 C   0  0  0  0  0  0  0  0  0  0  0  0
  -20.5850  -28.3650   23.1340 C   0  0  0  0  0  3  0  0  0  0  0  0
  -20.6750  -26.9390   22.5430 C   0  0  0  0  0  2  0  0  0  0  0  0
  -19.5730  -26.6380   21.5220 C   0  0  0  0  0  2  0  0  0  0  0  0
  -18.1910  -26.7920   22.1630 C   0  0  0  0  0  2  0  0  0  0  0  0
  -19.1510  -28.8820   23.2920 C   0  0  0  0  0  0  0  0  0  0  0  0
  -18.9450  -30.1440   23.8930 C   0  0  0  0  0  3  0  0  0  0  0  0
  -17.6450  -30.6590   24.0570 C   0  0  0  0  0  3  0  0  0  0  0  0
  -16.5350  -29.9100   23.6320 C   0  0  0  0  0  3  0  0  0  0  0  0
  -16.7260  -28.6510   23.0350 C   0  0  0  0  0  3  0  0  0  0  0  0
  -25.8960  -32.4850   23.8400 C   0  0  0  0  0  3  0  0  0  0  0  0
  -26.4440  -31.6610   25.0700 C   0  0  1  0  0  0  0  0  0  0  0  0
  -25.3740  -31.3690   26.1480 C   0  0  0  0  0  1  0  0  0  0  0  0
  -27.0270  -30.3070   24.6020 C   0  0  0  0  0  1  0  0  0  0  0  0
  -27.6030  -32.4310   25.7450 C   0  0  0  0  0  1  0  0  0  0  0  0
  -25.5840  -33.8640   24.2350 N   0  0  0  0  0  0  0  0  0  0  0  0
  -25.9010  -34.9490   23.5150 C   0  0  0  0  0  0  0  0  0  0  0  0
  -26.5580  -34.8940   22.4730 O   0  0  0  0  0  0  0  0  0  0  0  0
  -24.9950  -33.9800   25.0470 H   0  0  0  0  0  0  0  0  0  0  0  0
  -24.1470  -36.7340   23.2640 C   0  0  0  0  0  1  0  0  0  0  0  0
  -25.4080  -36.3130   24.0350 C   0  0  0  0  0  3  0  0  0  0  0  0
  -27.5580  -37.1810   24.8460 C   0  0  0  0  0  1  0  0  0  0  0  0
  -26.4280  -37.3800   23.9420 N   0  0  0  0  0  0  0  0  0  0  0  0
  -26.0170  -38.2880   24.1420 H   0  0  0  0  0  0  0  0  0  0  0  0
  -28.2570  -21.9590   20.9650 C   0  0  0  0  0  2  0  0  0  0  0  0
  -27.8920  -23.2740   21.6740 C   0  0  0  0  0  2  0  0  0  0  0  0
  -27.6110  -24.2320   23.8170 C   0  0  0  0  0  1  0  0  0  0  0  0
  -27.9810  -23.0770   23.0780 O   0  0  0  0  0  0  0  0  0  0  0  0
  -25.9850  -20.8180   15.5930 C   0  0  0  0  0  2  0  0  0  0  0  0
  -25.6040  -19.4570   14.9970 C   0  0  0  0  0  0  0  0  0  0  0  0
  -24.6450  -19.4690   14.0620 N   0  0  0  0  0  0  0  0  0  0  0  0
  -26.1630  -18.4240   15.3700 O   0  0  0  0  0  0  0  0  0  0  0  0
  -24.2550  -20.3670   13.8080 H   0  0  0  0  0  0  0  0  0  0  0  0
  -24.0280  -18.2960   13.4450 C   0  0  0  0  0  2  0  0  0  0  0  0
  -22.7110  -17.9480   14.1540 C   0  0  0  0  0  2  0  0  0  0  0  0
  -22.9910  -17.5820   15.4960 O   0  0  0  0  0  0  0  0  0  0  0  0
  -21.8340  -17.4930   16.3160 C   0  0  0  0  0  2  0  0  0  0  0  0
  -22.2870  -17.1430   17.7380 C   0  0  0  0  0  2  0  0  0  0  0  0
  -23.0860  -18.2190   18.2140 O   0  0  0  0  0  0  0  0  0  0  0  0
  -23.6050  -18.0050   19.5150 C   0  0  0  0  0  2  0  0  0  0  0  0
  -24.7760  -18.9740   19.7070 C   0  0  0  0  0  2  0  0  0  0  0  0
  -25.5250  -18.8440   21.0450 C   0  0  0  0  0  2  0  0  0  0  0  0
  -26.6320  -17.9440   20.9430 O   0  0  0  0  0  0  0  0  0  0  0  0
  -27.5360  -18.0570   22.0410 C   0  0  0  0  0  2  0  0  0  0  0  0
  -28.3210  -16.7480   22.2500 C   0  0  0  0  0  2  0  0  0  0  0  0
  -29.5750  -16.5310   21.3700 C   0  0  0  0  0  2  0  0  0  0  0  0
  -30.6720  -14.3890   20.6770 C   0  0  0  0  0  0  0  0  0  0  0  0
  -30.4440  -12.2860   19.3970 C   0  0  0  0  0  2  0  0  0  0  0  0
  -29.5010  -12.5380   18.2010 C   0  0  0  0  0  2  0  0  0  0  0  0
  -28.0180  -12.3940   18.6050 C   0  0  0  0  0  2  0  0  0  0  0  0
  -27.6760  -13.1810   19.8960 C   0  0  0  0  0  3  0  0  0  0  0  0
  -28.7080  -12.8550   20.9980 C   0  0  0  0  0  2  0  0  0  0  0  0
  -30.0560  -13.1920   20.4870 N   0  0  0  0  0  0  0  0  0  0  0  0
  -31.6770  -14.7600   20.0620 O   0  0  0  0  0  0  0  0  0  0  0  0
  -30.0290  -15.1550   21.5680 N   0  0  0  0  0  0  0  0  0  0  0  0
  -29.4070  -14.6100   22.1470 H   0  0  0  0  0  0  0  0  0  0  0  0
  -25.2700  -13.7990   20.5790 C   0  0  0  0  0  0  0  0  0  0  0  0
  -24.1860  -13.0340   20.9130 C   0  0  0  0  0  0  0  0  0  0  0  0
  -24.6370  -11.6790   20.8660 C   0  0  0  0  0  0  0  0  0  0  0  0
  -26.3090  -12.9130   20.3420 N   0  0  0  0  0  0  0  0  0  0  0  0
  -25.9290  -11.6300   20.5680 N   0  0  0  0  0  0  0  0  0  0  0  0
  -23.9010  -10.4210   21.0370 C   0  0  0  0  0  0  0  0  0  0  0  0
  -24.3570   -9.4150   21.9180 C   0  0  0  0  0  3  0  0  0  0  0  0
  -23.6210   -8.2200   22.0780 C   0  0  0  0  0  3  0  0  0  0  0  0
  -22.4200   -8.0240   21.3550 C   0  0  0  0  0  0  0  0  0  0  0  0
  -21.9820   -9.0220   20.4660 C   0  0  0  0  0  3  0  0  0  0  0  0
  -22.7170  -10.2080   20.3040 C   0  0  0  0  0  3  0  0  0  0  0  0
  -21.6580   -6.8830   21.4230 O   0  0  0  0  0  0  0  0  0  0  0  0
  -21.6820   -6.0680   22.5270 C   0  0  0  0  0  0  0  0  0  0  0  0
  -21.4010   -6.5590   23.8200 C   0  0  0  0  0  3  0  0  0  0  0  0
  -21.3680   -5.6750   24.9170 C   0  0  0  0  0  3  0  0  0  0  0  0
  -21.6030   -4.3010   24.7220 C   0  0  0  0  0  0  0  0  0  0  0  0
  -21.8810   -3.8090   23.4340 C   0  0  0  0  0  3  0  0  0  0  0  0
  -21.9200   -4.6910   22.3400 C   0  0  0  0  0  0  0  0  0  0  0  0
  -22.1650   -4.2090   21.0970 F   0  0  0  0  0  0  0  0  0  0  0  0
  -21.5640   -3.4510   25.7750 F   0  0  0  0  0  0  0  0  0  0  0  0
  -22.7900  -13.5250   21.1760 C   0  0  0  0  0  0  0  0  0  0  0  0
  -22.0470  -12.8310   22.0290 N   0  0  0  0  0  0  0  0  0  0  0  0
  -22.3670  -14.5620   20.6670 O   0  0  0  0  0  0  0  0  0  0  0  0
  -22.4000  -11.9990   22.4760 H   0  0  0  0  0  0  0  0  0  0  0  0
  -21.1160  -13.1530   22.2530 H   0  0  0  0  0  0  0  0  0  0  0  0
  -25.4530  -15.1670   20.4540 N   0  0  0  0  0  0  0  0  0  0  0  0
  -24.6990  -15.8090   20.6630 H   0  0  0  0  0  0  0  0  0  0  0  0
  -26.3350  -15.6420   20.2980 H   0  0  0  0  0  0  0  0  0  0  0  0
  1  6  1  0
  2  1  1  0
  2  4  1  0
  3  1  2  0
  6  5  1  0
  6  7  1  0
  7 61  1  0
  8  9  1  0
  9 11  1  0
  9  7  1  0
 10  8  2  0
 12  8  1  0
 12 14  2  0
 13 12  1  0
 15 14  1  0
 15 16  1  0
 16 17  1  0
 17 18  1  0
 18 19  1  0
 20 22  1  0
 20 19  1  0
 21 32  2  0
 22 27  1  0
 23 31  1  0
 23 33  1  0
 24 30  1  0
 24 26  1  0
 25 31  1  0
 26 27  2  0
 26 25  1  0
 28 29  1  0
 28 22  2  0
 29 24  2  0
 30 23  1  0
 31 21  1  0
 33 35  2  0
 34 33  1  0
 36 34  1  0
 37 46  2  0
 37 42  1  0
 38 34  1  0
 38 42  1  0
 39 38  1  0
 40 41  1  0
 40 39  1  0
 41 37  1  0
 42 43  2  0
 43 44  1  0
 45 44  2  0
 46 45  1  0
 47 21  1  0
 47 52  1  0
 47 48  1  0
 48 51  1  1
 48 49  1  0
 50 48  1  0
 52 55  1  0
 53 57  1  0
 53 52  1  0
 54 53  2  0
 57 56  1  0
 59 57  1  0
 59 60  1  0
 59 58  1  0
 61 62  1  0
 62 64  1  0
 64 63  1  0
 65  2  1  0
 66 68  2  0
 66 65  1  0
 67 66  1  0
 69 67  1  0
 70 67  1  0
 70 71  1  0
 71 72  1  0
 72 73  1  0
 73 74  1  0
 74 75  1  0
 75 76  1  0
 76 77  1  0
 77 78  1  0
 79 78  1  0
 79 80  1  0
 80 81  1  0
 82 91  1  0
 82 81  1  0
 83 91  1  0
 84 89  1  0
 85 86  1  0
 85 84  1  0
 87 86  1  0
 87 96  1  0
 87 88  1  0
 89 83  1  0
 89 88  1  0
 90 83  2  0
 91 92  1  0
 93 94  2  0
 94113  1  0
 95 94  1  0
 95 98  1  0
 96 97  1  0
 96 93  1  0
 97 95  2  0
 98 99  1  0
 99100  2  0
101104  1  0
101100  1  0
102101  2  0
103102  1  0
103 98  2  0
104105  1  0
105106  1  0
106107  2  0
108107  1  0
108112  1  0
109108  2  0
110105  2  0
110109  1  0
111110  1  0
113114  1  0
114117  1  0
114116  1  0
115113  2  0
118 93  1  0
118119  1  0
120118  1  0
M  ISO  4  19 101  20 101  83 100  91 100
M  END
>  <TORSDO>  (25) 
F 43

>  <SCORE>  (25) 
21.965

>  <name>  (25) 
27

>  <ligand_id>  (25) 
27

>  <original_smiles>  (25) 
[H]c1c([H])c([H])c2c(c1[H])C([H])([H])C([H])([H])C([H])([H])C2([H])N([H])C(=O)C1([H])N(C(=O)C([H])(N([H])C(=O)C([H])(N([H])C([H])([H])[H])C([H])([H])[H])C(C([H])([H])[H])(C([H])([H])[H])C([H])([H])[H])C([H])([H])c2c([H])c(OC([H])([H])C([H])([H])OC([H])([H])C([H])([H])N=C(C(=O)N([H])C([H])(C([H])([H])C([H])([H])OC([H])([H])[H])C([H])(C(=O)N([H])C([H])([H])C(=O)N([H])C([H])([H])C([H])([H])OC([H])([H])C([H])([H])OC([H])([H])C([H])([H])C([H])([H])OC([H])([H])C([H])([H])C([H])([H])N([H])C(=O)N3C([H])([H])C([H])([H])C([H])([H])C([H])(n4nc(-c5c([H])c([H])c(Oc6c([H])c([H])c(F)c([H])c6F)c([H])c5[H])c(C(=O)N([H])[H])c4N([H])[H])C3([H])[H])C([H])([H])[H])C([H])([H])[H])c([H])c([H])c2C1([H])[H]

>  <smiles>  (25) 
[H]c1c([H])c([H])c2c(c1[H])C([H])([H])C([H])([H])C([H])([H])C2([H])N([H])C(=O)C1([H])N(C(=O)C([H])(N([H])C(=O)C([H])(N([H])C([H])([H])[H])C([H])([H])[H])C(C([H])([H])[H])(C([H])([H])[H])C([H])([H])[H])C([H])([H])c2c([H])c(OC([H])([H])C([H])([H])OC([H])([H])C([H])([H])N=C(C(=O)N([H])C([H])(C([H])([H])C([H])([H])OC([H])([H])[H])C([H])(C(=O)N([H])C([H])([H])C(=O)N([H])C([H])([H])C([H])([H])OC([H])([H])C([H])([H])OC([H])([H])C([H])([H])C([H])([H])OC([H])([H])C([H])([H])C([H])([H])N([H])C(=O)N3C([H])([H])C([H])([H])C([H])([H])C([H])(n4nc(-c5c([H])c([H])c(Oc6c([H])c([H])c(F)c([H])c6F)c([H])c5[H])c(C(=O)N([H])[H])c4N([H])[H])C3([H])[H])C([H])([H])[H])C([H])([H])[H])c([H])c([H])c2C1([H])[H]

$$$$
28:0:0
     RDKit          3D

 99106  0  0  1  0  0  0  0  0999 V2000
  -24.9270  -15.7130   18.0130 N   0  0  0  0  0  4  0  0  0  0  0  0
  -25.1850  -15.7520   17.0420 H   0  0  0  0  0  0  0  0  0  0  0  0
  -23.9220  -15.6200   18.0510 H   0  0  0  0  0  0  0  0  0  0  0  0
  -25.5920  -14.5140   18.6630 C   0  0  0  0  0  2  0  0  0  0  0  0
  -25.2420  -12.9700   18.3860 C   0  0  0  0  0  2  0  0  0  0  0  0
  -26.3830  -12.0740   18.5940 O   0  0  0  0  0  0  0  0  0  0  0  0
  -26.3780  -10.6830   19.0860 C   0  0  0  0  0  2  0  0  0  0  0  0
  -27.8960  -10.3640   19.4010 C   0  0  0  0  0  2  0  0  0  0  0  0
  -28.6620   -9.6280   20.5830 C   0  0  0  0  0  2  0  0  0  0  0  0
  -30.2230   -9.9900   20.8460 C   0  0  0  0  0  3  0  0  0  0  0  0
  -30.6240  -11.1960   21.8240 C   0  0  0  0  0  3  0  0  0  0  0  0
  -32.0940  -11.9170   21.8070 C   0  0  0  0  0  2  0  0  0  0  0  0
  -32.0630  -14.5120   21.0780 C   0  0  0  0  0  0  0  0  0  0  0  0
  -31.4550  -13.4110   19.2460 C   0  0  0  0  0  2  0  0  0  0  0  0
  -30.3720  -13.4180   18.2390 C   0  0  0  0  0  2  0  0  0  0  0  0
  -29.1280  -12.9560   18.9310 C   0  0  0  0  0  2  0  0  0  0  0  0
  -28.6170  -13.8680   20.0870 C   0  0  0  0  0  3  0  0  0  0  0  0
  -29.7020  -14.2200   21.0960 C   0  0  0  0  0  2  0  0  0  0  0  0
  -31.0210  -14.1630   20.4370 N   0  0  0  0  0  0  0  0  0  0  0  0
  -32.7170  -15.5100   20.7350 O   0  0  0  0  0  0  0  0  0  0  0  0
  -32.3600  -13.4550   21.9380 N   0  0  0  0  0  0  0  0  0  0  0  0
  -33.1440  -13.6860   22.5310 H   0  0  0  0  0  0  0  0  0  0  0  0
  -26.4430  -14.2290   21.4020 C   0  0  0  0  0  0  0  0  0  0  0  0
  -25.3480  -13.4530   21.6510 C   0  0  0  0  0  0  0  0  0  0  0  0
  -25.7170  -12.1210   21.2760 C   0  0  0  0  0  0  0  0  0  0  0  0
  -27.3730  -13.4310   20.7640 N   0  0  0  0  0  0  0  0  0  0  0  0
  -26.9630  -12.1370   20.7930 N   0  0  0  0  0  0  0  0  0  0  0  0
  -24.9430  -10.8710   21.3010 C   0  0  0  0  0  0  0  0  0  0  0  0
  -25.3090   -9.8100   22.1660 C   0  0  0  0  0  3  0  0  0  0  0  0
  -24.5390   -8.6320   22.2130 C   0  0  0  0  0  3  0  0  0  0  0  0
  -23.4130   -8.4850   21.3650 C   0  0  0  0  0  0  0  0  0  0  0  0
  -23.0650   -9.5260   20.4850 C   0  0  0  0  0  3  0  0  0  0  0  0
  -23.8000  -10.7220   20.4830 C   0  0  0  0  0  3  0  0  0  0  0  0
  -22.6210   -7.3610   21.3190 O   0  0  0  0  0  0  0  0  0  0  0  0
  -22.2060   -6.7130   22.4550 C   0  0  0  0  0  0  0  0  0  0  0  0
  -21.5050   -7.3700   23.4880 C   0  0  0  0  0  3  0  0  0  0  0  0
  -21.0620   -6.6400   24.6110 C   0  0  0  0  0  3  0  0  0  0  0  0
  -21.3100   -5.2550   24.6950 C   0  0  0  0  0  0  0  0  0  0  0  0
  -22.0160   -4.6080   23.6700 C   0  0  0  0  0  3  0  0  0  0  0  0
  -22.4540   -5.3310   22.5470 C   0  0  0  0  0  0  0  0  0  0  0  0
  -23.1200   -4.6900   21.5570 F   0  0  0  0  0  0  0  0  0  0  0  0
  -20.8860   -4.5550   25.7760 F   0  0  0  0  0  0  0  0  0  0  0  0
  -24.0180  -13.9280   22.1330 C   0  0  0  0  0  0  0  0  0  0  0  0
  -23.3330  -13.1390   22.9410 N   0  0  0  0  0  0  0  0  0  0  0  0
  -23.6020  -15.0470   21.8290 O   0  0  0  0  0  0  0  0  0  0  0  0
  -23.7170  -12.2590   23.2510 H   0  0  0  0  0  0  0  0  0  0  0  0
  -22.4270  -13.4410   23.2620 H   0  0  0  0  0  0  0  0  0  0  0  0
  -26.6920  -15.5850   21.5460 N   0  0  0  0  0  0  0  0  0  0  0  0
  -26.1020  -16.1570   22.1410 H   0  0  0  0  0  0  0  0  0  0  0  0
  -27.6560  -15.9030   21.5420 H   0  0  0  0  0  0  0  0  0  0  0  0
  -25.3000  -17.0440   18.6760 C   0  0  0  0  0  3  0  0  0  0  0  0
  -24.7350  -18.4000   18.0800 C   0  0  0  0  0  3  0  0  0  0  0  0
  -24.8710  -19.7620   18.9250 C   0  0  0  0  0  2  0  0  0  0  0  0
  -26.0130  -20.7030   18.8860 O   0  0  0  0  0  0  0  0  0  0  0  0
  -25.7930  -21.9290   19.6880 C   0  0  0  0  0  2  0  0  0  0  0  0
  -26.9770  -22.8670   20.2480 C   0  0  0  0  0  2  0  0  0  0  0  0
  -26.9830  -24.4380   19.9180 C   0  0  0  0  0  3  0  0  0  0  0  0
  -27.9450  -25.4680   20.7140 C   0  0  0  0  0  3  0  0  0  0  0  0
  -28.2060  -26.8960   20.3150 O   0  0  0  0  0  0  0  0  0  0  0  0
  -24.6340  -32.2980   23.5590 C   0  0  0  0  0  0  0  0  0  0  0  0
  -27.1540  -27.8130   20.3430 C   0  0  0  0  0  0  0  0  0  0  0  0
  -23.4200  -30.9640   21.8800 C   0  0  0  0  0  3  0  0  0  0  0  0
  -24.8480  -29.4710   20.3910 C   0  0  0  0  0  0  0  0  0  0  0  0
  -25.9630  -31.2710   21.7000 C   0  0  0  0  0  2  0  0  0  0  0  0
  -26.0290  -29.9150   21.0100 C   0  0  0  0  0  0  0  0  0  0  0  0
  -27.1940  -29.0920   20.9820 C   0  0  0  0  0  3  0  0  0  0  0  0
  -25.9760  -27.4580   19.6690 C   0  0  0  0  0  3  0  0  0  0  0  0
  -24.8280  -28.2480   19.7170 C   0  0  0  0  0  3  0  0  0  0  0  0
  -23.6270  -30.3510   20.4740 C   0  0  0  0  0  2  0  0  0  0  0  0
  -24.6910  -31.5280   22.4390 N   0  0  0  0  0  0  0  0  0  0  0  0
  -23.5500  -32.5590   24.1050 O   0  0  0  0  0  0  0  0  0  0  0  0
  -22.7670  -29.9050   22.8010 C   0  0  0  0  0  0  0  0  0  0  0  0
  -21.4500  -29.6950   22.6320 N   0  0  0  0  0  0  0  0  0  0  0  0
  -23.4410  -29.2780   23.6210 O   0  0  0  0  0  0  0  0  0  0  0  0
  -20.9620  -30.2570   21.9480 H   0  0  0  0  0  0  0  0  0  0  0  0
  -18.1050  -28.3560   22.9780 C   0  0  0  0  0  0  0  0  0  0  0  0
  -20.6370  -28.7220   23.3650 C   0  0  0  0  0  3  0  0  0  0  0  0
  -20.8240  -27.2970   22.7930 C   0  0  0  0  0  2  0  0  0  0  0  0
  -19.7810  -26.9300   21.7320 C   0  0  0  0  0  2  0  0  0  0  0  0
  -18.3690  -27.0140   22.3190 C   0  0  0  0  0  2  0  0  0  0  0  0
  -19.1720  -29.1640   23.4570 C   0  0  0  0  0  0  0  0  0  0  0  0
  -18.8740  -30.4190   24.0310 C   0  0  0  0  0  3  0  0  0  0  0  0
  -17.5440  -30.8670   24.1350 C   0  0  0  0  0  3  0  0  0  0  0  0
  -16.4920  -30.0580   23.6710 C   0  0  0  0  0  3  0  0  0  0  0  0
  -16.7740  -28.8040   23.0990 C   0  0  0  0  0  3  0  0  0  0  0  0
  -25.9160  -32.9100   24.1990 C   0  0  0  0  0  3  0  0  0  0  0  0
  -25.6540  -34.3350   24.4370 N   0  0  0  0  0  0  0  0  0  0  0  0
  -26.0900  -35.3310   23.6480 C   0  0  0  0  0  0  0  0  0  0  0  0
  -26.8190  -35.1400   22.6740 O   0  0  0  0  0  0  0  0  0  0  0  0
  -25.0130  -34.5600   25.1830 H   0  0  0  0  0  0  0  0  0  0  0  0
  -24.5000  -37.1930   23.0670 C   0  0  0  0  0  1  0  0  0  0  0  0
  -25.6410  -36.7620   24.0020 C   0  0  0  0  0  3  0  0  0  0  0  0
  -27.7430  -37.5730   24.9820 C   0  0  0  0  0  1  0  0  0  0  0  0
  -26.7390  -37.7530   23.9370 N   0  0  0  0  0  0  0  0  0  0  0  0
  -26.3760  -38.6990   24.0020 H   0  0  0  0  0  0  0  0  0  0  0  0
  -26.3410  -32.1920   25.5370 C   0  0  1  0  0  0  0  0  0  0  0  0
  -25.1990  -32.0750   26.5730 C   0  0  0  0  0  1  0  0  0  0  0  0
  -26.8640  -30.7660   25.2520 C   0  0  0  0  0  1  0  0  0  0  0  0
  -27.5050  -32.9660   26.1970 C   0  0  0  0  0  1  0  0  0  0  0  0
  1  3  1  0
  1  4  1  0
  1 51  1  0
  2  1  1  0
  5  6  1  0
  5  4  1  0
  6  7  1  0
  7  8  1  0
  8  9  1  0
  9 10  1  0
 10 11  2  0
 12 11  1  0
 12 21  1  0
 13 21  1  0
 14 19  1  0
 15 16  1  0
 15 14  1  0
 17 16  1  0
 17 26  1  0
 17 18  1  0
 19 13  1  0
 19 18  1  0
 20 13  2  0
 21 22  1  0
 23 48  1  0
 23 24  2  0
 24 43  1  0
 25 28  1  0
 25 24  1  0
 26 27  1  0
 26 23  1  0
 27 25  2  0
 28 29  1  0
 29 30  2  0
 31 30  1  0
 32 31  2  0
 33 32  1  0
 33 28  2  0
 34 31  1  0
 34 35  1  0
 35 40  2  0
 35 36  1  0
 36 37  2  0
 37 38  1  0
 38 42  1  0
 39 38  2  0
 40 39  1  0
 41 40  1  0
 43 44  1  0
 44 46  1  0
 44 47  1  0
 45 43  2  0
 48 49  1  0
 50 48  1  0
 52 51  2  0
 52 53  1  0
 54 53  1  0
 54 55  1  0
 55 56  1  0
 57 56  1  0
 57 58  2  0
 59 61  1  0
 59 58  1  0
 60 71  2  0
 61 66  1  0
 62 70  1  0
 62 72  1  0
 63 69  1  0
 63 65  1  0
 64 70  1  0
 65 64  1  0
 66 65  2  0
 67 68  1  0
 67 61  2  0
 68 63  2  0
 69 62  1  0
 70 60  1  0
 72 74  2  0
 73 72  1  0
 75 73  1  0
 76 85  2  0
 76 81  1  0
 77 73  1  0
 77 81  1  0
 78 77  1  0
 79 80  1  0
 79 78  1  0
 80 76  1  0
 81 82  2  0
 82 83  1  0
 84 83  2  0
 85 84  1  0
 86 60  1  0
 86 87  1  0
 86 96  1  0
 87 90  1  0
 88 92  1  0
 88 87  1  0
 89 88  2  0
 92 91  1  0
 94 95  1  0
 94 92  1  0
 94 93  1  0
 96 99  1  1
 96 97  1  0
 98 96  1  0
M  ISO  4  13 100  21 100  58 101  59 101
M  END
>  <TORSDO>  (26) 
F 33

>  <SCORE>  (26) 
6.235

>  <name>  (26) 
28

>  <ligand_id>  (26) 
28

>  <original_smiles>  (26) 
[H]c1c([H])c([H])c2c(c1[H])C([H])([H])C([H])([H])C([H])([H])C2([H])N([H])C(=O)C1([H])N(C(=O)C([H])(N([H])C(=O)C([H])(N([H])C([H])([H])[H])C([H])([H])[H])C(C([H])([H])[H])(C([H])([H])[H])C([H])([H])[H])C([H])([H])c2c([H])c(OC([H])([H])C([H])([H])C([H])([H])C([H])([H])OC([H])([H])C([H])([H])C([H])([H])[N+]([H])([H])C([H])([H])C([H])([H])OC([H])([H])C([H])([H])C([H])([H])C([H])([H])C([H])([H])C([H])([H])N([H])C(=O)N3C([H])([H])C([H])([H])C([H])([H])C([H])(n4nc(-c5c([H])c([H])c(Oc6c([H])c([H])c(F)c([H])c6F)c([H])c5[H])c(C(=O)N([H])[H])c4N([H])[H])C3([H])[H])c([H])c([H])c2C1([H])[H]

>  <smiles>  (26) 
[H]c1c([H])c([H])c2c(c1[H])C([H])([H])C([H])([H])C([H])([H])C2([H])N([H])C(=O)C1([H])N(C(=O)C([H])(N([H])C(=O)C([H])(N([H])C([H])([H])[H])C([H])([H])[H])C(C([H])([H])[H])(C([H])([H])[H])C([H])([H])[H])C([H])([H])c2c([H])c(OC([H])([H])C([H])([H])C([H])([H])C([H])([H])OC([H])([H])C([H])([H])C([H])([H])[N+]([H])([H])C([H])([H])C([H])([H])OC([H])([H])C([H])([H])C([H])([H])C([H])([H])C([H])([H])C([H])([H])N([H])C(=O)N3C([H])([H])C([H])([H])C([H])([H])C([H])(n4nc(-c5c([H])c([H])c(Oc6c([H])c([H])c(F)c([H])c6F)c([H])c5[H])c(C(=O)N([H])[H])c4N([H])[H])C3([H])[H])c([H])c([H])c2C1([H])[H]

$$$$
29:0:0
     RDKit          3D

108115  0  0  1  0  0  0  0  0999 V2000
  -36.9340  -23.3750   16.4580 C   0  0  0  0  0  0  0  0  0  0  0  0
  -35.9540  -24.1800   16.0290 N   0  0  0  0  0  0  0  0  0  0  0  0
  -37.0710  -23.0760   17.6470 O   0  0  0  0  0  0  0  0  0  0  0  0
  -35.9260  -24.4110   15.0450 H   0  0  0  0  0  0  0  0  0  0  0  0
  -37.9130  -22.8100   15.4140 C   0  0  0  0  0  3  0  0  0  0  0  0
  -36.7420  -23.2530   13.1690 C   0  0  0  0  0  1  0  0  0  0  0  0
  -36.0270  -21.2410   14.5320 C   0  0  0  0  0  1  0  0  0  0  0  0
  -37.1980  -22.1840   14.1810 C   0  0  0  0  0  3  0  0  0  0  0  0
  -38.8070  -23.9080   15.0030 N   0  0  0  0  0  4  0  0  0  0  0  0
  -39.7640  -23.6170   15.1110 H   0  0  0  0  0  0  0  0  0  0  0  0
  -38.6260  -23.9900   14.0060 H   0  0  0  0  0  0  0  0  0  0  0  0
  -38.5570  -25.2190   15.6410 C   0  0  0  0  0  2  0  0  0  0  0  0
  -39.8240  -25.7340   16.3250 C   0  0  0  0  0  2  0  0  0  0  0  0
  -40.2800  -26.8720   15.5990 O   0  0  0  0  0  0  0  0  0  0  0  0
  -40.0080  -26.7430   14.2110 C   0  0  0  0  0  2  0  0  0  0  0  0
  -39.3260  -28.0150   13.6560 C   0  0  0  0  0  2  0  0  0  0  0  0
  -39.1060  -27.9300   12.2440 O   0  0  0  0  0  0  0  0  0  0  0  0
  -33.2610  -31.3560   14.2920 C   0  0  0  0  0  0  0  0  0  0  0  0
  -37.9530  -28.5450   11.8330 C   0  0  0  0  0  0  0  0  0  0  0  0
  -33.2690  -30.5490   11.9500 C   0  0  0  0  0  3  0  0  0  0  0  0
  -35.5180  -29.7340   11.0680 C   0  0  0  0  0  0  0  0  0  0  0  0
  -35.4540  -31.1480   13.1330 C   0  0  0  0  0  2  0  0  0  0  0  0
  -36.1350  -30.1110   12.2680 C   0  0  0  0  0  0  0  0  0  0  0  0
  -37.3600  -29.5280   12.6500 C   0  0  0  0  0  3  0  0  0  0  0  0
  -37.3260  -28.1680   10.6260 C   0  0  0  0  0  3  0  0  0  0  0  0
  -36.1080  -28.7620   10.2410 C   0  0  0  0  0  3  0  0  0  0  0  0
  -34.2160  -30.4230   10.7280 C   0  0  0  0  0  2  0  0  0  0  0  0
  -33.9820  -31.0100   13.1860 N   0  0  0  0  0  0  0  0  0  0  0  0
  -32.0230  -31.3400   14.2770 O   0  0  0  0  0  0  0  0  0  0  0  0
  -32.5240  -29.2080   12.1380 C   0  0  0  0  0  0  0  0  0  0  0  0
  -31.4170  -29.0370   11.3980 N   0  0  0  0  0  0  0  0  0  0  0  0
  -32.9570  -28.3460   12.9050 O   0  0  0  0  0  0  0  0  0  0  0  0
  -31.1260  -29.7960   10.7970 H   0  0  0  0  0  0  0  0  0  0  0  0
  -28.1710  -27.7840   10.4260 C   0  0  0  0  0  0  0  0  0  0  0  0
  -30.5730  -27.8430   11.3780 C   0  0  0  0  0  3  0  0  0  0  0  0
  -30.9540  -26.9130   10.2020 C   0  0  0  0  0  2  0  0  0  0  0  0
  -30.1250  -27.1690    8.9390 C   0  0  0  0  0  2  0  0  0  0  0  0
  -28.6330  -26.9730    9.2260 C   0  0  0  0  0  2  0  0  0  0  0  0
  -29.0850  -28.2050   11.4280 C   0  0  0  0  0  0  0  0  0  0  0  0
  -28.6100  -28.9860   12.5030 C   0  0  0  0  0  3  0  0  0  0  0  0
  -27.2510  -29.3460   12.5870 C   0  0  0  0  0  3  0  0  0  0  0  0
  -26.3490  -28.9120   11.6000 C   0  0  0  0  0  3  0  0  0  0  0  0
  -26.8070  -28.1290   10.5260 C   0  0  0  0  0  3  0  0  0  0  0  0
  -33.9570  -31.8080   15.6130 C   0  0  0  0  0  3  0  0  0  0  0  0
  -33.9760  -30.6870   16.7230 C   0  0  1  0  0  0  0  0  0  0  0  0
  -32.5880  -30.4070   17.3450 C   0  0  0  0  0  1  0  0  0  0  0  0
  -34.5110  -29.3560   16.1430 C   0  0  0  0  0  1  0  0  0  0  0  0
  -34.9410  -31.0910   17.8630 C   0  0  0  0  0  1  0  0  0  0  0  0
  -33.2540  -33.0050   16.0940 N   0  0  0  0  0  0  0  0  0  0  0  0
  -33.7920  -34.2310   16.1450 C   0  0  0  0  0  0  0  0  0  0  0  0
  -34.9700  -34.4590   15.8560 O   0  0  0  0  0  0  0  0  0  0  0  0
  -32.2700  -32.9030   16.2920 H   0  0  0  0  0  0  0  0  0  0  0  0
  -32.7870  -36.4320   15.4600 C   0  0  0  0  0  1  0  0  0  0  0  0
  -32.8780  -35.3900   16.5850 C   0  0  0  0  0  3  0  0  0  0  0  0
  -33.2210  -35.1770   19.0070 C   0  0  0  0  0  1  0  0  0  0  0  0
  -33.3190  -36.0440   17.8360 N   0  0  0  0  0  0  0  0  0  0  0  0
  -32.7730  -36.8820   18.0160 H   0  0  0  0  0  0  0  0  0  0  0  0
  -34.9980  -24.8660   16.9070 C   0  0  0  0  0  3  0  0  0  0  0  0
  -33.9630  -25.6150   16.0440 C   0  0  0  0  0  0  0  0  0  0  0  0
  -32.8910  -26.0980   16.6790 N   0  0  0  0  0  0  0  0  0  0  0  0
  -34.1320  -25.7370   14.8270 O   0  0  0  0  0  0  0  0  0  0  0  0
  -32.8230  -25.9300   17.6740 H   0  0  0  0  0  0  0  0  0  0  0  0
  -31.7740  -26.7880   16.0450 C   0  0  0  0  0  2  0  0  0  0  0  0
  -30.6250  -25.8110   15.7540 C   0  0  0  0  0  2  0  0  0  0  0  0
  -30.7520  -23.7740   14.3340 C   0  0  0  0  0  0  0  0  0  0  0  0
  -31.7030  -22.2380   12.6630 C   0  0  0  0  0  2  0  0  0  0  0  0
  -31.0300  -20.8570   12.6070 C   0  0  0  0  0  2  0  0  0  0  0  0
  -31.6560  -19.9060   13.6400 C   0  0  0  0  0  2  0  0  0  0  0  0
  -31.7270  -20.5330   15.0570 C   0  0  0  0  0  3  0  0  0  0  0  0
  -32.3460  -21.9470   15.0040 C   0  0  0  0  0  2  0  0  0  0  0  0
  -31.6030  -22.7650   14.0290 N   0  0  0  0  0  0  0  0  0  0  0  0
  -29.8520  -24.1640   13.5840 O   0  0  0  0  0  0  0  0  0  0  0  0
  -31.1140  -24.4770   15.4130 N   0  0  0  0  0  0  0  0  0  0  0  0
  -31.8920  -24.1190   15.9480 H   0  0  0  0  0  0  0  0  0  0  0  0
  -32.2370  -18.3220   16.2800 C   0  0  0  0  0  0  0  0  0  0  0  0
  -33.2370  -17.9640   17.1430 C   0  0  0  0  0  0  0  0  0  0  0  0
  -34.0360  -19.1340   17.3270 C   0  0  0  0  0  0  0  0  0  0  0  0
  -32.4480  -19.6600   15.9840 N   0  0  0  0  0  0  0  0  0  0  0  0
  -33.5140  -20.1570   16.6630 N   0  0  0  0  0  0  0  0  0  0  0  0
  -35.2980  -19.3230   18.0540 C   0  0  0  0  0  0  0  0  0  0  0  0
  -35.3290  -19.9100   19.3380 C   0  0  0  0  0  3  0  0  0  0  0  0
  -36.5540  -20.0640   20.0240 C   0  0  0  0  0  3  0  0  0  0  0  0
  -37.7610  -19.6260   19.4300 C   0  0  0  0  0  0  0  0  0  0  0  0
  -37.7250  -19.0630   18.1420 C   0  0  0  0  0  3  0  0  0  0  0  0
  -36.5070  -18.9140   17.4580 C   0  0  0  0  0  3  0  0  0  0  0  0
  -38.9990  -19.7590   20.0100 O   0  0  0  0  0  0  0  0  0  0  0  0
  -39.3680  -19.0100   21.0980 C   0  0  0  0  0  0  0  0  0  0  0  0
  -39.9110  -17.7140   20.9610 C   0  0  0  0  0  3  0  0  0  0  0  0
  -40.3410  -17.0060   22.1010 C   0  0  0  0  0  3  0  0  0  0  0  0
  -40.2400  -17.5950   23.3760 C   0  0  0  0  0  0  0  0  0  0  0  0
  -39.7050  -18.8890   23.5140 C   0  0  0  0  0  3  0  0  0  0  0  0
  -39.2740  -19.5940   22.3780 C   0  0  0  0  0  0  0  0  0  0  0  0
  -38.7790  -20.8490   22.5140 F   0  0  0  0  0  0  0  0  0  0  0  0
  -40.6610  -16.9200   24.4700 F   0  0  0  0  0  0  0  0  0  0  0  0
  -33.4890  -16.5930   17.7020 C   0  0  0  0  0  0  0  0  0  0  0  0
  -33.5830  -16.4770   19.0230 N   0  0  0  0  0  0  0  0  0  0  0  0
  -33.5480  -15.6060   16.9720 O   0  0  0  0  0  0  0  0  0  0  0  0
  -33.5120  -17.2840   19.6250 H   0  0  0  0  0  0  0  0  0  0  0  0
  -33.7290  -15.5680   19.4360 H   0  0  0  0  0  0  0  0  0  0  0  0
  -31.1770  -17.6210   15.7150 N   0  0  0  0  0  0  0  0  0  0  0  0
  -31.0030  -16.6920   16.0800 H   0  0  0  0  0  0  0  0  0  0  0  0
  -30.3100  -18.1460   15.6330 H   0  0  0  0  0  0  0  0  0  0  0  0
  -34.2720  -23.8110   17.7770 C   0  0  0  0  0  2  0  0  0  0  0  0
  -34.1590  -24.2100   19.2560 C   0  0  0  0  0  0  0  0  0  0  0  0
  -34.4240  -23.2860   20.1710 N   0  0  0  0  0  0  0  0  0  0  0  0
  -33.7880  -25.3360   19.5790 O   0  0  0  0  0  0  0  0  0  0  0  0
  -34.7170  -22.3570   19.8980 H   0  0  0  0  0  0  0  0  0  0  0  0
  -34.4000  -23.5160   21.1530 H   0  0  0  0  0  0  0  0  0  0  0  0
  1  3  2  0
  2  1  1  0
  2 58  1  0
  4  2  1  0
  5  8  1  0
  5  1  1  0
  6  8  1  0
  8  7  1  0
  9 10  1  0
  9  5  1  0
  9 12  1  0
 11  9  1  0
 12 13  1  0
 14 13  1  0
 15 14  1  0
 16 15  1  0
 17 16  1  0
 19 17  1  0
 19 24  1  0
 20 30  1  0
 20 28  1  0
 21 23  1  0
 22 28  1  0
 23 24  2  0
 23 22  1  0
 25 19  2  0
 26 25  1  0
 26 21  2  0
 27 21  1  0
 27 20  1  0
 28 18  1  0
 29 18  2  0
 30 32  2  0
 31 30  1  0
 33 31  1  0
 34 43  2  0
 34 39  1  0
 35 31  1  0
 35 39  1  0
 36 35  1  0
 37 38  1  0
 37 36  1  0
 38 34  1  0
 39 40  2  0
 40 41  1  0
 42 41  2  0
 43 42  1  0
 44 18  1  0
 44 49  1  0
 44 45  1  0
 45 46  1  1
 45 48  1  0
 47 45  1  0
 49 50  1  0
 49 52  1  0
 50 54  1  0
 51 50  2  0
 54 53  1  0
 54 56  1  0
 56 57  1  0
 56 55  1  0
 58103  1  0
 59 60  1  0
 59 58  1  0
 60 62  1  0
 61 59  2  0
 63 60  1  0
 64 63  1  0
 65 73  1  0
 66 71  1  0
 67 66  1  0
 67 68  1  0
 69 68  1  0
 69 78  1  0
 70 69  1  0
 71 65  1  0
 71 70  1  0
 72 65  2  0
 73 64  1  0
 73 74  1  0
 75 76  2  0
 76 77  1  0
 76 95  1  0
 77 80  1  0
 78 75  1  0
 78 79  1  0
 79 77  2  0
 80 81  1  0
 81 82  2  0
 83 86  1  0
 83 82  1  0
 84 83  2  0
 85 80  2  0
 85 84  1  0
 86 87  1  0
 87 92  1  0
 88 87  2  0
 88 89  1  0
 89 90  2  0
 90 91  1  0
 90 94  1  0
 92 93  1  0
 92 91  2  0
 95 96  1  0
 96 99  1  0
 96 98  1  0
 97 95  2  0
100101  1  0
100 75  1  0
102100  1  0
103104  1  0
104106  2  0
104105  1  0
105108  1  0
107105  1  0
M  ISO  4  16 101  17 101  65 100  73 100
M  END
>  <TORSDO>  (27) 
F 30

>  <SCORE>  (27) 
-2.980

>  <name>  (27) 
29

>  <ligand_id>  (27) 
29

>  <original_smiles>  (27) 
[H]c1c([H])c([H])c2c(c1[H])C([H])([H])C([H])([H])C([H])([H])C2([H])N([H])C(=O)C1([H])N(C(=O)C([H])(N([H])C(=O)C([H])(N([H])C([H])([H])[H])C([H])([H])[H])C(C([H])([H])[H])(C([H])([H])[H])C([H])([H])[H])C([H])([H])c2c([H])c(OC([H])([H])C([H])([H])OC([H])([H])C([H])([H])[N+]([H])([H])C([H])(C(=O)N([H])C([H])(C(=O)N([H])C([H])([H])C([H])([H])N([H])C(=O)N3C([H])([H])C([H])([H])C([H])([H])C([H])(n4nc(-c5c([H])c([H])c(Oc6c([H])c([H])c(F)c([H])c6F)c([H])c5[H])c(C(=O)N([H])[H])c4N([H])[H])C3([H])[H])C([H])([H])C(=O)N([H])[H])C([H])(C([H])([H])[H])C([H])([H])[H])c([H])c([H])c2C1([H])[H]

>  <smiles>  (27) 
[H]c1c([H])c([H])c2c(c1[H])C([H])([H])C([H])([H])C([H])([H])C2([H])N([H])C(=O)C1([H])N(C(=O)C([H])(N([H])C(=O)C([H])(N([H])C([H])([H])[H])C([H])([H])[H])C(C([H])([H])[H])(C([H])([H])[H])C([H])([H])[H])C([H])([H])c2c([H])c(OC([H])([H])C([H])([H])OC([H])([H])C([H])([H])[N+]([H])([H])C([H])(C(=O)N([H])C([H])(C(=O)N([H])C([H])([H])C([H])([H])N([H])C(=O)N3C([H])([H])C([H])([H])C([H])([H])C([H])(n4nc(-c5c([H])c([H])c(Oc6c([H])c([H])c(F)c([H])c6F)c([H])c5[H])c(C(=O)N([H])[H])c4N([H])[H])C3([H])[H])C([H])([H])C(=O)N([H])[H])C([H])(C([H])([H])[H])C([H])([H])[H])c([H])c([H])c2C1([H])[H]

$$$$
30:0:0
     RDKit          3D

101108  0  0  1  0  0  0  0  0999 V2000
  -30.2750  -20.0410   17.5750 N   0  0  0  0  0  4  0  0  0  0  0  0
  -30.2430  -19.1130   17.1860 H   0  0  0  0  0  0  0  0  0  0  0  0
  -31.0380  -20.0660   18.2310 H   0  0  0  0  0  0  0  0  0  0  0  0
  -30.5540  -21.0180   16.4930 C   0  0  0  0  0  2  0  0  0  0  0  0
  -31.6550  -22.0050   16.9050 C   0  0  0  0  0  2  0  0  0  0  0  0
  -31.2430  -22.7070   18.0750 O   0  0  0  0  0  0  0  0  0  0  0  0
  -32.2550  -23.5900   18.5540 C   0  0  0  0  0  2  0  0  0  0  0  0
  -31.8320  -24.2090   19.8940 C   0  0  0  0  0  2  0  0  0  0  0  0
  -30.9110  -25.2800   19.7020 O   0  0  0  0  0  0  0  0  0  0  0  0
  -30.4600  -25.8100   20.9450 C   0  0  0  0  0  2  0  0  0  0  0  0
  -29.5260  -27.0130   20.7470 C   0  0  0  0  0  2  0  0  0  0  0  0
  -28.3310  -26.5780   20.1010 O   0  0  0  0  0  0  0  0  0  0  0  0
  -24.5000  -31.7420   23.2470 C   0  0  0  0  0  0  0  0  0  0  0  0
  -27.2010  -27.3650   20.1520 C   0  0  0  0  0  0  0  0  0  0  0  0
  -23.3050  -30.3440   21.5880 C   0  0  0  0  0  3  0  0  0  0  0  0
  -24.7760  -28.8230   20.1630 C   0  0  0  0  0  0  0  0  0  0  0  0
  -25.8240  -30.7330   21.3950 C   0  0  0  0  0  2  0  0  0  0  0  0
  -25.9230  -29.3660   20.7530 C   0  0  0  0  0  0  0  0  0  0  0  0
  -27.1380  -28.6510   20.7430 C   0  0  0  0  0  3  0  0  0  0  0  0
  -26.0360  -26.8330   19.5650 C   0  0  0  0  0  3  0  0  0  0  0  0
  -24.8240  -27.5520   19.5660 C   0  0  0  0  0  3  0  0  0  0  0  0
  -23.5230  -29.6680   20.2070 C   0  0  0  0  0  2  0  0  0  0  0  0
  -24.5620  -30.9530   22.1370 N   0  0  0  0  0  0  0  0  0  0  0  0
  -23.4160  -32.0030   23.7880 O   0  0  0  0  0  0  0  0  0  0  0  0
  -22.6560  -29.3170   22.5420 C   0  0  0  0  0  0  0  0  0  0  0  0
  -21.3320  -29.1400   22.4170 N   0  0  0  0  0  0  0  0  0  0  0  0
  -23.3420  -28.6800   23.3450 O   0  0  0  0  0  0  0  0  0  0  0  0
  -20.8380  -29.7030   21.7380 H   0  0  0  0  0  0  0  0  0  0  0  0
  -17.9550  -27.9580   22.9120 C   0  0  0  0  0  0  0  0  0  0  0  0
  -20.5150  -28.1970   23.1800 C   0  0  0  0  0  3  0  0  0  0  0  0
  -20.6090  -26.7730   22.5880 C   0  0  0  0  0  2  0  0  0  0  0  0
  -19.5020  -26.4680   21.5730 C   0  0  0  0  0  2  0  0  0  0  0  0
  -18.1220  -26.6150   22.2230 C   0  0  0  0  0  2  0  0  0  0  0  0
  -19.0790  -28.7070   23.3490 C   0  0  0  0  0  0  0  0  0  0  0  0
  -18.8690  -29.9670   23.9520 C   0  0  0  0  0  3  0  0  0  0  0  0
  -17.5680  -30.4740   24.1270 C   0  0  0  0  0  3  0  0  0  0  0  0
  -16.4580  -29.7200   23.7080 C   0  0  0  0  0  3  0  0  0  0  0  0
  -16.6530  -28.4640   23.1040 C   0  0  0  0  0  3  0  0  0  0  0  0
  -25.7830  -32.3730   23.8740 C   0  0  0  0  0  3  0  0  0  0  0  0
  -25.4870  -33.7830   24.1650 N   0  0  0  0  0  0  0  0  0  0  0  0
  -25.8480  -34.8100   23.3850 C   0  0  0  0  0  0  0  0  0  0  0  0
  -26.5370  -34.6730   22.3700 O   0  0  0  0  0  0  0  0  0  0  0  0
  -24.8810  -33.9660   24.9500 H   0  0  0  0  0  0  0  0  0  0  0  0
  -24.1440  -36.6070   22.9530 C   0  0  0  0  0  1  0  0  0  0  0  0
  -25.3680  -36.2140   23.7960 C   0  0  0  0  0  3  0  0  0  0  0  0
  -27.4980  -37.1000   24.6360 C   0  0  0  0  0  1  0  0  0  0  0  0
  -26.4130  -37.2530   23.6700 N   0  0  0  0  0  0  0  0  0  0  0  0
  -26.0130  -38.1810   23.7890 H   0  0  0  0  0  0  0  0  0  0  0  0
  -26.2730  -31.6260   25.1760 C   0  0  1  0  0  0  0  0  0  0  0  0
  -25.1610  -31.4270   26.2320 C   0  0  0  0  0  1  0  0  0  0  0  0
  -26.8430  -30.2320   24.8210 C   0  0  0  0  0  1  0  0  0  0  0  0
  -27.4210  -32.4200   25.8390 C   0  0  0  0  0  1  0  0  0  0  0  0
  -29.0200  -20.2660   18.3250 C   0  0  0  0  0  2  0  0  0  0  0  0
  -29.2270  -20.1570   19.8460 C   0  0  0  0  0  2  0  0  0  0  0  0
  -29.9280  -17.8080   20.2510 C   0  0  0  0  0  0  0  0  0  0  0  0
  -30.1800  -19.1230   20.2550 N   0  0  0  0  0  0  0  0  0  0  0  0
  -28.9510  -17.3280   19.6690 O   0  0  0  0  0  0  0  0  0  0  0  0
  -30.9990  -19.4280   20.7660 H   0  0  0  0  0  0  0  0  0  0  0  0
  -30.9080  -16.9030   21.0380 C   0  0  0  0  0  3  0  0  0  0  0  0
  -30.9910  -14.6460   19.9650 C   0  0  0  0  0  0  0  0  0  0  0  0
  -30.6670  -12.4490   18.8890 C   0  0  0  0  0  2  0  0  0  0  0  0
  -29.7180  -12.5650   17.6820 C   0  0  0  0  0  2  0  0  0  0  0  0
  -28.2460  -12.4590   18.1240 C   0  0  0  0  0  2  0  0  0  0  0  0
  -27.9120  -13.3930   19.3160 C   0  0  0  0  0  3  0  0  0  0  0  0
  -28.9590  -13.2290   20.4380 C   0  0  0  0  0  2  0  0  0  0  0  0
  -30.2970  -13.4830   19.8660 N   0  0  0  0  0  0  0  0  0  0  0  0
  -32.0070  -14.8940   19.3080 O   0  0  0  0  0  0  0  0  0  0  0  0
  -30.4920  -15.5150   20.8440 N   0  0  0  0  0  0  0  0  0  0  0  0
  -29.6480  -15.2410   21.3190 H   0  0  0  0  0  0  0  0  0  0  0  0
  -25.5090  -14.0630   19.9600 C   0  0  0  0  0  0  0  0  0  0  0  0
  -24.4370  -13.3250   20.3850 C   0  0  0  0  0  0  0  0  0  0  0  0
  -24.8950  -11.9740   20.4660 C   0  0  0  0  0  0  0  0  0  0  0  0
  -26.5540  -13.1640   19.8080 N   0  0  0  0  0  0  0  0  0  0  0  0
  -26.1860  -11.9070   20.1660 N   0  0  0  0  0  0  0  0  0  0  0  0
  -24.1670  -10.7320   20.7590 C   0  0  0  0  0  0  0  0  0  0  0  0
  -24.5760   -9.8630   21.7940 C   0  0  0  0  0  3  0  0  0  0  0  0
  -23.8500   -8.6840   22.0680 C   0  0  0  0  0  3  0  0  0  0  0  0
  -22.7010   -8.3650   21.3060 C   0  0  0  0  0  0  0  0  0  0  0  0
  -22.3120   -9.2220   20.2620 C   0  0  0  0  0  3  0  0  0  0  0  0
  -23.0390  -10.3920   19.9870 C   0  0  0  0  0  3  0  0  0  0  0  0
  -21.9490   -7.2290   21.4830 O   0  0  0  0  0  0  0  0  0  0  0  0
  -21.8340   -6.6260   22.7090 C   0  0  0  0  0  0  0  0  0  0  0  0
  -21.3360   -7.3160   23.8360 C   0  0  0  0  0  3  0  0  0  0  0  0
  -21.1690   -6.6380   25.0610 C   0  0  0  0  0  3  0  0  0  0  0  0
  -21.4900   -5.2710   25.1580 C   0  0  0  0  0  0  0  0  0  0  0  0
  -21.9810   -4.5810   24.0360 C   0  0  0  0  0  3  0  0  0  0  0  0
  -22.1500   -5.2550   22.8140 C   0  0  0  0  0  0  0  0  0  0  0  0
  -22.6030   -4.5810   21.7310 F   0  0  0  0  0  0  0  0  0  0  0  0
  -21.3230   -4.6170   26.3320 F   0  0  0  0  0  0  0  0  0  0  0  0
  -23.0400  -13.8240   20.6170 C   0  0  0  0  0  0  0  0  0  0  0  0
  -22.3210  -13.2200   21.5580 N   0  0  0  0  0  0  0  0  0  0  0  0
  -22.5930  -14.7880   19.9970 O   0  0  0  0  0  0  0  0  0  0  0  0
  -22.6940  -12.4420   22.0830 H   0  0  0  0  0  0  0  0  0  0  0  0
  -21.3840  -13.5410   21.7570 H   0  0  0  0  0  0  0  0  0  0  0  0
  -25.6800  -15.4160   19.6780 N   0  0  0  0  0  0  0  0  0  0  0  0
  -24.9260  -16.0890   19.7590 H   0  0  0  0  0  0  0  0  0  0  0  0
  -26.5620  -15.8400   19.4110 H   0  0  0  0  0  0  0  0  0  0  0  0
  -31.5100  -18.5880   22.9010 C   0  0  0  0  0  1  0  0  0  0  0  0
  -31.7960  -16.1580   23.2950 C   0  0  0  0  0  1  0  0  0  0  0  0
  -29.4900  -17.1380   23.2070 C   0  0  0  0  0  1  0  0  0  0  0  0
  -30.9050  -17.2010   22.5820 C   0  0  2  0  0  0  0  0  0  0  0  0
  1  3  1  0
  1 53  1  0
  2  1  1  0
  4  5  1  0
  4  1  1  0
  5  6  1  0
  6  7  1  0
  7  8  1  0
  9  8  1  0
  9 10  1  0
 11 10  1  0
 12 14  1  0
 12 11  1  0
 13 24  2  0
 14 19  1  0
 15 23  1  0
 15 25  1  0
 16 22  1  0
 16 18  1  0
 17 23  1  0
 18 17  1  0
 19 18  2  0
 20 21  1  0
 20 14  2  0
 21 16  2  0
 22 15  1  0
 23 13  1  0
 25 27  2  0
 26 25  1  0
 28 26  1  0
 29 38  2  0
 29 34  1  0
 30 26  1  0
 30 34  1  0
 31 30  1  0
 32 33  1  0
 32 31  1  0
 33 29  1  0
 34 35  2  0
 35 36  1  0
 37 36  2  0
 38 37  1  0
 39 13  1  0
 39 40  1  0
 39 49  1  0
 40 43  1  0
 41 45  1  0
 41 40  1  0
 42 41  2  0
 45 44  1  0
 47 48  1  0
 47 45  1  0
 47 46  1  0
 49 52  1  1
 49 50  1  0
 51 49  1  0
 53 54  1  0
 54 56  1  0
 55 56  1  0
 56 58  1  0
 57 55  2  0
 59 55  1  0
 59101  1  0
 60 68  1  0
 61 66  1  0
 62 63  1  0
 62 61  1  0
 64 63  1  0
 64 73  1  0
 64 65  1  0
 66 60  1  0
 66 65  1  0
 67 60  2  0
 68 59  1  0
 68 69  1  0
 70 71  2  0
 71 72  1  0
 71 90  1  0
 72 75  1  0
 73 70  1  0
 73 74  1  0
 74 72  2  0
 75 76  1  0
 76 77  2  0
 78 81  1  0
 78 77  1  0
 79 78  2  0
 80 79  1  0
 80 75  2  0
 81 82  1  0
 82 87  2  0
 82 83  1  0
 83 84  2  0
 84 85  1  0
 85 89  1  0
 86 85  2  0
 87 86  1  0
 88 87  1  0
 90 91  1  0
 91 94  1  0
 91 93  1  0
 92 90  2  0
 95 96  1  0
 95 70  1  0
 97 95  1  0
101 98  1  6
101100  1  0
101 99  1  0
M  ISO  4  11 101  12 101  60 100  68 100
M  END
>  <TORSDO>  (28) 
F 29

>  <SCORE>  (28) 
-5.877

>  <name>  (28) 
30

>  <ligand_id>  (28) 
30

>  <original_smiles>  (28) 
[H]c1c([H])c([H])c2c(c1[H])C([H])([H])C([H])([H])C([H])([H])C2([H])N([H])C(=O)C1([H])N(C(=O)C([H])(N([H])C(=O)C([H])(N([H])C([H])([H])[H])C([H])([H])[H])C(C([H])([H])[H])(C([H])([H])[H])C([H])([H])[H])C([H])([H])c2c([H])c(OC([H])([H])C([H])([H])OC([H])([H])C([H])([H])OC([H])([H])C([H])([H])[N+]([H])([H])C([H])([H])C([H])([H])N([H])C(=O)C([H])(N([H])C(=O)N3C([H])([H])C([H])([H])C([H])([H])C([H])(n4nc(-c5c([H])c([H])c(Oc6c([H])c([H])c(F)c([H])c6F)c([H])c5[H])c(C(=O)N([H])[H])c4N([H])[H])C3([H])[H])C(C([H])([H])[H])(C([H])([H])[H])C([H])([H])[H])c([H])c([H])c2C1([H])[H]

>  <smiles>  (28) 
[H]c1c([H])c([H])c2c(c1[H])C([H])([H])C([H])([H])C([H])([H])C2([H])N([H])C(=O)C1([H])N(C(=O)C([H])(N([H])C(=O)C([H])(N([H])C([H])([H])[H])C([H])([H])[H])C(C([H])([H])[H])(C([H])([H])[H])C([H])([H])[H])C([H])([H])c2c([H])c(OC([H])([H])C([H])([H])OC([H])([H])C([H])([H])OC([H])([H])C([H])([H])[N+]([H])([H])C([H])([H])C([H])([H])N([H])C(=O)C([H])(N([H])C(=O)N3C([H])([H])C([H])([H])C([H])([H])C([H])(n4nc(-c5c([H])c([H])c(Oc6c([H])c([H])c(F)c([H])c6F)c([H])c5[H])c(C(=O)N([H])[H])c4N([H])[H])C3([H])[H])C(C([H])([H])[H])(C([H])([H])[H])C([H])([H])[H])c([H])c([H])c2C1([H])[H]

$$$$
31:0:0
     RDKit          3D

116123  0  0  1  0  0  0  0  0999 V2000
  -28.6980  -25.9540   23.9090 C   0  0  0  0  0  3  0  0  0  0  0  0
  -26.2770  -25.4040   24.3030 C   0  0  0  0  0  0  0  0  0  0  0  0
  -27.2510  -25.9900   23.5680 N   0  0  0  0  0  0  0  0  0  0  0  0
  -26.5630  -24.8160   25.3440 O   0  0  0  0  0  0  0  0  0  0  0  0
  -27.0160  -26.5730   22.7810 H   0  0  0  0  0  0  0  0  0  0  0  0
  -24.4730  -23.9690   23.2770 C   0  0  0  0  0  1  0  0  0  0  0  0
  -23.8480  -25.6720   25.0210 C   0  0  0  0  0  1  0  0  0  0  0  0
  -24.7890  -25.3840   23.8230 C   0  0  1  0  0  0  0  0  0  0  0  0
  -24.5420  -26.3790   22.7570 N   0  0  0  0  0  4  0  0  0  0  0  0
  -25.2750  -26.4230   22.0780 H   0  0  0  0  0  0  0  0  0  0  0  0
  -24.3900  -27.3050   23.1460 H   0  0  0  0  0  0  0  0  0  0  0  0
  -23.6940  -26.1300   22.2730 H   0  0  0  0  0  0  0  0  0  0  0  0
  -29.4180  -27.2880   23.6110 C   0  0  0  0  0  0  0  0  0  0  0  0
  -30.1010  -27.4060   22.4650 N   0  0  0  0  0  0  0  0  0  0  0  0
  -29.3700  -28.2010   24.4310 O   0  0  0  0  0  0  0  0  0  0  0  0
  -30.1220  -26.6400   21.8110 H   0  0  0  0  0  0  0  0  0  0  0  0
  -30.9340  -28.5360   22.0750 C   0  0  0  0  0  2  0  0  0  0  0  0
  -31.4760  -28.3120   20.6530 C   0  0  0  0  0  2  0  0  0  0  0  0
  -32.0820  -27.0210   20.6000 O   0  0  0  0  0  0  0  0  0  0  0  0
  -32.7770  -26.7410   19.3850 C   0  0  0  0  0  2  0  0  0  0  0  0
  -31.9610  -25.8210   18.4600 C   0  0  0  0  0  2  0  0  0  0  0  0
  -31.9940  -24.4730   18.9260 O   0  0  0  0  0  0  0  0  0  0  0  0
  -31.3450  -23.5550   18.0470 C   0  0  0  0  0  2  0  0  0  0  0  0
  -31.2760  -22.1600   18.7070 C   0  0  0  0  0  2  0  0  0  0  0  0
  -30.1600  -21.2490   18.1500 C   0  0  0  0  0  2  0  0  0  0  0  0
  -29.6300  -20.2390   19.1810 C   0  0  0  0  0  2  0  0  0  0  0  0
  -30.6820  -19.3930   19.6260 O   0  0  0  0  0  0  0  0  0  0  0  0
  -30.2140  -18.3510   20.4740 C   0  0  0  0  0  2  0  0  0  0  0  0
  -31.4100  -17.5280   20.9650 C   0  0  0  0  0  2  0  0  0  0  0  0
  -31.0480  -16.4440   22.0110 C   0  0  0  0  0  2  0  0  0  0  0  0
  -30.7920  -14.3820   20.6360 C   0  0  0  0  0  0  0  0  0  0  0  0
  -30.4090  -12.2840   19.4050 C   0  0  0  0  0  2  0  0  0  0  0  0
  -29.4840  -12.5180   18.1970 C   0  0  0  0  0  2  0  0  0  0  0  0
  -28.0110  -12.3760   18.6180 C   0  0  0  0  0  2  0  0  0  0  0  0
  -27.6660  -13.2110   19.8800 C   0  0  0  0  0  3  0  0  0  0  0  0
  -28.7090  -12.9900   21.0000 C   0  0  0  0  0  2  0  0  0  0  0  0
  -30.0480  -13.2610   20.4450 N   0  0  0  0  0  0  0  0  0  0  0  0
  -31.8630  -14.5780   20.0590 O   0  0  0  0  0  0  0  0  0  0  0  0
  -30.3040  -15.2870   21.4940 N   0  0  0  0  0  0  0  0  0  0  0  0
  -29.4140  -15.0760   21.9210 H   0  0  0  0  0  0  0  0  0  0  0  0
  -25.2600  -13.8160   20.5700 C   0  0  0  0  0  0  0  0  0  0  0  0
  -24.1870  -13.0460   20.9160 C   0  0  0  0  0  0  0  0  0  0  0  0
  -24.6420  -11.6900   20.8740 C   0  0  0  0  0  0  0  0  0  0  0  0
  -26.3060  -12.9360   20.3410 N   0  0  0  0  0  0  0  0  0  0  0  0
  -25.9360  -11.6510   20.5780 N   0  0  0  0  0  0  0  0  0  0  0  0
  -23.9080  -10.4290   21.0400 C   0  0  0  0  0  0  0  0  0  0  0  0
  -24.3630   -9.4200   21.9180 C   0  0  0  0  0  3  0  0  0  0  0  0
  -23.6300   -8.2250   22.0760 C   0  0  0  0  0  3  0  0  0  0  0  0
  -22.4280   -8.0290   21.3540 C   0  0  0  0  0  0  0  0  0  0  0  0
  -21.9920   -9.0270   20.4650 C   0  0  0  0  0  3  0  0  0  0  0  0
  -22.7250  -10.2140   20.3050 C   0  0  0  0  0  3  0  0  0  0  0  0
  -21.6640   -6.8890   21.4240 O   0  0  0  0  0  0  0  0  0  0  0  0
  -21.6860   -6.0740   22.5280 C   0  0  0  0  0  0  0  0  0  0  0  0
  -21.4010   -6.5640   23.8210 C   0  0  0  0  0  3  0  0  0  0  0  0
  -21.3660   -5.6790   24.9180 C   0  0  0  0  0  3  0  0  0  0  0  0
  -21.6050   -4.3060   24.7220 C   0  0  0  0  0  0  0  0  0  0  0  0
  -21.8820   -3.8150   23.4340 C   0  0  0  0  0  3  0  0  0  0  0  0
  -21.9190   -4.6970   22.3400 C   0  0  0  0  0  0  0  0  0  0  0  0
  -22.1660   -4.2150   21.0980 F   0  0  0  0  0  0  0  0  0  0  0  0
  -21.5630   -3.4540   25.7740 F   0  0  0  0  0  0  0  0  0  0  0  0
  -22.7880  -13.5230   21.1830 C   0  0  0  0  0  0  0  0  0  0  0  0
  -22.0520  -12.8240   22.0380 N   0  0  0  0  0  0  0  0  0  0  0  0
  -22.3570  -14.5550   20.6670 O   0  0  0  0  0  0  0  0  0  0  0  0
  -22.4130  -11.9890   22.4770 H   0  0  0  0  0  0  0  0  0  0  0  0
  -21.1140  -13.1270   22.2590 H   0  0  0  0  0  0  0  0  0  0  0  0
  -25.4330  -15.1900   20.4110 N   0  0  0  0  0  0  0  0  0  0  0  0
  -24.6660  -15.8450   20.5150 H   0  0  0  0  0  0  0  0  0  0  0  0
  -26.2940  -15.6300   20.1130 H   0  0  0  0  0  0  0  0  0  0  0  0
  -29.5580  -23.5750   24.4950 C   0  0  0  0  0  1  0  0  0  0  0  0
  -29.4310  -24.6620   23.4110 C   0  0  0  0  0  3  0  0  0  0  0  0
  -28.7840  -24.1100   22.1950 N   0  0  0  0  0  4  0  0  0  0  0  0
  -28.8590  -23.1040   22.2400 H   0  0  0  0  0  0  0  0  0  0  0  0
  -27.7990  -24.3170   22.2460 H   0  0  0  0  0  0  0  0  0  0  0  0
  -29.3400  -24.5420   20.8870 C   0  0  0  0  0  2  0  0  0  0  0  0
  -28.3360  -25.2620   19.9670 C   0  0  0  0  0  2  0  0  0  0  0  0
  -28.3950  -26.6810   20.1760 O   0  0  0  0  0  0  0  0  0  0  0  0
  -24.6150  -31.8610   23.2070 C   0  0  0  0  0  0  0  0  0  0  0  0
  -27.2320  -27.4230   20.1000 C   0  0  0  0  0  0  0  0  0  0  0  0
  -23.3990  -30.4930   21.5430 C   0  0  0  0  0  3  0  0  0  0  0  0
  -24.8450  -28.9510   20.1080 C   0  0  0  0  0  0  0  0  0  0  0  0
  -25.9240  -30.8240   21.3570 C   0  0  0  0  0  2  0  0  0  0  0  0
  -26.0010  -29.4520   20.7220 C   0  0  0  0  0  0  0  0  0  0  0  0
  -27.1920  -28.6930   20.7200 C   0  0  0  0  0  3  0  0  0  0  0  0
  -26.0700  -26.9570   19.4420 C   0  0  0  0  0  3  0  0  0  0  0  0
  -24.8800  -27.7090   19.4540 C   0  0  0  0  0  3  0  0  0  0  0  0
  -23.6070  -29.8170   20.1580 C   0  0  0  0  0  2  0  0  0  0  0  0
  -24.6660  -31.0730   22.0960 N   0  0  0  0  0  0  0  0  0  0  0  0
  -23.5380  -32.1330   23.7500 O   0  0  0  0  0  0  0  0  0  0  0  0
  -22.7330  -29.4760   22.4960 C   0  0  0  0  0  0  0  0  0  0  0  0
  -21.4080  -29.3090   22.3710 N   0  0  0  0  0  0  0  0  0  0  0  0
  -23.4200  -28.8130   23.2860 O   0  0  0  0  0  0  0  0  0  0  0  0
  -20.9250  -29.8700   21.6840 H   0  0  0  0  0  0  0  0  0  0  0  0
  -18.0270  -28.1260   22.8470 C   0  0  0  0  0  0  0  0  0  0  0  0
  -20.5830  -28.3700   23.1310 C   0  0  0  0  0  3  0  0  0  0  0  0
  -20.6830  -26.9460   22.5370 C   0  0  0  0  0  2  0  0  0  0  0  0
  -19.5780  -26.6290   21.5250 C   0  0  0  0  0  2  0  0  0  0  0  0
  -18.1960  -26.7810   22.1610 C   0  0  0  0  0  2  0  0  0  0  0  0
  -19.1450  -28.8780   23.2900 C   0  0  0  0  0  0  0  0  0  0  0  0
  -18.9250  -30.1350   23.8960 C   0  0  0  0  0  3  0  0  0  0  0  0
  -17.6180  -30.6350   24.0650 C   0  0  0  0  0  3  0  0  0  0  0  0
  -16.5150  -29.8860   23.6190 C   0  0  0  0  0  3  0  0  0  0  0  0
  -16.7210  -28.6340   23.0160 C   0  0  0  0  0  3  0  0  0  0  0  0
  -25.9040  -32.4720   23.8360 C   0  0  0  0  0  3  0  0  0  0  0  0
  -25.5840  -33.8520   24.2260 N   0  0  0  0  0  0  0  0  0  0  0  0
  -25.9100  -34.9450   23.5150 C   0  0  0  0  0  0  0  0  0  0  0  0
  -26.5740  -34.8910   22.4790 O   0  0  0  0  0  0  0  0  0  0  0  0
  -24.9810  -33.9610   25.0280 H   0  0  0  0  0  0  0  0  0  0  0  0
  -24.1690  -36.7420   23.2660 C   0  0  0  0  0  1  0  0  0  0  0  0
  -25.4260  -36.3120   24.0380 C   0  0  0  0  0  3  0  0  0  0  0  0
  -27.5760  -37.1880   24.8480 C   0  0  0  0  0  1  0  0  0  0  0  0
  -26.4510  -37.3760   23.9350 N   0  0  0  0  0  0  0  0  0  0  0  0
  -26.0490  -38.2970   24.0920 H   0  0  0  0  0  0  0  0  0  0  0  0
  -26.4550  -31.6540   25.0700 C   0  0  1  0  0  0  0  0  0  0  0  0
  -25.3870  -31.3510   26.1490 C   0  0  0  0  0  1  0  0  0  0  0  0
  -27.0510  -30.2960   24.6410 C   0  0  0  0  0  1  0  0  0  0  0  0
  -27.6100  -32.4500   25.7190 C   0  0  0  0  0  1  0  0  0  0  0  0
  1 13  1  0
  2  4  2  0
  3  1  1  0
  3  2  1  0
  5  3  1  0
  8  6  1  6
  8  2  1  0
  8  7  1  0
  9 11  1  0
  9  8  1  0
 10  9  1  0
 12  9  1  0
 13 15  2  0
 14 13  1  0
 16 14  1  0
 17 14  1  0
 18 17  1  0
 19 18  1  0
 20 19  1  0
 21 22  1  0
 21 20  1  0
 23 24  1  0
 23 22  1  0
 25 24  1  0
 25 26  1  0
 26 27  1  0
 27 28  1  0
 28 29  1  0
 29 30  1  0
 31 39  1  0
 32 37  1  0
 33 34  1  0
 33 32  1  0
 35 34  1  0
 35 44  1  0
 35 36  1  0
 37 31  1  0
 37 36  1  0
 38 31  2  0
 39 40  1  0
 39 30  1  0
 41 42  2  0
 42 61  1  0
 43 42  1  0
 43 46  1  0
 44 41  1  0
 44 45  1  0
 45 43  2  0
 46 47  1  0
 47 48  2  0
 49 52  1  0
 49 48  1  0
 50 49  2  0
 51 50  1  0
 51 46  2  0
 52 53  1  0
 53 54  1  0
 54 55  2  0
 56 55  1  0
 56 60  1  0
 57 56  2  0
 58 53  2  0
 58 57  1  0
 59 58  1  0
 61 62  1  0
 62 65  1  0
 62 64  1  0
 63 61  2  0
 66 67  1  0
 66 41  1  0
 68 66  1  0
 70  1  1  0
 70 69  1  0
 71 72  1  0
 71 73  1  0
 71 70  1  0
 74 71  1  0
 75 76  1  0
 75 74  1  0
 77 88  2  0
 78 76  1  0
 78 83  1  0
 79 87  1  0
 79 89  1  0
 80 86  1  0
 80 82  1  0
 81 87  1  0
 82 81  1  0
 83 82  2  0
 84 85  1  0
 84 78  2  0
 85 80  2  0
 86 79  1  0
 87 77  1  0
 89 91  2  0
 90 89  1  0
 92 90  1  0
 93102  2  0
 93 98  1  0
 94 90  1  0
 94 98  1  0
 95 94  1  0
 96 97  1  0
 96 95  1  0
 97 93  1  0
 98 99  2  0
 99100  1  0
101100  2  0
102101  1  0
103 77  1  0
103104  1  0
103113  1  0
104107  1  0
105109  1  0
105104  1  0
106105  2  0
109108  1  0
111109  1  0
111112  1  0
111110  1  0
113116  1  1
113114  1  0
115113  1  0
M  ISO  4  31 100  39 100  75 101  76 101
M  END
>  <TORSDO>  (29) 
F 38

>  <SCORE>  (29) 
-8.243

>  <name>  (29) 
31

>  <ligand_id>  (29) 
31

>  <original_smiles>  (29) 
[H]c1c([H])c([H])c2c(c1[H])C([H])([H])C([H])([H])C([H])([H])C2([H])N([H])C(=O)C1([H])N(C(=O)C([H])(N([H])C(=O)C([H])(N([H])C([H])([H])[H])C([H])([H])[H])C(C([H])([H])[H])(C([H])([H])[H])C([H])([H])[H])C([H])([H])c2c([H])c(OC([H])([H])C([H])([H])[N+]([H])([H])C([H])(C([H])([H])[H])C([H])(C(=O)N([H])C([H])([H])C([H])([H])OC([H])([H])C([H])([H])OC([H])([H])C([H])([H])C([H])([H])C([H])([H])OC([H])([H])C([H])([H])C([H])([H])N([H])C(=O)N3C([H])([H])C([H])([H])C([H])([H])C([H])(n4nc(-c5c([H])c([H])c(Oc6c([H])c([H])c(F)c([H])c6F)c([H])c5[H])c(C(=O)N([H])[H])c4N([H])[H])C3([H])[H])N([H])C(=O)C(C([H])([H])[H])(C([H])([H])[H])[N+]([H])([H])[H])c([H])c([H])c2C1([H])[H]

>  <smiles>  (29) 
[H]c1c([H])c([H])c2c(c1[H])C([H])([H])C([H])([H])C([H])([H])C2([H])N([H])C(=O)C1([H])N(C(=O)C([H])(N([H])C(=O)C([H])(N([H])C([H])([H])[H])C([H])([H])[H])C(C([H])([H])[H])(C([H])([H])[H])C([H])([H])[H])C([H])([H])c2c([H])c(OC([H])([H])C([H])([H])[N+]([H])([H])C([H])(C([H])([H])[H])C([H])(C(=O)N([H])C([H])([H])C([H])([H])OC([H])([H])C([H])([H])OC([H])([H])C([H])([H])C([H])([H])C([H])([H])OC([H])([H])C([H])([H])C([H])([H])N([H])C(=O)N3C([H])([H])C([H])([H])C([H])([H])C([H])(n4nc(-c5c([H])c([H])c(Oc6c([H])c([H])c(F)c([H])c6F)c([H])c5[H])c(C(=O)N([H])[H])c4N([H])[H])C3([H])[H])N([H])C(=O)C(C([H])([H])[H])(C([H])([H])[H])[N+]([H])([H])[H])c([H])c([H])c2C1([H])[H]

$$$$
32:0:0
     RDKit          3D

107114  0  0  1  0  0  0  0  0999 V2000
  -30.6830  -21.7920   17.1500 C   0  0  0  0  0  0  0  0  0  0  0  0
  -29.5250  -21.4250   16.5890 N   0  0  0  0  0  0  0  0  0  0  0  0
  -31.6080  -21.0100   17.3640 O   0  0  0  0  0  0  0  0  0  0  0  0
  -28.8580  -22.1690   16.4230 H   0  0  0  0  0  0  0  0  0  0  0  0
  -30.8090  -23.2850   17.5170 C   0  0  0  0  0  3  0  0  0  0  0  0
  -31.1260  -24.2830   15.2660 C   0  0  0  0  0  0  0  0  0  0  0  0
  -30.5170  -25.1430   14.1700 C   0  0  0  0  0  1  0  0  0  0  0  0
  -30.4160  -24.1320   16.3910 N   0  0  0  0  0  0  0  0  0  0  0  0
  -32.2260  -23.7560   15.0940 O   0  0  0  0  0  0  0  0  0  0  0  0
  -29.5350  -24.6210   16.4690 H   0  0  0  0  0  0  0  0  0  0  0  0
  -29.8480  -23.5520   18.6940 C   0  0  0  0  0  2  0  0  0  0  0  0
  -29.8890  -24.9640   19.3030 C   0  0  0  0  0  2  0  0  0  0  0  0
  -28.4690  -25.5160   19.4120 C   0  0  0  0  0  2  0  0  0  0  0  0
  -28.4580  -26.8180   19.9810 O   0  0  0  0  0  0  0  0  0  0  0  0
  -24.5450  -31.7960   23.2060 C   0  0  0  0  0  0  0  0  0  0  0  0
  -27.2440  -27.4700   20.0250 C   0  0  0  0  0  0  0  0  0  0  0  0
  -23.3490  -30.4110   21.5420 C   0  0  0  0  0  3  0  0  0  0  0  0
  -24.8200  -28.9260   20.0870 C   0  0  0  0  0  0  0  0  0  0  0  0
  -25.8660  -30.8170   21.3320 C   0  0  0  0  0  2  0  0  0  0  0  0
  -25.9720  -29.4580   20.6780 C   0  0  0  0  0  0  0  0  0  0  0  0
  -27.1860  -28.7360   20.6490 C   0  0  0  0  0  3  0  0  0  0  0  0
  -26.0600  -26.9440   19.4510 C   0  0  0  0  0  3  0  0  0  0  0  0
  -24.8570  -27.6650   19.4760 C   0  0  0  0  0  3  0  0  0  0  0  0
  -23.5620  -29.7580   20.1510 C   0  0  0  0  0  2  0  0  0  0  0  0
  -24.6060  -31.0210   22.0850 N   0  0  0  0  0  0  0  0  0  0  0  0
  -23.4630  -32.0400   23.7560 O   0  0  0  0  0  0  0  0  0  0  0  0
  -22.7180  -29.3590   22.4820 C   0  0  0  0  0  0  0  0  0  0  0  0
  -21.4050  -29.1340   22.3270 N   0  0  0  0  0  0  0  0  0  0  0  0
  -23.4080  -28.7480   23.3030 O   0  0  0  0  0  0  0  0  0  0  0  0
  -20.9040  -29.6860   21.6450 H   0  0  0  0  0  0  0  0  0  0  0  0
  -18.0660  -27.8190   22.7370 C   0  0  0  0  0  0  0  0  0  0  0  0
  -20.6050  -28.1640   23.0750 C   0  0  0  0  0  3  0  0  0  0  0  0
  -20.7720  -26.7380   22.4980 C   0  0  0  0  0  2  0  0  0  0  0  0
  -19.7100  -26.3820   21.4540 C   0  0  0  0  0  2  0  0  0  0  0  0
  -18.3080  -26.4790   22.0640 C   0  0  0  0  0  2  0  0  0  0  0  0
  -19.1470  -28.6180   23.1980 C   0  0  0  0  0  0  0  0  0  0  0  0
  -18.8730  -29.8720   23.7850 C   0  0  0  0  0  3  0  0  0  0  0  0
  -17.5490  -30.3340   23.9120 C   0  0  0  0  0  3  0  0  0  0  0  0
  -16.4830  -29.5340   23.4670 C   0  0  0  0  0  3  0  0  0  0  0  0
  -16.7420  -28.2770   22.8890 C   0  0  0  0  0  3  0  0  0  0  0  0
  -25.8250  -32.4270   23.8340 C   0  0  0  0  0  3  0  0  0  0  0  0
  -26.3340  -31.6610   25.1150 C   0  0  1  0  0  0  0  0  0  0  0  0
  -25.2330  -31.4220   26.1740 C   0  0  0  0  0  1  0  0  0  0  0  0
  -26.9210  -30.2850   24.7230 C   0  0  0  0  0  1  0  0  0  0  0  0
  -27.4780  -32.4570   25.7830 C   0  0  0  0  0  1  0  0  0  0  0  0
  -25.5110  -33.8270   24.1520 N   0  0  0  0  0  0  0  0  0  0  0  0
  -25.8670  -34.8730   23.3960 C   0  0  0  0  0  0  0  0  0  0  0  0
  -26.5640  -34.7650   22.3820 O   0  0  0  0  0  0  0  0  0  0  0  0
  -24.8840  -33.9840   24.9260 H   0  0  0  0  0  0  0  0  0  0  0  0
  -24.1500  -36.6690   22.9910 C   0  0  0  0  0  1  0  0  0  0  0  0
  -25.3700  -36.2660   23.8330 C   0  0  0  0  0  3  0  0  0  0  0  0
  -27.4920  -37.1470   24.7000 C   0  0  0  0  0  1  0  0  0  0  0  0
  -26.4050  -37.3190   23.7380 N   0  0  0  0  0  0  0  0  0  0  0  0
  -25.9960  -38.2370   23.8860 H   0  0  0  0  0  0  0  0  0  0  0  0
  -29.1090  -20.0720   16.2350 C   0  0  0  0  0  2  0  0  0  0  0  0
  -29.0310  -19.1130   17.4460 C   0  0  0  0  0  2  0  0  0  0  0  0
  -28.7040  -19.7490   18.6810 O   0  0  0  0  0  0  0  0  0  0  0  0
  -27.4560  -20.4250   18.7230 C   0  0  0  0  0  2  0  0  0  0  0  0
  -27.1190  -20.7040   20.1960 C   0  0  0  0  0  2  0  0  0  0  0  0
  -28.0110  -21.6690   20.7640 O   0  0  0  0  0  0  0  0  0  0  0  0
  -28.9050  -21.1660   21.7570 C   0  0  0  0  0  2  0  0  0  0  0  0
  -30.3610  -21.3540   21.2880 C   0  0  0  0  0  2  0  0  0  0  0  0
  -31.4000  -20.3960   21.8830 C   0  0  0  0  0  2  0  0  0  0  0  0
  -31.5760  -19.0940   21.0870 C   0  0  0  0  0  2  0  0  0  0  0  0
  -30.7210  -17.9420   21.6390 C   0  0  0  0  0  2  0  0  0  0  0  0
  -30.9980  -16.7010   21.0020 O   0  0  0  0  0  0  0  0  0  0  0  0
  -30.7420  -16.6520   19.5890 C   0  0  0  0  0  2  0  0  0  0  0  0
  -32.0030  -16.8340   18.6840 C   0  0  0  0  0  2  0  0  0  0  0  0
  -32.7230  -15.7530   17.8210 C   0  0  0  0  0  2  0  0  0  0  0  0
  -34.2550  -16.3490   15.9440 C   0  0  0  0  0  0  0  0  0  0  0  0
  -35.5430  -15.7090   13.9480 C   0  0  0  0  0  2  0  0  0  0  0  0
  -36.1130  -16.8960   13.1610 C   0  0  0  0  0  2  0  0  0  0  0  0
  -35.0770  -17.4100   12.1450 C   0  0  0  0  0  2  0  0  0  0  0  0
  -33.6920  -17.6720   12.7940 C   0  0  0  0  0  3  0  0  0  0  0  0
  -33.2380  -16.4670   13.6470 C   0  0  0  0  0  2  0  0  0  0  0  0
  -34.3050  -16.1350   14.6120 N   0  0  0  0  0  0  0  0  0  0  0  0
  -35.2520  -16.4470   16.6660 O   0  0  0  0  0  0  0  0  0  0  0  0
  -33.0300  -16.1810   16.4530 N   0  0  0  0  0  0  0  0  0  0  0  0
  -32.2920  -16.0920   15.7670 H   0  0  0  0  0  0  0  0  0  0  0  0
  -31.9590  -19.1910   11.6410 C   0  0  0  0  0  0  0  0  0  0  0  0
  -31.2100  -19.0290   10.5070 C   0  0  0  0  0  0  0  0  0  0  0  0
  -31.5340  -17.7340   10.0000 C   0  0  0  0  0  0  0  0  0  0  0  0
  -32.6890  -18.0190   11.7870 N   0  0  0  0  0  0  0  0  0  0  0  0
  -32.3810  -17.1210   10.8170 N   0  0  0  0  0  0  0  0  0  0  0  0
  -31.1350  -17.0680    8.7540 C   0  0  0  0  0  0  0  0  0  0  0  0
  -30.5710  -15.7720    8.7620 C   0  0  0  0  0  3  0  0  0  0  0  0
  -30.1770  -15.1580    7.5530 C   0  0  0  0  0  3  0  0  0  0  0  0
  -30.3400  -15.8410    6.3230 C   0  0  0  0  0  0  0  0  0  0  0  0
  -30.9230  -17.1200    6.3210 C   0  0  0  0  0  3  0  0  0  0  0  0
  -31.3210  -17.7290    7.5240 C   0  0  0  0  0  3  0  0  0  0  0  0
  -30.0050  -15.3160    5.0980 O   0  0  0  0  0  0  0  0  0  0  0  0
  -29.0160  -14.3750    4.9640 C   0  0  0  0  0  0  0  0  0  0  0  0
  -27.6940  -14.6110    5.4040 C   0  0  0  0  0  3  0  0  0  0  0  0
  -26.6950  -13.6430    5.1810 C   0  0  0  0  0  3  0  0  0  0  0  0
  -27.0100  -12.4440    4.5130 C   0  0  0  0  0  0  0  0  0  0  0  0
  -28.3240  -12.2080    4.0700 C   0  0  0  0  0  3  0  0  0  0  0  0
  -29.3220  -13.1740    4.2940 C   0  0  0  0  0  0  0  0  0  0  0  0
  -30.5810  -12.9520    3.8450 F   0  0  0  0  0  0  0  0  0  0  0  0
  -26.0500  -11.5150    4.2950 F   0  0  0  0  0  0  0  0  0  0  0  0
  -30.3170  -20.0580    9.8700 C   0  0  0  0  0  0  0  0  0  0  0  0
  -29.2590  -19.6210    9.1940 N   0  0  0  0  0  0  0  0  0  0  0  0
  -30.5300  -21.2620   10.0070 O   0  0  0  0  0  0  0  0  0  0  0  0
  -29.0630  -18.6350    9.1060 H   0  0  0  0  0  0  0  0  0  0  0  0
  -28.6350  -20.2860    8.7570 H   0  0  0  0  0  0  0  0  0  0  0  0
  -32.0940  -20.2410   12.5480 N   0  0  0  0  0  0  0  0  0  0  0  0
  -31.5990  -21.1180   12.4320 H   0  0  0  0  0  0  0  0  0  0  0  0
  -32.7140  -20.2330   13.3480 H   0  0  0  0  0  0  0  0  0  0  0  0
  1  3  2  0
  1  5  1  0
  2  1  1  0
  4  2  1  0
  5 11  1  0
  6  8  1  0
  7  6  1  0
  8 10  1  0
  8  5  1  0
  9  6  2  0
 11 12  1  0
 12 13  1  0
 13 14  1  0
 14 16  1  0
 15 26  2  0
 16 21  1  0
 17 25  1  0
 17 27  1  0
 18 24  1  0
 18 20  1  0
 19 25  1  0
 20 19  1  0
 21 20  2  0
 22 23  1  0
 22 16  2  0
 23 18  2  0
 24 17  1  0
 25 15  1  0
 27 29  2  0
 28 27  1  0
 30 28  1  0
 31 40  2  0
 31 36  1  0
 32 28  1  0
 32 36  1  0
 33 32  1  0
 34 35  1  0
 34 33  1  0
 35 31  1  0
 36 37  2  0
 37 38  1  0
 39 38  2  0
 40 39  1  0
 41 15  1  0
 41 46  1  0
 41 42  1  0
 42 45  1  1
 42 43  1  0
 44 42  1  0
 46 49  1  0
 47 51  1  0
 47 46  1  0
 48 47  2  0
 51 50  1  0
 53 51  1  0
 53 54  1  0
 53 52  1  0
 55  2  1  0
 55 56  1  0
 56 57  1  0
 57 58  1  0
 58 59  1  0
 59 60  1  0
 60 61  1  0
 62 61  1  0
 62 63  1  0
 64 65  1  0
 64 63  1  0
 66 65  1  0
 67 66  1  0
 68 67  1  0
 69 68  1  0
 70 78  1  0
 70 77  2  0
 71 76  1  0
 72 71  1  0
 73 74  1  0
 73 72  1  0
 74 83  1  0
 74 75  1  0
 75 76  1  0
 76 70  1  0
 78 69  1  0
 79 78  1  0
 80 83  1  0
 80105  1  0
 81 80  2  0
 82 81  1  0
 82 84  2  0
 84 83  1  0
 85 86  1  0
 85 82  1  0
 87 86  2  0
 88 87  1  0
 89 88  2  0
 89 90  1  0
 90 85  2  0
 91 88  1  0
 92 91  1  0
 92 93  1  0
 94 93  2  0
 95 94  1  0
 96 97  1  0
 96 95  2  0
 97 92  2  0
 98 97  1  0
 99 95  1  0
100102  2  0
100 81  1  0
101100  1  0
103101  1  0
104101  1  0
105107  1  0
106105  1  0
M  ISO  4  13 101  14 101  70 100  78 100
M  END
>  <TORSDO>  (30) 
F 36

>  <SCORE>  (30) 
-5.798

>  <name>  (30) 
32

>  <ligand_id>  (30) 
32

>  <original_smiles>  (30) 
[H]c1c([H])c([H])c2c(c1[H])C([H])([H])C([H])([H])C([H])([H])C2([H])N([H])C(=O)C1([H])N(C(=O)C([H])(N([H])C(=O)C([H])(N([H])C([H])([H])[H])C([H])([H])[H])C(C([H])([H])[H])(C([H])([H])[H])C([H])([H])[H])C([H])([H])c2c([H])c(OC([H])([H])C([H])([H])C([H])([H])C([H])(C(=O)N([H])C([H])([H])C([H])([H])OC([H])([H])C([H])([H])OC([H])([H])C([H])([H])C([H])([H])C([H])([H])C([H])([H])OC([H])([H])C([H])([H])C([H])([H])N([H])C(=O)N3C([H])([H])C([H])([H])C([H])([H])C([H])(n4nc(-c5c([H])c([H])c(Oc6c([H])c([H])c(F)c([H])c6F)c([H])c5[H])c(C(=O)N([H])[H])c4N([H])[H])C3([H])[H])N([H])C(=O)C([H])([H])[H])c([H])c([H])c2C1([H])[H]

>  <smiles>  (30) 
[H]c1c([H])c([H])c2c(c1[H])C([H])([H])C([H])([H])C([H])([H])C2([H])N([H])C(=O)C1([H])N(C(=O)C([H])(N([H])C(=O)C([H])(N([H])C([H])([H])[H])C([H])([H])[H])C(C([H])([H])[H])(C([H])([H])[H])C([H])([H])[H])C([H])([H])c2c([H])c(OC([H])([H])C([H])([H])C([H])([H])C([H])(C(=O)N([H])C([H])([H])C([H])([H])OC([H])([H])C([H])([H])OC([H])([H])C([H])([H])C([H])([H])C([H])([H])C([H])([H])OC([H])([H])C([H])([H])C([H])([H])N([H])C(=O)N3C([H])([H])C([H])([H])C([H])([H])C([H])(n4nc(-c5c([H])c([H])c(Oc6c([H])c([H])c(F)c([H])c6F)c([H])c5[H])c(C(=O)N([H])[H])c4N([H])[H])C3([H])[H])N([H])C(=O)C([H])([H])[H])c([H])c([H])c2C1([H])[H]

$$$$
33:0:0
     RDKit          3D

 97104  0  0  1  0  0  0  0  0999 V2000
  -28.8920  -21.7660   23.0920 N   0  0  0  0  0  4  0  0  0  0  0  0
  -29.1450  -20.8880   22.6540 H   0  0  0  0  0  0  0  0  0  0  0  0
  -28.5370  -21.5700   24.0130 H   0  0  0  0  0  0  0  0  0  0  0  0
  -30.8930  -22.1830   24.4850 C   0  0  0  0  0  1  0  0  0  0  0  0
  -30.1750  -22.5020   23.1610 C   0  0  0  0  0  3  0  0  0  0  0  0
  -31.0090  -22.1060   21.9290 C   0  0  0  0  0  2  0  0  0  0  0  0
  -30.1860  -21.2310   21.1510 O   0  0  0  0  0  0  0  0  0  0  0  0
  -30.8770  -20.1870   20.4850 C   0  0  0  0  0  2  0  0  0  0  0  0
  -30.6700  -18.8690   21.2480 C   0  0  0  0  0  2  0  0  0  0  0  0
  -31.4200  -17.7000   20.6010 C   0  0  0  0  0  2  0  0  0  0  0  0
  -31.5250  -16.4580   21.5050 C   0  0  0  0  0  2  0  0  0  0  0  0
  -30.8940  -14.4420   20.1950 C   0  0  0  0  0  0  0  0  0  0  0  0
  -30.7360  -12.0140   19.8070 C   0  0  0  0  0  2  0  0  0  0  0  0
  -29.8710  -11.6260   18.5990 C   0  0  0  0  0  2  0  0  0  0  0  0
  -28.3980  -11.4970   19.0210 C   0  0  0  0  0  2  0  0  0  0  0  0
  -27.8980  -12.7450   19.7920 C   0  0  0  0  0  3  0  0  0  0  0  0
  -28.8730  -13.1300   20.9290 C   0  0  0  0  0  2  0  0  0  0  0  0
  -30.2320  -13.2740   20.3720 N   0  0  0  0  0  0  0  0  0  0  0  0
  -31.8270  -14.5870   19.3980 O   0  0  0  0  0  0  0  0  0  0  0  0
  -30.6260  -15.3680   21.1260 N   0  0  0  0  0  0  0  0  0  0  0  0
  -29.8820  -15.1400   21.7710 H   0  0  0  0  0  0  0  0  0  0  0  0
  -25.5460  -13.4830   20.5360 C   0  0  0  0  0  0  0  0  0  0  0  0
  -24.4430  -12.7710   20.9250 C   0  0  0  0  0  0  0  0  0  0  0  0
  -24.8320  -11.3950   20.8930 C   0  0  0  0  0  0  0  0  0  0  0  0
  -26.5390  -12.5460   20.2930 N   0  0  0  0  0  0  0  0  0  0  0  0
  -26.1120  -11.2860   20.5640 N   0  0  0  0  0  0  0  0  0  0  0  0
  -24.0430  -10.1740   21.1000 C   0  0  0  0  0  0  0  0  0  0  0  0
  -24.2110   -9.3730   22.2510 C   0  0  0  0  0  3  0  0  0  0  0  0
  -23.4280   -8.2130   22.4360 C   0  0  0  0  0  3  0  0  0  0  0  0
  -22.4640   -7.8450   21.4680 C   0  0  0  0  0  0  0  0  0  0  0  0
  -22.3170   -8.6340   20.3130 C   0  0  0  0  0  3  0  0  0  0  0  0
  -23.1000   -9.7850   20.1270 C   0  0  0  0  0  3  0  0  0  0  0  0
  -21.6770   -6.7210   21.5510 O   0  0  0  0  0  0  0  0  0  0  0  0
  -21.0270   -6.3830   22.7090 C   0  0  0  0  0  0  0  0  0  0  0  0
  -20.1180   -7.2630   23.3400 C   0  0  0  0  0  3  0  0  0  0  0  0
  -19.4190   -6.8470   24.4900 C   0  0  0  0  0  3  0  0  0  0  0  0
  -19.6170   -5.5530   25.0070 C   0  0  0  0  0  0  0  0  0  0  0  0
  -20.5170   -4.6750   24.3780 C   0  0  0  0  0  3  0  0  0  0  0  0
  -21.2160   -5.0880   23.2320 C   0  0  0  0  0  0  0  0  0  0  0  0
  -22.0660   -4.2290   22.6170 F   0  0  0  0  0  0  0  0  0  0  0  0
  -18.9400   -5.1510   26.1070 F   0  0  0  0  0  0  0  0  0  0  0  0
  -23.0780  -13.3210   21.2200 C   0  0  0  0  0  0  0  0  0  0  0  0
  -22.3560  -12.7060   22.1490 N   0  0  0  0  0  0  0  0  0  0  0  0
  -22.6630  -14.3340   20.6580 O   0  0  0  0  0  0  0  0  0  0  0  0
  -22.7040  -11.8870   22.6240 H   0  0  0  0  0  0  0  0  0  0  0  0
  -21.4410  -13.0600   22.3900 H   0  0  0  0  0  0  0  0  0  0  0  0
  -25.7810  -14.8430   20.3490 N   0  0  0  0  0  0  0  0  0  0  0  0
  -25.0510  -15.5380   20.4570 H   0  0  0  0  0  0  0  0  0  0  0  0
  -26.6560  -15.2320   20.0190 H   0  0  0  0  0  0  0  0  0  0  0  0
  -27.8280  -22.3960   22.2890 C   0  0  0  0  0  2  0  0  0  0  0  0
  -27.5970  -21.6100   20.9920 C   0  0  0  0  0  2  0  0  0  0  0  0
  -26.5530  -22.2770   20.0910 C   0  0  0  0  0  2  0  0  0  0  0  0
  -26.6910  -23.6960   20.1550 O   0  0  0  0  0  0  0  0  0  0  0  0
  -26.6610  -24.3570   18.8960 C   0  0  0  0  0  2  0  0  0  0  0  0
  -27.8380  -23.8970   18.0130 C   0  0  0  0  0  2  0  0  0  0  0  0
  -28.4900  -25.0180   17.1810 C   0  0  0  0  0  2  0  0  0  0  0  0
  -27.5300  -25.6850   16.3560 O   0  0  0  0  0  0  0  0  0  0  0  0
  -25.3550  -28.7230   22.4140 C   0  0  0  0  0  0  0  0  0  0  0  0
  -26.6100  -26.4680   17.0080 C   0  0  0  0  0  0  0  0  0  0  0  0
  -23.7270  -28.7260   20.5490 C   0  0  0  0  0  3  0  0  0  0  0  0
  -24.6550  -28.0550   18.2720 C   0  0  0  0  0  0  0  0  0  0  0  0
  -26.2410  -28.7260   20.0880 C   0  0  0  0  0  2  0  0  0  0  0  0
  -25.9410  -27.9610   18.8190 C   0  0  0  0  0  0  0  0  0  0  0  0
  -26.9210  -27.1610   18.1980 C   0  0  0  0  0  3  0  0  0  0  0  0
  -25.3190  -26.5870   16.4540 C   0  0  0  0  0  3  0  0  0  0  0  0
  -24.3320  -27.3630   17.0920 C   0  0  0  0  0  3  0  0  0  0  0  0
  -23.6620  -28.9220   19.0090 C   0  0  0  0  0  2  0  0  0  0  0  0
  -25.1340  -28.7000   21.0700 N   0  0  0  0  0  0  0  0  0  0  0  0
  -24.4130  -28.8130   23.2150 O   0  0  0  0  0  0  0  0  0  0  0  0
  -22.9160  -27.4640   20.9170 C   0  0  0  0  0  0  0  0  0  0  0  0
  -21.5780  -27.5750   20.8610 N   0  0  0  0  0  0  0  0  0  0  0  0
  -23.4840  -26.4100   21.2090 O   0  0  0  0  0  0  0  0  0  0  0  0
  -21.1900  -28.4710   20.5990 H   0  0  0  0  0  0  0  0  0  0  0  0
  -18.0540  -26.7880   20.9340 C   0  0  0  0  0  0  0  0  0  0  0  0
  -20.6160  -26.5080   21.1320 C   0  0  0  0  0  3  0  0  0  0  0  0
  -20.5020  -25.5460   19.9250 C   0  0  0  0  0  2  0  0  0  0  0  0
  -19.3780  -25.9260   18.9560 C   0  0  0  0  0  2  0  0  0  0  0  0
  -18.0260  -25.9370   19.6760 C   0  0  0  0  0  2  0  0  0  0  0  0
  -19.2710  -27.0700   21.6090 C   0  0  0  0  0  0  0  0  0  0  0  0
  -19.2450  -27.8970   22.7520 C   0  0  0  0  0  3  0  0  0  0  0  0
  -18.0310  -28.4320   23.2260 C   0  0  0  0  0  3  0  0  0  0  0  0
  -16.8270  -28.1380   22.5620 C   0  0  0  0  0  3  0  0  0  0  0  0
  -16.8400  -27.3150   21.4200 C   0  0  0  0  0  3  0  0  0  0  0  0
  -26.7970  -28.6660   23.0080 C   0  0  0  0  0  3  0  0  0  0  0  0
  -26.8570  -29.6290   24.1150 N   0  0  0  0  0  0  0  0  0  0  0  0
  -27.4630  -30.8230   24.0510 C   0  0  0  0  0  0  0  0  0  0  0  0
  -28.0990  -31.2010   23.0640 O   0  0  0  0  0  0  0  0  0  0  0  0
  -26.3080  -29.4100   24.9330 H   0  0  0  0  0  0  0  0  0  0  0  0
  -26.3010  -32.8410   25.0010 C   0  0  0  0  0  1  0  0  0  0  0  0
  -27.3450  -31.7490   25.2770 C   0  0  0  0  0  3  0  0  0  0  0  0
  -29.5900  -31.4200   26.2150 C   0  0  0  0  0  1  0  0  0  0  0  0
  -28.6280  -32.3730   25.6670 N   0  0  0  0  0  0  0  0  0  0  0  0
  -28.4780  -33.1040   26.3570 H   0  0  0  0  0  0  0  0  0  0  0  0
  -27.2150  -27.2250   23.4980 C   0  0  1  0  0  0  0  0  0  0  0  0
  -26.1900  -26.5710   24.4540 C   0  0  0  0  0  1  0  0  0  0  0  0
  -27.4080  -26.2760   22.2910 C   0  0  0  0  0  1  0  0  0  0  0  0
  -28.5820  -27.2920   24.2230 C   0  0  0  0  0  1  0  0  0  0  0  0
  1  5  1  0
  1  3  1  0
  2  1  1  0
  5  4  1  0
  6  5  1  0
  7  6  1  0
  8  7  1  0
  8  9  1  0
 10  9  1  0
 10 11  1  0
 12 18  1  0
 12 20  1  0
 13 18  1  0
 14 15  1  0
 14 13  1  0
 16 15  1  0
 16 25  1  0
 16 17  1  0
 18 17  1  0
 19 12  2  0
 20 11  1  0
 20 21  1  0
 22 23  2  0
 23 42  1  0
 24 23  1  0
 24 27  1  0
 25 22  1  0
 25 26  1  0
 26 24  2  0
 27 28  1  0
 28 29  2  0
 30 33  1  0
 30 29  1  0
 31 30  2  0
 32 31  1  0
 32 27  2  0
 33 34  1  0
 34 39  2  0
 34 35  1  0
 35 36  2  0
 36 37  1  0
 37 41  1  0
 38 37  2  0
 39 38  1  0
 40 39  1  0
 42 43  1  0
 43 46  1  0
 43 45  1  0
 44 42  2  0
 47 48  1  0
 47 22  1  0
 49 47  1  0
 50  1  1  0
 51 50  1  0
 52 53  1  0
 52 51  1  0
 54 53  1  0
 55 54  1  0
 56 55  1  0
 57 59  1  0
 57 56  1  0
 58 69  2  0
 59 64  1  0
 60 70  1  0
 60 68  1  0
 61 63  1  0
 61 67  1  0
 62 68  1  0
 63 62  1  0
 64 63  2  0
 65 59  2  0
 65 66  1  0
 66 61  2  0
 67 60  1  0
 68 58  1  0
 70 72  2  0
 71 70  1  0
 73 71  1  0
 74 83  2  0
 74 79  1  0
 75 71  1  0
 75 79  1  0
 76 75  1  0
 77 78  1  0
 77 76  1  0
 78 74  1  0
 79 80  2  0
 80 81  1  0
 82 81  2  0
 83 82  1  0
 84 58  1  0
 84 94  1  0
 84 85  1  0
 85 88  1  0
 86 85  1  0
 86 90  1  0
 87 86  2  0
 90 89  1  0
 90 92  1  0
 92 91  1  0
 92 93  1  0
 94 97  1  1
 94 95  1  0
 96 94  1  0
M  ISO  4  12 100  20 100  56 101  57 101
M  END
>  <TORSDO>  (31) 
F 30

>  <SCORE>  (31) 
-7.004

>  <name>  (31) 
33

>  <ligand_id>  (31) 
33

>  <original_smiles>  (31) 
[H]c1c([H])c([H])c2c(c1[H])C([H])([H])C([H])([H])C([H])([H])C2([H])N([H])C(=O)C1([H])N(C(=O)C([H])(N([H])C(=O)C([H])(N([H])C([H])([H])[H])C([H])([H])[H])C(C([H])([H])[H])(C([H])([H])[H])C([H])([H])[H])C([H])([H])c2c([H])c(OC([H])([H])C([H])([H])C([H])([H])OC([H])([H])C([H])([H])C([H])([H])[N+]([H])([H])C([H])(C([H])([H])[H])C([H])([H])OC([H])([H])C([H])([H])C([H])([H])C([H])([H])N([H])C(=O)N3C([H])([H])C([H])([H])C([H])([H])C([H])(n4nc(-c5c([H])c([H])c(Oc6c([H])c([H])c(F)c([H])c6F)c([H])c5[H])c(C(=O)N([H])[H])c4N([H])[H])C3([H])[H])c([H])c([H])c2C1([H])[H]

>  <smiles>  (31) 
[H]c1c([H])c([H])c2c(c1[H])C([H])([H])C([H])([H])C([H])([H])C2([H])N([H])C(=O)C1([H])N(C(=O)C([H])(N([H])C(=O)C([H])(N([H])C([H])([H])[H])C([H])([H])[H])C(C([H])([H])[H])(C([H])([H])[H])C([H])([H])[H])C([H])([H])c2c([H])c(OC([H])([H])C([H])([H])C([H])([H])OC([H])([H])C([H])([H])C([H])([H])[N+]([H])([H])C([H])(C([H])([H])[H])C([H])([H])OC([H])([H])C([H])([H])C([H])([H])C([H])([H])N([H])C(=O)N3C([H])([H])C([H])([H])C([H])([H])C([H])(n4nc(-c5c([H])c([H])c(Oc6c([H])c([H])c(F)c([H])c6F)c([H])c5[H])c(C(=O)N([H])[H])c4N([H])[H])C3([H])[H])c([H])c([H])c2C1([H])[H]

$$$$
34:0:0
     RDKit          3D

105114  0  0  1  0  0  0  0  0999 V2000
  -31.2980  -18.6230   22.6610 C   0  0  0  0  0  0  0  0  0  0  0  0
  -29.4580  -18.9770   19.7580 C   0  0  0  0  0  2  0  0  0  0  0  0
  -29.9700  -20.2020   18.9640 C   0  0  0  0  0  2  0  0  0  0  0  0
  -34.1740  -21.4690   18.7160 C   0  0  0  0  0  2  0  0  0  0  0  0
  -31.8410  -21.4440   17.7350 C   0  0  0  0  0  2  0  0  0  0  0  0
  -29.2780  -19.2300   21.2700 C   0  0  0  0  0  2  0  0  0  0  0  0
  -30.9260  -20.9400   21.9300 C   0  0  0  0  0  2  0  0  0  0  0  0
  -33.7920  -20.2040   19.5110 C   0  0  0  0  0  2  0  0  0  0  0  0
  -32.0770  -21.2640   20.9420 C   0  0  0  0  0  2  0  0  0  0  0  0
  -31.4920  -20.2520   18.6700 C   0  0  0  0  0  3  0  0  0  0  0  0
  -33.3570  -21.5600   17.4140 C   0  0  0  0  0  3  0  0  0  0  0  0
  -30.5490  -19.5160   21.9570 N   0  0  0  0  0  0  0  0  0  0  0  0
  -32.3560  -20.2320   19.8920 N   0  0  1  0  0  4  0  0  0  0  0  0
  -32.2020  -19.0040   23.4090 O   0  0  0  0  0  0  0  0  0  0  0  0
  -32.1910  -19.3420   20.3400 H   0  0  0  0  0  0  0  0  0  0  0  0
  -33.6960  -22.8100   16.6820 N   0  0  0  0  0  4  0  0  0  0  0  0
  -34.6970  -22.9180   16.7360 H   0  0  0  0  0  0  0  0  0  0  0  0
  -33.2950  -23.6150   17.1390 H   0  0  0  0  0  0  0  0  0  0  0  0
  -33.3950  -22.8370   15.2330 C   0  0  0  0  0  2  0  0  0  0  0  0
  -32.0180  -23.3940   14.9240 C   0  0  0  0  0  3  0  0  0  0  0  0
  -31.3020  -23.0510   13.8410 C   0  0  0  0  0  3  0  0  0  0  0  0
  -29.9300  -23.5910   13.5050 C   0  0  0  0  0  2  0  0  0  0  0  0
  -29.9720  -25.0160   13.4020 O   0  0  0  0  0  0  0  0  0  0  0  0
  -25.2190  -25.8950   18.6160 C   0  0  0  0  0  0  0  0  0  0  0  0
  -28.8440  -25.6730   13.8350 C   0  0  0  0  0  0  0  0  0  0  0  0
  -24.6660  -26.9700   16.4580 C   0  0  0  0  0  3  0  0  0  0  0  0
  -26.5490  -27.0430   14.7440 C   0  0  0  0  0  0  0  0  0  0  0  0
  -27.1000  -26.5850   17.1370 C   0  0  0  0  0  2  0  0  0  0  0  0
  -27.4290  -26.4610   15.6660 C   0  0  0  0  0  0  0  0  0  0  0  0
  -28.5800  -25.7780   15.2190 C   0  0  0  0  0  3  0  0  0  0  0  0
  -27.9540  -26.2730   12.9180 C   0  0  0  0  0  3  0  0  0  0  0  0
  -26.8060  -26.9500   13.3660 C   0  0  0  0  0  3  0  0  0  0  0  0
  -25.3420  -27.7570   15.3030 C   0  0  0  0  0  2  0  0  0  0  0  0
  -25.6580  -26.4350   17.4460 N   0  0  0  0  0  0  0  0  0  0  0  0
  -24.0140  -25.8740   18.9000 O   0  0  0  0  0  0  0  0  0  0  0  0
  -23.7610  -25.8760   15.8480 C   0  0  0  0  0  0  0  0  0  0  0  0
  -22.6330  -26.2970   15.2540 N   0  0  0  0  0  0  0  0  0  0  0  0
  -24.0900  -24.6880   15.8870 O   0  0  0  0  0  0  0  0  0  0  0  0
  -22.4370  -27.2880   15.2660 H   0  0  0  0  0  0  0  0  0  0  0  0
  -19.5380  -26.3640   13.3960 C   0  0  0  0  0  0  0  0  0  0  0  0
  -21.6440  -25.4550   14.5840 C   0  0  0  0  0  3  0  0  0  0  0  0
  -22.1350  -25.0420   13.1760 C   0  0  0  0  0  2  0  0  0  0  0  0
  -21.6600  -25.9880   12.0690 C   0  0  0  0  0  2  0  0  0  0  0  0
  -20.1300  -26.0460   12.0310 C   0  0  0  0  0  2  0  0  0  0  0  0
  -20.2550  -26.1030   14.5920 C   0  0  0  0  0  0  0  0  0  0  0  0
  -19.6750  -26.4520   15.8310 C   0  0  0  0  0  3  0  0  0  0  0  0
  -18.4050  -27.0570   15.8860 C   0  0  0  0  0  3  0  0  0  0  0  0
  -17.6910  -27.2980   14.7000 C   0  0  0  0  0  3  0  0  0  0  0  0
  -18.2530  -26.9440   13.4600 C   0  0  0  0  0  3  0  0  0  0  0  0
  -26.2120  -25.2980   19.6630 C   0  0  0  0  0  3  0  0  0  0  0  0
  -25.8080  -25.7840   20.9880 N   0  0  0  0  0  0  0  0  0  0  0  0
  -26.3540  -26.8400   21.6090 C   0  0  0  0  0  0  0  0  0  0  0  0
  -27.3120  -27.4680   21.1460 O   0  0  0  0  0  0  0  0  0  0  0  0
  -24.9950  -25.3500   21.3980 H   0  0  0  0  0  0  0  0  0  0  0  0
  -24.7400  -28.4180   22.7090 C   0  0  0  0  0  1  0  0  0  0  0  0
  -25.7360  -27.2740   22.9520 C   0  0  0  0  0  3  0  0  0  0  0  0
  -27.5640  -26.5760   24.4330 C   0  0  0  0  0  1  0  0  0  0  0  0
  -26.7420  -27.6850   23.9560 N   0  0  0  0  0  0  0  0  0  0  0  0
  -26.2950  -28.1160   24.7600 H   0  0  0  0  0  0  0  0  0  0  0  0
  -26.2630  -23.7210   19.6350 C   0  0  1  0  0  0  0  0  0  0  0  0
  -24.8700  -23.0560   19.7060 C   0  0  0  0  0  1  0  0  0  0  0  0
  -26.9630  -23.2240   18.3470 C   0  0  0  0  0  1  0  0  0  0  0  0
  -27.1030  -23.2000   20.8230 C   0  0  0  0  0  1  0  0  0  0  0  0
  -31.0580  -17.2160   22.3560 C   0  0  0  0  0  3  0  0  0  0  0  0
  -31.6210  -16.2500   23.1130 C   0  0  0  0  0  3  0  0  0  0  0  0
  -31.5180  -14.7440   22.9070 C   0  0  0  0  0  2  0  0  0  0  0  0
  -32.0390  -14.2090   21.5570 C   0  0  0  0  0  2  0  0  0  0  0  0
  -30.7640  -13.3980   19.5440 C   0  0  0  0  0  0  0  0  0  0  0  0
  -29.9660  -11.5080   18.1900 C   0  0  0  0  0  2  0  0  0  0  0  0
  -28.8460  -11.8090   17.1870 C   0  0  0  0  0  2  0  0  0  0  0  0
  -27.4700  -11.7230   17.8680 C   0  0  0  0  0  2  0  0  0  0  0  0
  -27.4030  -12.5690   19.1630 C   0  0  0  0  0  3  0  0  0  0  0  0
  -28.6020  -12.2670   20.0850 C   0  0  0  0  0  2  0  0  0  0  0  0
  -29.8520  -12.4300   19.3190 N   0  0  0  0  0  0  0  0  0  0  0  0
  -31.5260  -13.8680   18.6930 O   0  0  0  0  0  0  0  0  0  0  0  0
  -30.9490  -13.5510   20.8570 N   0  0  0  0  0  0  0  0  0  0  0  0
  -30.3260  -13.0000   21.4280 H   0  0  0  0  0  0  0  0  0  0  0  0
  -25.2160  -13.3250   20.2970 C   0  0  0  0  0  0  0  0  0  0  0  0
  -24.1710  -12.6210   20.8260 C   0  0  0  0  0  0  0  0  0  0  0  0
  -24.5100  -11.2410   20.6750 C   0  0  0  0  0  0  0  0  0  0  0  0
  -26.1340  -12.3800   19.8620 N   0  0  0  0  0  0  0  0  0  0  0  0
  -25.7200  -11.1190   20.1460 N   0  0  0  0  0  0  0  0  0  0  0  0
  -23.7280  -10.0280   20.9500 C   0  0  0  0  0  0  0  0  0  0  0  0
  -24.1440   -9.0820   21.9120 C   0  0  0  0  0  3  0  0  0  0  0  0
  -23.3670   -7.9330   22.1690 C   0  0  0  0  0  3  0  0  0  0  0  0
  -22.1560   -7.7220   21.4650 C   0  0  0  0  0  0  0  0  0  0  0  0
  -21.7590   -8.6570   20.4910 C   0  0  0  0  0  3  0  0  0  0  0  0
  -22.5370   -9.7970   20.2330 C   0  0  0  0  0  3  0  0  0  0  0  0
  -21.3490   -6.6220   21.6300 O   0  0  0  0  0  0  0  0  0  0  0  0
  -21.3510   -5.8980   22.7930 C   0  0  0  0  0  0  0  0  0  0  0  0
  -20.8820   -6.4400   24.0100 C   0  0  0  0  0  3  0  0  0  0  0  0
  -20.8370   -5.6380   25.1690 C   0  0  0  0  0  3  0  0  0  0  0  0
  -21.2470   -4.2920   25.1090 C   0  0  0  0  0  0  0  0  0  0  0  0
  -21.7090   -3.7490   23.8970 C   0  0  0  0  0  3  0  0  0  0  0  0
  -21.7570   -4.5480   22.7430 C   0  0  0  0  0  0  0  0  0  0  0  0
  -22.1820   -4.0140   21.5730 F   0  0  0  0  0  0  0  0  0  0  0  0
  -21.1970   -3.5180   26.2200 F   0  0  0  0  0  0  0  0  0  0  0  0
  -22.8830  -13.1860   21.3510 C   0  0  0  0  0  0  0  0  0  0  0  0
  -22.2570  -12.5070   22.3050 N   0  0  0  0  0  0  0  0  0  0  0  0
  -22.4490  -14.2660   20.9480 O   0  0  0  0  0  0  0  0  0  0  0  0
  -22.6250  -11.6330   22.6500 H   0  0  0  0  0  0  0  0  0  0  0  0
  -21.3970  -12.8660   22.6940 H   0  0  0  0  0  0  0  0  0  0  0  0
  -25.4540  -14.6860   20.1250 N   0  0  0  0  0  0  0  0  0  0  0  0
  -24.7460  -15.3790   20.3410 H   0  0  0  0  0  0  0  0  0  0  0  0
  -26.2420  -15.0640   19.6160 H   0  0  0  0  0  0  0  0  0  0  0  0
  1 14  2  0
  2  6  1  0
  3  2  1  0
  4  8  1  0
  6 12  1  0
  7 12  1  0
  8 13  1  0
  9  7  1  0
 10  5  1  0
 10  3  1  0
 10 13  1  0
 11 16  1  0
 11  5  1  0
 11  4  1  0
 12  1  1  0
 13 15  1  1
 13  9  1  0
 16 17  1  0
 16 18  1  0
 19 16  1  0
 20 19  1  0
 21 20  2  0
 22 21  1  0
 23 22  1  0
 23 25  1  0
 24 35  2  0
 25 30  1  0
 26 36  1  0
 26 34  1  0
 27 33  1  0
 27 29  1  0
 28 34  1  0
 29 28  1  0
 30 29  2  0
 31 32  1  0
 31 25  2  0
 32 27  2  0
 33 26  1  0
 34 24  1  0
 36 38  2  0
 37 39  1  0
 37 36  1  0
 40 49  2  0
 40 45  1  0
 41 45  1  0
 41 37  1  0
 42 41  1  0
 43 42  1  0
 44 43  1  0
 44 40  1  0
 45 46  2  0
 46 47  1  0
 48 47  2  0
 49 48  1  0
 50 24  1  0
 50 51  1  0
 51 54  1  0
 51 52  1  0
 52 56  1  0
 53 52  2  0
 56 55  1  0
 56 58  1  0
 58 57  1  0
 58 59  1  0
 60 50  1  0
 60 61  1  1
 60 63  1  0
 62 60  1  0
 64  1  1  0
 64 65  2  0
 66 65  1  0
 67 66  1  0
 68 76  1  0
 69 74  1  0
 70 71  1  0
 70 69  1  0
 72 71  1  0
 72 81  1  0
 72 73  1  0
 74 68  1  0
 74 73  1  0
 75 68  2  0
 76 77  1  0
 76 67  1  0
 78 79  2  0
 79 98  1  0
 80 79  1  0
 80 83  1  0
 81 82  1  0
 81 78  1  0
 82 80  2  0
 83 84  1  0
 84 85  2  0
 86 89  1  0
 86 85  1  0
 87 86  2  0
 88 87  1  0
 88 83  2  0
 89 90  1  0
 90 91  1  0
 91 92  2  0
 93 92  1  0
 93 97  1  0
 94 93  2  0
 95 90  2  0
 95 94  1  0
 96 95  1  0
 98 99  1  0
 99101  1  0
 99102  1  0
100 98  2  0
103 78  1  0
103104  1  0
105103  1  0
M  ISO  4  22 101  23 101  68 100  76 100
M  END
>  <TORSDO>  (32) 
F 23

>  <SCORE>  (32) 
-3.035

>  <name>  (32) 
34

>  <ligand_id>  (32) 
34

>  <original_smiles>  (32) 
[H]C(C(=O)N1C([H])([H])C([H])([H])C([H])([H])C2([H])C([H])([H])C([H])([N+]([H])([H])C([H])([H])C([H])=C([H])C([H])([H])Oc3c([H])c([H])c4c(c3[H])C([H])([H])N(C(=O)C([H])(N([H])C(=O)C([H])(N([H])C([H])([H])[H])C([H])([H])[H])C(C([H])([H])[H])(C([H])([H])[H])C([H])([H])[H])C([H])(C(=O)N([H])C3([H])c5c([H])c([H])c([H])c([H])c5C([H])([H])C([H])([H])C3([H])[H])C4([H])[H])C([H])([H])C([H])([H])[N+]2([H])C([H])([H])C1([H])[H])=C([H])C([H])([H])C([H])([H])N([H])C(=O)N1C([H])([H])C([H])([H])C([H])([H])C([H])(n2nc(-c3c([H])c([H])c(Oc4c([H])c([H])c(F)c([H])c4F)c([H])c3[H])c(C(=O)N([H])[H])c2N([H])[H])C1([H])[H]

>  <smiles>  (32) 
[H]C(C(=O)N1C([H])([H])C([H])([H])C([H])([H])C2([H])C([H])([H])C([H])([N+]([H])([H])C([H])([H])C([H])=C([H])C([H])([H])Oc3c([H])c([H])c4c(c3[H])C([H])([H])N(C(=O)C([H])(N([H])C(=O)C([H])(N([H])C([H])([H])[H])C([H])([H])[H])C(C([H])([H])[H])(C([H])([H])[H])C([H])([H])[H])C([H])(C(=O)N([H])C3([H])c5c([H])c([H])c([H])c([H])c5C([H])([H])C([H])([H])C3([H])[H])C4([H])[H])C([H])([H])C([H])([H])[N+]2([H])C([H])([H])C1([H])[H])=C([H])C([H])([H])C([H])([H])N([H])C(=O)N1C([H])([H])C([H])([H])C([H])([H])C([H])(n2nc(-c3c([H])c([H])c(Oc4c([H])c([H])c(F)c([H])c4F)c([H])c3[H])c(C(=O)N([H])[H])c2N([H])[H])C1([H])[H]

$$$$
35:0:0
     RDKit          3D

 96103  0  0  1  0  0  0  0  0999 V2000
  -30.7910  -20.7330   23.7540 C   0  0  0  0  0  0  0  0  0  0  0  0
  -30.0450  -21.6800   24.3390 N   0  0  0  0  0  0  0  0  0  0  0  0
  -31.7500  -20.9890   23.0160 O   0  0  0  0  0  0  0  0  0  0  0  0
  -29.2510  -21.4000   24.8990 H   0  0  0  0  0  0  0  0  0  0  0  0
  -30.8790  -18.7940   25.4400 C   0  0  0  0  0  1  0  0  0  0  0  0
  -30.4250  -19.2710   24.0500 C   0  0  0  0  0  3  0  0  0  0  0  0
  -30.5390  -17.2480   22.5800 C   0  0  0  0  0  0  0  0  0  0  0  0
  -30.9910  -18.4300   23.0020 N   0  0  0  0  0  0  0  0  0  0  0  0
  -29.5980  -16.6560   23.1130 O   0  0  0  0  0  0  0  0  0  0  0  0
  -31.7380  -18.8690   22.4780 H   0  0  0  0  0  0  0  0  0  0  0  0
  -31.0350  -17.5210   20.0880 C   0  0  0  0  0  1  0  0  0  0  0  0
  -31.2350  -16.6610   21.3510 C   0  0  0  0  0  3  0  0  0  0  0  0
  -31.3290  -14.4080   20.2860 C   0  0  0  0  0  0  0  0  0  0  0  0
  -30.8560  -12.4220   18.9090 C   0  0  0  0  0  2  0  0  0  0  0  0
  -29.8930  -12.8100   17.7700 C   0  0  0  0  0  2  0  0  0  0  0  0
  -28.4260  -12.7210   18.2350 C   0  0  0  0  0  2  0  0  0  0  0  0
  -28.1830  -13.4480   19.5850 C   0  0  0  0  0  3  0  0  0  0  0  0
  -29.2460  -13.0310   20.6250 C   0  0  0  0  0  2  0  0  0  0  0  0
  -30.5780  -13.3010   20.0530 N   0  0  0  0  0  0  0  0  0  0  0  0
  -32.3980  -14.6400   19.7130 O   0  0  0  0  0  0  0  0  0  0  0  0
  -30.7730  -15.2980   21.1120 N   0  0  0  0  0  0  0  0  0  0  0  0
  -29.9270  -15.0330   21.5960 H   0  0  0  0  0  0  0  0  0  0  0  0
  -25.8170  -14.1300   20.3420 C   0  0  0  0  0  0  0  0  0  0  0  0
  -24.7280  -13.3890   20.7170 C   0  0  0  0  0  0  0  0  0  0  0  0
  -25.1390  -12.0220   20.6500 C   0  0  0  0  0  0  0  0  0  0  0  0
  -26.8260  -13.2170   20.0780 N   0  0  0  0  0  0  0  0  0  0  0  0
  -26.4210  -11.9430   20.3160 N   0  0  0  0  0  0  0  0  0  0  0  0
  -24.3740  -10.7830   20.8300 C   0  0  0  0  0  0  0  0  0  0  0  0
  -24.7550   -9.8090   21.7790 C   0  0  0  0  0  3  0  0  0  0  0  0
  -23.9920   -8.6330   21.9450 C   0  0  0  0  0  3  0  0  0  0  0  0
  -22.8340   -8.4230   21.1610 C   0  0  0  0  0  0  0  0  0  0  0  0
  -22.4700   -9.3850   20.2010 C   0  0  0  0  0  3  0  0  0  0  0  0
  -23.2330  -10.5520   20.0340 C   0  0  0  0  0  3  0  0  0  0  0  0
  -22.0460   -7.2990   21.2350 O   0  0  0  0  0  0  0  0  0  0  0  0
  -21.8810   -6.6120   22.4110 C   0  0  0  0  0  0  0  0  0  0  0  0
  -21.3800   -7.2350   23.5740 C   0  0  0  0  0  3  0  0  0  0  0  0
  -21.1620   -6.4750   24.7410 C   0  0  0  0  0  3  0  0  0  0  0  0
  -21.4340   -5.0940   24.7440 C   0  0  0  0  0  0  0  0  0  0  0  0
  -21.9290   -4.4720   23.5840 C   0  0  0  0  0  3  0  0  0  0  0  0
  -22.1480   -5.2280   22.4200 C   0  0  0  0  0  0  0  0  0  0  0  0
  -22.6050   -4.6200   21.3000 F   0  0  0  0  0  0  0  0  0  0  0  0
  -21.2170   -4.3630   25.8620 F   0  0  0  0  0  0  0  0  0  0  0  0
  -23.3550  -13.9090   21.0290 C   0  0  0  0  0  0  0  0  0  0  0  0
  -22.6340  -13.2390   21.9210 N   0  0  0  0  0  0  0  0  0  0  0  0
  -22.9300  -14.9440   20.5160 O   0  0  0  0  0  0  0  0  0  0  0  0
  -22.9910  -12.4020   22.3570 H   0  0  0  0  0  0  0  0  0  0  0  0
  -21.7130  -13.5680   22.1730 H   0  0  0  0  0  0  0  0  0  0  0  0
  -26.0290  -15.4970   20.1890 N   0  0  0  0  0  0  0  0  0  0  0  0
  -25.2930  -16.1800   20.3270 H   0  0  0  0  0  0  0  0  0  0  0  0
  -26.8960  -15.9100   19.8670 H   0  0  0  0  0  0  0  0  0  0  0  0
  -30.2150  -23.0910   24.0880 C   0  0  0  0  0  2  0  0  0  0  0  0
  -29.5790  -23.4100   22.8900 O   0  0  0  0  0  0  0  0  0  0  0  0
  -29.7570  -24.7720   22.5180 C   0  0  0  0  0  2  0  0  0  0  0  0
  -28.9700  -25.0470   21.2310 C   0  0  0  0  0  2  0  0  0  0  0  0
  -29.2090  -26.4600   20.6790 C   0  0  0  0  0  2  0  0  0  0  0  0
  -28.4180  -26.6390   19.5050 O   0  0  0  0  0  0  0  0  0  0  0  0
  -24.6410  -31.5900   22.9910 C   0  0  0  0  0  0  0  0  0  0  0  0
  -27.2560  -27.3600   19.6410 C   0  0  0  0  0  0  0  0  0  0  0  0
  -23.4000  -30.2490   21.3200 C   0  0  0  0  0  3  0  0  0  0  0  0
  -24.8320  -28.7960   19.7860 C   0  0  0  0  0  0  0  0  0  0  0  0
  -25.9070  -30.6620   21.0610 C   0  0  0  0  0  2  0  0  0  0  0  0
  -25.9940  -29.3210   20.3670 C   0  0  0  0  0  0  0  0  0  0  0  0
  -27.2080  -28.6100   20.2970 C   0  0  0  0  0  3  0  0  0  0  0  0
  -26.0850  -26.8470   19.0490 C   0  0  0  0  0  3  0  0  0  0  0  0
  -24.8690  -27.5550   19.1270 C   0  0  0  0  0  3  0  0  0  0  0  0
  -23.5750  -29.6310   19.9050 C   0  0  0  0  0  2  0  0  0  0  0  0
  -24.6690  -30.8450   21.8500 N   0  0  0  0  0  0  0  0  0  0  0  0
  -23.5750  -31.8210   23.5770 O   0  0  0  0  0  0  0  0  0  0  0  0
  -22.7920  -29.1760   22.2520 C   0  0  0  0  0  0  0  0  0  0  0  0
  -21.4650  -28.9900   22.1600 N   0  0  0  0  0  0  0  0  0  0  0  0
  -23.5080  -28.5170   23.0090 O   0  0  0  0  0  0  0  0  0  0  0  0
  -20.9500  -29.5750   21.5180 H   0  0  0  0  0  0  0  0  0  0  0  0
  -18.1150  -27.7590   22.7160 C   0  0  0  0  0  0  0  0  0  0  0  0
  -20.6800  -28.0100   22.9090 C   0  0  0  0  0  3  0  0  0  0  0  0
  -20.7650  -26.6130   22.2540 C   0  0  0  0  0  2  0  0  0  0  0  0
  -19.6270  -26.3410   21.2650 C   0  0  0  0  0  2  0  0  0  0  0  0
  -18.2690  -26.4470   21.9660 C   0  0  0  0  0  2  0  0  0  0  0  0
  -19.2480  -28.5010   23.1450 C   0  0  0  0  0  0  0  0  0  0  0  0
  -19.0500  -29.7310   23.8080 C   0  0  0  0  0  3  0  0  0  0  0  0
  -17.7520  -30.2220   24.0440 C   0  0  0  0  0  3  0  0  0  0  0  0
  -16.6340  -29.4760   23.6310 C   0  0  0  0  0  3  0  0  0  0  0  0
  -16.8160  -28.2460   22.9740 C   0  0  0  0  0  3  0  0  0  0  0  0
  -25.9410  -32.2040   23.6010 C   0  0  0  0  0  3  0  0  0  0  0  0
  -26.5200  -31.3650   24.8050 C   0  0  1  0  0  0  0  0  0  0  0  0
  -25.4750  -31.0400   25.8970 C   0  0  0  0  0  1  0  0  0  0  0  0
  -27.1100  -30.0270   24.3000 C   0  0  0  0  0  1  0  0  0  0  0  0
  -27.6830  -32.1380   25.4700 C   0  0  0  0  0  1  0  0  0  0  0  0
  -25.6240  -33.5740   24.0250 N   0  0  0  0  0  0  0  0  0  0  0  0
  -25.9340  -34.6750   23.3250 C   0  0  0  0  0  0  0  0  0  0  0  0
  -26.5860  -34.6430   22.2790 O   0  0  0  0  0  0  0  0  0  0  0  0
  -25.0410  -33.6710   24.8420 H   0  0  0  0  0  0  0  0  0  0  0  0
  -24.1860  -36.4690   23.1000 C   0  0  0  0  0  1  0  0  0  0  0  0
  -25.4380  -36.0260   23.8750 C   0  0  0  0  0  3  0  0  0  0  0  0
  -27.5710  -36.8750   24.7460 C   0  0  0  0  0  1  0  0  0  0  0  0
  -26.4610  -37.0920   23.8210 N   0  0  0  0  0  0  0  0  0  0  0  0
  -26.0490  -37.9980   24.0290 H   0  0  0  0  0  0  0  0  0  0  0  0
  1  6  1  0
  1  2  1  0
  2  4  1  0
  3  1  2  0
  6  5  1  0
  7  8  1  0
  7  9  2  0
  8  6  1  0
 10  8  1  0
 12 11  1  0
 12  7  1  0
 13 21  1  0
 14 19  1  0
 15 16  1  0
 15 14  1  0
 17 16  1  0
 17 26  1  0
 17 18  1  0
 19 13  1  0
 19 18  1  0
 20 13  2  0
 21 12  1  0
 21 22  1  0
 23 24  2  0
 24 43  1  0
 25 24  1  0
 25 28  1  0
 26 27  1  0
 26 23  1  0
 27 25  2  0
 28 29  1  0
 29 30  2  0
 31 34  1  0
 31 30  1  0
 32 31  2  0
 33 32  1  0
 33 28  2  0
 34 35  1  0
 35 40  2  0
 35 36  1  0
 36 37  2  0
 37 38  1  0
 38 42  1  0
 39 38  2  0
 40 39  1  0
 41 40  1  0
 43 44  1  0
 44 47  1  0
 44 46  1  0
 45 43  2  0
 48 49  1  0
 48 23  1  0
 50 48  1  0
 51  2  1  0
 52 51  1  0
 53 52  1  0
 54 53  1  0
 55 54  1  0
 56 58  1  0
 56 55  1  0
 57 68  2  0
 58 63  1  0
 59 67  1  0
 59 69  1  0
 60 66  1  0
 60 62  1  0
 61 67  1  0
 62 61  1  0
 63 62  2  0
 64 65  1  0
 64 58  2  0
 65 60  2  0
 66 59  1  0
 67 57  1  0
 69 71  2  0
 70 69  1  0
 72 70  1  0
 73 82  2  0
 73 78  1  0
 74 70  1  0
 74 78  1  0
 75 74  1  0
 76 77  1  0
 76 75  1  0
 77 73  1  0
 78 79  2  0
 79 80  1  0
 81 80  2  0
 82 81  1  0
 83 57  1  0
 83 88  1  0
 83 84  1  0
 84 87  1  1
 84 85  1  0
 86 84  1  0
 88 91  1  0
 89 93  1  0
 89 88  1  0
 90 89  2  0
 93 92  1  0
 95 93  1  0
 95 96  1  0
 95 94  1  0
M  ISO  4  13 100  21 100  55 101  56 101
M  END
>  <TORSDO>  (33) 
F 24

>  <SCORE>  (33) 
-7.792

>  <name>  (33) 
35

>  <ligand_id>  (33) 
35

>  <original_smiles>  (33) 
[H]c1c([H])c([H])c2c(c1[H])C([H])([H])C([H])([H])C([H])([H])C2([H])N([H])C(=O)C1([H])N(C(=O)C([H])(N([H])C(=O)C([H])(N([H])C([H])([H])[H])C([H])([H])[H])C(C([H])([H])[H])(C([H])([H])[H])C([H])([H])[H])C([H])([H])c2c([H])c(OC([H])([H])C([H])([H])C([H])([H])OC([H])([H])N([H])C(=O)C([H])(N([H])C(=O)C([H])(N([H])C(=O)N3C([H])([H])C([H])([H])C([H])([H])C([H])(n4nc(-c5c([H])c([H])c(Oc6c([H])c([H])c(F)c([H])c6F)c([H])c5[H])c(C(=O)N([H])[H])c4N([H])[H])C3([H])[H])C([H])([H])[H])C([H])([H])[H])c([H])c([H])c2C1([H])[H]

>  <smiles>  (33) 
[H]c1c([H])c([H])c2c(c1[H])C([H])([H])C([H])([H])C([H])([H])C2([H])N([H])C(=O)C1([H])N(C(=O)C([H])(N([H])C(=O)C([H])(N([H])C([H])([H])[H])C([H])([H])[H])C(C([H])([H])[H])(C([H])([H])[H])C([H])([H])[H])C([H])([H])c2c([H])c(OC([H])([H])C([H])([H])C([H])([H])OC([H])([H])N([H])C(=O)C([H])(N([H])C(=O)C([H])(N([H])C(=O)N3C([H])([H])C([H])([H])C([H])([H])C([H])(n4nc(-c5c([H])c([H])c(Oc6c([H])c([H])c(F)c([H])c6F)c([H])c5[H])c(C(=O)N([H])[H])c4N([H])[H])C3([H])[H])C([H])([H])[H])C([H])([H])[H])c([H])c([H])c2C1([H])[H]

$$$$
36:0:0
     RDKit          3D

101108  0  0  1  0  0  0  0  0999 V2000
  -29.2180  -22.7760   22.1010 C   0  0  0  0  0  0  0  0  0  0  0  0
  -29.1070  -24.1010   22.2270 N   0  0  0  0  0  0  0  0  0  0  0  0
  -28.4570  -22.1050   21.3970 O   0  0  0  0  0  0  0  0  0  0  0  0
  -29.7460  -24.5760   22.8490 H   0  0  0  0  0  0  0  0  0  0  0  0
  -31.6850  -22.7720   22.6900 C   0  0  0  0  0  1  0  0  0  0  0  0
  -30.3280  -22.0810   22.8990 C   0  0  0  0  0  3  0  0  0  0  0  0
  -30.3900  -20.6670   22.4820 N   0  0  0  0  0  4  0  0  0  0  0  0
  -29.4960  -20.5000   22.0330 H   0  0  0  0  0  0  0  0  0  0  0  0
  -31.1160  -20.5480   21.7930 H   0  0  0  0  0  0  0  0  0  0  0  0
  -30.6170  -19.6890   23.5730 C   0  0  0  0  0  2  0  0  0  0  0  0
  -30.5140  -18.2530   23.0510 C   0  0  0  0  0  2  0  0  0  0  0  0
  -31.2860  -18.1880   21.8560 O   0  0  0  0  0  0  0  0  0  0  0  0
  -31.7260  -16.8700   21.5570 C   0  0  0  0  0  2  0  0  0  0  0  0
  -32.3710  -16.8780   20.1640 C   0  0  0  0  0  2  0  0  0  0  0  0
  -31.3760  -16.6010   19.0210 C   0  0  0  0  0  2  0  0  0  0  0  0
  -31.0340  -14.2000   18.4490 C   0  0  0  0  0  0  0  0  0  0  0  0
  -30.8000  -11.7450   18.3900 C   0  0  0  0  0  2  0  0  0  0  0  0
  -29.6870  -11.2770   17.4370 C   0  0  0  0  0  2  0  0  0  0  0  0
  -28.3230  -11.2720   18.1490 C   0  0  0  0  0  2  0  0  0  0  0  0
  -28.0330  -12.6100   18.8770 C   0  0  0  0  0  3  0  0  0  0  0  0
  -29.2340  -13.0180   19.7570 C   0  0  0  0  0  2  0  0  0  0  0  0
  -30.4440  -13.0710   18.9110 N   0  0  0  0  0  0  0  0  0  0  0  0
  -31.8430  -14.2240   17.5160 O   0  0  0  0  0  0  0  0  0  0  0  0
  -30.7610  -15.2870   19.1740 N   0  0  0  0  0  0  0  0  0  0  0  0
  -30.1250  -15.1500   19.9450 H   0  0  0  0  0  0  0  0  0  0  0  0
  -26.0350  -13.5590   20.2000 C   0  0  0  0  0  0  0  0  0  0  0  0
  -24.9440  -12.9530   20.7640 C   0  0  0  0  0  0  0  0  0  0  0  0
  -25.0970  -11.5550   20.5170 C   0  0  0  0  0  0  0  0  0  0  0  0
  -26.7960  -12.5360   19.6540 N   0  0  0  0  0  0  0  0  0  0  0  0
  -26.2450  -11.3200   19.8960 N   0  0  0  0  0  0  0  0  0  0  0  0
  -24.1900  -10.4320   20.7870 C   0  0  0  0  0  0  0  0  0  0  0  0
  -24.5870   -9.3430   21.5930 C   0  0  0  0  0  3  0  0  0  0  0  0
  -23.6940   -8.2810   21.8530 C   0  0  0  0  0  3  0  0  0  0  0  0
  -22.3880   -8.3030   21.3070 C   0  0  0  0  0  0  0  0  0  0  0  0
  -22.0060   -9.3800   20.4870 C   0  0  0  0  0  3  0  0  0  0  0  0
  -22.8980  -10.4320   20.2260 C   0  0  0  0  0  3  0  0  0  0  0  0
  -21.4600   -7.3050   21.4830 O   0  0  0  0  0  0  0  0  0  0  0  0
  -21.4070   -6.5690   22.6400 C   0  0  0  0  0  0  0  0  0  0  0  0
  -21.2530   -7.1770   23.9050 C   0  0  0  0  0  3  0  0  0  0  0  0
  -21.1330   -6.3800   25.0590 C   0  0  0  0  0  3  0  0  0  0  0  0
  -21.1570   -4.9760   24.9530 C   0  0  0  0  0  0  0  0  0  0  0  0
  -21.3050   -4.3680   23.6940 C   0  0  0  0  0  3  0  0  0  0  0  0
  -21.4260   -5.1640   22.5400 C   0  0  0  0  0  0  0  0  0  0  0  0
  -21.5470   -4.5710   21.3270 F   0  0  0  0  0  0  0  0  0  0  0  0
  -21.0330   -4.2090   26.0610 F   0  0  0  0  0  0  0  0  0  0  0  0
  -23.7740  -13.6380   21.4100 C   0  0  0  0  0  0  0  0  0  0  0  0
  -23.1680  -13.0070   22.4100 N   0  0  0  0  0  0  0  0  0  0  0  0
  -23.4180  -14.7640   21.0610 O   0  0  0  0  0  0  0  0  0  0  0  0
  -23.4720  -12.0930   22.7110 H   0  0  0  0  0  0  0  0  0  0  0  0
  -22.3890  -13.4440   22.8810 H   0  0  0  0  0  0  0  0  0  0  0  0
  -26.4360  -14.8870   20.0920 N   0  0  0  0  0  0  0  0  0  0  0  0
  -25.8670  -15.6540   20.4320 H   0  0  0  0  0  0  0  0  0  0  0  0
  -27.2610  -15.1940   19.5910 H   0  0  0  0  0  0  0  0  0  0  0  0
  -27.9910  -24.8990   21.7180 C   0  0  0  0  0  3  0  0  0  0  0  0
  -27.1740  -25.3180   22.9570 C   0  0  0  0  0  0  0  0  0  0  0  0
  -25.0070  -25.1450   24.1420 C   0  0  0  0  0  1  0  0  0  0  0  0
  -25.9230  -24.8540   23.0480 N   0  0  0  0  0  0  0  0  0  0  0  0
  -27.6890  -26.0050   23.8430 O   0  0  0  0  0  0  0  0  0  0  0  0
  -25.5710  -24.2850   22.2880 H   0  0  0  0  0  0  0  0  0  0  0  0
  -28.5660  -26.1270   20.9600 C   0  0  0  0  0  2  0  0  0  0  0  0
  -27.8760  -26.3830   19.7360 O   0  0  0  0  0  0  0  0  0  0  0  0
  -24.7520  -31.6760   23.2970 C   0  0  0  0  0  0  0  0  0  0  0  0
  -26.8000  -27.2190   19.8590 C   0  0  0  0  0  0  0  0  0  0  0  0
  -23.3240  -30.4610   21.6800 C   0  0  0  0  0  3  0  0  0  0  0  0
  -24.5450  -28.8860   20.0920 C   0  0  0  0  0  0  0  0  0  0  0  0
  -25.8460  -30.6300   21.3220 C   0  0  0  0  0  2  0  0  0  0  0  0
  -25.7730  -29.2850   20.6370 C   0  0  0  0  0  0  0  0  0  0  0  0
  -26.9050  -28.4530   20.5310 C   0  0  0  0  0  3  0  0  0  0  0  0
  -25.5700  -26.8300   19.2940 C   0  0  0  0  0  3  0  0  0  0  0  0
  -24.4370  -27.6550   19.4180 C   0  0  0  0  0  3  0  0  0  0  0  0
  -23.3840  -29.8390   20.2580 C   0  0  0  0  0  2  0  0  0  0  0  0
  -24.6630  -30.9340   22.1580 N   0  0  0  0  0  0  0  0  0  0  0  0
  -23.7350  -32.0080   23.9240 O   0  0  0  0  0  0  0  0  0  0  0  0
  -22.6550  -29.4490   22.6370 C   0  0  0  0  0  0  0  0  0  0  0  0
  -21.3310  -29.2770   22.4880 N   0  0  0  0  0  0  0  0  0  0  0  0
  -23.3190  -28.8260   23.4680 O   0  0  0  0  0  0  0  0  0  0  0  0
  -20.8560  -29.8380   21.7950 H   0  0  0  0  0  0  0  0  0  0  0  0
  -17.9750  -27.9740   22.8040 C   0  0  0  0  0  0  0  0  0  0  0  0
  -20.4950  -28.3450   23.2460 C   0  0  0  0  0  3  0  0  0  0  0  0
  -20.6910  -26.8950   22.7480 C   0  0  0  0  0  2  0  0  0  0  0  0
  -19.6720  -26.4730   21.6850 C   0  0  0  0  0  2  0  0  0  0  0  0
  -18.2470  -26.5960   22.2250 C   0  0  0  0  0  2  0  0  0  0  0  0
  -19.0320  -28.8010   23.2690 C   0  0  0  0  0  0  0  0  0  0  0  0
  -18.7260  -30.0870   23.7640 C   0  0  0  0  0  3  0  0  0  0  0  0
  -17.3980  -30.5470   23.8030 C   0  0  0  0  0  3  0  0  0  0  0  0
  -16.3550  -29.7190   23.3540 C   0  0  0  0  0  3  0  0  0  0  0  0
  -16.6430  -28.4340   22.8590 C   0  0  0  0  0  3  0  0  0  0  0  0
  -26.1290  -32.1630   23.8540 C   0  0  0  0  0  3  0  0  0  0  0  0
  -25.9520  -33.5390   24.3340 N   0  0  0  0  0  0  0  0  0  0  0  0
  -26.3850  -34.6300   23.6910 C   0  0  0  0  0  0  0  0  0  0  0  0
  -27.0530  -34.5780   22.6540 O   0  0  0  0  0  0  0  0  0  0  0  0
  -25.3720  -33.6610   25.1510 H   0  0  0  0  0  0  0  0  0  0  0  0
  -24.8620  -36.6230   23.4930 C   0  0  0  0  0  1  0  0  0  0  0  0
  -26.0190  -36.0000   24.2920 C   0  0  0  0  0  3  0  0  0  0  0  0
  -28.1970  -36.5500   25.2830 C   0  0  0  0  0  1  0  0  0  0  0  0
  -27.1560  -36.9450   24.3380 N   0  0  0  0  0  0  0  0  0  0  0  0
  -26.8390  -37.8780   24.5900 H   0  0  0  0  0  0  0  0  0  0  0  0
  -26.6960  -31.2390   25.0020 C   0  0  1  0  0  0  0  0  0  0  0  0
  -25.6840  -30.9700   26.1380 C   0  0  0  0  0  1  0  0  0  0  0  0
  -27.1370  -29.8710   24.4300 C   0  0  0  0  0  1  0  0  0  0  0  0
  -27.9510  -31.8860   25.6300 C   0  0  0  0  0  1  0  0  0  0  0  0
  1  2  1  0
  1  6  1  0
  2  4  1  0
  3  1  2  0
  6  5  1  0
  7  6  1  0
  7 10  1  0
  8  7  1  0
  9  7  1  0
 11 10  1  0
 12 11  1  0
 13 12  1  0
 14 13  1  0
 15 24  1  0
 15 14  1  0
 16 22  1  0
 16 24  1  0
 17 22  1  0
 18 19  1  0
 18 17  1  0
 20 19  1  0
 20 29  1  0
 20 21  1  0
 22 21  1  0
 23 16  2  0
 24 25  1  0
 26 27  2  0
 27 46  1  0
 28 27  1  0
 28 31  1  0
 29 30  1  0
 29 26  1  0
 30 28  2  0
 31 32  1  0
 32 33  2  0
 34 37  1  0
 34 33  1  0
 35 34  2  0
 36 35  1  0
 36 31  2  0
 37 38  1  0
 38 39  1  0
 39 40  2  0
 41 40  1  0
 41 45  1  0
 42 41  2  0
 43 38  2  0
 43 42  1  0
 44 43  1  0
 46 47  1  0
 47 49  1  0
 47 50  1  0
 48 46  2  0
 51 26  1  0
 51 52  1  0
 53 51  1  0
 54 60  1  0
 54  2  1  0
 54 55  1  0
 55 57  1  0
 55 58  2  0
 57 56  1  0
 59 57  1  0
 61 63  1  0
 61 60  1  0
 62 73  2  0
 63 68  1  0
 64 72  1  0
 64 74  1  0
 65 71  1  0
 65 67  1  0
 66 72  1  0
 67 66  1  0
 68 67  2  0
 69 70  1  0
 69 63  2  0
 70 65  2  0
 71 64  1  0
 72 62  1  0
 74 76  2  0
 75 74  1  0
 77 75  1  0
 78 87  2  0
 78 83  1  0
 79 75  1  0
 79 83  1  0
 80 79  1  0
 81 82  1  0
 81 80  1  0
 82 78  1  0
 83 84  2  0
 84 85  1  0
 86 85  2  0
 87 86  1  0
 88 62  1  0
 88 89  1  0
 88 98  1  0
 89 92  1  0
 90 94  1  0
 90 89  1  0
 91 90  2  0
 94 93  1  0
 94 96  1  0
 96 97  1  0
 96 95  1  0
 98101  1  1
 98 99  1  0
100 98  1  0
M  ISO  4  16 100  24 100  60 101  61 101
M  END
>  <TORSDO>  (34) 
F 27

>  <SCORE>  (34) 
-7.933

>  <name>  (34) 
36

>  <ligand_id>  (34) 
36

>  <original_smiles>  (34) 
[H]c1c([H])c([H])c2c(c1[H])C([H])([H])C([H])([H])C([H])([H])C2([H])N([H])C(=O)C1([H])N(C(=O)C([H])(N([H])C(=O)C([H])(N([H])C([H])([H])[H])C([H])([H])[H])C(C([H])([H])[H])(C([H])([H])[H])C([H])([H])[H])C([H])([H])c2c([H])c(OC([H])([H])C([H])(C(=O)N([H])C([H])([H])[H])N([H])C(=O)C([H])(C([H])([H])[H])[N+]([H])([H])C([H])([H])C([H])([H])OC([H])([H])C([H])([H])C([H])([H])N([H])C(=O)N3C([H])([H])C([H])([H])C([H])([H])C([H])(n4nc(-c5c([H])c([H])c(Oc6c([H])c([H])c(F)c([H])c6F)c([H])c5[H])c(C(=O)N([H])[H])c4N([H])[H])C3([H])[H])c([H])c([H])c2C1([H])[H]

>  <smiles>  (34) 
[H]c1c([H])c([H])c2c(c1[H])C([H])([H])C([H])([H])C([H])([H])C2([H])N([H])C(=O)C1([H])N(C(=O)C([H])(N([H])C(=O)C([H])(N([H])C([H])([H])[H])C([H])([H])[H])C(C([H])([H])[H])(C([H])([H])[H])C([H])([H])[H])C([H])([H])c2c([H])c(OC([H])([H])C([H])(C(=O)N([H])C([H])([H])[H])N([H])C(=O)C([H])(C([H])([H])[H])[N+]([H])([H])C([H])([H])C([H])([H])OC([H])([H])C([H])([H])C([H])([H])N([H])C(=O)N3C([H])([H])C([H])([H])C([H])([H])C([H])(n4nc(-c5c([H])c([H])c(Oc6c([H])c([H])c(F)c([H])c6F)c([H])c5[H])c(C(=O)N([H])[H])c4N([H])[H])C3([H])[H])c([H])c([H])c2C1([H])[H]

$$$$
37:0:0
     RDKit          3D

 99106  0  0  1  0  0  0  0  0999 V2000
  -27.9270  -18.1070   19.4360 C   0  0  0  0  0  0  0  0  0  0  0  0
  -29.1630  -18.5720   19.6140 N   0  0  0  0  0  0  0  0  0  0  0  0
  -27.3980  -17.3360   20.2320 O   0  0  0  0  0  0  0  0  0  0  0  0
  -29.5250  -19.2070   18.9170 H   0  0  0  0  0  0  0  0  0  0  0  0
  -27.2090  -18.5530   18.1570 C   0  0  0  0  0  2  0  0  0  0  0  0
  -27.4980  -19.9200   17.8620 O   0  0  0  0  0  0  0  0  0  0  0  0
  -26.7420  -20.8710   18.6100 C   0  0  0  0  0  2  0  0  0  0  0  0
  -27.6260  -21.6720   19.5770 C   0  0  0  0  0  2  0  0  0  0  0  0
  -28.7210  -22.4770   18.8590 C   0  0  0  0  0  2  0  0  0  0  0  0
  -29.2210  -23.5050   19.7070 O   0  0  0  0  0  0  0  0  0  0  0  0
  -28.4380  -24.6880   19.6120 C   0  0  0  0  0  2  0  0  0  0  0  0
  -28.7950  -25.7110   20.7020 C   0  0  0  0  0  2  0  0  0  0  0  0
  -28.7460  -27.0580   20.2300 O   0  0  0  0  0  0  0  0  0  0  0  0
  -24.5890  -31.9120   23.3380 C   0  0  0  0  0  0  0  0  0  0  0  0
  -27.5220  -27.6880   20.2410 C   0  0  0  0  0  0  0  0  0  0  0  0
  -23.5020  -30.5260   21.6020 C   0  0  0  0  0  3  0  0  0  0  0  0
  -25.0680  -29.0850   20.2030 C   0  0  0  0  0  0  0  0  0  0  0  0
  -26.0190  -30.9820   21.5210 C   0  0  0  0  0  2  0  0  0  0  0  0
  -26.1790  -29.6380   20.8500 C   0  0  0  0  0  0  0  0  0  0  0  0
  -27.4100  -28.9470   20.8640 C   0  0  0  0  0  3  0  0  0  0  0  0
  -26.3900  -27.1430   19.5910 C   0  0  0  0  0  3  0  0  0  0  0  0
  -25.1650  -27.8330   19.5750 C   0  0  0  0  0  3  0  0  0  0  0  0
  -23.7930  -29.8960   20.2150 C   0  0  0  0  0  2  0  0  0  0  0  0
  -24.7190  -31.1550   22.2130 N   0  0  0  0  0  0  0  0  0  0  0  0
  -23.4770  -32.1280   23.8410 O   0  0  0  0  0  0  0  0  0  0  0  0
  -22.8500  -29.4510   22.5000 C   0  0  0  0  0  0  0  0  0  0  0  0
  -21.5380  -29.2330   22.3140 N   0  0  0  0  0  0  0  0  0  0  0  0
  -23.5220  -28.8160   23.3170 O   0  0  0  0  0  0  0  0  0  0  0  0
  -21.0600  -29.7960   21.6250 H   0  0  0  0  0  0  0  0  0  0  0  0
  -18.1810  -27.9380   22.6510 C   0  0  0  0  0  0  0  0  0  0  0  0
  -20.7220  -28.2430   23.0170 C   0  0  0  0  0  3  0  0  0  0  0  0
  -20.8780  -26.8410   22.3840 C   0  0  0  0  0  2  0  0  0  0  0  0
  -19.8180  -26.5360   21.3230 C   0  0  0  0  0  2  0  0  0  0  0  0
  -18.4130  -26.6230   21.9260 C   0  0  0  0  0  2  0  0  0  0  0  0
  -19.2660  -28.7070   23.1490 C   0  0  0  0  0  0  0  0  0  0  0  0
  -19.0000  -29.9410   23.7840 C   0  0  0  0  0  3  0  0  0  0  0  0
  -17.6810  -30.4060   23.9250 C   0  0  0  0  0  3  0  0  0  0  0  0
  -16.6080  -29.6340   23.4460 C   0  0  0  0  0  3  0  0  0  0  0  0
  -16.8590  -28.4010   22.8160 C   0  0  0  0  0  3  0  0  0  0  0  0
  -25.8260  -32.5640   24.0330 C   0  0  0  0  0  3  0  0  0  0  0  0
  -25.4930  -33.9690   24.2990 N   0  0  0  0  0  0  0  0  0  0  0  0
  -25.8780  -34.9990   23.5330 C   0  0  0  0  0  0  0  0  0  0  0  0
  -26.6220  -34.8660   22.5570 O   0  0  0  0  0  0  0  0  0  0  0  0
  -24.8500  -34.1470   25.0550 H   0  0  0  0  0  0  0  0  0  0  0  0
  -24.1860  -36.7760   22.9870 C   0  0  0  0  0  1  0  0  0  0  0  0
  -25.3550  -36.3970   23.9100 C   0  0  0  0  0  3  0  0  0  0  0  0
  -27.4070  -37.3130   24.9010 C   0  0  0  0  0  1  0  0  0  0  0  0
  -26.3950  -37.4490   23.8570 N   0  0  0  0  0  0  0  0  0  0  0  0
  -25.9780  -38.3730   23.9350 H   0  0  0  0  0  0  0  0  0  0  0  0
  -26.2530  -31.8300   25.3630 C   0  0  1  0  0  0  0  0  0  0  0  0
  -25.0860  -31.6130   26.3550 C   0  0  0  0  0  1  0  0  0  0  0  0
  -26.8700  -30.4470   25.0480 C   0  0  0  0  0  1  0  0  0  0  0  0
  -27.3510  -32.6470   26.0840 C   0  0  0  0  0  1  0  0  0  0  0  0
  -30.0500  -18.2090   20.7150 C   0  0  0  0  0  3  0  0  0  0  0  0
  -30.9780  -19.4130   21.0040 C   0  0  0  0  0  0  0  0  0  0  0  0
  -31.1500  -21.7360   21.8340 C   0  0  0  0  0  1  0  0  0  0  0  0
  -30.4250  -20.4990   21.5550 N   0  0  0  0  0  0  0  0  0  0  0  0
  -32.1700  -19.3890   20.6930 O   0  0  0  0  0  0  0  0  0  0  0  0
  -29.4380  -20.4720   21.7770 H   0  0  0  0  0  0  0  0  0  0  0  0
  -31.0700  -16.6410   18.8980 C   0  0  0  0  0  1  0  0  0  0  0  0
  -30.7860  -16.8690   20.4060 C   0  0  0  0  0  3  0  0  0  0  0  0
  -30.8510  -14.5160   21.0900 C   0  0  0  0  0  0  0  0  0  0  0  0
  -30.5550  -12.3950   19.9330 C   0  0  0  0  0  2  0  0  0  0  0  0
  -29.7310  -12.6680   18.6600 C   0  0  0  0  0  2  0  0  0  0  0  0
  -28.2260  -12.5400   18.9630 C   0  0  0  0  0  2  0  0  0  0  0  0
  -27.7860  -13.3380   20.2210 C   0  0  0  0  0  3  0  0  0  0  0  0
  -28.7600  -13.1330   21.4060 C   0  0  0  0  0  2  0  0  0  0  0  0
  -30.1250  -13.3840   20.9300 N   0  0  0  0  0  0  0  0  0  0  0  0
  -32.0710  -14.5480   20.9430 O   0  0  0  0  0  0  0  0  0  0  0  0
  -30.1650  -15.6670   21.0090 N   0  0  0  0  0  0  0  0  0  0  0  0
  -29.1580  -15.6440   21.0870 H   0  0  0  0  0  0  0  0  0  0  0  0
  -25.3210  -13.8800   20.7150 C   0  0  0  0  0  0  0  0  0  0  0  0
  -24.2450  -13.0860   20.9960 C   0  0  0  0  0  0  0  0  0  0  0  0
  -24.7410  -11.7480   21.0260 C   0  0  0  0  0  0  0  0  0  0  0  0
  -26.4080  -13.0290   20.5940 N   0  0  0  0  0  0  0  0  0  0  0  0
  -26.0550  -11.7390   20.8360 N   0  0  0  0  0  0  0  0  0  0  0  0
  -24.0270  -10.4740   21.1690 C   0  0  0  0  0  0  0  0  0  0  0  0
  -24.3710   -9.5400   22.1700 C   0  0  0  0  0  3  0  0  0  0  0  0
  -23.6560   -8.3300   22.2950 C   0  0  0  0  0  3  0  0  0  0  0  0
  -22.5840   -8.0450   21.4170 C   0  0  0  0  0  0  0  0  0  0  0  0
  -22.2590   -8.9680   20.4080 C   0  0  0  0  0  3  0  0  0  0  0  0
  -22.9750  -10.1700   20.2820 C   0  0  0  0  0  3  0  0  0  0  0  0
  -21.8460   -6.8850   21.4490 O   0  0  0  0  0  0  0  0  0  0  0  0
  -21.6650   -6.1800   22.6120 C   0  0  0  0  0  0  0  0  0  0  0  0
  -21.0300   -6.7500   23.7370 C   0  0  0  0  0  3  0  0  0  0  0  0
  -20.8030   -5.9680   24.8870 C   0  0  0  0  0  3  0  0  0  0  0  0
  -21.1980   -4.6170   24.9100 C   0  0  0  0  0  0  0  0  0  0  0  0
  -21.8270   -4.0470   23.7900 C   0  0  0  0  0  3  0  0  0  0  0  0
  -22.0580   -4.8270   22.6420 C   0  0  0  0  0  0  0  0  0  0  0  0
  -22.6440   -4.2680   21.5570 F   0  0  0  0  0  0  0  0  0  0  0  0
  -20.9730   -3.8640   26.0110 F   0  0  0  0  0  0  0  0  0  0  0  0
  -22.8200  -13.5360   21.1370 C   0  0  0  0  0  0  0  0  0  0  0  0
  -22.0310  -12.8380   21.9460 N   0  0  0  0  0  0  0  0  0  0  0  0
  -22.4090  -14.5470   20.5680 O   0  0  0  0  0  0  0  0  0  0  0  0
  -22.3680  -12.0200   22.4300 H   0  0  0  0  0  0  0  0  0  0  0  0
  -21.0720  -13.1260   22.0800 H   0  0  0  0  0  0  0  0  0  0  0  0
  -25.4430  -15.2490   20.5420 N   0  0  0  0  0  0  0  0  0  0  0  0
  -24.6360  -15.8580   20.6230 H   0  0  0  0  0  0  0  0  0  0  0  0
  -26.3120  -15.7780   20.4750 H   0  0  0  0  0  0  0  0  0  0  0  0
  1  2  1  0
  1  3  2  0
  2 54  1  0
  4  2  1  0
  5  1  1  0
  6  5  1  0
  6  7  1  0
  7  8  1  0
  9  8  1  0
  9 10  1  0
 11 10  1  0
 11 12  1  0
 13 15  1  0
 13 12  1  0
 14 25  2  0
 15 20  1  0
 16 24  1  0
 16 26  1  0
 17 23  1  0
 17 19  1  0
 18 24  1  0
 19 20  2  0
 19 18  1  0
 21 15  2  0
 22 21  1  0
 22 17  2  0
 23 16  1  0
 24 14  1  0
 26 28  2  0
 27 26  1  0
 29 27  1  0
 30 39  2  0
 30 35  1  0
 31 27  1  0
 31 35  1  0
 32 31  1  0
 33 34  1  0
 33 32  1  0
 34 30  1  0
 35 36  2  0
 36 37  1  0
 38 37  2  0
 39 38  1  0
 40 14  1  0
 40 41  1  0
 40 50  1  0
 41 44  1  0
 42 46  1  0
 42 41  1  0
 43 42  2  0
 46 45  1  0
 48 46  1  0
 48 49  1  0
 48 47  1  0
 50 53  1  1
 50 51  1  0
 52 50  1  0
 54 55  1  0
 55 57  1  0
 57 59  1  0
 57 56  1  0
 58 55  2  0
 61 60  1  0
 61 54  1  0
 61 70  1  0
 63 68  1  0
 64 65  1  0
 64 63  1  0
 66 65  1  0
 66 75  1  0
 66 67  1  0
 68 62  1  0
 68 67  1  0
 69 62  2  0
 70 71  1  0
 70 62  1  0
 72 73  2  0
 73 74  1  0
 73 92  1  0
 74 77  1  0
 75 72  1  0
 75 76  1  0
 76 74  2  0
 77 78  1  0
 78 79  2  0
 80 83  1  0
 80 79  1  0
 81 80  2  0
 82 81  1  0
 82 77  2  0
 83 84  1  0
 84 89  2  0
 84 85  1  0
 85 86  2  0
 86 87  1  0
 87 91  1  0
 88 87  2  0
 89 88  1  0
 90 89  1  0
 92 93  1  0
 93 96  1  0
 93 95  1  0
 94 92  2  0
 97 98  1  0
 97 72  1  0
 99 97  1  0
M  ISO  4  12 101  13 101  62 100  70 100
M  END
>  <TORSDO>  (35) 
F 27

>  <SCORE>  (35) 
-11.680

>  <name>  (35) 
37

>  <ligand_id>  (35) 
37

>  <original_smiles>  (35) 
[H]c1c([H])c([H])c2c(c1[H])C([H])([H])C([H])([H])C([H])([H])C2([H])N([H])C(=O)C1([H])N(C(=O)C([H])(N([H])C(=O)C([H])(N([H])C([H])([H])[H])C([H])([H])[H])C(C([H])([H])[H])(C([H])([H])[H])C([H])([H])[H])C([H])([H])c2c([H])c(OC([H])([H])C([H])([H])OC([H])([H])C([H])([H])C([H])([H])OC([H])([H])C(=O)N([H])C([H])(C(=O)N([H])C([H])([H])[H])C([H])(N([H])C(=O)N3C([H])([H])C([H])([H])C([H])([H])C([H])(n4nc(-c5c([H])c([H])c(Oc6c([H])c([H])c(F)c([H])c6F)c([H])c5[H])c(C(=O)N([H])[H])c4N([H])[H])C3([H])[H])C([H])([H])[H])c([H])c([H])c2C1([H])[H]

>  <smiles>  (35) 
[H]c1c([H])c([H])c2c(c1[H])C([H])([H])C([H])([H])C([H])([H])C2([H])N([H])C(=O)C1([H])N(C(=O)C([H])(N([H])C(=O)C([H])(N([H])C([H])([H])[H])C([H])([H])[H])C(C([H])([H])[H])(C([H])([H])[H])C([H])([H])[H])C([H])([H])c2c([H])c(OC([H])([H])C([H])([H])OC([H])([H])C([H])([H])C([H])([H])OC([H])([H])C(=O)N([H])C([H])(C(=O)N([H])C([H])([H])[H])C([H])(N([H])C(=O)N3C([H])([H])C([H])([H])C([H])([H])C([H])(n4nc(-c5c([H])c([H])c(Oc6c([H])c([H])c(F)c([H])c6F)c([H])c5[H])c(C(=O)N([H])[H])c4N([H])[H])C3([H])[H])C([H])([H])[H])c([H])c([H])c2C1([H])[H]

$$$$
38:0:0
     RDKit          3D

100108  0  0  1  0  0  0  0  0999 V2000
  -30.1910  -24.5760   17.3140 C   0  0  0  0  0  3  0  0  0  0  0  0
  -30.2710  -24.5370   14.7870 C   0  0  0  0  0  0  0  0  0  0  0  0
  -30.8550  -24.5360   15.9950 N   0  0  0  0  0  0  0  0  0  0  0  0
  -29.0620  -24.7200   14.6470 O   0  0  0  0  0  0  0  0  0  0  0  0
  -31.8610  -24.4470   16.0100 H   0  0  0  0  0  0  0  0  0  0  0  0
  -34.7620  -23.4660   13.0030 C   0  0  0  0  0  0  0  0  0  0  0  0
  -36.9850  -24.5280   12.9050 C   0  0  0  0  0  2  0  0  0  0  0  0
  -37.1610  -25.5230   14.0680 C   0  0  0  0  0  2  0  0  0  0  0  0
  -36.6220  -26.9100   13.6750 C   0  0  0  0  0  2  0  0  0  0  0  0
  -35.1920  -26.8460   13.0770 C   0  0  0  0  0  3  0  0  0  0  0  0
  -35.0950  -25.7550   11.9850 C   0  0  0  0  0  2  0  0  0  0  0  0
  -35.5560  -24.4780   12.5590 N   0  0  0  0  0  0  0  0  0  0  0  0
  -35.2010  -22.4830   13.6110 O   0  0  0  0  0  0  0  0  0  0  0  0
  -31.4770  -23.0300   11.3540 C   0  0  0  0  0  2  0  0  0  0  0  0
  -30.5240  -23.3020   12.5260 C   0  0  0  0  0  2  0  0  0  0  0  0
  -32.8570  -22.5800   11.8580 C   0  0  0  0  0  2  0  0  0  0  0  0
  -32.5760  -23.7940   13.9390 C   0  0  0  0  0  2  0  0  0  0  0  0
  -31.1550  -24.2770   13.5450 C   0  0  0  0  0  3  0  0  0  0  0  0
  -33.4380  -23.5810   12.7610 N   0  0  0  0  0  0  0  0  0  0  0  0
  -34.5930  -29.3440   13.2670 C   0  0  0  0  0  0  0  0  0  0  0  0
  -34.2590  -30.2790   12.3250 C   0  0  0  0  0  0  0  0  0  0  0  0
  -34.2560  -29.5940   11.0720 C   0  0  0  0  0  0  0  0  0  0  0  0
  -34.7670  -28.1540   12.5780 N   0  0  0  0  0  0  0  0  0  0  0  0
  -34.5130  -28.3040   11.2520 N   0  0  0  0  0  0  0  0  0  0  0  0
  -34.0800  -30.1020    9.7040 C   0  0  0  0  0  0  0  0  0  0  0  0
  -32.8350  -30.0290    9.0430 C   0  0  0  0  0  3  0  0  0  0  0  0
  -32.6880  -30.5400    7.7360 C   0  0  0  0  0  3  0  0  0  0  0  0
  -33.7900  -31.1370    7.0790 C   0  0  0  0  0  0  0  0  0  0  0  0
  -35.0330  -31.1890    7.7340 C   0  0  0  0  0  3  0  0  0  0  0  0
  -35.1800  -30.6740    9.0340 C   0  0  0  0  0  3  0  0  0  0  0  0
  -33.7460  -31.6380    5.8000 O   0  0  0  0  0  0  0  0  0  0  0  0
  -33.9590  -32.9680    5.5400 C   0  0  0  0  0  0  0  0  0  0  0  0
  -35.1780  -33.4350    5.0000 C   0  0  0  0  0  3  0  0  0  0  0  0
  -35.3310  -34.8000    4.6840 C   0  0  0  0  0  3  0  0  0  0  0  0
  -34.2660  -35.6970    4.8970 C   0  0  0  0  0  0  0  0  0  0  0  0
  -33.0500  -35.2320    5.4290 C   0  0  0  0  0  3  0  0  0  0  0  0
  -32.8970  -33.8710    5.7470 C   0  0  0  0  0  0  0  0  0  0  0  0
  -31.7160  -33.4260    6.2390 F   0  0  0  0  0  0  0  0  0  0  0  0
  -34.4100  -37.0060    4.5850 F   0  0  0  0  0  0  0  0  0  0  0  0
  -34.0490  -31.7490   12.5590 C   0  0  0  0  0  0  0  0  0  0  0  0
  -33.1760  -32.3740   11.7770 N   0  0  0  0  0  0  0  0  0  0  0  0
  -34.6240  -32.3400   13.4700 O   0  0  0  0  0  0  0  0  0  0  0  0
  -32.6860  -31.8890   11.0410 H   0  0  0  0  0  0  0  0  0  0  0  0
  -32.9950  -33.3590   11.9160 H   0  0  0  0  0  0  0  0  0  0  0  0
  -34.7830  -29.4080   14.6440 N   0  0  0  0  0  0  0  0  0  0  0  0
  -34.7200  -30.2810   15.1560 H   0  0  0  0  0  0  0  0  0  0  0  0
  -35.0900  -28.6330   15.2180 H   0  0  0  0  0  0  0  0  0  0  0  0
  -29.8620  -25.9890   17.8340 C   0  0  0  0  0  0  0  0  0  0  0  0
  -30.1660  -26.2250   19.1170 N   0  0  0  0  0  0  0  0  0  0  0  0
  -29.3890  -26.8510   17.0900 O   0  0  0  0  0  0  0  0  0  0  0  0
  -30.5700  -25.4490   19.6240 H   0  0  0  0  0  0  0  0  0  0  0  0
  -30.0110  -27.4630   19.8740 C   0  0  0  0  0  2  0  0  0  0  0  0
  -31.3820  -28.1370   20.0550 C   0  0  0  0  0  2  0  0  0  0  0  0
  -31.9560  -27.8680   21.3350 O   0  0  0  0  0  0  0  0  0  0  0  0
  -38.9390  -28.4010   22.5460 C   0  0  0  0  0  0  0  0  0  0  0  0
  -33.1810  -27.2480   21.2880 C   0  0  0  0  0  0  0  0  0  0  0  0
  -38.2140  -26.4140   21.2640 C   0  0  0  0  0  3  0  0  0  0  0  0
  -35.7020  -25.9890   21.2070 C   0  0  0  0  0  0  0  0  0  0  0  0
  -36.6390  -27.5260   22.9420 C   0  0  0  0  0  2  0  0  0  0  0  0
  -35.4880  -27.0670   22.0750 C   0  0  0  0  0  0  0  0  0  0  0  0
  -34.2250  -27.6950   22.1260 C   0  0  0  0  0  3  0  0  0  0  0  0
  -33.4110  -26.1660   20.4110 C   0  0  0  0  0  3  0  0  0  0  0  0
  -34.6670  -25.5350   20.3710 C   0  0  0  0  0  3  0  0  0  0  0  0
  -37.0760  -25.3600   21.2240 C   0  0  0  0  0  2  0  0  0  0  0  0
  -37.9510  -27.5090   22.2530 N   0  0  0  0  0  0  0  0  0  0  0  0
  -40.0660  -28.2980   22.0400 O   0  0  0  0  0  0  0  0  0  0  0  0
  -38.4570  -26.9300   19.8270 C   0  0  0  0  0  0  0  0  0  0  0  0
  -39.6340  -26.6020   19.2670 N   0  0  0  0  0  0  0  0  0  0  0  0
  -37.5960  -27.5820   19.2340 O   0  0  0  0  0  0  0  0  0  0  0  0
  -40.2910  -26.0710   19.8210 H   0  0  0  0  0  0  0  0  0  0  0  0
  -42.5160  -26.8230   17.1010 C   0  0  0  0  0  0  0  0  0  0  0  0
  -40.0640  -26.9430   17.9110 C   0  0  0  0  0  3  0  0  0  0  0  0
  -39.7900  -25.7790   16.9320 C   0  0  0  0  0  2  0  0  0  0  0  0
  -40.9860  -24.8370   16.7670 C   0  0  0  0  0  2  0  0  0  0  0  0
  -42.2070  -25.6030   16.2510 C   0  0  0  0  0  2  0  0  0  0  0  0
  -41.5130  -27.4430   17.8920 C   0  0  0  0  0  0  0  0  0  0  0  0
  -41.8610  -28.5550   18.6900 C   0  0  0  0  0  3  0  0  0  0  0  0
  -43.1790  -29.0490   18.7040 C   0  0  0  0  0  3  0  0  0  0  0  0
  -44.1630  -28.4420   17.9050 C   0  0  0  0  0  3  0  0  0  0  0  0
  -43.8310  -27.3360   17.1030 C   0  0  0  0  0  3  0  0  0  0  0  0
  -38.7080  -29.5790   23.5460 C   0  0  0  0  0  3  0  0  0  0  0  0
  -39.7310  -29.4760   24.5950 N   0  0  0  0  0  0  0  0  0  0  0  0
  -39.5880  -28.7720   25.7260 C   0  0  0  0  0  0  0  0  0  0  0  0
  -38.5400  -28.1920   26.0270 O   0  0  0  0  0  0  0  0  0  0  0  0
  -40.6340  -29.8760   24.3900 H   0  0  0  0  0  0  0  0  0  0  0  0
  -41.5830  -27.4010   26.4070 C   0  0  0  0  0  1  0  0  0  0  0  0
  -40.8010  -28.6960   26.6730 C   0  0  0  0  0  3  0  0  0  0  0  0
  -40.0610  -30.1180   28.5320 C   0  0  0  0  0  1  0  0  0  0  0  0
  -40.4360  -28.7730   28.1040 N   0  0  0  0  0  0  0  0  0  0  0  0
  -41.2080  -28.4610   28.6870 H   0  0  0  0  0  0  0  0  0  0  0  0
  -38.7540  -30.9980   22.8560 C   0  0  1  0  0  0  0  0  0  0  0  0
  -40.1110  -31.3240   22.1890 C   0  0  0  0  0  1  0  0  0  0  0  0
  -37.6580  -31.1090   21.7720 C   0  0  0  0  0  1  0  0  0  0  0  0
  -38.4540  -32.0990   23.9010 C   0  0  0  0  0  1  0  0  0  0  0  0
  -29.0470  -23.5200   17.4730 C   0  0  0  0  0  2  0  0  0  0  0  0
  -27.7150  -24.1570   17.8640 C   0  0  0  0  0  0  0  0  0  0  0  0
  -27.3960  -24.1950   19.1500 N   0  0  0  0  0  0  0  0  0  0  0  0
  -26.9670  -24.6160   17.0020 O   0  0  0  0  0  0  0  0  0  0  0  0
  -28.0240  -23.8160   19.8470 H   0  0  0  0  0  0  0  0  0  0  0  0
  -26.5260  -24.6190   19.4440 H   0  0  0  0  0  0  0  0  0  0  0  0
  1 95  1  0
  1 48  1  0
  2  3  1  0
  3  5  1  0
  3  1  1  0
  4  2  2  0
  6 13  2  0
  7  8  1  0
  9  8  1  0
 10 11  1  0
 10  9  1  0
 11 12  1  0
 12  7  1  0
 12  6  1  0
 14 16  1  0
 14 15  1  0
 15 18  1  0
 16 19  1  0
 18 17  1  0
 18  2  1  0
 19  6  1  0
 19 17  1  0
 20 45  1  0
 21 40  1  0
 21 20  2  0
 22 24  2  0
 22 21  1  0
 23 10  1  0
 23 20  1  0
 24 23  1  0
 25 22  1  0
 26 25  1  0
 27 26  2  0
 28 29  2  0
 28 27  1  0
 29 30  1  0
 30 25  2  0
 31 28  1  0
 32 37  1  0
 32 31  1  0
 33 32  2  0
 34 35  2  0
 34 33  1  0
 35 36  1  0
 36 37  2  0
 37 38  1  0
 39 35  1  0
 40 42  2  0
 41 44  1  0
 41 40  1  0
 43 41  1  0
 45 46  1  0
 45 47  1  0
 48 49  1  0
 49 51  1  0
 49 52  1  0
 50 48  2  0
 52 53  1  0
 53 54  1  0
 56 54  1  0
 56 61  1  0
 57 67  1  0
 57 65  1  0
 58 64  1  0
 58 60  1  0
 60 61  2  0
 60 59  1  0
 62 56  2  0
 63 62  1  0
 63 58  2  0
 64 57  1  0
 65 55  1  0
 65 59  1  0
 66 55  2  0
 68 70  1  0
 68 67  1  0
 69 67  2  0
 71 80  2  0
 71 76  1  0
 72 68  1  0
 73 72  1  0
 74 73  1  0
 75 74  1  0
 75 71  1  0
 76 72  1  0
 76 77  2  0
 77 78  1  0
 79 78  2  0
 80 79  1  0
 81 55  1  0
 81 82  1  0
 82 83  1  0
 83 84  2  0
 83 87  1  0
 85 82  1  0
 87 86  1  0
 87 89  1  0
 89 88  1  0
 89 90  1  0
 91 81  1  0
 91 94  1  1
 92 91  1  0
 93 91  1  0
 95 96  1  0
 96 97  1  0
 97100  1  0
 97 99  1  0
 98 96  2  0
M  ISO  4   6 100  19 100  53 101  54 101
M  END
>  <TORSDO>  (36) 
F 22

>  <SCORE>  (36) 
-3.670

>  <name>  (36) 
38

>  <ligand_id>  (36) 
38

>  <original_smiles>  (36) 
[H]c1c([H])c([H])c2c(c1[H])C([H])([H])C([H])([H])C([H])([H])C2([H])N([H])C(=O)C1([H])N(C(=O)C([H])(N([H])C(=O)C([H])(N([H])C([H])([H])[H])C([H])([H])[H])C(C([H])([H])[H])(C([H])([H])[H])C([H])([H])[H])C([H])([H])c2c([H])c(OC([H])([H])C([H])([H])N([H])C(=O)C([H])(N([H])C(=O)C3([H])C([H])([H])N(C(=O)N4C([H])([H])C([H])([H])C([H])([H])C([H])(n5nc(-c6c([H])c([H])c(Oc7c([H])c([H])c(F)c([H])c7F)c([H])c6[H])c(C(=O)N([H])[H])c5N([H])[H])C4([H])[H])C([H])([H])C([H])([H])C3([H])[H])C([H])([H])C(=O)N([H])[H])c([H])c([H])c2C1([H])[H]

>  <smiles>  (36) 
[H]c1c([H])c([H])c2c(c1[H])C([H])([H])C([H])([H])C([H])([H])C2([H])N([H])C(=O)C1([H])N(C(=O)C([H])(N([H])C(=O)C([H])(N([H])C([H])([H])[H])C([H])([H])[H])C(C([H])([H])[H])(C([H])([H])[H])C([H])([H])[H])C([H])([H])c2c([H])c(OC([H])([H])C([H])([H])N([H])C(=O)C([H])(N([H])C(=O)C3([H])C([H])([H])N(C(=O)N4C([H])([H])C([H])([H])C([H])([H])C([H])(n5nc(-c6c([H])c([H])c(Oc7c([H])c([H])c(F)c([H])c7F)c([H])c6[H])c(C(=O)N([H])[H])c5N([H])[H])C4([H])[H])C([H])([H])C([H])([H])C3([H])[H])C([H])([H])C(=O)N([H])[H])c([H])c([H])c2C1([H])[H]

$$$$
40:0:0
     RDKit          3D

101108  0  0  1  0  0  0  0  0999 V2000
  -24.3980  -21.8550   25.0840 C   0  0  0  0  0  0  0  0  0  0  0  0
  -23.8950  -22.8790   25.5620 O   0  0  0  0  0  0  0  0  0  0  0  0
  -25.3270  -21.9030   23.9410 C   0  0  0  0  0  3  0  0  0  0  0  0
  -25.7310  -23.0700   23.3960 C   0  0  0  0  0  3  0  0  0  0  0  0
  -26.6740  -23.0660   22.2960 C   0  0  0  0  0  0  0  0  0  0  0  0
  -27.1170  -24.2930   22.0060 N   0  0  0  0  0  0  0  0  0  0  0  0
  -27.0700  -22.0640   21.6970 O   0  0  0  0  0  0  0  0  0  0  0  0
  -26.7440  -25.0740   22.5260 H   0  0  0  0  0  0  0  0  0  0  0  0
  -28.1800  -24.5690   21.0450 C   0  0  0  0  0  2  0  0  0  0  0  0
  -28.7260  -26.0030   21.1790 C   0  0  0  0  0  2  0  0  0  0  0  0
  -28.4100  -26.7650   20.0210 O   0  0  0  0  0  0  0  0  0  0  0  0
  -24.6080  -31.8690   23.2130 C   0  0  0  0  0  0  0  0  0  0  0  0
  -27.2400  -27.4720   20.0960 C   0  0  0  0  0  0  0  0  0  0  0  0
  -23.3960  -30.4910   21.5510 C   0  0  0  0  0  3  0  0  0  0  0  0
  -24.8470  -28.9580   20.1200 C   0  0  0  0  0  0  0  0  0  0  0  0
  -25.9200  -30.8460   21.3630 C   0  0  0  0  0  2  0  0  0  0  0  0
  -26.0010  -29.4790   20.7190 C   0  0  0  0  0  0  0  0  0  0  0  0
  -27.2020  -28.7400   20.7130 C   0  0  0  0  0  3  0  0  0  0  0  0
  -26.0760  -26.9530   19.4970 C   0  0  0  0  0  3  0  0  0  0  0  0
  -24.8750  -27.6900   19.5110 C   0  0  0  0  0  3  0  0  0  0  0  0
  -23.6060  -29.8200   20.1660 C   0  0  0  0  0  2  0  0  0  0  0  0
  -24.6590  -31.0820   22.1020 N   0  0  0  0  0  0  0  0  0  0  0  0
  -23.5290  -32.1430   23.7550 O   0  0  0  0  0  0  0  0  0  0  0  0
  -22.7380  -29.4650   22.4990 C   0  0  0  0  0  0  0  0  0  0  0  0
  -21.4100  -29.3040   22.3750 N   0  0  0  0  0  0  0  0  0  0  0  0
  -23.4160  -28.8180   23.3000 O   0  0  0  0  0  0  0  0  0  0  0  0
  -20.9240  -29.8790   21.7020 H   0  0  0  0  0  0  0  0  0  0  0  0
  -18.0260  -28.1370   22.8490 C   0  0  0  0  0  0  0  0  0  0  0  0
  -20.5840  -28.3650   23.1330 C   0  0  0  0  0  3  0  0  0  0  0  0
  -20.6760  -26.9400   22.5410 C   0  0  0  0  0  2  0  0  0  0  0  0
  -19.5740  -26.6390   21.5200 C   0  0  0  0  0  2  0  0  0  0  0  0
  -18.1910  -26.7920   22.1620 C   0  0  0  0  0  2  0  0  0  0  0  0
  -19.1500  -28.8820   23.2920 C   0  0  0  0  0  0  0  0  0  0  0  0
  -18.9440  -30.1430   23.8930 C   0  0  0  0  0  3  0  0  0  0  0  0
  -17.6450  -30.6580   24.0570 C   0  0  0  0  0  3  0  0  0  0  0  0
  -16.5340  -29.9090   23.6330 C   0  0  0  0  0  3  0  0  0  0  0  0
  -16.7250  -28.6510   23.0350 C   0  0  0  0  0  3  0  0  0  0  0  0
  -25.8990  -32.4830   23.8410 C   0  0  0  0  0  3  0  0  0  0  0  0
  -25.5870  -33.8640   24.2350 N   0  0  0  0  0  0  0  0  0  0  0  0
  -25.9020  -34.9480   23.5140 C   0  0  0  0  0  0  0  0  0  0  0  0
  -26.5580  -34.8920   22.4700 O   0  0  0  0  0  0  0  0  0  0  0  0
  -25.0030  -33.9810   25.0490 H   0  0  0  0  0  0  0  0  0  0  0  0
  -24.1490  -36.7330   23.2630 C   0  0  0  0  0  1  0  0  0  0  0  0
  -25.4110  -36.3120   24.0340 C   0  0  0  0  0  3  0  0  0  0  0  0
  -27.5580  -37.1820   24.8460 C   0  0  0  0  0  1  0  0  0  0  0  0
  -26.4300  -37.3800   23.9400 N   0  0  0  0  0  0  0  0  0  0  0  0
  -26.0190  -38.2880   24.1410 H   0  0  0  0  0  0  0  0  0  0  0  0
  -26.4450  -31.6590   25.0710 C   0  0  1  0  0  0  0  0  0  0  0  0
  -25.3750  -31.3680   26.1470 C   0  0  0  0  0  1  0  0  0  0  0  0
  -27.0260  -30.3030   24.6040 C   0  0  0  0  0  1  0  0  0  0  0  0
  -27.6040  -32.4290   25.7470 C   0  0  0  0  0  1  0  0  0  0  0  0
  -24.0770  -20.5060   25.6870 C   0  0  0  0  0  3  0  0  0  0  0  0
  -24.5150  -19.3660   25.3020 N   0  0  0  0  0  0  0  0  0  0  0  0
  -24.1170  -18.2480   26.0190 C   0  0  0  0  0  0  0  0  0  0  0  0
  -23.4230  -18.1930   27.0370 O   0  0  0  0  0  0  0  0  0  0  0  0
  -24.6390  -16.9450   25.4170 C   0  0  0  0  0  2  0  0  0  0  0  0
  -26.1510  -16.7390   25.6660 C   0  0  0  0  0  2  0  0  0  0  0  0
  -26.8030  -15.9910   24.5050 C   0  0  0  0  0  0  0  0  0  0  0  0
  -27.6640  -16.6750   23.7430 N   0  0  0  0  0  0  0  0  0  0  0  0
  -26.5020  -14.8170   24.2850 O   0  0  0  0  0  0  0  0  0  0  0  0
  -27.8590  -17.6330   24.0050 H   0  0  0  0  0  0  0  0  0  0  0  0
  -28.1780  -16.2280   22.4540 C   0  0  0  0  0  2  0  0  0  0  0  0
  -29.5920  -15.6270   22.5350 C   0  0  0  0  0  2  0  0  0  0  0  0
  -30.7420  -14.4040   20.6450 C   0  0  0  0  0  0  0  0  0  0  0  0
  -30.4190  -12.2930   19.4180 C   0  0  0  0  0  2  0  0  0  0  0  0
  -29.4950  -12.5190   18.2040 C   0  0  0  0  0  2  0  0  0  0  0  0
  -28.0120  -12.3860   18.6060 C   0  0  0  0  0  2  0  0  0  0  0  0
  -27.6630  -13.2040   19.8800 C   0  0  0  0  0  3  0  0  0  0  0  0
  -28.6960  -12.9250   20.9900 C   0  0  0  0  0  2  0  0  0  0  0  0
  -30.0340  -13.2540   20.4660 N   0  0  0  0  0  0  0  0  0  0  0  0
  -31.8260  -14.6090   20.0970 O   0  0  0  0  0  0  0  0  0  0  0  0
  -30.1160  -15.4600   21.1810 N   0  0  0  0  0  0  0  0  0  0  0  0
  -30.5430  -16.3140   20.8520 H   0  0  0  0  0  0  0  0  0  0  0  0
  -25.2530  -13.8150   20.5590 C   0  0  0  0  0  0  0  0  0  0  0  0
  -24.1820  -13.0420   20.9180 C   0  0  0  0  0  0  0  0  0  0  0  0
  -24.6390  -11.6900   20.8750 C   0  0  0  0  0  0  0  0  0  0  0  0
  -26.3010  -12.9330   20.3360 N   0  0  0  0  0  0  0  0  0  0  0  0
  -25.9310  -11.6490   20.5770 N   0  0  0  0  0  0  0  0  0  0  0  0
  -23.9060  -10.4280   21.0420 C   0  0  0  0  0  0  0  0  0  0  0  0
  -24.3610   -9.4190   21.9200 C   0  0  0  0  0  3  0  0  0  0  0  0
  -23.6280   -8.2240   22.0760 C   0  0  0  0  0  3  0  0  0  0  0  0
  -22.4260   -8.0290   21.3550 C   0  0  0  0  0  0  0  0  0  0  0  0
  -21.9910   -9.0260   20.4650 C   0  0  0  0  0  3  0  0  0  0  0  0
  -22.7240  -10.2130   20.3060 C   0  0  0  0  0  3  0  0  0  0  0  0
  -21.6630   -6.8890   21.4250 O   0  0  0  0  0  0  0  0  0  0  0  0
  -21.6850   -6.0740   22.5290 C   0  0  0  0  0  0  0  0  0  0  0  0
  -21.4010   -6.5640   23.8230 C   0  0  0  0  0  3  0  0  0  0  0  0
  -21.3660   -5.6790   24.9190 C   0  0  0  0  0  3  0  0  0  0  0  0
  -21.6040   -4.3060   24.7230 C   0  0  0  0  0  0  0  0  0  0  0  0
  -21.8820   -3.8150   23.4350 C   0  0  0  0  0  3  0  0  0  0  0  0
  -21.9190   -4.6970   22.3410 C   0  0  0  0  0  0  0  0  0  0  0  0
  -22.1650   -4.2150   21.0990 F   0  0  0  0  0  0  0  0  0  0  0  0
  -21.5630   -3.4540   25.7740 F   0  0  0  0  0  0  0  0  0  0  0  0
  -22.7850  -13.5210   21.1840 C   0  0  0  0  0  0  0  0  0  0  0  0
  -22.0480  -12.8230   22.0420 N   0  0  0  0  0  0  0  0  0  0  0  0
  -22.3530  -14.5500   20.6670 O   0  0  0  0  0  0  0  0  0  0  0  0
  -22.4080  -11.9910   22.4860 H   0  0  0  0  0  0  0  0  0  0  0  0
  -21.1100  -13.1270   22.2580 H   0  0  0  0  0  0  0  0  0  0  0  0
  -25.4090  -15.1860   20.3750 N   0  0  0  0  0  0  0  0  0  0  0  0
  -24.6250  -15.8230   20.4600 H   0  0  0  0  0  0  0  0  0  0  0  0
  -26.2390  -15.6240   19.9970 H   0  0  0  0  0  0  0  0  0  0  0  0
  1  2  2  0
  1 52  1  0
  3  1  1  0
  4  3  2  0
  5  4  1  0
  6  5  1  0
  6  8  1  0
  7  5  2  0
  9 10  1  0
  9  6  1  0
 11 13  1  0
 11 10  1  0
 12 23  2  0
 13 18  1  0
 14 22  1  0
 14 24  1  0
 15 21  1  0
 15 17  1  0
 16 22  1  0
 17 16  1  0
 18 17  2  0
 19 20  1  0
 19 13  2  0
 20 15  2  0
 21 14  1  0
 22 12  1  0
 24 26  2  0
 25 24  1  0
 27 25  1  0
 28 37  2  0
 28 33  1  0
 29 25  1  0
 29 33  1  0
 30 29  1  0
 31 32  1  0
 31 30  1  0
 32 28  1  0
 33 34  2  0
 34 35  1  0
 36 35  2  0
 37 36  1  0
 38 12  1  0
 38 39  1  0
 38 48  1  0
 39 42  1  0
 40 44  1  0
 40 39  1  0
 41 40  2  0
 44 43  1  0
 46 44  1  0
 46 47  1  0
 46 45  1  0
 48 51  1  1
 48 49  1  0
 50 48  1  0
 53 52  2  0
 53 54  1  0
 54 55  2  0
 56 57  1  0
 56 54  1  0
 58 57  1  0
 59 61  1  0
 59 58  1  0
 60 58  2  0
 62 63  1  0
 62 59  1  0
 64 72  1  0
 65 70  1  0
 66 67  1  0
 66 65  1  0
 68 67  1  0
 68 77  1  0
 68 69  1  0
 70 64  1  0
 70 69  1  0
 71 64  2  0
 72 63  1  0
 73 72  1  0
 74 75  2  0
 75 94  1  0
 76 75  1  0
 76 79  1  0
 77 74  1  0
 77 78  1  0
 78 76  2  0
 79 80  1  0
 80 81  2  0
 82 85  1  0
 82 81  1  0
 83 82  2  0
 84 83  1  0
 84 79  2  0
 85 86  1  0
 86 87  1  0
 87 88  2  0
 89 88  1  0
 89 93  1  0
 90 89  2  0
 91 86  2  0
 91 90  1  0
 92 91  1  0
 94 95  1  0
 95 98  1  0
 95 97  1  0
 96 94  2  0
 99100  1  0
 99 74  1  0
101 99  1  0
M  ISO  4  10 101  11 101  64 100  72 100
M  END
>  <TORSDO>  (37) 
F 27

>  <SCORE>  (37) 
65.001

>  <name>  (37) 
40

>  <ligand_id>  (37) 
40

>  <original_smiles>  (37) 
[H]C(=NC(=O)C([H])([H])C([H])([H])C(=O)N([H])C([H])([H])C([H])([H])N([H])C(=O)N1C([H])([H])C([H])([H])C([H])([H])C([H])(n2nc(-c3c([H])c([H])c(Oc4c([H])c([H])c(F)c([H])c4F)c([H])c3[H])c(C(=O)N([H])[H])c2N([H])[H])C1([H])[H])C(=O)C([H])=C([H])C(=O)N([H])C([H])([H])C([H])([H])Oc1c([H])c([H])c2c(c1[H])C([H])([H])N(C(=O)C([H])(N([H])C(=O)C([H])(N([H])C([H])([H])[H])C([H])([H])[H])C(C([H])([H])[H])(C([H])([H])[H])C([H])([H])[H])C([H])(C(=O)N([H])C1([H])c3c([H])c([H])c([H])c([H])c3C([H])([H])C([H])([H])C1([H])[H])C2([H])[H]

>  <smiles>  (37) 
[H]C(=NC(=O)C([H])([H])C([H])([H])C(=O)N([H])C([H])([H])C([H])([H])N([H])C(=O)N1C([H])([H])C([H])([H])C([H])([H])C([H])(n2nc(-c3c([H])c([H])c(Oc4c([H])c([H])c(F)c([H])c4F)c([H])c3[H])c(C(=O)N([H])[H])c2N([H])[H])C1([H])[H])C(=O)C([H])=C([H])C(=O)N([H])C([H])([H])C([H])([H])Oc1c([H])c([H])c2c(c1[H])C([H])([H])N(C(=O)C([H])(N([H])C(=O)C([H])(N([H])C([H])([H])[H])C([H])([H])[H])C(C([H])([H])[H])(C([H])([H])[H])C([H])([H])[H])C([H])(C(=O)N([H])C1([H])c3c([H])c([H])c([H])c([H])c3C([H])([H])C([H])([H])C1([H])[H])C2([H])[H]

$$$$
41:0:0
     RDKit          3D

104111  0  0  1  0  0  0  0  0999 V2000
  -28.1830  -21.5670   21.2030 C   0  0  0  0  0  2  0  0  0  0  0  0
  -27.7220  -20.9300   19.8870 C   0  0  0  0  0  2  0  0  0  0  0  0
  -28.8730  -20.6810   19.0970 O   0  0  0  0  0  0  0  0  0  0  0  0
  -28.5600  -20.3320   17.7490 C   0  0  0  0  0  2  0  0  0  0  0  0
  -29.5690  -21.0520   16.8550 C   0  0  0  0  0  2  0  0  0  0  0  0
  -30.8800  -20.6150   17.2090 O   0  0  0  0  0  0  0  0  0  0  0  0
  -31.7840  -21.6800   17.4820 C   0  0  0  0  0  2  0  0  0  0  0  0
  -31.5540  -22.2320   18.9030 C   0  0  0  0  0  2  0  0  0  0  0  0
  -31.8380  -21.2390   20.0500 C   0  0  0  0  0  2  0  0  0  0  0  0
  -31.0350  -19.9970   19.9620 N   0  0  0  0  0  4  0  0  0  0  0  0
  -30.0640  -20.2420   19.8100 H   0  0  0  0  0  0  0  0  0  0  0  0
  -31.3390  -19.5030   19.1390 H   0  0  0  0  0  0  0  0  0  0  0  0
  -31.1800  -19.1060   21.1400 C   0  0  0  0  0  2  0  0  0  0  0  0
  -30.9030  -17.6220   20.8210 C   0  0  0  0  0  2  0  0  0  0  0  0
  -31.3870  -16.6800   21.9510 C   0  0  0  0  0  2  0  0  0  0  0  0
  -32.3850  -14.7600   20.7060 C   0  0  0  0  0  0  0  0  0  0  0  0
  -33.2120  -12.7390   19.5600 C   0  0  0  0  0  2  0  0  0  0  0  0
  -32.3360  -12.4000   18.3390 C   0  0  0  0  0  2  0  0  0  0  0  0
  -31.1490  -11.5140   18.7580 C   0  0  0  0  0  2  0  0  0  0  0  0
  -30.3830  -12.0890   19.9800 C   0  0  0  0  0  3  0  0  0  0  0  0
  -31.3600  -12.4820   21.1110 C   0  0  0  0  0  2  0  0  0  0  0  0
  -32.3660  -13.4090   20.5590 N   0  0  0  0  0  0  0  0  0  0  0  0
  -33.1720  -15.4970   20.1090 O   0  0  0  0  0  0  0  0  0  0  0  0
  -31.4800  -15.2720   21.5530 N   0  0  0  0  0  0  0  0  0  0  0  0
  -30.8750  -14.6130   22.0210 H   0  0  0  0  0  0  0  0  0  0  0  0
  -27.9780  -11.3180   20.4850 C   0  0  0  0  0  0  0  0  0  0  0  0
  -27.4740  -10.1320   20.9440 C   0  0  0  0  0  0  0  0  0  0  0  0
  -28.6040   -9.2850   21.1700 C   0  0  0  0  0  0  0  0  0  0  0  0
  -29.3550  -11.1640   20.4510 N   0  0  0  0  0  0  0  0  0  0  0  0
  -29.7290   -9.9450   20.9210 N   0  0  0  0  0  0  0  0  0  0  0  0
  -28.6780   -7.8710   21.5540 C   0  0  0  0  0  0  0  0  0  0  0  0
  -29.4530   -7.4450   22.6550 C   0  0  0  0  0  3  0  0  0  0  0  0
  -29.4940   -6.0810   23.0200 C   0  0  0  0  0  3  0  0  0  0  0  0
  -28.7520   -5.1280   22.2820 C   0  0  0  0  0  0  0  0  0  0  0  0
  -27.9980   -5.5540   21.1730 C   0  0  0  0  0  3  0  0  0  0  0  0
  -27.9630   -6.9100   20.8100 C   0  0  0  0  0  3  0  0  0  0  0  0
  -28.7530   -3.7800   22.5450 O   0  0  0  0  0  0  0  0  0  0  0  0
  -29.0440   -3.2890   23.7920 C   0  0  0  0  0  0  0  0  0  0  0  0
  -28.3760   -3.7450   24.9490 C   0  0  0  0  0  3  0  0  0  0  0  0
  -28.6570   -3.1640   26.2000 C   0  0  0  0  0  3  0  0  0  0  0  0
  -29.5980   -2.1220   26.2990 C   0  0  0  0  0  0  0  0  0  0  0  0
  -30.2610   -1.6620   25.1480 C   0  0  0  0  0  3  0  0  0  0  0  0
  -29.9830   -2.2420   23.8970 C   0  0  0  0  0  0  0  0  0  0  0  0
  -30.6100   -1.7800   22.7890 F   0  0  0  0  0  0  0  0  0  0  0  0
  -29.8640   -1.5590   27.5000 F   0  0  0  0  0  0  0  0  0  0  0  0
  -26.0240   -9.7640   21.0730 C   0  0  0  0  0  0  0  0  0  0  0  0
  -25.6850   -8.9280   22.0470 N   0  0  0  0  0  0  0  0  0  0  0  0
  -25.1700  -10.2570   20.3360 O   0  0  0  0  0  0  0  0  0  0  0  0
  -26.3810   -8.5430   22.6690 H   0  0  0  0  0  0  0  0  0  0  0  0
  -24.7150   -8.6720   22.1730 H   0  0  0  0  0  0  0  0  0  0  0  0
  -27.3820  -12.5080   20.0760 N   0  0  0  0  0  0  0  0  0  0  0  0
  -26.3740  -12.6230   20.0440 H   0  0  0  0  0  0  0  0  0  0  0  0
  -27.8880  -13.3120   19.7270 H   0  0  0  0  0  0  0  0  0  0  0  0
  -27.1730  -22.5990   21.7170 C   0  0  0  0  0  2  0  0  0  0  0  0
  -27.8080  -23.6590   22.6330 C   0  0  0  0  0  2  0  0  0  0  0  0
  -26.8410  -24.7140   23.0020 N   0  0  0  0  0  4  0  0  0  0  0  0
  -26.9800  -24.8930   23.9850 H   0  0  0  0  0  0  0  0  0  0  0  0
  -25.8980  -24.3670   22.9130 H   0  0  0  0  0  0  0  0  0  0  0  0
  -27.0050  -26.0180   22.3060 C   0  0  0  0  0  2  0  0  0  0  0  0
  -26.3500  -26.0910   20.9150 C   0  0  0  0  0  2  0  0  0  0  0  0
  -27.2610  -25.7290   19.8740 O   0  0  0  0  0  0  0  0  0  0  0  0
  -26.6970  -25.9990   18.5930 C   0  0  0  0  0  2  0  0  0  0  0  0
  -27.7140  -26.4850   17.5220 C   0  0  0  0  0  2  0  0  0  0  0  0
  -27.1400  -27.4180   16.5830 O   0  0  0  0  0  0  0  0  0  0  0  0
  -25.1310  -30.7530   22.4940 C   0  0  0  0  0  0  0  0  0  0  0  0
  -26.1980  -28.2250   17.1630 C   0  0  0  0  0  0  0  0  0  0  0  0
  -23.3530  -30.3380   20.8210 C   0  0  0  0  0  3  0  0  0  0  0  0
  -24.1540  -29.6160   18.5070 C   0  0  0  0  0  0  0  0  0  0  0  0
  -25.7760  -30.6650   20.0930 C   0  0  0  0  0  2  0  0  0  0  0  0
  -25.4840  -29.7550   18.9210 C   0  0  0  0  0  0  0  0  0  0  0  0
  -26.5130  -29.0560   18.2580 C   0  0  0  0  0  3  0  0  0  0  0  0
  -24.8610  -28.1200   16.7280 C   0  0  0  0  0  3  0  0  0  0  0  0
  -23.8340  -28.7980   17.4080 C   0  0  0  0  0  3  0  0  0  0  0  0
  -23.1150  -30.3890   19.2880 C   0  0  0  0  0  2  0  0  0  0  0  0
  -24.7860  -30.5700   21.1880 N   0  0  0  0  0  0  0  0  0  0  0  0
  -24.2680  -30.7770   23.3830 O   0  0  0  0  0  0  0  0  0  0  0  0
  -22.7880  -29.0070   21.3690 C   0  0  0  0  0  0  0  0  0  0  0  0
  -21.4510  -28.9240   21.4680 N   0  0  0  0  0  0  0  0  0  0  0  0
  -23.5380  -28.0750   21.6670 O   0  0  0  0  0  0  0  0  0  0  0  0
  -20.9060  -29.7400   21.2240 H   0  0  0  0  0  0  0  0  0  0  0  0
  -18.1110  -27.6530   21.9950 C   0  0  0  0  0  0  0  0  0  0  0  0
  -20.6920  -27.7580   21.9170 C   0  0  0  0  0  3  0  0  0  0  0  0
  -20.5990  -26.6890   20.8050 C   0  0  0  0  0  2  0  0  0  0  0  0
  -19.3370  -26.8170   19.9470 C   0  0  0  0  0  2  0  0  0  0  0  0
  -18.0810  -26.6960   20.8150 C   0  0  0  0  0  2  0  0  0  0  0  0
  -19.3360  -28.1650   22.5020 C   0  0  0  0  0  0  0  0  0  0  0  0
  -19.3030  -29.0800   23.5770 C   0  0  0  0  0  3  0  0  0  0  0  0
  -18.0780  -29.4840   24.1420 C   0  0  0  0  0  3  0  0  0  0  0  0
  -16.8700  -28.9620   23.6460 C   0  0  0  0  0  3  0  0  0  0  0  0
  -16.8890  -28.0450   22.5800 C   0  0  0  0  0  3  0  0  0  0  0  0
  -26.6150  -30.9630   22.9290 C   0  0  0  0  0  3  0  0  0  0  0  0
  -26.6360  -32.0480   23.9190 N   0  0  0  0  0  0  0  0  0  0  0  0
  -27.0500  -33.2970   23.6670 C   0  0  0  0  0  0  0  0  0  0  0  0
  -27.5240  -33.6390   22.5790 O   0  0  0  0  0  0  0  0  0  0  0  0
  -26.2110  -31.8550   24.8130 H   0  0  0  0  0  0  0  0  0  0  0  0
  -25.7100  -35.2490   24.5110 C   0  0  0  0  0  1  0  0  0  0  0  0
  -26.9100  -34.3320   24.7980 C   0  0  0  0  0  3  0  0  0  0  0  0
  -29.2510  -34.3860   25.5350 C   0  0  0  0  0  1  0  0  0  0  0  0
  -28.1260  -35.1490   25.0020 N   0  0  0  0  0  0  0  0  0  0  0  0
  -27.9380  -35.9250   25.6310 H   0  0  0  0  0  0  0  0  0  0  0  0
  -27.2830  -29.6590   23.5130 C   0  0  1  0  0  0  0  0  0  0  0  0
  -26.4520  -28.9780   24.6250 C   0  0  0  0  0  1  0  0  0  0  0  0
  -27.5130  -28.6180   22.3900 C   0  0  0  0  0  1  0  0  0  0  0  0
  -28.6730  -29.9980   24.0990 C   0  0  0  0  0  1  0  0  0  0  0  0
  1 54  1  0
  2  1  1  0
  3  2  1  0
  4  3  1  0
  5  6  1  0
  5  4  1  0
  6  7  1  0
  7  8  1  0
  8  9  1  0
 10  9  1  0
 10 13  1  0
 11 10  1  0
 12 10  1  0
 14 13  1  0
 14 15  1  0
 16 24  1  0
 17 22  1  0
 18 19  1  0
 18 17  1  0
 20 19  1  0
 20 29  1  0
 20 21  1  0
 22 16  1  0
 22 21  1  0
 23 16  2  0
 24 15  1  0
 24 25  1  0
 26 27  2  0
 27 46  1  0
 27 28  1  0
 28 31  1  0
 29 26  1  0
 29 30  1  0
 30 28  2  0
 31 32  1  0
 32 33  2  0
 34 37  1  0
 34 33  1  0
 35 34  2  0
 36 35  1  0
 36 31  2  0
 37 38  1  0
 38 43  2  0
 38 39  1  0
 39 40  2  0
 40 41  1  0
 41 45  1  0
 42 41  2  0
 43 42  1  0
 44 43  1  0
 46 47  1  0
 47 50  1  0
 47 49  1  0
 48 46  2  0
 51 26  1  0
 52 51  1  0
 53 51  1  0
 54 55  1  0
 55 56  1  0
 56 57  1  0
 58 56  1  0
 59 56  1  0
 60 59  1  0
 61 60  1  0
 62 61  1  0
 63 62  1  0
 64 66  1  0
 64 63  1  0
 65 76  2  0
 66 71  1  0
 67 75  1  0
 67 77  1  0
 68 70  1  0
 68 74  1  0
 69 75  1  0
 70 69  1  0
 71 70  2  0
 72 66  2  0
 72 73  1  0
 73 68  2  0
 74 67  1  0
 75 65  1  0
 77 78  1  0
 77 79  2  0
 80 78  1  0
 81 86  2  0
 81 90  1  0
 82 78  1  0
 82 86  1  0
 83 82  1  0
 84 83  1  0
 84 85  1  0
 85 81  1  0
 86 87  1  0
 87 88  2  0
 89 88  1  0
 90 89  2  0
 91 65  1  0
 91101  1  0
 91 92  1  0
 92 95  1  0
 93 92  1  0
 93 97  1  0
 94 93  2  0
 97 96  1  0
 97 99  1  0
 99 98  1  0
 99100  1  0
101104  1  1
101102  1  0
103101  1  0
M  ISO  4  16 100  24 100  63 101  64 101
M  END
>  <TORSDO>  (38) 
F 36

>  <SCORE>  (38) 
-1.024

>  <name>  (38) 
41

>  <ligand_id>  (38) 
41

>  <original_smiles>  (38) 
[H]c1c([H])c([H])c2c(c1[H])C([H])([H])C([H])([H])C([H])([H])C2([H])N([H])C(=O)C1([H])N(C(=O)C([H])(N([H])C(=O)C([H])(N([H])C([H])([H])[H])C([H])([H])[H])C(C([H])([H])[H])(C([H])([H])[H])C([H])([H])[H])C([H])([H])c2c([H])c(OC([H])([H])C([H])([H])OC([H])([H])C([H])([H])[N+]([H])([H])C([H])([H])C([H])([H])C([H])([H])C([H])([H])OC([H])([H])C([H])([H])OC([H])([H])C([H])([H])C([H])([H])[N+]([H])([H])C([H])([H])C([H])([H])C([H])([H])N([H])C(=O)N3C([H])([H])C([H])([H])C([H])([H])C([H])(n4nc(-c5c([H])c([H])c(Oc6c([H])c([H])c(F)c([H])c6F)c([H])c5[H])c(C(=O)N([H])[H])c4N([H])[H])C3([H])[H])c([H])c([H])c2C1([H])[H]

>  <smiles>  (38) 
[H]c1c([H])c([H])c2c(c1[H])C([H])([H])C([H])([H])C([H])([H])C2([H])N([H])C(=O)C1([H])N(C(=O)C([H])(N([H])C(=O)C([H])(N([H])C([H])([H])[H])C([H])([H])[H])C(C([H])([H])[H])(C([H])([H])[H])C([H])([H])[H])C([H])([H])c2c([H])c(OC([H])([H])C([H])([H])OC([H])([H])C([H])([H])[N+]([H])([H])C([H])([H])C([H])([H])C([H])([H])C([H])([H])OC([H])([H])C([H])([H])OC([H])([H])C([H])([H])C([H])([H])[N+]([H])([H])C([H])([H])C([H])([H])C([H])([H])N([H])C(=O)N3C([H])([H])C([H])([H])C([H])([H])C([H])(n4nc(-c5c([H])c([H])c(Oc6c([H])c([H])c(F)c([H])c6F)c([H])c5[H])c(C(=O)N([H])[H])c4N([H])[H])C3([H])[H])c([H])c([H])c2C1([H])[H]

$$$$
42:0:0
     RDKit          3D

100107  0  0  1  0  0  0  0  0999 V2000
  -30.4270  -21.6950   23.3240 C   0  0  0  0  0  2  0  0  0  0  0  0
  -30.4860  -22.7290   22.1800 C   0  0  0  0  0  2  0  0  0  0  0  0
  -31.2080  -22.2630   20.9000 C   0  0  0  0  0  2  0  0  0  0  0  0
  -32.6610  -22.0640   21.0780 N   0  0  0  0  0  4  0  0  0  0  0  0
  -32.8150  -21.2250   21.6180 H   0  0  0  0  0  0  0  0  0  0  0  0
  -33.0490  -22.8390   21.5940 H   0  0  0  0  0  0  0  0  0  0  0  0
  -33.3970  -21.9110   19.8020 C   0  0  0  0  0  2  0  0  0  0  0  0
  -34.9080  -21.9710   20.0360 C   0  0  0  0  0  2  0  0  0  0  0  0
  -35.3490  -20.6230   20.1510 O   0  0  0  0  0  0  0  0  0  0  0  0
  -36.7260  -20.5170   20.4760 C   0  0  0  0  0  2  0  0  0  0  0  0
  -37.3560  -19.4130   19.6130 C   0  0  0  0  0  2  0  0  0  0  0  0
  -37.3720  -19.7210   18.1010 C   0  0  0  0  0  2  0  0  0  0  0  0
  -38.8870  -21.5210   17.2690 C   0  0  0  0  0  0  0  0  0  0  0  0
  -40.2700  -23.4750   16.6790 C   0  0  0  0  0  2  0  0  0  0  0  0
  -41.0240  -24.0040   17.9130 C   0  0  0  0  0  2  0  0  0  0  0  0
  -40.1520  -25.0010   18.7000 C   0  0  0  0  0  2  0  0  0  0  0  0
  -38.7290  -24.4510   18.9840 C   0  0  0  0  0  3  0  0  0  0  0  0
  -38.0960  -23.8800   17.6940 C   0  0  0  0  0  2  0  0  0  0  0  0
  -39.0130  -22.8670   17.1360 N   0  0  0  0  0  0  0  0  0  0  0  0
  -39.7650  -20.7190   16.9390 O   0  0  0  0  0  0  0  0  0  0  0  0
  -37.7320  -21.1080   17.8050 N   0  0  0  0  0  0  0  0  0  0  0  0
  -37.0520  -21.8230   18.0190 H   0  0  0  0  0  0  0  0  0  0  0  0
  -37.2620  -25.4690   20.8410 C   0  0  0  0  0  0  0  0  0  0  0  0
  -36.6390  -26.6840   20.9510 C   0  0  0  0  0  0  0  0  0  0  0  0
  -36.9250  -27.3850   19.7400 C   0  0  0  0  0  0  0  0  0  0  0  0
  -37.8780  -25.4690   19.5990 N   0  0  0  0  0  0  0  0  0  0  0  0
  -37.6250  -26.6140   18.9160 N   0  0  0  0  0  0  0  0  0  0  0  0
  -36.6210  -28.7630   19.3380 C   0  0  0  0  0  0  0  0  0  0  0  0
  -35.7720  -29.0450   18.2450 C   0  0  0  0  0  3  0  0  0  0  0  0
  -35.4800  -30.3790   17.8890 C   0  0  0  0  0  3  0  0  0  0  0  0
  -36.0340  -31.4490   18.6310 C   0  0  0  0  0  0  0  0  0  0  0  0
  -36.8970  -31.1640   19.7030 C   0  0  0  0  0  3  0  0  0  0  0  0
  -37.1910  -29.8350   20.0540 C   0  0  0  0  0  3  0  0  0  0  0  0
  -35.8270  -32.7760   18.3430 O   0  0  0  0  0  0  0  0  0  0  0  0
  -34.6160  -33.2340   17.8920 C   0  0  0  0  0  0  0  0  0  0  0  0
  -33.4620  -33.2150   18.7050 C   0  0  0  0  0  3  0  0  0  0  0  0
  -32.2530  -33.7590   18.2250 C   0  0  0  0  0  3  0  0  0  0  0  0
  -32.1990  -34.3300   16.9400 C   0  0  0  0  0  0  0  0  0  0  0  0
  -33.3480  -34.3560   16.1310 C   0  0  0  0  0  3  0  0  0  0  0  0
  -34.5540  -33.8110   16.6070 C   0  0  0  0  0  0  0  0  0  0  0  0
  -35.6640  -33.8570   15.8310 F   0  0  0  0  0  0  0  0  0  0  0  0
  -31.0400  -34.8600   16.4820 F   0  0  0  0  0  0  0  0  0  0  0  0
  -35.9050  -27.2070   22.1520 C   0  0  0  0  0  0  0  0  0  0  0  0
  -34.8110  -27.9290   21.9340 N   0  0  0  0  0  0  0  0  0  0  0  0
  -36.2710  -26.9360   23.2940 O   0  0  0  0  0  0  0  0  0  0  0  0
  -34.4990  -28.1360   20.9960 H   0  0  0  0  0  0  0  0  0  0  0  0
  -34.2780  -28.2820   22.7170 H   0  0  0  0  0  0  0  0  0  0  0  0
  -37.3730  -24.3760   21.6950 N   0  0  0  0  0  0  0  0  0  0  0  0
  -37.0190  -24.4060   22.6470 H   0  0  0  0  0  0  0  0  0  0  0  0
  -37.9770  -23.5830   21.5170 H   0  0  0  0  0  0  0  0  0  0  0  0
  -31.5570  -20.6510   23.2170 C   0  0  0  0  0  2  0  0  0  0  0  0
  -31.0840  -19.2310   22.8530 C   0  0  0  0  0  2  0  0  0  0  0  0
  -30.7150  -18.8870   20.4150 C   0  0  0  0  0  0  0  0  0  0  0  0
  -30.2820  -19.2280   21.6330 N   0  0  0  0  0  0  0  0  0  0  0  0
  -31.8540  -18.4640   20.2000 O   0  0  0  0  0  0  0  0  0  0  0  0
  -29.3300  -19.5620   21.7100 H   0  0  0  0  0  0  0  0  0  0  0  0
  -29.6860  -19.0920   19.4150 C   0  0  0  0  0  3  0  0  0  0  0  0
  -29.8400  -20.0070   18.4380 C   0  0  0  0  0  3  0  0  0  0  0  0
  -28.7980  -20.2640   17.3670 C   0  0  0  0  0  2  0  0  0  0  0  0
  -27.5820  -20.7670   17.9190 O   0  0  0  0  0  0  0  0  0  0  0  0
  -30.4480  -27.3070   18.3940 C   0  0  0  0  0  0  0  0  0  0  0  0
  -27.4860  -22.0930   18.2820 C   0  0  0  0  0  0  0  0  0  0  0  0
  -28.3330  -26.9480   19.6330 C   0  0  0  0  0  3  0  0  0  0  0  0
  -27.1070  -24.7720   19.1120 C   0  0  0  0  0  0  0  0  0  0  0  0
  -28.8610  -25.5980   17.5300 C   0  0  0  0  0  2  0  0  0  0  0  0
  -28.0570  -24.4660   18.1310 C   0  0  0  0  0  0  0  0  0  0  0  0
  -28.2580  -23.1360   17.7180 C   0  0  0  0  0  3  0  0  0  0  0  0
  -26.5360  -22.4130   19.2750 C   0  0  0  0  0  3  0  0  0  0  0  0
  -26.3420  -23.7440   19.6950 C   0  0  0  0  0  3  0  0  0  0  0  0
  -26.9620  -26.2290   19.4880 C   0  0  0  0  0  2  0  0  0  0  0  0
  -29.2770  -26.6210   18.5160 N   0  0  0  0  0  0  0  0  0  0  0  0
  -30.7280  -28.2360   19.1640 O   0  0  0  0  0  0  0  0  0  0  0  0
  -28.9060  -26.6330   21.0320 C   0  0  0  0  0  0  0  0  0  0  0  0
  -28.5960  -27.4970   22.0120 N   0  0  0  0  0  0  0  0  0  0  0  0
  -29.5870  -25.6210   21.2260 O   0  0  0  0  0  0  0  0  0  0  0  0
  -28.0420  -28.3080   21.7710 H   0  0  0  0  0  0  0  0  0  0  0  0
  -28.8430  -29.3190   25.1190 C   0  0  0  0  0  0  0  0  0  0  0  0
  -28.9890  -27.3810   23.4150 C   0  0  0  0  0  3  0  0  0  0  0  0
  -27.8820  -26.6980   24.2490 C   0  0  0  0  0  2  0  0  0  0  0  0
  -26.9160  -27.6950   24.8990 C   0  0  0  0  0  2  0  0  0  0  0  0
  -27.6720  -28.6530   25.8240 C   0  0  0  0  0  2  0  0  0  0  0  0
  -29.4510  -28.7290   23.9800 C   0  0  0  0  0  0  0  0  0  0  0  0
  -30.5130  -29.4050   23.3420 C   0  0  0  0  0  3  0  0  0  0  0  0
  -30.9680  -30.6470   23.8220 C   0  0  0  0  0  3  0  0  0  0  0  0
  -30.3730  -31.2190   24.9590 C   0  0  0  0  0  3  0  0  0  0  0  0
  -29.3180  -30.5550   25.6090 C   0  0  0  0  0  3  0  0  0  0  0  0
  -31.4790  -26.9780   17.2680 C   0  0  0  0  0  3  0  0  0  0  0  0
  -31.9830  -28.2540   16.7450 N   0  0  0  0  0  0  0  0  0  0  0  0
  -31.6050  -28.8000   15.5820 C   0  0  0  0  0  0  0  0  0  0  0  0
  -30.8360  -28.2390   14.7970 O   0  0  0  0  0  0  0  0  0  0  0  0
  -32.5650  -28.7980   17.3630 H   0  0  0  0  0  0  0  0  0  0  0  0
  -31.1280  -31.2680   15.5800 C   0  0  0  0  0  1  0  0  0  0  0  0
  -32.1700  -30.1910   15.2380 C   0  0  0  0  0  3  0  0  0  0  0  0
  -33.7810  -29.5590   13.4970 C   0  0  0  0  0  1  0  0  0  0  0  0
  -32.5810  -30.3250   13.8230 N   0  0  0  0  0  0  0  0  0  0  0  0
  -32.7510  -31.2990   13.5850 H   0  0  0  0  0  0  0  0  0  0  0  0
  -32.6680  -26.0630   17.7590 C   0  0  1  0  0  0  0  0  0  0  0  0
  -33.4810  -26.6750   18.9220 C   0  0  0  0  0  1  0  0  0  0  0  0
  -32.1400  -24.6840   18.2200 C   0  0  0  0  0  1  0  0  0  0  0  0
  -33.6430  -25.8000   16.5860 C   0  0  0  0  0  1  0  0  0  0  0  0
  2  1  1  0
  3  4  1  0
  3  2  1  0
  4  6  1  0
  4  5  1  0
  7  8  1  0
  7  4  1  0
  8  9  1  0
  9 10  1  0
 11 10  1  0
 12 11  1  0
 13 21  1  0
 14 19  1  0
 14 15  1  0
 15 16  1  0
 16 17  1  0
 17 18  1  0
 17 26  1  0
 19 13  1  0
 19 18  1  0
 20 13  2  0
 21 22  1  0
 21 12  1  0
 23 24  2  0
 23 48  1  0
 24 43  1  0
 25 24  1  0
 26 23  1  0
 27 26  1  0
 27 25  2  0
 28 25  1  0
 28 33  1  0
 29 28  2  0
 30 29  1  0
 30 31  2  0
 31 32  1  0
 32 33  2  0
 34 31  1  0
 35 34  1  0
 35 36  1  0
 37 36  2  0
 38 37  1  0
 39 40  1  0
 39 38  2  0
 40 35  2  0
 41 40  1  0
 42 38  1  0
 43 45  2  0
 44 43  1  0
 44 47  1  0
 46 44  1  0
 48 49  1  0
 50 48  1  0
 51  1  1  0
 52 51  1  0
 53 54  1  0
 54 56  1  0
 54 52  1  0
 55 53  2  0
 57 53  1  0
 58 57  2  0
 59 60  1  0
 59 58  1  0
 60 62  1  0
 61 71  1  0
 61 72  2  0
 62 68  1  0
 63 73  1  0
 64 70  1  0
 64 69  1  0
 65 66  1  0
 65 71  1  0
 66 64  2  0
 67 66  1  0
 67 62  2  0
 68 69  2  0
 70 63  1  0
 71 63  1  0
 73 75  2  0
 73 74  1  0
 76 74  1  0
 77 86  1  0
 77 81  1  0
 78 74  1  0
 78 82  1  0
 78 79  1  0
 79 80  1  0
 80 81  1  0
 82 77  2  0
 83 84  2  0
 83 82  1  0
 84 85  1  0
 85 86  2  0
 87 97  1  0
 87 61  1  0
 88 87  1  0
 88 91  1  0
 89 88  1  0
 90 89  2  0
 93 92  1  0
 93 89  1  0
 94 95  1  0
 95 93  1  0
 96 95  1  0
 97 99  1  1
 97 98  1  0
100 97  1  0
M  ISO  4  13 100  21 100  59 101  60 101
M  END
>  <TORSDO>  (39) 
F 30

>  <SCORE>  (39) 
-4.110

>  <name>  (39) 
42

>  <ligand_id>  (39) 
42

>  <original_smiles>  (39) 
[H]C(C(=O)N([H])C([H])([H])C([H])([H])C([H])([H])C([H])([H])C([H])([H])[N+]([H])([H])C([H])([H])C([H])([H])OC([H])([H])C([H])([H])C([H])([H])N([H])C(=O)N1C([H])([H])C([H])([H])C([H])([H])C([H])(n2nc(-c3c([H])c([H])c(Oc4c([H])c([H])c(F)c([H])c4F)c([H])c3[H])c(C(=O)N([H])[H])c2N([H])[H])C1([H])[H])=C([H])C([H])([H])Oc1c([H])c([H])c2c(c1[H])C([H])([H])N(C(=O)C([H])(N([H])C(=O)C([H])(N([H])C([H])([H])[H])C([H])([H])[H])C(C([H])([H])[H])(C([H])([H])[H])C([H])([H])[H])C([H])(C(=O)N([H])C1([H])c3c([H])c([H])c([H])c([H])c3C([H])([H])C([H])([H])C1([H])[H])C2([H])[H]

>  <smiles>  (39) 
[H]C(C(=O)N([H])C([H])([H])C([H])([H])C([H])([H])C([H])([H])C([H])([H])[N+]([H])([H])C([H])([H])C([H])([H])OC([H])([H])C([H])([H])C([H])([H])N([H])C(=O)N1C([H])([H])C([H])([H])C([H])([H])C([H])(n2nc(-c3c([H])c([H])c(Oc4c([H])c([H])c(F)c([H])c4F)c([H])c3[H])c(C(=O)N([H])[H])c2N([H])[H])C1([H])[H])=C([H])C([H])([H])Oc1c([H])c([H])c2c(c1[H])C([H])([H])N(C(=O)C([H])(N([H])C(=O)C([H])(N([H])C([H])([H])[H])C([H])([H])[H])C(C([H])([H])[H])(C([H])([H])[H])C([H])([H])[H])C([H])(C(=O)N([H])C1([H])c3c([H])c([H])c([H])c([H])c3C([H])([H])C([H])([H])C1([H])[H])C2([H])[H]

$$$$
43:0:0
     RDKit          3D

103109  0  0  1  0  0  0  0  0999 V2000
  -24.5370  -19.8680   18.6190 C   0  0  0  0  0  0  0  0  0  0  0  0
  -23.6540  -20.8710   18.4620 N   0  0  0  0  0  0  0  0  0  0  0  0
  -24.2670  -18.7800   19.1350 O   0  0  0  0  0  0  0  0  0  0  0  0
  -24.0140  -21.6820   17.9730 H   0  0  0  0  0  0  0  0  0  0  0  0
  -25.9930  -20.1820   18.1180 C   0  0  0  0  0  0  0  0  0  0  0  0
  -26.8390  -19.1370   18.0470 N   0  0  0  0  0  0  0  0  0  0  0  0
  -26.3220  -21.3440   17.8550 O   0  0  0  0  0  0  0  0  0  0  0  0
  -26.4450  -18.2490   18.3230 H   0  0  0  0  0  0  0  0  0  0  0  0
  -28.2730  -19.1680   17.6850 C   0  0  0  0  0  3  0  0  0  0  0  0
  -29.0180  -20.1530   18.6170 C   0  0  0  0  0  0  0  0  0  0  0  0
  -28.8080  -21.4460   18.4220 N   0  0  0  0  0  0  0  0  0  0  0  0
  -29.7620  -19.7730   19.5210 O   0  0  0  0  0  0  0  0  0  0  0  0
  -28.1050  -21.7260   17.7440 H   0  0  0  0  0  0  0  0  0  0  0  0
  -29.3000  -22.1420   18.9620 H   0  0  0  0  0  0  0  0  0  0  0  0
  -28.8630  -17.7340   17.8160 C   0  0  0  0  0  2  0  0  0  0  0  0
  -30.3950  -17.5740   18.0770 C   0  0  0  0  0  2  0  0  0  0  0  0
  -31.4800  -15.3160   18.6030 C   0  0  0  0  0  0  0  0  0  0  0  0
  -31.3770  -12.8630   18.4330 C   0  0  0  0  0  2  0  0  0  0  0  0
  -30.3240  -12.5700   17.3430 C   0  0  0  0  0  2  0  0  0  0  0  0
  -28.8930  -12.5550   17.9290 C   0  0  0  0  0  2  0  0  0  0  0  0
  -28.5950  -13.7830   18.8280 C   0  0  0  0  0  3  0  0  0  0  0  0
  -29.7500  -13.9890   19.8370 C   0  0  0  0  0  2  0  0  0  0  0  0
  -31.0010  -14.1340   19.0660 N   0  0  0  0  0  0  0  0  0  0  0  0
  -32.5040  -15.4400   17.9230 O   0  0  0  0  0  0  0  0  0  0  0  0
  -30.5990  -16.3130   18.7890 N   0  0  0  0  0  0  0  0  0  0  0  0
  -29.8330  -16.0360   19.3830 H   0  0  0  0  0  0  0  0  0  0  0  0
  -26.5050  -14.6450   20.0670 C   0  0  0  0  0  0  0  0  0  0  0  0
  -25.3840  -14.0010   20.5140 C   0  0  0  0  0  0  0  0  0  0  0  0
  -25.5530  -12.6270   20.1650 C   0  0  0  0  0  0  0  0  0  0  0  0
  -27.3060  -13.6620   19.5020 N   0  0  0  0  0  0  0  0  0  0  0  0
  -26.7380  -12.4340   19.6050 N   0  0  0  0  0  0  0  0  0  0  0  0
  -24.6290  -11.4940   20.2780 C   0  0  0  0  0  0  0  0  0  0  0  0
  -24.9940  -10.3110   20.9570 C   0  0  0  0  0  3  0  0  0  0  0  0
  -24.0780   -9.2430   21.0730 C   0  0  0  0  0  3  0  0  0  0  0  0
  -22.7850   -9.3550   20.5080 C   0  0  0  0  0  0  0  0  0  0  0  0
  -22.4360  -10.5260   19.8110 C   0  0  0  0  0  3  0  0  0  0  0  0
  -23.3510  -11.5840   19.6910 C   0  0  0  0  0  3  0  0  0  0  0  0
  -21.8380   -8.3590   20.5440 O   0  0  0  0  0  0  0  0  0  0  0  0
  -21.7270   -7.5130   21.6170 C   0  0  0  0  0  0  0  0  0  0  0  0
  -21.4870   -7.9930   22.9230 C   0  0  0  0  0  3  0  0  0  0  0  0
  -21.3070   -7.0850   23.9840 C   0  0  0  0  0  3  0  0  0  0  0  0
  -21.3620   -5.6990   23.7430 C   0  0  0  0  0  0  0  0  0  0  0  0
  -21.5980   -5.2190   22.4420 C   0  0  0  0  0  3  0  0  0  0  0  0
  -21.7750   -6.1240   21.3820 C   0  0  0  0  0  0  0  0  0  0  0  0
  -21.9770   -5.6560   20.1260 F   0  0  0  0  0  0  0  0  0  0  0  0
  -21.1830   -4.8250   24.7620 F   0  0  0  0  0  0  0  0  0  0  0  0
  -24.1770  -14.6380   21.1410 C   0  0  0  0  0  0  0  0  0  0  0  0
  -23.4950  -13.9180   22.0270 N   0  0  0  0  0  0  0  0  0  0  0  0
  -23.8600  -15.7990   20.8800 O   0  0  0  0  0  0  0  0  0  0  0  0
  -23.7670  -12.9730   22.2520 H   0  0  0  0  0  0  0  0  0  0  0  0
  -22.6880  -14.3130   22.4900 H   0  0  0  0  0  0  0  0  0  0  0  0
  -26.8840  -15.9820   20.0710 N   0  0  0  0  0  0  0  0  0  0  0  0
  -26.1770  -16.6840   20.2700 H   0  0  0  0  0  0  0  0  0  0  0  0
  -27.6430  -16.3340   19.5030 H   0  0  0  0  0  0  0  0  0  0  0  0
  -22.2590  -20.9070   18.9310 C   0  0  0  0  0  2  0  0  0  0  0  0
  -21.9160  -22.1750   19.7590 C   0  0  0  0  0  2  0  0  0  0  0  0
  -20.6870  -22.7890   19.3460 O   0  0  0  0  0  0  0  0  0  0  0  0
  -19.6730  -22.8820   20.3630 C   0  0  0  0  0  2  0  0  0  0  0  0
  -18.5060  -23.8670   20.0230 C   0  0  0  0  0  2  0  0  0  0  0  0
  -18.8800  -25.2300   20.2870 O   0  0  0  0  0  0  0  0  0  0  0  0
  -18.7930  -26.3320   19.2870 C   0  0  0  0  0  3  0  0  0  0  0  0
  -21.2560  -27.3250   17.7180 C   0  0  0  0  0  1  0  0  0  0  0  0
  -23.2270  -26.7850   18.0550 O   0  0  0  0  0  1  0  0  0  0  0  0
  -24.0920  -28.5440   22.9440 C   0  0  0  0  0  0  0  0  0  0  0  0
  -24.7700  -26.8700   17.8590 C   0  0  0  0  0  3  0  0  0  0  0  0
  -23.1750  -29.0940   20.7730 C   0  0  0  0  0  3  0  0  0  0  0  0
  -24.7200  -29.1580   18.6980 C   0  0  0  0  0  3  0  0  0  0  0  0
  -25.6540  -28.6970   20.9780 C   0  0  0  0  0  2  0  0  0  0  0  0
  -25.5310  -28.3520   19.5040 C   0  0  0  0  0  3  0  0  0  0  0  0
  -25.6980  -27.0640   18.9700 C   0  0  0  0  0  2  0  0  0  0  0  0
  -25.1600  -27.6850   16.8210 C   0  0  0  0  0  2  0  0  0  0  0  0
  -24.6810  -28.9110   17.2910 C   0  0  0  0  0  2  0  0  0  0  0  0
  -23.5760  -29.8010   19.4200 C   0  0  0  0  0  2  0  0  0  0  0  0
  -24.3330  -28.8130   21.6310 N   0  0  0  0  0  0  0  0  0  0  0  0
  -22.9490  -28.6270   23.4290 O   0  0  0  0  0  0  0  0  0  0  0  0
  -22.4240  -27.7460   20.7010 C   0  0  0  0  0  0  0  0  0  0  0  0
  -21.1750  -27.7720   21.0070 N   0  0  0  0  0  0  0  0  0  0  0  0
  -22.9320  -26.6650   20.4330 O   0  0  0  0  0  0  0  0  0  0  0  0
  -20.7590  -28.6320   21.3360 H   0  0  0  0  0  0  0  0  0  0  0  0
  -17.7480  -28.0940   21.1510 C   0  0  0  0  0  0  0  0  0  0  0  0
  -20.2780  -26.7310   20.5810 C   0  0  0  0  0  2  0  0  0  0  0  0
  -19.9610  -26.1100   18.5490 C   0  0  0  0  0  2  0  0  0  0  0  0
  -18.1670  -27.2840   17.9290 C   0  0  0  0  0  2  0  0  0  0  0  0
  -17.3780  -28.2950   19.4150 C   0  0  0  0  0  2  0  0  0  0  0  0
  -19.0600  -27.4900   21.6120 C   0  0  0  0  0  0  0  0  0  0  0  0
  -19.2180  -27.2860   23.0270 C   0  0  0  0  0  3  0  0  0  0  0  0
  -18.1960  -27.4600   23.9960 C   0  0  0  0  0  3  0  0  0  0  0  0
  -16.9030  -27.7790   23.5570 C   0  0  0  0  0  3  0  0  0  0  0  0
  -16.6930  -28.0680   22.1730 C   0  0  0  0  0  3  0  0  0  0  0  0
  -25.2400  -28.1460   23.8900 C   0  0  0  0  0  3  0  0  0  0  0  0
  -25.2200  -29.1380   24.9680 N   0  0  0  0  0  0  0  0  0  0  0  0
  -26.0570  -30.1770   25.0420 C   0  0  0  0  0  0  0  0  0  0  0  0
  -26.9980  -30.3370   24.2600 O   0  0  0  0  0  0  0  0  0  0  0  0
  -24.4470  -29.0930   25.6160 H   0  0  0  0  0  0  0  0  0  0  0  0
  -25.2300  -32.4900   25.5980 C   0  0  0  0  0  1  0  0  0  0  0  0
  -25.8190  -31.1930   26.1750 C   0  0  0  0  0  3  0  0  0  0  0  0
  -27.5250  -30.3710   27.7380 C   0  0  0  0  0  1  0  0  0  0  0  0
  -27.0410  -31.4990   26.9460 N   0  0  0  0  0  0  0  0  0  0  0  0
  -26.8820  -32.2820   27.5760 H   0  0  0  0  0  0  0  0  0  0  0  0
  -25.1000  -26.6870   24.4610 C   0  0  1  0  0  0  0  0  0  0  0  0
  -23.7190  -26.3760   25.0820 C   0  0  0  0  0  1  0  0  0  0  0  0
  -25.3640  -25.6350   23.3600 C   0  0  0  0  0  1  0  0  0  0  0  0
  -26.1810  -26.4710   25.5460 C   0  0  0  0  0  1  0  0  0  0  0  0
  1  3  2  0
  2  1  1  0
  2 55  1  0
  4  2  1  0
  5  1  1  0
  6  5  1  0
  6  8  1  0
  7  5  2  0
  9 15  1  0
  9  6  1  0
  9 10  1  0
 10 12  2  0
 11 10  1  0
 11 14  1  0
 13 11  1  0
 15 16  1  0
 16 25  1  0
 17 25  1  0
 17 23  1  0
 18 23  1  0
 19 20  1  0
 19 18  1  0
 21 20  1  0
 21 30  1  0
 21 22  1  0
 23 22  1  0
 24 17  2  0
 25 26  1  0
 27 52  1  0
 27 28  2  0
 28 47  1  0
 29 32  1  0
 29 28  1  0
 30 31  1  0
 30 27  1  0
 31 29  2  0
 32 33  1  0
 33 34  2  0
 35 38  1  0
 35 34  1  0
 36 35  2  0
 37 36  1  0
 37 32  2  0
 38 39  1  0
 39 40  1  0
 40 41  2  0
 42 41  1  0
 42 46  1  0
 43 42  2  0
 44 39  2  0
 44 43  1  0
 45 44  1  0
 47 48  1  0
 48 50  1  0
 48 51  1  0
 49 47  2  0
 52 53  1  0
 54 52  1  0
 55 56  1  0
 57 56  1  0
 57 58  1  0
 59 60  1  0
 59 58  1  0
 61 83  1  0
 61 60  1  0
 62 82  1  0
 64 75  2  0
 65 63  1  0
 65 70  1  0
 66 76  1  0
 66 74  1  0
 67 72  1  0
 67 73  1  0
 67 69  1  0
 68 74  1  0
 69 70  1  0
 69 68  1  0
 71 72  1  0
 71 65  1  0
 73 66  1  0
 74 64  1  0
 76 77  1  0
 77 79  1  0
 78 76  2  0
 80 85  2  0
 80 89  1  0
 81 77  1  0
 81 85  1  0
 82 61  1  0
 83 84  1  0
 84 80  1  0
 85 86  1  0
 86 87  2  0
 88 87  1  0
 89 88  2  0
 90 64  1  0
 90100  1  0
 90 91  1  0
 91 92  1  0
 91 94  1  0
 92 96  1  0
 93 92  2  0
 96 95  1  0
 96 98  1  0
 98 99  1  0
 98 97  1  0
100101  1  1
100103  1  0
102100  1  0
M  ISO  4  17 100  25 100  62 101  63 101
M  END
>  <TORSDO>  (40) 
F 29

>  <SCORE>  (40) 
1.553

>  <name>  (40) 
43

>  <ligand_id>  (40) 
43

>  <original_smiles>  (40) 
[H]c1c([H])c([H])c2c(c1[H])C([H])([H])C([H])([H])C([H])([H])C2([H])N([H])C(=O)C1([H])N(C(=O)C([H])(N([H])C(=O)C([H])(N([H])C([H])([H])[H])C([H])([H])[H])C(C([H])([H])[H])(C([H])([H])[H])C([H])([H])[H])C([H])([H])c2c([H])c(OC([H])([H])C([H])([H])OC([H])([H])C([H])([H])OC([H])([H])C([H])([H])N([H])C(=O)C(=O)N([H])C([H])(C(=O)N([H])[H])C([H])([H])C([H])([H])N([H])C(=O)N3C([H])([H])C([H])([H])C([H])([H])C([H])(n4nc(-c5c([H])c([H])c(Oc6c([H])c([H])c(F)c([H])c6F)c([H])c5[H])c(C(=O)N([H])[H])c4N([H])[H])C3([H])[H])c([H])c([H])c2C1([H])[H]

>  <smiles>  (40) 
[H]c1c([H])c([H])c2c(c1[H])C([H])([H])C([H])([H])C([H])([H])C2([H])N([H])C(=O)C1([H])N(C(=O)C([H])(N([H])C(=O)C([H])(N([H])C([H])([H])[H])C([H])([H])[H])C(C([H])([H])[H])(C([H])([H])[H])C([H])([H])[H])C([H])([H])c2c([H])c(OC([H])([H])C([H])([H])OC([H])([H])C([H])([H])OC([H])([H])C([H])([H])N([H])C(=O)C(=O)N([H])C([H])(C(=O)N([H])[H])C([H])([H])C([H])([H])N([H])C(=O)N3C([H])([H])C([H])([H])C([H])([H])C([H])(n4nc(-c5c([H])c([H])c(Oc6c([H])c([H])c(F)c([H])c6F)c([H])c5[H])c(C(=O)N([H])[H])c4N([H])[H])C3([H])[H])c([H])c([H])c2C1([H])[H]

$$$$
44:0:0
     RDKit          3D

105112  0  0  1  0  0  0  0  0999 V2000
  -24.5820  -25.1310   28.9870 C   0  0  0  0  0  2  0  0  0  0  0  0
  -24.6630  -26.1090   30.1740 C   0  0  0  0  0  2  0  0  0  0  0  0
  -24.1310  -27.5100   29.8370 C   0  0  0  0  0  2  0  0  0  0  0  0
  -24.6610  -27.9950   28.6050 O   0  0  0  0  0  0  0  0  0  0  0  0
  -23.8050  -28.9550   27.9890 C   0  0  0  0  0  2  0  0  0  0  0  0
  -24.5970  -29.8400   27.0290 C   0  0  0  0  0  2  0  0  0  0  0  0
  -24.6680  -29.3740   25.6210 N   0  0  0  0  0  4  0  0  0  0  0  0
  -25.4500  -28.7440   25.5340 H   0  0  0  0  0  0  0  0  0  0  0  0
  -23.8260  -28.8790   25.3690 H   0  0  0  0  0  0  0  0  0  0  0  0
  -24.8210  -30.5490   24.7320 C   0  0  0  0  0  2  0  0  0  0  0  0
  -24.8900  -30.3020   23.2150 C   0  0  0  0  0  2  0  0  0  0  0  0
  -24.6930  -31.6050   22.3870 C   0  0  0  0  0  2  0  0  0  0  0  0
  -25.7780  -32.5450   22.4630 O   0  0  0  0  0  0  0  0  0  0  0  0
  -30.5350  -32.4260   27.7020 C   0  0  0  0  0  0  0  0  0  0  0  0
  -26.0900  -33.0560   23.7060 C   0  0  0  0  0  0  0  0  0  0  0  0
  -28.3480  -33.4330   28.2770 C   0  0  0  0  0  3  0  0  0  0  0  0
  -26.8000  -33.9070   26.3050 C   0  0  0  0  0  0  0  0  0  0  0  0
  -29.2310  -33.5080   25.8750 C   0  0  0  0  0  2  0  0  0  0  0  0
  -27.7920  -33.5020   25.4050 C   0  0  0  0  0  0  0  0  0  0  0  0
  -27.4430  -33.0880   24.1010 C   0  0  0  0  0  3  0  0  0  0  0  0
  -25.0970  -33.4870   24.6160 C   0  0  0  0  0  3  0  0  0  0  0  0
  -25.4490  -33.8990   25.9160 C   0  0  0  0  0  3  0  0  0  0  0  0
  -27.2540  -34.3540   27.6760 C   0  0  0  0  0  2  0  0  0  0  0  0
  -29.4110  -33.0750   27.2820 N   0  0  0  0  0  0  0  0  0  0  0  0
  -30.7140  -32.1660   28.9010 O   0  0  0  0  0  0  0  0  0  0  0  0
  -27.6610  -32.2030   28.9080 C   0  0  0  0  0  0  0  0  0  0  0  0
  -27.5980  -32.1700   30.2490 N   0  0  0  0  0  0  0  0  0  0  0  0
  -27.1750  -31.3220   28.1980 O   0  0  0  0  0  0  0  0  0  0  0  0
  -28.0300  -32.9260   30.7630 H   0  0  0  0  0  0  0  0  0  0  0  0
  -27.1330  -30.9860   33.6260 C   0  0  0  0  0  0  0  0  0  0  0  0
  -26.9650  -31.1260   31.0500 C   0  0  0  0  0  3  0  0  0  0  0  0
  -25.4650  -31.4290   31.2640 C   0  0  0  0  0  2  0  0  0  0  0  0
  -25.1840  -32.2020   32.5560 C   0  0  0  0  0  2  0  0  0  0  0  0
  -25.6800  -31.4140   33.7730 C   0  0  0  0  0  2  0  0  0  0  0  0
  -27.7390  -30.8670   32.3470 C   0  0  0  0  0  0  0  0  0  0  0  0
  -29.1000  -30.5040   32.2650 C   0  0  0  0  0  3  0  0  0  0  0  0
  -29.8520  -30.2580   33.4290 C   0  0  0  0  0  3  0  0  0  0  0  0
  -29.2440  -30.3620   34.6910 C   0  0  0  0  0  3  0  0  0  0  0  0
  -27.8870  -30.7200   34.7870 C   0  0  0  0  0  3  0  0  0  0  0  0
  -31.6580  -32.0030   26.7010 C   0  0  0  0  0  3  0  0  0  0  0  0
  -32.8960  -31.8310   27.4720 N   0  0  0  0  0  0  0  0  0  0  0  0
  -33.7590  -32.8180   27.7540 C   0  0  0  0  0  0  0  0  0  0  0  0
  -33.6260  -33.9680   27.3250 O   0  0  0  0  0  0  0  0  0  0  0  0
  -33.0390  -30.9290   27.9010 H   0  0  0  0  0  0  0  0  0  0  0  0
  -34.5780  -32.7110   30.1280 C   0  0  0  0  0  1  0  0  0  0  0  0
  -34.9590  -32.4760   28.6570 C   0  0  0  0  0  3  0  0  0  0  0  0
  -36.8140  -32.8130   27.0860 C   0  0  0  0  0  1  0  0  0  0  0  0
  -36.1820  -33.2420   28.3300 N   0  0  0  0  0  0  0  0  0  0  0  0
  -36.8640  -33.1700   29.0810 H   0  0  0  0  0  0  0  0  0  0  0  0
  -31.3140  -30.6890   25.8950 C   0  0  1  0  0  0  0  0  0  0  0  0
  -30.8480  -29.5200   26.7920 C   0  0  0  0  0  1  0  0  0  0  0  0
  -30.1990  -30.9620   24.8590 C   0  0  0  0  0  1  0  0  0  0  0  0
  -32.5550  -30.2250   25.0970 C   0  0  0  0  0  1  0  0  0  0  0  0
  -25.5160  -25.5110   27.8280 C   0  0  0  0  0  2  0  0  0  0  0  0
  -24.9880  -25.0740   26.4500 C   0  0  0  0  0  2  0  0  0  0  0  0
  -25.1270  -26.1750   25.4770 N   0  0  0  0  0  4  0  0  0  0  0  0
  -26.0950  -26.2630   25.2130 H   0  0  0  0  0  0  0  0  0  0  0  0
  -24.8630  -27.0230   25.9490 H   0  0  0  0  0  0  0  0  0  0  0  0
  -24.2950  -26.0610   24.2630 C   0  0  0  0  0  2  0  0  0  0  0  0
  -23.6390  -27.4150   23.9460 C   0  0  0  0  0  2  0  0  0  0  0  0
  -22.4110  -27.3170   23.0300 C   0  0  0  0  0  2  0  0  0  0  0  0
  -21.4190  -28.4480   23.3150 C   0  0  0  0  0  2  0  0  0  0  0  0
  -20.1380  -28.0880   22.8290 O   0  0  0  0  0  0  0  0  0  0  0  0
  -19.1220  -28.8950   23.4020 C   0  0  0  0  0  2  0  0  0  0  0  0
  -17.7570  -28.3630   22.9700 C   0  0  0  0  0  2  0  0  0  0  0  0
  -16.6140  -29.1640   23.6090 C   0  0  0  0  0  2  0  0  0  0  0  0
  -15.2300  -28.6920   23.1610 C   0  0  0  0  0  2  0  0  0  0  0  0
  -14.6210  -27.0390   24.9130 C   0  0  0  0  0  0  0  0  0  0  0  0
  -12.6630  -25.9400   25.8890 C   0  0  0  0  0  2  0  0  0  0  0  0
  -12.9340  -24.9220   27.0020 C   0  0  0  0  0  2  0  0  0  0  0  0
  -13.2090  -23.5360   26.3990 C   0  0  0  0  0  2  0  0  0  0  0  0
  -14.3050  -23.5770   25.3040 C   0  0  0  0  0  3  0  0  0  0  0  0
  -14.0250  -24.6900   24.2680 C   0  0  0  0  0  2  0  0  0  0  0  0
  -13.8040  -25.9660   24.9720 N   0  0  0  0  0  0  0  0  0  0  0  0
  -14.7800  -27.8460   25.8360 O   0  0  0  0  0  0  0  0  0  0  0  0
  -14.9260  -27.3490   23.6500 N   0  0  0  0  0  0  0  0  0  0  0  0
  -14.6700  -26.6580   22.9570 H   0  0  0  0  0  0  0  0  0  0  0  0
  -15.5430  -21.7520   23.9710 C   0  0  0  0  0  0  0  0  0  0  0  0
  -15.2050  -20.4620   23.6560 C   0  0  0  0  0  0  0  0  0  0  0  0
  -13.9020  -20.2510   24.2000 C   0  0  0  0  0  0  0  0  0  0  0  0
  -14.4610  -22.2690   24.6680 N   0  0  0  0  0  0  0  0  0  0  0  0
  -13.4490  -21.3670   24.7580 N   0  0  0  0  0  0  0  0  0  0  0  0
  -13.0820  -19.0340   24.2720 C   0  0  0  0  0  0  0  0  0  0  0  0
  -11.7270  -19.0320   23.8730 C   0  0  0  0  0  3  0  0  0  0  0  0
  -10.9650  -17.8450   23.9350 C   0  0  0  0  0  3  0  0  0  0  0  0
  -11.5560  -16.6450   24.3940 C   0  0  0  0  0  0  0  0  0  0  0  0
  -12.8980  -16.6580   24.8120 C   0  0  0  0  0  3  0  0  0  0  0  0
  -13.6540  -17.8410   24.7550 C   0  0  0  0  0  3  0  0  0  0  0  0
  -10.8850  -15.4510   24.5130 O   0  0  0  0  0  0  0  0  0  0  0  0
   -9.7250  -15.2070   23.8220 C   0  0  0  0  0  0  0  0  0  0  0  0
   -9.6700  -15.2630   22.4130 C   0  0  0  0  0  3  0  0  0  0  0  0
   -8.4760  -14.9360   21.7410 C   0  0  0  0  0  3  0  0  0  0  0  0
   -7.3400  -14.5440   22.4740 C   0  0  0  0  0  0  0  0  0  0  0  0
   -7.3940  -14.4800   23.8770 C   0  0  0  0  0  3  0  0  0  0  0  0
   -8.5850  -14.8080   24.5490 C   0  0  0  0  0  0  0  0  0  0  0  0
   -8.6380  -14.7240   25.9000 F   0  0  0  0  0  0  0  0  0  0  0  0
   -6.1940  -14.2210   21.8280 F   0  0  0  0  0  0  0  0  0  0  0  0
  -16.0790  -19.4510   22.9710 C   0  0  0  0  0  0  0  0  0  0  0  0
  -15.4830  -18.5510   22.1950 N   0  0  0  0  0  0  0  0  0  0  0  0
  -17.3030  -19.4840   23.0820 O   0  0  0  0  0  0  0  0  0  0  0  0
  -14.4800  -18.5370   22.0870 H   0  0  0  0  0  0  0  0  0  0  0  0
  -16.0400  -17.8660   21.7030 H   0  0  0  0  0  0  0  0  0  0  0  0
  -16.6800  -22.5190   23.7410 N   0  0  0  0  0  0  0  0  0  0  0  0
  -17.5030  -22.1490   23.2770 H   0  0  0  0  0  0  0  0  0  0  0  0
  -16.8030  -23.4720   24.0630 H   0  0  0  0  0  0  0  0  0  0  0  0
  1  2  1  0
  3  2  1  0
  4  3  1  0
  5  4  1  0
  6  5  1  0
  7  6  1  0
  8  7  1  0
  9  7  1  0
 10  7  1  0
 11 10  1  0
 12 13  1  0
 12 11  1  0
 13 15  1  0
 14 25  2  0
 15 20  2  0
 15 21  1  0
 16 26  1  0
 17 23  1  0
 18 24  1  0
 19 18  1  0
 19 17  2  0
 20 19  1  0
 21 22  2  0
 22 17  1  0
 23 16  1  0
 24 14  1  0
 24 16  1  0
 26 27  1  0
 27 29  1  0
 28 26  2  0
 30 34  1  0
 30 39  1  0
 31 27  1  0
 31 32  1  0
 31 35  1  0
 32 33  1  0
 33 34  1  0
 35 30  2  0
 36 35  1  0
 36 37  2  0
 37 38  1  0
 38 39  2  0
 40 41  1  0
 40 14  1  0
 41 42  1  0
 41 44  1  0
 42 46  1  0
 43 42  2  0
 46 45  1  0
 47 48  1  0
 48 46  1  0
 48 49  1  0
 50 40  1  0
 50 51  1  1
 52 50  1  0
 53 50  1  0
 54  1  1  0
 55 54  1  0
 56 58  1  0
 56 55  1  0
 57 56  1  0
 59 56  1  0
 60 59  1  0
 61 62  1  0
 61 60  1  0
 63 62  1  0
 63 64  1  0
 65 64  1  0
 65 66  1  0
 67 66  1  0
 67 76  1  0
 68 74  1  0
 68 75  2  0
 69 70  1  0
 71 70  1  0
 72 73  1  0
 72 71  1  0
 73 74  1  0
 74 69  1  0
 76 68  1  0
 77 76  1  0
 78 81  1  0
 79 78  2  0
 79 80  1  0
 80 83  1  0
 80 82  2  0
 81 82  1  0
 81 72  1  0
 83 88  1  0
 84 85  1  0
 84 83  2  0
 85 86  2  0
 86 89  1  0
 86 87  1  0
 88 87  2  0
 90 89  1  0
 90 95  1  0
 91 90  2  0
 92 91  1  0
 92 93  2  0
 93 94  1  0
 94 95  2  0
 95 96  1  0
 97 93  1  0
 98100  2  0
 98 79  1  0
 99 98  1  0
101 99  1  0
102 99  1  0
103 78  1  0
103105  1  0
104103  1  0
M  ISO  4  12 101  13 101  68 100  76 100
M  END
>  <TORSDO>  (41) 
F 37

>  <SCORE>  (41) 
0.029

>  <name>  (41) 
44

>  <ligand_id>  (41) 
44

>  <original_smiles>  (41) 
[H]c1c([H])c([H])c2c(c1[H])C([H])([H])C([H])([H])C([H])([H])C2([H])N([H])C(=O)C1([H])N(C(=O)C([H])(N([H])C(=O)C([H])(N([H])C([H])([H])[H])C([H])([H])[H])C(C([H])([H])[H])(C([H])([H])[H])C([H])([H])[H])C([H])([H])c2c([H])c(OC([H])([H])C([H])([H])C([H])([H])[N+]([H])([H])C([H])([H])C([H])([H])OC([H])([H])C([H])([H])C([H])([H])C([H])([H])C([H])([H])[N+]([H])([H])C([H])([H])C([H])([H])C([H])([H])C([H])([H])OC([H])([H])C([H])([H])C([H])([H])C([H])([H])N([H])C(=O)N3C([H])([H])C([H])([H])C([H])([H])C([H])(n4nc(-c5c([H])c([H])c(Oc6c([H])c([H])c(F)c([H])c6F)c([H])c5[H])c(C(=O)N([H])[H])c4N([H])[H])C3([H])[H])c([H])c([H])c2C1([H])[H]

>  <smiles>  (41) 
[H]c1c([H])c([H])c2c(c1[H])C([H])([H])C([H])([H])C([H])([H])C2([H])N([H])C(=O)C1([H])N(C(=O)C([H])(N([H])C(=O)C([H])(N([H])C([H])([H])[H])C([H])([H])[H])C(C([H])([H])[H])(C([H])([H])[H])C([H])([H])[H])C([H])([H])c2c([H])c(OC([H])([H])C([H])([H])C([H])([H])[N+]([H])([H])C([H])([H])C([H])([H])OC([H])([H])C([H])([H])C([H])([H])C([H])([H])C([H])([H])[N+]([H])([H])C([H])([H])C([H])([H])C([H])([H])C([H])([H])OC([H])([H])C([H])([H])C([H])([H])C([H])([H])N([H])C(=O)N3C([H])([H])C([H])([H])C([H])([H])C([H])(n4nc(-c5c([H])c([H])c(Oc6c([H])c([H])c(F)c([H])c6F)c([H])c5[H])c(C(=O)N([H])[H])c4N([H])[H])C3([H])[H])c([H])c([H])c2C1([H])[H]

$$$$
45:0:0
     RDKit          3D

 99106  0  0  1  0  0  0  0  0999 V2000
  -30.8330  -22.3490   19.4530 C   0  0  0  0  0  3  0  0  0  0  0  0
  -30.2070  -21.9550   18.0960 C   0  0  0  0  0  0  0  0  0  0  0  0
  -28.9540  -21.4900   18.0410 N   0  0  0  0  0  0  0  0  0  0  0  0
  -30.8600  -22.0640   17.0590 O   0  0  0  0  0  0  0  0  0  0  0  0
  -28.6260  -21.2290   17.1210 H   0  0  0  0  0  0  0  0  0  0  0  0
  -27.9680  -21.3770   19.1160 C   0  0  0  0  0  2  0  0  0  0  0  0
  -28.1150  -20.1340   20.0270 C   0  0  0  0  0  2  0  0  0  0  0  0
  -28.9490  -18.9600   19.4770 C   0  0  0  0  0  2  0  0  0  0  0  0
  -28.8470  -17.6970   20.3580 C   0  0  0  0  0  2  0  0  0  0  0  0
  -30.1170  -16.8340   20.3300 C   0  0  0  0  0  2  0  0  0  0  0  0
  -30.6390  -14.4430   20.4810 C   0  0  0  0  0  0  0  0  0  0  0  0
  -30.3360  -12.2960   19.3480 C   0  0  0  0  0  2  0  0  0  0  0  0
  -29.4040  -12.5580   18.1470 C   0  0  0  0  0  2  0  0  0  0  0  0
  -27.9260  -12.4390   18.5700 C   0  0  0  0  0  2  0  0  0  0  0  0
  -27.5990  -13.2550   19.8520 C   0  0  0  0  0  3  0  0  0  0  0  0
  -28.6490  -12.9850   20.9550 C   0  0  0  0  0  2  0  0  0  0  0  0
  -29.9790  -13.2620   20.3910 N   0  0  0  0  0  0  0  0  0  0  0  0
  -31.7820  -14.6230   20.0550 O   0  0  0  0  0  0  0  0  0  0  0  0
  -29.8530  -15.4770   20.7950 N   0  0  0  0  0  0  0  0  0  0  0  0
  -28.9150  -15.2530   21.0930 H   0  0  0  0  0  0  0  0  0  0  0  0
  -25.2020  -13.8800   20.5410 C   0  0  0  0  0  0  0  0  0  0  0  0
  -24.1290  -13.1120   20.9140 C   0  0  0  0  0  0  0  0  0  0  0  0
  -24.5820  -11.7590   20.8830 C   0  0  0  0  0  0  0  0  0  0  0  0
  -26.2430  -12.9910   20.3200 N   0  0  0  0  0  0  0  0  0  0  0  0
  -25.8730  -11.7110   20.5820 N   0  0  0  0  0  0  0  0  0  0  0  0
  -23.8490  -10.5020   21.0740 C   0  0  0  0  0  0  0  0  0  0  0  0
  -24.2920   -9.5280   21.9940 C   0  0  0  0  0  3  0  0  0  0  0  0
  -23.5660   -8.3310   22.1750 C   0  0  0  0  0  3  0  0  0  0  0  0
  -22.3800   -8.1050   21.4390 C   0  0  0  0  0  0  0  0  0  0  0  0
  -21.9530   -9.0680   20.5070 C   0  0  0  0  0  3  0  0  0  0  0  0
  -22.6790  -10.2580   20.3250 C   0  0  0  0  0  3  0  0  0  0  0  0
  -21.6210   -6.9630   21.5350 O   0  0  0  0  0  0  0  0  0  0  0  0
  -21.6100   -6.2000   22.6750 C   0  0  0  0  0  0  0  0  0  0  0  0
  -21.2480   -6.7360   23.9320 C   0  0  0  0  0  3  0  0  0  0  0  0
  -21.1840   -5.8960   25.0620 C   0  0  0  0  0  3  0  0  0  0  0  0
  -21.4670   -4.5230   24.9360 C   0  0  0  0  0  0  0  0  0  0  0  0
  -21.8140   -3.9860   23.6830 C   0  0  0  0  0  3  0  0  0  0  0  0
  -21.8820   -4.8230   22.5560 C   0  0  0  0  0  0  0  0  0  0  0  0
  -22.2010   -4.2970   21.3490 F   0  0  0  0  0  0  0  0  0  0  0  0
  -21.3910   -3.7140   26.0190 F   0  0  0  0  0  0  0  0  0  0  0  0
  -22.7360  -13.5990   21.1800 C   0  0  0  0  0  0  0  0  0  0  0  0
  -21.9980  -12.9100   22.0470 N   0  0  0  0  0  0  0  0  0  0  0  0
  -22.3030  -14.6200   20.6530 O   0  0  0  0  0  0  0  0  0  0  0  0
  -22.3540  -12.0830   22.5020 H   0  0  0  0  0  0  0  0  0  0  0  0
  -21.0610  -13.2210   22.2560 H   0  0  0  0  0  0  0  0  0  0  0  0
  -25.3720  -15.2470   20.3610 N   0  0  0  0  0  0  0  0  0  0  0  0
  -24.6060  -15.9020   20.4730 H   0  0  0  0  0  0  0  0  0  0  0  0
  -26.2220  -15.6850   20.0300 H   0  0  0  0  0  0  0  0  0  0  0  0
  -30.4180  -24.1800   20.8610 C   0  0  0  0  0  3  0  0  0  0  0  0
  -30.6010  -23.7690   19.6730 N   0  0  0  0  0  0  0  0  0  0  0  0
  -30.2390  -25.6380   21.2320 C   0  0  0  0  0  2  0  0  0  0  0  0
  -28.7740  -26.0960   21.2980 C   0  0  0  0  0  2  0  0  0  0  0  0
  -28.4450  -26.7520   20.0820 O   0  0  0  0  0  0  0  0  0  0  0  0
  -24.6400  -31.8820   23.2430 C   0  0  0  0  0  0  0  0  0  0  0  0
  -27.2840  -27.4720   20.1420 C   0  0  0  0  0  0  0  0  0  0  0  0
  -23.4280  -30.4760   21.6050 C   0  0  0  0  0  3  0  0  0  0  0  0
  -24.8810  -28.9360   20.1810 C   0  0  0  0  0  0  0  0  0  0  0  0
  -25.9490  -30.8450   21.3950 C   0  0  0  0  0  2  0  0  0  0  0  0
  -26.0360  -29.4730   20.7640 C   0  0  0  0  0  0  0  0  0  0  0  0
  -27.2410  -28.7440   20.7510 C   0  0  0  0  0  3  0  0  0  0  0  0
  -26.1200  -26.9390   19.5590 C   0  0  0  0  0  3  0  0  0  0  0  0
  -24.9120  -27.6630   19.5840 C   0  0  0  0  0  3  0  0  0  0  0  0
  -23.6360  -29.7900   20.2270 C   0  0  0  0  0  2  0  0  0  0  0  0
  -24.6910  -31.0820   22.1400 N   0  0  0  0  0  0  0  0  0  0  0  0
  -23.5610  -32.1500   23.7900 O   0  0  0  0  0  0  0  0  0  0  0  0
  -22.7810  -29.4540   22.5680 C   0  0  0  0  0  0  0  0  0  0  0  0
  -21.4550  -29.2730   22.4490 N   0  0  0  0  0  0  0  0  0  0  0  0
  -23.4700  -28.8250   23.3760 O   0  0  0  0  0  0  0  0  0  0  0  0
  -20.9590  -29.8380   21.7740 H   0  0  0  0  0  0  0  0  0  0  0  0
  -18.0850  -28.0760   22.9480 C   0  0  0  0  0  0  0  0  0  0  0  0
  -20.6420  -28.3350   23.2220 C   0  0  0  0  0  3  0  0  0  0  0  0
  -20.7460  -26.9020   22.6500 C   0  0  0  0  0  2  0  0  0  0  0  0
  -19.6440  -26.5770   21.6350 C   0  0  0  0  0  2  0  0  0  0  0  0
  -18.2620  -26.7240   22.2780 C   0  0  0  0  0  2  0  0  0  0  0  0
  -19.2020  -28.8390   23.3770 C   0  0  0  0  0  0  0  0  0  0  0  0
  -18.9820  -30.1060   23.9600 C   0  0  0  0  0  3  0  0  0  0  0  0
  -17.6770  -30.6090   24.1190 C   0  0  0  0  0  3  0  0  0  0  0  0
  -16.5730  -29.8400   23.7080 C   0  0  0  0  0  3  0  0  0  0  0  0
  -16.7780  -28.5760   23.1270 C   0  0  0  0  0  3  0  0  0  0  0  0
  -25.9280  -32.5140   23.8550 C   0  0  0  0  0  3  0  0  0  0  0  0
  -26.4650  -31.7320   25.1170 C   0  0  1  0  0  0  0  0  0  0  0  0
  -25.3870  -31.4800   26.1960 C   0  0  0  0  0  1  0  0  0  0  0  0
  -27.0480  -30.3620   24.6990 C   0  0  0  0  0  1  0  0  0  0  0  0
  -27.6210  -32.5230   25.7740 C   0  0  0  0  0  1  0  0  0  0  0  0
  -25.6180  -33.9070   24.1990 N   0  0  0  0  0  0  0  0  0  0  0  0
  -25.9400  -34.9650   23.4460 C   0  0  0  0  0  0  0  0  0  0  0  0
  -26.6020  -34.8730   22.4070 O   0  0  0  0  0  0  0  0  0  0  0  0
  -25.0330  -34.0520   25.0090 H   0  0  0  0  0  0  0  0  0  0  0  0
  -24.2000  -36.7500   23.1200 C   0  0  0  0  0  1  0  0  0  0  0  0
  -25.4510  -36.3470   23.9170 C   0  0  0  0  0  3  0  0  0  0  0  0
  -27.5900  -37.2350   24.7280 C   0  0  0  0  0  1  0  0  0  0  0  0
  -26.4750  -37.4070   23.8000 N   0  0  0  0  0  0  0  0  0  0  0  0
  -26.0680  -38.3230   23.9630 H   0  0  0  0  0  0  0  0  0  0  0  0
  -32.3560  -22.0510   19.5080 C   0  0  0  0  0  2  0  0  0  0  0  0
  -32.6940  -20.5460   19.4060 C   0  0  0  0  0  2  0  0  0  0  0  0
  -34.1400  -20.2740   19.3730 N   0  0  0  0  0  4  0  0  0  0  0  0
  -34.5400  -20.5920   18.5090 H   0  0  0  0  0  0  0  0  0  0  0  0
  -34.2930  -19.2810   19.4350 H   0  0  0  0  0  0  0  0  0  0  0  0
  -34.6230  -20.7090   20.1380 H   0  0  0  0  0  0  0  0  0  0  0  0
  1 94  1  0
  1 50  1  0
  2  1  1  0
  3  2  1  0
  3  6  1  0
  4  2  2  0
  5  3  1  0
  6  7  1  0
  8  7  1  0
  8  9  1  0
 10  9  1  0
 10 19  1  0
 11 19  1  0
 12 17  1  0
 13 14  1  0
 13 12  1  0
 15 14  1  0
 15 24  1  0
 15 16  1  0
 17 11  1  0
 17 16  1  0
 18 11  2  0
 19 20  1  0
 21 22  2  0
 22 41  1  0
 23 22  1  0
 23 26  1  0
 24 21  1  0
 24 25  1  0
 25 23  2  0
 26 27  1  0
 27 28  2  0
 29 32  1  0
 29 28  1  0
 30 29  2  0
 31 30  1  0
 31 26  2  0
 32 33  1  0
 33 34  1  0
 34 35  2  0
 36 35  1  0
 36 40  1  0
 37 36  2  0
 38 33  2  0
 38 37  1  0
 39 38  1  0
 41 42  1  0
 42 45  1  0
 42 44  1  0
 43 41  2  0
 46 47  1  0
 46 21  1  0
 48 46  1  0
 49 51  1  0
 50 49  2  0
 51 52  1  0
 53 55  1  0
 53 52  1  0
 54 65  2  0
 55 60  1  0
 56 64  1  0
 56 66  1  0
 57 63  1  0
 57 59  1  0
 58 64  1  0
 59 58  1  0
 60 59  2  0
 61 62  1  0
 61 55  2  0
 62 57  2  0
 63 56  1  0
 64 54  1  0
 66 68  2  0
 67 66  1  0
 69 67  1  0
 70 79  2  0
 70 75  1  0
 71 67  1  0
 71 75  1  0
 72 71  1  0
 73 74  1  0
 73 72  1  0
 74 70  1  0
 75 76  2  0
 76 77  1  0
 78 77  2  0
 79 78  1  0
 80 54  1  0
 80 85  1  0
 80 81  1  0
 81 84  1  1
 81 82  1  0
 83 81  1  0
 85 88  1  0
 86 90  1  0
 86 85  1  0
 87 86  2  0
 90 89  1  0
 92 90  1  0
 92 93  1  0
 92 91  1  0
 95 94  1  0
 96 95  1  0
 96 98  1  0
 96 99  1  0
 97 96  1  0
M  ISO  4  11 100  19 100  52 101  53 101
M  END
>  <TORSDO>  (42) 
F 28

>  <SCORE>  (42) 
-11.632

>  <name>  (42) 
45

>  <ligand_id>  (42) 
45

>  <original_smiles>  (42) 
[H]C(=NC([H])(C(=O)N([H])C([H])([H])C([H])([H])C([H])([H])C([H])([H])C([H])([H])N([H])C(=O)N1C([H])([H])C([H])([H])C([H])([H])C([H])(n2nc(-c3c([H])c([H])c(Oc4c([H])c([H])c(F)c([H])c4F)c([H])c3[H])c(C(=O)N([H])[H])c2N([H])[H])C1([H])[H])C([H])([H])C([H])([H])[N+]([H])([H])[H])C([H])([H])C([H])([H])Oc1c([H])c([H])c2c(c1[H])C([H])([H])N(C(=O)C([H])(N([H])C(=O)C([H])(N([H])C([H])([H])[H])C([H])([H])[H])C(C([H])([H])[H])(C([H])([H])[H])C([H])([H])[H])C([H])(C(=O)N([H])C1([H])c3c([H])c([H])c([H])c([H])c3C([H])([H])C([H])([H])C1([H])[H])C2([H])[H]

>  <smiles>  (42) 
[H]C(=NC([H])(C(=O)N([H])C([H])([H])C([H])([H])C([H])([H])C([H])([H])C([H])([H])N([H])C(=O)N1C([H])([H])C([H])([H])C([H])([H])C([H])(n2nc(-c3c([H])c([H])c(Oc4c([H])c([H])c(F)c([H])c4F)c([H])c3[H])c(C(=O)N([H])[H])c2N([H])[H])C1([H])[H])C([H])([H])C([H])([H])[N+]([H])([H])[H])C([H])([H])C([H])([H])Oc1c([H])c([H])c2c(c1[H])C([H])([H])N(C(=O)C([H])(N([H])C(=O)C([H])(N([H])C([H])([H])[H])C([H])([H])[H])C(C([H])([H])[H])(C([H])([H])[H])C([H])([H])[H])C([H])(C(=O)N([H])C1([H])c3c([H])c([H])c([H])c([H])c3C([H])([H])C([H])([H])C1([H])[H])C2([H])[H]

$$$$
46:0:0
     RDKit          3D

 98105  0  0  1  0  0  0  0  0999 V2000
  -28.0660  -24.0180   21.6710 C   0  0  0  0  0  3  0  0  0  0  0  0
  -28.5720  -20.5600   20.2630 C   0  0  0  0  0  0  0  0  0  0  0  0
  -27.7570  -22.7890   20.7930 C   0  0  0  0  0  0  0  0  0  0  0  0
  -28.6260  -21.7610   20.8710 N   0  0  0  0  0  0  0  0  0  0  0  0
  -27.5900  -20.1280   19.6510 O   0  0  0  0  0  0  0  0  0  0  0  0
  -26.7890  -22.8350   20.0280 O   0  0  0  0  0  0  0  0  0  0  0  0
  -29.4470  -21.9170   21.4340 H   0  0  0  0  0  0  0  0  0  0  0  0
  -29.8370  -19.8470   20.3880 C   0  0  0  0  0  3  0  0  0  0  0  0
  -29.9480  -18.5720   19.9660 C   0  0  0  0  0  3  0  0  0  0  0  0
  -31.7410  -17.7330   18.4890 C   0  0  0  0  0  1  0  0  0  0  0  0
  -31.2420  -17.7740   19.9480 C   0  0  0  0  0  3  0  0  0  0  0  0
  -31.8460  -15.3680   20.4460 C   0  0  0  0  0  0  0  0  0  0  0  0
  -31.6980  -12.9910   19.8380 C   0  0  0  0  0  2  0  0  0  0  0  0
  -30.9030  -12.8990   18.5170 C   0  0  0  0  0  2  0  0  0  0  0  0
  -29.3870  -12.8300   18.7960 C   0  0  0  0  0  2  0  0  0  0  0  0
  -28.9100  -13.9330   19.7760 C   0  0  0  0  0  3  0  0  0  0  0  0
  -29.8240  -13.9900   21.0220 C   0  0  0  0  0  2  0  0  0  0  0  0
  -31.2100  -14.1740   20.5590 N   0  0  0  0  0  0  0  0  0  0  0  0
  -33.0310  -15.4780   20.1160 O   0  0  0  0  0  0  0  0  0  0  0  0
  -31.0180  -16.4290   20.4910 N   0  0  0  0  0  0  0  0  0  0  0  0
  -30.0800  -16.2190   20.7990 H   0  0  0  0  0  0  0  0  0  0  0  0
  -26.5020  -14.7060   20.2590 C   0  0  0  0  0  0  0  0  0  0  0  0
  -25.3640  -14.0100   20.5640 C   0  0  0  0  0  0  0  0  0  0  0  0
  -25.7440  -12.6340   20.6110 C   0  0  0  0  0  0  0  0  0  0  0  0
  -27.5070  -13.7580   20.1430 N   0  0  0  0  0  0  0  0  0  0  0  0
  -27.0490  -12.5090   20.4110 N   0  0  0  0  0  0  0  0  0  0  0  0
  -24.9320  -11.4220   20.7780 C   0  0  0  0  0  0  0  0  0  0  0  0
  -25.1850  -10.5010   21.8190 C   0  0  0  0  0  3  0  0  0  0  0  0
  -24.3790   -9.3530   21.9690 C   0  0  0  0  0  3  0  0  0  0  0  0
  -23.3060   -9.1180   21.0760 C   0  0  0  0  0  0  0  0  0  0  0  0
  -23.0730  -10.0250   20.0280 C   0  0  0  0  0  3  0  0  0  0  0  0
  -23.8800  -11.1660   19.8760 C   0  0  0  0  0  3  0  0  0  0  0  0
  -22.4870   -8.0160   21.1290 O   0  0  0  0  0  0  0  0  0  0  0  0
  -22.1660   -7.4140   22.3190 C   0  0  0  0  0  0  0  0  0  0  0  0
  -21.5510   -8.1250   23.3730 C   0  0  0  0  0  3  0  0  0  0  0  0
  -21.1780   -7.4510   24.5530 C   0  0  0  0  0  3  0  0  0  0  0  0
  -21.4070   -6.0680   24.6770 C   0  0  0  0  0  0  0  0  0  0  0  0
  -22.0120   -5.3570   23.6270 C   0  0  0  0  0  3  0  0  0  0  0  0
  -22.3880   -6.0290   22.4490 C   0  0  0  0  0  0  0  0  0  0  0  0
  -22.9530   -5.3350   21.4320 F   0  0  0  0  0  0  0  0  0  0  0  0
  -21.0400   -5.4190   25.8060 F   0  0  0  0  0  0  0  0  0  0  0  0
  -23.9800  -14.5760   20.7080 C   0  0  0  0  0  0  0  0  0  0  0  0
  -23.1530  -13.9660   21.5500 N   0  0  0  0  0  0  0  0  0  0  0  0
  -23.6390  -15.5930   20.1070 O   0  0  0  0  0  0  0  0  0  0  0  0
  -23.4390  -13.1420   22.0580 H   0  0  0  0  0  0  0  0  0  0  0  0
  -22.2190  -14.3270   21.6890 H   0  0  0  0  0  0  0  0  0  0  0  0
  -26.7630  -16.0570   20.0510 N   0  0  0  0  0  0  0  0  0  0  0  0
  -26.0270  -16.7540   20.0680 H   0  0  0  0  0  0  0  0  0  0  0  0
  -27.6530  -16.4270   19.7450 H   0  0  0  0  0  0  0  0  0  0  0  0
  -28.4450  -25.1380   20.7760 N   0  0  0  0  0  4  0  0  0  0  0  0
  -28.1230  -24.8890   19.8510 H   0  0  0  0  0  0  0  0  0  0  0  0
  -27.9250  -25.9500   21.0690 H   0  0  0  0  0  0  0  0  0  0  0  0
  -29.8950  -25.4600   20.7620 C   0  0  0  0  0  2  0  0  0  0  0  0
  -30.2690  -26.6450   19.8510 C   0  0  0  0  0  2  0  0  0  0  0  0
  -29.8990  -27.8850   20.4610 O   0  0  0  0  0  0  0  0  0  0  0  0
  -25.0790  -31.9330   23.7280 C   0  0  0  0  0  0  0  0  0  0  0  0
  -28.6060  -28.3630   20.4090 C   0  0  0  0  0  0  0  0  0  0  0  0
  -24.2380  -30.6240   21.8070 C   0  0  0  0  0  3  0  0  0  0  0  0
  -26.0160  -29.5050   20.3680 C   0  0  0  0  0  0  0  0  0  0  0  0
  -26.6900  -31.3440   21.9200 C   0  0  0  0  0  2  0  0  0  0  0  0
  -27.0270  -30.0960   21.1310 C   0  0  0  0  0  0  0  0  0  0  0  0
  -28.3190  -29.5310   21.1530 C   0  0  0  0  0  3  0  0  0  0  0  0
  -27.5670  -27.7740   19.6490 C   0  0  0  0  0  3  0  0  0  0  0  0
  -26.2800  -28.3410   19.6270 C   0  0  0  0  0  3  0  0  0  0  0  0
  -24.6620  -30.1770   20.3830 C   0  0  0  0  0  2  0  0  0  0  0  0
  -25.3470  -31.3090   22.5470 N   0  0  0  0  0  0  0  0  0  0  0  0
  -23.9260  -31.9820   24.1800 O   0  0  0  0  0  0  0  0  0  0  0  0
  -23.6640  -29.4010   22.5550 C   0  0  0  0  0  0  0  0  0  0  0  0
  -22.4010  -29.0560   22.2560 N   0  0  0  0  0  0  0  0  0  0  0  0
  -24.3560  -28.7700   23.3600 O   0  0  0  0  0  0  0  0  0  0  0  0
  -21.8970  -29.6300   21.5940 H   0  0  0  0  0  0  0  0  0  0  0  0
  -19.2070  -27.3700   22.2340 C   0  0  0  0  0  0  0  0  0  0  0  0
  -21.6660  -27.9190   22.8090 C   0  0  0  0  0  3  0  0  0  0  0  0
  -22.0260  -26.6110   22.0680 C   0  0  0  0  0  2  0  0  0  0  0  0
  -21.0750  -26.2940   20.9090 C   0  0  0  0  0  2  0  0  0  0  0  0
  -19.6350  -26.1660   21.4130 C   0  0  0  0  0  2  0  0  0  0  0  0
  -20.1620  -28.2020   22.8760 C   0  0  0  0  0  0  0  0  0  0  0  0
  -19.7120  -29.3310   23.5970 C   0  0  0  0  0  3  0  0  0  0  0  0
  -18.3390  -29.6320   23.6800 C   0  0  0  0  0  3  0  0  0  0  0  0
  -17.3970  -28.7940   23.0570 C   0  0  0  0  0  3  0  0  0  0  0  0
  -17.8310  -27.6650   22.3400 C   0  0  0  0  0  3  0  0  0  0  0  0
  -26.2010  -32.6370   24.5550 C   0  0  0  0  0  3  0  0  0  0  0  0
  -25.7330  -33.9930   24.8690 N   0  0  0  0  0  0  0  0  0  0  0  0
  -26.0960  -35.0960   24.2020 C   0  0  0  0  0  0  0  0  0  0  0  0
  -26.9300  -35.0850   23.2910 O   0  0  0  0  0  0  0  0  0  0  0  0
  -25.0050  -34.0710   25.5650 H   0  0  0  0  0  0  0  0  0  0  0  0
  -24.3110  -36.7660   23.6090 C   0  0  0  0  0  1  0  0  0  0  0  0
  -25.4290  -36.4240   24.6090 C   0  0  0  0  0  3  0  0  0  0  0  0
  -27.3250  -37.4200   25.8080 C   0  0  0  0  0  1  0  0  0  0  0  0
  -26.3770  -37.5550   24.7040 N   0  0  0  0  0  0  0  0  0  0  0  0
  -25.8780  -38.4320   24.8220 H   0  0  0  0  0  0  0  0  0  0  0  0
  -26.5860  -31.8570   25.8720 C   0  0  1  0  0  0  0  0  0  0  0  0
  -25.3680  -31.4700   26.7440 C   0  0  0  0  0  1  0  0  0  0  0  0
  -27.3490  -30.5560   25.5300 C   0  0  0  0  0  1  0  0  0  0  0  0
  -27.5390  -32.7180   26.7340 C   0  0  0  0  0  1  0  0  0  0  0  0
  -26.7040  -23.4250   23.7860 C   0  0  0  0  0  1  0  0  0  0  0  0
  -25.5760  -24.8140   21.9990 C   0  0  0  0  0  1  0  0  0  0  0  0
  -26.9280  -24.4470   22.6540 C   0  0  0  0  0  3  0  0  0  0  0  0
  1  3  1  0
  1 98  1  0
  2  8  1  0
  2  4  1  0
  3  4  1  0
  4  7  1  0
  5  2  2  0
  6  3  2  0
  9  8  2  0
 11 10  1  0
 11  9  1  0
 11 20  1  0
 12 20  1  0
 12 18  1  0
 13 18  1  0
 14 15  1  0
 14 13  1  0
 16 15  1  0
 16 25  1  0
 16 17  1  0
 18 17  1  0
 19 12  2  0
 20 21  1  0
 22 23  2  0
 23 24  1  0
 23 42  1  0
 24 27  1  0
 25 22  1  0
 25 26  1  0
 26 24  2  0
 27 28  1  0
 28 29  2  0
 30 33  1  0
 30 29  1  0
 31 30  2  0
 32 31  1  0
 32 27  2  0
 33 34  1  0
 34 39  2  0
 34 35  1  0
 35 36  2  0
 36 37  1  0
 37 41  1  0
 38 37  2  0
 39 38  1  0
 40 39  1  0
 42 43  1  0
 43 46  1  0
 43 45  1  0
 44 42  2  0
 47 48  1  0
 47 22  1  0
 49 47  1  0
 50 52  1  0
 50  1  1  0
 51 50  1  0
 53 50  1  0
 54 55  1  0
 54 53  1  0
 56 67  2  0
 57 55  1  0
 57 62  1  0
 58 66  1  0
 58 68  1  0
 59 65  1  0
 59 61  1  0
 60 66  1  0
 61 62  2  0
 61 60  1  0
 63 57  2  0
 64 63  1  0
 64 59  2  0
 65 58  1  0
 66 56  1  0
 68 70  2  0
 69 68  1  0
 71 69  1  0
 72 81  2  0
 72 77  1  0
 73 69  1  0
 73 77  1  0
 74 73  1  0
 75 76  1  0
 75 74  1  0
 76 72  1  0
 77 78  2  0
 78 79  1  0
 80 79  2  0
 81 80  1  0
 82 56  1  0
 82 83  1  0
 82 92  1  0
 83 86  1  0
 84 88  1  0
 84 83  1  0
 85 84  2  0
 88 87  1  0
 88 90  1  0
 90 91  1  0
 90 89  1  0
 92 95  1  1
 92 93  1  0
 94 92  1  0
 97 98  1  0
 98 96  1  0
M  ISO  4  12 100  20 100  54 101  55 101
M  END
>  <TORSDO>  (43) 
F 23

>  <SCORE>  (43) 
-4.359

>  <name>  (43) 
46

>  <ligand_id>  (43) 
46

>  <original_smiles>  (43) 
[H]C(C(=O)N([H])C(=O)C([H])(C([H])(C([H])([H])[H])C([H])([H])[H])[N+]([H])([H])C([H])([H])C([H])([H])Oc1c([H])c([H])c2c(c1[H])C([H])([H])N(C(=O)C([H])(N([H])C(=O)C([H])(N([H])C([H])([H])[H])C([H])([H])[H])C(C([H])([H])[H])(C([H])([H])[H])C([H])([H])[H])C([H])(C(=O)N([H])C1([H])c3c([H])c([H])c([H])c([H])c3C([H])([H])C([H])([H])C1([H])[H])C2([H])[H])=C([H])C([H])(N([H])C(=O)N1C([H])([H])C([H])([H])C([H])([H])C([H])(n2nc(-c3c([H])c([H])c(Oc4c([H])c([H])c(F)c([H])c4F)c([H])c3[H])c(C(=O)N([H])[H])c2N([H])[H])C1([H])[H])C([H])([H])[H]

>  <smiles>  (43) 
[H]C(C(=O)N([H])C(=O)C([H])(C([H])(C([H])([H])[H])C([H])([H])[H])[N+]([H])([H])C([H])([H])C([H])([H])Oc1c([H])c([H])c2c(c1[H])C([H])([H])N(C(=O)C([H])(N([H])C(=O)C([H])(N([H])C([H])([H])[H])C([H])([H])[H])C(C([H])([H])[H])(C([H])([H])[H])C([H])([H])[H])C([H])(C(=O)N([H])C1([H])c3c([H])c([H])c([H])c([H])c3C([H])([H])C([H])([H])C1([H])[H])C2([H])[H])=C([H])C([H])(N([H])C(=O)N1C([H])([H])C([H])([H])C([H])([H])C([H])(n2nc(-c3c([H])c([H])c(Oc4c([H])c([H])c(F)c([H])c4F)c([H])c3[H])c(C(=O)N([H])[H])c2N([H])[H])C1([H])[H])C([H])([H])[H]

$$$$
47:0:0
     RDKit          3D

101108  0  0  1  0  0  0  0  0999 V2000
  -30.9340  -20.9200   15.2630 N   0  0  0  0  0  4  0  0  0  0  0  0
  -31.1500  -19.9510   15.0850 H   0  0  0  0  0  0  0  0  0  0  0  0
  -30.6510  -21.3120   14.3790 H   0  0  0  0  0  0  0  0  0  0  0  0
  -29.8240  -20.9450   16.2450 C   0  0  0  0  0  2  0  0  0  0  0  0
  -28.5380  -20.2740   15.7260 C   0  0  0  0  0  2  0  0  0  0  0  0
  -27.4460  -20.2180   16.8050 C   0  0  0  0  0  2  0  0  0  0  0  0
  -27.8490  -19.3020   17.8130 O   0  0  0  0  0  0  0  0  0  0  0  0
  -27.1480  -19.4720   19.0390 C   0  0  0  0  0  2  0  0  0  0  0  0
  -27.4860  -18.2940   19.9610 C   0  0  0  0  0  2  0  0  0  0  0  0
  -28.8910  -18.2570   20.1750 O   0  0  0  0  0  0  0  0  0  0  0  0
  -29.2940  -17.1320   20.9380 C   0  0  0  0  0  2  0  0  0  0  0  0
  -30.8260  -17.0310   20.9000 C   0  0  0  0  0  2  0  0  0  0  0  0
  -31.3970  -15.8300   21.6810 C   0  0  0  0  0  2  0  0  0  0  0  0
  -31.1590  -13.7890   20.2500 C   0  0  0  0  0  0  0  0  0  0  0  0
  -30.5950  -11.7840   18.9280 C   0  0  0  0  0  2  0  0  0  0  0  0
  -29.6350  -12.1260   17.7730 C   0  0  0  0  0  2  0  0  0  0  0  0
  -28.1700  -12.0940   18.2460 C   0  0  0  0  0  2  0  0  0  0  0  0
  -27.9500  -12.9120   19.5450 C   0  0  0  0  0  3  0  0  0  0  0  0
  -29.0030  -12.5320   20.6090 C   0  0  0  0  0  2  0  0  0  0  0  0
  -30.3480  -12.7240   20.0300 N   0  0  0  0  0  0  0  0  0  0  0  0
  -32.1670  -14.0350   19.5790 O   0  0  0  0  0  0  0  0  0  0  0  0
  -30.7930  -14.5620   21.2800 N   0  0  0  0  0  0  0  0  0  0  0  0
  -29.9910  -14.2450   21.8050 H   0  0  0  0  0  0  0  0  0  0  0  0
  -25.6150  -13.7070   20.2890 C   0  0  0  0  0  0  0  0  0  0  0  0
  -24.5020  -13.0210   20.6960 C   0  0  0  0  0  0  0  0  0  0  0  0
  -24.8630  -11.6400   20.6780 C   0  0  0  0  0  0  0  0  0  0  0  0
  -26.5890  -12.7490   20.0530 N   0  0  0  0  0  0  0  0  0  0  0  0
  -26.1380  -11.5010   20.3410 N   0  0  0  0  0  0  0  0  0  0  0  0
  -24.0520  -10.4370   20.9070 C   0  0  0  0  0  0  0  0  0  0  0  0
  -24.4460   -9.4460   21.8350 C   0  0  0  0  0  3  0  0  0  0  0  0
  -23.6410   -8.3070   22.0490 C   0  0  0  0  0  3  0  0  0  0  0  0
  -22.4280   -8.1500   21.3370 C   0  0  0  0  0  0  0  0  0  0  0  0
  -22.0530   -9.1280   20.3980 C   0  0  0  0  0  3  0  0  0  0  0  0
  -22.8580  -10.2590   20.1820 C   0  0  0  0  0  3  0  0  0  0  0  0
  -21.5950   -7.0660   21.4610 O   0  0  0  0  0  0  0  0  0  0  0  0
  -21.5410   -6.3290   22.6180 C   0  0  0  0  0  0  0  0  0  0  0  0
  -21.2310   -6.9190   23.8630 C   0  0  0  0  0  3  0  0  0  0  0  0
  -21.1170   -6.1140   25.0140 C   0  0  0  0  0  3  0  0  0  0  0  0
  -21.3020   -4.7220   24.9220 C   0  0  0  0  0  0  0  0  0  0  0  0
  -21.6060   -4.1320   23.6820 C   0  0  0  0  0  3  0  0  0  0  0  0
  -21.7210   -4.9340   22.5330 C   0  0  0  0  0  0  0  0  0  0  0  0
  -21.9920   -4.3580   21.3370 F   0  0  0  0  0  0  0  0  0  0  0  0
  -21.1860   -3.9470   26.0260 F   0  0  0  0  0  0  0  0  0  0  0  0
  -23.1490  -13.6030   20.9930 C   0  0  0  0  0  0  0  0  0  0  0  0
  -22.3990  -12.9820   21.8970 N   0  0  0  0  0  0  0  0  0  0  0  0
  -22.7690  -14.6440   20.4580 O   0  0  0  0  0  0  0  0  0  0  0  0
  -22.7200  -12.1390   22.3510 H   0  0  0  0  0  0  0  0  0  0  0  0
  -21.4930  -13.3550   22.1390 H   0  0  0  0  0  0  0  0  0  0  0  0
  -25.8740  -15.0580   20.0810 N   0  0  0  0  0  0  0  0  0  0  0  0
  -25.1560  -15.7670   20.1810 H   0  0  0  0  0  0  0  0  0  0  0  0
  -26.7410  -15.4130   19.7030 H   0  0  0  0  0  0  0  0  0  0  0  0
  -32.1870  -21.5540   15.7400 C   0  0  0  0  0  2  0  0  0  0  0  0
  -32.5250  -22.9100   15.0700 C   0  0  0  0  0  2  0  0  0  0  0  0
  -31.5410  -24.0800   15.2990 C   0  0  0  0  0  2  0  0  0  0  0  0
  -31.5350  -24.6260   16.6800 N   0  0  0  0  0  4  0  0  0  0  0  0
  -32.3900  -25.1350   16.8410 H   0  0  0  0  0  0  0  0  0  0  0  0
  -31.4970  -23.8790   17.3520 H   0  0  0  0  0  0  0  0  0  0  0  0
  -30.3820  -25.5240   16.9250 C   0  0  0  0  0  2  0  0  0  0  0  0
  -30.1370  -25.8420   18.4130 C   0  0  0  0  0  2  0  0  0  0  0  0
  -28.7510  -26.4790   18.5800 C   0  0  0  0  0  2  0  0  0  0  0  0
  -28.4310  -26.7790   19.9360 O   0  0  0  0  0  0  0  0  0  0  0  0
  -24.6520  -31.8720   23.1870 C   0  0  0  0  0  0  0  0  0  0  0  0
  -27.2370  -27.4510   20.0540 C   0  0  0  0  0  0  0  0  0  0  0  0
  -23.4120  -30.4710   21.5670 C   0  0  0  0  0  3  0  0  0  0  0  0
  -24.8360  -28.9280   20.1280 C   0  0  0  0  0  0  0  0  0  0  0  0
  -25.9300  -30.8290   21.3230 C   0  0  0  0  0  2  0  0  0  0  0  0
  -26.0030  -29.4550   20.6970 C   0  0  0  0  0  0  0  0  0  0  0  0
  -27.2050  -28.7170   20.6720 C   0  0  0  0  0  3  0  0  0  0  0  0
  -26.0450  -26.9130   19.5180 C   0  0  0  0  0  3  0  0  0  0  0  0
  -24.8480  -27.6490   19.5460 C   0  0  0  0  0  3  0  0  0  0  0  0
  -23.5950  -29.7900   20.1860 C   0  0  0  0  0  2  0  0  0  0  0  0
  -24.6830  -31.0730   22.0830 N   0  0  0  0  0  0  0  0  0  0  0  0
  -23.5800  -32.1480   23.7460 O   0  0  0  0  0  0  0  0  0  0  0  0
  -22.7780  -29.4500   22.5400 C   0  0  0  0  0  0  0  0  0  0  0  0
  -21.4510  -29.2700   22.4340 N   0  0  0  0  0  0  0  0  0  0  0  0
  -23.4740  -28.8250   23.3430 O   0  0  0  0  0  0  0  0  0  0  0  0
  -20.9530  -29.8260   21.7540 H   0  0  0  0  0  0  0  0  0  0  0  0
  -18.0860  -28.0730   22.9730 C   0  0  0  0  0  0  0  0  0  0  0  0
  -20.6460  -28.3340   23.2180 C   0  0  0  0  0  3  0  0  0  0  0  0
  -20.7440  -26.9000   22.6460 C   0  0  0  0  0  2  0  0  0  0  0  0
  -19.6310  -26.5710   21.6470 C   0  0  0  0  0  2  0  0  0  0  0  0
  -18.2560  -26.7200   22.3040 C   0  0  0  0  0  2  0  0  0  0  0  0
  -19.2090  -28.8370   23.3880 C   0  0  0  0  0  0  0  0  0  0  0  0
  -18.9960  -30.1050   23.9730 C   0  0  0  0  0  3  0  0  0  0  0  0
  -17.6940  -30.6080   24.1470 C   0  0  0  0  0  3  0  0  0  0  0  0
  -16.5850  -29.8410   23.7480 C   0  0  0  0  0  3  0  0  0  0  0  0
  -16.7830  -28.5750   23.1680 C   0  0  0  0  0  3  0  0  0  0  0  0
  -25.9530  -32.4970   23.7820 C   0  0  0  0  0  3  0  0  0  0  0  0
  -25.6450  -33.8850   24.1510 N   0  0  0  0  0  0  0  0  0  0  0  0
  -25.9450  -34.9540   23.3990 C   0  0  0  0  0  0  0  0  0  0  0  0
  -26.5820  -34.8760   22.3460 O   0  0  0  0  0  0  0  0  0  0  0  0
  -25.0790  -34.0210   24.9750 H   0  0  0  0  0  0  0  0  0  0  0  0
  -24.1880  -36.7330   23.1340 C   0  0  0  0  0  1  0  0  0  0  0  0
  -25.4590  -36.3270   23.8990 C   0  0  0  0  0  3  0  0  0  0  0  0
  -27.6140  -37.2140   24.6740 C   0  0  0  0  0  1  0  0  0  0  0  0
  -26.4770  -37.3920   23.7730 N   0  0  0  0  0  0  0  0  0  0  0  0
  -26.0670  -38.3050   23.9530 H   0  0  0  0  0  0  0  0  0  0  0  0
  -26.5140  -31.6990   25.0220 C   0  0  1  0  0  0  0  0  0  0  0  0
  -25.4550  -31.4230   26.1140 C   0  0  0  0  0  1  0  0  0  0  0  0
  -27.1000  -30.3390   24.5750 C   0  0  0  0  0  1  0  0  0  0  0  0
  -27.6750  -32.4910   25.6710 C   0  0  0  0  0  1  0  0  0  0  0  0
  1 52  1  0
  1  4  1  0
  2  1  1  0
  3  1  1  0
  5  4  1  0
  5  6  1  0
  6  7  1  0
  7  8  1  0
  8  9  1  0
  9 10  1  0
 10 11  1  0
 12 11  1  0
 12 13  1  0
 14 22  1  0
 15 20  1  0
 16 17  1  0
 16 15  1  0
 18 17  1  0
 18 27  1  0
 18 19  1  0
 20 14  1  0
 20 19  1  0
 21 14  2  0
 22 13  1  0
 22 23  1  0
 24 25  2  0
 25 44  1  0
 26 25  1  0
 26 29  1  0
 27 24  1  0
 27 28  1  0
 28 26  2  0
 29 30  1  0
 30 31  2  0
 32 35  1  0
 32 31  1  0
 33 32  2  0
 34 33  1  0
 34 29  2  0
 35 36  1  0
 36 37  1  0
 37 38  2  0
 39 38  1  0
 39 43  1  0
 40 39  2  0
 41 36  2  0
 41 40  1  0
 42 41  1  0
 44 45  1  0
 45 48  1  0
 45 47  1  0
 46 44  2  0
 49 50  1  0
 49 24  1  0
 51 49  1  0
 53 54  1  0
 53 52  1  0
 54 55  1  0
 55 56  1  0
 55 58  1  0
 55 57  1  0
 58 59  1  0
 59 60  1  0
 60 61  1  0
 61 63  1  0
 62 73  2  0
 63 68  1  0
 64 72  1  0
 64 74  1  0
 65 71  1  0
 65 67  1  0
 66 72  1  0
 67 66  1  0
 68 67  2  0
 69 70  1  0
 69 63  2  0
 70 65  2  0
 71 64  1  0
 72 62  1  0
 74 76  2  0
 75 74  1  0
 77 75  1  0
 78 87  2  0
 78 83  1  0
 79 75  1  0
 79 83  1  0
 80 79  1  0
 81 82  1  0
 81 80  1  0
 82 78  1  0
 83 84  2  0
 84 85  1  0
 86 85  2  0
 87 86  1  0
 88 62  1  0
 88 89  1  0
 88 98  1  0
 89 92  1  0
 90 94  1  0
 90 89  1  0
 91 90  2  0
 94 93  1  0
 96 94  1  0
 96 97  1  0
 96 95  1  0
 98101  1  1
 98 99  1  0
100 98  1  0
M  ISO  4  14 100  22 100  60 101  61 101
M  END
>  <TORSDO>  (44) 
F 33

>  <SCORE>  (44) 
-9.475

>  <name>  (44) 
47

>  <ligand_id>  (44) 
47

>  <original_smiles>  (44) 
[H]c1c([H])c([H])c2c(c1[H])C([H])([H])C([H])([H])C([H])([H])C2([H])N([H])C(=O)C1([H])N(C(=O)C([H])(N([H])C(=O)C([H])(N([H])C([H])([H])[H])C([H])([H])[H])C(C([H])([H])[H])(C([H])([H])[H])C([H])([H])[H])C([H])([H])c2c([H])c(OC([H])([H])C([H])([H])C([H])([H])[N+]([H])([H])C([H])([H])C([H])([H])C([H])([H])[N+]([H])([H])C([H])([H])C([H])([H])C([H])([H])OC([H])([H])C([H])([H])OC([H])([H])C([H])([H])C([H])([H])N([H])C(=O)N3C([H])([H])C([H])([H])C([H])([H])C([H])(n4nc(-c5c([H])c([H])c(Oc6c([H])c([H])c(F)c([H])c6F)c([H])c5[H])c(C(=O)N([H])[H])c4N([H])[H])C3([H])[H])c([H])c([H])c2C1([H])[H]

>  <smiles>  (44) 
[H]c1c([H])c([H])c2c(c1[H])C([H])([H])C([H])([H])C([H])([H])C2([H])N([H])C(=O)C1([H])N(C(=O)C([H])(N([H])C(=O)C([H])(N([H])C([H])([H])[H])C([H])([H])[H])C(C([H])([H])[H])(C([H])([H])[H])C([H])([H])[H])C([H])([H])c2c([H])c(OC([H])([H])C([H])([H])C([H])([H])[N+]([H])([H])C([H])([H])C([H])([H])C([H])([H])[N+]([H])([H])C([H])([H])C([H])([H])C([H])([H])OC([H])([H])C([H])([H])OC([H])([H])C([H])([H])C([H])([H])N([H])C(=O)N3C([H])([H])C([H])([H])C([H])([H])C([H])(n4nc(-c5c([H])c([H])c(Oc6c([H])c([H])c(F)c([H])c6F)c([H])c5[H])c(C(=O)N([H])[H])c4N([H])[H])C3([H])[H])c([H])c([H])c2C1([H])[H]

$$$$
48:0:0
     RDKit          3D

 95102  0  0  1  0  0  0  0  0999 V2000
  -26.7380  -24.0550   23.2660 N   0  0  0  0  0  4  0  0  0  0  0  0
  -25.7350  -24.1220   23.3520 H   0  0  0  0  0  0  0  0  0  0  0  0
  -27.1090  -24.9870   23.3520 H   0  0  0  0  0  0  0  0  0  0  0  0
  -27.2110  -23.2240   24.3960 C   0  0  0  0  0  2  0  0  0  0  0  0
  -28.3960  -23.8430   25.1680 C   0  0  0  0  0  2  0  0  0  0  0  0
  -29.4250  -24.5920   24.3080 C   0  0  0  0  0  2  0  0  0  0  0  0
  -29.7820  -23.8070   23.1790 O   0  0  0  0  0  0  0  0  0  0  0  0
  -31.0420  -24.1870   22.6340 C   0  0  0  0  0  2  0  0  0  0  0  0
  -31.3300  -23.3940   21.3520 C   0  0  0  0  0  2  0  0  0  0  0  0
  -32.6950  -22.9950   21.3620 O   0  0  0  0  0  0  0  0  0  0  0  0
  -33.2980  -22.9900   20.0760 C   0  0  0  0  0  2  0  0  0  0  0  0
  -34.6640  -22.3080   20.1930 C   0  0  0  0  0  2  0  0  0  0  0  0
  -35.5480  -20.0010   20.0390 C   0  0  0  0  0  0  0  0  0  0  0  0
  -36.1790  -17.7260   19.3390 C   0  0  0  0  0  2  0  0  0  0  0  0
  -35.8240  -17.5250   17.8520 C   0  0  0  0  0  2  0  0  0  0  0  0
  -34.3720  -17.0370   17.7030 C   0  0  0  0  0  2  0  0  0  0  0  0
  -33.3680  -17.8950   18.5150 C   0  0  0  0  0  3  0  0  0  0  0  0
  -33.8640  -18.1150   19.9640 C   0  0  0  0  0  2  0  0  0  0  0  0
  -35.2200  -18.6900   19.9030 N   0  0  0  0  0  0  0  0  0  0  0  0
  -36.6950  -20.4260   19.8920 O   0  0  0  0  0  0  0  0  0  0  0  0
  -34.5370  -20.8500   20.2590 N   0  0  0  0  0  0  0  0  0  0  0  0
  -33.6100  -20.4710   20.4010 H   0  0  0  0  0  0  0  0  0  0  0  0
  -30.8550  -17.8370   17.9550 C   0  0  0  0  0  0  0  0  0  0  0  0
  -29.9090  -16.8590   18.1000 C   0  0  0  0  0  0  0  0  0  0  0  0
  -30.5750  -15.7480   18.7050 C   0  0  0  0  0  0  0  0  0  0  0  0
  -32.0290  -17.3110   18.4770 N   0  0  0  0  0  0  0  0  0  0  0  0
  -31.8370  -16.0610   18.9710 N   0  0  0  0  0  0  0  0  0  0  0  0
  -30.1010  -14.3900   18.9980 C   0  0  0  0  0  0  0  0  0  0  0  0
  -30.0780  -13.8840   20.3170 C   0  0  0  0  0  3  0  0  0  0  0  0
  -29.5980  -12.5820   20.5770 C   0  0  0  0  0  3  0  0  0  0  0  0
  -29.1330  -11.7730   19.5130 C   0  0  0  0  0  0  0  0  0  0  0  0
  -29.1760  -12.2740   18.2000 C   0  0  0  0  0  3  0  0  0  0  0  0
  -29.6580  -13.5670   17.9420 C   0  0  0  0  0  3  0  0  0  0  0  0
  -28.6750  -10.4870   19.6670 O   0  0  0  0  0  0  0  0  0  0  0  0
  -27.9170  -10.1190   20.7490 C   0  0  0  0  0  0  0  0  0  0  0  0
  -26.6570  -10.7020   21.0090 C   0  0  0  0  0  3  0  0  0  0  0  0
  -25.8810  -10.2470   22.0930 C   0  0  0  0  0  3  0  0  0  0  0  0
  -26.3550   -9.2030   22.9100 C   0  0  0  0  0  0  0  0  0  0  0  0
  -27.6060   -8.6160   22.6480 C   0  0  0  0  0  3  0  0  0  0  0  0
  -28.3830   -9.0710   21.5690 C   0  0  0  0  0  0  0  0  0  0  0  0
  -29.5790   -8.4890   21.3090 F   0  0  0  0  0  0  0  0  0  0  0  0
  -25.6050   -8.7600   23.9440 F   0  0  0  0  0  0  0  0  0  0  0  0
  -28.4860  -16.9100   17.6200 C   0  0  0  0  0  0  0  0  0  0  0  0
  -27.5840  -16.2160   18.3100 N   0  0  0  0  0  0  0  0  0  0  0  0
  -28.1570  -17.6060   16.6620 O   0  0  0  0  0  0  0  0  0  0  0  0
  -27.8550  -15.6540   19.1030 H   0  0  0  0  0  0  0  0  0  0  0  0
  -26.6110  -16.2460   18.0440 H   0  0  0  0  0  0  0  0  0  0  0  0
  -30.8260  -19.1160   17.4070 N   0  0  0  0  0  0  0  0  0  0  0  0
  -30.0030  -19.4950   16.9530 H   0  0  0  0  0  0  0  0  0  0  0  0
  -31.6380  -19.7140   17.3110 H   0  0  0  0  0  0  0  0  0  0  0  0
  -27.0290  -23.5010   21.9220 C   0  0  0  0  0  2  0  0  0  0  0  0
  -27.0790  -24.5930   20.8320 C   0  0  0  0  0  2  0  0  0  0  0  0
  -26.9670  -24.0140   19.4090 C   0  0  0  0  0  2  0  0  0  0  0  0
  -27.4960  -24.9230   18.2660 C   0  0  0  0  0  2  0  0  0  0  0  0
  -27.6290  -26.3170   18.5690 O   0  0  0  0  0  0  0  0  0  0  0  0
  -24.8380  -31.1880   22.9150 C   0  0  0  0  0  0  0  0  0  0  0  0
  -26.5130  -27.0730   18.8510 C   0  0  0  0  0  0  0  0  0  0  0  0
  -23.2410  -30.0440   21.4140 C   0  0  0  0  0  3  0  0  0  0  0  0
  -24.2740  -28.6520   19.5490 C   0  0  0  0  0  0  0  0  0  0  0  0
  -25.6940  -30.3280   20.7390 C   0  0  0  0  0  2  0  0  0  0  0  0
  -25.5570  -29.0470   19.9440 C   0  0  0  0  0  0  0  0  0  0  0  0
  -26.6770  -28.2600   19.6020 C   0  0  0  0  0  3  0  0  0  0  0  0
  -25.2120  -26.7140   18.4320 C   0  0  0  0  0  3  0  0  0  0  0  0
  -24.0960  -27.4810   18.7930 C   0  0  0  0  0  3  0  0  0  0  0  0
  -23.1220  -29.5420   19.9520 C   0  0  0  0  0  2  0  0  0  0  0  0
  -24.6210  -30.5270   21.7420 N   0  0  0  0  0  0  0  0  0  0  0  0
  -23.9060  -31.4300   23.6950 O   0  0  0  0  0  0  0  0  0  0  0  0
  -22.7390  -28.9320   22.3620 C   0  0  0  0  0  0  0  0  0  0  0  0
  -21.4330  -28.6300   22.2930 N   0  0  0  0  0  0  0  0  0  0  0  0
  -23.5200  -28.3440   23.1170 O   0  0  0  0  0  0  0  0  0  0  0  0
  -20.8570  -29.1690   21.6620 H   0  0  0  0  0  0  0  0  0  0  0  0
  -18.2980  -26.8730   22.6570 C   0  0  0  0  0  0  0  0  0  0  0  0
  -20.7470  -27.5940   23.0620 C   0  0  0  0  0  3  0  0  0  0  0  0
  -21.1400  -26.1820   22.5700 C   0  0  0  0  0  2  0  0  0  0  0  0
  -20.1780  -25.6200   21.5180 C   0  0  0  0  0  2  0  0  0  0  0  0
  -18.7560  -25.5440   22.0790 C   0  0  0  0  0  2  0  0  0  0  0  0
  -19.2360  -27.8400   23.1080 C   0  0  0  0  0  0  0  0  0  0  0  0
  -18.7630  -29.0710   23.6120 C   0  0  0  0  0  3  0  0  0  0  0  0
  -17.3830  -29.3420   23.6680 C   0  0  0  0  0  3  0  0  0  0  0  0
  -16.4590  -28.3760   23.2360 C   0  0  0  0  0  3  0  0  0  0  0  0
  -16.9160  -27.1440   22.7360 C   0  0  0  0  0  3  0  0  0  0  0  0
  -26.2600  -31.6900   23.3170 C   0  0  0  0  0  3  0  0  0  0  0  0
  -26.9400  -30.8010   24.4290 C   0  0  1  0  0  0  0  0  0  0  0  0
  -26.0350  -30.5430   25.6550 C   0  0  0  0  0  1  0  0  0  0  0  0
  -27.3530  -29.4280   23.8540 C   0  0  0  0  0  1  0  0  0  0  0  0
  -28.2360  -31.4830   24.9240 C   0  0  0  0  0  1  0  0  0  0  0  0
  -26.1230  -33.0810   23.7710 N   0  0  0  0  0  0  0  0  0  0  0  0
  -26.4210  -34.1550   23.0290 C   0  0  0  0  0  0  0  0  0  0  0  0
  -26.9170  -34.0750   21.9010 O   0  0  0  0  0  0  0  0  0  0  0  0
  -25.6680  -33.2240   24.6620 H   0  0  0  0  0  0  0  0  0  0  0  0
  -24.8090  -36.0840   23.0550 C   0  0  0  0  0  1  0  0  0  0  0  0
  -26.1240  -35.5410   23.6350 C   0  0  0  0  0  3  0  0  0  0  0  0
  -28.4270  -36.2080   24.1620 C   0  0  0  0  0  1  0  0  0  0  0  0
  -27.2090  -36.5220   23.4190 N   0  0  0  0  0  0  0  0  0  0  0  0
  -26.9080  -37.4560   23.6840 H   0  0  0  0  0  0  0  0  0  0  0  0
  1  2  1  0
  1  3  1  0
  1  4  1  0
  4  5  1  0
  6  5  1  0
  7  6  1  0
  8  7  1  0
  9 10  1  0
  9  8  1  0
 11 12  1  0
 11 10  1  0
 12 21  1  0
 13 21  1  0
 14 19  1  0
 15 14  1  0
 16 15  1  0
 17 16  1  0
 17 18  1  0
 19 18  1  0
 19 13  1  0
 20 13  2  0
 21 22  1  0
 23 24  2  0
 23 26  1  0
 24 25  1  0
 25 27  2  0
 25 28  1  0
 26 17  1  0
 26 27  1  0
 28 29  1  0
 29 30  2  0
 31 34  1  0
 31 30  1  0
 32 31  2  0
 33 32  1  0
 33 28  2  0
 34 35  1  0
 35 36  2  0
 35 40  1  0
 36 37  1  0
 37 38  2  0
 38 42  1  0
 39 38  1  0
 40 39  2  0
 41 40  1  0
 43 24  1  0
 43 44  1  0
 44 46  1  0
 45 43  2  0
 47 44  1  0
 48 23  1  0
 49 48  1  0
 50 48  1  0
 51  1  1  0
 52 51  1  0
 53 52  1  0
 54 55  1  0
 54 53  1  0
 55 57  1  0
 56 67  2  0
 57 62  1  0
 58 66  1  0
 58 68  1  0
 59 61  1  0
 59 65  1  0
 60 66  1  0
 61 60  1  0
 62 61  2  0
 63 64  1  0
 63 57  2  0
 64 59  2  0
 65 58  1  0
 66 56  1  0
 68 70  2  0
 69 68  1  0
 71 69  1  0
 72 81  2  0
 72 77  1  0
 73 69  1  0
 73 77  1  0
 74 73  1  0
 75 76  1  0
 75 74  1  0
 76 72  1  0
 77 78  2  0
 78 79  1  0
 80 79  2  0
 81 80  1  0
 82 56  1  0
 82 87  1  0
 82 83  1  0
 83 86  1  1
 83 84  1  0
 85 83  1  0
 87 90  1  0
 88 92  1  0
 88 87  1  0
 89 88  2  0
 92 91  1  0
 94 92  1  0
 94 95  1  0
 94 93  1  0
M  ISO  4  13 100  21 100  54 101  55 101
M  END
>  <TORSDO>  (45) 
F 29

>  <SCORE>  (45) 
7.901

>  <name>  (45) 
48

>  <ligand_id>  (45) 
48

>  <original_smiles>  (45) 
[H]c1c([H])c([H])c2c(c1[H])C([H])([H])C([H])([H])C([H])([H])C2([H])N([H])C(=O)C1([H])N(C(=O)C([H])(N([H])C(=O)C([H])(N([H])C([H])([H])[H])C([H])([H])[H])C(C([H])([H])[H])(C([H])([H])[H])C([H])([H])[H])C([H])([H])c2c([H])c(OC([H])([H])C([H])([H])C([H])([H])C([H])([H])[N+]([H])([H])C([H])([H])C([H])([H])C([H])([H])OC([H])([H])C([H])([H])OC([H])([H])C([H])([H])N([H])C(=O)N3C([H])([H])C([H])([H])C([H])([H])C([H])(n4nc(-c5c([H])c([H])c(Oc6c([H])c([H])c(F)c([H])c6F)c([H])c5[H])c(C(=O)N([H])[H])c4N([H])[H])C3([H])[H])c([H])c([H])c2C1([H])[H]

>  <smiles>  (45) 
[H]c1c([H])c([H])c2c(c1[H])C([H])([H])C([H])([H])C([H])([H])C2([H])N([H])C(=O)C1([H])N(C(=O)C([H])(N([H])C(=O)C([H])(N([H])C([H])([H])[H])C([H])([H])[H])C(C([H])([H])[H])(C([H])([H])[H])C([H])([H])[H])C([H])([H])c2c([H])c(OC([H])([H])C([H])([H])C([H])([H])C([H])([H])[N+]([H])([H])C([H])([H])C([H])([H])C([H])([H])OC([H])([H])C([H])([H])OC([H])([H])C([H])([H])N([H])C(=O)N3C([H])([H])C([H])([H])C([H])([H])C([H])(n4nc(-c5c([H])c([H])c(Oc6c([H])c([H])c(F)c([H])c6F)c([H])c5[H])c(C(=O)N([H])[H])c4N([H])[H])C3([H])[H])c([H])c([H])c2C1([H])[H]

$$$$
49:0:0
     RDKit          3D

 98105  0  0  1  0  0  0  0  0999 V2000
  -30.2750  -23.3100   26.0580 C   0  0  0  0  0  2  0  0  0  0  0  0
  -28.8860  -23.2410   26.3800 O   0  0  0  0  0  0  0  0  0  0  0  0
  -28.1610  -24.3790   25.9360 C   0  0  0  0  0  2  0  0  0  0  0  0
  -26.6710  -24.0290   25.8060 C   0  0  0  0  0  2  0  0  0  0  0  0
  -25.8930  -24.9920   24.8930 C   0  0  0  0  0  2  0  0  0  0  0  0
  -26.3470  -24.7970   23.5560 O   0  0  0  0  0  0  0  0  0  0  0  0
  -27.0600  -25.8930   22.9900 C   0  0  0  0  0  2  0  0  0  0  0  0
  -28.1290  -25.3260   22.0360 C   0  0  0  0  0  2  0  0  0  0  0  0
  -28.9650  -26.3890   21.2900 C   0  0  0  0  0  2  0  0  0  0  0  0
  -28.3770  -26.7200   20.0350 O   0  0  0  0  0  0  0  0  0  0  0  0
  -24.6100  -31.8700   23.2130 C   0  0  0  0  0  0  0  0  0  0  0  0
  -27.2350  -27.4750   20.0870 C   0  0  0  0  0  0  0  0  0  0  0  0
  -23.3950  -30.4920   21.5540 C   0  0  0  0  0  3  0  0  0  0  0  0
  -24.8400  -28.9580   20.1210 C   0  0  0  0  0  0  0  0  0  0  0  0
  -25.9170  -30.8440   21.3610 C   0  0  0  0  0  2  0  0  0  0  0  0
  -25.9950  -29.4770   20.7210 C   0  0  0  0  0  0  0  0  0  0  0  0
  -27.1950  -28.7390   20.7130 C   0  0  0  0  0  3  0  0  0  0  0  0
  -26.0730  -26.9630   19.4780 C   0  0  0  0  0  3  0  0  0  0  0  0
  -24.8700  -27.6940   19.5030 C   0  0  0  0  0  3  0  0  0  0  0  0
  -23.5990  -29.8190   20.1680 C   0  0  0  0  0  2  0  0  0  0  0  0
  -24.6590  -31.0830   22.1010 N   0  0  0  0  0  0  0  0  0  0  0  0
  -23.5310  -32.1420   23.7540 O   0  0  0  0  0  0  0  0  0  0  0  0
  -22.7370  -29.4670   22.5040 C   0  0  0  0  0  0  0  0  0  0  0  0
  -21.4100  -29.3040   22.3750 N   0  0  0  0  0  0  0  0  0  0  0  0
  -23.4140  -28.8220   23.3080 O   0  0  0  0  0  0  0  0  0  0  0  0
  -20.9270  -29.8700   21.6930 H   0  0  0  0  0  0  0  0  0  0  0  0
  -18.0250  -28.1410   22.8480 C   0  0  0  0  0  0  0  0  0  0  0  0
  -20.5830  -28.3700   23.1360 C   0  0  0  0  0  3  0  0  0  0  0  0
  -20.6780  -26.9440   22.5490 C   0  0  0  0  0  2  0  0  0  0  0  0
  -19.5820  -26.6440   21.5230 C   0  0  0  0  0  2  0  0  0  0  0  0
  -18.1930  -26.7970   22.1540 C   0  0  0  0  0  2  0  0  0  0  0  0
  -19.1490  -28.8860   23.2910 C   0  0  0  0  0  0  0  0  0  0  0  0
  -18.9440  -30.1450   23.8960 C   0  0  0  0  0  3  0  0  0  0  0  0
  -17.6450  -30.6600   24.0600 C   0  0  0  0  0  3  0  0  0  0  0  0
  -16.5330  -29.9130   23.6330 C   0  0  0  0  0  3  0  0  0  0  0  0
  -16.7240  -28.6540   23.0340 C   0  0  0  0  0  3  0  0  0  0  0  0
  -25.9010  -32.4830   23.8410 C   0  0  0  0  0  3  0  0  0  0  0  0
  -25.5880  -33.8640   24.2350 N   0  0  0  0  0  0  0  0  0  0  0  0
  -25.9020  -34.9490   23.5140 C   0  0  0  0  0  0  0  0  0  0  0  0
  -26.5600  -34.8940   22.4710 O   0  0  0  0  0  0  0  0  0  0  0  0
  -25.0050  -33.9830   25.0510 H   0  0  0  0  0  0  0  0  0  0  0  0
  -24.1470  -36.7340   23.2630 C   0  0  0  0  0  1  0  0  0  0  0  0
  -25.4100  -36.3150   24.0330 C   0  0  0  0  0  3  0  0  0  0  0  0
  -27.5580  -37.1820   24.8460 C   0  0  0  0  0  1  0  0  0  0  0  0
  -26.4300  -37.3830   23.9400 N   0  0  0  0  0  0  0  0  0  0  0  0
  -26.0190  -38.2910   24.1440 H   0  0  0  0  0  0  0  0  0  0  0  0
  -26.4470  -31.6590   25.0710 C   0  0  1  0  0  0  0  0  0  0  0  0
  -25.3780  -31.3660   26.1480 C   0  0  0  0  0  1  0  0  0  0  0  0
  -27.0280  -30.3010   24.6070 C   0  0  0  0  0  1  0  0  0  0  0  0
  -27.6050  -32.4310   25.7490 C   0  0  0  0  0  1  0  0  0  0  0  0
  -30.9230  -21.9400   26.3090 C   0  0  0  0  0  2  0  0  0  0  0  0
  -30.1270  -20.6070   24.3500 C   0  0  0  0  0  0  0  0  0  0  0  0
  -30.1650  -20.8710   25.6600 N   0  0  0  0  0  0  0  0  0  0  0  0
  -30.8160  -21.2080   23.5240 O   0  0  0  0  0  0  0  0  0  0  0  0
  -29.5540  -20.3330   26.2590 H   0  0  0  0  0  0  0  0  0  0  0  0
  -29.1490  -19.5160   23.9140 C   0  0  0  0  0  2  0  0  0  0  0  0
  -29.5660  -18.7760   22.6140 C   0  0  0  0  0  2  0  0  0  0  0  0
  -29.4150  -17.2450   22.6620 C   0  0  0  0  0  0  0  0  0  0  0  0
  -28.8810  -16.7030   23.6380 O   0  0  0  0  0  0  0  0  0  0  0  0
  -29.9630  -16.4100   21.5080 C   0  0  0  0  0  0  0  0  0  0  0  0
  -30.1180  -17.1520   20.1700 C   0  0  0  0  0  1  0  0  0  0  0  0
  -30.2360  -15.1670   21.7030 N   0  0  0  0  0  0  0  0  0  0  0  0
  -30.7650  -14.3730   20.7010 C   0  0  0  0  0  0  0  0  0  0  0  0
  -30.4200  -12.3050   19.3840 C   0  0  0  0  0  2  0  0  0  0  0  0
  -29.4810  -12.5390   18.1870 C   0  0  0  0  0  2  0  0  0  0  0  0
  -28.0070  -12.3870   18.6080 C   0  0  0  0  0  2  0  0  0  0  0  0
  -27.6680  -13.2000   19.8850 C   0  0  0  0  0  3  0  0  0  0  0  0
  -28.7100  -12.9320   20.9930 C   0  0  0  0  0  2  0  0  0  0  0  0
  -30.0450  -13.2480   20.4470 N   0  0  0  0  0  0  0  0  0  0  0  0
  -31.7860  -14.6530   20.0670 O   0  0  0  0  0  0  0  0  0  0  0  0
  -25.2610  -13.8150   20.5690 C   0  0  0  0  0  0  0  0  0  0  0  0
  -24.1860  -13.0440   20.9180 C   0  0  0  0  0  0  0  0  0  0  0  0
  -24.6390  -11.6900   20.8740 C   0  0  0  0  0  0  0  0  0  0  0  0
  -26.3060  -12.9310   20.3420 N   0  0  0  0  0  0  0  0  0  0  0  0
  -25.9320  -11.6470   20.5770 N   0  0  0  0  0  0  0  0  0  0  0  0
  -23.9060  -10.4290   21.0410 C   0  0  0  0  0  0  0  0  0  0  0  0
  -24.3610   -9.4210   21.9190 C   0  0  0  0  0  3  0  0  0  0  0  0
  -23.6290   -8.2240   22.0760 C   0  0  0  0  0  3  0  0  0  0  0  0
  -22.4270   -8.0280   21.3550 C   0  0  0  0  0  0  0  0  0  0  0  0
  -21.9900   -9.0250   20.4650 C   0  0  0  0  0  3  0  0  0  0  0  0
  -22.7230  -10.2140   20.3060 C   0  0  0  0  0  3  0  0  0  0  0  0
  -21.6640   -6.8880   21.4240 O   0  0  0  0  0  0  0  0  0  0  0  0
  -21.6850   -6.0740   22.5280 C   0  0  0  0  0  0  0  0  0  0  0  0
  -21.4010   -6.5640   23.8210 C   0  0  0  0  0  3  0  0  0  0  0  0
  -21.3660   -5.6800   24.9180 C   0  0  0  0  0  3  0  0  0  0  0  0
  -21.6050   -4.3060   24.7230 C   0  0  0  0  0  0  0  0  0  0  0  0
  -21.8820   -3.8150   23.4350 C   0  0  0  0  0  3  0  0  0  0  0  0
  -21.9190   -4.6960   22.3400 C   0  0  0  0  0  0  0  0  0  0  0  0
  -22.1660   -4.2140   21.0980 F   0  0  0  0  0  0  0  0  0  0  0  0
  -21.5630   -3.4540   25.7740 F   0  0  0  0  0  0  0  0  0  0  0  0
  -22.7870  -13.5240   21.1840 C   0  0  0  0  0  0  0  0  0  0  0  0
  -22.0510  -12.8240   22.0390 N   0  0  0  0  0  0  0  0  0  0  0  0
  -22.3540  -14.5550   20.6690 O   0  0  0  0  0  0  0  0  0  0  0  0
  -22.4110  -11.9890   22.4780 H   0  0  0  0  0  0  0  0  0  0  0  0
  -21.1130  -13.1270   22.2610 H   0  0  0  0  0  0  0  0  0  0  0  0
  -25.4350  -15.1870   20.4070 N   0  0  0  0  0  0  0  0  0  0  0  0
  -24.6760  -15.8500   20.5160 H   0  0  0  0  0  0  0  0  0  0  0  0
  -26.2950  -15.6190   20.0940 H   0  0  0  0  0  0  0  0  0  0  0  0
  1 51  1  0
  1  2  1  0
  3  2  1  0
  4  3  1  0
  5  4  1  0
  6  5  1  0
  7  6  1  0
  8  7  1  0
  9  8  1  0
 10 12  1  0
 10  9  1  0
 11 22  2  0
 12 17  1  0
 13 21  1  0
 13 23  1  0
 14 20  1  0
 14 16  1  0
 15 21  1  0
 16 15  1  0
 17 16  2  0
 18 19  1  0
 18 12  2  0
 19 14  2  0
 20 13  1  0
 21 11  1  0
 23 25  2  0
 24 23  1  0
 26 24  1  0
 27 36  2  0
 27 32  1  0
 28 24  1  0
 28 32  1  0
 29 28  1  0
 30 31  1  0
 30 29  1  0
 31 27  1  0
 32 33  2  0
 33 34  1  0
 35 34  2  0
 36 35  1  0
 37 11  1  0
 37 38  1  0
 37 47  1  0
 38 41  1  0
 39 43  1  0
 39 38  1  0
 40 39  2  0
 43 42  1  0
 45 43  1  0
 45 46  1  0
 45 44  1  0
 47 50  1  1
 47 48  1  0
 49 47  1  0
 52 53  1  0
 53 55  1  0
 53 51  1  0
 54 52  2  0
 56 52  1  0
 57 58  1  0
 57 56  1  0
 58 59  2  0
 60 62  2  0
 60 58  1  0
 61 60  1  0
 63 62  1  0
 64 69  1  0
 65 66  1  0
 65 64  1  0
 67 66  1  0
 67 74  1  0
 67 68  1  0
 69 63  1  0
 69 68  1  0
 70 63  2  0
 71 72  2  0
 72 91  1  0
 73 72  1  0
 73 76  1  0
 74 71  1  0
 74 75  1  0
 75 73  2  0
 76 77  1  0
 77 78  2  0
 79 82  1  0
 79 78  1  0
 80 79  2  0
 81 80  1  0
 81 76  2  0
 82 83  1  0
 83 84  1  0
 84 85  2  0
 86 85  1  0
 86 90  1  0
 87 86  2  0
 88 83  2  0
 88 87  1  0
 89 88  1  0
 91 92  1  0
 92 95  1  0
 92 94  1  0
 93 91  2  0
 96 97  1  0
 96 71  1  0
 98 96  1  0
M  ISO  4   9 101  10 101  62 100  63 100
M  END
>  <TORSDO>  (46) 
F 30

>  <SCORE>  (46) 
11.999

>  <name>  (46) 
49

>  <ligand_id>  (46) 
49

>  <original_smiles>  (46) 
[H]c1c([H])c([H])c2c(c1[H])C([H])([H])C([H])([H])C([H])([H])C2([H])N([H])C(=O)C1([H])N(C(=O)C([H])(N([H])C(=O)C([H])(N([H])C([H])([H])[H])C([H])([H])[H])C(C([H])([H])[H])(C([H])([H])[H])C([H])([H])[H])C([H])([H])c2c([H])c(OC([H])([H])C([H])([H])C([H])([H])OC([H])([H])C([H])([H])C([H])([H])OC([H])([H])C([H])([H])N([H])C(=O)C([H])([H])C([H])([H])C(=O)C(=NC(=O)N3C([H])([H])C([H])([H])C([H])([H])C([H])(n4nc(-c5c([H])c([H])c(Oc6c([H])c([H])c(F)c([H])c6F)c([H])c5[H])c(C(=O)N([H])[H])c4N([H])[H])C3([H])[H])C([H])([H])[H])c([H])c([H])c2C1([H])[H]

>  <smiles>  (46) 
[H]c1c([H])c([H])c2c(c1[H])C([H])([H])C([H])([H])C([H])([H])C2([H])N([H])C(=O)C1([H])N(C(=O)C([H])(N([H])C(=O)C([H])(N([H])C([H])([H])[H])C([H])([H])[H])C(C([H])([H])[H])(C([H])([H])[H])C([H])([H])[H])C([H])([H])c2c([H])c(OC([H])([H])C([H])([H])C([H])([H])OC([H])([H])C([H])([H])C([H])([H])OC([H])([H])C([H])([H])N([H])C(=O)C([H])([H])C([H])([H])C(=O)C(=NC(=O)N3C([H])([H])C([H])([H])C([H])([H])C([H])(n4nc(-c5c([H])c([H])c(Oc6c([H])c([H])c(F)c([H])c6F)c([H])c5[H])c(C(=O)N([H])[H])c4N([H])[H])C3([H])[H])C([H])([H])[H])c([H])c([H])c2C1([H])[H]

$$$$
50:0:0
     RDKit          3D

 94101  0  0  1  0  0  0  0  0999 V2000
  -30.8540  -20.8960   24.2770 C   0  0  0  0  0  2  0  0  0  0  0  0
  -30.5770  -19.3860   24.2020 C   0  0  0  0  0  2  0  0  0  0  0  0
  -30.8500  -17.5230   22.6070 C   0  0  0  0  0  0  0  0  0  0  0  0
  -31.0830  -18.7890   22.9710 N   0  0  0  0  0  0  0  0  0  0  0  0
  -30.1610  -16.7580   23.2890 O   0  0  0  0  0  0  0  0  0  0  0  0
  -31.6370  -19.3740   22.3600 H   0  0  0  0  0  0  0  0  0  0  0  0
  -31.4660  -17.0320   21.2850 C   0  0  0  0  0  3  0  0  0  0  0  0
  -31.6840  -14.7320   20.2830 C   0  0  0  0  0  0  0  0  0  0  0  0
  -31.2870  -12.6650   18.9980 C   0  0  0  0  0  2  0  0  0  0  0  0
  -30.3270  -12.9660   17.8280 C   0  0  0  0  0  2  0  0  0  0  0  0
  -28.8560  -12.8620   18.2800 C   0  0  0  0  0  2  0  0  0  0  0  0
  -28.5790  -13.6470   19.5890 C   0  0  0  0  0  3  0  0  0  0  0  0
  -29.6390  -13.3080   20.6610 C   0  0  0  0  0  2  0  0  0  0  0  0
  -30.9700  -13.5920   20.0920 N   0  0  0  0  0  0  0  0  0  0  0  0
  -32.7600  -14.9650   19.7230 O   0  0  0  0  0  0  0  0  0  0  0  0
  -31.0770  -15.6430   21.0510 N   0  0  0  0  0  0  0  0  0  0  0  0
  -30.2370  -15.3560   21.5320 H   0  0  0  0  0  0  0  0  0  0  0  0
  -26.2000  -14.3210   20.3140 C   0  0  0  0  0  0  0  0  0  0  0  0
  -25.1170  -13.5780   20.6950 C   0  0  0  0  0  0  0  0  0  0  0  0
  -25.5420  -12.2130   20.6610 C   0  0  0  0  0  0  0  0  0  0  0  0
  -27.2210  -13.4130   20.0770 N   0  0  0  0  0  0  0  0  0  0  0  0
  -26.8270  -12.1400   20.3390 N   0  0  0  0  0  0  0  0  0  0  0  0
  -24.7870  -10.9710   20.8620 C   0  0  0  0  0  0  0  0  0  0  0  0
  -25.1390  -10.0490   21.8720 C   0  0  0  0  0  3  0  0  0  0  0  0
  -24.3870   -8.8700   22.0570 C   0  0  0  0  0  3  0  0  0  0  0  0
  -23.2690   -8.6030   21.2300 C   0  0  0  0  0  0  0  0  0  0  0  0
  -22.9380   -9.5130   20.2110 C   0  0  0  0  0  3  0  0  0  0  0  0
  -23.6900  -10.6850   20.0250 C   0  0  0  0  0  3  0  0  0  0  0  0
  -22.4970   -7.4700   21.3190 O   0  0  0  0  0  0  0  0  0  0  0  0
  -22.1960   -6.8970   22.5290 C   0  0  0  0  0  0  0  0  0  0  0  0
  -21.5500   -7.6210   23.5550 C   0  0  0  0  0  3  0  0  0  0  0  0
  -21.1970   -6.9750   24.7570 C   0  0  0  0  0  3  0  0  0  0  0  0
  -21.4790   -5.6060   24.9300 C   0  0  0  0  0  0  0  0  0  0  0  0
  -22.1170   -4.8840   23.9070 C   0  0  0  0  0  3  0  0  0  0  0  0
  -22.4730   -5.5270   22.7080 C   0  0  0  0  0  0  0  0  0  0  0  0
  -23.0670   -4.8210   21.7170 F   0  0  0  0  0  0  0  0  0  0  0  0
  -21.1330   -4.9820   26.0810 F   0  0  0  0  0  0  0  0  0  0  0  0
  -23.7340  -14.0900   20.9830 C   0  0  0  0  0  0  0  0  0  0  0  0
  -23.0200  -13.4450   21.8990 N   0  0  0  0  0  0  0  0  0  0  0  0
  -23.2990  -15.0990   20.4310 O   0  0  0  0  0  0  0  0  0  0  0  0
  -23.3870  -12.6300   22.3680 H   0  0  0  0  0  0  0  0  0  0  0  0
  -22.0940  -13.7720   22.1350 H   0  0  0  0  0  0  0  0  0  0  0  0
  -26.3950  -15.6870   20.1330 N   0  0  0  0  0  0  0  0  0  0  0  0
  -25.6430  -16.3570   20.2500 H   0  0  0  0  0  0  0  0  0  0  0  0
  -27.2550  -16.1090   19.8050 H   0  0  0  0  0  0  0  0  0  0  0  0
  -29.6520  -17.9430   19.6540 C   0  0  0  0  0  1  0  0  0  0  0  0
  -31.1400  -17.9070   20.0480 C   0  0  0  0  0  2  0  0  0  0  0  0
  -30.0650  -21.5920   23.3140 O   0  0  0  0  0  0  0  0  0  0  0  0
  -30.0990  -23.0070   23.4980 C   0  0  0  0  0  2  0  0  0  0  0  0
  -28.9000  -23.6760   22.8010 C   0  0  0  0  0  2  0  0  0  0  0  0
  -29.2640  -24.2510   21.5460 O   0  0  0  0  0  0  0  0  0  0  0  0
  -28.1430  -24.8240   20.8700 C   0  0  0  0  0  2  0  0  0  0  0  0
  -28.5830  -25.7390   19.7000 C   0  0  0  0  0  2  0  0  0  0  0  0
  -28.5410  -27.1370   20.0240 O   0  0  0  0  0  0  0  0  0  0  0  0
  -24.6010  -32.0190   23.3430 C   0  0  0  0  0  0  0  0  0  0  0  0
  -27.3280  -27.7980   20.0340 C   0  0  0  0  0  0  0  0  0  0  0  0
  -23.4120  -30.6620   21.6510 C   0  0  0  0  0  3  0  0  0  0  0  0
  -24.8890  -29.2340   20.1400 C   0  0  0  0  0  0  0  0  0  0  0  0
  -25.9250  -31.0990   21.4430 C   0  0  0  0  0  2  0  0  0  0  0  0
  -26.0380  -29.7640   20.7370 C   0  0  0  0  0  0  0  0  0  0  0  0
  -27.2580  -29.0540   20.6780 C   0  0  0  0  0  3  0  0  0  0  0  0
  -26.1540  -27.2800   19.4350 C   0  0  0  0  0  3  0  0  0  0  0  0
  -24.9410  -27.9910   19.4870 C   0  0  0  0  0  3  0  0  0  0  0  0
  -23.6210  -30.0530   20.2400 C   0  0  0  0  0  2  0  0  0  0  0  0
  -24.6640  -31.2730   22.2050 N   0  0  0  0  0  0  0  0  0  0  0  0
  -23.5190  -32.2370   23.9070 O   0  0  0  0  0  0  0  0  0  0  0  0
  -22.8020  -29.5790   22.5690 C   0  0  0  0  0  0  0  0  0  0  0  0
  -21.4790  -29.3750   22.4550 N   0  0  0  0  0  0  0  0  0  0  0  0
  -23.5130  -28.9280   23.3380 O   0  0  0  0  0  0  0  0  0  0  0  0
  -20.9660  -29.9550   21.8060 H   0  0  0  0  0  0  0  0  0  0  0  0
  -18.1460  -28.0560   22.9110 C   0  0  0  0  0  0  0  0  0  0  0  0
  -20.6950  -28.3810   23.1890 C   0  0  0  0  0  3  0  0  0  0  0  0
  -20.8410  -26.9780   22.5560 C   0  0  0  0  0  2  0  0  0  0  0  0
  -19.7460  -26.6630   21.5320 C   0  0  0  0  0  2  0  0  0  0  0  0
  -18.3620  -26.7390   22.1820 C   0  0  0  0  0  2  0  0  0  0  0  0
  -19.2420  -28.8340   23.3680 C   0  0  0  0  0  0  0  0  0  0  0  0
  -18.9880  -30.0660   24.0080 C   0  0  0  0  0  3  0  0  0  0  0  0
  -17.6700  -30.5210   24.1950 C   0  0  0  0  0  3  0  0  0  0  0  0
  -16.5880  -29.7400   23.7550 C   0  0  0  0  0  3  0  0  0  0  0  0
  -16.8260  -28.5100   23.1180 C   0  0  0  0  0  3  0  0  0  0  0  0
  -25.8780  -32.6530   23.9790 C   0  0  0  0  0  3  0  0  0  0  0  0
  -26.3800  -31.8890   25.2650 C   0  0  1  0  0  0  0  0  0  0  0  0
  -25.2780  -31.6720   26.3290 C   0  0  0  0  0  1  0  0  0  0  0  0
  -26.9510  -30.5030   24.8860 C   0  0  0  0  0  1  0  0  0  0  0  0
  -27.5330  -32.6800   25.9260 C   0  0  0  0  0  1  0  0  0  0  0  0
  -25.5660  -34.0520   24.2960 N   0  0  0  0  0  0  0  0  0  0  0  0
  -25.9210  -35.1000   23.5400 C   0  0  0  0  0  0  0  0  0  0  0  0
  -26.6150  -34.9900   22.5240 O   0  0  0  0  0  0  0  0  0  0  0  0
  -24.9560  -34.2150   25.0830 H   0  0  0  0  0  0  0  0  0  0  0  0
  -24.2050  -36.8920   23.1310 C   0  0  0  0  0  1  0  0  0  0  0  0
  -25.4240  -36.4910   23.9770 C   0  0  0  0  0  3  0  0  0  0  0  0
  -27.5320  -37.3790   24.8670 C   0  0  0  0  0  1  0  0  0  0  0  0
  -26.4610  -37.5420   23.8850 N   0  0  0  0  0  0  0  0  0  0  0  0
  -26.0530  -38.4640   24.0120 H   0  0  0  0  0  0  0  0  0  0  0  0
  2  1  1  0
  3  4  1  0
  3  5  2  0
  4  2  1  0
  6  4  1  0
  7 47  1  0
  7  3  1  0
  8 16  1  0
  9 14  1  0
 10 11  1  0
 10  9  1  0
 12 11  1  0
 12 21  1  0
 12 13  1  0
 14  8  1  0
 14 13  1  0
 15  8  2  0
 16  7  1  0
 16 17  1  0
 18 19  2  0
 19 38  1  0
 20 19  1  0
 20 23  1  0
 21 18  1  0
 21 22  1  0
 22 20  2  0
 23 24  1  0
 24 25  2  0
 26 29  1  0
 26 25  1  0
 27 26  2  0
 28 27  1  0
 28 23  2  0
 29 30  1  0
 30 35  2  0
 30 31  1  0
 31 32  2  0
 32 33  1  0
 33 37  1  0
 34 33  2  0
 35 34  1  0
 36 35  1  0
 38 39  1  0
 39 42  1  0
 39 41  1  0
 40 38  2  0
 43 44  1  0
 43 18  1  0
 45 43  1  0
 46 47  1  0
 48 49  1  0
 48  1  1  0
 50 49  1  0
 51 50  1  0
 52 51  1  0
 53 54  1  0
 53 52  1  0
 54 56  1  0
 55 66  2  0
 56 61  1  0
 57 65  1  0
 57 67  1  0
 58 64  1  0
 58 60  1  0
 59 65  1  0
 60 59  1  0
 61 60  2  0
 62 63  1  0
 62 56  2  0
 63 58  2  0
 64 57  1  0
 65 55  1  0
 67 69  2  0
 68 67  1  0
 70 68  1  0
 71 80  2  0
 71 76  1  0
 72 68  1  0
 72 76  1  0
 73 72  1  0
 74 75  1  0
 74 73  1  0
 75 71  1  0
 76 77  2  0
 77 78  1  0
 79 78  2  0
 80 79  1  0
 81 55  1  0
 81 86  1  0
 81 82  1  0
 82 85  1  1
 82 83  1  0
 84 82  1  0
 86 89  1  0
 87 91  1  0
 87 86  1  0
 88 87  2  0
 91 90  1  0
 93 91  1  0
 93 94  1  0
 93 92  1  0
M  ISO  4   8 100  16 100  53 101  54 101
M  END
>  <TORSDO>  (47) 
F 26

>  <SCORE>  (47) 
-9.841

>  <name>  (47) 
50

>  <ligand_id>  (47) 
50

>  <original_smiles>  (47) 
[H]c1c([H])c([H])c2c(c1[H])C([H])([H])C([H])([H])C([H])([H])C2([H])N([H])C(=O)C1([H])N(C(=O)C([H])(N([H])C(=O)C([H])(N([H])C([H])([H])[H])C([H])([H])[H])C(C([H])([H])[H])(C([H])([H])[H])C([H])([H])[H])C([H])([H])c2c([H])c(OC([H])([H])C([H])([H])OC([H])([H])C([H])([H])OC([H])([H])C([H])([H])N([H])C(=O)C([H])(N([H])C(=O)N3C([H])([H])C([H])([H])C([H])([H])C([H])(n4nc(-c5c([H])c([H])c(Oc6c([H])c([H])c(F)c([H])c6F)c([H])c5[H])c(C(=O)N([H])[H])c4N([H])[H])C3([H])[H])C([H])([H])C([H])([H])[H])c([H])c([H])c2C1([H])[H]

>  <smiles>  (47) 
[H]c1c([H])c([H])c2c(c1[H])C([H])([H])C([H])([H])C([H])([H])C2([H])N([H])C(=O)C1([H])N(C(=O)C([H])(N([H])C(=O)C([H])(N([H])C([H])([H])[H])C([H])([H])[H])C(C([H])([H])[H])(C([H])([H])[H])C([H])([H])[H])C([H])([H])c2c([H])c(OC([H])([H])C([H])([H])OC([H])([H])C([H])([H])OC([H])([H])C([H])([H])N([H])C(=O)C([H])(N([H])C(=O)N3C([H])([H])C([H])([H])C([H])([H])C([H])(n4nc(-c5c([H])c([H])c(Oc6c([H])c([H])c(F)c([H])c6F)c([H])c5[H])c(C(=O)N([H])[H])c4N([H])[H])C3([H])[H])C([H])([H])C([H])([H])[H])c([H])c([H])c2C1([H])[H]

$$$$
51:0:0
     RDKit          3D

 96103  0  0  1  0  0  0  0  0999 V2000
  -34.0530  -21.3110   22.1370 C   0  0  0  0  0  2  0  0  0  0  0  0
  -33.2770  -22.2500   21.2000 C   0  0  0  0  0  2  0  0  0  0  0  0
  -33.1400  -23.6940   21.7080 C   0  0  0  0  0  2  0  0  0  0  0  0
  -32.2770  -24.3580   20.7940 O   0  0  0  0  0  0  0  0  0  0  0  0
  -31.7150  -25.5900   21.2320 C   0  0  0  0  0  2  0  0  0  0  0  0
  -30.4540  -25.7670   20.3760 C   0  0  0  0  0  2  0  0  0  0  0  0
  -29.5490  -26.9680   20.7030 C   0  0  0  0  0  2  0  0  0  0  0  0
  -28.3640  -26.6840   19.9760 O   0  0  0  0  0  0  0  0  0  0  0  0
  -24.6080  -31.8750   23.2120 C   0  0  0  0  0  0  0  0  0  0  0  0
  -27.2470  -27.4730   20.0900 C   0  0  0  0  0  0  0  0  0  0  0  0
  -23.3920  -30.4900   21.5550 C   0  0  0  0  0  3  0  0  0  0  0  0
  -24.8450  -28.9620   20.1220 C   0  0  0  0  0  0  0  0  0  0  0  0
  -25.9190  -30.8460   21.3680 C   0  0  0  0  0  2  0  0  0  0  0  0
  -26.0030  -29.4800   20.7220 C   0  0  0  0  0  0  0  0  0  0  0  0
  -27.2080  -28.7410   20.7150 C   0  0  0  0  0  3  0  0  0  0  0  0
  -26.0740  -26.9630   19.4990 C   0  0  0  0  0  3  0  0  0  0  0  0
  -24.8730  -27.6970   19.5130 C   0  0  0  0  0  3  0  0  0  0  0  0
  -23.6020  -29.8220   20.1700 C   0  0  0  0  0  2  0  0  0  0  0  0
  -24.6560  -31.0840   22.1030 N   0  0  0  0  0  0  0  0  0  0  0  0
  -23.5280  -32.1530   23.7510 O   0  0  0  0  0  0  0  0  0  0  0  0
  -22.7400  -29.4610   22.5060 C   0  0  0  0  0  0  0  0  0  0  0  0
  -21.4140  -29.2970   22.3830 N   0  0  0  0  0  0  0  0  0  0  0  0
  -23.4220  -28.8190   23.3080 O   0  0  0  0  0  0  0  0  0  0  0  0
  -20.9260  -29.8770   21.7160 H   0  0  0  0  0  0  0  0  0  0  0  0
  -18.0270  -28.1260   22.8480 C   0  0  0  0  0  0  0  0  0  0  0  0
  -20.5840  -28.3540   23.1350 C   0  0  0  0  0  3  0  0  0  0  0  0
  -20.6740  -26.9290   22.5400 C   0  0  0  0  0  2  0  0  0  0  0  0
  -19.5730  -26.6300   21.5170 C   0  0  0  0  0  2  0  0  0  0  0  0
  -18.1900  -26.7820   22.1590 C   0  0  0  0  0  2  0  0  0  0  0  0
  -19.1520  -28.8720   23.2900 C   0  0  0  0  0  0  0  0  0  0  0  0
  -18.9450  -30.1340   23.8860 C   0  0  0  0  0  3  0  0  0  0  0  0
  -17.6450  -30.6490   24.0510 C   0  0  0  0  0  3  0  0  0  0  0  0
  -16.5350  -29.8960   23.6290 C   0  0  0  0  0  3  0  0  0  0  0  0
  -16.7270  -28.6380   23.0330 C   0  0  0  0  0  3  0  0  0  0  0  0
  -25.9020  -32.4850   23.8380 C   0  0  0  0  0  3  0  0  0  0  0  0
  -25.5930  -33.8640   24.2340 N   0  0  0  0  0  0  0  0  0  0  0  0
  -25.9060  -34.9490   23.5130 C   0  0  0  0  0  0  0  0  0  0  0  0
  -26.5580  -34.8940   22.4660 O   0  0  0  0  0  0  0  0  0  0  0  0
  -25.0180  -33.9850   25.0550 H   0  0  0  0  0  0  0  0  0  0  0  0
  -24.1500  -36.7290   23.2630 C   0  0  0  0  0  1  0  0  0  0  0  0
  -25.4110  -36.3090   24.0340 C   0  0  0  0  0  3  0  0  0  0  0  0
  -27.5600  -37.1790   24.8480 C   0  0  0  0  0  1  0  0  0  0  0  0
  -26.4300  -37.3800   23.9430 N   0  0  0  0  0  0  0  0  0  0  0  0
  -26.0180  -38.2880   24.1420 H   0  0  0  0  0  0  0  0  0  0  0  0
  -26.4470  -31.6600   25.0670 C   0  0  1  0  0  0  0  0  0  0  0  0
  -25.3740  -31.3700   26.1420 C   0  0  0  0  0  1  0  0  0  0  0  0
  -27.0300  -30.3030   24.5990 C   0  0  0  0  0  1  0  0  0  0  0  0
  -27.6040  -32.4310   25.7450 C   0  0  0  0  0  1  0  0  0  0  0  0
  -33.9210  -19.9760   21.6580 O   0  0  0  0  0  0  0  0  0  0  0  0
  -34.4860  -19.0070   22.5350 C   0  0  0  0  0  2  0  0  0  0  0  0
  -34.3070  -17.6050   21.9310 C   0  0  0  0  0  2  0  0  0  0  0  0
  -32.2330  -16.3810   22.5990 C   0  0  0  0  0  0  0  0  0  0  0  0
  -32.8910  -17.2620   21.8350 N   0  0  0  0  0  0  0  0  0  0  0  0
  -32.8080  -15.6740   23.4300 O   0  0  0  0  0  0  0  0  0  0  0  0
  -32.3470  -17.7860   21.1610 H   0  0  0  0  0  0  0  0  0  0  0  0
  -30.0940  -17.3890   21.5390 C   0  0  0  0  0  1  0  0  0  0  0  0
  -30.0340  -16.3330   23.8130 C   0  0  0  0  0  1  0  0  0  0  0  0
  -30.6940  -16.2610   22.4160 C   0  0  2  0  0  0  0  0  0  0  0  0
  -30.7560  -14.3320   20.7430 C   0  0  0  0  0  0  0  0  0  0  0  0
  -30.4240  -12.2970   19.3790 C   0  0  0  0  0  2  0  0  0  0  0  0
  -29.4850  -12.5410   18.1830 C   0  0  0  0  0  2  0  0  0  0  0  0
  -28.0090  -12.3940   18.5960 C   0  0  0  0  0  2  0  0  0  0  0  0
  -27.6680  -13.1950   19.8780 C   0  0  0  0  0  3  0  0  0  0  0  0
  -28.7000  -12.8980   20.9870 C   0  0  0  0  0  2  0  0  0  0  0  0
  -30.0510  -13.2050   20.4710 N   0  0  0  0  0  0  0  0  0  0  0  0
  -31.7230  -14.7110   20.0730 O   0  0  0  0  0  0  0  0  0  0  0  0
  -30.3220  -14.9660   21.8440 N   0  0  0  0  0  0  0  0  0  0  0  0
  -29.5880  -14.4760   22.3330 H   0  0  0  0  0  0  0  0  0  0  0  0
  -25.2610  -13.8160   20.5640 C   0  0  0  0  0  0  0  0  0  0  0  0
  -24.1840  -13.0440   20.9160 C   0  0  0  0  0  0  0  0  0  0  0  0
  -24.6380  -11.6890   20.8710 C   0  0  0  0  0  0  0  0  0  0  0  0
  -26.3040  -12.9300   20.3320 N   0  0  0  0  0  0  0  0  0  0  0  0
  -25.9290  -11.6460   20.5690 N   0  0  0  0  0  0  0  0  0  0  0  0
  -23.9040  -10.4290   21.0390 C   0  0  0  0  0  0  0  0  0  0  0  0
  -24.3610   -9.4200   21.9170 C   0  0  0  0  0  3  0  0  0  0  0  0
  -23.6290   -8.2240   22.0750 C   0  0  0  0  0  3  0  0  0  0  0  0
  -22.4270   -8.0290   21.3540 C   0  0  0  0  0  0  0  0  0  0  0  0
  -21.9900   -9.0250   20.4640 C   0  0  0  0  0  3  0  0  0  0  0  0
  -22.7220  -10.2130   20.3040 C   0  0  0  0  0  3  0  0  0  0  0  0
  -21.6630   -6.8880   21.4230 O   0  0  0  0  0  0  0  0  0  0  0  0
  -21.6860   -6.0740   22.5270 C   0  0  0  0  0  0  0  0  0  0  0  0
  -21.4020   -6.5630   23.8210 C   0  0  0  0  0  3  0  0  0  0  0  0
  -21.3650   -5.6780   24.9170 C   0  0  0  0  0  3  0  0  0  0  0  0
  -21.6040   -4.3040   24.7210 C   0  0  0  0  0  0  0  0  0  0  0  0
  -21.8820   -3.8150   23.4330 C   0  0  0  0  0  3  0  0  0  0  0  0
  -21.9200   -4.6970   22.3410 C   0  0  0  0  0  0  0  0  0  0  0  0
  -22.1660   -4.2160   21.0980 F   0  0  0  0  0  0  0  0  0  0  0  0
  -21.5640   -3.4520   25.7720 F   0  0  0  0  0  0  0  0  0  0  0  0
  -22.7880  -13.5250   21.1840 C   0  0  0  0  0  0  0  0  0  0  0  0
  -22.0510  -12.8240   22.0400 N   0  0  0  0  0  0  0  0  0  0  0  0
  -22.3550  -14.5580   20.6720 O   0  0  0  0  0  0  0  0  0  0  0  0
  -22.4130  -11.9900   22.4760 H   0  0  0  0  0  0  0  0  0  0  0  0
  -21.1130  -13.1260   22.2610 H   0  0  0  0  0  0  0  0  0  0  0  0
  -25.4360  -15.1870   20.4060 N   0  0  0  0  0  0  0  0  0  0  0  0
  -24.6750  -15.8490   20.5160 H   0  0  0  0  0  0  0  0  0  0  0  0
  -26.3010  -15.6250   20.1120 H   0  0  0  0  0  0  0  0  0  0  0  0
  2  3  1  0
  2  1  1  0
  4  5  1  0
  4  3  1  0
  6  7  1  0
  6  5  1  0
  8 10  1  0
  8  7  1  0
  9 20  2  0
 10 15  1  0
 11 19  1  0
 11 21  1  0
 12 18  1  0
 12 14  1  0
 13 19  1  0
 14 13  1  0
 15 14  2  0
 16 17  1  0
 16 10  2  0
 17 12  2  0
 18 11  1  0
 19  9  1  0
 21 23  2  0
 22 21  1  0
 24 22  1  0
 25 34  2  0
 25 30  1  0
 26 22  1  0
 26 30  1  0
 27 26  1  0
 28 29  1  0
 28 27  1  0
 29 25  1  0
 30 31  2  0
 31 32  1  0
 33 32  2  0
 34 33  1  0
 35  9  1  0
 35 36  1  0
 35 45  1  0
 36 39  1  0
 37 41  1  0
 37 36  1  0
 38 37  2  0
 41 40  1  0
 43 41  1  0
 43 44  1  0
 43 42  1  0
 45 48  1  1
 45 46  1  0
 47 45  1  0
 49  1  1  0
 49 50  1  0
 51 50  1  0
 52 54  2  0
 53 51  1  0
 53 52  1  0
 55 53  1  0
 58 56  1  6
 58 52  1  0
 58 57  1  0
 59 67  1  0
 60 65  1  0
 61 62  1  0
 61 60  1  0
 63 62  1  0
 63 72  1  0
 63 64  1  0
 65 59  1  0
 65 64  1  0
 66 59  2  0
 67 68  1  0
 67 58  1  0
 69 70  2  0
 70 89  1  0
 71 70  1  0
 71 74  1  0
 72 69  1  0
 72 73  1  0
 73 71  2  0
 74 75  1  0
 75 76  2  0
 77 80  1  0
 77 76  1  0
 78 77  2  0
 79 78  1  0
 79 74  2  0
 80 81  1  0
 81 82  1  0
 82 83  2  0
 84 83  1  0
 84 88  1  0
 85 84  2  0
 86 81  2  0
 86 85  1  0
 87 86  1  0
 89 90  1  0
 90 93  1  0
 90 92  1  0
 91 89  2  0
 94 95  1  0
 94 69  1  0
 96 94  1  0
M  ISO  4   7 101   8 101  59 100  67 100
M  END
>  <TORSDO>  (48) 
F 27

>  <SCORE>  (48) 
7.046

>  <name>  (48) 
51

>  <ligand_id>  (48) 
51

>  <original_smiles>  (48) 
[H]c1c([H])c([H])c2c(c1[H])C([H])([H])C([H])([H])C([H])([H])C2([H])N([H])C(=O)C1([H])N(C(=O)C([H])(N([H])C(=O)C([H])(N([H])C([H])([H])[H])C([H])([H])[H])C(C([H])([H])[H])(C([H])([H])[H])C([H])([H])[H])C([H])([H])c2c([H])c(OC([H])([H])C([H])([H])C([H])([H])OC([H])([H])C([H])([H])C([H])([H])OC([H])([H])C([H])([H])N([H])C(=O)C(N([H])C(=O)N3C([H])([H])C([H])([H])C([H])([H])C([H])(n4nc(-c5c([H])c([H])c(Oc6c([H])c([H])c(F)c([H])c6F)c([H])c5[H])c(C(=O)N([H])[H])c4N([H])[H])C3([H])[H])(C([H])([H])[H])C([H])([H])[H])c([H])c([H])c2C1([H])[H]

>  <smiles>  (48) 
[H]c1c([H])c([H])c2c(c1[H])C([H])([H])C([H])([H])C([H])([H])C2([H])N([H])C(=O)C1([H])N(C(=O)C([H])(N([H])C(=O)C([H])(N([H])C([H])([H])[H])C([H])([H])[H])C(C([H])([H])[H])(C([H])([H])[H])C([H])([H])[H])C([H])([H])c2c([H])c(OC([H])([H])C([H])([H])C([H])([H])OC([H])([H])C([H])([H])C([H])([H])OC([H])([H])C([H])([H])N([H])C(=O)C(N([H])C(=O)N3C([H])([H])C([H])([H])C([H])([H])C([H])(n4nc(-c5c([H])c([H])c(Oc6c([H])c([H])c(F)c([H])c6F)c([H])c5[H])c(C(=O)N([H])[H])c4N([H])[H])C3([H])[H])(C([H])([H])[H])C([H])([H])[H])c([H])c([H])c2C1([H])[H]

$$$$
54:0:0
     RDKit          3D

 99106  0  0  1  0  0  0  0  0999 V2000
  -26.8550  -21.8050   19.5220 C   0  0  0  0  0  2  0  0  0  0  0  0
  -27.4070  -23.1210   19.1320 N   0  0  0  0  0  4  0  0  0  0  0  0
  -27.8650  -23.5050   19.9440 H   0  0  0  0  0  0  0  0  0  0  0  0
  -26.6150  -23.6930   18.8830 H   0  0  0  0  0  0  0  0  0  0  0  0
  -28.3520  -23.2440   17.9950 C   0  0  0  0  0  2  0  0  0  0  0  0
  -27.9520  -24.6000   15.8610 C   0  0  0  0  0  1  0  0  0  0  0  0
  -29.8550  -25.2150   17.3070 C   0  0  0  0  0  1  0  0  0  0  0  0
  -28.4050  -24.6980   17.3430 C   0  0  2  0  0  0  0  0  0  0  0  0
  -27.4990  -25.7050   18.1270 C   0  0  0  0  0  2  0  0  0  0  0  0
  -27.7810  -27.1270   18.1040 O   0  0  0  0  0  0  0  0  0  0  0  0
  -24.9760  -31.3990   23.2200 C   0  0  0  0  0  0  0  0  0  0  0  0
  -26.7360  -27.9170   18.5650 C   0  0  0  0  0  0  0  0  0  0  0  0
  -23.4370  -30.6270   21.4320 C   0  0  0  0  0  3  0  0  0  0  0  0
  -24.5510  -29.4680   19.4680 C   0  0  0  0  0  0  0  0  0  0  0  0
  -25.9620  -30.8160   21.0110 C   0  0  0  0  0  2  0  0  0  0  0  0
  -25.8200  -29.6920   20.0050 C   0  0  0  0  0  0  0  0  0  0  0  0
  -26.9220  -28.9030   19.5750 C   0  0  0  0  0  3  0  0  0  0  0  0
  -25.4490  -27.7880   17.9930 C   0  0  0  0  0  3  0  0  0  0  0  0
  -24.3520  -28.5120   18.4720 C   0  0  0  0  0  3  0  0  0  0  0  0
  -23.4360  -30.3700   19.9020 C   0  0  0  0  0  2  0  0  0  0  0  0
  -24.8100  -30.9590   21.9390 N   0  0  0  0  0  0  0  0  0  0  0  0
  -24.0030  -31.5760   23.9630 O   0  0  0  0  0  0  0  0  0  0  0  0
  -22.8010  -29.4170   22.1530 C   0  0  0  0  0  0  0  0  0  0  0  0
  -21.4620  -29.3420   22.1360 N   0  0  0  0  0  0  0  0  0  0  0  0
  -23.5090  -28.5640   22.6910 O   0  0  0  0  0  0  0  0  0  0  0  0
  -20.9460  -30.1090   21.7290 H   0  0  0  0  0  0  0  0  0  0  0  0
  -18.0820  -28.1180   22.4820 C   0  0  0  0  0  0  0  0  0  0  0  0
  -20.6520  -28.2630   22.7040 C   0  0  0  0  0  3  0  0  0  0  0  0
  -20.6940  -27.0000   21.8130 C   0  0  0  0  0  2  0  0  0  0  0  0
  -19.5510  -26.9220   20.7970 C   0  0  0  0  0  2  0  0  0  0  0  0
  -18.2020  -26.9470   21.5220 C   0  0  0  0  0  2  0  0  0  0  0  0
  -19.2320  -28.7470   23.0280 C   0  0  0  0  0  0  0  0  0  0  0  0
  -19.0640  -29.8540   23.8870 C   0  0  0  0  0  3  0  0  0  0  0  0
  -17.7830  -30.3280   24.2090 C   0  0  0  0  0  3  0  0  0  0  0  0
  -16.6460  -29.6910   23.6810 C   0  0  0  0  0  3  0  0  0  0  0  0
  -16.8000  -28.5820   22.8300 C   0  0  0  0  0  3  0  0  0  0  0  0
  -26.3950  -31.7280   23.7850 C   0  0  0  0  0  3  0  0  0  0  0  0
  -26.2890  -32.9810   24.5460 N   0  0  0  0  0  0  0  0  0  0  0  0
  -26.6520  -34.1840   24.0900 C   0  0  0  0  0  0  0  0  0  0  0  0
  -27.1900  -34.3530   22.9920 O   0  0  0  0  0  0  0  0  0  0  0  0
  -25.8260  -32.9340   25.4420 H   0  0  0  0  0  0  0  0  0  0  0  0
  -25.1130  -36.1300   24.5260 C   0  0  0  0  0  1  0  0  0  0  0  0
  -26.3790  -35.3980   24.9970 C   0  0  0  0  0  3  0  0  0  0  0  0
  -28.6780  -35.8380   25.7630 C   0  0  0  0  0  1  0  0  0  0  0  0
  -27.5030  -36.3560   25.0670 N   0  0  0  0  0  0  0  0  0  0  0  0
  -27.2070  -37.2110   25.5300 H   0  0  0  0  0  0  0  0  0  0  0  0
  -27.0020  -30.5770   24.6820 C   0  0  1  0  0  0  0  0  0  0  0  0
  -26.0520  -30.1030   25.8030 C   0  0  0  0  0  1  0  0  0  0  0  0
  -27.3710  -29.3400   23.8300 C   0  0  0  0  0  1  0  0  0  0  0  0
  -28.3090  -31.0590   25.3550 C   0  0  0  0  0  1  0  0  0  0  0  0
  -25.3140  -21.9160   19.4980 C   0  0  0  0  0  2  0  0  0  0  0  0
  -24.6330  -22.9770   20.4070 C   0  0  0  0  0  2  0  0  0  0  0  0
  -25.3070  -24.3590   20.6330 C   0  0  0  0  0  2  0  0  0  0  0  0
  -26.3450  -24.4140   21.7740 C   0  0  0  0  0  2  0  0  0  0  0  0
  -27.5680  -24.9800   21.3180 O   0  0  0  0  0  0  0  0  0  0  0  0
  -28.5540  -25.0730   22.3510 C   0  0  0  0  0  2  0  0  0  0  0  0
  -29.5980  -26.1370   21.9870 C   0  0  0  0  0  2  0  0  0  0  0  0
  -30.0370  -25.8700   20.6560 O   0  0  0  0  0  0  0  0  0  0  0  0
  -31.3540  -26.3080   20.3700 C   0  0  0  0  0  2  0  0  0  0  0  0
  -32.3390  -25.1300   20.4650 C   0  0  0  0  0  2  0  0  0  0  0  0
  -33.7890  -25.5840   20.2380 C   0  0  0  0  0  2  0  0  0  0  0  0
  -35.8250  -24.5970   19.2440 C   0  0  0  0  0  0  0  0  0  0  0  0
  -37.5490  -23.3690   17.9850 C   0  0  0  0  0  2  0  0  0  0  0  0
  -36.9330  -22.8220   16.6800 C   0  0  0  0  0  2  0  0  0  0  0  0
  -36.2730  -21.4520   16.9280 C   0  0  0  0  0  2  0  0  0  0  0  0
  -35.3150  -21.4610   18.1460 C   0  0  0  0  0  3  0  0  0  0  0  0
  -36.0040  -22.0950   19.3720 C   0  0  0  0  0  2  0  0  0  0  0  0
  -36.4720  -23.4340   18.9840 N   0  0  0  0  0  0  0  0  0  0  0  0
  -36.2140  -25.6940   18.8210 O   0  0  0  0  0  0  0  0  0  0  0  0
  -34.6820  -24.4720   19.9230 N   0  0  0  0  0  0  0  0  0  0  0  0
  -34.3880  -23.5320   20.1480 H   0  0  0  0  0  0  0  0  0  0  0  0
  -33.5060  -19.6920   18.6120 C   0  0  0  0  0  0  0  0  0  0  0  0
  -33.5880  -18.3320   18.8030 C   0  0  0  0  0  0  0  0  0  0  0  0
  -34.9740  -18.0070   18.7340 C   0  0  0  0  0  0  0  0  0  0  0  0
  -34.8130  -20.1220   18.4430 N   0  0  0  0  0  0  0  0  0  0  0  0
  -35.7010  -19.1040   18.5680 N   0  0  0  0  0  0  0  0  0  0  0  0
  -35.6440  -16.7000   18.7540 C   0  0  0  0  0  0  0  0  0  0  0  0
  -36.8020  -16.4790   19.5350 C   0  0  0  0  0  3  0  0  0  0  0  0
  -37.4220  -15.2120   19.5480 C   0  0  0  0  0  3  0  0  0  0  0  0
  -36.8820  -14.1490   18.7860 C   0  0  0  0  0  0  0  0  0  0  0  0
  -35.7470  -14.3810   17.9900 C   0  0  0  0  0  3  0  0  0  0  0  0
  -35.1330  -15.6440   17.9730 C   0  0  0  0  0  3  0  0  0  0  0  0
  -37.4290  -12.8880   18.7250 O   0  0  0  0  0  0  0  0  0  0  0  0
  -38.3110  -12.4410   19.6760 C   0  0  0  0  0  0  0  0  0  0  0  0
  -37.9840  -12.4350   21.0480 C   0  0  0  0  0  3  0  0  0  0  0  0
  -38.8890  -11.9000   21.9850 C   0  0  0  0  0  3  0  0  0  0  0  0
  -40.1130  -11.3570   21.5530 C   0  0  0  0  0  0  0  0  0  0  0  0
  -40.4350  -11.3500   20.1850 C   0  0  0  0  0  3  0  0  0  0  0  0
  -39.5340  -11.8850   19.2490 C   0  0  0  0  0  0  0  0  0  0  0  0
  -39.8400  -11.8620   17.9290 F   0  0  0  0  0  0  0  0  0  0  0  0
  -40.9780  -10.8310   22.4510 F   0  0  0  0  0  0  0  0  0  0  0  0
  -32.4360  -17.3830   18.9560 C   0  0  0  0  0  0  0  0  0  0  0  0
  -32.6310  -16.3100   19.7230 N   0  0  0  0  0  0  0  0  0  0  0  0
  -31.3430  -17.6190   18.4520 O   0  0  0  0  0  0  0  0  0  0  0  0
  -33.5290  -16.1330   20.1510 H   0  0  0  0  0  0  0  0  0  0  0  0
  -31.8800  -15.6510   19.8690 H   0  0  0  0  0  0  0  0  0  0  0  0
  -32.4400  -20.5780   18.5440 N   0  0  0  0  0  0  0  0  0  0  0  0
  -31.4760  -20.2650   18.5860 H   0  0  0  0  0  0  0  0  0  0  0  0
  -32.5280  -21.5710   18.3670 H   0  0  0  0  0  0  0  0  0  0  0  0
  2  1  1  0
  2  3  1  0
  4  2  1  0
  5  2  1  0
  8  6  1  6
  7  8  1  0
  8  5  1  0
  8  9  1  0
 10  9  1  0
 10 12  1  0
 11 22  2  0
 12 17  1  0
 13 21  1  0
 13 23  1  0
 14 20  1  0
 14 16  1  0
 15 21  1  0
 16 15  1  0
 17 16  2  0
 18 19  1  0
 18 12  2  0
 19 14  2  0
 20 13  1  0
 21 11  1  0
 23 25  2  0
 24 23  1  0
 26 24  1  0
 27 36  2  0
 27 32  1  0
 28 24  1  0
 28 32  1  0
 29 28  1  0
 30 31  1  0
 30 29  1  0
 31 27  1  0
 32 33  2  0
 33 34  1  0
 35 34  2  0
 36 35  1  0
 37 11  1  0
 37 38  1  0
 37 47  1  0
 38 41  1  0
 39 38  1  0
 39 43  1  0
 40 39  2  0
 43 42  1  0
 43 45  1  0
 45 46  1  0
 45 44  1  0
 47 50  1  1
 47 48  1  0
 49 47  1  0
 51  1  1  0
 51 52  1  0
 52 53  1  0
 53 54  1  0
 55 54  1  0
 55 56  1  0
 57 56  1  0
 58 57  1  0
 59 60  1  0
 59 58  1  0
 61 60  1  0
 62 70  1  0
 63 68  1  0
 64 65  1  0
 64 63  1  0
 66 65  1  0
 66 75  1  0
 66 67  1  0
 68 62  1  0
 68 67  1  0
 69 62  2  0
 70 71  1  0
 70 61  1  0
 72 73  2  0
 73 92  1  0
 74 77  1  0
 74 73  1  0
 75 76  1  0
 75 72  1  0
 76 74  2  0
 77 78  1  0
 78 79  2  0
 80 79  1  0
 81 80  2  0
 82 81  1  0
 82 77  2  0
 83 80  1  0
 83 84  1  0
 84 85  1  0
 85 86  2  0
 87 86  1  0
 87 91  1  0
 88 87  2  0
 89 84  2  0
 89 88  1  0
 90 89  1  0
 92 93  1  0
 93 96  1  0
 93 95  1  0
 94 92  2  0
 97 98  1  0
 97 72  1  0
 99 97  1  0
M  ISO  4   9 101  10 101  62 100  70 100
M  END
>  <TORSDO>  (49) 
F 31

>  <SCORE>  (49) 
-3.784

>  <name>  (49) 
54

>  <ligand_id>  (49) 
54

>  <original_smiles>  (49) 
[H]c1c([H])c([H])c2c(c1[H])C([H])([H])C([H])([H])C([H])([H])C2([H])N([H])C(=O)C1([H])N(C(=O)C([H])(N([H])C(=O)C([H])(N([H])C([H])([H])[H])C([H])([H])[H])C(C([H])([H])[H])(C([H])([H])[H])C([H])([H])[H])C([H])([H])c2c([H])c(OC([H])([H])C(C([H])([H])[H])(C([H])([H])[H])C([H])([H])[N+]([H])([H])C([H])([H])C([H])([H])C([H])([H])C([H])([H])C([H])([H])OC([H])([H])C([H])([H])OC([H])([H])C([H])([H])C([H])([H])N([H])C(=O)N3C([H])([H])C([H])([H])C([H])([H])C([H])(n4nc(-c5c([H])c([H])c(Oc6c([H])c([H])c(F)c([H])c6F)c([H])c5[H])c(C(=O)N([H])[H])c4N([H])[H])C3([H])[H])c([H])c([H])c2C1([H])[H]

>  <smiles>  (49) 
[H]c1c([H])c([H])c2c(c1[H])C([H])([H])C([H])([H])C([H])([H])C2([H])N([H])C(=O)C1([H])N(C(=O)C([H])(N([H])C(=O)C([H])(N([H])C([H])([H])[H])C([H])([H])[H])C(C([H])([H])[H])(C([H])([H])[H])C([H])([H])[H])C([H])([H])c2c([H])c(OC([H])([H])C(C([H])([H])[H])(C([H])([H])[H])C([H])([H])[N+]([H])([H])C([H])([H])C([H])([H])C([H])([H])C([H])([H])C([H])([H])OC([H])([H])C([H])([H])OC([H])([H])C([H])([H])C([H])([H])N([H])C(=O)N3C([H])([H])C([H])([H])C([H])([H])C([H])(n4nc(-c5c([H])c([H])c(Oc6c([H])c([H])c(F)c([H])c6F)c([H])c5[H])c(C(=O)N([H])[H])c4N([H])[H])C3([H])[H])c([H])c([H])c2C1([H])[H]

$$$$
55:0:0
     RDKit          3D

105112  0  0  1  0  0  0  0  0999 V2000
  -28.8150  -18.0790   25.7630 C   0  0  0  0  0  0  0  0  0  0  0  0
  -27.7340  -17.6370   26.4240 N   0  0  0  0  0  0  0  0  0  0  0  0
  -29.5230  -17.3330   25.0800 O   0  0  0  0  0  0  0  0  0  0  0  0
  -27.2230  -18.3110   26.9800 H   0  0  0  0  0  0  0  0  0  0  0  0
  -27.2110  -16.2700   26.4190 C   0  0  0  0  0  2  0  0  0  0  0  0
  -25.8300  -16.2120   25.7500 C   0  0  0  0  0  2  0  0  0  0  0  0
  -25.9710  -15.5830   24.4840 O   0  0  0  0  0  0  0  0  0  0  0  0
  -24.7370  -15.2240   23.8790 C   0  0  0  0  0  2  0  0  0  0  0  0
  -25.0420  -14.5500   22.5340 C   0  0  0  0  0  2  0  0  0  0  0  0
  -25.6590  -15.5350   21.5280 C   0  0  0  0  0  2  0  0  0  0  0  0
  -26.2010  -14.8230   20.4230 O   0  0  0  0  0  0  0  0  0  0  0  0
  -27.2700  -15.5240   19.8030 C   0  0  0  0  0  2  0  0  0  0  0  0
  -27.6350  -14.8900   18.4550 C   0  0  0  0  0  2  0  0  0  0  0  0
  -28.3620  -13.5450   18.5790 C   0  0  0  0  0  2  0  0  0  0  0  0
  -29.6380  -13.7070   19.1880 O   0  0  0  0  0  0  0  0  0  0  0  0
  -30.4330  -12.5310   19.0890 C   0  0  0  0  0  2  0  0  0  0  0  0
  -31.7700  -12.7320   19.8210 C   0  0  0  0  0  2  0  0  0  0  0  0
  -31.6690  -12.8530   21.3580 C   0  0  0  0  0  2  0  0  0  0  0  0
  -31.3190  -10.5990   22.4000 C   0  0  0  0  0  0  0  0  0  0  0  0
  -30.5830   -8.2730   22.7360 C   0  0  0  0  0  2  0  0  0  0  0  0
  -30.0910   -7.7080   21.3880 C   0  0  0  0  0  2  0  0  0  0  0  0
  -28.6070   -8.0580   21.1530 C   0  0  0  0  0  2  0  0  0  0  0  0
  -28.3010   -9.5600   21.3940 C   0  0  0  0  0  3  0  0  0  0  0  0
  -28.8930  -10.0200   22.7440 C   0  0  0  0  0  2  0  0  0  0  0  0
  -30.3380   -9.7210   22.7280 N   0  0  0  0  0  0  0  0  0  0  0  0
  -32.5180  -10.3050   22.3720 O   0  0  0  0  0  0  0  0  0  0  0  0
  -30.8730  -11.7870   21.9670 N   0  0  0  0  0  0  0  0  0  0  0  0
  -29.8760  -11.9310   22.0180 H   0  0  0  0  0  0  0  0  0  0  0  0
  -26.2120  -10.9630   20.8490 C   0  0  0  0  0  0  0  0  0  0  0  0
  -24.8760  -10.6840   20.9270 C   0  0  0  0  0  0  0  0  0  0  0  0
  -24.7830   -9.3550   21.4400 C   0  0  0  0  0  0  0  0  0  0  0  0
  -26.8680   -9.8330   21.3120 N   0  0  0  0  0  0  0  0  0  0  0  0
  -25.9920   -8.8820   21.7170 N   0  0  0  0  0  0  0  0  0  0  0  0
  -23.6190   -8.4830   21.6290 C   0  0  0  0  0  0  0  0  0  0  0  0
  -23.4440   -7.7300   22.8110 C   0  0  0  0  0  3  0  0  0  0  0  0
  -22.3070   -6.9110   22.9760 C   0  0  0  0  0  3  0  0  0  0  0  0
  -21.3280   -6.8420   21.9560 C   0  0  0  0  0  0  0  0  0  0  0  0
  -21.5190   -7.5740   20.7710 C   0  0  0  0  0  3  0  0  0  0  0  0
  -22.6550   -8.3850   20.6060 C   0  0  0  0  0  3  0  0  0  0  0  0
  -20.2070   -6.0520   22.0190 O   0  0  0  0  0  0  0  0  0  0  0  0
  -19.6780   -5.6450   23.2180 C   0  0  0  0  0  0  0  0  0  0  0  0
  -19.1530   -6.5660   24.1510 C   0  0  0  0  0  3  0  0  0  0  0  0
  -18.5580   -6.1010   25.3390 C   0  0  0  0  0  3  0  0  0  0  0  0
  -18.4770   -4.7190   25.5930 C   0  0  0  0  0  0  0  0  0  0  0  0
  -18.9940   -3.8000   24.6620 C   0  0  0  0  0  3  0  0  0  0  0  0
  -19.5900   -4.2630   23.4770 C   0  0  0  0  0  0  0  0  0  0  0  0
  -20.0680   -3.3740   22.5740 F   0  0  0  0  0  0  0  0  0  0  0  0
  -17.8970   -4.2700   26.7310 F   0  0  0  0  0  0  0  0  0  0  0  0
  -23.7490  -11.5610   20.4610 C   0  0  0  0  0  0  0  0  0  0  0  0
  -22.6060  -11.4970   21.1350 N   0  0  0  0  0  0  0  0  0  0  0  0
  -23.8920  -12.3440   19.5240 O   0  0  0  0  0  0  0  0  0  0  0  0
  -22.4940  -10.8670   21.9150 H   0  0  0  0  0  0  0  0  0  0  0  0
  -21.8300  -12.0850   20.8640 H   0  0  0  0  0  0  0  0  0  0  0  0
  -26.9240  -12.0720   20.4090 N   0  0  0  0  0  0  0  0  0  0  0  0
  -26.4640  -12.9220   20.1080 H   0  0  0  0  0  0  0  0  0  0  0  0
  -27.9310  -12.1490   20.4250 H   0  0  0  0  0  0  0  0  0  0  0  0
  -29.1550  -19.5650   25.9620 C   0  0  0  0  0  2  0  0  0  0  0  0
  -29.4950  -20.3020   24.6740 C   0  0  0  0  0  3  0  0  0  0  0  0
  -29.5980  -21.5710   24.6380 N   0  0  0  0  0  0  0  0  0  0  0  0
  -29.9270  -22.1780   23.3620 C   0  0  0  0  0  2  0  0  0  0  0  0
  -29.1920  -23.5200   23.2110 C   0  0  0  0  0  2  0  0  0  0  0  0
  -29.4420  -24.0340   21.9080 O   0  0  0  0  0  0  0  0  0  0  0  0
  -28.6780  -25.1940   21.5920 C   0  0  0  0  0  2  0  0  0  0  0  0
  -29.2270  -25.8320   20.3000 C   0  0  0  0  0  2  0  0  0  0  0  0
  -29.0910  -27.2570   20.2990 O   0  0  0  0  0  0  0  0  0  0  0  0
  -24.5980  -31.7160   23.4910 C   0  0  0  0  0  0  0  0  0  0  0  0
  -27.8280  -27.8070   20.2720 C   0  0  0  0  0  0  0  0  0  0  0  0
  -23.6260  -30.3380   21.6860 C   0  0  0  0  0  3  0  0  0  0  0  0
  -25.2960  -29.0600   20.2450 C   0  0  0  0  0  0  0  0  0  0  0  0
  -26.1070  -30.9590   21.6560 C   0  0  0  0  0  2  0  0  0  0  0  0
  -26.3610  -29.6520   20.9320 C   0  0  0  0  0  0  0  0  0  0  0  0
  -27.6270  -29.0330   20.9450 C   0  0  0  0  0  3  0  0  0  0  0  0
  -26.7430  -27.2190   19.5810 C   0  0  0  0  0  3  0  0  0  0  0  0
  -25.4820  -27.8440   19.5660 C   0  0  0  0  0  3  0  0  0  0  0  0
  -23.9720  -29.7880   20.2760 C   0  0  0  0  0  2  0  0  0  0  0  0
  -24.7920  -31.0140   22.3380 N   0  0  0  0  0  0  0  0  0  0  0  0
  -23.4690  -31.8350   23.9860 O   0  0  0  0  0  0  0  0  0  0  0  0
  -23.0350  -29.1850   22.5280 C   0  0  0  0  0  0  0  0  0  0  0  0
  -21.7690  -28.8320   22.2520 N   0  0  0  0  0  0  0  0  0  0  0  0
  -23.7130  -28.6150   23.3870 O   0  0  0  0  0  0  0  0  0  0  0  0
  -21.2770  -29.3570   21.5410 H   0  0  0  0  0  0  0  0  0  0  0  0
  -18.6240  -27.0590   22.1970 C   0  0  0  0  0  0  0  0  0  0  0  0
  -21.0150  -27.7530   22.8910 C   0  0  0  0  0  3  0  0  0  0  0  0
  -21.4630  -26.3720   22.3590 C   0  0  0  0  0  2  0  0  0  0  0  0
  -20.6190  -25.8800   21.1820 C   0  0  0  0  0  2  0  0  0  0  0  0
  -19.1450  -25.7700   21.5820 C   0  0  0  0  0  2  0  0  0  0  0  0
  -19.5050  -27.9950   22.7980 C   0  0  0  0  0  0  0  0  0  0  0  0
  -18.9740  -29.1930   23.3240 C   0  0  0  0  0  3  0  0  0  0  0  0
  -17.5930  -29.4560   23.2640 C   0  0  0  0  0  3  0  0  0  0  0  0
  -16.7220  -28.5160   22.6870 C   0  0  0  0  0  3  0  0  0  0  0  0
  -17.2380  -27.3200   22.1560 C   0  0  0  0  0  3  0  0  0  0  0  0
  -25.7800  -32.4170   24.2300 C   0  0  0  0  0  3  0  0  0  0  0  0
  -26.1350  -31.7450   25.6140 C   0  0  1  0  0  0  0  0  0  0  0  0
  -24.9130  -31.5540   26.5430 C   0  0  0  0  0  1  0  0  0  0  0  0
  -26.7830  -30.3590   25.3910 C   0  0  0  0  0  1  0  0  0  0  0  0
  -27.1750  -32.6070   26.3660 C   0  0  0  0  0  1  0  0  0  0  0  0
  -25.4150  -33.8260   24.4140 N   0  0  0  0  0  0  0  0  0  0  0  0
  -25.8410  -34.8300   23.6330 C   0  0  0  0  0  0  0  0  0  0  0  0
  -26.6480  -34.6690   22.7150 O   0  0  0  0  0  0  0  0  0  0  0  0
  -24.7090  -34.0220   25.1090 H   0  0  0  0  0  0  0  0  0  0  0  0
  -24.1440  -36.5490   22.9290 C   0  0  0  0  0  1  0  0  0  0  0  0
  -25.2760  -36.2360   23.9190 C   0  0  0  0  0  3  0  0  0  0  0  0
  -27.2920  -37.2100   24.9240 C   0  0  0  0  0  1  0  0  0  0  0  0
  -26.2980  -37.3020   23.8580 N   0  0  0  0  0  0  0  0  0  0  0  0
  -25.8650  -38.2210   23.9110 H   0  0  0  0  0  0  0  0  0  0  0  0
  1 57  1  0
  1  2  1  0
  2  4  1  0
  3  1  2  0
  5  2  1  0
  6  5  1  0
  7  6  1  0
  8  7  1  0
  9  8  1  0
 10  9  1  0
 11 10  1  0
 12 11  1  0
 13 14  1  0
 13 12  1  0
 14 15  1  0
 16 15  1  0
 16 17  1  0
 17 18  1  0
 18 27  1  0
 19 25  1  0
 21 20  1  0
 22 21  1  0
 23 22  1  0
 23 24  1  0
 25 20  1  0
 25 24  1  0
 26 19  2  0
 27 28  1  0
 27 19  1  0
 29 30  2  0
 29 32  1  0
 30 31  1  0
 31 34  1  0
 31 33  2  0
 32 23  1  0
 32 33  1  0
 34 35  1  0
 35 36  2  0
 37 40  1  0
 37 36  1  0
 38 37  2  0
 39 38  1  0
 39 34  2  0
 40 41  1  0
 41 46  2  0
 41 42  1  0
 42 43  2  0
 43 44  1  0
 44 48  1  0
 45 44  2  0
 46 45  1  0
 47 46  1  0
 49 30  1  0
 49 50  1  0
 50 52  1  0
 51 49  2  0
 53 50  1  0
 54 56  1  0
 54 29  1  0
 55 54  1  0
 58 57  1  0
 59 58  2  0
 60 59  1  0
 61 60  1  0
 62 61  1  0
 63 62  1  0
 64 63  1  0
 65 64  1  0
 66 77  2  0
 67 65  1  0
 67 72  1  0
 68 76  1  0
 68 78  1  0
 69 75  1  0
 69 71  1  0
 70 76  1  0
 71 72  2  0
 71 70  1  0
 73 67  2  0
 74 73  1  0
 74 69  2  0
 75 68  1  0
 76 66  1  0
 78 80  2  0
 79 78  1  0
 81 79  1  0
 82 87  1  0
 83 79  1  0
 84 83  1  0
 85 86  1  0
 85 84  1  0
 86 82  1  0
 87 83  1  0
 87 88  2  0
 89 88  1  0
 90 89  2  0
 91 82  2  0
 91 90  1  0
 92 66  1  0
 92 97  1  0
 92 93  1  0
 93 96  1  1
 93 94  1  0
 95 93  1  0
 97100  1  0
 98102  1  0
 98 97  1  0
 99 98  2  0
102101  1  0
104105  1  0
104102  1  0
104103  1  0
M  ISO  4  19 100  27 100  64 101  65 101
M  END
>  <TORSDO>  (50) 
F 37

>  <SCORE>  (50) 
17.068

>  <name>  (50) 
55

>  <ligand_id>  (50) 
55

>  <original_smiles>  (50) 
[H]C(=NC([H])([H])C([H])([H])OC([H])([H])C([H])([H])Oc1c([H])c([H])c2c(c1[H])C([H])([H])N(C(=O)C([H])(N([H])C(=O)C([H])(N([H])C([H])([H])[H])C([H])([H])[H])C(C([H])([H])[H])(C([H])([H])[H])C([H])([H])[H])C([H])(C(=O)N([H])C1([H])c3c([H])c([H])c([H])c([H])c3C([H])([H])C([H])([H])C1([H])[H])C2([H])[H])C([H])([H])C(=O)N([H])C([H])([H])C([H])([H])OC([H])([H])C([H])([H])C([H])([H])OC([H])([H])C([H])([H])C([H])([H])OC([H])([H])C([H])([H])C([H])([H])N([H])C(=O)N1C([H])([H])C([H])([H])C([H])([H])C([H])(n2nc(-c3c([H])c([H])c(Oc4c([H])c([H])c(F)c([H])c4F)c([H])c3[H])c(C(=O)N([H])[H])c2N([H])[H])C1([H])[H]

>  <smiles>  (50) 
[H]C(=NC([H])([H])C([H])([H])OC([H])([H])C([H])([H])Oc1c([H])c([H])c2c(c1[H])C([H])([H])N(C(=O)C([H])(N([H])C(=O)C([H])(N([H])C([H])([H])[H])C([H])([H])[H])C(C([H])([H])[H])(C([H])([H])[H])C([H])([H])[H])C([H])(C(=O)N([H])C1([H])c3c([H])c([H])c([H])c([H])c3C([H])([H])C([H])([H])C1([H])[H])C2([H])[H])C([H])([H])C(=O)N([H])C([H])([H])C([H])([H])OC([H])([H])C([H])([H])C([H])([H])OC([H])([H])C([H])([H])C([H])([H])OC([H])([H])C([H])([H])C([H])([H])N([H])C(=O)N1C([H])([H])C([H])([H])C([H])([H])C([H])(n2nc(-c3c([H])c([H])c(Oc4c([H])c([H])c(F)c([H])c4F)c([H])c3[H])c(C(=O)N([H])[H])c2N([H])[H])C1([H])[H]

$$$$
56:0:0
     RDKit          3D

109116  0  0  1  0  0  0  0  0999 V2000
  -32.7680  -19.6380   20.8550 C   0  0  0  0  0  3  0  0  0  0  0  0
  -33.3700  -18.8860   18.5320 C   0  0  0  0  0  0  0  0  0  0  0  0
  -33.4150  -19.7460   19.5530 N   0  0  0  0  0  0  0  0  0  0  0  0
  -32.7770  -17.8060   18.5850 O   0  0  0  0  0  0  0  0  0  0  0  0
  -33.9280  -20.6040   19.4060 H   0  0  0  0  0  0  0  0  0  0  0  0
  -34.1170  -19.3460   17.2660 C   0  0  0  0  0  3  0  0  0  0  0  0
  -34.1840  -17.7480   15.3720 C   0  0  0  0  0  0  0  0  0  0  0  0
  -34.3180  -16.5560   13.2210 C   0  0  0  0  0  2  0  0  0  0  0  0
  -35.0140  -17.4440   12.1730 C   0  0  0  0  0  2  0  0  0  0  0  0
  -33.9910  -18.3530   11.4690 C   0  0  0  0  0  2  0  0  0  0  0  0
  -33.0710  -19.1050   12.4660 C   0  0  0  0  0  3  0  0  0  0  0  0
  -32.4980  -18.1370   13.5290 C   0  0  0  0  0  2  0  0  0  0  0  0
  -33.6240  -17.4330   14.1750 N   0  0  0  0  0  0  0  0  0  0  0  0
  -35.2220  -17.2250   15.7960 O   0  0  0  0  0  0  0  0  0  0  0  0
  -33.5850  -18.7310   16.0480 N   0  0  0  0  0  0  0  0  0  0  0  0
  -32.7160  -19.0860   15.6820 H   0  0  0  0  0  0  0  0  0  0  0  0
  -31.8220  -21.2010   11.6430 C   0  0  0  0  0  0  0  0  0  0  0  0
  -30.7310  -21.3570   10.8320 C   0  0  0  0  0  0  0  0  0  0  0  0
  -30.3080  -20.0380   10.4840 C   0  0  0  0  0  0  0  0  0  0  0  0
  -32.0140  -19.8340   11.7660 N   0  0  0  0  0  0  0  0  0  0  0  0
  -31.0590  -19.1350   11.1010 N   0  0  0  0  0  0  0  0  0  0  0  0
  -29.2630  -19.5840    9.5570 C   0  0  0  0  0  0  0  0  0  0  0  0
  -28.0500  -19.0320   10.0260 C   0  0  0  0  0  3  0  0  0  0  0  0
  -27.0530  -18.6160    9.1160 C   0  0  0  0  0  3  0  0  0  0  0  0
  -27.2610  -18.7560    7.7240 C   0  0  0  0  0  0  0  0  0  0  0  0
  -28.4790  -19.2870    7.2610 C   0  0  0  0  0  3  0  0  0  0  0  0
  -29.4720  -19.6940    8.1680 C   0  0  0  0  0  3  0  0  0  0  0  0
  -26.3590  -18.3590    6.7660 O   0  0  0  0  0  0  0  0  0  0  0  0
  -25.2900  -17.5560    7.0730 C   0  0  0  0  0  0  0  0  0  0  0  0
  -24.0140  -18.0880    7.3510 C   0  0  0  0  0  3  0  0  0  0  0  0
  -22.9270  -17.2240    7.5920 C   0  0  0  0  0  3  0  0  0  0  0  0
  -23.1130  -15.8280    7.5460 C   0  0  0  0  0  0  0  0  0  0  0  0
  -24.3820  -15.2970    7.2620 C   0  0  0  0  0  3  0  0  0  0  0  0
  -25.4690  -16.1580    7.0240 C   0  0  0  0  0  0  0  0  0  0  0  0
  -26.6840  -15.6400    6.7310 F   0  0  0  0  0  0  0  0  0  0  0  0
  -22.0680  -14.9990    7.7700 F   0  0  0  0  0  0  0  0  0  0  0  0
  -30.1670  -22.6550   10.3300 C   0  0  0  0  0  0  0  0  0  0  0  0
  -28.8730  -22.8800   10.5320 N   0  0  0  0  0  0  0  0  0  0  0  0
  -30.8830  -23.5020    9.7970 O   0  0  0  0  0  0  0  0  0  0  0  0
  -28.2910  -22.1940   10.9900 H   0  0  0  0  0  0  0  0  0  0  0  0
  -28.4580  -23.7480   10.2250 H   0  0  0  0  0  0  0  0  0  0  0  0
  -32.6760  -22.1010   12.2730 N   0  0  0  0  0  0  0  0  0  0  0  0
  -32.5700  -23.1030   12.1670 H   0  0  0  0  0  0  0  0  0  0  0  0
  -33.4470  -21.8230   12.8640 H   0  0  0  0  0  0  0  0  0  0  0  0
  -34.0190  -20.8880   17.1130 C   0  0  0  0  0  2  0  0  0  0  0  0
  -34.9920  -21.4360   16.0570 C   0  0  0  0  0  2  0  0  0  0  0  0
  -34.6470  -22.8790   15.6470 C   0  0  0  0  0  2  0  0  0  0  0  0
  -35.7410  -23.5700   14.8110 C   0  0  0  0  0  2  0  0  0  0  0  0
  -35.9410  -22.9340   13.4960 N   0  0  0  0  0  4  0  0  0  0  0  0
  -36.2360  -21.9800   13.5940 H   0  0  0  0  0  0  0  0  0  0  0  0
  -36.6560  -23.4260   12.9880 H   0  0  0  0  0  0  0  0  0  0  0  0
  -35.0990  -22.9650   12.9510 H   0  0  0  0  0  0  0  0  0  0  0  0
  -33.7580  -20.0080   21.9780 C   0  0  0  0  0  0  0  0  0  0  0  0
  -35.0310  -19.6490   21.7600 N   0  0  0  0  0  0  0  0  0  0  0  0
  -33.3960  -20.6160   22.9870 O   0  0  0  0  0  0  0  0  0  0  0  0
  -35.2060  -19.1590   20.8940 H   0  0  0  0  0  0  0  0  0  0  0  0
  -36.1830  -19.8700   22.6280 C   0  0  0  0  0  2  0  0  0  0  0  0
  -36.6990  -21.3200   22.5670 C   0  0  0  0  0  2  0  0  0  0  0  0
  -36.8510  -21.7110   21.2070 O   0  0  0  0  0  0  0  0  0  0  0  0
  -36.6910  -23.1090   20.9980 C   0  0  0  0  0  2  0  0  0  0  0  0
  -37.6680  -23.5530   19.8980 C   0  0  0  0  0  2  0  0  0  0  0  0
  -37.2270  -24.7260   19.2210 O   0  0  0  0  0  0  0  0  0  0  0  0
  -37.0620  -25.8650   20.0630 C   0  0  0  0  0  2  0  0  0  0  0  0
  -36.8840  -27.1300   19.2000 C   0  0  0  0  0  2  0  0  0  0  0  0
  -36.6970  -28.2640   20.0450 O   0  0  0  0  0  0  0  0  0  0  0  0
  -34.8880  -34.5190   17.1890 C   0  0  0  0  0  0  0  0  0  0  0  0
  -37.1350  -29.4810   19.5710 C   0  0  0  0  0  0  0  0  0  0  0  0
  -37.3180  -34.0590   17.3040 C   0  0  0  0  0  3  0  0  0  0  0  0
  -37.9950  -32.0330   18.7000 C   0  0  0  0  0  0  0  0  0  0  0  0
  -35.7080  -33.0070   18.9900 C   0  0  0  0  0  2  0  0  0  0  0  0
  -36.6600  -31.8330   19.0790 C   0  0  0  0  0  0  0  0  0  0  0  0
  -36.2320  -30.5650   19.5310 C   0  0  0  0  0  3  0  0  0  0  0  0
  -38.4760  -29.6950   19.1800 C   0  0  0  0  0  3  0  0  0  0  0  0
  -38.9120  -30.9670   18.7540 C   0  0  0  0  0  3  0  0  0  0  0  0
  -38.3760  -33.4260   18.2480 C   0  0  0  0  0  2  0  0  0  0  0  0
  -35.9150  -33.8600   17.7970 N   0  0  0  0  0  0  0  0  0  0  0  0
  -35.0980  -35.3170   16.2630 O   0  0  0  0  0  0  0  0  0  0  0  0
  -37.5490  -33.5160   15.8750 C   0  0  0  0  0  0  0  0  0  0  0  0
  -38.6720  -33.9210   15.2600 N   0  0  0  0  0  0  0  0  0  0  0  0
  -36.7510  -32.7320   15.3540 O   0  0  0  0  0  0  0  0  0  0  0  0
  -39.2650  -34.5800   15.7450 H   0  0  0  0  0  0  0  0  0  0  0  0
  -41.3780  -34.2080   12.8870 C   0  0  0  0  0  0  0  0  0  0  0  0
  -39.1180  -33.5120   13.9300 C   0  0  0  0  0  3  0  0  0  0  0  0
  -39.6890  -32.0750   13.9480 C   0  0  0  0  0  2  0  0  0  0  0  0
  -41.2060  -32.0270   14.1620 C   0  0  0  0  0  2  0  0  0  0  0  0
  -41.9250  -32.7970   13.0500 C   0  0  0  0  0  2  0  0  0  0  0  0
  -40.0680  -34.5460   13.3170 C   0  0  0  0  0  0  0  0  0  0  0  0
  -39.6230  -35.8790   13.1780 C   0  0  0  0  0  3  0  0  0  0  0  0
  -40.4610  -36.8630   12.6200 C   0  0  0  0  0  3  0  0  0  0  0  0
  -41.7500  -36.5200   12.1820 C   0  0  0  0  0  3  0  0  0  0  0  0
  -42.2040  -35.1940   12.3090 C   0  0  0  0  0  3  0  0  0  0  0  0
  -33.4070  -34.3210   17.6420 C   0  0  0  0  0  3  0  0  0  0  0  0
  -32.4140  -34.0870   16.4400 C   0  0  1  0  0  0  0  0  0  0  0  0
  -32.1760  -35.3500   15.5790 C   0  0  0  0  0  1  0  0  0  0  0  0
  -32.9430  -32.9700   15.5080 C   0  0  0  0  0  1  0  0  0  0  0  0
  -31.0440  -33.6070   16.9750 C   0  0  0  0  0  1  0  0  0  0  0  0
  -33.0220  -35.5100   18.4150 N   0  0  0  0  0  0  0  0  0  0  0  0
  -33.0420  -35.5860   19.7520 C   0  0  0  0  0  0  0  0  0  0  0  0
  -33.3260  -34.6250   20.4740 O   0  0  0  0  0  0  0  0  0  0  0  0
  -32.8340  -36.3510   17.8900 H   0  0  0  0  0  0  0  0  0  0  0  0
  -33.9810  -37.6150   20.9030 C   0  0  0  0  0  1  0  0  0  0  0  0
  -32.6960  -36.9450   20.3900 C   0  0  0  0  0  3  0  0  0  0  0  0
  -30.3540  -36.5690   21.0270 C   0  0  0  0  0  1  0  0  0  0  0  0
  -31.7140  -36.8450   21.4910 N   0  0  0  0  0  0  0  0  0  0  0  0
  -31.6970  -37.7010   22.0360 H   0  0  0  0  0  0  0  0  0  0  0  0
  -31.3780  -20.3320   20.8750 C   0  0  0  0  0  2  0  0  0  0  0  0
  -30.6170  -22.7250   21.3860 C   0  0  0  0  0  1  0  0  0  0  0  0
  -30.6360  -21.9060   19.0050 C   0  0  0  0  0  1  0  0  0  0  0  0
  -31.3250  -21.8030   20.3790 C   0  0  0  0  0  3  0  0  0  0  0  0
  1106  1  0
  1 53  1  0
  2  4  2  0
  2  3  1  0
  3  1  1  0
  5  3  1  0
  6 45  1  0
  6  2  1  0
  7 14  2  0
  7 15  1  0
  8 13  1  0
  9  8  1  0
 10  9  1  0
 11 10  1  0
 11 12  1  0
 12 13  1  0
 13  7  1  0
 15  6  1  0
 16 15  1  0
 17 20  1  0
 17 42  1  0
 18 17  2  0
 19 18  1  0
 19 21  2  0
 20 11  1  0
 21 20  1  0
 22 23  1  0
 22 19  1  0
 24 23  2  0
 25 24  1  0
 26 25  2  0
 26 27  1  0
 27 22  2  0
 28 29  1  0
 28 25  1  0
 29 30  1  0
 30 31  2  0
 32 31  1  0
 32 36  1  0
 33 32  2  0
 34 29  2  0
 34 33  1  0
 35 34  1  0
 37 38  1  0
 37 18  1  0
 38 40  1  0
 39 37  2  0
 41 38  1  0
 42 44  1  0
 43 42  1  0
 46 45  1  0
 47 46  1  0
 48 47  1  0
 49 50  1  0
 49 48  1  0
 51 49  1  0
 52 49  1  0
 53 55  2  0
 54 53  1  0
 54 57  1  0
 56 54  1  0
 58 57  1  0
 59 58  1  0
 60 59  1  0
 61 60  1  0
 62 61  1  0
 62 63  1  0
 64 65  1  0
 64 63  1  0
 66 76  1  0
 67 65  1  0
 68 78  1  0
 68 76  1  0
 68 75  1  0
 69 74  2  0
 69 71  1  0
 70 71  1  0
 71 72  2  0
 72 67  1  0
 73 67  2  0
 74 73  1  0
 75 69  1  0
 76 70  1  0
 77 66  2  0
 79 81  1  0
 79 78  1  0
 80 78  2  0
 82 86  1  0
 82 87  1  0
 83 84  1  0
 83 79  1  0
 84 85  1  0
 86 85  1  0
 87 83  1  0
 88 87  2  0
 89 88  1  0
 90 91  1  0
 90 89  2  0
 91 82  2  0
 92 66  1  0
 92 97  1  0
 93 96  1  1
 93 92  1  0
 94 93  1  0
 95 93  1  0
 97 98  1  0
 98102  1  0
 98 99  2  0
100 97  1  0
102101  1  0
102104  1  0
103104  1  0
104105  1  0
108109  1  0
109106  1  0
109107  1  0
M  ISO  4   7 100  15 100  64 101  65 101
M  END
>  <TORSDO>  (51) 
F 34

>  <SCORE>  (51) 
-4.040

>  <name>  (51) 
56

>  <ligand_id>  (51) 
56

>  <original_smiles>  (51) 
[H]c1c([H])c([H])c2c(c1[H])C([H])([H])C([H])([H])C([H])([H])C2([H])N([H])C(=O)C1([H])N(C(=O)C([H])(N([H])C(=O)C([H])(N([H])C([H])([H])[H])C([H])([H])[H])C(C([H])([H])[H])(C([H])([H])[H])C([H])([H])[H])C([H])([H])c2c([H])c(OC([H])([H])C([H])([H])OC([H])([H])C([H])([H])OC([H])([H])C([H])([H])N([H])C(=O)C([H])(N([H])C(=O)C([H])(N([H])C(=O)N3C([H])([H])C([H])([H])C([H])([H])C([H])(n4nc(-c5c([H])c([H])c(Oc6c([H])c([H])c(F)c([H])c6F)c([H])c5[H])c(C(=O)N([H])[H])c4N([H])[H])C3([H])[H])C([H])([H])C([H])([H])C([H])([H])C([H])([H])[N+]([H])([H])[H])C([H])([H])C([H])(C([H])([H])[H])C([H])([H])[H])c([H])c([H])c2C1([H])[H]

>  <smiles>  (51) 
[H]c1c([H])c([H])c2c(c1[H])C([H])([H])C([H])([H])C([H])([H])C2([H])N([H])C(=O)C1([H])N(C(=O)C([H])(N([H])C(=O)C([H])(N([H])C([H])([H])[H])C([H])([H])[H])C(C([H])([H])[H])(C([H])([H])[H])C([H])([H])[H])C([H])([H])c2c([H])c(OC([H])([H])C([H])([H])OC([H])([H])C([H])([H])OC([H])([H])C([H])([H])N([H])C(=O)C([H])(N([H])C(=O)C([H])(N([H])C(=O)N3C([H])([H])C([H])([H])C([H])([H])C([H])(n4nc(-c5c([H])c([H])c(Oc6c([H])c([H])c(F)c([H])c6F)c([H])c5[H])c(C(=O)N([H])[H])c4N([H])[H])C3([H])[H])C([H])([H])C([H])([H])C([H])([H])C([H])([H])[N+]([H])([H])[H])C([H])([H])C([H])(C([H])([H])[H])C([H])([H])[H])c([H])c([H])c2C1([H])[H]

$$$$
57:0:0
     RDKit          3D

100107  0  0  1  0  0  0  0  0999 V2000
  -25.4040  -20.9830   25.3800 C   0  0  0  0  0  0  0  0  0  0  0  0
  -25.1370  -19.8830   24.8790 O   0  0  0  0  0  0  0  0  0  0  0  0
  -26.2660  -20.4010   27.6870 C   0  0  0  0  0  1  0  0  0  0  0  0
  -26.5620  -21.1700   26.3910 C   0  0  0  0  0  3  0  0  0  0  0  0
  -28.7300  -21.4490   25.1150 C   0  0  0  0  0  0  0  0  0  0  0  0
  -27.8850  -20.7610   25.8970 N   0  0  0  0  0  0  0  0  0  0  0  0
  -28.4290  -22.5140   24.5750 O   0  0  0  0  0  0  0  0  0  0  0  0
  -28.2330  -19.8820   26.2490 H   0  0  0  0  0  0  0  0  0  0  0  0
  -30.1420  -20.8690   24.9670 C   0  0  0  0  0  2  0  0  0  0  0  0
  -30.7130  -21.2450   23.7180 O   0  0  0  0  0  0  0  0  0  0  0  0
  -32.1260  -21.1010   23.7110 C   0  0  0  0  0  2  0  0  0  0  0  0
  -32.5860  -20.7240   22.3010 C   0  0  0  0  0  2  0  0  0  0  0  0
  -32.9360  -18.5330   21.2340 C   0  0  0  0  0  0  0  0  0  0  0  0
  -33.0360  -16.3710   20.0610 C   0  0  0  0  0  2  0  0  0  0  0  0
  -32.3930  -16.4880   18.6680 C   0  0  0  0  0  2  0  0  0  0  0  0
  -30.8720  -16.2530   18.7460 C   0  0  0  0  0  2  0  0  0  0  0  0
  -30.1920  -17.0980   19.8550 C   0  0  0  0  0  3  0  0  0  0  0  0
  -30.9610  -16.9660   21.1870 C   0  0  0  0  0  2  0  0  0  0  0  0
  -32.3710  -17.3330   20.9510 N   0  0  0  0  0  0  0  0  0  0  0  0
  -34.0620  -18.8650   20.8520 O   0  0  0  0  0  0  0  0  0  0  0  0
  -32.1910  -19.3590   21.9680 N   0  0  0  0  0  0  0  0  0  0  0  0
  -31.2820  -19.0390   22.2670 H   0  0  0  0  0  0  0  0  0  0  0  0
  -27.6530  -17.5470   19.9450 C   0  0  0  0  0  0  0  0  0  0  0  0
  -26.5800  -16.7090   20.0790 C   0  0  0  0  0  0  0  0  0  0  0  0
  -27.1220  -15.3920   20.2040 C   0  0  0  0  0  0  0  0  0  0  0  0
  -28.7800  -16.7410   20.0020 N   0  0  0  0  0  0  0  0  0  0  0  0
  -28.4480  -15.4400   20.2080 N   0  0  0  0  0  0  0  0  0  0  0  0
  -26.4550  -14.0850   20.2640 C   0  0  0  0  0  0  0  0  0  0  0  0
  -26.5730  -13.2460   21.3930 C   0  0  0  0  0  3  0  0  0  0  0  0
  -25.9100  -12.0010   21.4350 C   0  0  0  0  0  3  0  0  0  0  0  0
  -25.1140  -11.5840   20.3410 C   0  0  0  0  0  0  0  0  0  0  0  0
  -25.0180  -12.4120   19.2090 C   0  0  0  0  0  3  0  0  0  0  0  0
  -25.6850  -13.6480   19.1670 C   0  0  0  0  0  3  0  0  0  0  0  0
  -24.4600  -10.3760   20.2810 O   0  0  0  0  0  0  0  0  0  0  0  0
  -23.8540   -9.8290   21.3840 C   0  0  0  0  0  0  0  0  0  0  0  0
  -22.8380  -10.5110   22.0900 C   0  0  0  0  0  3  0  0  0  0  0  0
  -22.1950   -9.8840   23.1750 C   0  0  0  0  0  3  0  0  0  0  0  0
  -22.5560   -8.5770   23.5500 C   0  0  0  0  0  0  0  0  0  0  0  0
  -23.5620   -7.8940   22.8450 C   0  0  0  0  0  3  0  0  0  0  0  0
  -24.2080   -8.5190   21.7630 C   0  0  0  0  0  0  0  0  0  0  0  0
  -25.1620   -7.8490   21.0730 F   0  0  0  0  0  0  0  0  0  0  0  0
  -21.9320   -7.9730   24.5880 F   0  0  0  0  0  0  0  0  0  0  0  0
  -25.1280  -17.0880   20.0000 C   0  0  0  0  0  0  0  0  0  0  0  0
  -24.2660  -16.3720   20.7110 N   0  0  0  0  0  0  0  0  0  0  0  0
  -24.7570  -18.0570   19.3370 O   0  0  0  0  0  0  0  0  0  0  0  0
  -24.5700  -15.5890   21.2710 H   0  0  0  0  0  0  0  0  0  0  0  0
  -23.2840  -16.6120   20.6990 H   0  0  0  0  0  0  0  0  0  0  0  0
  -27.7650  -18.9220   19.7630 N   0  0  0  0  0  0  0  0  0  0  0  0
  -26.9510  -19.5190   19.6600 H   0  0  0  0  0  0  0  0  0  0  0  0
  -28.6400  -19.4190   19.6530 H   0  0  0  0  0  0  0  0  0  0  0  0
  -24.5310  -22.2200   25.0470 C   0  0  0  0  0  3  0  0  0  0  0  0
  -23.1660  -21.9720   25.3750 O   0  0  0  0  0  0  0  0  0  0  0  0
  -23.1360  -21.7300   26.2960 H   0  0  0  0  0  0  0  0  0  0  0  0
  -24.5750  -22.5970   23.5470 C   0  0  0  0  0  2  0  0  0  0  0  0
  -25.7570  -23.5010   23.1540 C   0  0  0  0  0  2  0  0  0  0  0  0
  -26.2440  -23.2270   21.7240 C   0  0  0  0  0  2  0  0  0  0  0  0
  -27.3270  -24.0950   21.4070 O   0  0  0  0  0  0  0  0  0  0  0  0
  -26.9000  -25.2210   20.6510 C   0  0  0  0  0  2  0  0  0  0  0  0
  -28.0580  -26.2000   20.3680 C   0  0  0  0  0  2  0  0  0  0  0  0
  -27.7470  -27.0980   19.3020 O   0  0  0  0  0  0  0  0  0  0  0  0
  -24.5700  -31.9400   23.4050 C   0  0  0  0  0  0  0  0  0  0  0  0
  -26.6260  -27.8510   19.5320 C   0  0  0  0  0  0  0  0  0  0  0  0
  -23.1070  -30.7530   21.8030 C   0  0  0  0  0  3  0  0  0  0  0  0
  -24.3030  -29.3630   20.0320 C   0  0  0  0  0  0  0  0  0  0  0  0
  -25.5890  -31.0920   21.3000 C   0  0  0  0  0  2  0  0  0  0  0  0
  -25.5420  -29.8000   20.5160 C   0  0  0  0  0  0  0  0  0  0  0  0
  -26.7080  -29.0440   20.2760 C   0  0  0  0  0  3  0  0  0  0  0  0
  -25.3790  -27.4350   19.0180 C   0  0  0  0  0  3  0  0  0  0  0  0
  -24.2140  -28.1770   19.2810 C   0  0  0  0  0  3  0  0  0  0  0  0
  -23.1040  -30.2290   20.3420 C   0  0  0  0  0  2  0  0  0  0  0  0
  -24.4490  -31.2680   22.2270 N   0  0  0  0  0  0  0  0  0  0  0  0
  -23.5820  -32.1700   24.1170 O   0  0  0  0  0  0  0  0  0  0  0  0
  -22.5600  -29.6410   22.7250 C   0  0  0  0  0  0  0  0  0  0  0  0
  -21.2640  -29.3200   22.5710 N   0  0  0  0  0  0  0  0  0  0  0  0
  -23.2970  -29.0700   23.5350 O   0  0  0  0  0  0  0  0  0  0  0  0
  -20.7280  -29.8400   21.8910 H   0  0  0  0  0  0  0  0  0  0  0  0
  -18.1110  -27.5700   22.7860 C   0  0  0  0  0  0  0  0  0  0  0  0
  -20.5440  -28.2780   23.3020 C   0  0  0  0  0  3  0  0  0  0  0  0
  -20.9520  -26.8680   22.8130 C   0  0  0  0  0  2  0  0  0  0  0  0
  -20.0350  -26.3180   21.7150 C   0  0  0  0  0  2  0  0  0  0  0  0
  -18.5860  -26.2490   22.2050 C   0  0  0  0  0  2  0  0  0  0  0  0
  -19.0320  -28.5280   23.2870 C   0  0  0  0  0  0  0  0  0  0  0  0
  -18.5410  -29.7550   23.7840 C   0  0  0  0  0  3  0  0  0  0  0  0
  -17.1610  -30.0290   23.7880 C   0  0  0  0  0  3  0  0  0  0  0  0
  -16.2530  -29.0730   23.3040 C   0  0  0  0  0  3  0  0  0  0  0  0
  -16.7270  -27.8440   22.8100 C   0  0  0  0  0  3  0  0  0  0  0  0
  -25.9490  -32.4750   23.9010 C   0  0  0  0  0  3  0  0  0  0  0  0
  -25.7700  -33.8830   24.2750 N   0  0  0  0  0  0  0  0  0  0  0  0
  -26.1220  -34.9240   23.5090 C   0  0  0  0  0  0  0  0  0  0  0  0
  -26.7070  -34.7940   22.4300 O   0  0  0  0  0  0  0  0  0  0  0  0
  -25.2500  -34.0620   25.1210 H   0  0  0  0  0  0  0  0  0  0  0  0
  -24.5100  -36.8410   23.2980 C   0  0  0  0  0  1  0  0  0  0  0  0
  -25.7690  -36.3340   24.0190 C   0  0  0  0  0  3  0  0  0  0  0  0
  -28.0130  -37.0430   24.7160 C   0  0  0  0  0  1  0  0  0  0  0  0
  -26.8660  -37.3120   23.8520 N   0  0  0  0  0  0  0  0  0  0  0  0
  -26.5390  -38.2560   24.0430 H   0  0  0  0  0  0  0  0  0  0  0  0
  -26.5370  -31.6470   25.1070 C   0  0  1  0  0  0  0  0  0  0  0  0
  -25.5300  -31.4240   26.2600 C   0  0  0  0  0  1  0  0  0  0  0  0
  -27.0200  -30.2580   24.6290 C   0  0  0  0  0  1  0  0  0  0  0  0
  -27.7750  -32.3710   25.6870 C   0  0  0  0  0  1  0  0  0  0  0  0
  1  4  1  0
  2  1  2  0
  4  3  1  0
  5  6  1  0
  6  8  1  0
  6  4  1  0
  7  5  2  0
  9  5  1  0
 10  9  1  0
 11 10  1  0
 12 11  1  0
 13 21  1  0
 14 19  1  0
 15 16  1  0
 15 14  1  0
 17 16  1  0
 17 26  1  0
 17 18  1  0
 19 18  1  0
 19 13  1  0
 20 13  2  0
 21 22  1  0
 21 12  1  0
 23 26  1  0
 23 24  2  0
 24 25  1  0
 25 27  2  0
 25 28  1  0
 26 27  1  0
 28 29  1  0
 29 30  2  0
 31 30  1  0
 32 31  2  0
 33 32  1  0
 33 28  2  0
 34 31  1  0
 34 35  1  0
 35 40  2  0
 35 36  1  0
 36 37  2  0
 37 38  1  0
 38 42  1  0
 39 38  2  0
 40 39  1  0
 41 40  1  0
 43 24  1  0
 43 44  1  0
 44 46  1  0
 45 43  2  0
 47 44  1  0
 48 23  1  0
 49 48  1  0
 50 48  1  0
 51 54  1  0
 51 52  1  0
 51  1  1  0
 52 53  1  0
 55 54  1  0
 56 55  1  0
 57 56  1  0
 58 57  1  0
 59 58  1  0
 60 62  1  0
 60 59  1  0
 61 72  2  0
 62 67  1  0
 63 71  1  0
 63 73  1  0
 64 70  1  0
 64 66  1  0
 65 71  1  0
 66 65  1  0
 67 66  2  0
 68 69  1  0
 68 62  2  0
 69 64  2  0
 70 63  1  0
 71 61  1  0
 73 75  2  0
 74 73  1  0
 76 74  1  0
 77 86  2  0
 77 82  1  0
 78 74  1  0
 79 78  1  0
 80 81  1  0
 80 79  1  0
 81 77  1  0
 82 78  1  0
 82 83  2  0
 83 84  1  0
 85 84  2  0
 86 85  1  0
 87 61  1  0
 87 88  1  0
 87 97  1  0
 88 91  1  0
 89 93  1  0
 89 88  1  0
 90 89  2  0
 93 92  1  0
 95 93  1  0
 95 96  1  0
 95 94  1  0
 97100  1  1
 97 98  1  0
 99 97  1  0
M  ISO  4  13 100  21 100  59 101  60 101
M  END
>  <TORSDO>  (52) 
F 30

>  <SCORE>  (52) 
32.143

>  <name>  (52) 
57

>  <ligand_id>  (52) 
57

>  <original_smiles>  (52) 
[H]OC([H])(C(=O)C([H])(N([H])C(=O)C([H])([H])OC([H])([H])C([H])([H])N([H])C(=O)N1C([H])([H])C([H])([H])C([H])([H])C([H])(n2nc(-c3c([H])c([H])c(Oc4c([H])c([H])c(F)c([H])c4F)c([H])c3[H])c(C(=O)N([H])[H])c2N([H])[H])C1([H])[H])C([H])([H])[H])C([H])([H])C([H])([H])C([H])([H])OC([H])([H])C([H])([H])Oc1c([H])c([H])c2c(c1[H])C([H])([H])N(C(=O)C([H])(N([H])C(=O)C([H])(N([H])C([H])([H])[H])C([H])([H])[H])C(C([H])([H])[H])(C([H])([H])[H])C([H])([H])[H])C([H])(C(=O)N([H])C1([H])c3c([H])c([H])c([H])c([H])c3C([H])([H])C([H])([H])C1([H])[H])C2([H])[H]

>  <smiles>  (52) 
[H]OC([H])(C(=O)C([H])(N([H])C(=O)C([H])([H])OC([H])([H])C([H])([H])N([H])C(=O)N1C([H])([H])C([H])([H])C([H])([H])C([H])(n2nc(-c3c([H])c([H])c(Oc4c([H])c([H])c(F)c([H])c4F)c([H])c3[H])c(C(=O)N([H])[H])c2N([H])[H])C1([H])[H])C([H])([H])[H])C([H])([H])C([H])([H])C([H])([H])OC([H])([H])C([H])([H])Oc1c([H])c([H])c2c(c1[H])C([H])([H])N(C(=O)C([H])(N([H])C(=O)C([H])(N([H])C([H])([H])[H])C([H])([H])[H])C(C([H])([H])[H])(C([H])([H])[H])C([H])([H])[H])C([H])(C(=O)N([H])C1([H])c3c([H])c([H])c([H])c([H])c3C([H])([H])C([H])([H])C1([H])[H])C2([H])[H]

$$$$
59:0:0
     RDKit          3D

102109  0  0  1  0  0  0  0  0999 V2000
  -30.9600  -27.3320   14.1170 C   0  0  0  0  0  2  0  0  0  0  0  0
  -31.8650  -28.4810   14.5840 C   0  0  0  0  0  2  0  0  0  0  0  0
  -31.0640  -29.5380   15.1030 O   0  0  0  0  0  0  0  0  0  0  0  0
  -31.7670  -30.3870   16.0160 C   0  0  0  0  0  2  0  0  0  0  0  0
  -31.2770  -30.0890   17.4410 C   0  0  0  0  0  2  0  0  0  0  0  0
  -31.1390  -28.6320   17.6740 N   0  0  0  0  0  4  0  0  0  0  0  0
  -30.6690  -28.2770   16.8550 H   0  0  0  0  0  0  0  0  0  0  0  0
  -32.0470  -28.1970   17.7360 H   0  0  0  0  0  0  0  0  0  0  0  0
  -30.3310  -28.2940   18.8600 C   0  0  0  0  0  2  0  0  0  0  0  0
  -29.8340  -26.8300   18.8790 C   0  0  0  0  0  2  0  0  0  0  0  0
  -29.0630  -26.5470   20.0490 O   0  0  0  0  0  0  0  0  0  0  0  0
  -25.0580  -31.5380   23.1350 C   0  0  0  0  0  0  0  0  0  0  0  0
  -27.8640  -27.2070   20.0900 C   0  0  0  0  0  0  0  0  0  0  0  0
  -23.9280  -30.1590   21.4210 C   0  0  0  0  0  3  0  0  0  0  0  0
  -25.4490  -28.6540   20.0390 C   0  0  0  0  0  0  0  0  0  0  0  0
  -26.4500  -30.5500   21.3200 C   0  0  0  0  0  2  0  0  0  0  0  0
  -26.5640  -29.1820   20.6870 C   0  0  0  0  0  0  0  0  0  0  0  0
  -27.7690  -28.4510   20.7400 C   0  0  0  0  0  3  0  0  0  0  0  0
  -26.7310  -26.6680   19.4450 C   0  0  0  0  0  3  0  0  0  0  0  0
  -25.5180  -27.3860   19.4220 C   0  0  0  0  0  3  0  0  0  0  0  0
  -24.1960  -29.5030   20.0400 C   0  0  0  0  0  2  0  0  0  0  0  0
  -25.1610  -30.7650   22.0160 N   0  0  0  0  0  0  0  0  0  0  0  0
  -23.9560  -31.7860   23.6400 O   0  0  0  0  0  0  0  0  0  0  0  0
  -23.2560  -29.1110   22.3380 C   0  0  0  0  0  0  0  0  0  0  0  0
  -21.9270  -28.9580   22.2000 N   0  0  0  0  0  0  0  0  0  0  0  0
  -23.9280  -28.4380   23.1250 O   0  0  0  0  0  0  0  0  0  0  0  0
  -21.4490  -29.5540   21.5370 H   0  0  0  0  0  0  0  0  0  0  0  0
  -18.5230  -27.8530   22.6700 C   0  0  0  0  0  0  0  0  0  0  0  0
  -21.0900  -28.0040   22.9270 C   0  0  0  0  0  3  0  0  0  0  0  0
  -21.1350  -26.6050   22.2710 C   0  0  0  0  0  2  0  0  0  0  0  0
  -20.0140  -26.3790   21.2530 C   0  0  0  0  0  2  0  0  0  0  0  0
  -18.6440  -26.5360   21.9210 C   0  0  0  0  0  2  0  0  0  0  0  0
  -19.6710  -28.5490   23.1290 C   0  0  0  0  0  0  0  0  0  0  0  0
  -19.5060  -29.7860   23.7900 C   0  0  0  0  0  3  0  0  0  0  0  0
  -18.2210  -30.3240   23.9960 C   0  0  0  0  0  3  0  0  0  0  0  0
  -17.0860  -29.6250   23.5540 C   0  0  0  0  0  3  0  0  0  0  0  0
  -17.2370  -28.3910   22.8950 C   0  0  0  0  0  3  0  0  0  0  0  0
  -26.3150  -32.1690   23.8150 C   0  0  0  0  0  3  0  0  0  0  0  0
  -25.9580  -33.5390   24.2110 N   0  0  0  0  0  0  0  0  0  0  0  0
  -26.2610  -34.6370   23.5100 C   0  0  0  0  0  0  0  0  0  0  0  0
  -26.9450  -34.6080   22.4810 O   0  0  0  0  0  0  0  0  0  0  0  0
  -25.3570  -33.6370   25.0170 H   0  0  0  0  0  0  0  0  0  0  0  0
  -24.4720  -36.3860   23.2300 C   0  0  0  0  0  1  0  0  0  0  0  0
  -25.7220  -35.9850   24.0290 C   0  0  0  0  0  3  0  0  0  0  0  0
  -27.8250  -36.9010   24.9050 C   0  0  0  0  0  1  0  0  0  0  0  0
  -26.7170  -37.0770   23.9700 N   0  0  0  0  0  0  0  0  0  0  0  0
  -26.2800  -37.9760   24.1590 H   0  0  0  0  0  0  0  0  0  0  0  0
  -26.8320  -31.3420   25.0540 C   0  0  1  0  0  0  0  0  0  0  0  0
  -25.7350  -31.0180   26.0930 C   0  0  0  0  0  1  0  0  0  0  0  0
  -27.4530  -30.0040   24.5900 C   0  0  0  0  0  1  0  0  0  0  0  0
  -27.9550  -32.1240   25.7750 C   0  0  0  0  0  1  0  0  0  0  0  0
  -31.7410  -26.0110   14.0000 C   0  0  0  0  0  2  0  0  0  0  0  0
  -30.8580  -24.8230   13.9990 N   0  0  0  0  0  4  0  0  0  0  0  0
  -30.8430  -24.4490   13.0610 H   0  0  0  0  0  0  0  0  0  0  0  0
  -29.9180  -25.1140   14.2150 H   0  0  0  0  0  0  0  0  0  0  0  0
  -31.2840  -23.7650   14.9520 C   0  0  0  0  0  2  0  0  0  0  0  0
  -30.4350  -22.4910   14.8440 C   0  0  0  0  0  2  0  0  0  0  0  0
  -30.9250  -21.5140   15.7660 O   0  0  0  0  0  0  0  0  0  0  0  0
  -30.4520  -20.1980   15.4890 C   0  0  0  0  0  2  0  0  0  0  0  0
  -29.4940  -19.6900   16.5790 C   0  0  0  0  0  2  0  0  0  0  0  0
  -30.2010  -19.2700   17.8790 C   0  0  0  0  0  2  0  0  0  0  0  0
  -29.2750  -18.4640   18.8120 C   0  0  0  0  0  2  0  0  0  0  0  0
  -30.0340  -17.6790   19.9030 C   0  0  0  0  0  2  0  0  0  0  0  0
  -29.1110  -16.6240   20.5390 C   0  0  0  0  0  2  0  0  0  0  0  0
  -30.5300  -14.5970   20.6370 C   0  0  0  0  0  0  0  0  0  0  0  0
  -30.3510  -12.4510   19.4500 C   0  0  0  0  0  2  0  0  0  0  0  0
  -29.3990  -12.6720   18.2530 C   0  0  0  0  0  2  0  0  0  0  0  0
  -27.9230  -12.4940   18.6670 C   0  0  0  0  0  2  0  0  0  0  0  0
  -27.5670  -13.2770   19.9560 C   0  0  0  0  0  3  0  0  0  0  0  0
  -28.6240  -13.0130   21.0560 C   0  0  0  0  0  2  0  0  0  0  0  0
  -29.9480  -13.3760   20.5190 N   0  0  0  0  0  0  0  0  0  0  0  0
  -31.6030  -14.8990   20.1110 O   0  0  0  0  0  0  0  0  0  0  0  0
  -29.7480  -15.5070   21.2470 N   0  0  0  0  0  0  0  0  0  0  0  0
  -29.1050  -15.0620   21.8860 H   0  0  0  0  0  0  0  0  0  0  0  0
  -25.1580  -13.8540   20.6700 C   0  0  0  0  0  0  0  0  0  0  0  0
  -24.0970  -13.0620   21.0190 C   0  0  0  0  0  0  0  0  0  0  0  0
  -24.5770  -11.7150   20.9620 C   0  0  0  0  0  0  0  0  0  0  0  0
  -26.2140  -12.9860   20.4210 N   0  0  0  0  0  0  0  0  0  0  0  0
  -25.8640  -11.6970   20.6480 N   0  0  0  0  0  0  0  0  0  0  0  0
  -23.8700  -10.4410   21.1330 C   0  0  0  0  0  0  0  0  0  0  0  0
  -24.3210   -9.4630   22.0470 C   0  0  0  0  0  3  0  0  0  0  0  0
  -23.6130   -8.2530   22.2030 C   0  0  0  0  0  3  0  0  0  0  0  0
  -22.4470   -8.0110   21.4440 C   0  0  0  0  0  0  0  0  0  0  0  0
  -22.0130   -8.9790   20.5210 C   0  0  0  0  0  3  0  0  0  0  0  0
  -22.7200  -10.1830   20.3610 C   0  0  0  0  0  3  0  0  0  0  0  0
  -21.7160   -6.8490   21.5070 O   0  0  0  0  0  0  0  0  0  0  0  0
  -21.6830   -6.0780   22.6410 C   0  0  0  0  0  0  0  0  0  0  0  0
  -21.2510   -6.6000   23.8790 C   0  0  0  0  0  3  0  0  0  0  0  0
  -21.1600   -5.7570   25.0060 C   0  0  0  0  0  3  0  0  0  0  0  0
  -21.5000   -4.3940   24.8940 C   0  0  0  0  0  0  0  0  0  0  0  0
  -21.9310   -3.8730   23.6600 C   0  0  0  0  0  3  0  0  0  0  0  0
  -22.0160   -4.7120   22.5370 C   0  0  0  0  0  0  0  0  0  0  0  0
  -22.4090   -4.2010   21.3450 F   0  0  0  0  0  0  0  0  0  0  0  0
  -21.4090   -3.5830   25.9730 F   0  0  0  0  0  0  0  0  0  0  0  0
  -22.6940  -13.5170   21.2990 C   0  0  0  0  0  0  0  0  0  0  0  0
  -21.9780  -12.8000   22.1590 N   0  0  0  0  0  0  0  0  0  0  0  0
  -22.2420  -14.5460   20.7940 O   0  0  0  0  0  0  0  0  0  0  0  0
  -22.3600  -11.9700   22.5880 H   0  0  0  0  0  0  0  0  0  0  0  0
  -21.0390  -13.0910   22.3910 H   0  0  0  0  0  0  0  0  0  0  0  0
  -25.3000  -15.2290   20.5240 N   0  0  0  0  0  0  0  0  0  0  0  0
  -24.5210  -15.8660   20.6460 H   0  0  0  0  0  0  0  0  0  0  0  0
  -26.1360  -15.6840   20.1820 H   0  0  0  0  0  0  0  0  0  0  0  0
  1  2  1  0
  2  3  1  0
  3  4  1  0
  4  5  1  0
  5  6  1  0
  6  8  1  0
  6  9  1  0
  7  6  1  0
  9 10  1  0
 10 11  1  0
 11 13  1  0
 12 23  2  0
 13 18  1  0
 14 22  1  0
 14 24  1  0
 15 21  1  0
 15 17  1  0
 16 22  1  0
 17 18  2  0
 17 16  1  0
 19 13  2  0
 20 19  1  0
 20 15  2  0
 21 14  1  0
 22 12  1  0
 24 26  2  0
 25 24  1  0
 27 25  1  0
 28 37  2  0
 28 33  1  0
 29 25  1  0
 29 33  1  0
 30 29  1  0
 31 32  1  0
 31 30  1  0
 32 28  1  0
 33 34  2  0
 34 35  1  0
 36 35  2  0
 37 36  1  0
 38 12  1  0
 38 39  1  0
 38 48  1  0
 39 42  1  0
 40 44  1  0
 40 39  1  0
 41 40  2  0
 44 43  1  0
 46 44  1  0
 46 47  1  0
 46 45  1  0
 48 51  1  1
 48 49  1  0
 50 48  1  0
 52  1  1  0
 53 52  1  0
 53 55  1  0
 53 56  1  0
 54 53  1  0
 57 56  1  0
 57 58  1  0
 59 58  1  0
 59 60  1  0
 60 61  1  0
 61 62  1  0
 62 63  1  0
 63 64  1  0
 64 73  1  0
 65 73  1  0
 66 71  1  0
 67 68  1  0
 67 66  1  0
 69 68  1  0
 69 78  1  0
 69 70  1  0
 71 65  1  0
 71 70  1  0
 72 65  2  0
 73 74  1  0
 75 76  2  0
 76 95  1  0
 77 76  1  0
 77 80  1  0
 78 79  1  0
 78 75  1  0
 79 77  2  0
 80 81  1  0
 81 82  2  0
 83 86  1  0
 83 82  1  0
 84 83  2  0
 85 84  1  0
 85 80  2  0
 86 87  1  0
 87 88  1  0
 88 89  2  0
 90 89  1  0
 90 94  1  0
 91 90  2  0
 92 87  2  0
 92 91  1  0
 93 92  1  0
 95 96  1  0
 96 99  1  0
 96 98  1  0
 97 95  2  0
100101  1  0
100 75  1  0
102100  1  0
M  ISO  4  10 101  11 101  65 100  73 100
M  END
>  <TORSDO>  (53) 
F 34

>  <SCORE>  (53) 
-8.818

>  <name>  (53) 
59

>  <ligand_id>  (53) 
59

>  <original_smiles>  (53) 
[H]c1c([H])c([H])c2c(c1[H])C([H])([H])C([H])([H])C([H])([H])C2([H])N([H])C(=O)C1([H])N(C(=O)C([H])(N([H])C(=O)C([H])(N([H])C([H])([H])[H])C([H])([H])[H])C(C([H])([H])[H])(C([H])([H])[H])C([H])([H])[H])C([H])([H])c2c([H])c(OC([H])([H])C([H])([H])[N+]([H])([H])C([H])([H])C([H])([H])OC([H])([H])C([H])([H])C([H])([H])[N+]([H])([H])C([H])([H])C([H])([H])OC([H])([H])C([H])([H])C([H])([H])C([H])([H])C([H])([H])C([H])([H])N([H])C(=O)N3C([H])([H])C([H])([H])C([H])([H])C([H])(n4nc(-c5c([H])c([H])c(Oc6c([H])c([H])c(F)c([H])c6F)c([H])c5[H])c(C(=O)N([H])[H])c4N([H])[H])C3([H])[H])c([H])c([H])c2C1([H])[H]

>  <smiles>  (53) 
[H]c1c([H])c([H])c2c(c1[H])C([H])([H])C([H])([H])C([H])([H])C2([H])N([H])C(=O)C1([H])N(C(=O)C([H])(N([H])C(=O)C([H])(N([H])C([H])([H])[H])C([H])([H])[H])C(C([H])([H])[H])(C([H])([H])[H])C([H])([H])[H])C([H])([H])c2c([H])c(OC([H])([H])C([H])([H])[N+]([H])([H])C([H])([H])C([H])([H])OC([H])([H])C([H])([H])C([H])([H])[N+]([H])([H])C([H])([H])C([H])([H])OC([H])([H])C([H])([H])C([H])([H])C([H])([H])C([H])([H])C([H])([H])N([H])C(=O)N3C([H])([H])C([H])([H])C([H])([H])C([H])(n4nc(-c5c([H])c([H])c(Oc6c([H])c([H])c(F)c([H])c6F)c([H])c5[H])c(C(=O)N([H])[H])c4N([H])[H])C3([H])[H])c([H])c([H])c2C1([H])[H]

$$$$
60:0:0
     RDKit          3D

 98105  0  0  1  0  0  0  0  0999 V2000
  -26.1900  -16.4370   18.4380 C   0  0  0  0  0  2  0  0  0  0  0  0
  -25.8490  -15.4310   17.3500 N   0  0  0  0  0  4  0  0  0  0  0  0
  -24.9300  -15.6880   17.0220 H   0  0  0  0  0  0  0  0  0  0  0  0
  -26.4590  -15.5910   16.5680 H   0  0  0  0  0  0  0  0  0  0  0  0
  -25.7630  -13.9190   17.6110 C   0  0  0  0  0  2  0  0  0  0  0  0
  -27.1240  -13.2250   17.9640 C   0  0  0  0  0  3  0  0  0  0  0  0
  -27.5270  -11.6950   18.3380 C   0  0  0  0  0  3  0  0  0  0  0  0
  -28.9840  -11.3740   18.2090 O   0  0  0  0  0  0  0  0  0  0  0  0
  -29.7610  -10.4980   19.1450 C   0  0  0  0  0  2  0  0  0  0  0  0
  -31.3880  -10.7180   19.3750 C   0  0  0  0  0  2  0  0  0  0  0  0
  -32.0750  -11.7900   20.4260 C   0  0  0  0  0  2  0  0  0  0  0  0
  -33.4190  -12.6930   20.1210 C   0  0  0  0  0  2  0  0  0  0  0  0
  -33.3310  -15.3540   20.0160 C   0  0  0  0  0  0  0  0  0  0  0  0
  -32.4140  -14.6900   18.1880 C   0  0  0  0  0  2  0  0  0  0  0  0
  -31.3900  -13.8510   17.5910 C   0  0  0  0  0  2  0  0  0  0  0  0
  -30.1580  -13.8100   18.4340 C   0  0  0  0  0  2  0  0  0  0  0  0
  -29.7960  -14.8030   19.5050 C   0  0  0  0  0  3  0  0  0  0  0  0
  -30.9760  -15.0700   20.4000 C   0  0  0  0  0  2  0  0  0  0  0  0
  -32.1740  -15.1110   19.5610 N   0  0  0  0  0  0  0  0  0  0  0  0
  -34.0230  -16.2870   19.5560 O   0  0  0  0  0  0  0  0  0  0  0  0
  -33.7190  -14.1530   20.5940 N   0  0  0  0  0  0  0  0  0  0  0  0
  -34.6050  -14.2450   21.0700 H   0  0  0  0  0  0  0  0  0  0  0  0
  -27.7370  -15.1720   20.9580 C   0  0  0  0  0  0  0  0  0  0  0  0
  -26.7060  -14.3800   21.3610 C   0  0  0  0  0  0  0  0  0  0  0  0
  -26.9720  -13.0750   20.8430 C   0  0  0  0  0  0  0  0  0  0  0  0
  -28.5910  -14.3730   20.2310 N   0  0  0  0  0  0  0  0  0  0  0  0
  -28.1530  -13.0750   20.2200 N   0  0  0  0  0  0  0  0  0  0  0  0
  -26.1460  -11.8560   20.8730 C   0  0  0  0  0  0  0  0  0  0  0  0
  -26.4610  -10.7640   21.7120 C   0  0  0  0  0  3  0  0  0  0  0  0
  -25.6300   -9.6190   21.7500 C   0  0  0  0  0  3  0  0  0  0  0  0
  -24.4580   -9.5590   20.9590 C   0  0  0  0  0  0  0  0  0  0  0  0
  -24.1560  -10.6420   20.1110 C   0  0  0  0  0  3  0  0  0  0  0  0
  -24.9870  -11.7750   20.0660 C   0  0  0  0  0  3  0  0  0  0  0  0
  -23.6030   -8.4810   20.9260 O   0  0  0  0  0  0  0  0  0  0  0  0
  -22.9740   -8.0240   22.0560 C   0  0  0  0  0  0  0  0  0  0  0  0
  -22.2110   -8.8780   22.8790 C   0  0  0  0  0  3  0  0  0  0  0  0
  -21.5240   -8.3550   23.9910 C   0  0  0  0  0  3  0  0  0  0  0  0
  -21.5810   -6.9780   24.2750 C   0  0  0  0  0  0  0  0  0  0  0  0
  -22.3300   -6.1230   23.4480 C   0  0  0  0  0  3  0  0  0  0  0  0
  -23.0210   -6.6420   22.3390 C   0  0  0  0  0  0  0  0  0  0  0  0
  -23.7280   -5.8090   21.5400 F   0  0  0  0  0  0  0  0  0  0  0  0
  -20.9090   -6.4760   25.3370 F   0  0  0  0  0  0  0  0  0  0  0  0
  -25.4920  -14.8350   22.1130 C   0  0  0  0  0  0  0  0  0  0  0  0
  -24.9450  -13.9870   22.9770 N   0  0  0  0  0  0  0  0  0  0  0  0
  -25.0590  -15.9800   21.9800 O   0  0  0  0  0  0  0  0  0  0  0  0
  -25.3320  -13.0670   23.1310 H   0  0  0  0  0  0  0  0  0  0  0  0
  -24.1350  -14.2740   23.5060 H   0  0  0  0  0  0  0  0  0  0  0  0
  -28.0200  -16.5200   21.1290 N   0  0  0  0  0  0  0  0  0  0  0  0
  -27.4830  -17.0890   21.7680 H   0  0  0  0  0  0  0  0  0  0  0  0
  -28.9170  -16.9230   20.9000 H   0  0  0  0  0  0  0  0  0  0  0  0
  -26.6390  -17.9060   17.9610 C   0  0  0  0  0  3  0  0  0  0  0  0
  -27.2530  -18.9390   19.0230 C   0  0  0  0  0  3  0  0  0  0  0  0
  -27.3780  -20.3560   18.6270 O   0  0  0  0  0  0  0  0  0  0  0  0
  -28.1940  -21.2710   19.4510 C   0  0  0  0  0  2  0  0  0  0  0  0
  -27.6950  -22.7880   19.5830 C   0  0  0  0  0  2  0  0  0  0  0  0
  -28.6730  -24.0570   19.5210 C   0  0  0  0  0  2  0  0  0  0  0  0
  -28.6820  -25.0900   20.7390 C   0  0  0  0  0  2  0  0  0  0  0  0
  -28.9350  -26.5430   20.5300 O   0  0  0  0  0  0  0  0  0  0  0  0
  -24.6660  -31.5190   23.6280 C   0  0  0  0  0  0  0  0  0  0  0  0
  -27.8050  -27.3590   20.4910 C   0  0  0  0  0  0  0  0  0  0  0  0
  -23.6930  -30.1200   21.8470 C   0  0  0  0  0  3  0  0  0  0  0  0
  -25.3460  -28.7840   20.4410 C   0  0  0  0  0  0  0  0  0  0  0  0
  -26.2080  -30.6450   21.8610 C   0  0  0  0  0  2  0  0  0  0  0  0
  -26.4360  -29.3220   21.1390 C   0  0  0  0  0  0  0  0  0  0  0  0
  -27.6790  -28.6200   21.1550 C   0  0  0  0  0  3  0  0  0  0  0  0
  -26.6930  -26.8870   19.7670 C   0  0  0  0  0  3  0  0  0  0  0  0
  -25.4710  -27.5710   19.7530 C   0  0  0  0  0  3  0  0  0  0  0  0
  -24.0460  -29.5570   20.4500 C   0  0  0  0  0  2  0  0  0  0  0  0
  -24.8700  -30.7760   22.5030 N   0  0  0  0  0  0  0  0  0  0  0  0
  -23.5300  -31.6800   24.0960 O   0  0  0  0  0  0  0  0  0  0  0  0
  -23.0650  -28.9940   22.7050 C   0  0  0  0  0  0  0  0  0  0  0  0
  -21.8050  -28.6370   22.4050 N   0  0  0  0  0  0  0  0  0  0  0  0
  -23.7130  -28.4510   23.6030 O   0  0  0  0  0  0  0  0  0  0  0  0
  -21.3370  -29.1370   21.6620 H   0  0  0  0  0  0  0  0  0  0  0  0
  -18.6210  -26.9170   22.3950 C   0  0  0  0  0  0  0  0  0  0  0  0
  -21.0290  -27.5840   23.0610 C   0  0  0  0  0  3  0  0  0  0  0  0
  -21.4470  -26.1850   22.5520 C   0  0  0  0  0  2  0  0  0  0  0  0
  -20.5880  -25.6860   21.3850 C   0  0  0  0  0  2  0  0  0  0  0  0
  -19.1150  -25.6100   21.7960 C   0  0  0  0  0  2  0  0  0  0  0  0
  -19.5220  -27.8490   22.9760 C   0  0  0  0  0  0  0  0  0  0  0  0
  -19.0140  -29.0620   23.4910 C   0  0  0  0  0  3  0  0  0  0  0  0
  -17.6380  -29.3500   23.4300 C   0  0  0  0  0  3  0  0  0  0  0  0
  -16.7490  -28.4170   22.8650 C   0  0  0  0  0  3  0  0  0  0  0  0
  -17.2400  -27.2020   22.3560 C   0  0  0  0  0  3  0  0  0  0  0  0
  -25.8460  -32.2230   24.3650 C   0  0  0  0  0  3  0  0  0  0  0  0
  -25.5080  -33.6480   24.4800 N   0  0  0  0  0  0  0  0  0  0  0  0
  -25.9900  -34.6120   23.6840 C   0  0  0  0  0  0  0  0  0  0  0  0
  -26.8350  -34.3970   22.8110 O   0  0  0  0  0  0  0  0  0  0  0  0
  -24.7790  -33.8890   25.1370 H   0  0  0  0  0  0  0  0  0  0  0  0
  -24.4170  -36.3670   22.8050 C   0  0  0  0  0  1  0  0  0  0  0  0
  -25.4540  -36.0420   23.8930 C   0  0  0  0  0  3  0  0  0  0  0  0
  -27.3880  -37.0010   25.0600 C   0  0  0  0  0  1  0  0  0  0  0  0
  -26.5130  -37.0740   23.8930 N   0  0  0  0  0  0  0  0  0  0  0  0
  -26.1100  -38.0060   23.8580 H   0  0  0  0  0  0  0  0  0  0  0  0
  -26.1470  -31.6060   25.7870 C   0  0  1  0  0  0  0  0  0  0  0  0
  -24.9010  -31.4960   26.6960 C   0  0  0  0  0  1  0  0  0  0  0  0
  -26.7560  -30.1910   25.6570 C   0  0  0  0  0  1  0  0  0  0  0  0
  -27.2000  -32.4720   26.5170 C   0  0  0  0  0  1  0  0  0  0  0  0
  2  5  1  0
  2  1  1  0
  3  2  1  0
  4  2  1  0
  5  6  1  0
  6  7  2  0
  8  7  1  0
  8  9  1  0
  9 10  1  0
 10 11  1  0
 12 11  1  0
 12 21  1  0
 13 21  1  0
 14 19  1  0
 15 14  1  0
 15 16  1  0
 17 16  1  0
 17 26  1  0
 17 18  1  0
 19 13  1  0
 19 18  1  0
 20 13  2  0
 21 22  1  0
 23 48  1  0
 23 24  2  0
 24 43  1  0
 25 28  1  0
 25 24  1  0
 26 23  1  0
 27 26  1  0
 27 25  2  0
 28 29  1  0
 29 30  2  0
 31 30  1  0
 32 31  2  0
 33 32  1  0
 33 28  2  0
 34 31  1  0
 34 35  1  0
 35 40  2  0
 35 36  1  0
 36 37  2  0
 37 38  1  0
 38 42  1  0
 39 38  2  0
 40 39  1  0
 41 40  1  0
 43 44  1  0
 44 46  1  0
 44 47  1  0
 45 43  2  0
 48 49  1  0
 50 48  1  0
 51  1  1  0
 51 52  2  0
 53 52  1  0
 53 54  1  0
 54 55  1  0
 56 55  1  0
 56 57  1  0
 58 57  1  0
 59 70  2  0
 60 58  1  0
 60 65  1  0
 61 69  1  0
 61 71  1  0
 62 68  1  0
 62 64  1  0
 63 69  1  0
 64 65  2  0
 64 63  1  0
 66 60  2  0
 67 66  1  0
 67 62  2  0
 68 61  1  0
 69 59  1  0
 71 73  2  0
 72 71  1  0
 74 72  1  0
 75 80  1  0
 76 72  1  0
 77 76  1  0
 78 79  1  0
 78 77  1  0
 79 75  1  0
 80 76  1  0
 80 81  2  0
 82 81  1  0
 83 82  2  0
 84 75  2  0
 84 83  1  0
 85 59  1  0
 85 86  1  0
 85 95  1  0
 86 89  1  0
 87 91  1  0
 87 86  1  0
 88 87  2  0
 91 90  1  0
 91 93  1  0
 93 92  1  0
 94 93  1  0
 95 98  1  1
 95 96  1  0
 97 95  1  0
M  ISO  4  13 100  21 100  57 101  58 101
M  END
>  <TORSDO>  (54) 
F 32

>  <SCORE>  (54) 
6.587

>  <name>  (54) 
60

>  <ligand_id>  (54) 
60

>  <original_smiles>  (54) 
[H]c1c([H])c([H])c2c(c1[H])C([H])([H])C([H])([H])C([H])([H])C2([H])N([H])C(=O)C1([H])N(C(=O)C([H])(N([H])C(=O)C([H])(N([H])C([H])([H])[H])C([H])([H])[H])C(C([H])([H])[H])(C([H])([H])[H])C([H])([H])[H])C([H])([H])c2c([H])c(OC([H])([H])C([H])([H])C([H])([H])C([H])([H])OC([H])([H])C([H])([H])C([H])([H])[N+]([H])([H])C([H])([H])C([H])([H])C([H])([H])OC([H])([H])C([H])([H])C([H])([H])C([H])([H])N([H])C(=O)N3C([H])([H])C([H])([H])C([H])([H])C([H])(n4nc(-c5c([H])c([H])c(Oc6c([H])c([H])c(F)c([H])c6F)c([H])c5[H])c(C(=O)N([H])[H])c4N([H])[H])C3([H])[H])c([H])c([H])c2C1([H])[H]

>  <smiles>  (54) 
[H]c1c([H])c([H])c2c(c1[H])C([H])([H])C([H])([H])C([H])([H])C2([H])N([H])C(=O)C1([H])N(C(=O)C([H])(N([H])C(=O)C([H])(N([H])C([H])([H])[H])C([H])([H])[H])C(C([H])([H])[H])(C([H])([H])[H])C([H])([H])[H])C([H])([H])c2c([H])c(OC([H])([H])C([H])([H])C([H])([H])C([H])([H])OC([H])([H])C([H])([H])C([H])([H])[N+]([H])([H])C([H])([H])C([H])([H])C([H])([H])OC([H])([H])C([H])([H])C([H])([H])C([H])([H])N([H])C(=O)N3C([H])([H])C([H])([H])C([H])([H])C([H])(n4nc(-c5c([H])c([H])c(Oc6c([H])c([H])c(F)c([H])c6F)c([H])c5[H])c(C(=O)N([H])[H])c4N([H])[H])C3([H])[H])c([H])c([H])c2C1([H])[H]

$$$$
61:0:0
     RDKit          3D

102109  0  0  1  0  0  0  0  0999 V2000
  -27.2380  -20.8930   19.7600 C   0  0  0  0  0  3  0  0  0  0  0  0
  -28.4980  -21.5070   20.2420 N   0  0  0  0  0  4  0  0  0  0  0  0
  -29.2680  -20.9190   19.9750 H   0  0  0  0  0  0  0  0  0  0  0  0
  -28.5350  -22.3680   19.7000 H   0  0  0  0  0  0  0  0  0  0  0  0
  -28.5850  -21.8490   21.6800 C   0  0  0  0  0  2  0  0  0  0  0  0
  -29.6270  -22.9530   21.9140 C   0  0  0  0  0  2  0  0  0  0  0  0
  -29.1100  -24.1940   21.4370 O   0  0  0  0  0  0  0  0  0  0  0  0
  -30.0650  -25.2530   21.5180 C   0  0  0  0  0  2  0  0  0  0  0  0
  -29.3690  -26.6240   21.4800 C   0  0  0  0  0  2  0  0  0  0  0  0
  -28.8290  -26.8730   20.1860 O   0  0  0  0  0  0  0  0  0  0  0  0
  -24.6330  -31.7600   23.2660 C   0  0  0  0  0  0  0  0  0  0  0  0
  -27.6550  -27.5850   20.1820 C   0  0  0  0  0  0  0  0  0  0  0  0
  -23.5790  -30.3470   21.5270 C   0  0  0  0  0  3  0  0  0  0  0  0
  -25.1800  -28.9410   20.1250 C   0  0  0  0  0  0  0  0  0  0  0  0
  -26.0830  -30.8560   21.4550 C   0  0  0  0  0  2  0  0  0  0  0  0
  -26.2750  -29.5120   20.7860 C   0  0  0  0  0  0  0  0  0  0  0  0
  -27.5150  -28.8390   20.8230 C   0  0  0  0  0  3  0  0  0  0  0  0
  -26.5520  -27.0320   19.5030 C   0  0  0  0  0  3  0  0  0  0  0  0
  -25.3110  -27.6960   19.4820 C   0  0  0  0  0  3  0  0  0  0  0  0
  -23.8870  -29.7250   20.1380 C   0  0  0  0  0  2  0  0  0  0  0  0
  -24.7790  -31.0010   22.1440 N   0  0  0  0  0  0  0  0  0  0  0  0
  -23.5160  -31.9550   23.7650 O   0  0  0  0  0  0  0  0  0  0  0  0
  -22.9450  -29.2630   22.4260 C   0  0  0  0  0  0  0  0  0  0  0  0
  -21.6330  -29.0330   22.2500 N   0  0  0  0  0  0  0  0  0  0  0  0
  -23.6300  -28.6300   23.2350 O   0  0  0  0  0  0  0  0  0  0  0  0
  -21.1420  -29.5990   21.5740 H   0  0  0  0  0  0  0  0  0  0  0  0
  -18.2890  -27.7190   22.6270 C   0  0  0  0  0  0  0  0  0  0  0  0
  -20.8340  -28.0340   22.9580 C   0  0  0  0  0  3  0  0  0  0  0  0
  -20.9880  -26.6390   22.3100 C   0  0  0  0  0  2  0  0  0  0  0  0
  -19.9130  -26.3390   21.2610 C   0  0  0  0  0  2  0  0  0  0  0  0
  -18.5170  -26.4120   21.8850 C   0  0  0  0  0  2  0  0  0  0  0  0
  -19.3780  -28.4890   23.1150 C   0  0  0  0  0  0  0  0  0  0  0  0
  -19.1140  -29.7140   23.7660 C   0  0  0  0  0  3  0  0  0  0  0  0
  -17.7940  -30.1710   23.9320 C   0  0  0  0  0  3  0  0  0  0  0  0
  -16.7200  -29.3990   23.4600 C   0  0  0  0  0  3  0  0  0  0  0  0
  -16.9680  -28.1750   22.8130 C   0  0  0  0  0  3  0  0  0  0  0  0
  -25.8550  -32.4370   23.9620 C   0  0  0  0  0  3  0  0  0  0  0  0
  -25.4860  -33.8300   24.2450 N   0  0  0  0  0  0  0  0  0  0  0  0
  -25.8350  -34.8780   23.4870 C   0  0  0  0  0  0  0  0  0  0  0  0
  -26.5730  -34.7780   22.5020 O   0  0  0  0  0  0  0  0  0  0  0  0
  -24.8360  -33.9810   25.0030 H   0  0  0  0  0  0  0  0  0  0  0  0
  -24.0760  -36.6070   22.9930 C   0  0  0  0  0  1  0  0  0  0  0  0
  -25.2770  -36.2590   23.8850 C   0  0  0  0  0  3  0  0  0  0  0  0
  -27.3260  -37.2300   24.8250 C   0  0  0  0  0  1  0  0  0  0  0  0
  -26.2800  -37.3430   23.8120 N   0  0  0  0  0  0  0  0  0  0  0  0
  -25.8370  -38.2510   23.9170 H   0  0  0  0  0  0  0  0  0  0  0  0
  -26.3100  -31.7000   25.2810 C   0  0  1  0  0  0  0  0  0  0  0  0
  -25.1550  -31.4400   26.2760 C   0  0  0  0  0  1  0  0  0  0  0  0
  -26.9620  -30.3370   24.9460 C   0  0  0  0  0  1  0  0  0  0  0  0
  -27.3860  -32.5400   26.0090 C   0  0  0  0  0  1  0  0  0  0  0  0
  -27.8060  -19.9870   17.4240 C   0  0  0  0  0  1  0  0  0  0  0  0
  -26.3500  -18.6160   18.9090 C   0  0  0  0  0  1  0  0  0  0  0  0
  -27.5380  -19.6140   18.9010 C   0  0  2  0  0  0  0  0  0  0  0  0
  -28.9100  -17.9560   20.2900 C   0  0  0  0  0  0  0  0  0  0  0  0
  -28.7610  -18.9360   19.3770 N   0  0  0  0  0  0  0  0  0  0  0  0
  -27.9860  -17.5670   21.0090 O   0  0  0  0  0  0  0  0  0  0  0  0
  -29.5990  -19.1160   18.8410 H   0  0  0  0  0  0  0  0  0  0  0  0
  -31.0190  -17.3830   19.0210 C   0  0  0  0  0  1  0  0  0  0  0  0
  -30.2970  -17.2810   20.3970 C   0  0  0  0  0  3  0  0  0  0  0  0
  -30.8600  -14.8130   20.6250 C   0  0  0  0  0  0  0  0  0  0  0  0
  -30.6080  -12.6460   19.5130 C   0  0  0  0  0  2  0  0  0  0  0  0
  -29.7220  -12.8720   18.2710 C   0  0  0  0  0  2  0  0  0  0  0  0
  -28.2320  -12.7350   18.6390 C   0  0  0  0  0  2  0  0  0  0  0  0
  -27.8400  -13.5690   19.8890 C   0  0  0  0  0  3  0  0  0  0  0  0
  -28.8510  -13.3550   21.0410 C   0  0  0  0  0  2  0  0  0  0  0  0
  -30.2000  -13.6320   20.5220 N   0  0  0  0  0  0  0  0  0  0  0  0
  -32.0500  -14.9470   20.3330 O   0  0  0  0  0  0  0  0  0  0  0  0
  -30.0580  -15.8770   20.7790 N   0  0  0  0  0  0  0  0  0  0  0  0
  -29.1000  -15.6920   21.0400 H   0  0  0  0  0  0  0  0  0  0  0  0
  -25.4200  -14.1710   20.5220 C   0  0  0  0  0  0  0  0  0  0  0  0
  -24.3330  -13.3930   20.8200 C   0  0  0  0  0  0  0  0  0  0  0  0
  -24.7920  -12.0410   20.7720 C   0  0  0  0  0  0  0  0  0  0  0  0
  -26.4690  -13.2900   20.3100 N   0  0  0  0  0  0  0  0  0  0  0  0
  -26.0940  -12.0020   20.5190 N   0  0  0  0  0  0  0  0  0  0  0  0
  -24.0530  -10.7780   20.9030 C   0  0  0  0  0  0  0  0  0  0  0  0
  -24.4490   -9.7810   21.8210 C   0  0  0  0  0  3  0  0  0  0  0  0
  -23.7120   -8.5830   21.9390 C   0  0  0  0  0  3  0  0  0  0  0  0
  -22.5650   -8.3740   21.1380 C   0  0  0  0  0  0  0  0  0  0  0  0
  -22.1880   -9.3620   20.2100 C   0  0  0  0  0  3  0  0  0  0  0  0
  -22.9260  -10.5500   20.0890 C   0  0  0  0  0  3  0  0  0  0  0  0
  -21.8020   -7.2310   21.1650 O   0  0  0  0  0  0  0  0  0  0  0  0
  -21.7030   -6.4600   22.2960 C   0  0  0  0  0  0  0  0  0  0  0  0
  -21.2210   -6.9840   23.5160 C   0  0  0  0  0  3  0  0  0  0  0  0
  -21.0700   -6.1400   24.6330 C   0  0  0  0  0  3  0  0  0  0  0  0
  -21.3900   -4.7730   24.5330 C   0  0  0  0  0  0  0  0  0  0  0  0
  -21.8650   -4.2470   23.3180 C   0  0  0  0  0  3  0  0  0  0  0  0
  -22.0180   -5.0900   22.2030 C   0  0  0  0  0  0  0  0  0  0  0  0
  -22.4560   -4.5750   21.0280 F   0  0  0  0  0  0  0  0  0  0  0  0
  -21.2380   -3.9600   25.6040 F   0  0  0  0  0  0  0  0  0  0  0  0
  -22.9290  -13.8700   21.0510 C   0  0  0  0  0  0  0  0  0  0  0  0
  -22.1740  -13.1640   21.8870 N   0  0  0  0  0  0  0  0  0  0  0  0
  -22.5090  -14.9020   20.5300 O   0  0  0  0  0  0  0  0  0  0  0  0
  -22.5260  -12.3320   22.3340 H   0  0  0  0  0  0  0  0  0  0  0  0
  -21.2290  -13.4620   22.0840 H   0  0  0  0  0  0  0  0  0  0  0  0
  -25.5970  -15.5440   20.4000 N   0  0  0  0  0  0  0  0  0  0  0  0
  -24.8250  -16.1910   20.5170 H   0  0  0  0  0  0  0  0  0  0  0  0
  -26.4890  -16.0140   20.3040 H   0  0  0  0  0  0  0  0  0  0  0  0
  -26.4120  -21.9850   19.0070 C   0  0  0  0  0  3  0  0  0  0  0  0
  -25.7040  -22.9590   19.9610 C   0  0  0  0  0  3  0  0  0  0  0  0
  -25.6800  -24.1710   19.7180 O   0  0  0  0  0  0  0  0  0  0  0  0
  -27.2450  -22.7120   18.0950 O   0  0  0  0  0  0  0  0  0  0  0  0
  -26.7290  -23.4660   17.8190 H   0  0  0  0  0  0  0  0  0  0  0  0
  1 53  1  0
  1  2  1  0
  2  5  1  0
  3  2  1  0
  4  2  1  0
  5  6  1  0
  7  8  1  0
  7  6  1  0
  9  8  1  0
 10  9  1  0
 11 22  2  0
 12 10  1  0
 12 17  1  0
 13 21  1  0
 13 23  1  0
 14 20  1  0
 14 16  1  0
 15 21  1  0
 16 17  2  0
 16 15  1  0
 18 12  2  0
 19 18  1  0
 19 14  2  0
 20 13  1  0
 21 11  1  0
 23 25  2  0
 24 23  1  0
 26 24  1  0
 27 36  2  0
 27 32  1  0
 28 24  1  0
 28 32  1  0
 29 28  1  0
 30 31  1  0
 30 29  1  0
 31 27  1  0
 32 33  2  0
 33 34  1  0
 35 34  2  0
 36 35  1  0
 37 11  1  0
 37 38  1  0
 37 47  1  0
 38 41  1  0
 39 43  1  0
 39 38  1  0
 40 39  2  0
 43 42  1  0
 45 43  1  0
 45 46  1  0
 45 44  1  0
 47 50  1  1
 47 48  1  0
 49 47  1  0
 53 51  1  6
 53 52  1  0
 53 55  1  0
 54 59  1  0
 54 56  2  0
 55 54  1  0
 57 55  1  0
 59 58  1  0
 59 68  1  0
 60 68  1  0
 61 66  1  0
 62 63  1  0
 62 61  1  0
 64 63  1  0
 64 73  1  0
 64 65  1  0
 66 60  1  0
 66 65  1  0
 67 60  2  0
 68 69  1  0
 70 71  2  0
 71 90  1  0
 72 71  1  0
 72 75  1  0
 73 74  1  0
 73 70  1  0
 74 72  2  0
 75 76  1  0
 76 77  2  0
 78 81  1  0
 78 77  1  0
 79 78  2  0
 80 79  1  0
 80 75  2  0
 81 82  1  0
 82 83  1  0
 83 84  2  0
 85 84  1  0
 85 89  1  0
 86 85  2  0
 87 82  2  0
 87 86  1  0
 88 87  1  0
 90 91  1  0
 91 94  1  0
 91 93  1  0
 92 90  2  0
 95 96  1  0
 95 70  1  0
 97 95  1  0
 98  1  1  0
 98 99  1  0
100 99  2  0
101 98  1  0
102101  1  0
M  ISO  4   9 101  10 101  60 100  68 100
M  END
>  <TORSDO>  (55) 
F 28

>  <SCORE>  (55) 
-11.138

>  <name>  (55) 
61

>  <ligand_id>  (55) 
61

>  <original_smiles>  (55) 
[H]OC([H])(C([H])=O)C([H])(C(N([H])C(=O)C([H])(N([H])C(=O)N1C([H])([H])C([H])([H])C([H])([H])C([H])(n2nc(-c3c([H])c([H])c(Oc4c([H])c([H])c(F)c([H])c4F)c([H])c3[H])c(C(=O)N([H])[H])c2N([H])[H])C1([H])[H])C([H])([H])[H])(C([H])([H])[H])C([H])([H])[H])[N+]([H])([H])C([H])([H])C([H])([H])OC([H])([H])C([H])([H])Oc1c([H])c([H])c2c(c1[H])C([H])([H])N(C(=O)C([H])(N([H])C(=O)C([H])(N([H])C([H])([H])[H])C([H])([H])[H])C(C([H])([H])[H])(C([H])([H])[H])C([H])([H])[H])C([H])(C(=O)N([H])C1([H])c3c([H])c([H])c([H])c([H])c3C([H])([H])C([H])([H])C1([H])[H])C2([H])[H]

>  <smiles>  (55) 
[H]OC([H])(C([H])=O)C([H])(C(N([H])C(=O)C([H])(N([H])C(=O)N1C([H])([H])C([H])([H])C([H])([H])C([H])(n2nc(-c3c([H])c([H])c(Oc4c([H])c([H])c(F)c([H])c4F)c([H])c3[H])c(C(=O)N([H])[H])c2N([H])[H])C1([H])[H])C([H])([H])[H])(C([H])([H])[H])C([H])([H])[H])[N+]([H])([H])C([H])([H])C([H])([H])OC([H])([H])C([H])([H])Oc1c([H])c([H])c2c(c1[H])C([H])([H])N(C(=O)C([H])(N([H])C(=O)C([H])(N([H])C([H])([H])[H])C([H])([H])[H])C(C([H])([H])[H])(C([H])([H])[H])C([H])([H])[H])C([H])(C(=O)N([H])C1([H])c3c([H])c([H])c([H])c([H])c3C([H])([H])C([H])([H])C1([H])[H])C2([H])[H]

$$$$
62:0:0
     RDKit          3D

 98105  0  0  1  0  0  0  0  0999 V2000
  -27.1730  -24.0640   21.1000 C   0  0  0  0  0  3  0  0  0  0  0  0
  -28.2510  -23.1420   21.7020 C   0  0  0  0  0  0  0  0  0  0  0  0
  -28.0720  -21.8300   21.5070 N   0  0  0  0  0  0  0  0  0  0  0  0
  -29.1920  -23.6070   22.3490 O   0  0  0  0  0  0  0  0  0  0  0  0
  -27.2620  -21.5530   20.9670 H   0  0  0  0  0  0  0  0  0  0  0  0
  -28.9260  -20.7580   21.9950 C   0  0  0  0  0  2  0  0  0  0  0  0
  -29.7270  -20.1280   20.8430 C   0  0  0  0  0  2  0  0  0  0  0  0
  -30.3260  -18.7610   21.2110 C   0  0  0  0  0  2  0  0  0  0  0  0
  -31.4970  -18.3680   20.2940 C   0  0  0  0  0  2  0  0  0  0  0  0
  -32.3260  -17.1770   20.8040 C   0  0  0  0  0  2  0  0  0  0  0  0
  -31.9250  -14.9660   19.7130 C   0  0  0  0  0  0  0  0  0  0  0  0
  -31.4790  -12.6550   18.9620 C   0  0  0  0  0  2  0  0  0  0  0  0
  -30.4880  -12.6110   17.7830 C   0  0  0  0  0  2  0  0  0  0  0  0
  -29.0330  -12.6050   18.2850 C   0  0  0  0  0  2  0  0  0  0  0  0
  -28.7670  -13.7040   19.3460 C   0  0  0  0  0  3  0  0  0  0  0  0
  -29.8570  -13.7130   20.4370 C   0  0  0  0  0  2  0  0  0  0  0  0
  -31.1800  -13.8330   19.7930 N   0  0  0  0  0  0  0  0  0  0  0  0
  -32.8560  -15.1140   18.9180 O   0  0  0  0  0  0  0  0  0  0  0  0
  -31.6310  -15.9010   20.6330 N   0  0  0  0  0  0  0  0  0  0  0  0
  -30.9070  -15.6670   21.2930 H   0  0  0  0  0  0  0  0  0  0  0  0
  -26.5460  -14.5650   20.3320 C   0  0  0  0  0  0  0  0  0  0  0  0
  -25.4110  -13.9140   20.7420 C   0  0  0  0  0  0  0  0  0  0  0  0
  -25.6670  -12.5200   20.5530 C   0  0  0  0  0  0  0  0  0  0  0  0
  -27.4290  -13.5750   19.9260 N   0  0  0  0  0  0  0  0  0  0  0  0
  -26.9040  -12.3360   20.1090 N   0  0  0  0  0  0  0  0  0  0  0  0
  -24.7870  -11.3570   20.7150 C   0  0  0  0  0  0  0  0  0  0  0  0
  -25.1280  -10.2880   21.5740 C   0  0  0  0  0  3  0  0  0  0  0  0
  -24.2590   -9.1870   21.7190 C   0  0  0  0  0  3  0  0  0  0  0  0
  -23.0360   -9.1470   21.0090 C   0  0  0  0  0  0  0  0  0  0  0  0
  -22.7140  -10.2030   20.1390 C   0  0  0  0  0  3  0  0  0  0  0  0
  -23.5810  -11.2970   19.9900 C   0  0  0  0  0  3  0  0  0  0  0  0
  -22.1420   -8.1050   21.0690 O   0  0  0  0  0  0  0  0  0  0  0  0
  -21.9500   -7.3870   22.2220 C   0  0  0  0  0  0  0  0  0  0  0  0
  -21.5470   -8.0040   23.4260 C   0  0  0  0  0  3  0  0  0  0  0  0
  -21.2910   -7.2190   24.5680 C   0  0  0  0  0  3  0  0  0  0  0  0
  -21.4290   -5.8190   24.5080 C   0  0  0  0  0  0  0  0  0  0  0  0
  -21.8240   -5.2030   23.3070 C   0  0  0  0  0  3  0  0  0  0  0  0
  -22.0790   -5.9850   22.1680 C   0  0  0  0  0  0  0  0  0  0  0  0
  -22.4400   -5.3820   21.0090 F   0  0  0  0  0  0  0  0  0  0  0  0
  -21.1770   -5.0650   25.6030 F   0  0  0  0  0  0  0  0  0  0  0  0
  -24.1270  -14.5500   21.1940 C   0  0  0  0  0  0  0  0  0  0  0  0
  -23.3940  -13.8950   22.0880 N   0  0  0  0  0  0  0  0  0  0  0  0
  -23.7900  -15.6630   20.7920 O   0  0  0  0  0  0  0  0  0  0  0  0
  -23.6850  -12.9960   22.4420 H   0  0  0  0  0  0  0  0  0  0  0  0
  -22.5380  -14.3080   22.4280 H   0  0  0  0  0  0  0  0  0  0  0  0
  -26.8940  -15.9090   20.2590 N   0  0  0  0  0  0  0  0  0  0  0  0
  -26.2510  -16.6510   20.5080 H   0  0  0  0  0  0  0  0  0  0  0  0
  -27.7740  -16.2540   19.8930 H   0  0  0  0  0  0  0  0  0  0  0  0
  -27.7000  -24.8670   19.8770 C   0  0  0  0  0  2  0  0  0  0  0  0
  -28.2870  -26.2740   20.1510 C   0  0  0  0  0  2  0  0  0  0  0  0
  -28.0900  -27.1840   19.0550 O   0  0  0  0  0  0  0  0  0  0  0  0
  -24.3190  -31.6940   23.0220 C   0  0  0  0  0  0  0  0  0  0  0  0
  -26.9160  -27.8870   19.1770 C   0  0  0  0  0  0  0  0  0  0  0  0
  -23.0530  -30.4270   21.3180 C   0  0  0  0  0  3  0  0  0  0  0  0
  -24.4580  -29.2010   19.5770 C   0  0  0  0  0  0  0  0  0  0  0  0
  -25.5220  -30.9910   20.9620 C   0  0  0  0  0  2  0  0  0  0  0  0
  -25.6300  -29.7250   20.1400 C   0  0  0  0  0  0  0  0  0  0  0  0
  -26.8670  -29.0710   19.9430 C   0  0  0  0  0  3  0  0  0  0  0  0
  -25.7350  -27.3940   18.5840 C   0  0  0  0  0  3  0  0  0  0  0  0
  -24.5030  -28.0320   18.7990 C   0  0  0  0  0  3  0  0  0  0  0  0
  -23.1740  -29.9510   19.8460 C   0  0  0  0  0  2  0  0  0  0  0  0
  -24.3200  -31.0440   21.8250 N   0  0  0  0  0  0  0  0  0  0  0  0
  -23.2780  -31.8230   23.6820 O   0  0  0  0  0  0  0  0  0  0  0  0
  -22.5560  -29.2480   22.1830 C   0  0  0  0  0  0  0  0  0  0  0  0
  -21.2470  -28.9640   22.1110 N   0  0  0  0  0  0  0  0  0  0  0  0
  -23.3430  -28.5990   22.8770 O   0  0  0  0  0  0  0  0  0  0  0  0
  -20.6690  -29.5360   21.5090 H   0  0  0  0  0  0  0  0  0  0  0  0
  -18.0330  -27.3870   22.6310 C   0  0  0  0  0  0  0  0  0  0  0  0
  -20.5660  -27.8790   22.8160 C   0  0  0  0  0  3  0  0  0  0  0  0
  -20.7780  -26.5310   22.0890 C   0  0  0  0  0  2  0  0  0  0  0  0
  -19.6550  -26.1920   21.1050 C   0  0  0  0  0  2  0  0  0  0  0  0
  -18.3080  -26.1280   21.8280 C   0  0  0  0  0  2  0  0  0  0  0  0
  -19.0940  -28.2160   23.0840 C   0  0  0  0  0  0  0  0  0  0  0  0
  -18.7860  -29.3890   23.8080 C   0  0  0  0  0  3  0  0  0  0  0  0
  -17.4500  -29.7410   24.0750 C   0  0  0  0  0  3  0  0  0  0  0  0
  -16.4050  -28.9090   23.6350 C   0  0  0  0  0  3  0  0  0  0  0  0
  -16.6970  -27.7340   22.9220 C   0  0  0  0  0  3  0  0  0  0  0  0
  -25.6200  -32.3300   23.6080 C   0  0  0  0  0  3  0  0  0  0  0  0
  -25.2850  -33.6850   24.0610 N   0  0  0  0  0  0  0  0  0  0  0  0
  -25.5590  -34.8030   23.3770 C   0  0  0  0  0  0  0  0  0  0  0  0
  -26.1990  -34.8020   22.3220 O   0  0  0  0  0  0  0  0  0  0  0  0
  -24.7100  -33.7540   24.8890 H   0  0  0  0  0  0  0  0  0  0  0  0
  -23.7770  -36.5690   23.2010 C   0  0  0  0  0  1  0  0  0  0  0  0
  -25.0430  -36.1340   23.9550 C   0  0  0  0  0  3  0  0  0  0  0  0
  -27.1740  -37.0030   24.8150 C   0  0  0  0  0  1  0  0  0  0  0  0
  -26.0450  -37.2200   23.9120 N   0  0  0  0  0  0  0  0  0  0  0  0
  -25.6190  -38.1110   24.1510 H   0  0  0  0  0  0  0  0  0  0  0  0
  -26.2490  -31.4870   24.7830 C   0  0  1  0  0  0  0  0  0  0  0  0
  -25.2390  -31.1240   25.8970 C   0  0  0  0  0  1  0  0  0  0  0  0
  -26.8550  -30.1680   24.2480 C   0  0  0  0  0  1  0  0  0  0  0  0
  -27.4120  -32.2760   25.4300 C   0  0  0  0  0  1  0  0  0  0  0  0
  -26.6060  -24.9220   22.1010 O   0  0  0  0  0  0  0  0  0  0  0  0
  -25.5540  -24.3740   22.9040 C   0  0  0  0  0  2  0  0  0  0  0  0
  -24.9560  -25.4900   23.7740 C   0  0  0  0  0  0  0  0  0  0  0  0
  -23.6350  -25.6220   23.8120 N   0  0  0  0  0  0  0  0  0  0  0  0
  -25.6820  -26.2400   24.4240 O   0  0  0  0  0  0  0  0  0  0  0  0
  -23.0320  -25.0050   23.2860 H   0  0  0  0  0  0  0  0  0  0  0  0
  -23.2250  -26.3410   24.3900 H   0  0  0  0  0  0  0  0  0  0  0  0
  1 49  1  0
  1  2  1  0
  1 92  1  0
  2  4  2  0
  3  2  1  0
  3  6  1  0
  5  3  1  0
  7  8  1  0
  7  6  1  0
  9 10  1  0
  9  8  1  0
 11 17  1  0
 11 19  1  0
 12 17  1  0
 13 14  1  0
 13 12  1  0
 15 14  1  0
 15 24  1  0
 15 16  1  0
 17 16  1  0
 18 11  2  0
 19 10  1  0
 19 20  1  0
 21 22  2  0
 22 41  1  0
 23 26  1  0
 23 22  1  0
 24 25  1  0
 24 21  1  0
 25 23  2  0
 26 27  1  0
 27 28  2  0
 29 32  1  0
 29 28  1  0
 30 29  2  0
 31 30  1  0
 31 26  2  0
 32 33  1  0
 33 34  1  0
 34 35  2  0
 36 35  1  0
 36 40  1  0
 37 36  2  0
 38 33  2  0
 38 37  1  0
 39 38  1  0
 41 42  1  0
 42 45  1  0
 42 44  1  0
 43 41  2  0
 46 21  1  0
 46 47  1  0
 48 46  1  0
 49 50  1  0
 51 53  1  0
 51 50  1  0
 52 63  2  0
 53 58  1  0
 54 62  1  0
 54 64  1  0
 55 61  1  0
 55 57  1  0
 56 62  1  0
 57 56  1  0
 58 57  2  0
 59 60  1  0
 59 53  2  0
 60 55  2  0
 61 54  1  0
 62 52  1  0
 64 66  2  0
 65 64  1  0
 67 65  1  0
 68 77  2  0
 68 73  1  0
 69 65  1  0
 69 73  1  0
 70 69  1  0
 71 72  1  0
 71 70  1  0
 72 68  1  0
 73 74  2  0
 74 75  1  0
 76 75  2  0
 77 76  1  0
 78 52  1  0
 78 79  1  0
 78 88  1  0
 79 82  1  0
 80 84  1  0
 80 79  1  0
 81 80  2  0
 84 83  1  0
 86 84  1  0
 86 87  1  0
 86 85  1  0
 88 91  1  1
 88 89  1  0
 90 88  1  0
 92 93  1  0
 93 94  1  0
 94 95  1  0
 94 96  2  0
 95 98  1  0
 97 95  1  0
M  ISO  4  11 100  19 100  50 101  51 101
M  END
>  <TORSDO>  (56) 
F 27

>  <SCORE>  (56) 
-8.706

>  <name>  (56) 
62

>  <ligand_id>  (56) 
62

>  <original_smiles>  (56) 
[H]c1c([H])c([H])c2c(c1[H])C([H])([H])C([H])([H])C([H])([H])C2([H])N([H])C(=O)C1([H])N(C(=O)C([H])(N([H])C(=O)C([H])(N([H])C([H])([H])[H])C([H])([H])[H])C(C([H])([H])[H])(C([H])([H])[H])C([H])([H])[H])C([H])([H])c2c([H])c(OC([H])([H])C([H])([H])C([H])(OC([H])([H])C(=O)N([H])[H])C(=O)N([H])C([H])([H])C([H])([H])C([H])([H])C([H])([H])C([H])([H])N([H])C(=O)N3C([H])([H])C([H])([H])C([H])([H])C([H])(n4nc(-c5c([H])c([H])c(Oc6c([H])c([H])c(F)c([H])c6F)c([H])c5[H])c(C(=O)N([H])[H])c4N([H])[H])C3([H])[H])c([H])c([H])c2C1([H])[H]

>  <smiles>  (56) 
[H]c1c([H])c([H])c2c(c1[H])C([H])([H])C([H])([H])C([H])([H])C2([H])N([H])C(=O)C1([H])N(C(=O)C([H])(N([H])C(=O)C([H])(N([H])C([H])([H])[H])C([H])([H])[H])C(C([H])([H])[H])(C([H])([H])[H])C([H])([H])[H])C([H])([H])c2c([H])c(OC([H])([H])C([H])([H])C([H])(OC([H])([H])C(=O)N([H])[H])C(=O)N([H])C([H])([H])C([H])([H])C([H])([H])C([H])([H])C([H])([H])N([H])C(=O)N3C([H])([H])C([H])([H])C([H])([H])C([H])(n4nc(-c5c([H])c([H])c(Oc6c([H])c([H])c(F)c([H])c6F)c([H])c5[H])c(C(=O)N([H])[H])c4N([H])[H])C3([H])[H])c([H])c([H])c2C1([H])[H]

$$$$
63:0:0
     RDKit          3D

 97104  0  0  1  0  0  0  0  0999 V2000
  -22.9910  -22.0540   24.2160 C   0  0  0  0  0  0  0  0  0  0  0  0
  -23.8110  -23.0960   24.0660 N   0  0  0  0  0  0  0  0  0  0  0  0
  -21.9040  -21.9770   23.6390 O   0  0  0  0  0  0  0  0  0  0  0  0
  -24.6710  -23.0460   24.6010 H   0  0  0  0  0  0  0  0  0  0  0  0
  -23.5990  -24.2300   23.1680 C   0  0  0  0  0  2  0  0  0  0  0  0
  -24.8620  -25.0980   23.0450 C   0  0  0  0  0  2  0  0  0  0  0  0
  -26.0640  -24.3760   22.4110 C   0  0  0  0  0  2  0  0  0  0  0  0
  -27.1680  -25.2590   22.4530 O   0  0  0  0  0  0  0  0  0  0  0  0
  -28.3500  -24.7370   21.8550 C   0  0  0  0  0  2  0  0  0  0  0  0
  -29.2930  -25.9220   21.5840 C   0  0  0  0  0  2  0  0  0  0  0  0
  -28.9240  -26.5880   20.3840 O   0  0  0  0  0  0  0  0  0  0  0  0
  -24.8700  -31.6800   23.3260 C   0  0  0  0  0  0  0  0  0  0  0  0
  -27.7360  -27.2680   20.4250 C   0  0  0  0  0  0  0  0  0  0  0  0
  -23.7640  -30.2310   21.6520 C   0  0  0  0  0  3  0  0  0  0  0  0
  -25.3050  -28.6920   20.3320 C   0  0  0  0  0  0  0  0  0  0  0  0
  -26.2870  -30.6310   21.5690 C   0  0  0  0  0  2  0  0  0  0  0  0
  -26.4220  -29.2500   20.9710 C   0  0  0  0  0  0  0  0  0  0  0  0
  -27.6380  -28.5380   21.0290 C   0  0  0  0  0  3  0  0  0  0  0  0
  -26.6060  -26.7110   19.7870 C   0  0  0  0  0  3  0  0  0  0  0  0
  -25.3870  -27.4130   19.7520 C   0  0  0  0  0  3  0  0  0  0  0  0
  -24.0510  -29.5330   20.2960 C   0  0  0  0  0  2  0  0  0  0  0  0
  -24.9890  -30.8620   22.2430 N   0  0  0  0  0  0  0  0  0  0  0  0
  -23.7600  -31.9460   23.8060 O   0  0  0  0  0  0  0  0  0  0  0  0
  -23.0810  -29.2180   22.5980 C   0  0  0  0  0  0  0  0  0  0  0  0
  -21.7670  -29.0170   22.4080 N   0  0  0  0  0  0  0  0  0  0  0  0
  -23.7310  -28.6170   23.4560 O   0  0  0  0  0  0  0  0  0  0  0  0
  -21.3060  -29.5450   21.6820 H   0  0  0  0  0  0  0  0  0  0  0  0
  -18.3870  -27.7980   22.7670 C   0  0  0  0  0  0  0  0  0  0  0  0
  -20.9250  -28.0860   23.1580 C   0  0  0  0  0  3  0  0  0  0  0  0
  -21.0730  -26.6470   22.6140 C   0  0  0  0  0  2  0  0  0  0  0  0
  -20.0270  -26.2990   21.5500 C   0  0  0  0  0  2  0  0  0  0  0  0
  -18.6120  -26.4380   22.1220 C   0  0  0  0  0  2  0  0  0  0  0  0
  -19.4760  -28.5780   23.2370 C   0  0  0  0  0  0  0  0  0  0  0  0
  -19.2160  -29.8470   23.7960 C   0  0  0  0  0  3  0  0  0  0  0  0
  -17.9000  -30.3390   23.8900 C   0  0  0  0  0  3  0  0  0  0  0  0
  -16.8240  -29.5550   23.4390 C   0  0  0  0  0  3  0  0  0  0  0  0
  -17.0670  -28.2850   22.8850 C   0  0  0  0  0  3  0  0  0  0  0  0
  -26.1140  -32.3400   23.9930 C   0  0  0  0  0  3  0  0  0  0  0  0
  -25.7800  -33.7430   24.2740 N   0  0  0  0  0  0  0  0  0  0  0  0
  -26.1430  -34.7780   23.5050 C   0  0  0  0  0  0  0  0  0  0  0  0
  -26.8640  -34.6540   22.5120 O   0  0  0  0  0  0  0  0  0  0  0  0
  -25.1450  -33.9140   25.0400 H   0  0  0  0  0  0  0  0  0  0  0  0
  -24.4160  -36.5390   23.0150 C   0  0  0  0  0  1  0  0  0  0  0  0
  -25.6200  -36.1730   23.8980 C   0  0  0  0  0  3  0  0  0  0  0  0
  -27.7040  -37.1010   24.8040 C   0  0  0  0  0  1  0  0  0  0  0  0
  -26.6460  -37.2340   23.8060 N   0  0  0  0  0  0  0  0  0  0  0  0
  -26.2260  -38.1530   23.9080 H   0  0  0  0  0  0  0  0  0  0  0  0
  -26.5820  -31.6020   25.3080 C   0  0  1  0  0  0  0  0  0  0  0  0
  -25.4470  -31.3760   26.3340 C   0  0  0  0  0  1  0  0  0  0  0  0
  -27.1870  -30.2200   24.9670 C   0  0  0  0  0  1  0  0  0  0  0  0
  -27.7050  -32.4110   25.9970 C   0  0  0  0  0  1  0  0  0  0  0  0
  -23.4790  -20.9200   25.1280 C   0  0  0  0  0  2  0  0  0  0  0  0
  -24.6760  -21.3010   25.8210 O   0  0  0  0  0  0  0  0  0  0  0  0
  -25.3490  -20.1880   26.4040 C   0  0  0  0  0  2  0  0  0  0  0  0
  -26.8470  -20.5150   26.6080 C   0  0  0  0  0  2  0  0  0  0  0  0
  -27.7760  -19.2930   26.3890 C   0  0  0  0  0  2  0  0  0  0  0  0
  -29.0480  -19.5730   25.5440 C   0  0  0  0  0  2  0  0  0  0  0  0
  -29.6400  -18.2910   24.8980 C   0  0  0  0  0  2  0  0  0  0  0  0
  -30.4130  -18.4980   23.5630 C   0  0  0  0  0  2  0  0  0  0  0  0
  -31.3200  -16.9210   21.7940 C   0  0  0  0  0  0  0  0  0  0  0  0
  -31.4490  -15.2230   19.9840 C   0  0  0  0  0  2  0  0  0  0  0  0
  -30.6460  -15.6460   18.7370 C   0  0  0  0  0  2  0  0  0  0  0  0
  -29.1540  -15.2850   18.8680 C   0  0  0  0  0  2  0  0  0  0  0  0
  -28.5610  -15.7520   20.2210 C   0  0  0  0  0  3  0  0  0  0  0  0
  -29.4620  -15.2830   21.3840 C   0  0  0  0  0  2  0  0  0  0  0  0
  -30.8270  -15.8130   21.1780 N   0  0  0  0  0  0  0  0  0  0  0  0
  -32.2860  -17.5690   21.3760 O   0  0  0  0  0  0  0  0  0  0  0  0
  -30.6800  -17.1970   22.9440 N   0  0  0  0  0  0  0  0  0  0  0  0
  -30.0830  -16.4470   23.2570 H   0  0  0  0  0  0  0  0  0  0  0  0
  -25.9980  -16.0140   20.3250 C   0  0  0  0  0  0  0  0  0  0  0  0
  -24.9970  -15.0960   20.4960 C   0  0  0  0  0  0  0  0  0  0  0  0
  -25.6380  -13.8310   20.6480 C   0  0  0  0  0  0  0  0  0  0  0  0
  -27.1830  -15.2950   20.3900 N   0  0  0  0  0  0  0  0  0  0  0  0
  -26.9560  -13.9780   20.6310 N   0  0  0  0  0  0  0  0  0  0  0  0
  -25.0720  -12.4800   20.7510 C   0  0  0  0  0  0  0  0  0  0  0  0
  -25.3430  -11.6500   21.8590 C   0  0  0  0  0  3  0  0  0  0  0  0
  -24.7760  -10.3600   21.9450 C   0  0  0  0  0  3  0  0  0  0  0  0
  -23.9240   -9.8900   20.9170 C   0  0  0  0  0  0  0  0  0  0  0  0
  -23.6730  -10.7160   19.8060 C   0  0  0  0  0  3  0  0  0  0  0  0
  -24.2420  -11.9960   19.7200 C   0  0  0  0  0  3  0  0  0  0  0  0
  -23.3510   -8.6430   20.9010 O   0  0  0  0  0  0  0  0  0  0  0  0
  -22.8560   -8.0630   22.0440 C   0  0  0  0  0  0  0  0  0  0  0  0
  -21.9220   -8.7240   22.8680 C   0  0  0  0  0  3  0  0  0  0  0  0
  -21.3870   -8.0670   23.9950 C   0  0  0  0  0  3  0  0  0  0  0  0
  -21.7820   -6.7500   24.2950 C   0  0  0  0  0  0  0  0  0  0  0  0
  -22.7120   -6.0890   23.4730 C   0  0  0  0  0  3  0  0  0  0  0  0
  -23.2460   -6.7430   22.3480 C   0  0  0  0  0  0  0  0  0  0  0  0
  -24.1230   -6.0950   21.5450 F   0  0  0  0  0  0  0  0  0  0  0  0
  -21.2630   -6.1110   25.3700 F   0  0  0  0  0  0  0  0  0  0  0  0
  -23.5210  -15.3620   20.4330 C   0  0  0  0  0  0  0  0  0  0  0  0
  -22.7290  -14.5920   21.1750 N   0  0  0  0  0  0  0  0  0  0  0  0
  -23.0640  -16.2850   19.7630 O   0  0  0  0  0  0  0  0  0  0  0  0
  -23.1030  -13.8260   21.7110 H   0  0  0  0  0  0  0  0  0  0  0  0
  -21.7350  -14.7680   21.2010 H   0  0  0  0  0  0  0  0  0  0  0  0
  -26.0020  -17.3900   20.1040 N   0  0  0  0  0  0  0  0  0  0  0  0
  -25.1510  -17.9290   19.9890 H   0  0  0  0  0  0  0  0  0  0  0  0
  -26.8420  -17.9410   19.9800 H   0  0  0  0  0  0  0  0  0  0  0  0
  1 52  1  0
  2  1  1  0
  2  4  1  0
  3  1  2  0
  5  2  1  0
  6  5  1  0
  7  8  1  0
  7  6  1  0
  9  8  1  0
 10  9  1  0
 11 13  1  0
 11 10  1  0
 12 23  2  0
 13 18  1  0
 14 22  1  0
 14 24  1  0
 15 17  1  0
 16 22  1  0
 17 18  2  0
 17 16  1  0
 19 13  2  0
 20 19  1  0
 20 15  2  0
 21 15  1  0
 21 14  1  0
 22 12  1  0
 24 26  2  0
 25 24  1  0
 27 25  1  0
 28 37  2  0
 28 33  1  0
 29 25  1  0
 29 33  1  0
 30 29  1  0
 31 32  1  0
 31 30  1  0
 32 28  1  0
 33 34  2  0
 34 35  1  0
 36 35  2  0
 37 36  1  0
 38 12  1  0
 38 39  1  0
 38 48  1  0
 39 42  1  0
 40 44  1  0
 40 39  1  0
 41 40  2  0
 44 43  1  0
 46 44  1  0
 46 47  1  0
 46 45  1  0
 48 51  1  1
 48 49  1  0
 50 48  1  0
 52 53  1  0
 53 54  1  0
 54 55  1  0
 56 55  1  0
 57 56  1  0
 58 57  1  0
 59 58  1  0
 60 68  1  0
 61 66  1  0
 62 63  1  0
 62 61  1  0
 64 63  1  0
 64 73  1  0
 64 65  1  0
 66 65  1  0
 66 60  1  0
 67 60  2  0
 68 69  1  0
 68 59  1  0
 70 73  1  0
 70 71  2  0
 71 72  1  0
 72 75  1  0
 73 74  1  0
 74 72  2  0
 75 76  1  0
 76 77  2  0
 78 77  1  0
 79 78  2  0
 80 79  1  0
 80 75  2  0
 81 78  1  0
 81 82  1  0
 82 87  2  0
 82 83  1  0
 83 84  2  0
 84 85  1  0
 85 89  1  0
 86 85  2  0
 87 86  1  0
 88 87  1  0
 90 71  1  0
 90 91  1  0
 91 94  1  0
 91 93  1  0
 92 90  2  0
 95 70  1  0
 96 95  1  0
 97 95  1  0
M  ISO  4  10 101  11 101  60 100  68 100
M  END
>  <TORSDO>  (57) 
F 30

>  <SCORE>  (57) 
21.307

>  <name>  (57) 
63

>  <ligand_id>  (57) 
63

>  <original_smiles>  (57) 
[H]c1c([H])c([H])c2c(c1[H])C([H])([H])C([H])([H])C([H])([H])C2([H])N([H])C(=O)C1([H])N(C(=O)C([H])(N([H])C(=O)C([H])(N([H])C([H])([H])[H])C([H])([H])[H])C(C([H])([H])[H])(C([H])([H])[H])C([H])([H])[H])C([H])([H])c2c([H])c(OC([H])([H])C([H])([H])OC([H])([H])C([H])([H])C([H])([H])N([H])C(=O)C([H])([H])OC([H])([H])C([H])([H])C([H])([H])C([H])([H])C([H])([H])C([H])([H])N([H])C(=O)N3C([H])([H])C([H])([H])C([H])([H])C([H])(n4nc(-c5c([H])c([H])c(Oc6c([H])c([H])c(F)c([H])c6F)c([H])c5[H])c(C(=O)N([H])[H])c4N([H])[H])C3([H])[H])c([H])c([H])c2C1([H])[H]

>  <smiles>  (57) 
[H]c1c([H])c([H])c2c(c1[H])C([H])([H])C([H])([H])C([H])([H])C2([H])N([H])C(=O)C1([H])N(C(=O)C([H])(N([H])C(=O)C([H])(N([H])C([H])([H])[H])C([H])([H])[H])C(C([H])([H])[H])(C([H])([H])[H])C([H])([H])[H])C([H])([H])c2c([H])c(OC([H])([H])C([H])([H])OC([H])([H])C([H])([H])C([H])([H])N([H])C(=O)C([H])([H])OC([H])([H])C([H])([H])C([H])([H])C([H])([H])C([H])([H])C([H])([H])N([H])C(=O)N3C([H])([H])C([H])([H])C([H])([H])C([H])(n4nc(-c5c([H])c([H])c(Oc6c([H])c([H])c(F)c([H])c6F)c([H])c5[H])c(C(=O)N([H])[H])c4N([H])[H])C3([H])[H])c([H])c([H])c2C1([H])[H]

$$$$
64:0:0
     RDKit          3D

 95102  0  0  1  0  0  0  0  0999 V2000
  -31.7120  -20.1590   17.6740 C   0  0  0  0  0  2  0  0  0  0  0  0
  -32.8240  -19.4240   18.4490 C   0  0  0  0  0  2  0  0  0  0  0  0
  -31.6120  -17.4110   19.3440 C   0  0  0  0  0  0  0  0  0  0  0  0
  -32.3290  -18.5330   19.4980 N   0  0  0  0  0  0  0  0  0  0  0  0
  -31.2250  -17.0110   18.2440 O   0  0  0  0  0  0  0  0  0  0  0  0
  -32.6030  -18.7680   20.4440 H   0  0  0  0  0  0  0  0  0  0  0  0
  -31.2740  -16.6420   20.6460 C   0  0  0  0  0  3  0  0  0  0  0  0
  -31.4140  -14.2050   19.9950 C   0  0  0  0  0  0  0  0  0  0  0  0
  -30.9110  -12.1380   18.7590 C   0  0  0  0  0  2  0  0  0  0  0  0
  -29.9330  -12.4850   17.6160 C   0  0  0  0  0  2  0  0  0  0  0  0
  -28.4700  -12.4780   18.1080 C   0  0  0  0  0  2  0  0  0  0  0  0
  -28.2690  -13.2590   19.4320 C   0  0  0  0  0  3  0  0  0  0  0  0
  -29.3430  -12.8600   20.4690 C   0  0  0  0  0  2  0  0  0  0  0  0
  -30.6550  -13.0900   19.8470 N   0  0  0  0  0  0  0  0  0  0  0  0
  -32.5780  -14.2850   19.5970 O   0  0  0  0  0  0  0  0  0  0  0  0
  -30.7430  -15.2800   20.4470 N   0  0  0  0  0  0  0  0  0  0  0  0
  -29.7550  -15.1600   20.5900 H   0  0  0  0  0  0  0  0  0  0  0  0
  -25.9370  -14.0320   20.2080 C   0  0  0  0  0  0  0  0  0  0  0  0
  -24.8320  -13.3350   20.6140 C   0  0  0  0  0  0  0  0  0  0  0  0
  -25.2040  -11.9560   20.5930 C   0  0  0  0  0  0  0  0  0  0  0  0
  -26.9170  -13.0830   19.9590 N   0  0  0  0  0  0  0  0  0  0  0  0
  -26.4790  -11.8300   20.2490 N   0  0  0  0  0  0  0  0  0  0  0  0
  -24.4030  -10.7460   20.8230 C   0  0  0  0  0  0  0  0  0  0  0  0
  -24.7870   -9.7760   21.7760 C   0  0  0  0  0  3  0  0  0  0  0  0
  -23.9900   -8.6290   21.9880 C   0  0  0  0  0  3  0  0  0  0  0  0
  -22.7990   -8.4470   21.2480 C   0  0  0  0  0  0  0  0  0  0  0  0
  -22.4380   -9.4030   20.2830 C   0  0  0  0  0  3  0  0  0  0  0  0
  -23.2330  -10.5400   20.0680 C   0  0  0  0  0  3  0  0  0  0  0  0
  -21.9790   -7.3510   21.3680 O   0  0  0  0  0  0  0  0  0  0  0  0
  -21.8740   -6.6560   22.5440 C   0  0  0  0  0  0  0  0  0  0  0  0
  -21.4790   -7.2830   23.7480 C   0  0  0  0  0  3  0  0  0  0  0  0
  -21.3180   -6.5190   24.9190 C   0  0  0  0  0  3  0  0  0  0  0  0
  -21.5380   -5.1290   24.8930 C   0  0  0  0  0  0  0  0  0  0  0  0
  -21.9310   -4.5030   23.6950 C   0  0  0  0  0  3  0  0  0  0  0  0
  -22.0950   -5.2630   22.5260 C   0  0  0  0  0  0  0  0  0  0  0  0
  -22.4490   -4.6510   21.3700 F   0  0  0  0  0  0  0  0  0  0  0  0
  -21.3790   -4.3930   26.0160 F   0  0  0  0  0  0  0  0  0  0  0  0
  -23.4760  -13.9040   20.9200 C   0  0  0  0  0  0  0  0  0  0  0  0
  -22.7380  -13.2740   21.8270 N   0  0  0  0  0  0  0  0  0  0  0  0
  -23.0820  -14.9420   20.3850 O   0  0  0  0  0  0  0  0  0  0  0  0
  -23.0750  -12.4360   22.2780 H   0  0  0  0  0  0  0  0  0  0  0  0
  -21.8230  -13.6290   22.0690 H   0  0  0  0  0  0  0  0  0  0  0  0
  -26.1780  -15.3860   20.0080 N   0  0  0  0  0  0  0  0  0  0  0  0
  -25.4520  -16.0820   20.1360 H   0  0  0  0  0  0  0  0  0  0  0  0
  -27.0380  -15.7740   19.6490 H   0  0  0  0  0  0  0  0  0  0  0  0
  -28.9400  -17.7970   20.9950 C   0  0  0  0  0  1  0  0  0  0  0  0
  -30.2070  -16.8320   22.9720 C   0  0  0  0  0  1  0  0  0  0  0  0
  -30.3310  -17.4690   21.5780 C   0  0  0  0  0  3  0  0  0  0  0  0
  -30.9500  -21.0090   18.5270 O   0  0  0  0  0  0  0  0  0  0  0  0
  -29.8290  -21.5650   17.8450 C   0  0  0  0  0  2  0  0  0  0  0  0
  -29.1260  -22.6440   18.6890 C   0  0  0  0  0  2  0  0  0  0  0  0
  -29.6470  -23.9110   18.3060 O   0  0  0  0  0  0  0  0  0  0  0  0
  -28.7850  -25.0110   18.5810 C   0  0  0  0  0  2  0  0  0  0  0  0
  -28.6450  -25.2720   20.0930 C   0  0  0  0  0  2  0  0  0  0  0  0
  -28.5930  -26.6660   20.3670 O   0  0  0  0  0  0  0  0  0  0  0  0
  -24.6560  -31.7990   23.2440 C   0  0  0  0  0  0  0  0  0  0  0  0
  -27.3860  -27.3290   20.3050 C   0  0  0  0  0  0  0  0  0  0  0  0
  -23.4900  -30.3640   21.5990 C   0  0  0  0  0  3  0  0  0  0  0  0
  -24.9780  -28.8060   20.2410 C   0  0  0  0  0  0  0  0  0  0  0  0
  -26.0190  -30.7310   21.4570 C   0  0  0  0  0  2  0  0  0  0  0  0
  -26.1210  -29.3530   20.8380 C   0  0  0  0  0  0  0  0  0  0  0  0
  -27.3240  -28.6230   20.8620 C   0  0  0  0  0  3  0  0  0  0  0  0
  -26.2220  -26.7810   19.7150 C   0  0  0  0  0  3  0  0  0  0  0  0
  -25.0210  -27.5150   19.6850 C   0  0  0  0  0  3  0  0  0  0  0  0
  -23.7290  -29.6540   20.2410 C   0  0  0  0  0  2  0  0  0  0  0  0
  -24.7390  -30.9770   22.1590 N   0  0  0  0  0  0  0  0  0  0  0  0
  -23.5610  -32.0790   23.7500 O   0  0  0  0  0  0  0  0  0  0  0  0
  -22.8170  -29.3620   22.5620 C   0  0  0  0  0  0  0  0  0  0  0  0
  -21.5010  -29.1530   22.3910 N   0  0  0  0  0  0  0  0  0  0  0  0
  -23.4790  -28.7680   23.4170 O   0  0  0  0  0  0  0  0  0  0  0  0
  -21.0260  -29.6830   21.6740 H   0  0  0  0  0  0  0  0  0  0  0  0
  -18.1340  -27.9080   22.7810 C   0  0  0  0  0  0  0  0  0  0  0  0
  -20.6710  -28.2270   23.1580 C   0  0  0  0  0  3  0  0  0  0  0  0
  -20.8270  -26.7780   22.6440 C   0  0  0  0  0  2  0  0  0  0  0  0
  -19.7820  -26.3970   21.5910 C   0  0  0  0  0  2  0  0  0  0  0  0
  -18.3680  -26.5390   22.1650 C   0  0  0  0  0  2  0  0  0  0  0  0
  -19.2170  -28.7080   23.2330 C   0  0  0  0  0  0  0  0  0  0  0  0
  -18.9470  -29.9870   23.7640 C   0  0  0  0  0  3  0  0  0  0  0  0
  -17.6290  -30.4710   23.8430 C   0  0  0  0  0  3  0  0  0  0  0  0
  -16.5570  -29.6690   23.4130 C   0  0  0  0  0  3  0  0  0  0  0  0
  -16.8110  -28.3890   22.8870 C   0  0  0  0  0  3  0  0  0  0  0  0
  -25.9290  -32.4440   23.8790 C   0  0  0  0  0  3  0  0  0  0  0  0
  -26.4390  -31.6860   25.1650 C   0  0  1  0  0  0  0  0  0  0  0  0
  -25.3350  -31.4360   26.2210 C   0  0  0  0  0  1  0  0  0  0  0  0
  -27.0500  -30.3150   24.7920 C   0  0  0  0  0  1  0  0  0  0  0  0
  -27.5690  -32.5000   25.8370 C   0  0  0  0  0  1  0  0  0  0  0  0
  -25.6030  -33.8410   24.1960 N   0  0  0  0  0  0  0  0  0  0  0  0
  -25.9400  -34.8900   23.4340 C   0  0  0  0  0  0  0  0  0  0  0  0
  -26.6220  -34.7850   22.4120 O   0  0  0  0  0  0  0  0  0  0  0  0
  -24.9890  -33.9960   24.9820 H   0  0  0  0  0  0  0  0  0  0  0  0
  -24.1930  -36.6570   23.0580 C   0  0  0  0  0  1  0  0  0  0  0  0
  -25.4380  -36.2770   23.8750 C   0  0  0  0  0  3  0  0  0  0  0  0
  -27.5590  -37.1890   24.7040 C   0  0  0  0  0  1  0  0  0  0  0  0
  -26.4590  -37.3390   23.7540 N   0  0  0  0  0  0  0  0  0  0  0  0
  -26.0470  -38.2550   23.8990 H   0  0  0  0  0  0  0  0  0  0  0  0
  1  2  1  0
  1 49  1  0
  2  4  1  0
  3  4  1  0
  4  6  1  0
  5  3  2  0
  7  3  1  0
  7 48  1  0
  8 16  1  0
  9 14  1  0
 10 11  1  0
 10  9  1  0
 12 11  1  0
 12 21  1  0
 12 13  1  0
 14  8  1  0
 14 13  1  0
 15  8  2  0
 16 17  1  0
 16  7  1  0
 18 19  2  0
 19 38  1  0
 20 19  1  0
 20 23  1  0
 21 18  1  0
 21 22  1  0
 22 20  2  0
 23 24  1  0
 24 25  2  0
 26 29  1  0
 26 25  1  0
 27 26  2  0
 28 27  1  0
 28 23  2  0
 29 30  1  0
 30 31  1  0
 31 32  2  0
 33 32  1  0
 33 37  1  0
 34 33  2  0
 35 30  2  0
 35 34  1  0
 36 35  1  0
 38 39  1  0
 39 42  1  0
 39 41  1  0
 40 38  2  0
 43 44  1  0
 43 18  1  0
 45 43  1  0
 46 48  1  0
 48 47  1  0
 50 49  1  0
 50 51  1  0
 52 53  1  0
 52 51  1  0
 53 54  1  0
 54 55  1  0
 56 67  2  0
 57 55  1  0
 57 62  1  0
 58 66  1  0
 58 68  1  0
 59 65  1  0
 59 61  1  0
 60 66  1  0
 61 62  2  0
 61 60  1  0
 63 57  2  0
 64 63  1  0
 64 59  2  0
 65 58  1  0
 66 56  1  0
 68 70  2  0
 69 68  1  0
 71 69  1  0
 72 81  2  0
 72 77  1  0
 73 69  1  0
 73 77  1  0
 74 73  1  0
 75 76  1  0
 75 74  1  0
 76 72  1  0
 77 78  2  0
 78 79  1  0
 80 79  2  0
 81 80  1  0
 82 56  1  0
 82 87  1  0
 82 83  1  0
 83 86  1  1
 83 84  1  0
 85 83  1  0
 87 90  1  0
 88 92  1  0
 88 87  1  0
 89 88  2  0
 92 91  1  0
 94 92  1  0
 94 95  1  0
 94 93  1  0
M  ISO  4   8 100  16 100  54 101  55 101
M  END
>  <TORSDO>  (58) 
F 26

>  <SCORE>  (58) 
-10.642

>  <name>  (58) 
64

>  <ligand_id>  (58) 
64

>  <original_smiles>  (58) 
[H]c1c([H])c([H])c2c(c1[H])C([H])([H])C([H])([H])C([H])([H])C2([H])N([H])C(=O)C1([H])N(C(=O)C([H])(N([H])C(=O)C([H])(N([H])C([H])([H])[H])C([H])([H])[H])C(C([H])([H])[H])(C([H])([H])[H])C([H])([H])[H])C([H])([H])c2c([H])c(OC([H])([H])C([H])([H])OC([H])([H])C([H])([H])OC([H])([H])C([H])([H])N([H])C(=O)C([H])(N([H])C(=O)N3C([H])([H])C([H])([H])C([H])([H])C([H])(n4nc(-c5c([H])c([H])c(Oc6c([H])c([H])c(F)c([H])c6F)c([H])c5[H])c(C(=O)N([H])[H])c4N([H])[H])C3([H])[H])C([H])(C([H])([H])[H])C([H])([H])[H])c([H])c([H])c2C1([H])[H]

>  <smiles>  (58) 
[H]c1c([H])c([H])c2c(c1[H])C([H])([H])C([H])([H])C([H])([H])C2([H])N([H])C(=O)C1([H])N(C(=O)C([H])(N([H])C(=O)C([H])(N([H])C([H])([H])[H])C([H])([H])[H])C(C([H])([H])[H])(C([H])([H])[H])C([H])([H])[H])C([H])([H])c2c([H])c(OC([H])([H])C([H])([H])OC([H])([H])C([H])([H])OC([H])([H])C([H])([H])N([H])C(=O)C([H])(N([H])C(=O)N3C([H])([H])C([H])([H])C([H])([H])C([H])(n4nc(-c5c([H])c([H])c(Oc6c([H])c([H])c(F)c([H])c6F)c([H])c5[H])c(C(=O)N([H])[H])c4N([H])[H])C3([H])[H])C([H])(C([H])([H])[H])C([H])([H])[H])c([H])c([H])c2C1([H])[H]

$$$$
65:0:0
     RDKit          3D

109116  0  0  1  0  0  0  0  0999 V2000
  -29.3010  -18.4710   14.6990 C   0  0  0  0  0  2  0  0  0  0  0  0
  -30.4670  -20.0040   16.3700 C   0  0  0  0  0  0  0  0  0  0  0  0
  -31.2880  -19.0630   16.8350 N   0  0  0  0  0  4  0  0  0  0  0  0
  -29.5950  -19.7290   15.3940 N   0  0  0  0  0  0  0  0  0  0  0  0
  -30.5100  -21.2400   16.8890 N   0  0  0  0  0  0  0  0  0  0  0  0
  -31.2820  -18.1250   16.4600 H   0  0  0  0  0  0  0  0  0  0  0  0
  -31.9790  -19.2560   17.5470 H   0  0  0  0  0  0  0  0  0  0  0  0
  -28.9900  -20.4600   15.0360 H   0  0  0  0  0  0  0  0  0  0  0  0
  -31.2200  -21.4740   17.5690 H   0  0  0  0  0  0  0  0  0  0  0  0
  -29.6320  -22.3520   16.4880 C   0  0  0  0  0  2  0  0  0  0  0  0
  -29.7450  -23.5560   17.4310 C   0  0  0  0  0  2  0  0  0  0  0  0
  -28.5970  -24.3740   17.2440 O   0  0  0  0  0  0  0  0  0  0  0  0
  -28.6500  -25.6350   17.9040 C   0  0  0  0  0  2  0  0  0  0  0  0
  -28.5350  -25.5150   19.4390 C   0  0  0  0  0  2  0  0  0  0  0  0
  -28.4370  -26.7960   20.0590 O   0  0  0  0  0  0  0  0  0  0  0  0
  -24.6100  -31.8730   23.2150 C   0  0  0  0  0  0  0  0  0  0  0  0
  -27.2300  -27.4660   20.0680 C   0  0  0  0  0  0  0  0  0  0  0  0
  -23.3930  -30.4960   21.5580 C   0  0  0  0  0  3  0  0  0  0  0  0
  -24.8330  -28.9660   20.1190 C   0  0  0  0  0  0  0  0  0  0  0  0
  -25.9210  -30.8440   21.3630 C   0  0  0  0  0  2  0  0  0  0  0  0
  -25.9950  -29.4820   20.7060 C   0  0  0  0  0  0  0  0  0  0  0  0
  -27.1940  -28.7380   20.6780 C   0  0  0  0  0  3  0  0  0  0  0  0
  -26.0420  -26.9500   19.4980 C   0  0  0  0  0  3  0  0  0  0  0  0
  -24.8490  -27.6960   19.5190 C   0  0  0  0  0  3  0  0  0  0  0  0
  -23.5960  -29.8330   20.1720 C   0  0  0  0  0  2  0  0  0  0  0  0
  -24.6600  -31.0840   22.1040 N   0  0  0  0  0  0  0  0  0  0  0  0
  -23.5300  -32.1480   23.7550 O   0  0  0  0  0  0  0  0  0  0  0  0
  -22.7380  -29.4660   22.5040 C   0  0  0  0  0  0  0  0  0  0  0  0
  -21.4120  -29.3010   22.3770 N   0  0  0  0  0  0  0  0  0  0  0  0
  -23.4170  -28.8180   23.3050 O   0  0  0  0  0  0  0  0  0  0  0  0
  -20.9240  -29.8770   21.7060 H   0  0  0  0  0  0  0  0  0  0  0  0
  -18.0270  -28.1350   22.8500 C   0  0  0  0  0  0  0  0  0  0  0  0
  -20.5850  -28.3620   23.1340 C   0  0  0  0  0  3  0  0  0  0  0  0
  -20.6770  -26.9360   22.5420 C   0  0  0  0  0  2  0  0  0  0  0  0
  -19.5750  -26.6360   21.5210 C   0  0  0  0  0  2  0  0  0  0  0  0
  -18.1920  -26.7900   22.1620 C   0  0  0  0  0  2  0  0  0  0  0  0
  -19.1520  -28.8810   23.2910 C   0  0  0  0  0  0  0  0  0  0  0  0
  -18.9460  -30.1420   23.8900 C   0  0  0  0  0  3  0  0  0  0  0  0
  -17.6460  -30.6550   24.0570 C   0  0  0  0  0  3  0  0  0  0  0  0
  -16.5350  -29.9060   23.6320 C   0  0  0  0  0  3  0  0  0  0  0  0
  -16.7270  -28.6490   23.0320 C   0  0  0  0  0  3  0  0  0  0  0  0
  -25.9010  -32.4840   23.8420 C   0  0  0  0  0  3  0  0  0  0  0  0
  -26.4450  -31.6610   25.0730 C   0  0  1  0  0  0  0  0  0  0  0  0
  -25.3740  -31.3720   26.1490 C   0  0  0  0  0  1  0  0  0  0  0  0
  -27.0280  -30.3070   24.6070 C   0  0  0  0  0  1  0  0  0  0  0  0
  -27.6030  -32.4340   25.7480 C   0  0  0  0  0  1  0  0  0  0  0  0
  -25.5890  -33.8650   24.2340 N   0  0  0  0  0  0  0  0  0  0  0  0
  -25.9030  -34.9490   23.5130 C   0  0  0  0  0  0  0  0  0  0  0  0
  -26.5580  -34.8920   22.4690 O   0  0  0  0  0  0  0  0  0  0  0  0
  -25.0100  -33.9850   25.0520 H   0  0  0  0  0  0  0  0  0  0  0  0
  -24.1490  -36.7310   23.2640 C   0  0  0  0  0  1  0  0  0  0  0  0
  -25.4110  -36.3120   24.0340 C   0  0  0  0  0  3  0  0  0  0  0  0
  -27.5590  -37.1800   24.8470 C   0  0  0  0  0  1  0  0  0  0  0  0
  -26.4300  -37.3790   23.9400 N   0  0  0  0  0  0  0  0  0  0  0  0
  -26.0200  -38.2870   24.1390 H   0  0  0  0  0  0  0  0  0  0  0  0
  -28.2980  -18.7530   13.5600 C   0  0  0  0  0  2  0  0  0  0  0  0
  -27.7760  -20.0730   13.7230 O   0  0  0  0  0  0  0  0  0  0  0  0
  -26.8260  -20.4670   12.7440 C   0  0  0  0  0  2  0  0  0  0  0  0
  -26.4660  -21.9240   13.0580 C   0  0  0  0  0  2  0  0  0  0  0  0
  -25.8100  -21.9550   14.3190 O   0  0  0  0  0  0  0  0  0  0  0  0
  -25.9270  -23.2040   14.9880 C   0  0  0  0  0  2  0  0  0  0  0  0
  -25.1970  -23.1170   16.3340 C   0  0  0  0  0  2  0  0  0  0  0  0
  -25.7700  -22.0720   17.1090 O   0  0  0  0  0  0  0  0  0  0  0  0
  -25.2060  -21.9760   18.4090 C   0  0  0  0  0  2  0  0  0  0  0  0
  -25.6560  -20.6650   19.0680 C   0  0  0  0  0  2  0  0  0  0  0  0
  -27.1790  -20.5420   19.1940 C   0  0  0  0  0  2  0  0  0  0  0  0
  -27.4870  -19.3410   19.8840 O   0  0  0  0  0  0  0  0  0  0  0  0
  -28.8820  -19.0960   19.9500 C   0  0  0  0  0  2  0  0  0  0  0  0
  -29.1220  -17.8540   20.8150 C   0  0  0  0  0  2  0  0  0  0  0  0
  -30.6170  -17.5830   21.0500 C   0  0  0  0  0  2  0  0  0  0  0  0
  -30.8860  -16.4360   22.0420 C   0  0  0  0  0  2  0  0  0  0  0  0
  -30.7680  -14.3610   20.6710 C   0  0  0  0  0  0  0  0  0  0  0  0
  -30.4150  -12.2830   19.3940 C   0  0  0  0  0  2  0  0  0  0  0  0
  -29.4830  -12.5230   18.1920 C   0  0  0  0  0  2  0  0  0  0  0  0
  -28.0070  -12.3810   18.6100 C   0  0  0  0  0  2  0  0  0  0  0  0
  -27.6660  -13.2030   19.8800 C   0  0  0  0  0  3  0  0  0  0  0  0
  -28.7040  -12.9440   20.9940 C   0  0  0  0  0  2  0  0  0  0  0  0
  -30.0470  -13.2310   20.4560 N   0  0  0  0  0  0  0  0  0  0  0  0
  -31.8020  -14.6360   20.0570 O   0  0  0  0  0  0  0  0  0  0  0  0
  -30.2870  -15.1720   21.6190 N   0  0  0  0  0  0  0  0  0  0  0  0
  -29.4460  -14.8730   22.0900 H   0  0  0  0  0  0  0  0  0  0  0  0
  -25.2600  -13.8160   20.5670 C   0  0  0  0  0  0  0  0  0  0  0  0
  -24.1850  -13.0440   20.9160 C   0  0  0  0  0  0  0  0  0  0  0  0
  -24.6390  -11.6910   20.8720 C   0  0  0  0  0  0  0  0  0  0  0  0
  -26.3040  -12.9320   20.3380 N   0  0  0  0  0  0  0  0  0  0  0  0
  -25.9320  -11.6490   20.5750 N   0  0  0  0  0  0  0  0  0  0  0  0
  -23.9050  -10.4300   21.0400 C   0  0  0  0  0  0  0  0  0  0  0  0
  -24.3610   -9.4220   21.9180 C   0  0  0  0  0  3  0  0  0  0  0  0
  -23.6290   -8.2250   22.0750 C   0  0  0  0  0  3  0  0  0  0  0  0
  -22.4270   -8.0280   21.3540 C   0  0  0  0  0  0  0  0  0  0  0  0
  -21.9900   -9.0250   20.4650 C   0  0  0  0  0  3  0  0  0  0  0  0
  -22.7230  -10.2130   20.3050 C   0  0  0  0  0  3  0  0  0  0  0  0
  -21.6630   -6.8880   21.4240 O   0  0  0  0  0  0  0  0  0  0  0  0
  -21.6860   -6.0730   22.5280 C   0  0  0  0  0  0  0  0  0  0  0  0
  -21.4010   -6.5640   23.8210 C   0  0  0  0  0  3  0  0  0  0  0  0
  -21.3660   -5.6790   24.9170 C   0  0  0  0  0  3  0  0  0  0  0  0
  -21.6050   -4.3060   24.7230 C   0  0  0  0  0  0  0  0  0  0  0  0
  -21.8820   -3.8140   23.4350 C   0  0  0  0  0  3  0  0  0  0  0  0
  -21.9190   -4.6960   22.3400 C   0  0  0  0  0  0  0  0  0  0  0  0
  -22.1660   -4.2150   21.0980 F   0  0  0  0  0  0  0  0  0  0  0  0
  -21.5630   -3.4540   25.7740 F   0  0  0  0  0  0  0  0  0  0  0  0
  -22.7870  -13.5240   21.1830 C   0  0  0  0  0  0  0  0  0  0  0  0
  -22.0510  -12.8230   22.0390 N   0  0  0  0  0  0  0  0  0  0  0  0
  -22.3550  -14.5550   20.6690 O   0  0  0  0  0  0  0  0  0  0  0  0
  -22.4120  -11.9890   22.4770 H   0  0  0  0  0  0  0  0  0  0  0  0
  -21.1130  -13.1260   22.2610 H   0  0  0  0  0  0  0  0  0  0  0  0
  -25.4340  -15.1880   20.4100 N   0  0  0  0  0  0  0  0  0  0  0  0
  -24.6720  -15.8470   20.5240 H   0  0  0  0  0  0  0  0  0  0  0  0
  -26.2970  -15.6270   20.1160 H   0  0  0  0  0  0  0  0  0  0  0  0
  1  4  1  0
  2  3  2  0
  2  5  1  0
  3  7  1  0
  4  2  1  0
  5  9  1  0
  6  3  1  0
  8  4  1  0
 10  5  1  0
 10 11  1  0
 12 11  1  0
 12 13  1  0
 13 14  1  0
 14 15  1  0
 15 17  1  0
 16 27  2  0
 17 22  1  0
 18 26  1  0
 18 28  1  0
 19 25  1  0
 19 21  1  0
 20 26  1  0
 21 20  1  0
 22 21  2  0
 23 24  1  0
 23 17  2  0
 24 19  2  0
 25 18  1  0
 26 16  1  0
 28 30  2  0
 29 28  1  0
 31 29  1  0
 32 41  2  0
 32 37  1  0
 33 29  1  0
 33 37  1  0
 34 33  1  0
 35 36  1  0
 35 34  1  0
 36 32  1  0
 37 38  2  0
 38 39  1  0
 40 39  2  0
 41 40  1  0
 42 16  1  0
 42 47  1  0
 42 43  1  0
 43 46  1  1
 43 44  1  0
 45 43  1  0
 47 50  1  0
 48 52  1  0
 48 47  1  0
 49 48  2  0
 52 51  1  0
 54 52  1  0
 54 55  1  0
 54 53  1  0
 56 57  1  0
 56  1  1  0
 58 59  1  0
 58 57  1  0
 59 60  1  0
 60 61  1  0
 61 62  1  0
 62 63  1  0
 63 64  1  0
 64 65  1  0
 65 66  1  0
 66 67  1  0
 67 68  1  0
 68 69  1  0
 69 70  1  0
 70 71  1  0
 72 80  1  0
 73 78  1  0
 74 75  1  0
 74 73  1  0
 76 75  1  0
 76 85  1  0
 76 77  1  0
 78 72  1  0
 78 77  1  0
 79 72  2  0
 80 71  1  0
 80 81  1  0
 82 83  2  0
 83102  1  0
 84 83  1  0
 84 87  1  0
 85 82  1  0
 85 86  1  0
 86 84  2  0
 87 88  1  0
 88 89  2  0
 90 93  1  0
 90 89  1  0
 91 90  2  0
 92 91  1  0
 92 87  2  0
 93 94  1  0
 94 95  1  0
 95 96  2  0
 97 96  1  0
 97101  1  0
 98 97  2  0
 99 94  2  0
 99 98  1  0
100 99  1  0
102103  1  0
103106  1  0
103105  1  0
104102  2  0
107108  1  0
107 82  1  0
109107  1  0
M  ISO  4  14 101  15 101  72 100  80 100
M  END
>  <TORSDO>  (59) 
F 38

>  <SCORE>  (59) 
7.966

>  <name>  (59) 
65

>  <ligand_id>  (59) 
65

>  <original_smiles>  (59) 
[H]c1c([H])c([H])c2c(c1[H])C([H])([H])C([H])([H])C([H])([H])C2([H])N([H])C(=O)C1([H])N(C(=O)C([H])(N([H])C(=O)C([H])(N([H])C([H])([H])[H])C([H])([H])[H])C(C([H])([H])[H])(C([H])([H])[H])C([H])([H])[H])C([H])([H])c2c([H])c(OC([H])([H])C([H])([H])OC([H])([H])C([H])([H])[N+]([H])=C(N([H])[H])N([H])C([H])([H])C([H])([H])OC([H])([H])C([H])([H])OC([H])([H])C([H])([H])OC([H])([H])C([H])([H])C([H])([H])OC([H])([H])C([H])([H])C([H])([H])C([H])([H])N([H])C(=O)N3C([H])([H])C([H])([H])C([H])([H])C([H])(n4nc(-c5c([H])c([H])c(Oc6c([H])c([H])c(F)c([H])c6F)c([H])c5[H])c(C(=O)N([H])[H])c4N([H])[H])C3([H])[H])c([H])c([H])c2C1([H])[H]

>  <smiles>  (59) 
[H]c1c([H])c([H])c2c(c1[H])C([H])([H])C([H])([H])C([H])([H])C2([H])N([H])C(=O)C1([H])N(C(=O)C([H])(N([H])C(=O)C([H])(N([H])C([H])([H])[H])C([H])([H])[H])C(C([H])([H])[H])(C([H])([H])[H])C([H])([H])[H])C([H])([H])c2c([H])c(OC([H])([H])C([H])([H])OC([H])([H])C([H])([H])[N+]([H])=C(N([H])[H])N([H])C([H])([H])C([H])([H])OC([H])([H])C([H])([H])OC([H])([H])C([H])([H])OC([H])([H])C([H])([H])C([H])([H])OC([H])([H])C([H])([H])C([H])([H])C([H])([H])N([H])C(=O)N3C([H])([H])C([H])([H])C([H])([H])C([H])(n4nc(-c5c([H])c([H])c(Oc6c([H])c([H])c(F)c([H])c6F)c([H])c5[H])c(C(=O)N([H])[H])c4N([H])[H])C3([H])[H])c([H])c([H])c2C1([H])[H]

$$$$
66:0:0
     RDKit          3D

102109  0  0  1  0  0  0  0  0999 V2000
  -33.5650  -17.6640   16.1540 C   0  0  0  0  0  2  0  0  0  0  0  0
  -32.3660  -17.3710   15.2380 C   0  0  0  0  0  2  0  0  0  0  0  0
  -31.6770  -18.5740   14.9140 O   0  0  0  0  0  0  0  0  0  0  0  0
  -30.3040  -18.5660   15.2920 C   0  0  0  0  0  2  0  0  0  0  0  0
  -29.7780  -20.0070   15.3040 C   0  0  0  0  0  2  0  0  0  0  0  0
  -30.0870  -20.6400   16.5410 O   0  0  0  0  0  0  0  0  0  0  0  0
  -29.8080  -22.0330   16.5140 C   0  0  0  0  0  2  0  0  0  0  0  0
  -30.0250  -22.6550   17.9010 C   0  0  0  0  0  2  0  0  0  0  0  0
  -30.2290  -24.0550   17.7400 O   0  0  0  0  0  0  0  0  0  0  0  0
  -30.0500  -24.8220   18.9260 C   0  0  0  0  0  2  0  0  0  0  0  0
  -28.5930  -25.3140   19.0170 C   0  0  0  0  0  2  0  0  0  0  0  0
  -28.4760  -26.3820   19.9560 O   0  0  0  0  0  0  0  0  0  0  0  0
  -24.7860  -31.4300   23.3330 C   0  0  0  0  0  0  0  0  0  0  0  0
  -27.3020  -27.1070   19.9840 C   0  0  0  0  0  0  0  0  0  0  0  0
  -23.5530  -30.2110   21.5710 C   0  0  0  0  0  3  0  0  0  0  0  0
  -24.9630  -28.7050   20.0710 C   0  0  0  0  0  0  0  0  0  0  0  0
  -26.0950  -30.4590   21.4490 C   0  0  0  0  0  2  0  0  0  0  0  0
  -26.1280  -29.1330   20.7190 C   0  0  0  0  0  0  0  0  0  0  0  0
  -27.2940  -28.3370   20.6790 C   0  0  0  0  0  3  0  0  0  0  0  0
  -26.1110  -26.6850   19.3460 C   0  0  0  0  0  3  0  0  0  0  0  0
  -24.9460  -27.4770   19.3880 C   0  0  0  0  0  3  0  0  0  0  0  0
  -23.7600  -29.6180   20.1520 C   0  0  0  0  0  2  0  0  0  0  0  0
  -24.8280  -30.7100   22.1770 N   0  0  0  0  0  0  0  0  0  0  0  0
  -23.7060  -31.7180   23.8680 O   0  0  0  0  0  0  0  0  0  0  0  0
  -22.8270  -29.1610   22.4430 C   0  0  0  0  0  0  0  0  0  0  0  0
  -21.4950  -29.0780   22.2940 N   0  0  0  0  0  0  0  0  0  0  0  0
  -23.4600  -28.4300   23.2080 O   0  0  0  0  0  0  0  0  0  0  0  0
  -21.0490  -29.7210   21.6550 H   0  0  0  0  0  0  0  0  0  0  0  0
  -18.0430  -28.0850   22.6960 C   0  0  0  0  0  0  0  0  0  0  0  0
  -20.6130  -28.1350   22.9790 C   0  0  0  0  0  3  0  0  0  0  0  0
  -20.6120  -26.7580   22.2780 C   0  0  0  0  0  2  0  0  0  0  0  0
  -19.4920  -26.6060   21.2430 C   0  0  0  0  0  2  0  0  0  0  0  0
  -18.1240  -26.7910   21.9040 C   0  0  0  0  0  2  0  0  0  0  0  0
  -19.2120  -28.7250   23.1870 C   0  0  0  0  0  0  0  0  0  0  0  0
  -19.0830  -29.9440   23.8860 C   0  0  0  0  0  3  0  0  0  0  0  0
  -17.8180  -30.5220   24.0980 C   0  0  0  0  0  3  0  0  0  0  0  0
  -16.6630  -29.8780   23.6210 C   0  0  0  0  0  3  0  0  0  0  0  0
  -16.7760  -28.6620   22.9250 C   0  0  0  0  0  3  0  0  0  0  0  0
  -26.0840  -31.9480   24.0230 C   0  0  0  0  0  3  0  0  0  0  0  0
  -26.4960  -31.0950   25.2860 C   0  0  1  0  0  0  0  0  0  0  0  0
  -25.3510  -30.9020   26.3070 C   0  0  0  0  0  1  0  0  0  0  0  0
  -26.9910  -29.6920   24.8580 C   0  0  0  0  0  1  0  0  0  0  0  0
  -27.6780  -31.7790   26.0120 C   0  0  0  0  0  1  0  0  0  0  0  0
  -25.8580  -33.3510   24.3940 N   0  0  0  0  0  0  0  0  0  0  0  0
  -26.3030  -34.4020   23.6920 C   0  0  0  0  0  0  0  0  0  0  0  0
  -27.0160  -34.2850   22.6920 O   0  0  0  0  0  0  0  0  0  0  0  0
  -25.2270  -33.5170   25.1660 H   0  0  0  0  0  0  0  0  0  0  0  0
  -24.7360  -36.3310   23.3090 C   0  0  0  0  0  1  0  0  0  0  0  0
  -25.8920  -35.8060   24.1750 C   0  0  0  0  0  3  0  0  0  0  0  0
  -28.0270  -36.4980   25.1710 C   0  0  0  0  0  1  0  0  0  0  0  0
  -27.0050  -36.7800   24.1670 N   0  0  0  0  0  0  0  0  0  0  0  0
  -26.6590  -37.7220   24.3240 H   0  0  0  0  0  0  0  0  0  0  0  0
  -33.2590  -18.6460   17.2970 C   0  0  0  0  0  2  0  0  0  0  0  0
  -33.5070  -20.1250   16.9290 C   0  0  0  0  0  2  0  0  0  0  0  0
  -32.8400  -21.1420   17.8720 C   0  0  0  0  0  2  0  0  0  0  0  0
  -31.7640  -19.7680   19.6430 C   0  0  0  0  0  0  0  0  0  0  0  0
  -32.7070  -20.6260   19.2330 N   0  0  0  0  0  0  0  0  0  0  0  0
  -30.8580  -19.3700   18.9040 O   0  0  0  0  0  0  0  0  0  0  0  0
  -33.4050  -20.9140   19.9060 H   0  0  0  0  0  0  0  0  0  0  0  0
  -31.8640  -19.2510   21.0990 C   0  0  0  0  0  3  0  0  0  0  0  0
  -32.1580  -16.8340   20.4970 C   0  0  0  0  0  0  0  0  0  0  0  0
  -32.1400  -14.4150   20.0080 C   0  0  0  0  0  2  0  0  0  0  0  0
  -31.4230  -14.1070   18.6810 C   0  0  0  0  0  2  0  0  0  0  0  0
  -29.9050  -13.9620   18.8980 C   0  0  0  0  0  2  0  0  0  0  0  0
  -29.3060  -15.1390   19.7100 C   0  0  0  0  0  3  0  0  0  0  0  0
  -30.1400  -15.4030   20.9820 C   0  0  0  0  0  2  0  0  0  0  0  0
  -31.5450  -15.6270   20.5880 N   0  0  0  0  0  0  0  0  0  0  0  0
  -33.2400  -17.0070   19.9280 O   0  0  0  0  0  0  0  0  0  0  0  0
  -31.5280  -17.8250   21.1390 N   0  0  0  0  0  0  0  0  0  0  0  0
  -30.6650  -17.5850   21.5990 H   0  0  0  0  0  0  0  0  0  0  0  0
  -26.8530  -15.8140   20.1150 C   0  0  0  0  0  0  0  0  0  0  0  0
  -25.7310  -15.0730   20.3730 C   0  0  0  0  0  0  0  0  0  0  0  0
  -26.1600  -13.7110   20.4210 C   0  0  0  0  0  0  0  0  0  0  0  0
  -27.8980  -14.9060   20.0280 N   0  0  0  0  0  0  0  0  0  0  0  0
  -27.4760  -13.6380   20.2640 N   0  0  0  0  0  0  0  0  0  0  0  0
  -25.3880  -12.4690   20.5530 C   0  0  0  0  0  0  0  0  0  0  0  0
  -25.7240  -11.4880   21.5120 C   0  0  0  0  0  3  0  0  0  0  0  0
  -24.9540  -10.3090   21.6300 C   0  0  0  0  0  3  0  0  0  0  0  0
  -23.8340  -10.1060   20.7890 C   0  0  0  0  0  0  0  0  0  0  0  0
  -23.5180  -11.0760   19.8220 C   0  0  0  0  0  3  0  0  0  0  0  0
  -24.2880  -12.2450   19.7010 C   0  0  0  0  0  3  0  0  0  0  0  0
  -23.0450   -8.9810   20.8160 O   0  0  0  0  0  0  0  0  0  0  0  0
  -22.8070   -8.2950   21.9800 C   0  0  0  0  0  0  0  0  0  0  0  0
  -22.2290   -8.9180   23.1070 C   0  0  0  0  0  3  0  0  0  0  0  0
  -21.9380   -8.1600   24.2590 C   0  0  0  0  0  3  0  0  0  0  0  0
  -22.2150   -6.7810   24.2820 C   0  0  0  0  0  0  0  0  0  0  0  0
  -22.7860   -6.1570   23.1590 C   0  0  0  0  0  3  0  0  0  0  0  0
  -23.0780   -6.9130   22.0100 C   0  0  0  0  0  0  0  0  0  0  0  0
  -23.6090   -6.3020   20.9230 F   0  0  0  0  0  0  0  0  0  0  0  0
  -21.9280   -6.0500   25.3860 F   0  0  0  0  0  0  0  0  0  0  0  0
  -24.3230  -15.5850   20.4760 C   0  0  0  0  0  0  0  0  0  0  0  0
  -23.4880  -14.9300   21.2770 N   0  0  0  0  0  0  0  0  0  0  0  0
  -23.9670  -16.6010   19.8810 O   0  0  0  0  0  0  0  0  0  0  0  0
  -23.7850  -14.1080   21.7800 H   0  0  0  0  0  0  0  0  0  0  0  0
  -22.5390  -15.2550   21.3850 H   0  0  0  0  0  0  0  0  0  0  0  0
  -27.0700  -17.1760   19.9330 N   0  0  0  0  0  0  0  0  0  0  0  0
  -26.3160  -17.8540   19.9470 H   0  0  0  0  0  0  0  0  0  0  0  0
  -27.9710  -17.5920   19.7330 H   0  0  0  0  0  0  0  0  0  0  0  0
  -31.2950  -21.5320   22.1330 C   0  0  0  0  0  1  0  0  0  0  0  0
  -31.2450  -19.5010   23.5510 C   0  0  0  0  0  1  0  0  0  0  0  0
  -29.4500  -19.8610   21.8240 C   0  0  0  0  0  1  0  0  0  0  0  0
  -30.9600  -20.0230   22.1230 C   0  0  2  0  0  0  0  0  0  0  0  0
  1 53  1  0
  2  1  1  0
  3  2  1  0
  3  4  1  0
  4  5  1  0
  5  6  1  0
  7  6  1  0
  7  8  1  0
  9  8  1  0
  9 10  1  0
 10 11  1  0
 11 12  1  0
 12 14  1  0
 13 24  2  0
 14 19  1  0
 15 23  1  0
 15 25  1  0
 16 22  1  0
 16 18  1  0
 17 23  1  0
 18 17  1  0
 19 18  2  0
 20 21  1  0
 20 14  2  0
 21 16  2  0
 22 15  1  0
 23 13  1  0
 25 27  2  0
 26 25  1  0
 28 26  1  0
 29 38  2  0
 29 34  1  0
 30 26  1  0
 30 34  1  0
 31 30  1  0
 32 33  1  0
 32 31  1  0
 33 29  1  0
 34 35  2  0
 35 36  1  0
 37 36  2  0
 38 37  1  0
 39 13  1  0
 39 44  1  0
 39 40  1  0
 40 43  1  1
 40 41  1  0
 42 40  1  0
 44 47  1  0
 45 49  1  0
 45 44  1  0
 46 45  2  0
 49 48  1  0
 51 49  1  0
 51 52  1  0
 51 50  1  0
 54 53  1  0
 54 55  1  0
 55 57  1  0
 57 56  1  0
 57 59  1  0
 58 56  2  0
 60 56  1  0
 60 69  1  0
 60102  1  0
 61 67  1  0
 61 69  1  0
 62 67  1  0
 63 64  1  0
 63 62  1  0
 65 64  1  0
 65 74  1  0
 65 66  1  0
 67 66  1  0
 68 61  2  0
 69 70  1  0
 71 72  2  0
 72 73  1  0
 72 91  1  0
 73 76  1  0
 74 71  1  0
 74 75  1  0
 75 73  2  0
 76 77  1  0
 77 78  2  0
 79 82  1  0
 79 78  1  0
 80 79  2  0
 81 80  1  0
 81 76  2  0
 82 83  1  0
 83 88  2  0
 83 84  1  0
 84 85  2  0
 85 86  1  0
 86 90  1  0
 87 86  2  0
 88 87  1  0
 89 88  1  0
 91 92  1  0
 92 95  1  0
 92 94  1  0
 93 91  2  0
 96 97  1  0
 96 71  1  0
 98 96  1  0
102101  1  6
102 99  1  0
102100  1  0
M  ISO  4  11 101  12 101  61 100  69 100
M  END
>  <TORSDO>  (60) 
F 32

>  <SCORE>  (60) 
-6.244

>  <name>  (60) 
66

>  <ligand_id>  (60) 
66

>  <original_smiles>  (60) 
[H]c1c([H])c([H])c2c(c1[H])C([H])([H])C([H])([H])C([H])([H])C2([H])N([H])C(=O)C1([H])N(C(=O)C([H])(N([H])C(=O)C([H])(N([H])C([H])([H])[H])C([H])([H])[H])C(C([H])([H])[H])(C([H])([H])[H])C([H])([H])[H])C([H])([H])c2c([H])c(OC([H])([H])C([H])([H])OC([H])([H])C([H])([H])OC([H])([H])C([H])([H])OC([H])([H])C([H])([H])C([H])([H])C([H])([H])C([H])([H])N([H])C(=O)C([H])(N([H])C(=O)N3C([H])([H])C([H])([H])C([H])([H])C([H])(n4nc(-c5c([H])c([H])c(Oc6c([H])c([H])c(F)c([H])c6F)c([H])c5[H])c(C(=O)N([H])[H])c4N([H])[H])C3([H])[H])C(C([H])([H])[H])(C([H])([H])[H])C([H])([H])[H])c([H])c([H])c2C1([H])[H]

>  <smiles>  (60) 
[H]c1c([H])c([H])c2c(c1[H])C([H])([H])C([H])([H])C([H])([H])C2([H])N([H])C(=O)C1([H])N(C(=O)C([H])(N([H])C(=O)C([H])(N([H])C([H])([H])[H])C([H])([H])[H])C(C([H])([H])[H])(C([H])([H])[H])C([H])([H])[H])C([H])([H])c2c([H])c(OC([H])([H])C([H])([H])OC([H])([H])C([H])([H])OC([H])([H])C([H])([H])OC([H])([H])C([H])([H])C([H])([H])C([H])([H])C([H])([H])N([H])C(=O)C([H])(N([H])C(=O)N3C([H])([H])C([H])([H])C([H])([H])C([H])(n4nc(-c5c([H])c([H])c(Oc6c([H])c([H])c(F)c([H])c6F)c([H])c5[H])c(C(=O)N([H])[H])c4N([H])[H])C3([H])[H])C(C([H])([H])[H])(C([H])([H])[H])C([H])([H])[H])c([H])c([H])c2C1([H])[H]

$$$$
67:0:0
     RDKit          3D

104112  0  0  1  0  0  0  0  0999 V2000
  -31.0210  -21.1770   22.6370 C   0  0  0  0  0  0  0  0  0  0  0  0
  -28.9370  -22.0740   21.5870 C   0  0  0  0  0  2  0  0  0  0  0  0
  -31.1370  -23.3370   21.5200 C   0  0  0  0  0  2  0  0  0  0  0  0
  -28.2360  -23.4120   21.2610 C   0  0  0  0  0  2  0  0  0  0  0  0
  -30.3330  -24.6190   21.2670 C   0  0  0  0  0  2  0  0  0  0  0  0
  -30.3530  -22.1740   21.9950 N   0  0  0  0  0  0  0  0  0  0  0  0
  -29.0930  -24.3530   20.5060 N   0  0  2  0  0  4  0  0  0  0  0  0
  -32.2210  -21.2800   22.9240 O   0  0  0  0  0  0  0  0  0  0  0  0
  -29.3500  -23.8880   19.6460 H   0  0  0  0  0  0  0  0  0  0  0  0
  -28.3750  -25.6020   20.1280 C   0  0  0  0  0  2  0  0  0  0  0  0
  -28.9020  -26.2540   18.8230 C   0  0  0  0  0  2  0  0  0  0  0  0
  -27.8280  -26.5940   17.9450 O   0  0  0  0  0  0  0  0  0  0  0  0
  -25.4950  -30.7890   23.2270 C   0  0  0  0  0  0  0  0  0  0  0  0
  -26.8840  -27.4700   18.4280 C   0  0  0  0  0  0  0  0  0  0  0  0
  -23.8780  -30.3210   21.4080 C   0  0  0  0  0  3  0  0  0  0  0  0
  -24.8490  -29.2080   19.3290 C   0  0  0  0  0  0  0  0  0  0  0  0
  -26.3920  -30.3170   20.9570 C   0  0  0  0  0  2  0  0  0  0  0  0
  -26.1340  -29.2870   19.8790 C   0  0  0  0  0  0  0  0  0  0  0  0
  -27.1550  -28.4220   19.4380 C   0  0  0  0  0  3  0  0  0  0  0  0
  -25.5910  -27.4090   17.8700 C   0  0  0  0  0  3  0  0  0  0  0  0
  -24.5700  -28.2660   18.3230 C   0  0  0  0  0  3  0  0  0  0  0  0
  -23.8170  -30.1750   19.8630 C   0  0  0  0  0  2  0  0  0  0  0  0
  -25.2810  -30.4650   21.9210 N   0  0  0  0  0  0  0  0  0  0  0  0
  -24.5470  -31.0150   23.9920 O   0  0  0  0  0  0  0  0  0  0  0  0
  -23.1150  -29.1380   22.0440 C   0  0  0  0  0  0  0  0  0  0  0  0
  -21.7750  -29.2140   22.0160 N   0  0  0  0  0  0  0  0  0  0  0  0
  -23.7220  -28.1740   22.5160 O   0  0  0  0  0  0  0  0  0  0  0  0
  -21.3580  -30.0400   21.6130 H   0  0  0  0  0  0  0  0  0  0  0  0
  -18.2730  -28.4120   22.3860 C   0  0  0  0  0  0  0  0  0  0  0  0
  -20.8460  -28.2010   22.5170 C   0  0  0  0  0  3  0  0  0  0  0  0
  -20.7000  -27.0360   21.5120 C   0  0  0  0  0  2  0  0  0  0  0  0
  -19.5280  -27.2180   20.5420 C   0  0  0  0  0  2  0  0  0  0  0  0
  -18.2090  -27.3420   21.3090 C   0  0  0  0  0  2  0  0  0  0  0  0
  -19.5130  -28.8270   22.9410 C   0  0  0  0  0  0  0  0  0  0  0  0
  -19.5210  -29.8510   23.9140 C   0  0  0  0  0  3  0  0  0  0  0  0
  -18.3200  -30.4550   24.3330 C   0  0  0  0  0  3  0  0  0  0  0  0
  -17.0940  -30.0280   23.7930 C   0  0  0  0  0  3  0  0  0  0  0  0
  -17.0710  -29.0060   22.8260 C   0  0  0  0  0  3  0  0  0  0  0  0
  -26.9360  -30.9150   23.8150 C   0  0  0  0  0  3  0  0  0  0  0  0
  -27.3510  -29.6850   24.7120 C   0  0  1  0  0  0  0  0  0  0  0  0
  -26.3200  -29.3430   25.8130 C   0  0  0  0  0  1  0  0  0  0  0  0
  -27.5520  -28.4200   23.8430 C   0  0  0  0  0  1  0  0  0  0  0  0
  -28.7090  -29.9680   25.3970 C   0  0  0  0  0  1  0  0  0  0  0  0
  -26.9910  -32.1630   24.5850 N   0  0  0  0  0  0  0  0  0  0  0  0
  -27.6050  -33.2820   24.1750 C   0  0  0  0  0  0  0  0  0  0  0  0
  -28.2560  -33.3440   23.1280 O   0  0  0  0  0  0  0  0  0  0  0  0
  -26.4370  -32.2010   25.4270 H   0  0  0  0  0  0  0  0  0  0  0  0
  -26.4230  -35.4790   24.4770 C   0  0  0  0  0  1  0  0  0  0  0  0
  -27.4770  -34.5300   25.0680 C   0  0  0  0  0  3  0  0  0  0  0  0
  -29.7150  -34.5290   26.0790 C   0  0  0  0  0  1  0  0  0  0  0  0
  -28.7530  -35.2550   25.2520 N   0  0  0  0  0  0  0  0  0  0  0  0
  -28.5920  -36.1630   25.6790 H   0  0  0  0  0  0  0  0  0  0  0  0
  -30.3590  -19.8370   23.0430 C   0  0  0  0  0  3  0  0  0  0  0  0
  -30.1670  -18.0430   21.2760 C   0  0  0  0  0  0  0  0  0  0  0  0
  -30.8650  -18.8460   22.0900 N   0  0  0  0  0  0  0  0  0  0  0  0
  -28.9450  -17.9110   21.3530 O   0  0  0  0  0  0  0  0  0  0  0  0
  -31.8570  -18.9200   21.8980 H   0  0  0  0  0  0  0  0  0  0  0  0
  -32.4940  -17.4950   20.4480 C   0  0  0  0  0  1  0  0  0  0  0  0
  -30.5690  -17.9410   18.8300 C   0  0  0  0  0  1  0  0  0  0  0  0
  -30.9770  -17.3110   20.1850 C   0  0  2  0  0  0  0  0  0  0  0  0
  -31.2600  -14.8520   19.6440 C   0  0  0  0  0  0  0  0  0  0  0  0
  -31.2790  -12.4360   19.1590 C   0  0  0  0  0  2  0  0  0  0  0  0
  -30.2910  -12.0930   18.0290 C   0  0  0  0  0  2  0  0  0  0  0  0
  -28.8860  -11.8340   18.6030 C   0  0  0  0  0  2  0  0  0  0  0  0
  -28.4220  -12.9480   19.5800 C   0  0  0  0  0  3  0  0  0  0  0  0
  -29.5230  -13.2840   20.6110 C   0  0  0  0  0  2  0  0  0  0  0  0
  -30.7600  -13.6100   19.8810 N   0  0  0  0  0  0  0  0  0  0  0  0
  -32.2340  -15.0410   18.9140 O   0  0  0  0  0  0  0  0  0  0  0  0
  -30.6310  -15.8770   20.2410 N   0  0  0  0  0  0  0  0  0  0  0  0
  -29.8040  -15.6660   20.7830 H   0  0  0  0  0  0  0  0  0  0  0  0
  -26.1910  -13.4160   20.7730 C   0  0  0  0  0  0  0  0  0  0  0  0
  -25.1820  -12.5860   21.1860 C   0  0  0  0  0  0  0  0  0  0  0  0
  -25.6000  -11.2620   20.8560 C   0  0  0  0  0  0  0  0  0  0  0  0
  -27.1620  -12.5910   20.2290 N   0  0  0  0  0  0  0  0  0  0  0  0
  -26.8180  -11.2810   20.3300 N   0  0  0  0  0  0  0  0  0  0  0  0
  -24.8870   -9.9820   20.9570 C   0  0  0  0  0  0  0  0  0  0  0  0
  -25.2100   -9.0320   21.9520 C   0  0  0  0  0  3  0  0  0  0  0  0
  -24.4970   -7.8170   22.0420 C   0  0  0  0  0  3  0  0  0  0  0  0
  -23.4470   -7.5410   21.1320 C   0  0  0  0  0  0  0  0  0  0  0  0
  -23.1450   -8.4800   20.1300 C   0  0  0  0  0  3  0  0  0  0  0  0
  -23.8590   -9.6860   20.0400 C   0  0  0  0  0  3  0  0  0  0  0  0
  -22.7180   -6.3770   21.1270 O   0  0  0  0  0  0  0  0  0  0  0  0
  -22.2360   -5.8230   22.2860 C   0  0  0  0  0  0  0  0  0  0  0  0
  -21.2870   -6.4900   23.0910 C   0  0  0  0  0  3  0  0  0  0  0  0
  -20.7670   -5.8550   24.2370 C   0  0  0  0  0  3  0  0  0  0  0  0
  -21.1860   -4.5540   24.5740 C   0  0  0  0  0  0  0  0  0  0  0  0
  -22.1280   -3.8870   23.7710 C   0  0  0  0  0  3  0  0  0  0  0  0
  -22.6490   -4.5200   22.6280 C   0  0  0  0  0  0  0  0  0  0  0  0
  -23.5400   -3.8640   21.8460 F   0  0  0  0  0  0  0  0  0  0  0  0
  -20.6810   -3.9410   25.6700 F   0  0  0  0  0  0  0  0  0  0  0  0
  -23.8630  -13.0040   21.7700 C   0  0  0  0  0  0  0  0  0  0  0  0
  -23.2840  -12.1760   22.6320 N   0  0  0  0  0  0  0  0  0  0  0  0
  -23.3610  -14.0950   21.5000 O   0  0  0  0  0  0  0  0  0  0  0  0
  -23.7070  -11.2910   22.8690 H   0  0  0  0  0  0  0  0  0  0  0  0
  -22.4060  -12.4300   23.0620 H   0  0  0  0  0  0  0  0  0  0  0  0
  -26.3550  -14.7970   20.7990 N   0  0  0  0  0  0  0  0  0  0  0  0
  -25.6390  -15.4230   21.1550 H   0  0  0  0  0  0  0  0  0  0  0  0
  -27.1700  -15.2850   20.4480 H   0  0  0  0  0  0  0  0  0  0  0  0
  -30.0110  -20.3490   25.5500 C   0  0  0  0  0  1  0  0  0  0  0  0
  -30.6870  -19.4300   24.5110 C   0  0  0  0  0  3  0  0  0  0  0  0
  -30.1840  -17.6220   26.1780 C   0  0  0  0  0  1  0  0  0  0  0  0
  -30.3590  -18.0000   24.7610 N   0  0  0  0  0  4  0  0  0  0  0  0
  -29.5300  -17.7470   24.2470 H   0  0  0  0  0  0  0  0  0  0  0  0
  -31.1190  -17.4460   24.3900 H   0  0  0  0  0  0  0  0  0  0  0  0
  1  8  2  0
  2  6  1  0
  3  6  1  0
  4  2  1  0
  5  3  1  0
  6  1  1  0
  7  4  1  0
  7  5  1  0
  7  9  1  6
 10  7  1  0
 11 10  1  0
 12 14  1  0
 12 11  1  0
 13 24  2  0
 14 19  1  0
 15 23  1  0
 15 25  1  0
 16 22  1  0
 16 18  1  0
 17 23  1  0
 18 17  1  0
 19 18  2  0
 20 21  1  0
 20 14  2  0
 21 16  2  0
 22 15  1  0
 23 13  1  0
 25 27  2  0
 26 25  1  0
 28 26  1  0
 29 38  2  0
 29 34  1  0
 30 26  1  0
 30 34  1  0
 31 30  1  0
 32 33  1  0
 32 31  1  0
 33 29  1  0
 34 35  2  0
 35 36  1  0
 37 36  2  0
 38 37  1  0
 39 13  1  0
 39 44  1  0
 39 40  1  0
 40 43  1  1
 40 41  1  0
 42 40  1  0
 44 47  1  0
 45 44  1  0
 45 49  1  0
 46 45  2  0
 49 48  1  0
 49 51  1  0
 51 52  1  0
 51 50  1  0
 53  1  1  0
 53100  1  0
 54 56  2  0
 54 55  1  0
 55 53  1  0
 57 55  1  0
 60 59  1  6
 60 69  1  0
 60 58  1  0
 60 54  1  0
 61 67  1  0
 61 69  1  0
 62 67  1  0
 63 64  1  0
 63 62  1  0
 65 64  1  0
 65 74  1  0
 65 66  1  0
 67 66  1  0
 68 61  2  0
 69 70  1  0
 71 96  1  0
 71 72  2  0
 72 91  1  0
 73 76  1  0
 73 72  1  0
 74 75  1  0
 74 71  1  0
 75 73  2  0
 76 77  1  0
 77 78  2  0
 79 78  1  0
 80 79  2  0
 81 80  1  0
 81 76  2  0
 82 79  1  0
 82 83  1  0
 83 88  2  0
 83 84  1  0
 84 85  2  0
 85 86  1  0
 86 90  1  0
 87 86  2  0
 88 87  1  0
 89 88  1  0
 91 92  1  0
 92 94  1  0
 92 95  1  0
 93 91  2  0
 96 97  1  0
 98 96  1  0
100102  1  0
100 99  1  0
102101  1  0
103102  1  0
104102  1  0
M  ISO  4  11 101  12 101  61 100  69 100
M  END
>  <TORSDO>  (61) 
F 23

>  <SCORE>  (61) 
-1.309

>  <name>  (61) 
67

>  <ligand_id>  (61) 
67

>  <original_smiles>  (61) 
[H]c1c([H])c([H])c2c(c1[H])C([H])([H])C([H])([H])C([H])([H])C2([H])N([H])C(=O)C1([H])N(C(=O)C([H])(N([H])C(=O)C([H])(N([H])C([H])([H])[H])C([H])([H])[H])C(C([H])([H])[H])(C([H])([H])[H])C([H])([H])[H])C([H])([H])c2c([H])c(OC([H])([H])C([H])([H])[N+]3([H])C([H])([H])C([H])([H])N(C(=O)C([H])(N([H])C(=O)C(N([H])C(=O)N4C([H])([H])C([H])([H])C([H])([H])C([H])(n5nc(-c6c([H])c([H])c(Oc7c([H])c([H])c(F)c([H])c7F)c([H])c6[H])c(C(=O)N([H])[H])c5N([H])[H])C4([H])[H])(C([H])([H])[H])C([H])([H])[H])C([H])(C([H])([H])[H])[N+]([H])([H])C([H])([H])[H])C([H])([H])C3([H])[H])c([H])c([H])c2C1([H])[H]

>  <smiles>  (61) 
[H]c1c([H])c([H])c2c(c1[H])C([H])([H])C([H])([H])C([H])([H])C2([H])N([H])C(=O)C1([H])N(C(=O)C([H])(N([H])C(=O)C([H])(N([H])C([H])([H])[H])C([H])([H])[H])C(C([H])([H])[H])(C([H])([H])[H])C([H])([H])[H])C([H])([H])c2c([H])c(OC([H])([H])C([H])([H])[N+]3([H])C([H])([H])C([H])([H])N(C(=O)C([H])(N([H])C(=O)C(N([H])C(=O)N4C([H])([H])C([H])([H])C([H])([H])C([H])(n5nc(-c6c([H])c([H])c(Oc7c([H])c([H])c(F)c([H])c7F)c([H])c6[H])c(C(=O)N([H])[H])c5N([H])[H])C4([H])[H])(C([H])([H])[H])C([H])([H])[H])C([H])(C([H])([H])[H])[N+]([H])([H])C([H])([H])[H])C([H])([H])C3([H])[H])c([H])c([H])c2C1([H])[H]

$$$$
68:0:0
     RDKit          3D

 97104  0  0  1  0  0  0  0  0999 V2000
  -26.5370  -22.1580   17.8600 C   0  0  0  0  0  3  0  0  0  0  0  0
  -26.1820  -22.8830   16.7830 C   0  0  0  0  0  3  0  0  0  0  0  0
  -27.0160  -20.7950   17.7150 C   0  0  0  0  0  0  0  0  0  0  0  0
  -27.1890  -20.2030   18.9020 N   0  0  0  0  0  0  0  0  0  0  0  0
  -27.2440  -20.2230   16.6470 O   0  0  0  0  0  0  0  0  0  0  0  0
  -26.9580  -20.7410   19.7270 H   0  0  0  0  0  0  0  0  0  0  0  0
  -27.6540  -18.8380   19.1160 C   0  0  0  0  0  2  0  0  0  0  0  0
  -29.1820  -18.7830   19.2770 C   0  0  0  0  0  2  0  0  0  0  0  0
  -29.6490  -17.4940   19.9670 C   0  0  0  0  0  2  0  0  0  0  0  0
  -31.1760  -17.4460   20.1490 C   0  0  0  0  0  2  0  0  0  0  0  0
  -31.6560  -16.3290   21.0940 C   0  0  0  0  0  2  0  0  0  0  0  0
  -31.3690  -14.1780   19.8550 C   0  0  0  0  0  0  0  0  0  0  0  0
  -30.8470  -12.0160   18.7880 C   0  0  0  0  0  2  0  0  0  0  0  0
  -29.8150  -12.1780   17.6570 C   0  0  0  0  0  2  0  0  0  0  0  0
  -28.3790  -12.1280   18.2110 C   0  0  0  0  0  2  0  0  0  0  0  0
  -28.1760  -13.0740   19.4230 C   0  0  0  0  0  3  0  0  0  0  0  0
  -29.3000  -12.8690   20.4630 C   0  0  0  0  0  2  0  0  0  0  0  0
  -30.6000  -13.0610   19.7910 N   0  0  0  0  0  0  0  0  0  0  0  0
  -32.3380  -14.3810   19.1170 O   0  0  0  0  0  0  0  0  0  0  0  0
  -31.0180  -15.0450   20.8100 N   0  0  0  0  0  0  0  0  0  0  0  0
  -30.2320  -14.7840   21.3870 H   0  0  0  0  0  0  0  0  0  0  0  0
  -25.9350  -13.8590   20.4240 C   0  0  0  0  0  0  0  0  0  0  0  0
  -24.8320  -13.1680   20.8480 C   0  0  0  0  0  0  0  0  0  0  0  0
  -25.1400  -11.7850   20.6690 C   0  0  0  0  0  0  0  0  0  0  0  0
  -26.8530  -12.9000   20.0200 N   0  0  0  0  0  0  0  0  0  0  0  0
  -26.3810  -11.6440   20.2210 N   0  0  0  0  0  0  0  0  0  0  0  0
  -24.3050  -10.5890   20.8440 C   0  0  0  0  0  0  0  0  0  0  0  0
  -24.6730   -9.5550   21.7340 C   0  0  0  0  0  3  0  0  0  0  0  0
  -23.8460   -8.4230   21.8970 C   0  0  0  0  0  3  0  0  0  0  0  0
  -22.6350   -8.3180   21.1730 C   0  0  0  0  0  0  0  0  0  0  0  0
  -22.2840   -9.3390   20.2710 C   0  0  0  0  0  3  0  0  0  0  0  0
  -23.1120  -10.4620   20.1050 C   0  0  0  0  0  3  0  0  0  0  0  0
  -21.7810   -7.2440   21.2480 O   0  0  0  0  0  0  0  0  0  0  0  0
  -21.6510   -6.5070   22.3980 C   0  0  0  0  0  0  0  0  0  0  0  0
  -21.2130   -7.0870   23.6090 C   0  0  0  0  0  3  0  0  0  0  0  0
  -21.0280   -6.2790   24.7480 C   0  0  0  0  0  3  0  0  0  0  0  0
  -21.2700   -4.8940   24.6790 C   0  0  0  0  0  0  0  0  0  0  0  0
  -21.7010   -4.3150   23.4730 C   0  0  0  0  0  3  0  0  0  0  0  0
  -21.8880   -5.1190   22.3340 C   0  0  0  0  0  0  0  0  0  0  0  0
  -22.2830   -4.5530   21.1690 F   0  0  0  0  0  0  0  0  0  0  0  0
  -21.0840   -4.1170   25.7710 F   0  0  0  0  0  0  0  0  0  0  0  0
  -23.5280  -13.7560   21.3060 C   0  0  0  0  0  0  0  0  0  0  0  0
  -22.8210  -13.0670   22.1960 N   0  0  0  0  0  0  0  0  0  0  0  0
  -23.1490  -14.8580   20.9100 O   0  0  0  0  0  0  0  0  0  0  0  0
  -23.1410  -12.1730   22.5380 H   0  0  0  0  0  0  0  0  0  0  0  0
  -21.9490  -13.4410   22.5410 H   0  0  0  0  0  0  0  0  0  0  0  0
  -26.2290  -15.2150   20.3310 N   0  0  0  0  0  0  0  0  0  0  0  0
  -25.5540  -15.9340   20.5700 H   0  0  0  0  0  0  0  0  0  0  0  0
  -27.0920  -15.5880   19.9570 H   0  0  0  0  0  0  0  0  0  0  0  0
  -25.6620  -24.3070   16.8470 C   0  0  0  0  0  2  0  0  0  0  0  0
  -26.3050  -25.2340   15.8010 C   0  0  0  0  0  2  0  0  0  0  0  0
  -27.8330  -25.3360   15.8980 C   0  0  0  0  0  2  0  0  0  0  0  0
  -28.1770  -26.0240   17.0910 O   0  0  0  0  0  0  0  0  0  0  0  0
  -29.5700  -26.2690   17.2070 C   0  0  0  0  0  2  0  0  0  0  0  0
  -29.8330  -27.0240   18.5150 C   0  0  0  0  0  2  0  0  0  0  0  0
  -29.6260  -26.1460   19.7620 C   0  0  0  0  0  2  0  0  0  0  0  0
  -29.2160  -26.9380   20.8760 O   0  0  0  0  0  0  0  0  0  0  0  0
  -25.0970  -31.9190   23.8100 C   0  0  0  0  0  0  0  0  0  0  0  0
  -27.9930  -27.5700   20.8300 C   0  0  0  0  0  0  0  0  0  0  0  0
  -23.9940  -30.4810   22.1270 C   0  0  0  0  0  3  0  0  0  0  0  0
  -25.5440  -28.9810   20.7670 C   0  0  0  0  0  0  0  0  0  0  0  0
  -26.5130  -30.9100   22.0280 C   0  0  0  0  0  2  0  0  0  0  0  0
  -26.6580  -29.5410   21.4020 C   0  0  0  0  0  0  0  0  0  0  0  0
  -27.8790  -28.8350   21.4450 C   0  0  0  0  0  3  0  0  0  0  0  0
  -26.8540  -27.0090   20.2050 C   0  0  0  0  0  3  0  0  0  0  0  0
  -25.6340  -27.7100   20.1750 C   0  0  0  0  0  3  0  0  0  0  0  0
  -24.2770  -29.8040   20.7580 C   0  0  0  0  0  2  0  0  0  0  0  0
  -25.2170  -31.1190   22.7130 N   0  0  0  0  0  0  0  0  0  0  0  0
  -23.9890  -32.1620   24.3080 O   0  0  0  0  0  0  0  0  0  0  0  0
  -23.3370  -29.4420   23.0630 C   0  0  0  0  0  0  0  0  0  0  0  0
  -22.0930  -29.0530   22.7440 N   0  0  0  0  0  0  0  0  0  0  0  0
  -23.9510  -28.9860   24.0320 O   0  0  0  0  0  0  0  0  0  0  0  0
  -21.6550  -29.4800   21.9390 H   0  0  0  0  0  0  0  0  0  0  0  0
  -18.9640  -27.2500   22.6810 C   0  0  0  0  0  0  0  0  0  0  0  0
  -21.2910  -28.0610   23.4590 C   0  0  0  0  0  3  0  0  0  0  0  0
  -21.7810  -26.6270   23.1560 C   0  0  0  0  0  2  0  0  0  0  0  0
  -21.0350  -25.9680   21.9920 C   0  0  0  0  0  2  0  0  0  0  0  0
  -19.5330  -25.8970   22.2860 C   0  0  0  0  0  2  0  0  0  0  0  0
  -19.7920  -28.2710   23.2170 C   0  0  0  0  0  0  0  0  0  0  0  0
  -19.2200  -29.5220   23.5330 C   0  0  0  0  0  3  0  0  0  0  0  0
  -17.8470  -29.7590   23.3260 C   0  0  0  0  0  3  0  0  0  0  0  0
  -17.0290  -28.7390   22.8110 C   0  0  0  0  0  3  0  0  0  0  0  0
  -17.5860  -27.4880   22.4930 C   0  0  0  0  0  3  0  0  0  0  0  0
  -26.3420  -32.5860   24.4760 C   0  0  0  0  0  3  0  0  0  0  0  0
  -26.0450  -34.0160   24.6300 N   0  0  0  0  0  0  0  0  0  0  0  0
  -26.4470  -34.9720   23.7820 C   0  0  0  0  0  0  0  0  0  0  0  0
  -27.1780  -34.7440   22.8120 O   0  0  0  0  0  0  0  0  0  0  0  0
  -25.4090  -34.2690   25.3720 H   0  0  0  0  0  0  0  0  0  0  0  0
  -24.7640  -36.7250   23.1430 C   0  0  0  0  0  1  0  0  0  0  0  0
  -25.9630  -36.4080   24.0510 C   0  0  0  0  0  3  0  0  0  0  0  0
  -28.0700  -37.3660   24.8710 C   0  0  0  0  0  1  0  0  0  0  0  0
  -27.0160  -37.4300   23.8630 N   0  0  0  0  0  0  0  0  0  0  0  0
  -26.6170  -38.3650   23.8800 H   0  0  0  0  0  0  0  0  0  0  0  0
  -26.7260  -31.9410   25.8630 C   0  0  1  0  0  0  0  0  0  0  0  0
  -25.5290  -31.7870   26.8300 C   0  0  0  0  0  1  0  0  0  0  0  0
  -27.3520  -30.5420   25.6590 C   0  0  0  0  0  1  0  0  0  0  0  0
  -27.7960  -32.8090   26.5660 C   0  0  0  0  0  1  0  0  0  0  0  0
  2 50  1  0
  2  1  2  0
  3  1  1  0
  3  4  1  0
  4  7  1  0
  4  6  1  0
  5  3  2  0
  7  8  1  0
  8  9  1  0
  9 10  1  0
 10 11  1  0
 12 20  1  0
 13 18  1  0
 14 15  1  0
 14 13  1  0
 16 15  1  0
 16 25  1  0
 16 17  1  0
 18 12  1  0
 18 17  1  0
 19 12  2  0
 20 11  1  0
 20 21  1  0
 22 23  2  0
 23 42  1  0
 24 27  1  0
 24 23  1  0
 25 26  1  0
 25 22  1  0
 26 24  2  0
 27 28  1  0
 28 29  2  0
 30 33  1  0
 30 29  1  0
 31 30  2  0
 32 31  1  0
 32 27  2  0
 33 34  1  0
 34 35  1  0
 35 36  2  0
 37 36  1  0
 37 41  1  0
 38 37  2  0
 39 34  2  0
 39 38  1  0
 40 39  1  0
 42 43  1  0
 43 45  1  0
 43 46  1  0
 44 42  2  0
 47 22  1  0
 47 48  1  0
 49 47  1  0
 51 52  1  0
 51 50  1  0
 52 53  1  0
 53 54  1  0
 54 55  1  0
 55 56  1  0
 56 57  1  0
 58 69  2  0
 59 57  1  0
 59 64  1  0
 60 68  1  0
 60 70  1  0
 61 63  1  0
 62 68  1  0
 63 64  2  0
 63 62  1  0
 65 59  2  0
 66 65  1  0
 66 61  2  0
 67 61  1  0
 67 60  1  0
 68 58  1  0
 70 72  2  0
 71 70  1  0
 73 71  1  0
 74 79  1  0
 75 71  1  0
 76 75  1  0
 77 78  1  0
 77 76  1  0
 78 74  1  0
 79 75  1  0
 79 80  2  0
 81 80  1  0
 82 81  2  0
 83 74  2  0
 83 82  1  0
 84 58  1  0
 84 85  1  0
 84 94  1  0
 85 88  1  0
 86 90  1  0
 86 85  1  0
 87 86  2  0
 90 89  1  0
 92 93  1  0
 92 90  1  0
 92 91  1  0
 94 97  1  1
 94 95  1  0
 96 94  1  0
M  ISO  4  12 100  20 100  56 101  57 101
M  END
>  <TORSDO>  (62) 
F 29

>  <SCORE>  (62) 
-8.603

>  <name>  (62) 
68

>  <ligand_id>  (62) 
68

>  <original_smiles>  (62) 
[H]C(C(=O)N([H])C([H])([H])C([H])([H])C([H])([H])C([H])([H])C([H])([H])N([H])C(=O)N1C([H])([H])C([H])([H])C([H])([H])C([H])(n2nc(-c3c([H])c([H])c(Oc4c([H])c([H])c(F)c([H])c4F)c([H])c3[H])c(C(=O)N([H])[H])c2N([H])[H])C1([H])[H])=C([H])C([H])([H])C([H])([H])C([H])([H])OC([H])([H])C([H])([H])C([H])([H])Oc1c([H])c([H])c2c(c1[H])C([H])([H])N(C(=O)C([H])(N([H])C(=O)C([H])(N([H])C([H])([H])[H])C([H])([H])[H])C(C([H])([H])[H])(C([H])([H])[H])C([H])([H])[H])C([H])(C(=O)N([H])C1([H])c3c([H])c([H])c([H])c([H])c3C([H])([H])C([H])([H])C1([H])[H])C2([H])[H]

>  <smiles>  (62) 
[H]C(C(=O)N([H])C([H])([H])C([H])([H])C([H])([H])C([H])([H])C([H])([H])N([H])C(=O)N1C([H])([H])C([H])([H])C([H])([H])C([H])(n2nc(-c3c([H])c([H])c(Oc4c([H])c([H])c(F)c([H])c4F)c([H])c3[H])c(C(=O)N([H])[H])c2N([H])[H])C1([H])[H])=C([H])C([H])([H])C([H])([H])C([H])([H])OC([H])([H])C([H])([H])C([H])([H])Oc1c([H])c([H])c2c(c1[H])C([H])([H])N(C(=O)C([H])(N([H])C(=O)C([H])(N([H])C([H])([H])[H])C([H])([H])[H])C(C([H])([H])[H])(C([H])([H])[H])C([H])([H])[H])C([H])(C(=O)N([H])C1([H])c3c([H])c([H])c([H])c([H])c3C([H])([H])C([H])([H])C1([H])[H])C2([H])[H]

$$$$
69:0:0
     RDKit          3D

111118  0  0  1  0  0  0  0  0999 V2000
  -29.3500  -19.2550   17.6680 C   0  0  0  0  0  0  0  0  0  0  0  0
  -29.7290  -18.5690   16.5860 N   0  0  0  0  0  0  0  0  0  0  0  0
  -28.6460  -20.2650   17.6130 O   0  0  0  0  0  0  0  0  0  0  0  0
  -30.3060  -17.7530   16.7390 H   0  0  0  0  0  0  0  0  0  0  0  0
  -30.2440  -19.4750   19.9100 C   0  0  0  0  0  3  0  0  0  0  0  0
  -29.9080  -18.6820   18.8740 C   0  0  0  0  0  3  0  0  0  0  0  0
  -30.8180  -18.8960   21.1060 C   0  0  0  0  0  0  0  0  0  0  0  0
  -31.4930  -19.8000   21.8210 N   0  0  0  0  0  0  0  0  0  0  0  0
  -30.7110  -17.7180   21.4460 O   0  0  0  0  0  0  0  0  0  0  0  0
  -31.5170  -20.7500   21.4750 H   0  0  0  0  0  0  0  0  0  0  0  0
  -32.2300  -19.5310   23.0540 C   0  0  0  0  0  2  0  0  0  0  0  0
  -33.7510  -19.5550   22.8210 C   0  0  0  0  0  2  0  0  0  0  0  0
  -34.0770  -18.7140   21.7240 O   0  0  0  0  0  0  0  0  0  0  0  0
  -35.1390  -19.2160   20.9240 C   0  0  0  0  0  2  0  0  0  0  0  0
  -35.2260  -18.3740   19.6450 C   0  0  0  0  0  2  0  0  0  0  0  0
  -33.9250  -18.2710   19.0840 O   0  0  0  0  0  0  0  0  0  0  0  0
  -33.7060  -17.0450   18.4050 C   0  0  0  0  0  2  0  0  0  0  0  0
  -32.5180  -17.2260   17.4480 C   0  0  0  0  0  2  0  0  0  0  0  0
  -31.1460  -17.1250   18.1390 C   0  0  0  0  0  2  0  0  0  0  0  0
  -31.5470  -14.6660   18.2980 C   0  0  0  0  0  0  0  0  0  0  0  0
  -31.5390  -12.2040   18.3690 C   0  0  0  0  0  2  0  0  0  0  0  0
  -30.5560  -11.6390   17.3260 C   0  0  0  0  0  2  0  0  0  0  0  0
  -29.1300  -11.5600   17.9050 C   0  0  0  0  0  2  0  0  0  0  0  0
  -28.6860  -12.8820   18.5850 C   0  0  0  0  0  3  0  0  0  0  0  0
  -29.7760  -13.3850   19.5560 C   0  0  0  0  0  2  0  0  0  0  0  0
  -31.0390  -13.5140   18.8040 N   0  0  0  0  0  0  0  0  0  0  0  0
  -32.5330  -14.7090   17.5560 O   0  0  0  0  0  0  0  0  0  0  0  0
  -30.8730  -15.7740   18.6300 N   0  0  0  0  0  0  0  0  0  0  0  0
  -30.0690  -15.6530   19.2290 H   0  0  0  0  0  0  0  0  0  0  0  0
  -26.4260  -13.6810   19.5280 C   0  0  0  0  0  0  0  0  0  0  0  0
  -25.3840  -13.0050   20.1020 C   0  0  0  0  0  0  0  0  0  0  0  0
  -25.7780  -11.6340   20.1380 C   0  0  0  0  0  0  0  0  0  0  0  0
  -27.3950  -12.7290   19.2530 N   0  0  0  0  0  0  0  0  0  0  0  0
  -27.0130  -11.4960   19.6730 N   0  0  0  0  0  0  0  0  0  0  0  0
  -25.0290  -10.4350   20.5360 C   0  0  0  0  0  0  0  0  0  0  0  0
  -25.3940   -9.6790   21.6710 C   0  0  0  0  0  3  0  0  0  0  0  0
  -24.6460   -8.5410   22.0440 C   0  0  0  0  0  3  0  0  0  0  0  0
  -23.5210   -8.1510   21.2800 C   0  0  0  0  0  0  0  0  0  0  0  0
  -23.1760   -8.8940   20.1360 C   0  0  0  0  0  3  0  0  0  0  0  0
  -23.9240  -10.0240   19.7650 C   0  0  0  0  0  3  0  0  0  0  0  0
  -22.7510   -7.0450   21.5500 O   0  0  0  0  0  0  0  0  0  0  0  0
  -22.3710   -6.7300   22.8300 C   0  0  0  0  0  0  0  0  0  0  0  0
  -21.6460   -7.6340   23.6360 C   0  0  0  0  0  3  0  0  0  0  0  0
  -21.2140   -7.2430   24.9200 C   0  0  0  0  0  3  0  0  0  0  0  0
  -21.4980   -5.9490   25.3940 C   0  0  0  0  0  0  0  0  0  0  0  0
  -22.2150   -5.0440   24.5900 C   0  0  0  0  0  3  0  0  0  0  0  0
  -22.6470   -5.4340   23.3100 C   0  0  0  0  0  0  0  0  0  0  0  0
  -23.3200   -4.5530   22.5310 F   0  0  0  0  0  0  0  0  0  0  0  0
  -21.0770   -5.5690   26.6230 F   0  0  0  0  0  0  0  0  0  0  0  0
  -24.0600  -13.5840   20.5130 C   0  0  0  0  0  0  0  0  0  0  0  0
  -23.4430  -13.0270   21.5490 N   0  0  0  0  0  0  0  0  0  0  0  0
  -23.5870  -14.5670   19.9460 O   0  0  0  0  0  0  0  0  0  0  0  0
  -23.8420  -12.2330   22.0290 H   0  0  0  0  0  0  0  0  0  0  0  0
  -22.5630  -13.4010   21.8700 H   0  0  0  0  0  0  0  0  0  0  0  0
  -26.6210  -15.0190   19.2100 N   0  0  0  0  0  0  0  0  0  0  0  0
  -25.9350  -15.7250   19.4520 H   0  0  0  0  0  0  0  0  0  0  0  0
  -27.5170  -15.4260   18.9680 H   0  0  0  0  0  0  0  0  0  0  0  0
  -29.1750  -17.6830   14.3780 C   0  0  0  0  0  1  0  0  0  0  0  0
  -29.4770  -18.9440   15.1960 C   0  0  0  0  0  3  0  0  0  0  0  0
  -30.6760  -19.7380   14.6300 C   0  0  0  0  0  2  0  0  0  0  0  0
  -30.7710  -22.1680   15.1960 C   0  0  0  0  0  0  0  0  0  0  0  0
  -30.9950  -20.8820   15.4830 N   0  0  0  0  0  0  0  0  0  0  0  0
  -30.3920  -22.5520   14.0870 O   0  0  0  0  0  0  0  0  0  0  0  0
  -31.3060  -20.6650   16.4210 H   0  0  0  0  0  0  0  0  0  0  0  0
  -31.0120  -23.0180   16.3460 C   0  0  0  0  0  3  0  0  0  0  0  0
  -30.9200  -24.3580   16.2530 C   0  0  0  0  0  3  0  0  0  0  0  0
  -31.1550  -25.3050   17.4080 C   0  0  0  0  0  2  0  0  0  0  0  0
  -30.0440  -26.1740   17.5720 O   0  0  0  0  0  0  0  0  0  0  0  0
  -29.9730  -26.6850   18.8970 C   0  0  0  0  0  2  0  0  0  0  0  0
  -28.9810  -27.8490   19.0010 C   0  0  0  0  0  2  0  0  0  0  0  0
  -27.7060  -27.4880   18.4660 O   0  0  0  0  0  0  0  0  0  0  0  0
  -24.6260  -31.8850   23.1640 C   0  0  0  0  0  0  0  0  0  0  0  0
  -26.6050  -28.2250   18.8490 C   0  0  0  0  0  0  0  0  0  0  0  0
  -23.1070  -30.7920   21.5410 C   0  0  0  0  0  3  0  0  0  0  0  0
  -24.2460  -29.6000   19.5940 C   0  0  0  0  0  0  0  0  0  0  0  0
  -25.5400  -31.2680   20.9350 C   0  0  0  0  0  2  0  0  0  0  0  0
  -25.4920  -30.0510   20.0400 C   0  0  0  0  0  0  0  0  0  0  0  0
  -26.6710  -29.3810   19.6630 C   0  0  0  0  0  3  0  0  0  0  0  0
  -25.3420  -27.7880   18.3960 C   0  0  0  0  0  3  0  0  0  0  0  0
  -24.1640  -28.4680   18.7650 C   0  0  0  0  0  3  0  0  0  0  0  0
  -23.0380  -30.3920   20.0400 C   0  0  0  0  0  2  0  0  0  0  0  0
  -24.4530  -31.3170   21.9370 N   0  0  0  0  0  0  0  0  0  0  0  0
  -23.6740  -32.0170   23.9470 O   0  0  0  0  0  0  0  0  0  0  0  0
  -22.6460  -29.5870   22.3910 C   0  0  0  0  0  0  0  0  0  0  0  0
  -21.3350  -29.2990   22.3530 N   0  0  0  0  0  0  0  0  0  0  0  0
  -23.4550  -28.9210   23.0400 O   0  0  0  0  0  0  0  0  0  0  0  0
  -20.7360  -29.8980   21.8030 H   0  0  0  0  0  0  0  0  0  0  0  0
  -18.1700  -27.6180   22.7860 C   0  0  0  0  0  0  0  0  0  0  0  0
  -20.6770  -28.1890   23.0400 C   0  0  0  0  0  3  0  0  0  0  0  0
  -20.9510  -26.8490   22.3230 C   0  0  0  0  0  2  0  0  0  0  0  0
  -19.8730  -26.4790   21.3000 C   0  0  0  0  0  2  0  0  0  0  0  0
  -18.5040  -26.3750   21.9800 C   0  0  0  0  0  2  0  0  0  0  0  0
  -19.1900  -28.4790   23.2710 C   0  0  0  0  0  0  0  0  0  0  0  0
  -18.8250  -29.6400   23.9870 C   0  0  0  0  0  3  0  0  0  0  0  0
  -17.4710  -29.9460   24.2200 C   0  0  0  0  0  3  0  0  0  0  0  0
  -16.4650  -29.0810   23.7520 C   0  0  0  0  0  3  0  0  0  0  0  0
  -16.8160  -27.9190   23.0420 C   0  0  0  0  0  3  0  0  0  0  0  0
  -26.0180  -32.4110   23.6390 C   0  0  0  0  0  3  0  0  0  0  0  0
  -26.6810  -31.5160   24.7560 C   0  0  1  0  0  0  0  0  0  0  0  0
  -25.7480  -31.2280   25.9550 C   0  0  0  0  0  1  0  0  0  0  0  0
  -27.1310  -30.1600   24.1650 C   0  0  0  0  0  1  0  0  0  0  0  0
  -27.9560  -32.2110   25.2970 C   0  0  0  0  0  1  0  0  0  0  0  0
  -25.8280  -33.7840   24.1180 N   0  0  0  0  0  0  0  0  0  0  0  0
  -26.1700  -34.8820   23.4310 C   0  0  0  0  0  0  0  0  0  0  0  0
  -26.7500  -34.8390   22.3420 O   0  0  0  0  0  0  0  0  0  0  0  0
  -25.3030  -33.8990   24.9720 H   0  0  0  0  0  0  0  0  0  0  0  0
  -24.5630  -36.8130   23.3510 C   0  0  0  0  0  1  0  0  0  0  0  0
  -25.8080  -36.2430   24.0500 C   0  0  0  0  0  3  0  0  0  0  0  0
  -28.0400  -36.8850   24.8470 C   0  0  0  0  0  1  0  0  0  0  0  0
  -26.9090  -37.2280   23.9910 N   0  0  0  0  0  0  0  0  0  0  0  0
  -26.5770  -38.1510   24.2600 H   0  0  0  0  0  0  0  0  0  0  0  0
  1  6  1  0
  2  4  1  0
  2  1  1  0
  3  1  2  0
  5  7  1  0
  6  5  2  0
  7  9  2  0
  7  8  1  0
  8 11  1  0
 10  8  1  0
 12 11  1  0
 13 12  1  0
 14 13  1  0
 15 14  1  0
 16 15  1  0
 17 16  1  0
 18 19  1  0
 18 17  1  0
 19 28  1  0
 20 28  1  0
 20 26  1  0
 21 26  1  0
 22 23  1  0
 22 21  1  0
 24 23  1  0
 24 33  1  0
 24 25  1  0
 26 25  1  0
 27 20  2  0
 28 29  1  0
 30 31  2  0
 31 32  1  0
 31 50  1  0
 32 35  1  0
 33 30  1  0
 33 34  1  0
 34 32  2  0
 35 36  1  0
 36 37  2  0
 38 41  1  0
 38 37  1  0
 39 38  2  0
 40 39  1  0
 40 35  2  0
 41 42  1  0
 42 47  2  0
 42 43  1  0
 43 44  2  0
 44 45  1  0
 45 49  1  0
 46 45  2  0
 47 46  1  0
 48 47  1  0
 50 51  1  0
 51 54  1  0
 51 53  1  0
 52 50  2  0
 55 56  1  0
 55 30  1  0
 57 55  1  0
 59 58  1  0
 59  2  1  0
 60 59  1  0
 60 62  1  0
 61 62  1  0
 61 65  1  0
 62 64  1  0
 63 61  2  0
 66 65  2  0
 66 67  1  0
 67 68  1  0
 68 69  1  0
 69 70  1  0
 71 73  1  0
 71 70  1  0
 72 83  2  0
 73 78  1  0
 74 82  1  0
 74 84  1  0
 75 81  1  0
 75 77  1  0
 76 82  1  0
 77 76  1  0
 78 77  2  0
 79 80  1  0
 79 73  2  0
 80 75  2  0
 81 74  1  0
 82 72  1  0
 84 86  2  0
 85 84  1  0
 87 85  1  0
 88 97  2  0
 88 93  1  0
 89 85  1  0
 89 93  1  0
 90 89  1  0
 91 92  1  0
 91 90  1  0
 92 88  1  0
 93 94  2  0
 94 95  1  0
 96 95  2  0
 97 96  1  0
 98 72  1  0
 98103  1  0
 98 99  1  0
 99102  1  1
 99100  1  0
101 99  1  0
103106  1  0
104108  1  0
104103  1  0
105104  2  0
108107  1  0
110108  1  0
110111  1  0
110109  1  0
M  ISO  4  20 100  28 100  70 101  71 101
M  END
>  <TORSDO>  (63) 
F 35

>  <SCORE>  (63) 
-4.071

>  <name>  (63) 
69

>  <ligand_id>  (63) 
69

>  <original_smiles>  (63) 
[H]C(C(=O)N([H])C([H])([H])C([H])([H])OC([H])([H])C([H])([H])OC([H])([H])C([H])([H])C([H])([H])N([H])C(=O)N1C([H])([H])C([H])([H])C([H])([H])C([H])(n2nc(-c3c([H])c([H])c(Oc4c([H])c([H])c(F)c([H])c4F)c([H])c3[H])c(C(=O)N([H])[H])c2N([H])[H])C1([H])[H])=C([H])C(=O)N([H])C([H])(C([H])([H])[H])C([H])([H])N([H])C(=O)C([H])=C([H])C([H])([H])OC([H])([H])C([H])([H])Oc1c([H])c([H])c2c(c1[H])C([H])([H])N(C(=O)C([H])(N([H])C(=O)C([H])(N([H])C([H])([H])[H])C([H])([H])[H])C(C([H])([H])[H])(C([H])([H])[H])C([H])([H])[H])C([H])(C(=O)N([H])C1([H])c3c([H])c([H])c([H])c([H])c3C([H])([H])C([H])([H])C1([H])[H])C2([H])[H]

>  <smiles>  (63) 
[H]C(C(=O)N([H])C([H])([H])C([H])([H])OC([H])([H])C([H])([H])OC([H])([H])C([H])([H])C([H])([H])N([H])C(=O)N1C([H])([H])C([H])([H])C([H])([H])C([H])(n2nc(-c3c([H])c([H])c(Oc4c([H])c([H])c(F)c([H])c4F)c([H])c3[H])c(C(=O)N([H])[H])c2N([H])[H])C1([H])[H])=C([H])C(=O)N([H])C([H])(C([H])([H])[H])C([H])([H])N([H])C(=O)C([H])=C([H])C([H])([H])OC([H])([H])C([H])([H])Oc1c([H])c([H])c2c(c1[H])C([H])([H])N(C(=O)C([H])(N([H])C(=O)C([H])(N([H])C([H])([H])[H])C([H])([H])[H])C(C([H])([H])[H])(C([H])([H])[H])C([H])([H])[H])C([H])(C(=O)N([H])C1([H])c3c([H])c([H])c([H])c([H])c3C([H])([H])C([H])([H])C1([H])[H])C2([H])[H]

$$$$
70:0:0
     RDKit          3D

102109  0  0  1  0  0  0  0  0999 V2000
  -30.5020  -21.0470    8.1130 C   0  0  0  0  0  2  0  0  0  0  0  0
  -29.8790  -21.4810    9.3820 N   0  0  0  0  0  4  0  0  0  0  0  0
  -29.1440  -20.8290    9.5900 H   0  0  0  0  0  0  0  0  0  0  0  0
  -29.4550  -22.3880    9.2640 H   0  0  0  0  0  0  0  0  0  0  0  0
  -30.7890  -21.4890   10.5520 C   0  0  0  0  0  2  0  0  0  0  0  0
  -30.1450  -20.7230   11.7080 C   0  0  0  0  0  2  0  0  0  0  0  0
  -30.8530  -21.0900   12.8810 O   0  0  0  0  0  0  0  0  0  0  0  0
  -31.2170  -19.9660   13.6520 C   0  0  0  0  0  2  0  0  0  0  0  0
  -30.6320  -20.1340   15.0510 C   0  0  0  0  0  2  0  0  0  0  0  0
  -31.5940  -19.5920   16.1090 C   0  0  0  0  0  2  0  0  0  0  0  0
  -32.1110  -18.1780   15.7820 C   0  0  0  0  0  2  0  0  0  0  0  0
  -32.9280  -17.6880   16.8420 O   0  0  0  0  0  0  0  0  0  0  0  0
  -32.8830  -11.8940   20.9190 C   0  0  0  0  0  0  0  0  0  0  0  0
  -32.3130  -17.0610   17.9060 C   0  0  0  0  0  0  0  0  0  0  0  0
  -30.9410  -13.4020   21.1990 C   0  0  0  0  0  3  0  0  0  0  0  0
  -31.1420  -15.6770   20.0730 C   0  0  0  0  0  0  0  0  0  0  0  0
  -33.2050  -14.3130   20.4350 C   0  0  0  0  0  2  0  0  0  0  0  0
  -32.4540  -15.3820   19.6770 C   0  0  0  0  0  0  0  0  0  0  0  0
  -33.0420  -16.0730   18.5980 C   0  0  0  0  0  3  0  0  0  0  0  0
  -30.9880  -17.3470   18.3170 C   0  0  0  0  0  3  0  0  0  0  0  0
  -30.3990  -16.6490   19.3870 C   0  0  0  0  0  3  0  0  0  0  0  0
  -30.5980  -14.9130   21.2540 C   0  0  0  0  0  2  0  0  0  0  0  0
  -32.3710  -13.1510   20.8260 N   0  0  0  0  0  0  0  0  0  0  0  0
  -32.1990  -10.9510   21.3470 O   0  0  0  0  0  0  0  0  0  0  0  0
  -29.9320  -12.7040   20.2640 C   0  0  0  0  0  0  0  0  0  0  0  0
  -28.6850  -12.5510   20.7380 N   0  0  0  0  0  0  0  0  0  0  0  0
  -30.2650  -12.3350   19.1330 O   0  0  0  0  0  0  0  0  0  0  0  0
  -28.4880  -12.8770   21.6740 H   0  0  0  0  0  0  0  0  0  0  0  0
  -25.6570  -10.6330   21.1630 C   0  0  0  0  0  0  0  0  0  0  0  0
  -27.5640  -11.9520   20.0190 C   0  0  0  0  0  3  0  0  0  0  0  0
  -26.4880  -13.0100   19.6780 C   0  0  0  0  0  2  0  0  0  0  0  0
  -25.3920  -13.1160   20.7420 C   0  0  0  0  0  2  0  0  0  0  0  0
  -24.6800  -11.7720   20.9150 C   0  0  0  0  0  2  0  0  0  0  0  0
  -27.0160  -10.7260   20.7560 C   0  0  0  0  0  0  0  0  0  0  0  0
  -27.8900   -9.6560   21.0440 C   0  0  0  0  0  3  0  0  0  0  0  0
  -27.4310   -8.5100   21.7190 C   0  0  0  0  0  3  0  0  0  0  0  0
  -26.0810   -8.4170   22.1040 C   0  0  0  0  0  3  0  0  0  0  0  0
  -25.1980   -9.4740   21.8230 C   0  0  0  0  0  3  0  0  0  0  0  0
  -34.3590  -11.5790   20.5140 C   0  0  0  0  0  3  0  0  0  0  0  0
  -35.2190  -11.9800   21.6330 N   0  0  0  0  0  0  0  0  0  0  0  0
  -36.3070  -12.7540   21.5150 C   0  0  0  0  0  0  0  0  0  0  0  0
  -36.7370  -13.1460   20.4260 O   0  0  0  0  0  0  0  0  0  0  0  0
  -34.8970  -11.7390   22.5580 H   0  0  0  0  0  0  0  0  0  0  0  0
  -37.6620  -14.5480   22.6420 C   0  0  0  0  0  1  0  0  0  0  0  0
  -37.0360  -13.1540   22.8110 C   0  0  0  0  0  3  0  0  0  0  0  0
  -37.5360  -10.9220   23.6980 C   0  0  0  0  0  1  0  0  0  0  0  0
  -38.0800  -12.1900   23.2240 N   0  0  0  0  0  0  0  0  0  0  0  0
  -38.6600  -12.5820   23.9600 H   0  0  0  0  0  0  0  0  0  0  0  0
  -34.5900  -10.0640   20.1440 C   0  0  1  0  0  0  0  0  0  0  0  0
  -34.5460   -9.1150   21.3630 C   0  0  0  0  0  1  0  0  0  0  0  0
  -33.5280   -9.5770   19.1310 C   0  0  0  0  0  1  0  0  0  0  0  0
  -35.9660   -9.8950   19.4570 C   0  0  0  0  0  1  0  0  0  0  0  0
  -32.0300  -20.8710    8.2520 C   0  0  0  0  0  2  0  0  0  0  0  0
  -32.9400  -23.1590    8.0540 C   0  0  0  0  0  0  0  0  0  0  0  0
  -32.6830  -22.0690    8.7830 N   0  0  0  0  0  0  0  0  0  0  0  0
  -32.6510  -23.2170    6.8600 O   0  0  0  0  0  0  0  0  0  0  0  0
  -32.9910  -22.0390    9.7480 H   0  0  0  0  0  0  0  0  0  0  0  0
  -33.5770  -24.3790    8.7290 C   0  0  0  0  0  3  0  0  0  0  0  0
  -33.7920  -24.7390   11.2320 C   0  0  0  0  0  0  0  0  0  0  0  0
  -35.2210  -24.2860   13.1840 C   0  0  0  0  0  2  0  0  0  0  0  0
  -36.5850  -23.7840   12.6600 C   0  0  0  0  0  2  0  0  0  0  0  0
  -36.5650  -22.2630   12.3980 C   0  0  0  0  0  2  0  0  0  0  0  0
  -35.3270  -21.8110   11.5800 C   0  0  0  0  0  3  0  0  0  0  0  0
  -34.0370  -22.4180   12.1850 C   0  0  0  0  0  2  0  0  0  0  0  0
  -34.1940  -23.8890   12.2130 N   0  0  0  0  0  0  0  0  0  0  0  0
  -33.9880  -25.9560   11.2390 O   0  0  0  0  0  0  0  0  0  0  0  0
  -33.3480  -24.0970   10.1480 N   0  0  0  0  0  0  0  0  0  0  0  0
  -33.1700  -23.1120   10.2880 H   0  0  0  0  0  0  0  0  0  0  0  0
  -35.4760  -19.5280   10.3930 C   0  0  0  0  0  0  0  0  0  0  0  0
  -35.3590  -18.2480   10.8580 C   0  0  0  0  0  0  0  0  0  0  0  0
  -35.1000  -18.3620   12.2580 C   0  0  0  0  0  0  0  0  0  0  0  0
  -35.2550  -20.3540   11.4850 N   0  0  0  0  0  0  0  0  0  0  0  0
  -34.9940  -19.6370   12.6050 N   0  0  0  0  0  0  0  0  0  0  0  0
  -35.0120  -17.3310   13.2970 C   0  0  0  0  0  0  0  0  0  0  0  0
  -33.9300  -16.4250   13.3530 C   0  0  0  0  0  3  0  0  0  0  0  0
  -33.8780  -15.4320   14.3540 C   0  0  0  0  0  3  0  0  0  0  0  0
  -34.9180  -15.3350   15.3100 C   0  0  0  0  0  0  0  0  0  0  0  0
  -35.9800  -16.2550   15.2650 C   0  0  0  0  0  3  0  0  0  0  0  0
  -36.0270  -17.2470   14.2710 C   0  0  0  0  0  3  0  0  0  0  0  0
  -34.9390  -14.4160   16.3330 O   0  0  0  0  0  0  0  0  0  0  0  0
  -35.7390  -13.3030   16.2840 C   0  0  0  0  0  0  0  0  0  0  0  0
  -36.9890  -13.2520   16.9390 C   0  0  0  0  0  3  0  0  0  0  0  0
  -37.7470  -12.0650   16.9190 C   0  0  0  0  0  3  0  0  0  0  0  0
  -37.2560  -10.9250   16.2560 C   0  0  0  0  0  0  0  0  0  0  0  0
  -36.0090  -10.9710   15.6060 C   0  0  0  0  0  3  0  0  0  0  0  0
  -35.2530  -12.1590   15.6210 C   0  0  0  0  0  0  0  0  0  0  0  0
  -34.0430  -12.1890   15.0130 F   0  0  0  0  0  0  0  0  0  0  0  0
  -37.9800   -9.7820   16.2420 F   0  0  0  0  0  0  0  0  0  0  0  0
  -35.5560  -16.9870   10.0640 C   0  0  0  0  0  0  0  0  0  0  0  0
  -34.4900  -16.2220    9.8620 N   0  0  0  0  0  0  0  0  0  0  0  0
  -36.6460  -16.7010    9.5730 O   0  0  0  0  0  0  0  0  0  0  0  0
  -33.5960  -16.4630   10.2620 H   0  0  0  0  0  0  0  0  0  0  0  0
  -34.5770  -15.3790    9.3120 H   0  0  0  0  0  0  0  0  0  0  0  0
  -35.7650  -20.0520    9.1380 N   0  0  0  0  0  0  0  0  0  0  0  0
  -35.8580  -19.4290    8.3450 H   0  0  0  0  0  0  0  0  0  0  0  0
  -35.3100  -20.9320    8.8930 H   0  0  0  0  0  0  0  0  0  0  0  0
  -35.1110  -24.3970    8.4280 C   0  0  0  0  0  2  0  0  0  0  0  0
  -35.5640  -24.5650    6.9530 C   0  0  0  0  0  2  0  0  0  0  0  0
  -34.8140  -25.5980    6.2120 N   0  0  0  0  0  4  0  0  0  0  0  0
  -33.8240  -25.4330    6.1980 H   0  0  0  0  0  0  0  0  0  0  0  0
  -35.1360  -25.6340    5.2600 H   0  0  0  0  0  0  0  0  0  0  0  0
  -34.9770  -26.4990    6.6200 H   0  0  0  0  0  0  0  0  0  0  0  0
  1 53  1  0
  1  2  1  0
  2  3  1  0
  2  5  1  0
  4  2  1  0
  5  6  1  0
  6  7  1  0
  7  8  1  0
  8  9  1  0
  9 10  1  0
 11 10  1  0
 11 12  1  0
 12 14  1  0
 13 24  2  0
 14 20  2  0
 14 19  1  0
 15 25  1  0
 15 22  1  0
 16 22  1  0
 17 23  1  0
 18 16  1  0
 18 17  1  0
 19 18  2  0
 20 21  1  0
 21 16  2  0
 23 13  1  0
 23 15  1  0
 25 26  1  0
 26 28  1  0
 27 25  2  0
 29 38  1  0
 30 26  1  0
 30 34  1  0
 31 30  1  0
 31 32  1  0
 32 33  1  0
 33 29  1  0
 34 35  1  0
 34 29  2  0
 35 36  2  0
 36 37  1  0
 38 37  2  0
 39 13  1  0
 39 40  1  0
 40 43  1  0
 41 40  1  0
 41 45  1  0
 42 41  2  0
 45 44  1  0
 45 47  1  0
 47 46  1  0
 47 48  1  0
 49 39  1  0
 49 50  1  1
 51 49  1  0
 52 49  1  0
 53 55  1  0
 54 58  1  0
 54 55  1  0
 55 57  1  0
 56 54  2  0
 58 97  1  0
 58 67  1  0
 59 66  2  0
 59 65  1  0
 61 60  1  0
 62 61  1  0
 63 72  1  0
 63 64  1  0
 63 62  1  0
 64 65  1  0
 65 60  1  0
 67 68  1  0
 67 59  1  0
 69 70  2  0
 69 72  1  0
 70 71  1  0
 71 73  2  0
 71 74  1  0
 72 73  1  0
 74 75  2  0
 74 79  1  0
 75 76  1  0
 76 77  2  0
 77 80  1  0
 78 77  1  0
 79 78  2  0
 81 80  1  0
 81 82  1  0
 83 82  2  0
 84 83  1  0
 85 86  1  0
 85 84  2  0
 86 81  2  0
 87 86  1  0
 88 84  1  0
 89 70  1  0
 90 89  1  0
 90 92  1  0
 91 89  2  0
 93 90  1  0
 94 69  1  0
 95 94  1  0
 96 94  1  0
 98 97  1  0
 99102  1  0
 99 98  1  0
100 99  1  0
101 99  1  0
M  ISO  4  11 101  12 101  59 100  67 100
M  END
>  <TORSDO>  (64) 
F 30

>  <SCORE>  (64) 
-3.955

>  <name>  (64) 
70

>  <ligand_id>  (64) 
70

>  <original_smiles>  (64) 
[H]c1c([H])c([H])c2c(c1[H])C([H])([H])C([H])([H])C([H])([H])C2([H])N([H])C(=O)C1([H])N(C(=O)C([H])(N([H])C(=O)C([H])(N([H])C([H])([H])[H])C([H])([H])[H])C(C([H])([H])[H])(C([H])([H])[H])C([H])([H])[H])C([H])([H])c2c([H])c(OC([H])([H])C([H])([H])C([H])([H])C([H])([H])OC([H])([H])C([H])([H])[N+]([H])([H])C([H])([H])C([H])([H])N([H])C(=O)C([H])(N([H])C(=O)N3C([H])([H])C([H])([H])C([H])([H])C([H])(n4nc(-c5c([H])c([H])c(Oc6c([H])c([H])c(F)c([H])c6F)c([H])c5[H])c(C(=O)N([H])[H])c4N([H])[H])C3([H])[H])C([H])([H])C([H])([H])[N+]([H])([H])[H])c([H])c([H])c2C1([H])[H]

>  <smiles>  (64) 
[H]c1c([H])c([H])c2c(c1[H])C([H])([H])C([H])([H])C([H])([H])C2([H])N([H])C(=O)C1([H])N(C(=O)C([H])(N([H])C(=O)C([H])(N([H])C([H])([H])[H])C([H])([H])[H])C(C([H])([H])[H])(C([H])([H])[H])C([H])([H])[H])C([H])([H])c2c([H])c(OC([H])([H])C([H])([H])C([H])([H])C([H])([H])OC([H])([H])C([H])([H])[N+]([H])([H])C([H])([H])C([H])([H])N([H])C(=O)C([H])(N([H])C(=O)N3C([H])([H])C([H])([H])C([H])([H])C([H])(n4nc(-c5c([H])c([H])c(Oc6c([H])c([H])c(F)c([H])c6F)c([H])c5[H])c(C(=O)N([H])[H])c4N([H])[H])C3([H])[H])C([H])([H])C([H])([H])[N+]([H])([H])[H])c([H])c([H])c2C1([H])[H]

$$$$
71:0:0
     RDKit          3D

103110  0  0  1  0  0  0  0  0999 V2000
  -26.8140  -18.0850   18.7750 N   0  0  0  0  0  4  0  0  0  0  0  0
  -27.5570  -17.4810   18.4320 H   0  0  0  0  0  0  0  0  0  0  0  0
  -26.0860  -17.5190   19.1960 H   0  0  0  0  0  0  0  0  0  0  0  0
  -27.3080  -18.8070   19.9640 C   0  0  0  0  0  3  0  0  0  0  0  0
  -29.2160  -20.4350   20.5660 C   0  0  0  0  0  1  0  0  0  0  0  0
  -28.8340  -19.1190   19.8730 C   0  0  0  0  0  3  0  0  0  0  0  0
  -30.2070  -17.0420   19.5720 C   0  0  0  0  0  0  0  0  0  0  0  0
  -29.7390  -18.0520   20.3170 N   0  0  0  0  0  0  0  0  0  0  0  0
  -29.6080  -16.6460   18.5730 O   0  0  0  0  0  0  0  0  0  0  0  0
  -30.2780  -18.2430   21.1520 H   0  0  0  0  0  0  0  0  0  0  0  0
  -32.0740  -16.9290   21.3310 C   0  0  0  0  0  1  0  0  0  0  0  0
  -32.5820  -16.7180   18.8820 C   0  0  0  0  0  1  0  0  0  0  0  0
  -31.5450  -16.3850   19.9820 C   0  0  2  0  0  0  0  0  0  0  0  0
  -31.7960  -13.8440   19.6110 C   0  0  0  0  0  0  0  0  0  0  0  0
  -31.3210  -11.4810   19.0890 C   0  0  0  0  0  2  0  0  0  0  0  0
  -30.3320  -11.4020   17.9090 C   0  0  0  0  0  2  0  0  0  0  0  0
  -28.8740  -11.4860   18.4040 C   0  0  0  0  0  2  0  0  0  0  0  0
  -28.6470  -12.6690   19.3820 C   0  0  0  0  0  3  0  0  0  0  0  0
  -29.7320  -12.6800   20.4800 C   0  0  0  0  0  2  0  0  0  0  0  0
  -31.0510  -12.7260   19.8190 N   0  0  0  0  0  0  0  0  0  0  0  0
  -32.8320  -13.8410   18.9410 O   0  0  0  0  0  0  0  0  0  0  0  0
  -31.2710  -14.9510   20.1630 N   0  0  0  0  0  0  0  0  0  0  0  0
  -30.4220  -14.7640   20.6720 H   0  0  0  0  0  0  0  0  0  0  0  0
  -26.4930  -13.6940   20.3430 C   0  0  0  0  0  0  0  0  0  0  0  0
  -25.3200  -13.1310   20.7700 C   0  0  0  0  0  0  0  0  0  0  0  0
  -25.4720  -11.7230   20.5840 C   0  0  0  0  0  0  0  0  0  0  0  0
  -27.3040  -12.6410   19.9540 N   0  0  0  0  0  0  0  0  0  0  0  0
  -26.6940  -11.4440   20.1450 N   0  0  0  0  0  0  0  0  0  0  0  0
  -24.5040  -10.6310   20.7330 C   0  0  0  0  0  0  0  0  0  0  0  0
  -24.7630   -9.5270   21.5750 C   0  0  0  0  0  3  0  0  0  0  0  0
  -23.8100   -8.4970   21.7180 C   0  0  0  0  0  3  0  0  0  0  0  0
  -22.5820   -8.5640   21.0180 C   0  0  0  0  0  0  0  0  0  0  0  0
  -22.3400   -9.6530   20.1620 C   0  0  0  0  0  3  0  0  0  0  0  0
  -23.2910  -10.6750   20.0170 C   0  0  0  0  0  3  0  0  0  0  0  0
  -21.6080   -7.5980   21.0770 O   0  0  0  0  0  0  0  0  0  0  0  0
  -21.4150   -6.8400   22.2020 C   0  0  0  0  0  0  0  0  0  0  0  0
  -21.0970   -7.4220   23.4480 C   0  0  0  0  0  3  0  0  0  0  0  0
  -20.8390   -6.6000   24.5640 C   0  0  0  0  0  3  0  0  0  0  0  0
  -20.8900   -5.1990   24.4340 C   0  0  0  0  0  0  0  0  0  0  0  0
  -21.2030   -4.6180   23.1930 C   0  0  0  0  0  3  0  0  0  0  0  0
  -21.4620   -5.4360   22.0800 C   0  0  0  0  0  0  0  0  0  0  0  0
  -21.7430   -4.8730   20.8800 F   0  0  0  0  0  0  0  0  0  0  0  0
  -20.6360   -4.4080   25.5030 F   0  0  0  0  0  0  0  0  0  0  0  0
  -24.0870  -13.8640   21.2110 C   0  0  0  0  0  0  0  0  0  0  0  0
  -23.2980  -13.2590   22.0930 N   0  0  0  0  0  0  0  0  0  0  0  0
  -23.8400  -15.0010   20.8090 O   0  0  0  0  0  0  0  0  0  0  0  0
  -23.5110  -12.3340   22.4360 H   0  0  0  0  0  0  0  0  0  0  0  0
  -22.4670  -13.7270   22.4260 H   0  0  0  0  0  0  0  0  0  0  0  0
  -26.9220  -15.0070   20.2010 N   0  0  0  0  0  0  0  0  0  0  0  0
  -26.1270  -15.6370   20.2780 H   0  0  0  0  0  0  0  0  0  0  0  0
  -27.3890  -15.1000   19.3100 H   0  0  0  0  0  0  0  0  0  0  0  0
  -26.9250  -17.9640   21.1970 C   0  0  0  0  0  2  0  0  0  0  0  0
  -25.6590  -17.3500   20.9720 O   0  0  0  0  0  0  0  0  0  0  0  0
  -25.4110  -16.8840   21.7670 H   0  0  0  0  0  0  0  0  0  0  0  0
  -26.2030  -18.8770   17.6750 C   0  0  0  0  0  2  0  0  0  0  0  0
  -27.2230  -19.7080   16.8820 C   0  0  0  0  0  2  0  0  0  0  0  0
  -27.6150  -20.8130   17.6790 O   0  0  0  0  0  0  0  0  0  0  0  0
  -28.8190  -21.4250   17.2340 C   0  0  0  0  0  2  0  0  0  0  0  0
  -29.2200  -22.4810   18.2680 C   0  0  0  0  0  2  0  0  0  0  0  0
  -28.3380  -23.5850   18.1460 O   0  0  0  0  0  0  0  0  0  0  0  0
  -28.3450  -24.4400   19.2800 C   0  0  0  0  0  2  0  0  0  0  0  0
  -28.5570  -25.8770   18.7940 C   0  0  0  0  0  2  0  0  0  0  0  0
  -28.4020  -26.7990   19.8700 O   0  0  0  0  0  0  0  0  0  0  0  0
  -24.8610  -31.6100   23.6940 C   0  0  0  0  0  0  0  0  0  0  0  0
  -27.2330  -27.5190   19.9810 C   0  0  0  0  0  0  0  0  0  0  0  0
  -23.5780  -30.5610   21.8560 C   0  0  0  0  0  3  0  0  0  0  0  0
  -24.9350  -29.1470   20.2290 C   0  0  0  0  0  0  0  0  0  0  0  0
  -26.1240  -30.7620   21.7220 C   0  0  0  0  0  2  0  0  0  0  0  0
  -26.1160  -29.4980   20.8910 C   0  0  0  0  0  0  0  0  0  0  0  0
  -27.2630  -28.6860   20.7720 C   0  0  0  0  0  3  0  0  0  0  0  0
  -26.0230  -27.1620   19.3370 C   0  0  0  0  0  3  0  0  0  0  0  0
  -24.8780  -27.9730   19.4570 C   0  0  0  0  0  3  0  0  0  0  0  0
  -23.7560  -30.0790   20.3910 C   0  0  0  0  0  2  0  0  0  0  0  0
  -24.8720  -30.9820   22.4840 N   0  0  0  0  0  0  0  0  0  0  0  0
  -23.7950  -31.8790   24.2630 O   0  0  0  0  0  0  0  0  0  0  0  0
  -22.8420  -29.4590   22.6500 C   0  0  0  0  0  0  0  0  0  0  0  0
  -21.5150  -29.3740   22.4630 N   0  0  0  0  0  0  0  0  0  0  0  0
  -23.4620  -28.6900   23.3880 O   0  0  0  0  0  0  0  0  0  0  0  0
  -21.0810  -30.0480   21.8460 H   0  0  0  0  0  0  0  0  0  0  0  0
  -18.0780  -28.2760   22.6260 C   0  0  0  0  0  0  0  0  0  0  0  0
  -20.6210  -28.3930   23.0740 C   0  0  0  0  0  3  0  0  0  0  0  0
  -20.7090  -27.0310   22.3490 C   0  0  0  0  0  2  0  0  0  0  0  0
  -19.6620  -26.8690   21.2420 C   0  0  0  0  0  2  0  0  0  0  0  0
  -18.2480  -27.0020   21.8160 C   0  0  0  0  0  2  0  0  0  0  0  0
  -19.1940  -28.9370   23.2030 C   0  0  0  0  0  0  0  0  0  0  0  0
  -18.9850  -30.1380   23.9170 C   0  0  0  0  0  3  0  0  0  0  0  0
  -17.6920  -30.6750   24.0600 C   0  0  0  0  0  3  0  0  0  0  0  0
  -16.5890  -30.0080   23.5010 C   0  0  0  0  0  3  0  0  0  0  0  0
  -16.7830  -28.8100   22.7890 C   0  0  0  0  0  3  0  0  0  0  0  0
  -26.1810  -32.0420   24.4050 C   0  0  0  0  0  3  0  0  0  0  0  0
  -25.9920  -33.4150   24.8890 N   0  0  0  0  0  0  0  0  0  0  0  0
  -26.4410  -34.5100   24.2610 C   0  0  0  0  0  0  0  0  0  0  0  0
  -27.1290  -34.4610   23.2370 O   0  0  0  0  0  0  0  0  0  0  0  0
  -25.3900  -33.5340   25.6910 H   0  0  0  0  0  0  0  0  0  0  0  0
  -24.8890  -36.4790   24.0850 C   0  0  0  0  0  1  0  0  0  0  0  0
  -26.0670  -35.8770   24.8640 C   0  0  0  0  0  3  0  0  0  0  0  0
  -28.2480  -36.4670   25.8260 C   0  0  0  0  0  1  0  0  0  0  0  0
  -27.1920  -36.8370   24.8880 N   0  0  0  0  0  0  0  0  0  0  0  0
  -26.8660  -37.7700   25.1290 H   0  0  0  0  0  0  0  0  0  0  0  0
  -26.5920  -31.0820   25.5890 C   0  0  1  0  0  0  0  0  0  0  0  0
  -25.4590  -30.8350   26.6110 C   0  0  0  0  0  1  0  0  0  0  0  0
  -27.0460  -29.7080   25.0450 C   0  0  0  0  0  1  0  0  0  0  0  0
  -27.8010  -31.6770   26.3490 C   0  0  0  0  0  1  0  0  0  0  0  0
  1  3  1  0
  1  4  1  0
  2  1  1  0
  4 52  1  0
  6  4  1  0
  6  8  1  0
  6  5  1  0
  7 13  1  0
  7  8  1  0
  8 10  1  0
  9  7  2  0
 13 12  1  6
 13 22  1  0
 13 11  1  0
 14 20  1  0
 14 22  1  0
 15 20  1  0
 16 17  1  0
 16 15  1  0
 18 17  1  0
 18 27  1  0
 18 19  1  0
 20 19  1  0
 21 14  2  0
 22 23  1  0
 24 25  2  0
 25 44  1  0
 26 29  1  0
 26 25  1  0
 27 28  1  0
 27 24  1  0
 28 26  2  0
 29 30  1  0
 30 31  2  0
 32 35  1  0
 32 31  1  0
 33 32  2  0
 34 33  1  0
 34 29  2  0
 35 36  1  0
 36 37  1  0
 37 38  2  0
 39 38  1  0
 39 43  1  0
 40 39  2  0
 41 36  2  0
 41 40  1  0
 42 41  1  0
 44 45  1  0
 45 48  1  0
 45 47  1  0
 46 44  2  0
 49 50  1  0
 49 24  1  0
 51 49  1  0
 53 52  1  0
 53 54  1  0
 55  1  1  0
 56 55  1  0
 56 57  1  0
 58 57  1  0
 58 59  1  0
 60 59  1  0
 60 61  1  0
 62 61  1  0
 62 63  1  0
 63 65  1  0
 64 75  2  0
 65 70  1  0
 66 74  1  0
 66 76  1  0
 67 73  1  0
 67 69  1  0
 68 74  1  0
 69 68  1  0
 70 69  2  0
 71 72  1  0
 71 65  2  0
 72 67  2  0
 73 66  1  0
 74 64  1  0
 76 78  2  0
 77 76  1  0
 79 77  1  0
 80 89  2  0
 80 85  1  0
 81 77  1  0
 81 85  1  0
 82 81  1  0
 83 84  1  0
 83 82  1  0
 84 80  1  0
 85 86  2  0
 86 87  1  0
 88 87  2  0
 89 88  1  0
 90 64  1  0
 90 91  1  0
 90100  1  0
 91 94  1  0
 92 96  1  0
 92 91  1  0
 93 92  2  0
 96 95  1  0
 96 98  1  0
 98 99  1  0
 98 97  1  0
100103  1  1
100101  1  0
102100  1  0
M  ISO  4  14 100  22 100  62 101  63 101
M  END
>  <TORSDO>  (65) 
F 30

>  <SCORE>  (65) 
-6.794

>  <name>  (65) 
71

>  <ligand_id>  (65) 
71

>  <original_smiles>  (65) 
[H]OC([H])([H])C([H])(C([H])(N([H])C(=O)C(N([H])C(=O)N1C([H])([H])C([H])([H])C([H])([H])C([H])(n2nc(-c3c([H])c([H])c(Oc4c([H])c([H])c(F)c([H])c4F)c([H])c3[H])c(C(=O)N([H])[H])c2N([H])[H])C1([H])[H])(C([H])([H])[H])C([H])([H])[H])C([H])([H])[H])[N+]([H])([H])C([H])([H])C([H])([H])OC([H])([H])C([H])([H])OC([H])([H])C([H])([H])Oc1c([H])c([H])c2c(c1[H])C([H])([H])N(C(=O)C([H])(N([H])C(=O)C([H])(N([H])C([H])([H])[H])C([H])([H])[H])C(C([H])([H])[H])(C([H])([H])[H])C([H])([H])[H])C([H])(C(=O)N([H])C1([H])c3c([H])c([H])c([H])c([H])c3C([H])([H])C([H])([H])C1([H])[H])C2([H])[H]

>  <smiles>  (65) 
[H]OC([H])([H])C([H])(C([H])(N([H])C(=O)C(N([H])C(=O)N1C([H])([H])C([H])([H])C([H])([H])C([H])(n2nc(-c3c([H])c([H])c(Oc4c([H])c([H])c(F)c([H])c4F)c([H])c3[H])c(C(=O)N([H])[H])c2N([H])[H])C1([H])[H])(C([H])([H])[H])C([H])([H])[H])C([H])([H])[H])[N+]([H])([H])C([H])([H])C([H])([H])OC([H])([H])C([H])([H])OC([H])([H])C([H])([H])Oc1c([H])c([H])c2c(c1[H])C([H])([H])N(C(=O)C([H])(N([H])C(=O)C([H])(N([H])C([H])([H])[H])C([H])([H])[H])C(C([H])([H])[H])(C([H])([H])[H])C([H])([H])[H])C([H])(C(=O)N([H])C1([H])c3c([H])c([H])c([H])c([H])c3C([H])([H])C([H])([H])C1([H])[H])C2([H])[H]

$$$$
72:0:0
     RDKit          3D

 93101  0  0  1  0  0  0  0  0999 V2000
  -30.7130  -16.9650   20.6840 C   0  0  0  0  0  3  0  0  0  0  0  0
  -30.5630  -17.6220   21.8960 C   0  0  0  0  0  0  0  0  0  0  0  0
  -31.1080  -17.7310   19.4700 C   0  0  0  0  0  0  0  0  0  0  0  0
  -30.9060  -19.1320   22.0160 C   0  0  0  0  0  2  0  0  0  0  0  0
  -31.6370  -19.1640   19.6820 C   0  0  0  0  0  2  0  0  0  0  0  0
  -30.8050  -19.8460   20.7120 N   0  0  2  0  0  4  0  0  0  0  0  0
  -30.1670  -17.1750   22.9970 O   0  0  0  0  0  0  0  0  0  0  0  0
  -30.9670  -17.3080   18.3210 O   0  0  0  0  0  0  0  0  0  0  0  0
  -29.8540  -19.7220   20.3940 H   0  0  0  0  0  0  0  0  0  0  0  0
  -31.0330  -14.5290   20.1040 C   0  0  0  0  0  0  0  0  0  0  0  0
  -30.6280  -12.3840   18.9500 C   0  0  0  0  0  2  0  0  0  0  0  0
  -29.6490  -12.6390   17.7850 C   0  0  0  0  0  2  0  0  0  0  0  0
  -28.1840  -12.5530   18.2650 C   0  0  0  0  0  2  0  0  0  0  0  0
  -27.9250  -13.3720   19.5590 C   0  0  0  0  0  3  0  0  0  0  0  0
  -29.0160  -13.0970   20.6180 C   0  0  0  0  0  2  0  0  0  0  0  0
  -30.3240  -13.3700   20.0000 N   0  0  0  0  0  0  0  0  0  0  0  0
  -32.1700  -14.6460   19.6360 O   0  0  0  0  0  0  0  0  0  0  0  0
  -30.3600  -15.5820   20.6360 N   0  0  0  0  0  0  0  0  0  0  0  0
  -29.5010  -15.3460   21.1160 H   0  0  0  0  0  0  0  0  0  0  0  0
  -25.5840  -14.0470   20.3980 C   0  0  0  0  0  0  0  0  0  0  0  0
  -24.5010  -13.3040   20.7850 C   0  0  0  0  0  0  0  0  0  0  0  0
  -24.9050  -11.9370   20.6860 C   0  0  0  0  0  0  0  0  0  0  0  0
  -26.5820  -13.1330   20.0870 N   0  0  0  0  0  0  0  0  0  0  0  0
  -26.1770  -11.8580   20.3180 N   0  0  0  0  0  0  0  0  0  0  0  0
  -24.1360  -10.6970   20.8680 C   0  0  0  0  0  0  0  0  0  0  0  0
  -24.5650   -9.6850   21.7540 C   0  0  0  0  0  3  0  0  0  0  0  0
  -23.8000   -8.5110   21.9250 C   0  0  0  0  0  3  0  0  0  0  0  0
  -22.5910   -8.3430   21.2100 C   0  0  0  0  0  0  0  0  0  0  0  0
  -22.1790   -9.3440   20.3100 C   0  0  0  0  0  3  0  0  0  0  0  0
  -22.9450  -10.5090   20.1370 C   0  0  0  0  0  3  0  0  0  0  0  0
  -21.7960   -7.2260   21.2900 O   0  0  0  0  0  0  0  0  0  0  0  0
  -21.7550   -6.4530   22.4230 C   0  0  0  0  0  0  0  0  0  0  0  0
  -21.3550   -6.9800   23.6710 C   0  0  0  0  0  3  0  0  0  0  0  0
  -21.2590   -6.1340   24.7950 C   0  0  0  0  0  3  0  0  0  0  0  0
  -21.5570   -4.7640   24.6720 C   0  0  0  0  0  0  0  0  0  0  0  0
  -21.9510   -4.2370   23.4280 C   0  0  0  0  0  3  0  0  0  0  0  0
  -22.0480   -5.0790   22.3070 C   0  0  0  0  0  0  0  0  0  0  0  0
  -22.4090   -4.5630   21.1070 F   0  0  0  0  0  0  0  0  0  0  0  0
  -21.4560   -3.9480   25.7470 F   0  0  0  0  0  0  0  0  0  0  0  0
  -23.1380  -13.8280   21.1360 C   0  0  0  0  0  0  0  0  0  0  0  0
  -22.4210  -13.1380   22.0150 N   0  0  0  0  0  0  0  0  0  0  0  0
  -22.7210  -14.8870   20.6710 O   0  0  0  0  0  0  0  0  0  0  0  0
  -22.7670  -12.2810   22.4200 H   0  0  0  0  0  0  0  0  0  0  0  0
  -21.5090  -13.4750   22.2890 H   0  0  0  0  0  0  0  0  0  0  0  0
  -25.7940  -15.4160   20.2630 N   0  0  0  0  0  0  0  0  0  0  0  0
  -25.0660  -16.0950   20.4630 H   0  0  0  0  0  0  0  0  0  0  0  0
  -26.6600  -15.8390   19.9520 H   0  0  0  0  0  0  0  0  0  0  0  0
  -31.0980  -21.3180   20.8160 C   0  0  0  0  0  2  0  0  0  0  0  0
  -29.8680  -22.2150   21.1380 C   0  0  0  0  0  2  0  0  0  0  0  0
  -30.2640  -23.4330   21.7800 O   0  0  0  0  0  0  0  0  0  0  0  0
  -30.3720  -24.6110   20.9700 C   0  0  0  0  0  2  0  0  0  0  0  0
  -29.0060  -25.2280   20.5820 C   0  0  0  0  0  2  0  0  0  0  0  0
  -29.0410  -26.6640   20.6810 O   0  0  0  0  0  0  0  0  0  0  0  0
  -24.8440  -31.7330   23.4080 C   0  0  0  0  0  0  0  0  0  0  0  0
  -27.8410  -27.3420   20.5750 C   0  0  0  0  0  0  0  0  0  0  0  0
  -23.7990  -30.2620   21.7170 C   0  0  0  0  0  3  0  0  0  0  0  0
  -25.3960  -28.7640   20.4100 C   0  0  0  0  0  0  0  0  0  0  0  0
  -26.3180  -30.7140   21.6720 C   0  0  0  0  0  2  0  0  0  0  0  0
  -26.4960  -29.3400   21.0570 C   0  0  0  0  0  0  0  0  0  0  0  0
  -27.7220  -28.6350   21.1360 C   0  0  0  0  0  3  0  0  0  0  0  0
  -26.7210  -26.7850   19.9170 C   0  0  0  0  0  3  0  0  0  0  0  0
  -25.5050  -27.4870   19.8340 C   0  0  0  0  0  3  0  0  0  0  0  0
  -24.1200  -29.5710   20.3660 C   0  0  0  0  0  2  0  0  0  0  0  0
  -25.0010  -30.9200   22.3240 N   0  0  0  0  0  0  0  0  0  0  0  0
  -23.7210  -31.9730   23.8710 O   0  0  0  0  0  0  0  0  0  0  0  0
  -23.1260  -29.2320   22.6520 C   0  0  0  0  0  0  0  0  0  0  0  0
  -21.8260  -28.9800   22.4270 N   0  0  0  0  0  0  0  0  0  0  0  0
  -23.7740  -28.6590   23.5310 O   0  0  0  0  0  0  0  0  0  0  0  0
  -21.3640  -29.4960   21.6910 H   0  0  0  0  0  0  0  0  0  0  0  0
  -18.4840  -27.6290   22.6880 C   0  0  0  0  0  0  0  0  0  0  0  0
  -20.9960  -28.0200   23.1550 C   0  0  0  0  0  3  0  0  0  0  0  0
  -21.2150  -26.5850   22.6230 C   0  0  0  0  0  2  0  0  0  0  0  0
  -20.2150  -26.1850   21.5330 C   0  0  0  0  0  2  0  0  0  0  0  0
  -18.7800  -26.2750   22.0620 C   0  0  0  0  0  2  0  0  0  0  0  0
  -19.5270  -28.4540   23.1840 C   0  0  0  0  0  0  0  0  0  0  0  0
  -19.2010  -29.7190   23.7200 C   0  0  0  0  0  3  0  0  0  0  0  0
  -17.8650  -30.1600   23.7670 C   0  0  0  0  0  3  0  0  0  0  0  0
  -16.8360  -29.3290   23.2910 C   0  0  0  0  0  3  0  0  0  0  0  0
  -17.1450  -28.0660   22.7560 C   0  0  0  0  0  3  0  0  0  0  0  0
  -26.0650  -32.4230   24.0990 C   0  0  0  0  0  3  0  0  0  0  0  0
  -25.7010  -33.8230   24.3450 N   0  0  0  0  0  0  0  0  0  0  0  0
  -26.0480  -34.8500   23.5570 C   0  0  0  0  0  0  0  0  0  0  0  0
  -26.7790  -34.7180   22.5710 O   0  0  0  0  0  0  0  0  0  0  0  0
  -25.0600  -33.9990   25.1050 H   0  0  0  0  0  0  0  0  0  0  0  0
  -24.2830  -36.5610   23.0320 C   0  0  0  0  0  1  0  0  0  0  0  0
  -25.4960  -36.2410   23.9200 C   0  0  0  0  0  3  0  0  0  0  0  0
  -27.5510  -37.2420   24.8110 C   0  0  0  0  0  1  0  0  0  0  0  0
  -26.4990  -37.3200   23.8000 N   0  0  0  0  0  0  0  0  0  0  0  0
  -26.0570  -38.2320   23.8750 H   0  0  0  0  0  0  0  0  0  0  0  0
  -26.4990  -31.7170   25.4420 C   0  0  1  0  0  0  0  0  0  0  0  0
  -25.3330  -31.4880   26.4310 C   0  0  0  0  0  1  0  0  0  0  0  0
  -27.1510  -30.3450   25.1520 C   0  0  0  0  0  1  0  0  0  0  0  0
  -27.5740  -32.5700   26.1600 C   0  0  0  0  0  1  0  0  0  0  0  0
  1 18  1  0
  1  2  1  0
  2  4  1  0
  2  7  2  0
  3  5  1  0
  3  1  1  0
  5  6  1  0
  6 48  1  0
  6  4  1  0
  8  3  2  0
  6  9  1  6
 10 18  1  0
 11 16  1  0
 12 13  1  0
 12 11  1  0
 14 13  1  0
 14 23  1  0
 14 15  1  0
 16 10  1  0
 16 15  1  0
 17 10  2  0
 18 19  1  0
 20 21  2  0
 21 40  1  0
 22 21  1  0
 22 25  1  0
 23 24  1  0
 23 20  1  0
 24 22  2  0
 25 26  1  0
 26 27  2  0
 28 31  1  0
 28 27  1  0
 29 28  2  0
 30 29  1  0
 30 25  2  0
 31 32  1  0
 32 33  1  0
 33 34  2  0
 35 34  1  0
 35 39  1  0
 36 35  2  0
 37 32  2  0
 37 36  1  0
 38 37  1  0
 40 41  1  0
 41 44  1  0
 41 43  1  0
 42 40  2  0
 45 20  1  0
 45 46  1  0
 47 45  1  0
 48 49  1  0
 49 50  1  0
 51 50  1  0
 52 53  1  0
 52 51  1  0
 54 65  2  0
 55 53  1  0
 55 60  1  0
 56 64  1  0
 56 66  1  0
 57 59  1  0
 58 64  1  0
 59 60  2  0
 59 58  1  0
 61 55  2  0
 62 61  1  0
 62 57  2  0
 63 57  1  0
 63 56  1  0
 64 54  1  0
 66 68  2  0
 67 66  1  0
 69 67  1  0
 70 79  2  0
 70 75  1  0
 71 67  1  0
 71 75  1  0
 72 71  1  0
 73 74  1  0
 73 72  1  0
 74 70  1  0
 75 76  2  0
 76 77  1  0
 78 77  2  0
 79 78  1  0
 80 54  1  0
 80 81  1  0
 80 90  1  0
 81 84  1  0
 82 86  1  0
 82 81  1  0
 83 82  2  0
 86 85  1  0
 88 89  1  0
 88 86  1  0
 88 87  1  0
 90 93  1  1
 90 91  1  0
 92 90  1  0
M  ISO  4  10 100  18 100  52 101  53 101
M  END
>  <TORSDO>  (66) 
F 21

>  <SCORE>  (66) 
-12.909

>  <name>  (66) 
72

>  <ligand_id>  (66) 
72

>  <original_smiles>  (66) 
[H]c1c([H])c([H])c2c(c1[H])C([H])([H])C([H])([H])C([H])([H])C2([H])N([H])C(=O)C1([H])N(C(=O)C([H])(N([H])C(=O)C([H])(N([H])C([H])([H])[H])C([H])([H])[H])C(C([H])([H])[H])(C([H])([H])[H])C([H])([H])[H])C([H])([H])c2c([H])c(OC([H])([H])C([H])([H])OC([H])([H])C([H])([H])[N+]3([H])C([H])([H])C(=O)C(N([H])C(=O)N4C([H])([H])C([H])([H])C([H])([H])C([H])(n5nc(-c6c([H])c([H])c(Oc7c([H])c([H])c(F)c([H])c7F)c([H])c6[H])c(C(=O)N([H])[H])c5N([H])[H])C4([H])[H])=C([O-])C3([H])[H])c([H])c([H])c2C1([H])[H]

>  <smiles>  (66) 
[H]c1c([H])c([H])c2c(c1[H])C([H])([H])C([H])([H])C([H])([H])C2([H])N([H])C(=O)C1([H])N(C(=O)C([H])(N([H])C(=O)C([H])(N([H])C([H])([H])[H])C([H])([H])[H])C(C([H])([H])[H])(C([H])([H])[H])C([H])([H])[H])C([H])([H])c2c([H])c(OC([H])([H])C([H])([H])OC([H])([H])C([H])([H])[N+]3([H])C([H])([H])C(=O)C(N([H])C(=O)N4C([H])([H])C([H])([H])C([H])([H])C([H])(n5nc(-c6c([H])c([H])c(Oc7c([H])c([H])c(F)c([H])c7F)c([H])c6[H])c(C(=O)N([H])[H])c5N([H])[H])C4([H])[H])=C([O-])C3([H])[H])c([H])c([H])c2C1([H])[H]

$$$$
73:0:0
     RDKit          3D

101105  0  0  1  0  0  0  0  0999 V2000
  -24.8480  -18.6200   19.7540 N   0  0  0  0  0  4  0  0  0  0  0  0
  -25.8240  -18.6380   19.9950 H   0  0  0  0  0  0  0  0  0  0  0  0
  -24.3440  -18.7420   20.6160 H   0  0  0  0  0  0  0  0  0  0  0  0
  -24.5830  -19.7870   18.8760 C   0  0  0  0  0  2  0  0  0  0  0  0
  -25.8910  -20.5290   18.5000 C   0  0  0  0  0  2  0  0  0  0  0  0
  -25.7960  -22.0700   18.5880 C   0  0  0  0  0  2  0  0  0  0  0  0
  -26.9850  -22.6550   18.0580 O   0  0  0  0  0  0  0  0  0  0  0  0
  -27.6410  -23.5770   18.9280 C   0  0  0  0  0  2  0  0  0  0  0  0
  -28.0770  -24.8690   18.1960 C   0  0  0  0  0  2  0  0  0  0  0  0
  -26.8480  -25.5350   17.5570 C   0  0  0  0  0  2  0  0  0  0  0  0
  -26.8710  -26.9550   17.3150 O   0  0  0  0  0  0  0  0  0  0  0  0
  -24.0370  -30.0650   22.9710 C   0  0  0  0  0  0  0  0  0  0  0  0
  -25.7400  -27.5740   17.8060 C   0  0  0  0  0  0  0  0  0  0  0  0
  -22.4230  -29.2030   21.3000 C   0  0  0  0  0  3  0  0  0  0  0  0
  -23.4110  -28.5670   19.0440 C   0  0  0  0  0  0  0  0  0  0  0  0
  -24.7380  -30.0210   20.5890 C   0  0  0  0  0  2  0  0  0  0  0  0
  -24.6730  -29.0290   19.4480 C   0  0  0  0  0  0  0  0  0  0  0  0
  -25.8450  -28.5470   18.8200 C   0  0  0  0  0  3  0  0  0  0  0  0
  -24.4560  -27.1590   17.3870 C   0  0  0  0  0  3  0  0  0  0  0  0
  -23.3000  -27.6230   18.0140 C   0  0  0  0  0  3  0  0  0  0  0  0
  -22.2120  -29.1250   19.7650 C   0  0  0  0  0  2  0  0  0  0  0  0
  -23.7660  -29.7610   21.6710 N   0  0  0  0  0  0  0  0  0  0  0  0
  -23.1720  -29.9420   23.8500 O   0  0  0  0  0  0  0  0  0  0  0  0
  -22.1500  -27.8060   21.9140 C   0  0  0  0  0  0  0  0  0  0  0  0
  -20.8710  -27.3920   21.9190 N   0  0  0  0  0  0  0  0  0  0  0  0
  -23.0740  -27.1160   22.3540 O   0  0  0  0  0  0  0  0  0  0  0  0
  -20.1740  -28.0110   21.5290 H   0  0  0  0  0  0  0  0  0  0  0  0
  -17.9400  -25.2990   22.1440 C   0  0  0  0  0  0  0  0  0  0  0  0
  -20.3770  -26.1130   22.4210 C   0  0  0  0  0  3  0  0  0  0  0  0
  -20.7590  -24.9510   21.4750 C   0  0  0  0  0  2  0  0  0  0  0  0
  -19.6860  -24.6540   20.4240 C   0  0  0  0  0  2  0  0  0  0  0  0
  -18.3660  -24.2800   21.1040 C   0  0  0  0  0  2  0  0  0  0  0  0
  -18.8810  -26.1700   22.7490 C   0  0  0  0  0  0  0  0  0  0  0  0
  -18.4270  -27.1300   23.6810 C   0  0  0  0  0  3  0  0  0  0  0  0
  -17.0600  -27.2110   24.0200 C   0  0  0  0  0  3  0  0  0  0  0  0
  -16.1410  -26.3310   23.4270 C   0  0  0  0  0  3  0  0  0  0  0  0
  -16.5800  -25.3750   22.4940 C   0  0  0  0  0  3  0  0  0  0  0  0
  -25.4330  -30.6080   23.4100 C   0  0  0  0  0  3  0  0  0  0  0  0
  -25.2310  -31.9810   23.8920 N   0  0  0  0  0  0  0  0  0  0  0  0
  -25.7070  -33.0770   23.2830 C   0  0  0  0  0  0  0  0  0  0  0  0
  -26.4180  -33.0260   22.2780 O   0  0  0  0  0  0  0  0  0  0  0  0
  -24.6020  -32.1010   24.6740 H   0  0  0  0  0  0  0  0  0  0  0  0
  -24.3330  -35.1570   22.9470 C   0  0  0  0  0  1  0  0  0  0  0  0
  -25.3240  -34.4450   23.8840 C   0  0  0  0  0  3  0  0  0  0  0  0
  -27.3530  -34.8430   25.2080 C   0  0  0  0  0  1  0  0  0  0  0  0
  -26.4890  -35.3220   24.1320 N   0  0  0  0  0  0  0  0  0  0  0  0
  -26.1910  -36.2670   24.3600 H   0  0  0  0  0  0  0  0  0  0  0  0
  -26.1360  -29.7210   24.5120 C   0  0  1  0  0  0  0  0  0  0  0  0
  -25.2380  -29.4470   25.7430 C   0  0  0  0  0  1  0  0  0  0  0  0
  -26.5740  -28.3590   23.9250 C   0  0  0  0  0  1  0  0  0  0  0  0
  -27.4240  -30.4230   25.0050 C   0  0  0  0  0  1  0  0  0  0  0  0
  -24.5600  -17.2590   19.2160 C   0  0  0  0  0  2  0  0  0  0  0  0
  -24.9850  -16.1430   20.2060 C   0  0  0  0  0  2  0  0  0  0  0  0
  -25.0410  -14.6830   19.6860 C   0  0  0  0  0  2  0  0  0  0  0  0
  -26.3890  -14.2060   19.6590 O   0  0  0  0  0  0  0  0  0  0  0  0
  -26.7270  -13.4190   18.5130 C   0  0  0  0  0  2  0  0  0  0  0  0
  -27.3860  -12.0750   18.9160 C   0  0  0  0  0  2  0  0  0  0  0  0
  -27.7090  -11.0940   17.7640 C   0  0  0  0  0  2  0  0  0  0  0  0
  -27.5160   -9.5830   18.1170 C   0  0  0  0  0  2  0  0  0  0  0  0
  -28.6830   -9.1450   18.8100 O   0  0  0  0  0  0  0  0  0  0  0  0
  -28.8200   -7.8010   19.2670 C   0  0  0  0  0  2  0  0  0  0  0  0
  -30.3100   -7.4920   19.6300 C   0  0  0  0  0  2  0  0  0  0  0  0
  -30.8520   -8.0630   21.0050 C   0  0  0  0  0  2  0  0  0  0  0  0
  -33.5000   -9.5780   21.2670 C   0  0  2  0  0  0  0  0  0  0  0  0
  -34.2440   -8.4400   20.4030 C   0  0  0  0  0  1  0  0  0  0  0  0
  -33.1860   -9.1190   18.9740 C   0  0  0  0  0  1  0  0  0  0  0  0
  -31.9130  -10.3080   19.3430 C   0  0  0  0  0  2  0  0  0  0  0  0
  -31.6630  -11.0590   20.9170 C   0  0  0  0  0  2  0  0  0  0  0  0
  -32.6870  -10.4690   22.3700 C   0  0  0  0  0  1  0  0  0  0  0  0
  -33.8930   -9.1670   22.0410 N   0  0  0  0  0  1  0  0  0  0  0  0
  -34.2890  -10.6090   20.7830 O   0  0  0  0  0  1  0  0  0  0  0  0
  -32.2370   -8.5370   21.3380 N   0  0  0  0  0  2  0  0  0  0  0  0
  -32.5830   -7.9050   22.0460 H   0  0  0  0  0  0  0  0  0  0  0  0
  -29.7930  -12.6640   21.6440 C   0  0  0  0  0  0  0  0  0  0  0  0
  -28.4400  -12.5410   21.8050 C   0  0  0  0  0  0  0  0  0  0  0  0
  -28.1060  -11.2090   21.4330 C   0  0  0  0  0  0  0  0  0  0  0  0
  -30.2630  -11.4320   21.2250 N   0  0  0  0  0  0  0  0  0  0  0  0
  -29.2210  -10.5610   21.1310 N   0  0  0  0  0  0  0  0  0  0  0  0
  -26.7920  -10.5460   21.3070 C   0  0  0  0  0  0  0  0  0  0  0  0
  -26.5610   -9.2210   21.7510 C   0  0  0  0  0  3  0  0  0  0  0  0
  -25.2740   -8.6420   21.6550 C   0  0  0  0  0  3  0  0  0  0  0  0
  -24.2050   -9.3840   21.0950 C   0  0  0  0  0  0  0  0  0  0  0  0
  -24.4510  -10.6860   20.6200 C   0  0  0  0  0  3  0  0  0  0  0  0
  -25.7240  -11.2670   20.7310 C   0  0  0  0  0  3  0  0  0  0  0  0
  -22.9310   -8.8850   20.9200 O   0  0  0  0  0  0  0  0  0  0  0  0
  -22.4290   -7.8910   21.7210 C   0  0  0  0  0  0  0  0  0  0  0  0
  -22.2380   -8.0860   23.1090 C   0  0  0  0  0  3  0  0  0  0  0  0
  -21.6510   -7.0720   23.8900 C   0  0  0  0  0  3  0  0  0  0  0  0
  -21.2390   -5.8710   23.2880 C   0  0  0  0  0  0  0  0  0  0  0  0
  -21.4160   -5.6730   21.9050 C   0  0  0  0  0  3  0  0  0  0  0  0
  -22.0100   -6.6810   21.1260 C   0  0  0  0  0  0  0  0  0  0  0  0
  -22.1520   -6.4960   19.7920 F   0  0  0  0  0  0  0  0  0  0  0  0
  -20.6800   -4.8970   24.0420 F   0  0  0  0  0  0  0  0  0  0  0  0
  -27.4900  -13.6310   22.2100 C   0  0  0  0  0  0  0  0  0  0  0  0
  -26.3460  -13.2700   22.7750 N   0  0  0  0  0  0  0  0  0  0  0  0
  -27.7790  -14.8180   22.0730 O   0  0  0  0  0  0  0  0  0  0  0  0
  -26.1320  -12.2880   22.8860 H   0  0  0  0  0  0  0  0  0  0  0  0
  -25.6810  -13.9700   23.0830 H   0  0  0  0  0  0  0  0  0  0  0  0
  -30.6670  -13.7340   21.8100 N   0  0  0  0  0  0  0  0  0  0  0  0
  -30.2230  -14.6100   21.5540 H   0  0  0  0  0  0  0  0  0  0  0  0
  -31.6080  -13.6830   21.4330 H   0  0  0  0  0  0  0  0  0  0  0  0
  1  2  1  0
  1  3  1  0
  4  1  1  0
  5  6  1  0
  5  4  1  0
  7  6  1  0
  7  8  1  0
  9  8  1  0
 10  9  1  0
 11 10  1  0
 11 13  1  0
 12 23  2  0
 13 18  1  0
 14 22  1  0
 14 24  1  0
 15 17  1  0
 15 21  1  0
 16 22  1  0
 17 16  1  0
 18 17  2  0
 19 13  2  0
 19 20  1  0
 20 15  2  0
 21 14  1  0
 22 12  1  0
 24 25  1  0
 24 26  2  0
 27 25  1  0
 28 37  2  0
 28 33  1  0
 29 25  1  0
 29 33  1  0
 30 29  1  0
 31 32  1  0
 31 30  1  0
 32 28  1  0
 33 34  2  0
 34 35  1  0
 36 35  2  0
 37 36  1  0
 38 12  1  0
 38 39  1  0
 38 48  1  0
 39 42  1  0
 40 44  1  0
 40 39  1  0
 41 40  2  0
 44 43  1  0
 44 46  1  0
 46 47  1  0
 46 45  1  0
 48 51  1  1
 48 49  1  0
 50 48  1  0
 52  1  1  0
 52 53  1  0
 54 53  1  0
 55 54  1  0
 56 57  1  0
 56 55  1  0
 58 59  1  0
 58 57  1  0
 59 60  1  0
 60 61  1  0
 61 62  1  0
 62 63  1  0
 63 72  1  0
 64 70  1  0
 64 69  1  1
 65 64  1  0
 66 67  1  0
 67 68  1  0
 68 77  1  0
 71 64  1  0
 72 73  1  0
 74 75  2  0
 74 99  1  0
 75 94  1  0
 76 75  1  0
 77 74  1  0
 78 77  1  0
 78 76  2  0
 79 76  1  0
 79 80  1  0
 81 80  2  0
 82 81  1  0
 83 84  1  0
 83 82  2  0
 84 79  2  0
 85 82  1  0
 85 86  1  0
 86 87  1  0
 87 88  2  0
 89 88  1  0
 89 93  1  0
 90 89  2  0
 91 86  2  0
 91 90  1  0
 92 91  1  0
 94 95  1  0
 95 97  1  0
 95 98  1  0
 96 94  2  0
100 99  1  0
101 99  1  0
M  ISO  4  10 101  11 101  64 100  72 100
M  END
>  <TORSDO>  (67) 
F 35

>  <SCORE>  (67) 
3.579

>  <name>  (67) 
73

>  <ligand_id>  (67) 
73

>  <original_smiles>  (67) 
[H]c1c([H])c([H])c2c(c1[H])C([H])([H])C([H])([H])C([H])([H])C2([H])N([H])C(=O)C1([H])N(C(=O)C([H])(N([H])C(=O)C([H])(N([H])C([H])([H])[H])C([H])([H])[H])C(C([H])([H])[H])(C([H])([H])[H])C([H])([H])[H])C([H])([H])c2c([H])c(OC([H])([H])C([H])([H])C([H])([H])OC([H])([H])C([H])([H])C([H])([H])[N+]([H])([H])C([H])([H])C([H])([H])C([H])([H])OC([H])([H])C([H])([H])C([H])([H])C([H])([H])OC([H])([H])C([H])([H])C([H])([H])N([H])C(=O)N3C([H])([H])C([H])([H])C([H])([H])C([H])(n4nc(-c5c([H])c([H])c(Oc6c([H])c([H])c(F)c([H])c6F)c([H])c5[H])c(C(=O)N([H])[H])c4N([H])[H])C3([H])[H])c([H])c([H])c2C1([H])[H]

>  <smiles>  (67) 
[H]c1c([H])c([H])c2c(c1[H])C([H])([H])C([H])([H])C([H])([H])C2([H])N([H])C(=O)C1([H])N(C(=O)C([H])(N([H])C(=O)C([H])(N([H])C([H])([H])[H])C([H])([H])[H])C(C([H])([H])[H])(C([H])([H])[H])C([H])([H])[H])C([H])([H])c2c([H])c(OC([H])([H])C([H])([H])C([H])([H])OC([H])([H])C([H])([H])C([H])([H])[N+]([H])([H])C([H])([H])C([H])([H])C([H])([H])OC([H])([H])C([H])([H])C([H])([H])C([H])([H])OC([H])([H])C([H])([H])C([H])([H])N([H])C(=O)N3C([H])([H])C([H])([H])C([H])([H])C([H])(n4nc(-c5c([H])c([H])c(Oc6c([H])c([H])c(F)c([H])c6F)c([H])c5[H])c(C(=O)N([H])[H])c4N([H])[H])C3([H])[H])c([H])c([H])c2C1([H])[H]

$$$$
74:0:0
     RDKit          3D

101108  0  0  1  0  0  0  0  0999 V2000
  -26.0090  -22.6450   20.8660 C   0  0  0  0  0  0  0  0  0  0  0  0
  -26.6210  -22.3700   19.7040 N   0  0  0  0  0  0  0  0  0  0  0  0
  -25.4120  -21.7900   21.5240 O   0  0  0  0  0  0  0  0  0  0  0  0
  -27.0870  -23.1340   19.2380 H   0  0  0  0  0  0  0  0  0  0  0  0
  -27.1150  -21.2580   17.5660 C   0  0  0  0  0  1  0  0  0  0  0  0
  -26.5410  -21.0930   18.9850 C   0  0  0  0  0  3  0  0  0  0  0  0
  -27.2640  -19.9390   19.7090 C   0  0  0  0  0  0  0  0  0  0  0  0
  -28.5870  -20.0430   19.8900 N   0  0  0  0  0  0  0  0  0  0  0  0
  -26.6170  -18.9710   20.1130 O   0  0  0  0  0  0  0  0  0  0  0  0
  -29.0240  -20.8930   19.5620 H   0  0  0  0  0  0  0  0  0  0  0  0
  -29.4390  -19.0510   20.5520 C   0  0  0  0  0  2  0  0  0  0  0  0
  -30.7450  -18.7990   19.7700 C   0  0  0  0  0  2  0  0  0  0  0  0
  -31.7780  -17.9490   20.5400 C   0  0  0  0  0  2  0  0  0  0  0  0
  -32.0360  -15.4890   20.1050 C   0  0  0  0  0  0  0  0  0  0  0  0
  -31.8310  -13.1020   19.4990 C   0  0  0  0  0  2  0  0  0  0  0  0
  -30.9610  -12.9600   18.2350 C   0  0  0  0  0  2  0  0  0  0  0  0
  -29.4650  -12.8960   18.6060 C   0  0  0  0  0  2  0  0  0  0  0  0
  -29.0440  -14.0320   19.5750 C   0  0  0  0  0  3  0  0  0  0  0  0
  -30.0240  -14.1250   20.7630 C   0  0  0  0  0  2  0  0  0  0  0  0
  -31.3870  -14.3040   20.2240 N   0  0  0  0  0  0  0  0  0  0  0  0
  -33.1160  -15.6150   19.5170 O   0  0  0  0  0  0  0  0  0  0  0  0
  -31.3910  -16.5380   20.6350 N   0  0  0  0  0  0  0  0  0  0  0  0
  -30.5430  -16.3230   21.1400 H   0  0  0  0  0  0  0  0  0  0  0  0
  -26.6930  -14.8290   20.2600 C   0  0  0  0  0  0  0  0  0  0  0  0
  -25.5620  -14.1450   20.6110 C   0  0  0  0  0  0  0  0  0  0  0  0
  -25.9110  -12.7580   20.5680 C   0  0  0  0  0  0  0  0  0  0  0  0
  -27.6640  -13.8670   20.0280 N   0  0  0  0  0  0  0  0  0  0  0  0
  -27.1960  -12.6160   20.2710 N   0  0  0  0  0  0  0  0  0  0  0  0
  -25.0850  -11.5580   20.7360 C   0  0  0  0  0  0  0  0  0  0  0  0
  -25.3700  -10.5980   21.7290 C   0  0  0  0  0  3  0  0  0  0  0  0
  -24.5480   -9.4610   21.8820 C   0  0  0  0  0  3  0  0  0  0  0  0
  -23.4260   -9.2760   21.0400 C   0  0  0  0  0  0  0  0  0  0  0  0
  -23.1580  -10.2260   20.0410 C   0  0  0  0  0  3  0  0  0  0  0  0
  -23.9800  -11.3560   19.8850 C   0  0  0  0  0  3  0  0  0  0  0  0
  -22.5900   -8.1890   21.0970 O   0  0  0  0  0  0  0  0  0  0  0  0
  -22.2940   -7.5710   22.2850 C   0  0  0  0  0  0  0  0  0  0  0  0
  -21.7000   -8.2670   23.3590 C   0  0  0  0  0  3  0  0  0  0  0  0
  -21.3470   -7.5780   24.5380 C   0  0  0  0  0  3  0  0  0  0  0  0
  -21.5790   -6.1930   24.6400 C   0  0  0  0  0  0  0  0  0  0  0  0
  -22.1650   -5.4980   23.5690 C   0  0  0  0  0  3  0  0  0  0  0  0
  -22.5190   -6.1840   22.3940 C   0  0  0  0  0  0  0  0  0  0  0  0
  -23.0650   -5.5050   21.3570 F   0  0  0  0  0  0  0  0  0  0  0  0
  -21.2340   -5.5270   25.7680 F   0  0  0  0  0  0  0  0  0  0  0  0
  -24.2050  -14.7320   20.8760 C   0  0  0  0  0  0  0  0  0  0  0  0
  -23.4210  -14.0960   21.7400 N   0  0  0  0  0  0  0  0  0  0  0  0
  -23.8540  -15.7900   20.3580 O   0  0  0  0  0  0  0  0  0  0  0  0
  -23.7200  -13.2370   22.1810 H   0  0  0  0  0  0  0  0  0  0  0  0
  -22.5160  -14.4780   21.9710 H   0  0  0  0  0  0  0  0  0  0  0  0
  -26.9770  -16.1800   20.1010 N   0  0  0  0  0  0  0  0  0  0  0  0
  -26.3120  -16.9210   20.2960 H   0  0  0  0  0  0  0  0  0  0  0  0
  -27.8780  -16.5450   19.8210 H   0  0  0  0  0  0  0  0  0  0  0  0
  -26.0300  -24.0970   21.3600 C   0  0  0  0  0  2  0  0  0  0  0  0
  -27.2820  -24.3970   21.9730 O   0  0  0  0  0  0  0  0  0  0  0  0
  -27.2590  -25.6290   22.6920 C   0  0  0  0  0  2  0  0  0  0  0  0
  -28.6570  -26.2570   22.7420 C   0  0  0  0  0  2  0  0  0  0  0  0
  -29.0860  -26.8340   21.3870 C   0  0  0  0  0  2  0  0  0  0  0  0
  -30.3910  -27.3810   21.5070 O   0  0  0  0  0  0  0  0  0  0  0  0
  -30.7890  -28.2080   20.4170 C   0  0  0  0  0  2  0  0  0  0  0  0
  -30.9900  -27.4370   19.0950 C   0  0  0  0  0  2  0  0  0  0  0  0
  -29.8920  -27.6400   18.0320 C   0  0  0  0  0  2  0  0  0  0  0  0
  -28.7310  -26.8440   18.2810 O   0  0  0  0  0  0  0  0  0  0  0  0
  -24.8440  -30.9180   22.6810 C   0  0  0  0  0  0  0  0  0  0  0  0
  -27.5420  -27.4770   18.5730 C   0  0  0  0  0  0  0  0  0  0  0  0
  -23.5990  -29.7950   20.8570 C   0  0  0  0  0  3  0  0  0  0  0  0
  -25.0360  -28.6970   19.0560 C   0  0  0  0  0  0  0  0  0  0  0  0
  -26.0640  -30.3980   20.5770 C   0  0  0  0  0  2  0  0  0  0  0  0
  -26.1910  -29.1960   19.6700 C   0  0  0  0  0  0  0  0  0  0  0  0
  -27.4390  -28.5900   19.4380 C   0  0  0  0  0  3  0  0  0  0  0  0
  -26.3690  -26.9700   17.9780 C   0  0  0  0  0  3  0  0  0  0  0  0
  -25.1160  -27.5730   18.2130 C   0  0  0  0  0  3  0  0  0  0  0  0
  -23.7440  -29.4240   19.3550 C   0  0  0  0  0  2  0  0  0  0  0  0
  -24.8570  -30.3720   21.4320 N   0  0  0  0  0  0  0  0  0  0  0  0
  -23.7950  -30.9890   23.3360 O   0  0  0  0  0  0  0  0  0  0  0  0
  -23.0950  -28.5510   21.6220 C   0  0  0  0  0  0  0  0  0  0  0  0
  -21.7850  -28.2720   21.5100 N   0  0  0  0  0  0  0  0  0  0  0  0
  -23.8730  -27.8490   22.2720 O   0  0  0  0  0  0  0  0  0  0  0  0
  -21.2140  -28.8920   20.9550 H   0  0  0  0  0  0  0  0  0  0  0  0
  -18.5800  -26.6430   21.7930 C   0  0  0  0  0  0  0  0  0  0  0  0
  -21.0970  -27.1290   22.1080 C   0  0  0  0  0  3  0  0  0  0  0  0
  -21.3450  -25.8400   21.2890 C   0  0  0  0  0  2  0  0  0  0  0  0
  -20.2670  -25.5870   20.2310 C   0  0  0  0  0  2  0  0  0  0  0  0
  -18.8860  -25.4670   20.8810 C   0  0  0  0  0  2  0  0  0  0  0  0
  -19.6170  -27.4370   22.3510 C   0  0  0  0  0  0  0  0  0  0  0  0
  -19.2730  -28.5480   23.1500 C   0  0  0  0  0  3  0  0  0  0  0  0
  -17.9260  -28.8680   23.3930 C   0  0  0  0  0  3  0  0  0  0  0  0
  -16.9040  -28.0670   22.8550 C   0  0  0  0  0  3  0  0  0  0  0  0
  -17.2320  -26.9540   22.0640 C   0  0  0  0  0  3  0  0  0  0  0  0
  -26.1380  -31.5010   23.3350 C   0  0  0  0  0  3  0  0  0  0  0  0
  -25.7850  -32.7960   23.9310 N   0  0  0  0  0  0  0  0  0  0  0  0
  -26.0560  -33.9860   23.3760 C   0  0  0  0  0  0  0  0  0  0  0  0
  -26.7020  -34.1050   22.3310 O   0  0  0  0  0  0  0  0  0  0  0  0
  -25.2060  -32.7690   24.7580 H   0  0  0  0  0  0  0  0  0  0  0  0
  -24.2520  -35.7360   23.3850 C   0  0  0  0  0  1  0  0  0  0  0  0
  -25.5250  -35.2440   24.0920 C   0  0  0  0  0  3  0  0  0  0  0  0
  -27.6400  -36.0450   25.0440 C   0  0  0  0  0  1  0  0  0  0  0  0
  -26.5130  -36.3420   24.1630 N   0  0  0  0  0  0  0  0  0  0  0  0
  -26.0760  -37.1990   24.4860 H   0  0  0  0  0  0  0  0  0  0  0  0
  -26.7780  -30.5430   24.4120 C   0  0  1  0  0  0  0  0  0  0  0  0
  -25.7770  -30.0580   25.4870 C   0  0  0  0  0  1  0  0  0  0  0  0
  -27.3870  -29.2940   23.7320 C   0  0  0  0  0  1  0  0  0  0  0  0
  -27.9380  -31.2680   25.1320 C   0  0  0  0  0  1  0  0  0  0  0  0
  1 52  1  0
  1  3  2  0
  2  1  1  0
  4  2  1  0
  6  5  1  0
  6  2  1  0
  6  7  1  0
  7  8  1  0
  7  9  2  0
  8 11  1  0
 10  8  1  0
 12 13  1  0
 12 11  1  0
 13 22  1  0
 14 20  1  0
 14 22  1  0
 15 20  1  0
 16 17  1  0
 16 15  1  0
 18 17  1  0
 18 27  1  0
 18 19  1  0
 20 19  1  0
 21 14  2  0
 22 23  1  0
 24 25  2  0
 25 44  1  0
 26 25  1  0
 26 29  1  0
 27 24  1  0
 27 28  1  0
 28 26  2  0
 29 30  1  0
 30 31  2  0
 32 35  1  0
 32 31  1  0
 33 32  2  0
 34 33  1  0
 34 29  2  0
 35 36  1  0
 36 41  2  0
 36 37  1  0
 37 38  2  0
 38 39  1  0
 39 43  1  0
 40 39  2  0
 41 40  1  0
 42 41  1  0
 44 45  1  0
 45 48  1  0
 45 47  1  0
 46 44  2  0
 49 24  1  0
 49 50  1  0
 51 49  1  0
 52 53  1  0
 53 54  1  0
 54 55  1  0
 56 57  1  0
 56 55  1  0
 58 57  1  0
 59 58  1  0
 60 61  1  0
 60 59  1  0
 61 63  1  0
 62 73  2  0
 63 68  1  0
 64 72  1  0
 64 74  1  0
 65 71  1  0
 65 67  1  0
 66 72  1  0
 67 66  1  0
 68 67  2  0
 69 70  1  0
 69 63  2  0
 70 65  2  0
 71 64  1  0
 72 62  1  0
 74 76  2  0
 75 74  1  0
 77 75  1  0
 78 87  2  0
 78 83  1  0
 79 75  1  0
 79 83  1  0
 80 79  1  0
 81 82  1  0
 81 80  1  0
 82 78  1  0
 83 84  2  0
 84 85  1  0
 86 85  2  0
 87 86  1  0
 88 62  1  0
 88 89  1  0
 88 98  1  0
 89 92  1  0
 90 89  1  0
 90 94  1  0
 91 90  2  0
 94 93  1  0
 94 96  1  0
 96 97  1  0
 96 95  1  0
 98101  1  1
 98 99  1  0
100 98  1  0
M  ISO  4  14 100  22 100  60 101  61 101
M  END
>  <TORSDO>  (68) 
F 30

>  <SCORE>  (68) 
-4.344

>  <name>  (68) 
74

>  <ligand_id>  (68) 
74

>  <original_smiles>  (68) 
[H]c1c([H])c([H])c2c(c1[H])C([H])([H])C([H])([H])C([H])([H])C2([H])N([H])C(=O)C1([H])N(C(=O)C([H])(N([H])C(=O)C([H])(N([H])C([H])([H])[H])C([H])([H])[H])C(C([H])([H])[H])(C([H])([H])[H])C([H])([H])[H])C([H])([H])c2c([H])c(OC([H])([H])C([H])([H])C([H])([H])OC([H])([H])C([H])([H])C([H])([H])OC([H])([H])C(=O)N([H])C([H])(C(=O)N([H])C([H])([H])C([H])([H])C([H])([H])N([H])C(=O)N3C([H])([H])C([H])([H])C([H])([H])C([H])(n4nc(-c5c([H])c([H])c(Oc6c([H])c([H])c(F)c([H])c6F)c([H])c5[H])c(C(=O)N([H])[H])c4N([H])[H])C3([H])[H])C([H])([H])[H])c([H])c([H])c2C1([H])[H]

>  <smiles>  (68) 
[H]c1c([H])c([H])c2c(c1[H])C([H])([H])C([H])([H])C([H])([H])C2([H])N([H])C(=O)C1([H])N(C(=O)C([H])(N([H])C(=O)C([H])(N([H])C([H])([H])[H])C([H])([H])[H])C(C([H])([H])[H])(C([H])([H])[H])C([H])([H])[H])C([H])([H])c2c([H])c(OC([H])([H])C([H])([H])C([H])([H])OC([H])([H])C([H])([H])C([H])([H])OC([H])([H])C(=O)N([H])C([H])(C(=O)N([H])C([H])([H])C([H])([H])C([H])([H])N([H])C(=O)N3C([H])([H])C([H])([H])C([H])([H])C([H])(n4nc(-c5c([H])c([H])c(Oc6c([H])c([H])c(F)c([H])c6F)c([H])c5[H])c(C(=O)N([H])[H])c4N([H])[H])C3([H])[H])C([H])([H])[H])c([H])c([H])c2C1([H])[H]

$$$$
75:0:0
     RDKit          3D

101108  0  0  1  0  0  0  0  0999 V2000
  -26.8060  -17.9440   25.2200 O   0  0  0  0  0  0  0  0  0  0  0  0
  -27.9410  -17.5810   26.0050 C   0  0  0  0  0  2  0  0  0  0  0  0
  -28.9570  -18.7370   26.1550 C   0  0  0  0  0  2  0  0  0  0  0  0
  -29.9760  -18.6590   25.1610 O   0  0  0  0  0  0  0  0  0  0  0  0
  -30.5320  -19.9220   24.8020 C   0  0  0  0  0  2  0  0  0  0  0  0
  -31.0820  -19.8650   23.3570 C   0  0  0  0  0  2  0  0  0  0  0  0
  -31.9310  -20.9760   23.0620 O   0  0  0  0  0  0  0  0  0  0  0  0
  -31.2490  -22.2110   22.8680 C   0  0  0  0  0  2  0  0  0  0  0  0
  -31.1640  -22.5790   21.3730 C   0  0  0  0  0  2  0  0  0  0  0  0
  -30.5420  -23.9680   21.1340 C   0  0  0  0  0  2  0  0  0  0  0  0
  -30.1370  -24.0950   19.7730 O   0  0  0  0  0  0  0  0  0  0  0  0
  -25.6590  -29.0580   22.2860 C   0  0  0  0  0  0  0  0  0  0  0  0
  -29.0490  -24.9110   19.5670 C   0  0  0  0  0  0  0  0  0  0  0  0
  -24.9820  -27.9430   20.1820 C   0  0  0  0  0  3  0  0  0  0  0  0
  -26.7780  -26.5090   19.0650 C   0  0  0  0  0  0  0  0  0  0  0  0
  -27.4520  -28.1870   20.7910 C   0  0  0  0  0  2  0  0  0  0  0  0
  -27.7050  -26.8990   20.0370 C   0  0  0  0  0  0  0  0  0  0  0  0
  -28.8450  -26.1040   20.2970 C   0  0  0  0  0  3  0  0  0  0  0  0
  -28.1140  -24.5350   18.5830 C   0  0  0  0  0  3  0  0  0  0  0  0
  -26.9730  -25.3240   18.3320 C   0  0  0  0  0  3  0  0  0  0  0  0
  -25.5910  -27.4240   18.8490 C   0  0  0  0  0  2  0  0  0  0  0  0
  -26.0300  -28.4000   21.1530 N   0  0  0  0  0  0  0  0  0  0  0  0
  -24.4710  -29.3280   22.5150 O   0  0  0  0  0  0  0  0  0  0  0  0
  -24.0540  -26.8500   20.7560 C   0  0  0  0  0  0  0  0  0  0  0  0
  -22.8580  -26.7120   20.1660 N   0  0  0  0  0  0  0  0  0  0  0  0
  -24.4220  -26.1320   21.6930 O   0  0  0  0  0  0  0  0  0  0  0  0
  -22.6230  -27.3460   19.4160 H   0  0  0  0  0  0  0  0  0  0  0  0
  -19.5890  -25.4670   19.2650 C   0  0  0  0  0  0  0  0  0  0  0  0
  -21.8380  -25.7230   20.5130 C   0  0  0  0  0  3  0  0  0  0  0  0
  -22.1940  -24.3270   19.9460 C   0  0  0  0  0  2  0  0  0  0  0  0
  -21.5760  -24.0590   18.5690 C   0  0  0  0  0  2  0  0  0  0  0  0
  -20.0500  -24.1600   18.6400 C   0  0  0  0  0  2  0  0  0  0  0  0
  -20.4360  -26.2070   20.1350 C   0  0  0  0  0  0  0  0  0  0  0  0
  -19.9730  -27.4300   20.6620 C   0  0  0  0  0  3  0  0  0  0  0  0
  -18.6950  -27.9180   20.3370 C   0  0  0  0  0  3  0  0  0  0  0  0
  -17.8530  -27.1720   19.4930 C   0  0  0  0  0  3  0  0  0  0  0  0
  -18.3000  -25.9490   18.9630 C   0  0  0  0  0  3  0  0  0  0  0  0
  -26.7140  -29.5320   23.3360 C   0  0  0  0  0  3  0  0  0  0  0  0
  -26.8630  -28.5440   24.5580 C   0  0  1  0  0  0  0  0  0  0  0  0
  -25.5200  -28.1930   25.2360 C   0  0  0  0  0  1  0  0  0  0  0  0
  -27.5290  -27.2220   24.1100 C   0  0  0  0  0  1  0  0  0  0  0  0
  -27.7790  -29.1720   25.6350 C   0  0  0  0  0  1  0  0  0  0  0  0
  -26.3150  -30.8690   23.7920 N   0  0  0  0  0  0  0  0  0  0  0  0
  -26.8570  -32.0140   23.3560 C   0  0  0  0  0  0  0  0  0  0  0  0
  -27.8100  -32.0500   22.5730 O   0  0  0  0  0  0  0  0  0  0  0  0
  -25.5080  -30.9150   24.3960 H   0  0  0  0  0  0  0  0  0  0  0  0
  -25.3150  -33.9210   22.8050 C   0  0  0  0  0  1  0  0  0  0  0  0
  -26.2450  -33.3280   23.8750 C   0  0  0  0  0  3  0  0  0  0  0  0
  -28.0050  -33.9680   25.4660 C   0  0  0  0  0  1  0  0  0  0  0  0
  -27.2560  -34.3340   24.2670 N   0  0  0  0  0  0  0  0  0  0  0  0
  -26.8160  -35.2320   24.4350 H   0  0  0  0  0  0  0  0  0  0  0  0
  -26.5870  -17.1660   24.0430 C   0  0  0  0  0  2  0  0  0  0  0  0
  -27.0510  -17.9200   22.7860 C   0  0  0  0  0  2  0  0  0  0  0  0
  -28.5360  -17.7340   22.4380 C   0  0  0  0  0  2  0  0  0  0  0  0
  -29.8720  -16.2910   20.9570 C   0  0  0  0  0  0  0  0  0  0  0  0
  -28.7520  -16.9730   21.2140 N   0  0  0  0  0  0  0  0  0  0  0  0
  -30.6610  -15.9560   21.8430 O   0  0  0  0  0  0  0  0  0  0  0  0
  -28.1170  -17.1490   20.4450 H   0  0  0  0  0  0  0  0  0  0  0  0
  -30.1990  -16.0070   19.4730 C   0  0  0  0  0  3  0  0  0  0  0  0
  -31.5270  -13.8610   20.0380 C   0  0  0  0  0  0  0  0  0  0  0  0
  -30.9490  -11.7480   18.9630 C   0  0  0  0  0  2  0  0  0  0  0  0
  -30.0460  -12.0710   17.7600 C   0  0  0  0  0  2  0  0  0  0  0  0
  -28.5630  -12.0780   18.1890 C   0  0  0  0  0  2  0  0  0  0  0  0
  -28.3040  -12.8870   19.4850 C   0  0  0  0  0  3  0  0  0  0  0  0
  -29.3740  -12.6630   20.5790 C   0  0  0  0  0  2  0  0  0  0  0  0
  -30.6910  -12.7990   19.9500 N   0  0  0  0  0  0  0  0  0  0  0  0
  -32.7450  -13.7390   20.0400 O   0  0  0  0  0  0  0  0  0  0  0  0
  -31.1570  -14.9100   19.2910 N   0  0  0  0  0  0  0  0  0  0  0  0
  -31.9950  -15.3020   18.8940 H   0  0  0  0  0  0  0  0  0  0  0  0
  -25.9530  -13.6500   20.1680 C   0  0  0  0  0  0  0  0  0  0  0  0
  -24.8430  -12.9460   20.5500 C   0  0  0  0  0  0  0  0  0  0  0  0
  -25.2320  -11.5730   20.5700 C   0  0  0  0  0  0  0  0  0  0  0  0
  -26.9490  -12.7040   19.9810 N   0  0  0  0  0  0  0  0  0  0  0  0
  -26.5230  -11.4530   20.2870 N   0  0  0  0  0  0  0  0  0  0  0  0
  -24.4350  -10.3570   20.7830 C   0  0  0  0  0  0  0  0  0  0  0  0
  -24.7630   -9.4340   21.8000 C   0  0  0  0  0  3  0  0  0  0  0  0
  -23.9760   -8.2800   22.0010 C   0  0  0  0  0  3  0  0  0  0  0  0
  -22.8430   -8.0440   21.1890 C   0  0  0  0  0  0  0  0  0  0  0  0
  -22.5310   -8.9580   20.1670 C   0  0  0  0  0  3  0  0  0  0  0  0
  -23.3210  -10.1010   19.9630 C   0  0  0  0  0  3  0  0  0  0  0  0
  -22.0280   -6.9430   21.2980 O   0  0  0  0  0  0  0  0  0  0  0  0
  -21.7970   -6.3350   22.5080 C   0  0  0  0  0  0  0  0  0  0  0  0
  -21.2400   -7.0350   23.6000 C   0  0  0  0  0  3  0  0  0  0  0  0
  -20.9690   -6.3580   24.8030 C   0  0  0  0  0  3  0  0  0  0  0  0
  -21.2320   -4.9810   24.9140 C   0  0  0  0  0  0  0  0  0  0  0  0
  -21.7830   -4.2790   23.8260 C   0  0  0  0  0  3  0  0  0  0  0  0
  -22.0660   -4.9560   22.6250 C   0  0  0  0  0  0  0  0  0  0  0  0
  -22.5780   -4.2730   21.5740 F   0  0  0  0  0  0  0  0  0  0  0  0
  -20.9610   -4.3290   26.0690 F   0  0  0  0  0  0  0  0  0  0  0  0
  -23.4620  -13.5010   20.7630 C   0  0  0  0  0  0  0  0  0  0  0  0
  -22.6950  -12.9060   21.6700 N   0  0  0  0  0  0  0  0  0  0  0  0
  -23.0740  -14.4910   20.1480 O   0  0  0  0  0  0  0  0  0  0  0  0
  -23.0380  -12.1220   22.2060 H   0  0  0  0  0  0  0  0  0  0  0  0
  -21.7630  -13.2560   21.8550 H   0  0  0  0  0  0  0  0  0  0  0  0
  -26.1820  -15.0030   19.9390 N   0  0  0  0  0  0  0  0  0  0  0  0
  -25.3580  -15.5910   19.9900 H   0  0  0  0  0  0  0  0  0  0  0  0
  -26.7440  -15.2240   19.1270 H   0  0  0  0  0  0  0  0  0  0  0  0
  -29.5560  -18.2160   18.3090 C   0  0  0  0  0  1  0  0  0  0  0  0
  -31.2870  -16.7800   17.2780 C   0  0  0  0  0  1  0  0  0  0  0  0
  -31.8100  -18.0140   19.4100 C   0  0  0  0  0  1  0  0  0  0  0  0
  -30.7120  -17.2420   18.6410 C   0  0  2  0  0  0  0  0  0  0  0  0
  1  2  1  0
  2  3  1  0
  4  3  1  0
  5  4  1  0
  6  5  1  0
  7  6  1  0
  8  7  1  0
  9  8  1  0
 10  9  1  0
 11 10  1  0
 12 23  2  0
 13 11  1  0
 13 18  1  0
 14 24  1  0
 14 22  1  0
 15 17  1  0
 16 22  1  0
 17 18  2  0
 17 16  1  0
 19 13  2  0
 20 19  1  0
 20 15  2  0
 21 15  1  0
 21 14  1  0
 22 12  1  0
 24 26  2  0
 25 24  1  0
 27 25  1  0
 28 33  1  0
 29 25  1  0
 30 29  1  0
 31 32  1  0
 31 30  1  0
 32 28  1  0
 33 29  1  0
 33 34  2  0
 35 34  1  0
 36 35  2  0
 37 28  2  0
 37 36  1  0
 38 12  1  0
 38 43  1  0
 38 39  1  0
 39 40  1  1
 39 42  1  0
 41 39  1  0
 43 46  1  0
 44 43  1  0
 44 48  1  0
 45 44  2  0
 48 47  1  0
 48 50  1  0
 50 51  1  0
 50 49  1  0
 52  1  1  0
 53 52  1  0
 54 53  1  0
 55 56  1  0
 55 57  2  0
 56 54  1  0
 58 56  1  0
 59 55  1  0
 60 67  2  0
 61 66  1  0
 62 63  1  0
 62 61  1  0
 64 63  1  0
 64 73  1  0
 64 65  1  0
 66 60  1  0
 66 65  1  0
 68 59  1  0
 68 60  1  0
 69 68  1  0
 70 71  2  0
 71 72  1  0
 71 90  1  0
 72 75  1  0
 73 70  1  0
 73 74  1  0
 74 72  2  0
 75 76  1  0
 76 77  2  0
 78 81  1  0
 78 77  1  0
 79 78  2  0
 80 79  1  0
 80 75  2  0
 81 82  1  0
 82 87  2  0
 82 83  1  0
 83 84  2  0
 84 85  1  0
 85 89  1  0
 86 85  2  0
 87 86  1  0
 88 87  1  0
 90 91  1  0
 91 94  1  0
 91 93  1  0
 92 90  2  0
 95 96  1  0
 95 70  1  0
 97 95  1  0
101 98  1  6
 99101  1  0
101100  1  0
101 59  1  0
M  ISO  4  10 101  11 101  60 100  68 100
M  END
>  <TORSDO>  (69) 
F 31

>  <SCORE>  (69) 
21.174

>  <name>  (69) 
75

>  <ligand_id>  (69) 
75

>  <original_smiles>  (69) 
[H]c1c([H])c([H])c2c(c1[H])C([H])([H])C([H])([H])C([H])([H])C2([H])N([H])C(=O)C1([H])N(C(=O)C([H])(N([H])C(=O)C([H])(N([H])C([H])([H])[H])C([H])([H])[H])C(C([H])([H])[H])(C([H])([H])[H])C([H])([H])[H])C([H])([H])c2c([H])c(OC([H])([H])C([H])([H])C([H])([H])OC([H])([H])C([H])([H])OC([H])([H])C([H])([H])OC([H])([H])C([H])([H])C([H])([H])N([H])C(=O)C([H])(N([H])C(=O)N3C([H])([H])C([H])([H])C([H])([H])C([H])(n4nc(-c5c([H])c([H])c(Oc6c([H])c([H])c(F)c([H])c6F)c([H])c5[H])c(C(=O)N([H])[H])c4N([H])[H])C3([H])[H])C(C([H])([H])[H])(C([H])([H])[H])C([H])([H])[H])c([H])c([H])c2C1([H])[H]

>  <smiles>  (69) 
[H]c1c([H])c([H])c2c(c1[H])C([H])([H])C([H])([H])C([H])([H])C2([H])N([H])C(=O)C1([H])N(C(=O)C([H])(N([H])C(=O)C([H])(N([H])C([H])([H])[H])C([H])([H])[H])C(C([H])([H])[H])(C([H])([H])[H])C([H])([H])[H])C([H])([H])c2c([H])c(OC([H])([H])C([H])([H])C([H])([H])OC([H])([H])C([H])([H])OC([H])([H])C([H])([H])OC([H])([H])C([H])([H])C([H])([H])N([H])C(=O)C([H])(N([H])C(=O)N3C([H])([H])C([H])([H])C([H])([H])C([H])(n4nc(-c5c([H])c([H])c(Oc6c([H])c([H])c(F)c([H])c6F)c([H])c5[H])c(C(=O)N([H])[H])c4N([H])[H])C3([H])[H])C(C([H])([H])[H])(C([H])([H])[H])C([H])([H])[H])c([H])c([H])c2C1([H])[H]

$$$$
76:0:0
     RDKit          3D

 96104  0  0  1  0  0  0  0  0999 V2000
  -30.6710  -18.2170   21.0170 C   0  0  0  0  0  0  0  0  0  0  0  0
  -29.8010  -19.2630   21.0550 N   0  0  0  0  0  0  0  0  0  0  0  0
  -31.7800  -18.2830   21.5460 O   0  0  0  0  0  0  0  0  0  0  0  0
  -28.8370  -19.0350   20.8650 H   0  0  0  0  0  0  0  0  0  0  0  0
  -30.0020  -20.6640   21.5080 C   0  0  0  0  0  2  0  0  0  0  0  0
  -29.2550  -21.7150   20.6050 C   0  0  0  0  0  2  0  0  0  0  0  0
  -29.2150  -23.0570   21.1410 O   0  0  0  0  0  0  0  0  0  0  0  0
  -28.6420  -24.0690   20.2740 C   0  0  0  0  0  2  0  0  0  0  0  0
  -28.4470  -25.4510   20.9810 C   0  0  0  0  0  2  0  0  0  0  0  0
  -28.3290  -26.5900   20.0960 O   0  0  0  0  0  0  0  0  0  0  0  0
  -24.5450  -31.8120   23.2050 C   0  0  0  0  0  0  0  0  0  0  0  0
  -27.1570  -27.3260   20.1510 C   0  0  0  0  0  0  0  0  0  0  0  0
  -23.3180  -30.4060   21.5770 C   0  0  0  0  0  3  0  0  0  0  0  0
  -24.7620  -28.8460   20.1590 C   0  0  0  0  0  0  0  0  0  0  0  0
  -25.8440  -30.7570   21.3540 C   0  0  0  0  0  2  0  0  0  0  0  0
  -25.9290  -29.3750   20.7300 C   0  0  0  0  0  0  0  0  0  0  0  0
  -27.1300  -28.6230   20.7170 C   0  0  0  0  0  3  0  0  0  0  0  0
  -25.9750  -26.8120   19.5780 C   0  0  0  0  0  3  0  0  0  0  0  0
  -24.7830  -27.5670   19.5770 C   0  0  0  0  0  3  0  0  0  0  0  0
  -23.5170  -29.7100   20.2050 C   0  0  0  0  0  2  0  0  0  0  0  0
  -24.5880  -31.0070   22.1060 N   0  0  0  0  0  0  0  0  0  0  0  0
  -23.4680  -32.0940   23.7540 O   0  0  0  0  0  0  0  0  0  0  0  0
  -22.6680  -29.3970   22.5500 C   0  0  0  0  0  0  0  0  0  0  0  0
  -21.3520  -29.1770   22.3960 N   0  0  0  0  0  0  0  0  0  0  0  0
  -23.3450  -28.8100   23.4000 O   0  0  0  0  0  0  0  0  0  0  0  0
  -20.8670  -29.6980   21.6800 H   0  0  0  0  0  0  0  0  0  0  0  0
  -18.0040  -27.8750   22.7970 C   0  0  0  0  0  0  0  0  0  0  0  0
  -20.5380  -28.2380   23.1660 C   0  0  0  0  0  3  0  0  0  0  0  0
  -20.7170  -26.7930   22.6470 C   0  0  0  0  0  2  0  0  0  0  0  0
  -19.6700  -26.3950   21.6010 C   0  0  0  0  0  2  0  0  0  0  0  0
  -18.2590  -26.5090   22.1820 C   0  0  0  0  0  2  0  0  0  0  0  0
  -19.0780  -28.6940   23.2440 C   0  0  0  0  0  0  0  0  0  0  0  0
  -18.7890  -29.9690   23.7750 C   0  0  0  0  0  3  0  0  0  0  0  0
  -17.4620  -30.4270   23.8690 C   0  0  0  0  0  3  0  0  0  0  0  0
  -16.4040  -29.6070   23.4420 C   0  0  0  0  0  3  0  0  0  0  0  0
  -16.6760  -28.3330   22.9090 C   0  0  0  0  0  3  0  0  0  0  0  0
  -25.8400  -32.4380   23.8120 C   0  0  0  0  0  3  0  0  0  0  0  0
  -25.5330  -33.8280   24.1680 N   0  0  0  0  0  0  0  0  0  0  0  0
  -25.8410  -34.8920   23.4130 C   0  0  0  0  0  0  0  0  0  0  0  0
  -26.4870  -34.8040   22.3650 O   0  0  0  0  0  0  0  0  0  0  0  0
  -24.9550  -33.9700   24.9850 H   0  0  0  0  0  0  0  0  0  0  0  0
  -24.0930  -36.6780   23.1250 C   0  0  0  0  0  1  0  0  0  0  0  0
  -25.3580  -36.2720   23.8980 C   0  0  0  0  0  3  0  0  0  0  0  0
  -27.5060  -37.1700   24.6800 C   0  0  0  0  0  1  0  0  0  0  0  0
  -26.3800  -37.3350   23.7650 N   0  0  0  0  0  0  0  0  0  0  0  0
  -25.9670  -38.2490   23.9250 H   0  0  0  0  0  0  0  0  0  0  0  0
  -26.3830  -31.6490   25.0650 C   0  0  1  0  0  0  0  0  0  0  0  0
  -25.3130  -31.4010   26.1520 C   0  0  0  0  0  1  0  0  0  0  0  0
  -26.9540  -30.2750   24.6400 C   0  0  0  0  0  1  0  0  0  0  0  0
  -27.5510  -32.4330   25.7140 C   0  0  0  0  0  1  0  0  0  0  0  0
  -30.2920  -16.9450   20.1730 C   0  0  0  0  0  3  0  0  0  0  0  0
  -31.1740  -14.5620   20.1150 C   0  0  0  0  0  0  0  0  0  0  0  0
  -30.7880  -12.3810   18.9820 C   0  0  0  0  0  2  0  0  0  0  0  0
  -29.8440  -12.5990   17.7780 C   0  0  0  0  0  2  0  0  0  0  0  0
  -28.3730  -12.4800   18.2220 C   0  0  0  0  0  2  0  0  0  0  0  0
  -28.0790  -13.3420   19.4760 C   0  0  0  0  0  3  0  0  0  0  0  0
  -29.1390  -13.1300   20.5860 C   0  0  0  0  0  2  0  0  0  0  0  0
  -30.4730  -13.3890   20.0190 N   0  0  0  0  0  0  0  0  0  0  0  0
  -32.2400  -14.7290   19.5200 O   0  0  0  0  0  0  0  0  0  0  0  0
  -30.5720  -15.5970   20.7680 N   0  0  0  0  0  0  0  0  0  0  0  0
  -29.8820  -15.2940   21.4390 H   0  0  0  0  0  0  0  0  0  0  0  0
  -25.7230  -14.0680   20.2370 C   0  0  0  0  0  0  0  0  0  0  0  0
  -24.6380  -13.3530   20.6530 C   0  0  0  0  0  0  0  0  0  0  0  0
  -25.0340  -11.9830   20.6050 C   0  0  0  0  0  0  0  0  0  0  0  0
  -26.7220  -13.1410   19.9770 N   0  0  0  0  0  0  0  0  0  0  0  0
  -26.3090  -11.8810   20.2600 N   0  0  0  0  0  0  0  0  0  0  0  0
  -24.2490  -10.7630   20.8010 C   0  0  0  0  0  0  0  0  0  0  0  0
  -24.6420   -9.7790   21.7350 C   0  0  0  0  0  3  0  0  0  0  0  0
  -23.8640   -8.6180   21.9170 C   0  0  0  0  0  3  0  0  0  0  0  0
  -22.6790   -8.4330   21.1650 C   0  0  0  0  0  0  0  0  0  0  0  0
  -22.3060   -9.4050   20.2190 C   0  0  0  0  0  3  0  0  0  0  0  0
  -23.0850  -10.5580   20.0340 C   0  0  0  0  0  3  0  0  0  0  0  0
  -21.8720   -7.3260   21.2610 O   0  0  0  0  0  0  0  0  0  0  0  0
  -21.7700   -6.6110   22.4270 C   0  0  0  0  0  0  0  0  0  0  0  0
  -21.3560   -7.2100   23.6360 C   0  0  0  0  0  3  0  0  0  0  0  0
  -21.1970   -6.4230   24.7940 C   0  0  0  0  0  3  0  0  0  0  0  0
  -21.4460   -5.0390   24.7440 C   0  0  0  0  0  0  0  0  0  0  0  0
  -21.8560   -4.4380   23.5410 C   0  0  0  0  0  3  0  0  0  0  0  0
  -22.0160   -5.2240   22.3850 C   0  0  0  0  0  0  0  0  0  0  0  0
  -22.3920   -4.6380   21.2220 F   0  0  0  0  0  0  0  0  0  0  0  0
  -21.2860   -4.2810   25.8540 F   0  0  0  0  0  0  0  0  0  0  0  0
  -23.2750  -13.9040   20.9550 C   0  0  0  0  0  0  0  0  0  0  0  0
  -22.5420  -13.2610   21.8580 N   0  0  0  0  0  0  0  0  0  0  0  0
  -22.8740  -14.9410   20.4270 O   0  0  0  0  0  0  0  0  0  0  0  0
  -22.8840  -12.4220   22.3020 H   0  0  0  0  0  0  0  0  0  0  0  0
  -21.6300  -13.6130   22.1080 H   0  0  0  0  0  0  0  0  0  0  0  0
  -25.9110  -15.4240   20.0130 N   0  0  0  0  0  0  0  0  0  0  0  0
  -25.0400  -15.9230   20.1570 H   0  0  0  0  0  0  0  0  0  0  0  0
  -26.2370  -15.5810   19.0710 H   0  0  0  0  0  0  0  0  0  0  0  0
  -26.6530  -17.8810   20.3810 C   0  0  0  0  0  2  0  0  0  0  0  0
  -27.7150  -16.8390   20.7530 C   0  0  0  0  0  2  0  0  0  0  0  0
  -27.0090  -18.3550   18.9680 C   0  0  0  0  0  2  0  0  0  0  0  0
  -28.8140  -16.9430   19.6660 C   0  0  0  0  0  3  0  0  0  0  0  0
  -28.8190  -17.8950   17.3520 C   0  0  0  0  0  1  0  0  0  0  0  0
  -28.4490  -18.0840   18.7770 N   0  0  1  0  0  4  0  0  0  0  0  0
  -28.9480  -18.9040   19.0860 H   0  0  0  0  0  0  0  0  0  0  0  0
  1  2  1  0
  1  3  2  0
  2  5  1  0
  4  2  1  0
  6  7  1  0
  6  5  1  0
  8  9  1  0
  8  7  1  0
 10 12  1  0
 10  9  1  0
 11 22  2  0
 12 17  1  0
 13 21  1  0
 13 23  1  0
 14 20  1  0
 14 16  1  0
 15 21  1  0
 16 15  1  0
 17 16  2  0
 18 12  2  0
 19 18  1  0
 19 14  2  0
 20 13  1  0
 21 11  1  0
 23 25  2  0
 24 23  1  0
 26 24  1  0
 27 36  2  0
 27 32  1  0
 28 24  1  0
 28 32  1  0
 29 28  1  0
 30 31  1  0
 30 29  1  0
 31 27  1  0
 32 33  2  0
 33 34  1  0
 35 34  2  0
 36 35  1  0
 37 11  1  0
 37 38  1  0
 37 47  1  0
 38 41  1  0
 39 43  1  0
 39 38  1  0
 40 39  2  0
 43 42  1  0
 45 43  1  0
 45 46  1  0
 45 44  1  0
 47 50  1  1
 47 48  1  0
 49 47  1  0
 51 60  1  0
 51  1  1  0
 52 60  1  0
 53 58  1  0
 54 55  1  0
 54 53  1  0
 56 55  1  0
 56 65  1  0
 56 57  1  0
 58 52  1  0
 58 57  1  0
 59 52  2  0
 60 61  1  0
 62 63  2  0
 63 82  1  0
 64 63  1  0
 64 67  1  0
 65 62  1  0
 65 66  1  0
 66 64  2  0
 67 68  1  0
 68 69  2  0
 70 73  1  0
 70 69  1  0
 71 70  2  0
 72 71  1  0
 72 67  2  0
 73 74  1  0
 74 75  1  0
 75 76  2  0
 77 76  1  0
 77 81  1  0
 78 77  2  0
 79 74  2  0
 79 78  1  0
 80 79  1  0
 82 83  1  0
 83 86  1  0
 83 85  1  0
 84 82  2  0
 87 88  1  0
 87 62  1  0
 89 87  1  0
 90 91  1  0
 92 90  1  0
 93 51  1  0
 93 91  1  0
 94 95  1  0
 95 92  1  0
 95 96  1  1
 95 93  1  0
M  ISO  4   9 101  10 101  52 100  60 100
M  END
>  <TORSDO>  (70) 
F 23

>  <SCORE>  (70) 
-12.064

>  <name>  (70) 
76

>  <ligand_id>  (70) 
76

>  <original_smiles>  (70) 
[H]c1c([H])c([H])c2c(c1[H])C([H])([H])C([H])([H])C([H])([H])C2([H])N([H])C(=O)C1([H])N(C(=O)C([H])(N([H])C(=O)C([H])(N([H])C([H])([H])[H])C([H])([H])[H])C(C([H])([H])[H])(C([H])([H])[H])C([H])([H])[H])C([H])([H])c2c([H])c(OC([H])([H])C([H])([H])OC([H])([H])C([H])([H])N([H])C(=O)C([H])(N([H])C(=O)N3C([H])([H])C([H])([H])C([H])([H])C([H])(n4nc(-c5c([H])c([H])c(Oc6c([H])c([H])c(F)c([H])c6F)c([H])c5[H])c(C(=O)N([H])[H])c4N([H])[H])C3([H])[H])C3([H])C([H])([H])C([H])([H])C([H])([H])[N+]3([H])C([H])([H])[H])c([H])c([H])c2C1([H])[H]

>  <smiles>  (70) 
[H]c1c([H])c([H])c2c(c1[H])C([H])([H])C([H])([H])C([H])([H])C2([H])N([H])C(=O)C1([H])N(C(=O)C([H])(N([H])C(=O)C([H])(N([H])C([H])([H])[H])C([H])([H])[H])C(C([H])([H])[H])(C([H])([H])[H])C([H])([H])[H])C([H])([H])c2c([H])c(OC([H])([H])C([H])([H])OC([H])([H])C([H])([H])N([H])C(=O)C([H])(N([H])C(=O)N3C([H])([H])C([H])([H])C([H])([H])C([H])(n4nc(-c5c([H])c([H])c(Oc6c([H])c([H])c(F)c([H])c6F)c([H])c5[H])c(C(=O)N([H])[H])c4N([H])[H])C3([H])[H])C3([H])C([H])([H])C([H])([H])C([H])([H])[N+]3([H])C([H])([H])[H])c([H])c([H])c2C1([H])[H]

$$$$
77:0:0
     RDKit          3D

 90 97  0  0  1  0  0  0  0  0999 V2000
  -29.6020  -21.6620   19.8840 C   0  0  0  0  0  0  0  0  0  0  0  0
  -29.5040  -22.7960   20.6240 N   0  0  0  0  0  0  0  0  0  0  0  0
  -29.4800  -21.6830   18.6590 O   0  0  0  0  0  0  0  0  0  0  0  0
  -29.5860  -22.6800   21.6260 H   0  0  0  0  0  0  0  0  0  0  0  0
  -29.9460  -20.3200   20.6020 C   0  0  0  0  0  2  0  0  0  0  0  0
  -29.5500  -18.9900   19.8580 C   0  0  0  0  0  2  0  0  0  0  0  0
  -30.5180  -17.7620   19.9670 C   0  0  0  0  0  0  0  0  0  0  0  0
  -31.4560  -17.6870   19.1690 O   0  0  0  0  0  0  0  0  0  0  0  0
  -30.2580  -16.6650   21.0380 C   0  0  0  0  0  0  0  0  0  0  0  0
  -29.5510  -17.2280   22.2630 C   0  0  0  0  0  1  0  0  0  0  0  0
  -30.5140  -15.3940   21.1410 N   0  0  0  0  0  0  0  0  0  0  0  0
  -31.1080  -14.5670   20.1800 C   0  0  0  0  0  0  0  0  0  0  0  0
  -30.7000  -12.5080   18.8260 C   0  0  0  0  0  2  0  0  0  0  0  0
  -29.6930  -12.8050   17.6950 C   0  0  0  0  0  2  0  0  0  0  0  0
  -28.2380  -12.6860   18.1930 C   0  0  0  0  0  2  0  0  0  0  0  0
  -28.0030  -13.4380   19.5300 C   0  0  0  0  0  3  0  0  0  0  0  0
  -29.1000  -13.0720   20.5520 C   0  0  0  0  0  2  0  0  0  0  0  0
  -30.4030  -13.4170   19.9470 N   0  0  0  0  0  0  0  0  0  0  0  0
  -32.1450  -14.8120   19.5620 O   0  0  0  0  0  0  0  0  0  0  0  0
  -25.6530  -14.1060   20.3430 C   0  0  0  0  0  0  0  0  0  0  0  0
  -24.5770  -13.3590   20.7400 C   0  0  0  0  0  0  0  0  0  0  0  0
  -24.9980  -11.9950   20.6760 C   0  0  0  0  0  0  0  0  0  0  0  0
  -26.6620  -13.1980   20.0580 N   0  0  0  0  0  0  0  0  0  0  0  0
  -26.2720  -11.9220   20.3130 N   0  0  0  0  0  0  0  0  0  0  0  0
  -24.2450  -10.7510   20.8820 C   0  0  0  0  0  0  0  0  0  0  0  0
  -24.6540   -9.7920   21.8340 C   0  0  0  0  0  3  0  0  0  0  0  0
  -23.9030   -8.6120   22.0270 C   0  0  0  0  0  3  0  0  0  0  0  0
  -22.7300   -8.3850   21.2700 C   0  0  0  0  0  0  0  0  0  0  0  0
  -22.3410   -9.3330   20.3090 C   0  0  0  0  0  3  0  0  0  0  0  0
  -23.0910  -10.5050   20.1130 C   0  0  0  0  0  3  0  0  0  0  0  0
  -21.9530   -7.2550   21.3700 O   0  0  0  0  0  0  0  0  0  0  0  0
  -21.8300   -6.5690   22.5520 C   0  0  0  0  0  0  0  0  0  0  0  0
  -21.3570   -7.1900   23.7290 C   0  0  0  0  0  3  0  0  0  0  0  0
  -21.1790   -6.4310   24.9020 C   0  0  0  0  0  3  0  0  0  0  0  0
  -21.4640   -5.0520   24.9010 C   0  0  0  0  0  0  0  0  0  0  0  0
  -21.9280   -4.4300   23.7290 C   0  0  0  0  0  3  0  0  0  0  0  0
  -22.1080   -5.1870   22.5580 C   0  0  0  0  0  0  0  0  0  0  0  0
  -22.5360   -4.5790   21.4240 F   0  0  0  0  0  0  0  0  0  0  0  0
  -21.2870   -4.3200   26.0270 F   0  0  0  0  0  0  0  0  0  0  0  0
  -23.2050  -13.8710   21.0750 C   0  0  0  0  0  0  0  0  0  0  0  0
  -22.5030  -13.1970   21.9800 N   0  0  0  0  0  0  0  0  0  0  0  0
  -22.7680  -14.9050   20.5710 O   0  0  0  0  0  0  0  0  0  0  0  0
  -22.8690  -12.3610   22.4090 H   0  0  0  0  0  0  0  0  0  0  0  0
  -21.5850  -13.5250   22.2460 H   0  0  0  0  0  0  0  0  0  0  0  0
  -25.8510  -15.4760   20.1850 N   0  0  0  0  0  0  0  0  0  0  0  0
  -25.1210  -16.1540   20.3740 H   0  0  0  0  0  0  0  0  0  0  0  0
  -26.7250  -15.9040   19.9050 H   0  0  0  0  0  0  0  0  0  0  0  0
  -29.5430  -24.2090   20.1440 C   0  0  0  0  0  2  0  0  0  0  0  0
  -28.2740  -25.0710   20.4420 C   0  0  0  0  0  2  0  0  0  0  0  0
  -28.4390  -26.5130   20.2250 O   0  0  0  0  0  0  0  0  0  0  0  0
  -24.5710  -31.7970   23.1790 C   0  0  0  0  0  0  0  0  0  0  0  0
  -27.2870  -27.2940   20.1850 C   0  0  0  0  0  0  0  0  0  0  0  0
  -23.4070  -30.3700   21.5330 C   0  0  0  0  0  3  0  0  0  0  0  0
  -24.8940  -28.8360   20.1360 C   0  0  0  0  0  0  0  0  0  0  0  0
  -25.9370  -30.7360   21.3730 C   0  0  0  0  0  2  0  0  0  0  0  0
  -26.0440  -29.3540   20.7450 C   0  0  0  0  0  0  0  0  0  0  0  0
  -27.2430  -28.5930   20.7650 C   0  0  0  0  0  3  0  0  0  0  0  0
  -26.1170  -26.8200   19.5480 C   0  0  0  0  0  3  0  0  0  0  0  0
  -24.9300  -27.5740   19.5270 C   0  0  0  0  0  3  0  0  0  0  0  0
  -23.6410  -29.6840   20.1620 C   0  0  0  0  0  2  0  0  0  0  0  0
  -24.6580  -30.9830   22.0880 N   0  0  0  0  0  0  0  0  0  0  0  0
  -23.4770  -32.0650   23.6950 O   0  0  0  0  0  0  0  0  0  0  0  0
  -22.7470  -29.3490   22.4930 C   0  0  0  0  0  0  0  0  0  0  0  0
  -21.4270  -29.1480   22.3420 N   0  0  0  0  0  0  0  0  0  0  0  0
  -23.4220  -28.7420   23.3290 O   0  0  0  0  0  0  0  0  0  0  0  0
  -20.9410  -29.6970   21.6460 H   0  0  0  0  0  0  0  0  0  0  0  0
  -18.0670  -27.8880   22.7690 C   0  0  0  0  0  0  0  0  0  0  0  0
  -20.6100  -28.2020   23.1030 C   0  0  0  0  0  3  0  0  0  0  0  0
  -20.7560  -26.7650   22.5520 C   0  0  0  0  0  2  0  0  0  0  0  0
  -19.6870  -26.4030   21.5130 C   0  0  0  0  0  2  0  0  0  0  0  0
  -18.2880  -26.5320   22.1210 C   0  0  0  0  0  2  0  0  0  0  0  0
  -19.1580  -28.6790   23.2180 C   0  0  0  0  0  0  0  0  0  0  0  0
  -18.8970  -29.9460   23.7820 C   0  0  0  0  0  3  0  0  0  0  0  0
  -17.5780  -30.4230   23.9050 C   0  0  0  0  0  3  0  0  0  0  0  0
  -16.5010  -29.6280   23.4750 C   0  0  0  0  0  3  0  0  0  0  0  0
  -16.7470  -28.3630   22.9140 C   0  0  0  0  0  3  0  0  0  0  0  0
  -25.8370  -32.4490   23.8200 C   0  0  0  0  0  3  0  0  0  0  0  0
  -25.5010  -33.8410   24.1510 N   0  0  0  0  0  0  0  0  0  0  0  0
  -25.8340  -34.9010   23.4060 C   0  0  0  0  0  0  0  0  0  0  0  0
  -26.5240  -34.8130   22.3860 O   0  0  0  0  0  0  0  0  0  0  0  0
  -24.8900  -33.9840   24.9430 H   0  0  0  0  0  0  0  0  0  0  0  0
  -24.0940  -36.6750   23.0200 C   0  0  0  0  0  1  0  0  0  0  0  0
  -25.3190  -36.2810   23.8600 C   0  0  0  0  0  3  0  0  0  0  0  0
  -27.4230  -37.1790   24.7540 C   0  0  0  0  0  1  0  0  0  0  0  0
  -26.3430  -37.3450   23.7830 N   0  0  0  0  0  0  0  0  0  0  0  0
  -25.9260  -38.2610   23.9260 H   0  0  0  0  0  0  0  0  0  0  0  0
  -26.3530  -31.6820   25.0970 C   0  0  1  0  0  0  0  0  0  0  0  0
  -25.2520  -31.4200   26.1530 C   0  0  0  0  0  1  0  0  0  0  0  0
  -26.9620  -30.3190   24.7020 C   0  0  0  0  0  1  0  0  0  0  0  0
  -27.4880  -32.4900   25.7730 C   0  0  0  0  0  1  0  0  0  0  0  0
  1  5  1  0
  1  2  1  0
  2  4  1  0
  3  1  2  0
  6  7  1  0
  6  5  1  0
  7  9  1  0
  8  7  2  0
  9 11  2  0
  9 10  1  0
 12 11  1  0
 13 18  1  0
 14 15  1  0
 14 13  1  0
 16 15  1  0
 16 23  1  0
 16 17  1  0
 18 12  1  0
 18 17  1  0
 19 12  2  0
 20 21  2  0
 21 40  1  0
 22 21  1  0
 22 25  1  0
 23 24  1  0
 23 20  1  0
 24 22  2  0
 25 26  1  0
 26 27  2  0
 28 31  1  0
 28 27  1  0
 29 28  2  0
 30 29  1  0
 30 25  2  0
 31 32  1  0
 32 37  2  0
 32 33  1  0
 33 34  2  0
 35 34  1  0
 35 39  1  0
 36 35  2  0
 37 36  1  0
 38 37  1  0
 40 41  1  0
 41 44  1  0
 41 43  1  0
 42 40  2  0
 45 20  1  0
 45 46  1  0
 47 45  1  0
 48 49  1  0
 48  2  1  0
 50 49  1  0
 51 62  2  0
 52 50  1  0
 52 57  1  0
 53 61  1  0
 53 63  1  0
 54 60  1  0
 54 56  1  0
 55 61  1  0
 56 57  2  0
 56 55  1  0
 58 52  2  0
 59 58  1  0
 59 54  2  0
 60 53  1  0
 61 51  1  0
 63 65  2  0
 64 63  1  0
 66 64  1  0
 67 76  2  0
 67 72  1  0
 68 64  1  0
 68 72  1  0
 69 68  1  0
 70 71  1  0
 70 69  1  0
 71 67  1  0
 72 73  2  0
 73 74  1  0
 75 74  2  0
 76 75  1  0
 77 51  1  0
 77 78  1  0
 77 87  1  0
 78 81  1  0
 79 83  1  0
 79 78  1  0
 80 79  2  0
 83 82  1  0
 85 83  1  0
 85 86  1  0
 85 84  1  0
 87 90  1  1
 87 88  1  0
 89 87  1  0
M  ISO  4  11 100  12 100  49 101  50 101
M  END
>  <TORSDO>  (71) 
F 22

>  <SCORE>  (71) 
-11.963

>  <name>  (71) 
77

>  <ligand_id>  (71) 
77

>  <original_smiles>  (71) 
[H]c1c([H])c([H])c2c(c1[H])C([H])([H])C([H])([H])C([H])([H])C2([H])N([H])C(=O)C1([H])N(C(=O)C([H])(N([H])C(=O)C([H])(N([H])C([H])([H])[H])C([H])([H])[H])C(C([H])([H])[H])(C([H])([H])[H])C([H])([H])[H])C([H])([H])c2c([H])c(OC([H])([H])C([H])([H])N([H])C(=O)C([H])([H])C([H])([H])C(=O)C(=NC(=O)N3C([H])([H])C([H])([H])C([H])([H])C([H])(n4nc(-c5c([H])c([H])c(Oc6c([H])c([H])c(F)c([H])c6F)c([H])c5[H])c(C(=O)N([H])[H])c4N([H])[H])C3([H])[H])C([H])([H])[H])c([H])c([H])c2C1([H])[H]

>  <smiles>  (71) 
[H]c1c([H])c([H])c2c(c1[H])C([H])([H])C([H])([H])C([H])([H])C2([H])N([H])C(=O)C1([H])N(C(=O)C([H])(N([H])C(=O)C([H])(N([H])C([H])([H])[H])C([H])([H])[H])C(C([H])([H])[H])(C([H])([H])[H])C([H])([H])[H])C([H])([H])c2c([H])c(OC([H])([H])C([H])([H])N([H])C(=O)C([H])([H])C([H])([H])C(=O)C(=NC(=O)N3C([H])([H])C([H])([H])C([H])([H])C([H])(n4nc(-c5c([H])c([H])c(Oc6c([H])c([H])c(F)c([H])c6F)c([H])c5[H])c(C(=O)N([H])[H])c4N([H])[H])C3([H])[H])C([H])([H])[H])c([H])c([H])c2C1([H])[H]

$$$$
78:0:0
     RDKit          3D

108115  0  0  1  0  0  0  0  0999 V2000
  -21.2080  -22.5630   21.0420 C   0  0  0  0  0  0  0  0  0  0  0  0
  -21.1990  -23.1770   19.8490 N   0  0  0  0  0  0  0  0  0  0  0  0
  -20.4830  -21.6040   21.3210 O   0  0  0  0  0  0  0  0  0  0  0  0
  -21.7950  -23.9860   19.7460 H   0  0  0  0  0  0  0  0  0  0  0  0
  -22.2250  -23.1180   22.0850 C   0  0  0  0  0  0  0  0  0  0  0  0
  -23.4560  -23.4020   21.6290 N   0  0  0  0  0  0  0  0  0  0  0  0
  -21.8960  -23.2430   23.2660 O   0  0  0  0  0  0  0  0  0  0  0  0
  -23.6600  -23.1960   20.6620 H   0  0  0  0  0  0  0  0  0  0  0  0
  -24.5280  -23.9220   22.4790 C   0  0  0  0  0  2  0  0  0  0  0  0
  -25.9270  -23.7180   21.8670 C   0  0  0  0  0  2  0  0  0  0  0  0
  -26.9450  -24.5000   22.6050 N   0  0  0  0  0  4  0  0  0  0  0  0
  -26.9130  -24.2610   23.5850 H   0  0  0  0  0  0  0  0  0  0  0  0
  -26.7000  -25.4780   22.5290 H   0  0  0  0  0  0  0  0  0  0  0  0
  -28.3360  -24.3460   22.1120 C   0  0  0  0  0  2  0  0  0  0  0  0
  -29.2210  -25.5560   22.4940 C   0  0  0  0  0  2  0  0  0  0  0  0
  -29.2180  -26.5750   21.4920 O   0  0  0  0  0  0  0  0  0  0  0  0
  -25.1230  -31.7890   24.0980 C   0  0  0  0  0  0  0  0  0  0  0  0
  -28.0660  -27.3100   21.3900 C   0  0  0  0  0  0  0  0  0  0  0  0
  -24.1120  -30.4040   22.3100 C   0  0  0  0  0  3  0  0  0  0  0  0
  -25.7120  -28.8280   21.0990 C   0  0  0  0  0  0  0  0  0  0  0  0
  -26.6460  -30.7140   22.4510 C   0  0  0  0  0  2  0  0  0  0  0  0
  -26.7870  -29.3380   21.8390 C   0  0  0  0  0  0  0  0  0  0  0  0
  -27.9660  -28.5790   21.9950 C   0  0  0  0  0  3  0  0  0  0  0  0
  -26.9910  -26.8230   20.6150 C   0  0  0  0  0  3  0  0  0  0  0  0
  -25.8050  -27.5670   20.4900 C   0  0  0  0  0  3  0  0  0  0  0  0
  -24.4910  -29.7110   20.9720 C   0  0  0  0  0  2  0  0  0  0  0  0
  -25.3020  -30.9840   23.0120 N   0  0  0  0  0  0  0  0  0  0  0  0
  -23.9860  -32.0860   24.4920 O   0  0  0  0  0  0  0  0  0  0  0  0
  -23.3210  -29.3980   23.1790 C   0  0  0  0  0  0  0  0  0  0  0  0
  -22.0460  -29.1770   22.8200 N   0  0  0  0  0  0  0  0  0  0  0  0
  -23.8620  -28.8160   24.1210 O   0  0  0  0  0  0  0  0  0  0  0  0
  -21.6840  -29.6830   22.0240 H   0  0  0  0  0  0  0  0  0  0  0  0
  -18.6590  -27.9210   22.7440 C   0  0  0  0  0  0  0  0  0  0  0  0
  -21.1180  -28.2540   23.4730 C   0  0  0  0  0  3  0  0  0  0  0  0
  -21.3420  -26.8050   22.9930 C   0  0  0  0  0  2  0  0  0  0  0  0
  -20.4670  -26.4190   21.7960 C   0  0  0  0  0  2  0  0  0  0  0  0
  -18.9830  -26.5540   22.1610 C   0  0  0  0  0  2  0  0  0  0  0  0
  -19.6650  -28.7260   23.3420 C   0  0  0  0  0  0  0  0  0  0  0  0
  -19.3180  -30.0030   23.8300 C   0  0  0  0  0  3  0  0  0  0  0  0
  -17.9970  -30.4780   23.7330 C   0  0  0  0  0  3  0  0  0  0  0  0
  -17.0000  -29.6700   23.1580 C   0  0  0  0  0  3  0  0  0  0  0  0
  -17.3320  -28.3950   22.6660 C   0  0  0  0  0  3  0  0  0  0  0  0
  -26.3320  -32.3930   24.8780 C   0  0  0  0  0  3  0  0  0  0  0  0
  -26.6610  -31.6170   26.2110 C   0  0  1  0  0  0  0  0  0  0  0  0
  -25.4240  -31.3650   27.1030 C   0  0  0  0  0  1  0  0  0  0  0  0
  -27.3080  -30.2470   25.9030 C   0  0  0  0  0  1  0  0  0  0  0  0
  -27.6960  -32.4160   27.0400 C   0  0  0  0  0  1  0  0  0  0  0  0
  -26.0190  -33.8000   25.1580 N   0  0  0  0  0  0  0  0  0  0  0  0
  -26.4580  -34.8350   24.4310 C   0  0  0  0  0  0  0  0  0  0  0  0
  -27.2420  -34.7070   23.4850 O   0  0  0  0  0  0  0  0  0  0  0  0
  -25.3370  -33.9750   25.8810 H   0  0  0  0  0  0  0  0  0  0  0  0
  -24.8010  -36.6430   23.8730 C   0  0  0  0  0  1  0  0  0  0  0  0
  -25.9500  -36.2370   24.8120 C   0  0  0  0  0  3  0  0  0  0  0  0
  -28.0150  -37.0970   25.8250 C   0  0  0  0  0  1  0  0  0  0  0  0
  -27.0050  -37.2750   24.7840 N   0  0  0  0  0  0  0  0  0  0  0  0
  -26.6020  -38.2030   24.8910 H   0  0  0  0  0  0  0  0  0  0  0  0
  -20.5000  -22.7090   18.6510 C   0  0  0  0  0  2  0  0  0  0  0  0
  -21.4860  -22.1670   17.6010 C   0  0  0  0  0  2  0  0  0  0  0  0
  -22.4020  -23.2120   17.3190 O   0  0  0  0  0  0  0  0  0  0  0  0
  -23.5960  -22.7930   16.6770 C   0  0  0  0  0  2  0  0  0  0  0  0
  -24.4990  -24.0280   16.6410 C   0  0  0  0  0  2  0  0  0  0  0  0
  -25.1480  -24.3300   17.9990 C   0  0  0  0  0  2  0  0  0  0  0  0
  -26.2260  -23.4280   18.2100 O   0  0  0  0  0  0  0  0  0  0  0  0
  -27.4010  -24.0170   18.7570 C   0  0  0  0  0  2  0  0  0  0  0  0
  -28.5380  -23.9640   17.7190 C   0  0  0  0  0  2  0  0  0  0  0  0
  -28.5190  -25.1120   16.6920 C   0  0  0  0  0  2  0  0  0  0  0  0
  -29.0590  -24.6560   15.4560 O   0  0  0  0  0  0  0  0  0  0  0  0
  -28.7210  -25.4770   14.3340 C   0  0  0  0  0  2  0  0  0  0  0  0
  -28.0630  -24.5690   13.2820 C   0  0  0  0  0  2  0  0  0  0  0  0
  -27.3930  -25.3040   12.0950 C   0  0  0  0  0  2  0  0  0  0  0  0
  -25.0710  -25.2350   11.1140 C   0  0  0  0  0  0  0  0  0  0  0  0
  -22.6500  -25.4730   10.6720 C   0  0  0  0  0  2  0  0  0  0  0  0
  -22.1680  -26.9130   10.9310 C   0  0  0  0  0  2  0  0  0  0  0  0
  -21.8600  -27.1520   12.4240 C   0  0  0  0  0  2  0  0  0  0  0  0
  -22.9960  -26.6580   13.3580 C   0  0  0  0  0  3  0  0  0  0  0  0
  -23.3830  -25.2140   12.9820 C   0  0  0  0  0  2  0  0  0  0  0  0
  -23.7890  -25.1920   11.5580 N   0  0  0  0  0  0  0  0  0  0  0  0
  -25.3880  -25.4870    9.9460 O   0  0  0  0  0  0  0  0  0  0  0  0
  -25.9700  -24.9750   12.0720 N   0  0  0  0  0  0  0  0  0  0  0  0
  -25.5680  -24.7030   12.9550 H   0  0  0  0  0  0  0  0  0  0  0  0
  -23.3370  -27.2520   15.8430 C   0  0  0  0  0  0  0  0  0  0  0  0
  -22.4980  -27.1820   16.9250 C   0  0  0  0  0  0  0  0  0  0  0  0
  -21.2680  -26.6440   16.4360 C   0  0  0  0  0  0  0  0  0  0  0  0
  -22.6120  -26.7620   14.7680 N   0  0  0  0  0  0  0  0  0  0  0  0
  -21.3730  -26.3540   15.1460 N   0  0  0  0  0  0  0  0  0  0  0  0
  -19.9780  -26.4420   17.1090 C   0  0  0  0  0  0  0  0  0  0  0  0
  -19.4680  -25.1490   17.3560 C   0  0  0  0  0  3  0  0  0  0  0  0
  -18.2350  -24.9820   18.0200 C   0  0  0  0  0  3  0  0  0  0  0  0
  -17.4980  -26.1130   18.4460 C   0  0  0  0  0  0  0  0  0  0  0  0
  -18.0020  -27.3980   18.1810 C   0  0  0  0  0  3  0  0  0  0  0  0
  -19.2290  -27.5630   17.5150 C   0  0  0  0  0  3  0  0  0  0  0  0
  -16.2760  -26.0470   19.0710 O   0  0  0  0  0  0  0  0  0  0  0  0
  -16.0210  -25.1310   20.0590 C   0  0  0  0  0  0  0  0  0  0  0  0
  -16.7880  -25.0820   21.2440 C   0  0  0  0  0  3  0  0  0  0  0  0
  -16.4500  -24.1740   22.2660 C   0  0  0  0  0  3  0  0  0  0  0  0
  -15.3420  -23.3200   22.1110 C   0  0  0  0  0  0  0  0  0  0  0  0
  -14.5730  -23.3690   20.9350 C   0  0  0  0  0  3  0  0  0  0  0  0
  -14.9100  -24.2760   19.9140 C   0  0  0  0  0  0  0  0  0  0  0  0
  -14.1530  -24.3340   18.7920 F   0  0  0  0  0  0  0  0  0  0  0  0
  -15.0110  -22.4530   23.0980 F   0  0  0  0  0  0  0  0  0  0  0  0
  -22.7890  -27.6730   18.3130 C   0  0  0  0  0  0  0  0  0  0  0  0
  -22.2180  -27.0270   19.3260 N   0  0  0  0  0  0  0  0  0  0  0  0
  -23.5620  -28.6060   18.5130 O   0  0  0  0  0  0  0  0  0  0  0  0
  -21.6000  -26.2460   19.1660 H   0  0  0  0  0  0  0  0  0  0  0  0
  -22.4070  -27.3240   20.2730 H   0  0  0  0  0  0  0  0  0  0  0  0
  -24.6430  -27.7060   15.6850 N   0  0  0  0  0  0  0  0  0  0  0  0
  -25.1570  -28.1280   16.4460 H   0  0  0  0  0  0  0  0  0  0  0  0
  -25.1360  -27.7400   14.8020 H   0  0  0  0  0  0  0  0  0  0  0  0
  1  3  2  0
  1  5  1  0
  2  1  1  0
  4  2  1  0
  5  7  2  0
  6  5  1  0
  6  9  1  0
  8  6  1  0
 10  9  1  0
 10 11  1  0
 11 12  1  0
 13 11  1  0
 14 15  1  0
 14 11  1  0
 16 15  1  0
 17 28  2  0
 18 16  1  0
 18 23  1  0
 19 27  1  0
 19 29  1  0
 20 22  1  0
 21 27  1  0
 22 23  2  0
 22 21  1  0
 24 18  2  0
 25 24  1  0
 25 20  2  0
 26 20  1  0
 26 19  1  0
 27 17  1  0
 29 31  2  0
 30 29  1  0
 32 30  1  0
 33 38  1  0
 34 30  1  0
 35 34  1  0
 36 37  1  0
 36 35  1  0
 37 33  1  0
 38 34  1  0
 38 39  2  0
 40 39  1  0
 41 40  2  0
 42 33  2  0
 42 41  1  0
 43 17  1  0
 43 48  1  0
 43 44  1  0
 44 47  1  1
 44 45  1  0
 46 44  1  0
 48 51  1  0
 49 53  1  0
 49 48  1  0
 50 49  2  0
 53 52  1  0
 55 53  1  0
 55 56  1  0
 55 54  1  0
 57  2  1  0
 58 57  1  0
 59 58  1  0
 60 59  1  0
 61 60  1  0
 61 62  1  0
 62 63  1  0
 63 64  1  0
 65 64  1  0
 66 65  1  0
 67 66  1  0
 68 67  1  0
 69 68  1  0
 70 69  1  0
 71 77  1  0
 71 79  1  0
 72 73  1  0
 72 77  1  0
 73 74  1  0
 75 74  1  0
 75 84  1  0
 76 75  1  0
 77 76  1  0
 78 71  2  0
 79 70  1  0
 79 80  1  0
 81 82  2  0
 82101  1  0
 83 82  1  0
 83 86  1  0
 84 85  1  0
 84 81  1  0
 85 83  2  0
 86 87  2  0
 86 91  1  0
 87 88  1  0
 88 89  2  0
 89 92  1  0
 90 89  1  0
 91 90  2  0
 92 93  1  0
 93 94  1  0
 94 95  2  0
 96 95  1  0
 96100  1  0
 97 96  2  0
 98 93  2  0
 98 97  1  0
 99 98  1  0
101103  2  0
101102  1  0
102105  1  0
104102  1  0
106 81  1  0
106107  1  0
108106  1  0
M  ISO  4  15 101  16 101  71 100  79 100
M  END
>  <TORSDO>  (72) 
F 36

>  <SCORE>  (72) 
-0.553

>  <name>  (72) 
78

>  <ligand_id>  (72) 
78

>  <original_smiles>  (72) 
[H]c1c([H])c([H])c2c(c1[H])C([H])([H])C([H])([H])C([H])([H])C2([H])N([H])C(=O)C1([H])N(C(=O)C([H])(N([H])C(=O)C([H])(N([H])C([H])([H])[H])C([H])([H])[H])C(C([H])([H])[H])(C([H])([H])[H])C([H])([H])[H])C([H])([H])c2c([H])c(OC([H])([H])C([H])([H])[N+]([H])([H])C([H])([H])C([H])([H])N([H])C(=O)C(=O)N([H])C([H])([H])C([H])([H])OC([H])([H])C([H])([H])C([H])([H])OC([H])([H])C([H])([H])C([H])([H])OC([H])([H])C([H])([H])C([H])([H])N([H])C(=O)N3C([H])([H])C([H])([H])C([H])([H])C([H])(n4nc(-c5c([H])c([H])c(Oc6c([H])c([H])c(F)c([H])c6F)c([H])c5[H])c(C(=O)N([H])[H])c4N([H])[H])C3([H])[H])c([H])c([H])c2C1([H])[H]

>  <smiles>  (72) 
[H]c1c([H])c([H])c2c(c1[H])C([H])([H])C([H])([H])C([H])([H])C2([H])N([H])C(=O)C1([H])N(C(=O)C([H])(N([H])C(=O)C([H])(N([H])C([H])([H])[H])C([H])([H])[H])C(C([H])([H])[H])(C([H])([H])[H])C([H])([H])[H])C([H])([H])c2c([H])c(OC([H])([H])C([H])([H])[N+]([H])([H])C([H])([H])C([H])([H])N([H])C(=O)C(=O)N([H])C([H])([H])C([H])([H])OC([H])([H])C([H])([H])C([H])([H])OC([H])([H])C([H])([H])C([H])([H])OC([H])([H])C([H])([H])C([H])([H])N([H])C(=O)N3C([H])([H])C([H])([H])C([H])([H])C([H])(n4nc(-c5c([H])c([H])c(Oc6c([H])c([H])c(F)c([H])c6F)c([H])c5[H])c(C(=O)N([H])[H])c4N([H])[H])C3([H])[H])c([H])c([H])c2C1([H])[H]

$$$$
79:0:0
     RDKit          3D

108115  0  0  1  0  0  0  0  0999 V2000
  -31.0350  -23.1900   20.6210 C   0  0  0  0  0  0  0  0  0  0  0  0
  -30.1150  -23.1460   21.5990 N   0  0  0  0  0  0  0  0  0  0  0  0
  -30.7980  -22.9510   19.4370 O   0  0  0  0  0  0  0  0  0  0  0  0
  -30.4680  -23.3750   22.5180 H   0  0  0  0  0  0  0  0  0  0  0  0
  -28.6730  -22.8530   21.5560 C   0  0  0  0  0  2  0  0  0  0  0  0
  -28.1830  -22.0100   20.3620 C   0  0  0  0  0  2  0  0  0  0  0  0
  -26.8280  -21.3150   20.5870 C   0  0  0  0  0  2  0  0  0  0  0  0
  -26.7760  -20.1340   19.7880 O   0  0  0  0  0  0  0  0  0  0  0  0
  -27.0030  -18.9120   20.4940 C   0  0  0  0  0  2  0  0  0  0  0  0
  -28.4010  -18.8250   21.1340 C   0  0  0  0  0  2  0  0  0  0  0  0
  -29.5400  -18.7190   20.1020 C   0  0  0  0  0  2  0  0  0  0  0  0
  -30.8760  -19.3000   20.6140 C   0  0  0  0  0  2  0  0  0  0  0  0
  -31.1980  -18.7880   21.8980 O   0  0  0  0  0  0  0  0  0  0  0  0
  -31.8140  -17.5170   21.8200 C   0  0  0  0  0  2  0  0  0  0  0  0
  -31.5250  -16.7210   23.0930 C   0  0  0  0  0  2  0  0  0  0  0  0
  -31.7920  -15.2190   22.9080 C   0  0  0  0  0  2  0  0  0  0  0  0
  -30.8620  -14.2280   20.8000 C   0  0  0  0  0  0  0  0  0  0  0  0
  -30.4100  -12.2900   19.3580 C   0  0  0  0  0  2  0  0  0  0  0  0
  -29.4710  -12.5570   18.1740 C   0  0  0  0  0  2  0  0  0  0  0  0
  -28.0060  -12.3920   18.6070 C   0  0  0  0  0  2  0  0  0  0  0  0
  -27.6710  -13.2080   19.8820 C   0  0  0  0  0  3  0  0  0  0  0  0
  -28.7080  -12.9470   20.9960 C   0  0  0  0  0  2  0  0  0  0  0  0
  -30.0600  -13.1930   20.4610 N   0  0  0  0  0  0  0  0  0  0  0  0
  -31.7660  -14.6570   20.0750 O   0  0  0  0  0  0  0  0  0  0  0  0
  -30.7670  -14.5590   22.0950 N   0  0  0  0  0  0  0  0  0  0  0  0
  -30.0070  -14.1230   22.5970 H   0  0  0  0  0  0  0  0  0  0  0  0
  -25.2650  -13.8170   20.5670 C   0  0  0  0  0  0  0  0  0  0  0  0
  -24.1870  -13.0440   20.9150 C   0  0  0  0  0  0  0  0  0  0  0  0
  -24.6440  -11.6920   20.8750 C   0  0  0  0  0  0  0  0  0  0  0  0
  -26.3090  -12.9350   20.3400 N   0  0  0  0  0  0  0  0  0  0  0  0
  -25.9380  -11.6500   20.5780 N   0  0  0  0  0  0  0  0  0  0  0  0
  -23.9120  -10.4300   21.0440 C   0  0  0  0  0  0  0  0  0  0  0  0
  -24.3660   -9.4210   21.9210 C   0  0  0  0  0  3  0  0  0  0  0  0
  -23.6310   -8.2260   22.0780 C   0  0  0  0  0  3  0  0  0  0  0  0
  -22.4290   -8.0310   21.3570 C   0  0  0  0  0  0  0  0  0  0  0  0
  -21.9940   -9.0300   20.4670 C   0  0  0  0  0  3  0  0  0  0  0  0
  -22.7300  -10.2160   20.3090 C   0  0  0  0  0  3  0  0  0  0  0  0
  -21.6640   -6.8930   21.4260 O   0  0  0  0  0  0  0  0  0  0  0  0
  -21.6850   -6.0770   22.5290 C   0  0  0  0  0  0  0  0  0  0  0  0
  -21.4010   -6.5660   23.8230 C   0  0  0  0  0  3  0  0  0  0  0  0
  -21.3650   -5.6800   24.9180 C   0  0  0  0  0  3  0  0  0  0  0  0
  -21.6040   -4.3070   24.7210 C   0  0  0  0  0  0  0  0  0  0  0  0
  -21.8820   -3.8170   23.4330 C   0  0  0  0  0  3  0  0  0  0  0  0
  -21.9190   -4.7000   22.3400 C   0  0  0  0  0  0  0  0  0  0  0  0
  -22.1660   -4.2190   21.0970 F   0  0  0  0  0  0  0  0  0  0  0  0
  -21.5630   -3.4540   25.7720 F   0  0  0  0  0  0  0  0  0  0  0  0
  -22.7900  -13.5260   21.1810 C   0  0  0  0  0  0  0  0  0  0  0  0
  -22.0520  -12.8270   22.0380 N   0  0  0  0  0  0  0  0  0  0  0  0
  -22.3590  -14.5570   20.6690 O   0  0  0  0  0  0  0  0  0  0  0  0
  -22.4080  -11.9900   22.4770 H   0  0  0  0  0  0  0  0  0  0  0  0
  -21.1160  -13.1350   22.2590 H   0  0  0  0  0  0  0  0  0  0  0  0
  -25.4380  -15.1870   20.4070 N   0  0  0  0  0  0  0  0  0  0  0  0
  -24.6740  -15.8470   20.5070 H   0  0  0  0  0  0  0  0  0  0  0  0
  -26.3000  -15.6180   20.0990 H   0  0  0  0  0  0  0  0  0  0  0  0
  -32.4510  -23.5720   21.0430 C   0  0  0  0  0  2  0  0  0  0  0  0
  -32.6400  -25.1050   21.0910 C   0  0  0  0  0  2  0  0  0  0  0  0
  -33.4740  -25.6260   19.9210 C   0  0  0  0  0  0  0  0  0  0  0  0
  -34.6340  -25.9940   20.1220 O   0  0  0  0  0  0  0  0  0  0  0  0
  -33.3210  -26.0880   17.6880 C   0  0  0  0  0  3  0  0  0  0  0  0
  -32.7640  -25.6110   18.7340 N   0  0  0  0  0  0  0  0  0  0  0  0
  -32.7000  -26.1740   16.3140 C   0  0  0  0  0  0  0  0  0  0  0  0
  -33.2550  -26.7610   15.3780 O   0  0  0  0  0  0  0  0  0  0  0  0
  -31.3310  -25.5060   16.0980 C   0  0  0  0  0  2  0  0  0  0  0  0
  -30.2790  -26.4790   16.0430 O   0  0  0  0  0  0  0  0  0  0  0  0
  -29.7550  -26.8390   17.3200 C   0  0  0  0  0  2  0  0  0  0  0  0
  -28.6670  -25.8470   17.7630 C   0  0  0  0  0  2  0  0  0  0  0  0
  -28.6180  -25.6450   19.2850 C   0  0  0  0  0  2  0  0  0  0  0  0
  -28.4580  -26.8410   20.0360 O   0  0  0  0  0  0  0  0  0  0  0  0
  -24.6080  -31.8710   23.2140 C   0  0  0  0  0  0  0  0  0  0  0  0
  -27.2420  -27.4820   20.0630 C   0  0  0  0  0  0  0  0  0  0  0  0
  -23.3930  -30.4940   21.5540 C   0  0  0  0  0  3  0  0  0  0  0  0
  -24.8370  -28.9630   20.1180 C   0  0  0  0  0  0  0  0  0  0  0  0
  -25.9160  -30.8490   21.3600 C   0  0  0  0  0  2  0  0  0  0  0  0
  -25.9940  -29.4840   20.7090 C   0  0  0  0  0  0  0  0  0  0  0  0
  -27.1930  -28.7460   20.6870 C   0  0  0  0  0  3  0  0  0  0  0  0
  -26.0580  -26.9530   19.4950 C   0  0  0  0  0  3  0  0  0  0  0  0
  -24.8610  -27.6930   19.5160 C   0  0  0  0  0  3  0  0  0  0  0  0
  -23.5950  -29.8210   20.1700 C   0  0  0  0  0  2  0  0  0  0  0  0
  -24.6560  -31.0840   22.1020 N   0  0  0  0  0  0  0  0  0  0  0  0
  -23.5290  -32.1450   23.7560 O   0  0  0  0  0  0  0  0  0  0  0  0
  -22.7350  -29.4680   22.5030 C   0  0  0  0  0  0  0  0  0  0  0  0
  -21.4090  -29.3030   22.3760 N   0  0  0  0  0  0  0  0  0  0  0  0
  -23.4140  -28.8230   23.3080 O   0  0  0  0  0  0  0  0  0  0  0  0
  -20.9240  -29.8760   21.7000 H   0  0  0  0  0  0  0  0  0  0  0  0
  -18.0260  -28.1360   22.8490 C   0  0  0  0  0  0  0  0  0  0  0  0
  -20.5830  -28.3640   23.1330 C   0  0  0  0  0  3  0  0  0  0  0  0
  -20.6750  -26.9380   22.5420 C   0  0  0  0  0  2  0  0  0  0  0  0
  -19.5740  -26.6380   21.5200 C   0  0  0  0  0  2  0  0  0  0  0  0
  -18.1910  -26.7920   22.1600 C   0  0  0  0  0  2  0  0  0  0  0  0
  -19.1500  -28.8820   23.2910 C   0  0  0  0  0  0  0  0  0  0  0  0
  -18.9440  -30.1420   23.8910 C   0  0  0  0  0  3  0  0  0  0  0  0
  -17.6450  -30.6570   24.0570 C   0  0  0  0  0  3  0  0  0  0  0  0
  -16.5330  -29.9070   23.6330 C   0  0  0  0  0  3  0  0  0  0  0  0
  -16.7250  -28.6480   23.0360 C   0  0  0  0  0  3  0  0  0  0  0  0
  -25.9000  -32.4830   23.8410 C   0  0  0  0  0  3  0  0  0  0  0  0
  -26.4470  -31.6610   25.0720 C   0  0  1  0  0  0  0  0  0  0  0  0
  -25.3750  -31.3680   26.1480 C   0  0  0  0  0  1  0  0  0  0  0  0
  -27.0310  -30.3070   24.6080 C   0  0  0  0  0  1  0  0  0  0  0  0
  -27.6060  -32.4320   25.7470 C   0  0  0  0  0  1  0  0  0  0  0  0
  -25.5900  -33.8640   24.2330 N   0  0  0  0  0  0  0  0  0  0  0  0
  -25.9040  -34.9480   23.5120 C   0  0  0  0  0  0  0  0  0  0  0  0
  -26.5600  -34.8920   22.4670 O   0  0  0  0  0  0  0  0  0  0  0  0
  -25.0120  -33.9840   25.0520 H   0  0  0  0  0  0  0  0  0  0  0  0
  -24.1500  -36.7320   23.2640 C   0  0  0  0  0  1  0  0  0  0  0  0
  -25.4120  -36.3120   24.0320 C   0  0  0  0  0  3  0  0  0  0  0  0
  -27.5590  -37.1800   24.8450 C   0  0  0  0  0  1  0  0  0  0  0  0
  -26.4300  -37.3790   23.9400 N   0  0  0  0  0  0  0  0  0  0  0  0
  -26.0200  -38.2870   24.1440 H   0  0  0  0  0  0  0  0  0  0  0  0
  1 55  1  0
  1  2  1  0
  2  4  1  0
  3  1  2  0
  5  2  1  0
  6  7  1  0
  6  5  1  0
  8  9  1  0
  8  7  1  0
  9 10  1  0
 11 12  1  0
 11 10  1  0
 12 13  1  0
 14 13  1  0
 14 15  1  0
 16 15  1  0
 17 25  1  0
 18 23  1  0
 19 20  1  0
 19 18  1  0
 21 20  1  0
 21 30  1  0
 21 22  1  0
 23 17  1  0
 23 22  1  0
 24 17  2  0
 25 26  1  0
 25 16  1  0
 27 28  2  0
 28 47  1  0
 29 28  1  0
 29 32  1  0
 30 27  1  0
 30 31  1  0
 31 29  2  0
 32 33  1  0
 33 34  2  0
 35 38  1  0
 35 34  1  0
 36 35  2  0
 37 36  1  0
 37 32  2  0
 38 39  1  0
 39 40  1  0
 40 41  2  0
 42 41  1  0
 42 46  1  0
 43 42  2  0
 44 39  2  0
 44 43  1  0
 45 44  1  0
 47 48  1  0
 48 51  1  0
 48 50  1  0
 49 47  2  0
 52 53  1  0
 52 27  1  0
 54 52  1  0
 55 56  1  0
 57 58  2  0
 57 56  1  0
 59 60  2  0
 60 57  1  0
 61 59  1  0
 62 61  2  0
 63 61  1  0
 64 63  1  0
 64 65  1  0
 65 66  1  0
 66 67  1  0
 67 68  1  0
 68 70  1  0
 69 80  2  0
 70 75  1  0
 71 79  1  0
 71 81  1  0
 72 78  1  0
 72 74  1  0
 73 79  1  0
 74 73  1  0
 75 74  2  0
 76 77  1  0
 76 70  2  0
 77 72  2  0
 78 71  1  0
 79 69  1  0
 81 83  2  0
 82 81  1  0
 84 82  1  0
 85 94  2  0
 85 90  1  0
 86 82  1  0
 86 90  1  0
 87 86  1  0
 88 89  1  0
 88 87  1  0
 89 85  1  0
 90 91  2  0
 91 92  1  0
 93 92  2  0
 94 93  1  0
 95 69  1  0
 95100  1  0
 95 96  1  0
 96 99  1  1
 96 97  1  0
 98 96  1  0
100103  1  0
101105  1  0
101100  1  0
102101  2  0
105104  1  0
107105  1  0
107108  1  0
107106  1  0
M  ISO  4  17 100  25 100  67 101  68 101
M  END
>  <TORSDO>  (73) 
F 38

>  <SCORE>  (73) 
-4.095

>  <name>  (73) 
79

>  <ligand_id>  (73) 
79

>  <original_smiles>  (73) 
[H]C(=NC(=O)C([H])([H])C([H])([H])C(=O)N([H])C([H])([H])C([H])([H])C([H])([H])OC([H])([H])C([H])([H])C([H])([H])C([H])([H])OC([H])([H])C([H])([H])C([H])([H])N([H])C(=O)N1C([H])([H])C([H])([H])C([H])([H])C([H])(n2nc(-c3c([H])c([H])c(Oc4c([H])c([H])c(F)c([H])c4F)c([H])c3[H])c(C(=O)N([H])[H])c2N([H])[H])C1([H])[H])C(=O)C([H])([H])OC([H])([H])C([H])([H])C([H])([H])Oc1c([H])c([H])c2c(c1[H])C([H])([H])N(C(=O)C([H])(N([H])C(=O)C([H])(N([H])C([H])([H])[H])C([H])([H])[H])C(C([H])([H])[H])(C([H])([H])[H])C([H])([H])[H])C([H])(C(=O)N([H])C1([H])c3c([H])c([H])c([H])c([H])c3C([H])([H])C([H])([H])C1([H])[H])C2([H])[H]

>  <smiles>  (73) 
[H]C(=NC(=O)C([H])([H])C([H])([H])C(=O)N([H])C([H])([H])C([H])([H])C([H])([H])OC([H])([H])C([H])([H])C([H])([H])C([H])([H])OC([H])([H])C([H])([H])C([H])([H])N([H])C(=O)N1C([H])([H])C([H])([H])C([H])([H])C([H])(n2nc(-c3c([H])c([H])c(Oc4c([H])c([H])c(F)c([H])c4F)c([H])c3[H])c(C(=O)N([H])[H])c2N([H])[H])C1([H])[H])C(=O)C([H])([H])OC([H])([H])C([H])([H])C([H])([H])Oc1c([H])c([H])c2c(c1[H])C([H])([H])N(C(=O)C([H])(N([H])C(=O)C([H])(N([H])C([H])([H])[H])C([H])([H])[H])C(C([H])([H])[H])(C([H])([H])[H])C([H])([H])[H])C([H])(C(=O)N([H])C1([H])c3c([H])c([H])c([H])c([H])c3C([H])([H])C([H])([H])C1([H])[H])C2([H])[H]

$$$$
80:0:0
     RDKit          3D

101108  0  0  1  0  0  0  0  0999 V2000
  -30.7410  -19.5970   24.3120 C   0  0  0  0  0  0  0  0  0  0  0  0
  -30.9070  -19.7960   25.5210 O   0  0  0  0  0  0  0  0  0  0  0  0
  -30.0730  -18.2870   23.7940 C   0  0  0  0  0  3  0  0  0  0  0  0
  -30.0830  -17.6190   22.6930 N   0  0  0  0  0  2  0  0  0  0  0  0
  -30.5170  -18.0970   21.4710 C   0  0  0  0  0  0  0  0  0  0  0  0
  -30.2150  -19.1600   20.9370 O   0  0  0  0  0  0  0  0  0  0  0  0
  -31.3980  -17.0840   20.7060 C   0  0  0  0  0  3  0  0  0  0  0  0
  -31.9040  -14.6680   21.1970 C   0  0  0  0  0  0  0  0  0  0  0  0
  -31.9030  -12.2260   20.9440 C   0  0  0  0  0  2  0  0  0  0  0  0
  -31.2620  -11.8730   19.5860 C   0  0  0  0  0  2  0  0  0  0  0  0
  -29.7300  -11.7620   19.7150 C   0  0  0  0  0  2  0  0  0  0  0  0
  -29.0980  -12.9750   20.4490 C   0  0  0  0  0  3  0  0  0  0  0  0
  -29.8680  -13.2920   21.7500 C   0  0  0  0  0  2  0  0  0  0  0  0
  -31.2900  -13.4770   21.4070 N   0  0  0  0  0  0  0  0  0  0  0  0
  -33.1070  -14.7780   20.9480 O   0  0  0  0  0  0  0  0  0  0  0  0
  -31.0710  -15.7090   21.1060 N   0  0  0  0  0  0  0  0  0  0  0  0
  -30.1100  -15.5430   21.3540 H   0  0  0  0  0  0  0  0  0  0  0  0
  -26.6420  -13.6980   20.7280 C   0  0  0  0  0  0  0  0  0  0  0  0
  -25.4950  -12.9780   20.9290 C   0  0  0  0  0  0  0  0  0  0  0  0
  -25.8960  -11.6100   21.0060 C   0  0  0  0  0  0  0  0  0  0  0  0
  -27.6730  -12.7700   20.6970 N   0  0  0  0  0  0  0  0  0  0  0  0
  -27.2160  -11.5110   20.9190 N   0  0  0  0  0  0  0  0  0  0  0  0
  -25.0950  -10.3810   21.0990 C   0  0  0  0  0  0  0  0  0  0  0  0
  -25.2060   -9.5100   22.2040 C   0  0  0  0  0  3  0  0  0  0  0  0
  -24.4120   -8.3450   22.2790 C   0  0  0  0  0  3  0  0  0  0  0  0
  -23.4940   -8.0440   21.2450 C   0  0  0  0  0  0  0  0  0  0  0  0
  -23.4050   -8.9040   20.1360 C   0  0  0  0  0  3  0  0  0  0  0  0
  -24.2000  -10.0590   20.0600 C   0  0  0  0  0  3  0  0  0  0  0  0
  -22.7010   -6.9220   21.2210 O   0  0  0  0  0  0  0  0  0  0  0  0
  -22.1210   -6.4260   22.3600 C   0  0  0  0  0  0  0  0  0  0  0  0
  -21.2460   -7.2020   23.1510 C   0  0  0  0  0  3  0  0  0  0  0  0
  -20.6190   -6.6310   24.2750 C   0  0  0  0  0  3  0  0  0  0  0  0
  -20.8560   -5.2830   24.6060 C   0  0  0  0  0  0  0  0  0  0  0  0
  -21.7230   -4.5060   23.8160 C   0  0  0  0  0  3  0  0  0  0  0  0
  -22.3510   -5.0760   22.6950 C   0  0  0  0  0  0  0  0  0  0  0  0
  -23.1690   -4.3170   21.9260 F   0  0  0  0  0  0  0  0  0  0  0  0
  -20.2480   -4.7300   25.6810 F   0  0  0  0  0  0  0  0  0  0  0  0
  -24.0930  -13.5160   20.9530 C   0  0  0  0  0  0  0  0  0  0  0  0
  -23.2090  -12.8910   21.7230 N   0  0  0  0  0  0  0  0  0  0  0  0
  -23.7840  -14.5270   20.3230 O   0  0  0  0  0  0  0  0  0  0  0  0
  -23.4660  -12.0740   22.2570 H   0  0  0  0  0  0  0  0  0  0  0  0
  -22.2610  -13.2350   21.7800 H   0  0  0  0  0  0  0  0  0  0  0  0
  -26.8930  -15.0550   20.5500 N   0  0  0  0  0  0  0  0  0  0  0  0
  -26.1480  -15.7420   20.5140 H   0  0  0  0  0  0  0  0  0  0  0  0
  -27.8050  -15.4520   20.3680 H   0  0  0  0  0  0  0  0  0  0  0  0
  -30.1270  -16.6690   18.4850 C   0  0  0  0  0  1  0  0  0  0  0  0
  -32.6420  -16.6300   18.4800 C   0  0  0  0  0  1  0  0  0  0  0  0
  -31.3960  -17.2340   19.1510 C   0  0  0  0  0  3  0  0  0  0  0  0
  -29.2010  -17.5890   24.8510 C   0  0  0  0  0  2  0  0  0  0  0  0
  -29.6810  -18.0890   27.3500 C   0  0  0  0  0  1  0  0  0  0  0  0
  -28.8950  -18.4740   26.0840 C   0  0  0  0  0  2  0  0  0  0  0  0
  -31.2550  -20.7120   23.3970 C   0  0  0  0  0  2  0  0  0  0  0  0
  -32.4730  -20.3290   22.5300 C   0  0  0  0  0  2  0  0  0  0  0  0
  -32.7360  -21.3810   21.4430 C   0  0  0  0  0  2  0  0  0  0  0  0
  -31.8230  -21.1730   20.3740 O   0  0  0  0  0  0  0  0  0  0  0  0
  -31.5600  -22.3350   19.5920 C   0  0  0  0  0  2  0  0  0  0  0  0
  -30.4980  -23.2220   20.2670 C   0  0  0  0  0  2  0  0  0  0  0  0
  -29.5130  -23.6690   19.3420 O   0  0  0  0  0  0  0  0  0  0  0  0
  -29.8630  -24.8540   18.6340 C   0  0  0  0  0  2  0  0  0  0  0  0
  -28.5940  -25.4080   17.9700 C   0  0  0  0  0  2  0  0  0  0  0  0
  -28.5770  -26.8320   18.0610 O   0  0  0  0  0  0  0  0  0  0  0  0
  -25.1180  -30.5490   23.0110 C   0  0  0  0  0  0  0  0  0  0  0  0
  -27.3800  -27.4180   18.4110 C   0  0  0  0  0  0  0  0  0  0  0  0
  -23.7100  -29.6230   21.1960 C   0  0  0  0  0  3  0  0  0  0  0  0
  -24.9730  -28.6720   19.1920 C   0  0  0  0  0  0  0  0  0  0  0  0
  -26.1670  -30.1940   20.7800 C   0  0  0  0  0  2  0  0  0  0  0  0
  -26.1880  -29.0830   19.7500 C   0  0  0  0  0  0  0  0  0  0  0  0
  -27.3950  -28.4640   19.3570 C   0  0  0  0  0  3  0  0  0  0  0  0
  -26.1460  -27.0160   17.8510 C   0  0  0  0  0  3  0  0  0  0  0  0
  -24.9440  -27.6350   18.2430 C   0  0  0  0  0  3  0  0  0  0  0  0
  -23.7270  -29.3920   19.6610 C   0  0  0  0  0  2  0  0  0  0  0  0
  -25.0240  -30.1190   21.7200 N   0  0  0  0  0  0  0  0  0  0  0  0
  -24.1230  -30.5820   23.7460 O   0  0  0  0  0  0  0  0  0  0  0  0
  -23.2290  -28.3250   21.8820 C   0  0  0  0  0  0  0  0  0  0  0  0
  -21.9450  -27.9860   21.6840 N   0  0  0  0  0  0  0  0  0  0  0  0
  -24.0060  -27.6330   22.5440 O   0  0  0  0  0  0  0  0  0  0  0  0
  -21.3710  -28.6100   21.1340 H   0  0  0  0  0  0  0  0  0  0  0  0
  -18.8520  -26.1220   21.6250 C   0  0  0  0  0  0  0  0  0  0  0  0
  -21.2820  -26.7890   22.1960 C   0  0  0  0  0  3  0  0  0  0  0  0
  -21.7070  -25.5340   21.3970 C   0  0  0  0  0  2  0  0  0  0  0  0
  -20.7630  -25.2100   20.2360 C   0  0  0  0  0  2  0  0  0  0  0  0
  -19.3390  -24.9770   20.7520 C   0  0  0  0  0  2  0  0  0  0  0  0
  -19.7660  -26.9810   22.2890 C   0  0  0  0  0  0  0  0  0  0  0  0
  -19.2620  -28.0530   23.0580 C   0  0  0  0  0  3  0  0  0  0  0  0
  -17.8770  -28.2690   23.1720 C   0  0  0  0  0  3  0  0  0  0  0  0
  -16.9760  -27.4050   22.5250 C   0  0  0  0  0  3  0  0  0  0  0  0
  -17.4640  -26.3320   21.7570 C   0  0  0  0  0  3  0  0  0  0  0  0
  -26.4710  -31.0430   23.6140 C   0  0  0  0  0  3  0  0  0  0  0  0
  -26.2270  -32.3510   24.2330 N   0  0  0  0  0  0  0  0  0  0  0  0
  -26.5530  -33.5270   23.6770 C   0  0  0  0  0  0  0  0  0  0  0  0
  -27.1630  -33.6160   22.6080 O   0  0  0  0  0  0  0  0  0  0  0  0
  -25.6840  -32.3560   25.0820 H   0  0  0  0  0  0  0  0  0  0  0  0
  -24.8840  -35.4050   23.7610 C   0  0  0  0  0  1  0  0  0  0  0  0
  -26.1340  -34.8060   24.4270 C   0  0  0  0  0  3  0  0  0  0  0  0
  -28.3120  -35.4450   25.3580 C   0  0  0  0  0  1  0  0  0  0  0  0
  -27.2010  -35.8260   24.4920 N   0  0  0  0  0  0  0  0  0  0  0  0
  -26.8310  -36.7140   24.8200 H   0  0  0  0  0  0  0  0  0  0  0  0
  -27.0910  -30.0380   24.6600 C   0  0  1  0  0  0  0  0  0  0  0  0
  -26.0970  -29.5940   25.7570 C   0  0  0  0  0  1  0  0  0  0  0  0
  -27.6140  -28.7670   23.9470 C   0  0  0  0  0  1  0  0  0  0  0  0
  -28.3110  -30.6900   25.3520 C   0  0  0  0  0  1  0  0  0  0  0  0
  1  2  2  0
  3  1  1  0
  3 49  1  0
  4  3  1  0
  5  4  1  0
  6  5  2  0
  7 48  1  0
  7 16  1  0
  7  5  1  0
  8 14  1  0
  9 14  1  0
 10 11  1  0
 10  9  1  0
 12 11  1  0
 12 21  1  0
 12 13  1  0
 14 13  1  0
 15  8  2  0
 16  8  1  0
 16 17  1  0
 18 19  2  0
 19 38  1  0
 19 20  1  0
 20 23  1  0
 21 18  1  0
 21 22  1  0
 22 20  2  0
 23 24  1  0
 24 25  2  0
 26 25  1  0
 27 26  2  0
 28 27  1  0
 28 23  2  0
 29 26  1  0
 29 30  1  0
 30 35  2  0
 30 31  1  0
 31 32  2  0
 32 33  1  0
 33 37  1  0
 34 33  2  0
 35 34  1  0
 36 35  1  0
 38 39  1  0
 39 42  1  0
 39 41  1  0
 40 38  2  0
 43 18  1  0
 44 43  1  0
 45 43  1  0
 46 48  1  0
 47 48  1  0
 49 51  1  0
 51 50  1  0
 52  1  1  0
 53 52  1  0
 54 53  1  0
 55 54  1  0
 56 57  1  0
 56 55  1  0
 58 57  1  0
 59 58  1  0
 60 61  1  0
 60 59  1  0
 61 63  1  0
 62 73  2  0
 63 68  1  0
 64 72  1  0
 64 74  1  0
 65 71  1  0
 65 67  1  0
 66 72  1  0
 67 66  1  0
 68 67  2  0
 69 70  1  0
 69 63  2  0
 70 65  2  0
 71 64  1  0
 72 62  1  0
 74 76  2  0
 75 74  1  0
 77 75  1  0
 78 87  2  0
 78 83  1  0
 79 75  1  0
 79 83  1  0
 80 79  1  0
 81 82  1  0
 81 80  1  0
 82 78  1  0
 83 84  2  0
 84 85  1  0
 86 85  2  0
 87 86  1  0
 88 62  1  0
 88 89  1  0
 88 98  1  0
 89 92  1  0
 90 89  1  0
 90 94  1  0
 91 90  2  0
 94 93  1  0
 94 96  1  0
 96 97  1  0
 96 95  1  0
 98101  1  1
 98 99  1  0
100 98  1  0
M  ISO  4   8 100  16 100  60 101  61 101
M  END
>  <TORSDO>  (74) 
F 31

>  <SCORE>  (74) 
3.395

>  <name>  (74) 
80

>  <ligand_id>  (74) 
80

>  <original_smiles>  (74) 
[H]c1c([H])c([H])c2c(c1[H])C([H])([H])C([H])([H])C([H])([H])C2([H])N([H])C(=O)C1([H])N(C(=O)C([H])(N([H])C(=O)C([H])(N([H])C([H])([H])[H])C([H])([H])[H])C(C([H])([H])[H])(C([H])([H])[H])C([H])([H])[H])C([H])([H])c2c([H])c(OC([H])([H])C([H])([H])OC([H])([H])C([H])([H])OC([H])([H])C([H])([H])C([H])([H])C(=O)C(=NC(=O)C([H])(N([H])C(=O)N3C([H])([H])C([H])([H])C([H])([H])C([H])(n4nc(-c5c([H])c([H])c(Oc6c([H])c([H])c(F)c([H])c6F)c([H])c5[H])c(C(=O)N([H])[H])c4N([H])[H])C3([H])[H])C([H])(C([H])([H])[H])C([H])([H])[H])C([H])([H])C([H])([H])C([H])([H])[H])c([H])c([H])c2C1([H])[H]

>  <smiles>  (74) 
[H]c1c([H])c([H])c2c(c1[H])C([H])([H])C([H])([H])C([H])([H])C2([H])N([H])C(=O)C1([H])N(C(=O)C([H])(N([H])C(=O)C([H])(N([H])C([H])([H])[H])C([H])([H])[H])C(C([H])([H])[H])(C([H])([H])[H])C([H])([H])[H])C([H])([H])c2c([H])c(OC([H])([H])C([H])([H])OC([H])([H])C([H])([H])OC([H])([H])C([H])([H])C([H])([H])C(=O)C(=NC(=O)C([H])(N([H])C(=O)N3C([H])([H])C([H])([H])C([H])([H])C([H])(n4nc(-c5c([H])c([H])c(Oc6c([H])c([H])c(F)c([H])c6F)c([H])c5[H])c(C(=O)N([H])[H])c4N([H])[H])C3([H])[H])C([H])(C([H])([H])[H])C([H])([H])[H])C([H])([H])C([H])([H])C([H])([H])[H])c([H])c([H])c2C1([H])[H]

$$$$
81:0:0
     RDKit          3D

 98105  0  0  1  0  0  0  0  0999 V2000
  -30.8470  -20.1040   23.4840 C   0  0  0  0  0  0  0  0  0  0  0  0
  -30.3100  -21.1970   22.9210 N   0  0  0  0  0  0  0  0  0  0  0  0
  -31.8430  -20.1470   24.2070 O   0  0  0  0  0  0  0  0  0  0  0  0
  -29.5290  -21.0750   22.2930 H   0  0  0  0  0  0  0  0  0  0  0  0
  -29.6930  -18.0910   24.5070 C   0  0  0  0  0  1  0  0  0  0  0  0
  -30.1570  -18.7520   23.2010 C   0  0  0  0  0  3  0  0  0  0  0  0
  -31.7320  -18.0270   21.3660 C   0  0  0  0  0  0  0  0  0  0  0  0
  -30.9340  -17.7790   22.4170 N   0  0  0  0  0  0  0  0  0  0  0  0
  -32.0610  -19.1710   21.0490 O   0  0  0  0  0  0  0  0  0  0  0  0
  -30.7750  -16.8080   22.6390 H   0  0  0  0  0  0  0  0  0  0  0  0
  -32.2300  -16.8420   20.5070 C   0  0  0  0  0  3  0  0  0  0  0  0
  -32.4090  -14.3700   20.6350 C   0  0  0  0  0  0  0  0  0  0  0  0
  -31.9490  -12.2010   19.5820 C   0  0  0  0  0  2  0  0  0  0  0  0
  -31.0320  -12.4370   18.3650 C   0  0  0  0  0  2  0  0  0  0  0  0
  -29.5500  -12.4070   18.7910 C   0  0  0  0  0  2  0  0  0  0  0  0
  -29.2620  -13.3300   20.0020 C   0  0  0  0  0  3  0  0  0  0  0  0
  -30.2900  -13.0890   21.1300 C   0  0  0  0  0  2  0  0  0  0  0  0
  -31.6420  -13.2510   20.5670 N   0  0  0  0  0  0  0  0  0  0  0  0
  -33.5700  -14.4100   20.2190 O   0  0  0  0  0  0  0  0  0  0  0  0
  -31.7510  -15.5060   20.9260 N   0  0  0  0  0  0  0  0  0  0  0  0
  -30.7910  -15.4200   21.2160 H   0  0  0  0  0  0  0  0  0  0  0  0
  -26.9660  -14.1500   20.8290 C   0  0  0  0  0  0  0  0  0  0  0  0
  -25.8100  -13.4810   21.1320 C   0  0  0  0  0  0  0  0  0  0  0  0
  -26.0970  -12.0960   20.9410 C   0  0  0  0  0  0  0  0  0  0  0  0
  -27.8890  -13.1770   20.4750 N   0  0  0  0  0  0  0  0  0  0  0  0
  -27.3690  -11.9300   20.6010 N   0  0  0  0  0  0  0  0  0  0  0  0
  -25.2220  -10.9200   21.0060 C   0  0  0  0  0  0  0  0  0  0  0  0
  -25.4620   -9.8800   21.9320 C   0  0  0  0  0  3  0  0  0  0  0  0
  -24.5990   -8.7640   21.9890 C   0  0  0  0  0  3  0  0  0  0  0  0
  -23.4860   -8.6840   21.1200 C   0  0  0  0  0  0  0  0  0  0  0  0
  -23.2650   -9.7100   20.1840 C   0  0  0  0  0  3  0  0  0  0  0  0
  -24.1260  -10.8180   20.1240 C   0  0  0  0  0  3  0  0  0  0  0  0
  -22.6090   -7.6260   21.0880 O   0  0  0  0  0  0  0  0  0  0  0  0
  -22.1880   -7.0070   22.2370 C   0  0  0  0  0  0  0  0  0  0  0  0
  -21.5320   -7.7110   23.2700 C   0  0  0  0  0  3  0  0  0  0  0  0
  -21.0590   -7.0210   24.4030 C   0  0  0  0  0  3  0  0  0  0  0  0
  -21.2260   -5.6250   24.4990 C   0  0  0  0  0  0  0  0  0  0  0  0
  -21.8750   -4.9210   23.4700 C   0  0  0  0  0  3  0  0  0  0  0  0
  -22.3520   -5.6100   22.3410 C   0  0  0  0  0  0  0  0  0  0  0  0
  -22.9590   -4.9250   21.3410 F   0  0  0  0  0  0  0  0  0  0  0  0
  -20.7580   -4.9590   25.5800 F   0  0  0  0  0  0  0  0  0  0  0  0
  -24.4850  -14.0960   21.4780 C   0  0  0  0  0  0  0  0  0  0  0  0
  -23.6880  -13.4220   22.3010 N   0  0  0  0  0  0  0  0  0  0  0  0
  -24.1610  -15.2010   21.0480 O   0  0  0  0  0  0  0  0  0  0  0  0
  -23.9510  -12.5170   22.6640 H   0  0  0  0  0  0  0  0  0  0  0  0
  -22.7880  -13.8060   22.5590 H   0  0  0  0  0  0  0  0  0  0  0  0
  -27.3090  -15.4970   20.8050 N   0  0  0  0  0  0  0  0  0  0  0  0
  -26.6540  -16.2360   21.0330 H   0  0  0  0  0  0  0  0  0  0  0  0
  -28.1970  -15.8410   20.4640 H   0  0  0  0  0  0  0  0  0  0  0  0
  -30.5500  -17.2400   18.5700 C   0  0  0  0  0  1  0  0  0  0  0  0
  -32.8990  -18.1210   18.3450 C   0  0  0  0  0  1  0  0  0  0  0  0
  -32.0250  -17.0130   18.9640 C   0  0  0  0  0  3  0  0  0  0  0  0
  -30.8400  -22.5460   23.0670 C   0  0  0  0  0  2  0  0  0  0  0  0
  -29.7640  -23.6260   22.8380 C   0  0  0  0  0  2  0  0  0  0  0  0
  -29.3830  -23.6950   21.4640 O   0  0  0  0  0  0  0  0  0  0  0  0
  -28.6010  -24.8530   21.1710 C   0  0  0  0  0  2  0  0  0  0  0  0
  -28.4700  -25.0550   19.6480 C   0  0  0  0  0  2  0  0  0  0  0  0
  -28.3750  -26.4420   19.3110 O   0  0  0  0  0  0  0  0  0  0  0  0
  -24.6020  -31.0880   23.1260 C   0  0  0  0  0  0  0  0  0  0  0  0
  -27.1600  -27.0680   19.4750 C   0  0  0  0  0  0  0  0  0  0  0  0
  -23.3210  -29.7970   21.4450 C   0  0  0  0  0  3  0  0  0  0  0  0
  -24.7160  -28.4520   19.7910 C   0  0  0  0  0  0  0  0  0  0  0  0
  -25.8070  -30.2790   21.1010 C   0  0  0  0  0  2  0  0  0  0  0  0
  -25.8910  -28.9750   20.3390 C   0  0  0  0  0  0  0  0  0  0  0  0
  -27.1160  -28.2910   20.1780 C   0  0  0  0  0  3  0  0  0  0  0  0
  -25.9630  -26.5490   18.9290 C   0  0  0  0  0  3  0  0  0  0  0  0
  -24.7460  -27.2340   19.0880 C   0  0  0  0  0  3  0  0  0  0  0  0
  -23.4490  -29.2490   19.9980 C   0  0  0  0  0  2  0  0  0  0  0  0
  -24.5990  -30.3980   21.9500 N   0  0  0  0  0  0  0  0  0  0  0  0
  -23.5560  -31.2630   23.7680 O   0  0  0  0  0  0  0  0  0  0  0  0
  -22.7760  -28.6680   22.3510 C   0  0  0  0  0  0  0  0  0  0  0  0
  -21.4740  -28.3650   22.2110 N   0  0  0  0  0  0  0  0  0  0  0  0
  -23.5200  -28.0720   23.1320 O   0  0  0  0  0  0  0  0  0  0  0  0
  -20.9310  -28.9060   21.5540 H   0  0  0  0  0  0  0  0  0  0  0  0
  -18.2820  -26.7010   22.5010 C   0  0  0  0  0  0  0  0  0  0  0  0
  -20.7580  -27.3090   22.9260 C   0  0  0  0  0  3  0  0  0  0  0  0
  -21.0940  -25.9140   22.3460 C   0  0  0  0  0  2  0  0  0  0  0  0
  -20.1090  -25.4570   21.2660 C   0  0  0  0  0  2  0  0  0  0  0  0
  -18.6860  -25.3980   21.8280 C   0  0  0  0  0  2  0  0  0  0  0  0
  -19.2570  -27.6040   23.0020 C   0  0  0  0  0  0  0  0  0  0  0  0
  -18.8290  -28.8180   23.5850 C   0  0  0  0  0  3  0  0  0  0  0  0
  -17.4600  -29.1300   23.6740 C   0  0  0  0  0  3  0  0  0  0  0  0
  -16.5000  -28.2240   23.1920 C   0  0  0  0  0  3  0  0  0  0  0  0
  -16.9120  -27.0120   22.6090 C   0  0  0  0  0  3  0  0  0  0  0  0
  -25.9090  -31.7070   23.7090 C   0  0  0  0  0  3  0  0  0  0  0  0
  -26.4850  -30.9000   24.9380 C   0  0  1  0  0  0  0  0  0  0  0  0
  -25.4440  -30.6310   26.0510 C   0  0  0  0  0  1  0  0  0  0  0  0
  -27.0470  -29.5350   24.4750 C   0  0  0  0  0  1  0  0  0  0  0  0
  -27.6650  -31.6750   25.5690 C   0  0  0  0  0  1  0  0  0  0  0  0
  -25.6080  -33.0920   24.0940 N   0  0  0  0  0  0  0  0  0  0  0  0
  -25.9470  -34.1710   23.3750 C   0  0  0  0  0  0  0  0  0  0  0  0
  -26.6160  -34.1050   22.3410 O   0  0  0  0  0  0  0  0  0  0  0  0
  -25.0150  -33.2190   24.9000 H   0  0  0  0  0  0  0  0  0  0  0  0
  -24.2270  -35.9850   23.0910 C   0  0  0  0  0  1  0  0  0  0  0  0
  -25.4670  -35.5440   23.8840 C   0  0  0  0  0  3  0  0  0  0  0  0
  -27.6030  -36.3920   24.7460 C   0  0  0  0  0  1  0  0  0  0  0  0
  -26.5030  -36.5960   23.8070 N   0  0  0  0  0  0  0  0  0  0  0  0
  -26.1010  -37.5120   23.9820 H   0  0  0  0  0  0  0  0  0  0  0  0
  1  3  2  0
  2 53  1  0
  2  1  1  0
  4  2  1  0
  6  1  1  0
  6  5  1  0
  7  8  1  0
  8 10  1  0
  8  6  1  0
  9  7  2  0
 11 52  1  0
 11 20  1  0
 11  7  1  0
 12 20  1  0
 13 18  1  0
 14 15  1  0
 14 13  1  0
 16 15  1  0
 16 25  1  0
 16 17  1  0
 18 12  1  0
 18 17  1  0
 19 12  2  0
 20 21  1  0
 22 23  2  0
 23 42  1  0
 24 27  1  0
 24 23  1  0
 25 26  1  0
 25 22  1  0
 26 24  2  0
 27 28  1  0
 28 29  2  0
 30 29  1  0
 31 30  2  0
 32 31  1  0
 32 27  2  0
 33 30  1  0
 33 34  1  0
 34 39  2  0
 34 35  1  0
 35 36  2  0
 36 37  1  0
 37 41  1  0
 38 37  2  0
 39 38  1  0
 40 39  1  0
 42 43  1  0
 43 46  1  0
 43 45  1  0
 44 42  2  0
 47 22  1  0
 47 48  1  0
 49 47  1  0
 50 52  1  0
 51 52  1  0
 54 53  1  0
 55 54  1  0
 56 55  1  0
 57 56  1  0
 58 60  1  0
 58 57  1  0
 59 70  2  0
 60 65  1  0
 61 69  1  0
 61 71  1  0
 62 68  1  0
 62 64  1  0
 63 69  1  0
 64 63  1  0
 65 64  2  0
 66 67  1  0
 66 60  2  0
 67 62  2  0
 68 61  1  0
 69 59  1  0
 71 73  2  0
 72 71  1  0
 74 72  1  0
 75 84  2  0
 75 80  1  0
 76 72  1  0
 76 80  1  0
 77 76  1  0
 78 79  1  0
 78 77  1  0
 79 75  1  0
 80 81  2  0
 81 82  1  0
 83 82  2  0
 84 83  1  0
 85 59  1  0
 85 90  1  0
 85 86  1  0
 86 89  1  1
 86 87  1  0
 88 86  1  0
 90 93  1  0
 91 95  1  0
 91 90  1  0
 92 91  2  0
 95 94  1  0
 97 95  1  0
 97 98  1  0
 97 96  1  0
M  ISO  4  12 100  20 100  57 101  58 101
M  END
>  <TORSDO>  (75) 
F 25

>  <SCORE>  (75) 
-6.109

>  <name>  (75) 
81

>  <ligand_id>  (75) 
81

>  <original_smiles>  (75) 
[H]c1c([H])c([H])c2c(c1[H])C([H])([H])C([H])([H])C([H])([H])C2([H])N([H])C(=O)C1([H])N(C(=O)C([H])(N([H])C(=O)C([H])(N([H])C([H])([H])[H])C([H])([H])[H])C(C([H])([H])[H])(C([H])([H])[H])C([H])([H])[H])C([H])([H])c2c([H])c(OC([H])([H])C([H])([H])OC([H])([H])C([H])([H])N([H])C(=O)C([H])(N([H])C(=O)C([H])(N([H])C(=O)N3C([H])([H])C([H])([H])C([H])([H])C([H])(n4nc(-c5c([H])c([H])c(Oc6c([H])c([H])c(F)c([H])c6F)c([H])c5[H])c(C(=O)N([H])[H])c4N([H])[H])C3([H])[H])C([H])(C([H])([H])[H])C([H])([H])[H])C([H])([H])[H])c([H])c([H])c2C1([H])[H]

>  <smiles>  (75) 
[H]c1c([H])c([H])c2c(c1[H])C([H])([H])C([H])([H])C([H])([H])C2([H])N([H])C(=O)C1([H])N(C(=O)C([H])(N([H])C(=O)C([H])(N([H])C([H])([H])[H])C([H])([H])[H])C(C([H])([H])[H])(C([H])([H])[H])C([H])([H])[H])C([H])([H])c2c([H])c(OC([H])([H])C([H])([H])OC([H])([H])C([H])([H])N([H])C(=O)C([H])(N([H])C(=O)C([H])(N([H])C(=O)N3C([H])([H])C([H])([H])C([H])([H])C([H])(n4nc(-c5c([H])c([H])c(Oc6c([H])c([H])c(F)c([H])c6F)c([H])c5[H])c(C(=O)N([H])[H])c4N([H])[H])C3([H])[H])C([H])(C([H])([H])[H])C([H])([H])[H])C([H])([H])[H])c([H])c([H])c2C1([H])[H]

$$$$
82:0:0
     RDKit          3D

115122  0  0  1  0  0  0  0  0999 V2000
  -35.0010  -16.5380   18.7030 C   0  0  0  0  0  3  0  0  0  0  0  0
  -36.3780  -14.3260   18.5260 C   0  0  0  0  0  0  0  0  0  0  0  0
  -37.3190  -12.8240   16.7990 C   0  0  0  0  0  2  0  0  0  0  0  0
  -38.8530  -12.7660   16.7670 C   0  0  0  0  0  2  0  0  0  0  0  0
  -39.4080  -13.8570   15.8320 C   0  0  0  0  0  2  0  0  0  0  0  0
  -38.8400  -15.2490   16.1820 C   0  0  0  0  0  3  0  0  0  0  0  0
  -37.3240  -15.2220   16.3660 C   0  0  0  0  0  2  0  0  0  0  0  0
  -36.8920  -14.1580   17.2760 N   0  0  0  0  0  0  0  0  0  0  0  0
  -36.3060  -13.4060   19.3330 O   0  0  0  0  0  0  0  0  0  0  0  0
  -36.0860  -15.5570   19.0040 N   0  0  0  0  0  0  0  0  0  0  0  0
  -36.0530  -15.3740   19.9940 H   0  0  0  0  0  0  0  0  0  0  0  0
  -39.8480  -17.4970   15.4080 C   0  0  0  0  0  0  0  0  0  0  0  0
  -40.0390  -18.0350   14.1620 C   0  0  0  0  0  0  0  0  0  0  0  0
  -39.4700  -17.0980   13.2440 C   0  0  0  0  0  0  0  0  0  0  0  0
  -39.2110  -16.2800   15.2070 N   0  0  0  0  0  0  0  0  0  0  0  0
  -38.9170  -16.0860   13.8960 N   0  0  0  0  0  0  0  0  0  0  0  0
  -39.4690  -17.0870   11.7790 C   0  0  0  0  0  0  0  0  0  0  0  0
  -38.3930  -17.6220   11.0370 C   0  0  0  0  0  3  0  0  0  0  0  0
  -38.4250  -17.6160    9.6270 C   0  0  0  0  0  3  0  0  0  0  0  0
  -39.5420  -17.0670    8.9470 C   0  0  0  0  0  0  0  0  0  0  0  0
  -40.5990  -16.5130    9.6900 C   0  0  0  0  0  3  0  0  0  0  0  0
  -40.5630  -16.5150   11.0940 C   0  0  0  0  0  3  0  0  0  0  0  0
  -39.6430  -16.9840    7.5810 O   0  0  0  0  0  0  0  0  0  0  0  0
  -39.5500  -18.0980    6.7860 C   0  0  0  0  0  0  0  0  0  0  0  0
  -40.5460  -19.0960    6.7830 C   0  0  0  0  0  3  0  0  0  0  0  0
  -40.4440  -20.1870    5.8960 C   0  0  0  0  0  3  0  0  0  0  0  0
  -39.3570  -20.2750    5.0090 C   0  0  0  0  0  0  0  0  0  0  0  0
  -38.3700  -19.2760    5.0030 C   0  0  0  0  0  3  0  0  0  0  0  0
  -38.4690  -18.1880    5.8870 C   0  0  0  0  0  0  0  0  0  0  0  0
  -37.5250  -17.2200    5.8590 F   0  0  0  0  0  0  0  0  0  0  0  0
  -39.2500  -21.3300    4.1600 F   0  0  0  0  0  0  0  0  0  0  0  0
  -40.7940  -19.2940   13.8320 C   0  0  0  0  0  0  0  0  0  0  0  0
  -40.1910  -20.2150   13.0920 N   0  0  0  0  0  0  0  0  0  0  0  0
  -41.9250  -19.4870   14.2770 O   0  0  0  0  0  0  0  0  0  0  0  0
  -39.2540  -20.0870   12.7320 H   0  0  0  0  0  0  0  0  0  0  0  0
  -40.6940  -21.0610   12.8550 H   0  0  0  0  0  0  0  0  0  0  0  0
  -40.1840  -17.9290   16.6890 N   0  0  0  0  0  0  0  0  0  0  0  0
  -40.8090  -18.7150   16.8290 H   0  0  0  0  0  0  0  0  0  0  0  0
  -40.1310  -17.3380   17.5120 H   0  0  0  0  0  0  0  0  0  0  0  0
  -33.9200  -16.1280   17.6680 C   0  0  0  0  0  0  0  0  0  0  0  0
  -33.6960  -14.8090   17.5240 N   0  0  0  0  0  0  0  0  0  0  0  0
  -33.2870  -17.0000   17.0720 O   0  0  0  0  0  0  0  0  0  0  0  0
  -34.2910  -14.2080   18.0760 H   0  0  0  0  0  0  0  0  0  0  0  0
  -32.7740  -14.0170   16.6900 C   0  0  0  0  0  3  0  0  0  0  0  0
  -31.9560  -13.2060   17.6970 C   0  0  0  0  0  0  0  0  0  0  0  0
  -30.6460  -13.4320   17.7400 N   0  0  0  0  0  0  0  0  0  0  0  0
  -32.4920  -12.4360   18.4880 O   0  0  0  0  0  0  0  0  0  0  0  0
  -30.1800  -14.0140   17.0550 H   0  0  0  0  0  0  0  0  0  0  0  0
  -30.0780  -12.9880   18.4440 H   0  0  0  0  0  0  0  0  0  0  0  0
  -33.4220  -13.2100   15.5210 C   0  0  0  0  0  2  0  0  0  0  0  0
  -33.9060  -14.0260   14.2910 C   0  0  0  0  0  2  0  0  0  0  0  0
  -33.3760  -13.5900   12.9060 C   0  0  0  0  0  2  0  0  0  0  0  0
  -33.2900  -15.4530   11.1830 C   0  0  0  0  0  0  0  0  0  0  0  0
  -33.8540  -16.0390   10.1240 N   0  0  0  0  0  4  0  0  0  0  0  0
  -32.1110  -15.9160   11.5990 N   0  0  0  0  0  0  0  0  0  0  0  0
  -33.9000  -14.4310   11.8120 N   0  0  0  0  0  0  0  0  0  0  0  0
  -33.4060  -16.7950    9.6200 H   0  0  0  0  0  0  0  0  0  0  0  0
  -34.7270  -15.7180    9.7220 H   0  0  0  0  0  0  0  0  0  0  0  0
  -31.6260  -16.6670   11.1260 H   0  0  0  0  0  0  0  0  0  0  0  0
  -31.6390  -15.5160   12.3940 H   0  0  0  0  0  0  0  0  0  0  0  0
  -34.8070  -14.1310   11.4690 H   0  0  0  0  0  0  0  0  0  0  0  0
  -36.8720  -18.2780   19.2130 C   0  0  0  0  0  1  0  0  0  0  0  0
  -35.6190  -17.9610   18.3770 C   0  0  0  0  0  3  0  0  0  0  0  0
  -35.9250  -18.1550   16.9310 N   0  0  0  0  0  4  0  0  0  0  0  0
  -36.4480  -17.3570   16.5940 H   0  0  0  0  0  0  0  0  0  0  0  0
  -35.0450  -18.1500   16.4360 H   0  0  0  0  0  0  0  0  0  0  0  0
  -36.6480  -19.3980   16.5560 C   0  0  0  0  0  2  0  0  0  0  0  0
  -36.2290  -19.9750   15.1860 C   0  0  0  0  0  2  0  0  0  0  0  0
  -35.3370  -21.0490   15.4460 O   0  0  0  0  0  0  0  0  0  0  0  0
  -33.9730  -20.6840   15.5840 C   0  0  0  0  0  2  0  0  0  0  0  0
  -33.3620  -21.6140   16.6290 C   0  0  0  0  0  2  0  0  0  0  0  0
  -31.9700  -21.3730   16.7330 O   0  0  0  0  0  0  0  0  0  0  0  0
  -31.2530  -22.5600   17.0350 C   0  0  0  0  0  2  0  0  0  0  0  0
  -30.0430  -22.6620   16.1050 C   0  0  0  0  0  2  0  0  0  0  0  0
  -30.2810  -23.6850   15.1530 O   0  0  0  0  0  0  0  0  0  0  0  0
  -27.1340  -23.7040    8.7710 C   0  0  0  0  0  0  0  0  0  0  0  0
  -30.2960  -23.2580   13.8510 C   0  0  0  0  0  0  0  0  0  0  0  0
  -29.0760  -22.1890    9.0110 C   0  0  0  0  0  3  0  0  0  0  0  0
  -30.4380  -22.4720   11.1480 C   0  0  0  0  0  0  0  0  0  0  0  0
  -28.8830  -24.2970   10.4440 C   0  0  0  0  0  2  0  0  0  0  0  0
  -29.6430  -23.5610   11.5240 C   0  0  0  0  0  0  0  0  0  0  0  0
  -29.5670  -23.9600   12.8730 C   0  0  0  0  0  3  0  0  0  0  0  0
  -31.0860  -22.1530   13.4730 C   0  0  0  0  0  3  0  0  0  0  0  0
  -31.1590  -21.7580   12.1230 C   0  0  0  0  0  3  0  0  0  0  0  0
  -30.4790  -22.1270    9.6750 C   0  0  0  0  0  2  0  0  0  0  0  0
  -28.3010  -23.4060    9.4130 N   0  0  0  0  0  0  0  0  0  0  0  0
  -26.7270  -23.0050    7.8310 O   0  0  0  0  0  0  0  0  0  0  0  0
  -28.3360  -20.8660    9.3130 C   0  0  0  0  0  0  0  0  0  0  0  0
  -28.6590  -19.8120    8.5440 N   0  0  0  0  0  0  0  0  0  0  0  0
  -27.5180  -20.7980   10.2350 O   0  0  0  0  0  0  0  0  0  0  0  0
  -29.3270  -19.9640    7.8010 H   0  0  0  0  0  0  0  0  0  0  0  0
  -28.2740  -16.6690    6.8050 C   0  0  0  0  0  0  0  0  0  0  0  0
  -28.1250  -18.4560    8.6670 C   0  0  0  0  0  3  0  0  0  0  0  0
  -29.0840  -17.5510    9.4700 C   0  0  0  0  0  2  0  0  0  0  0  0
  -30.0630  -16.7710    8.5900 C   0  0  0  0  0  2  0  0  0  0  0  0
  -29.3050  -15.8830    7.5990 C   0  0  0  0  0  2  0  0  0  0  0  0
  -27.7330  -17.8850    7.3010 C   0  0  0  0  0  0  0  0  0  0  0  0
  -26.8000  -18.5920    6.5100 C   0  0  0  0  0  3  0  0  0  0  0  0
  -26.4080  -18.1050    5.2490 C   0  0  0  0  0  3  0  0  0  0  0  0
  -26.9350  -16.8950    4.7690 C   0  0  0  0  0  3  0  0  0  0  0  0
  -27.8600  -16.1770    5.5480 C   0  0  0  0  0  3  0  0  0  0  0  0
  -26.2770  -24.9440    9.1700 C   0  0  0  0  0  3  0  0  0  0  0  0
  -24.8410  -24.5610    9.7040 C   0  0  1  0  0  0  0  0  0  0  0  0
  -23.7710  -24.4780    8.5920 C   0  0  0  0  0  1  0  0  0  0  0  0
  -24.8760  -23.1950   10.4300 C   0  0  0  0  0  1  0  0  0  0  0  0
  -24.3730  -25.6020   10.7460 C   0  0  0  0  0  1  0  0  0  0  0  0
  -26.1770  -25.8120    7.9900 N   0  0  0  0  0  0  0  0  0  0  0  0
  -27.0630  -26.7710    7.6780 C   0  0  0  0  0  0  0  0  0  0  0  0
  -28.0160  -27.0670    8.4040 O   0  0  0  0  0  0  0  0  0  0  0  0
  -25.4520  -25.5940    7.3230 H   0  0  0  0  0  0  0  0  0  0  0  0
  -27.9510  -27.1100    5.3520 C   0  0  0  0  0  1  0  0  0  0  0  0
  -26.8560  -27.5200    6.3490 C   0  0  0  0  0  3  0  0  0  0  0  0
  -25.7230  -29.4820    7.2990 C   0  0  0  0  0  1  0  0  0  0  0  0
  -26.8400  -28.9920    6.4980 N   0  0  0  0  0  0  0  0  0  0  0  0
  -26.8060  -29.4430    5.5880 H   0  0  0  0  0  0  0  0  0  0  0  0
  1 40  1  0
  1 10  1  0
  2 10  1  0
  2  9  2  0
  3  8  1  0
  4  3  1  0
  5  6  1  0
  5  4  1  0
  6 15  1  0
  6  7  1  0
  7  8  1  0
  8  2  1  0
 10 11  1  0
 12 37  1  0
 13 12  2  0
 14 16  2  0
 14 13  1  0
 15 12  1  0
 16 15  1  0
 17 14  1  0
 18 17  2  0
 19 18  1  0
 20 19  2  0
 20 21  1  0
 21 22  2  0
 22 17  1  0
 23 20  1  0
 24 23  1  0
 25 24  1  0
 26 25  2  0
 27 26  1  0
 28 27  2  0
 28 29  1  0
 29 24  2  0
 30 29  1  0
 31 27  1  0
 32 13  1  0
 32 34  2  0
 33 32  1  0
 35 33  1  0
 36 33  1  0
 37 38  1  0
 37 39  1  0
 41 40  1  0
 41 43  1  0
 42 40  2  0
 44 50  1  0
 44 41  1  0
 44 45  1  0
 45 46  1  0
 45 47  2  0
 46 49  1  0
 48 46  1  0
 51 50  1  0
 52 51  1  0
 53 55  1  0
 53 56  1  0
 54 53  2  0
 55 60  1  0
 56 52  1  0
 57 54  1  0
 58 54  1  0
 59 55  1  0
 61 56  1  0
 63  1  1  0
 63 62  1  0
 64 63  1  0
 65 64  1  0
 66 64  1  0
 67 64  1  0
 68 69  1  0
 68 67  1  0
 69 70  1  0
 70 71  1  0
 71 72  1  0
 72 73  1  0
 74 73  1  0
 75 74  1  0
 76 86  1  0
 77 75  1  0
 78 88  1  0
 78 86  1  0
 78 85  1  0
 79 81  2  0
 79 84  1  0
 80 81  1  0
 81 82  1  0
 82 77  2  0
 83 77  1  0
 84 83  2  0
 85 79  1  0
 86 80  1  0
 87 76  2  0
 88 90  2  0
 89 88  1  0
 91 89  1  0
 92 97  1  0
 92 96  1  0
 93 89  1  0
 93 94  1  0
 95 94  1  0
 96 95  1  0
 97 93  1  0
 98 97  2  0
 99 98  1  0
100 99  2  0
100101  1  0
101 92  2  0
102 76  1  0
102103  1  0
103105  1  1
103106  1  0
104103  1  0
107102  1  0
108107  1  0
108109  2  0
110107  1  0
112111  1  0
112114  1  0
112108  1  0
114113  1  0
115114  1  0
M  ISO  4   2 100  10 100  74 101  75 101
M  END
>  <TORSDO>  (76) 
F 33

>  <SCORE>  (76) 
-2.270

>  <name>  (76) 
82

>  <ligand_id>  (76) 
82

>  <original_smiles>  (76) 
[H]c1c([H])c([H])c2c(c1[H])C([H])([H])C([H])([H])C([H])([H])C2([H])N([H])C(=O)C1([H])N(C(=O)C([H])(N([H])C(=O)C([H])(N([H])C([H])([H])[H])C([H])([H])[H])C(C([H])([H])[H])(C([H])([H])[H])C([H])([H])[H])C([H])([H])c2c([H])c(OC([H])([H])C([H])([H])OC([H])([H])C([H])([H])OC([H])([H])C([H])([H])[N+]([H])([H])C([H])(C([H])([H])[H])C([H])(C(=O)N([H])C([H])(C(=O)N([H])[H])C([H])([H])C([H])([H])C([H])([H])N([H])C(N([H])[H])=[N+]([H])[H])N([H])C(=O)N3C([H])([H])C([H])([H])C([H])([H])C([H])(n4nc(-c5c([H])c([H])c(Oc6c([H])c([H])c(F)c([H])c6F)c([H])c5[H])c(C(=O)N([H])[H])c4N([H])[H])C3([H])[H])c([H])c([H])c2C1([H])[H]

>  <smiles>  (76) 
[H]c1c([H])c([H])c2c(c1[H])C([H])([H])C([H])([H])C([H])([H])C2([H])N([H])C(=O)C1([H])N(C(=O)C([H])(N([H])C(=O)C([H])(N([H])C([H])([H])[H])C([H])([H])[H])C(C([H])([H])[H])(C([H])([H])[H])C([H])([H])[H])C([H])([H])c2c([H])c(OC([H])([H])C([H])([H])OC([H])([H])C([H])([H])OC([H])([H])C([H])([H])[N+]([H])([H])C([H])(C([H])([H])[H])C([H])(C(=O)N([H])C([H])(C(=O)N([H])[H])C([H])([H])C([H])([H])C([H])([H])N([H])C(N([H])[H])=[N+]([H])[H])N([H])C(=O)N3C([H])([H])C([H])([H])C([H])([H])C([H])(n4nc(-c5c([H])c([H])c(Oc6c([H])c([H])c(F)c([H])c6F)c([H])c5[H])c(C(=O)N([H])[H])c4N([H])[H])C3([H])[H])c([H])c([H])c2C1([H])[H]

$$$$
83:0:0
     RDKit          3D

103110  0  0  1  0  0  0  0  0999 V2000
  -23.3810  -26.2990   24.7510 C   0  0  0  0  0  2  0  0  0  0  0  0
  -24.6980  -25.4450   24.2000 N   0  0  0  0  0  4  0  0  0  0  0  0
  -25.4690  -25.7620   24.7680 H   0  0  0  0  0  0  0  0  0  0  0  0
  -24.9290  -25.7880   23.2840 H   0  0  0  0  0  0  0  0  0  0  0  0
  -24.9430  -23.8000   24.1350 C   0  0  0  0  0  3  0  0  0  0  0  0
  -26.1270  -22.9070   23.2150 C   0  0  0  0  0  0  0  0  0  0  0  0
  -26.4270  -21.4600   23.1460 N   0  0  0  0  0  0  0  0  0  0  0  0
  -26.8400  -23.6220   22.5110 O   0  0  0  0  0  0  0  0  0  0  0  0
  -25.8010  -20.9130   23.7230 H   0  0  0  0  0  0  0  0  0  0  0  0
  -27.5650  -20.5140   22.3900 C   0  0  0  0  0  2  0  0  0  0  0  0
  -27.7860  -18.7430   22.2560 C   0  0  0  0  0  3  0  0  0  0  0  0
  -29.0750  -17.7480   21.5010 C   0  0  0  0  0  3  0  0  0  0  0  0
  -30.2000  -15.1080   20.7490 C   0  0  0  0  0  0  0  0  0  0  0  0
  -30.4280  -12.7710   19.6090 C   0  0  0  0  0  2  0  0  0  0  0  0
  -29.5410  -12.6180   18.3370 C   0  0  0  0  0  2  0  0  0  0  0  0
  -28.0740  -12.3320   18.7030 C   0  0  0  0  0  2  0  0  0  0  0  0
  -27.6020  -13.2300   19.8710 C   0  0  0  0  0  3  0  0  0  0  0  0
  -28.5790  -13.1920   21.0560 C   0  0  0  0  0  2  0  0  0  0  0  0
  -29.8150  -13.7710   20.5590 N   0  0  0  0  0  0  0  0  0  0  0  0
  -31.3590  -15.3460   20.3510 O   0  0  0  0  0  0  0  0  0  0  0  0
  -29.2370  -16.1120   21.2710 N   0  0  0  0  0  0  0  0  0  0  0  0
  -28.3850  -15.6390   21.5400 H   0  0  0  0  0  0  0  0  0  0  0  0
  -25.2290  -13.8150   20.5690 C   0  0  0  0  0  0  0  0  0  0  0  0
  -24.1630  -13.0420   20.9210 C   0  0  0  0  0  0  0  0  0  0  0  0
  -24.6210  -11.6870   20.8730 C   0  0  0  0  0  0  0  0  0  0  0  0
  -26.2600  -12.9310   20.3150 N   0  0  0  0  0  0  0  0  0  0  0  0
  -25.9090  -11.6460   20.5640 N   0  0  0  0  0  0  0  0  0  0  0  0
  -23.8950  -10.4260   21.0430 C   0  0  0  0  0  0  0  0  0  0  0  0
  -24.3560   -9.4180   21.9190 C   0  0  0  0  0  3  0  0  0  0  0  0
  -23.6260   -8.2210   22.0740 C   0  0  0  0  0  3  0  0  0  0  0  0
  -22.4240   -8.0240   21.3530 C   0  0  0  0  0  0  0  0  0  0  0  0
  -21.9860   -9.0200   20.4630 C   0  0  0  0  0  3  0  0  0  0  0  0
  -22.7150  -10.2090   20.3060 C   0  0  0  0  0  3  0  0  0  0  0  0
  -21.6620   -6.8830   21.4230 O   0  0  0  0  0  0  0  0  0  0  0  0
  -21.6830   -6.0710   22.5280 C   0  0  0  0  0  0  0  0  0  0  0  0
  -21.4000   -6.5630   23.8200 C   0  0  0  0  0  3  0  0  0  0  0  0
  -21.3660   -5.6790   24.9180 C   0  0  0  0  0  3  0  0  0  0  0  0
  -21.6040   -4.3050   24.7230 C   0  0  0  0  0  0  0  0  0  0  0  0
  -21.8820   -3.8130   23.4360 C   0  0  0  0  0  3  0  0  0  0  0  0
  -21.9190   -4.6940   22.3410 C   0  0  0  0  0  0  0  0  0  0  0  0
  -22.1660   -4.2120   21.0990 F   0  0  0  0  0  0  0  0  0  0  0  0
  -21.5640   -3.4540   25.7750 F   0  0  0  0  0  0  0  0  0  0  0  0
  -22.7670  -13.5180   21.1910 C   0  0  0  0  0  0  0  0  0  0  0  0
  -22.0370  -12.8180   22.0490 N   0  0  0  0  0  0  0  0  0  0  0  0
  -22.3380  -14.5510   20.6760 O   0  0  0  0  0  0  0  0  0  0  0  0
  -22.4010  -11.9820   22.4850 H   0  0  0  0  0  0  0  0  0  0  0  0
  -21.0980  -13.1170   22.2730 H   0  0  0  0  0  0  0  0  0  0  0  0
  -25.4100  -15.1900   20.4210 N   0  0  0  0  0  0  0  0  0  0  0  0
  -24.6530  -15.8520   20.5440 H   0  0  0  0  0  0  0  0  0  0  0  0
  -26.2500  -15.6180   20.0550 H   0  0  0  0  0  0  0  0  0  0  0  0
  -22.9800  -22.8240   25.5260 C   0  0  0  0  0  1  0  0  0  0  0  0
  -23.5860  -23.0440   24.1250 C   0  0  0  0  0  2  0  0  0  0  0  0
  -23.1020  -28.0290   25.2100 C   0  0  0  0  0  2  0  0  0  0  0  0
  -21.9600  -29.2120   24.8880 O   0  0  0  0  0  0  0  0  0  0  0  0
  -21.4970  -30.3330   23.7290 C   0  0  0  0  0  2  0  0  0  0  0  0
  -20.9430  -30.2180   21.9240 C   0  0  0  0  0  2  0  0  0  0  0  0
  -21.1690  -28.9820   20.5690 C   0  0  0  0  0  2  0  0  0  0  0  0
  -22.3920  -27.9220   20.0310 N   0  0  0  0  0  4  0  0  0  0  0  0
  -23.1160  -28.5350   19.6800 H   0  0  0  0  0  0  0  0  0  0  0  0
  -21.9900  -27.5260   19.1910 H   0  0  0  0  0  0  0  0  0  0  0  0
  -23.2820  -26.6580   20.6430 C   0  0  0  0  0  2  0  0  0  0  0  0
  -24.8620  -26.0040   20.3090 C   0  0  0  0  0  2  0  0  0  0  0  0
  -26.4100  -26.3560   20.6010 O   0  0  0  0  0  0  0  0  0  0  0  0
  -24.7520  -31.9680   23.2070 C   0  0  0  0  0  0  0  0  0  0  0  0
  -26.9540  -27.4270   19.9730 C   0  0  0  0  0  3  0  0  0  0  0  0
  -23.6180  -30.3810   21.6500 C   0  0  0  0  0  3  0  0  0  0  0  0
  -25.0070  -29.3010   19.8800 C   0  0  0  0  0  0  0  0  0  0  0  0
  -26.1040  -30.7980   21.5180 C   0  0  0  0  0  2  0  0  0  0  0  0
  -26.1090  -29.5300   20.7010 C   0  0  0  0  0  0  0  0  0  0  0  0
  -27.1300  -28.5710   20.7760 C   0  0  0  0  0  3  0  0  0  0  0  0
  -26.2260  -27.5290   18.8020 C   0  0  0  0  0  2  0  0  0  0  0  0
  -25.0760  -28.3310   18.8720 C   0  0  0  0  0  3  0  0  0  0  0  0
  -23.8650  -30.2380   20.1160 C   0  0  0  0  0  2  0  0  0  0  0  0
  -24.8230  -31.0460   22.2080 N   0  0  0  0  0  0  0  0  0  0  0  0
  -23.6970  -32.4470   23.6300 O   0  0  0  0  0  0  0  0  0  0  0  0
  -23.3220  -28.9710   22.4460 C   0  0  0  0  0  0  0  0  0  0  0  0
  -22.1630  -28.1320   22.7220 N   0  0  0  0  0  0  0  0  0  0  0  0
  -24.2980  -28.4900   22.9500 O   0  0  0  0  0  0  0  0  0  0  0  0
  -22.6170  -27.2690   22.9650 H   0  0  0  0  0  0  0  0  0  0  0  0
  -18.0260  -28.0680   22.7180 C   0  0  0  0  0  0  0  0  0  0  0  0
  -20.6300  -27.8220   23.1590 C   0  0  0  0  0  3  0  0  0  0  0  0
  -20.4260  -26.4260   22.6250 C   0  0  0  0  0  2  0  0  0  0  0  0
  -19.4090  -26.2600   21.5250 C   0  0  0  0  0  2  0  0  0  0  0  0
  -18.0470  -26.7590   21.9660 C   0  0  0  0  0  2  0  0  0  0  0  0
  -19.1950  -28.6120   23.3170 C   0  0  0  0  0  0  0  0  0  0  0  0
  -18.8880  -29.7360   24.1700 C   0  0  0  0  0  3  0  0  0  0  0  0
  -17.6640  -30.4380   24.1840 C   0  0  0  0  0  3  0  0  0  0  0  0
  -16.5660  -29.8770   23.5310 C   0  0  0  0  0  3  0  0  0  0  0  0
  -16.7480  -28.6610   22.8570 C   0  0  0  0  0  3  0  0  0  0  0  0
  -26.0280  -32.5240   23.8660 C   0  0  0  0  0  3  0  0  0  0  0  0
  -26.4760  -31.6730   25.1090 C   0  0  1  0  0  0  0  0  0  0  0  0
  -25.3420  -31.4170   26.1320 C   0  0  0  0  0  1  0  0  0  0  0  0
  -27.0310  -30.2920   24.6890 C   0  0  0  0  0  1  0  0  0  0  0  0
  -27.6290  -32.4160   25.8150 C   0  0  0  0  0  1  0  0  0  0  0  0
  -25.7090  -33.9000   24.2670 N   0  0  0  0  0  0  0  0  0  0  0  0
  -25.9380  -34.9740   23.5080 C   0  0  0  0  0  0  0  0  0  0  0  0
  -26.5640  -34.9180   22.4460 O   0  0  0  0  0  0  0  0  0  0  0  0
  -25.1180  -34.0070   25.0780 H   0  0  0  0  0  0  0  0  0  0  0  0
  -24.1490  -36.7310   23.2590 C   0  0  0  0  0  1  0  0  0  0  0  0
  -25.4150  -36.3250   24.0290 C   0  0  0  0  0  3  0  0  0  0  0  0
  -27.5560  -37.1920   24.8440 C   0  0  0  0  0  1  0  0  0  0  0  0
  -26.4260  -37.3990   23.9420 N   0  0  0  0  0  0  0  0  0  0  0  0
  -26.0150  -38.3030   24.1570 H   0  0  0  0  0  0  0  0  0  0  0  0
  1 53  1  0
  2  1  1  0
  2  3  1  0
  4  2  1  0
  5 52  1  0
  5  2  1  0
  6  5  1  0
  7  6  1  0
  7  9  1  0
  8  6  2  0
 10  7  1  0
 11 10  1  0
 12 11  2  0
 13 21  1  0
 14 19  1  0
 15 16  1  0
 15 14  1  0
 17 16  1  0
 17 26  1  0
 17 18  1  0
 19 13  1  0
 19 18  1  0
 20 13  2  0
 21 12  1  0
 21 22  1  0
 23 24  2  0
 24 43  1  0
 25 24  1  0
 25 28  1  0
 26 27  1  0
 26 23  1  0
 27 25  2  0
 28 29  1  0
 29 30  2  0
 31 34  1  0
 31 30  1  0
 32 31  2  0
 33 32  1  0
 33 28  2  0
 34 35  1  0
 35 36  1  0
 36 37  2  0
 38 37  1  0
 38 42  1  0
 39 38  2  0
 40 35  2  0
 40 39  1  0
 41 40  1  0
 43 44  1  0
 44 47  1  0
 44 46  1  0
 45 43  2  0
 48 49  1  0
 48 23  1  0
 50 48  1  0
 52 51  1  0
 54 53  1  0
 55 54  1  0
 56 55  1  0
 57 56  1  0
 58 57  1  0
 58 61  1  0
 59 58  1  0
 60 58  1  0
 62 63  1  0
 62 61  1  0
 64 75  2  0
 65 63  1  0
 65 70  1  0
 66 74  1  0
 66 76  1  0
 67 73  1  0
 67 69  1  0
 68 74  1  0
 69 70  2  0
 69 68  1  0
 71 72  1  0
 71 65  1  0
 72 67  2  0
 73 66  1  0
 74 64  1  0
 76 77  1  0
 76 78  2  0
 77 79  1  0
 80 89  2  0
 80 85  1  0
 81 77  1  0
 81 85  1  0
 82 81  1  0
 83 84  1  0
 83 82  1  0
 84 80  1  0
 85 86  2  0
 86 87  1  0
 88 87  2  0
 89 88  1  0
 90 64  1  0
 90 95  1  0
 90 91  1  0
 91 94  1  1
 91 92  1  0
 93 91  1  0
 95 98  1  0
 96100  1  0
 96 95  1  0
 97 96  2  0
100 99  1  0
102100  1  0
102103  1  0
102101  1  0
M  ISO  4  13 100  21 100  62 101  63 101
M  END
>  <TORSDO>  (77) 
F 31

>  <SCORE>  (77) 
18.085

>  <name>  (77) 
83

>  <ligand_id>  (77) 
83

>  <original_smiles>  (77) 
[H]c1c([H])c([H])c2c(c1[H])C([H])([H])C([H])([H])C([H])([H])C2([H])N([H])C(=O)C1([H])N(C(=O)C([H])(N([H])C(=O)C([H])(N([H])C([H])([H])[H])C([H])([H])[H])C(C([H])([H])[H])(C([H])([H])[H])C([H])([H])[H])C([H])([H])c2c([H])c(OC([H])([H])C([H])([H])[N+]([H])([H])C([H])([H])C([H])([H])C([H])([H])OC([H])([H])C([H])([H])[N+]([H])([H])C([H])(C(=O)N([H])C([H])([H])C([H])([H])C([H])([H])N([H])C(=O)N3C([H])([H])C([H])([H])C([H])([H])C([H])(n4nc(-c5c([H])c([H])c(Oc6c([H])c([H])c(F)c([H])c6F)c([H])c5[H])c(C(=O)N([H])[H])c4N([H])[H])C3([H])[H])C([H])([H])C([H])([H])[H])c([H])c([H])c2C1([H])[H]

>  <smiles>  (77) 
[H]c1c([H])c([H])c2c(c1[H])C([H])([H])C([H])([H])C([H])([H])C2([H])N([H])C(=O)C1([H])N(C(=O)C([H])(N([H])C(=O)C([H])(N([H])C([H])([H])[H])C([H])([H])[H])C(C([H])([H])[H])(C([H])([H])[H])C([H])([H])[H])C([H])([H])c2c([H])c(OC([H])([H])C([H])([H])[N+]([H])([H])C([H])([H])C([H])([H])C([H])([H])OC([H])([H])C([H])([H])[N+]([H])([H])C([H])(C(=O)N([H])C([H])([H])C([H])([H])C([H])([H])N([H])C(=O)N3C([H])([H])C([H])([H])C([H])([H])C([H])(n4nc(-c5c([H])c([H])c(Oc6c([H])c([H])c(F)c([H])c6F)c([H])c5[H])c(C(=O)N([H])[H])c4N([H])[H])C3([H])[H])C([H])([H])C([H])([H])[H])c([H])c([H])c2C1([H])[H]

$$$$
84:0:0
     RDKit          3D

109116  0  0  1  0  0  0  0  0999 V2000
  -32.0940  -30.0940   21.2830 N   0  0  0  0  0  4  0  0  0  0  0  0
  -33.1030  -30.1280   21.3410 H   0  0  0  0  0  0  0  0  0  0  0  0
  -31.8260  -30.9160   20.7620 H   0  0  0  0  0  0  0  0  0  0  0  0
  -31.6680  -28.9040   20.5090 C   0  0  0  0  0  2  0  0  0  0  0  0
  -31.4970  -29.1990   19.0110 C   0  0  0  0  0  2  0  0  0  0  0  0
  -30.7500  -28.1250   18.4510 O   0  0  0  0  0  0  0  0  0  0  0  0
  -30.2530  -28.4080   17.1500 C   0  0  0  0  0  2  0  0  0  0  0  0
  -29.4550  -27.2020   16.6390 C   0  0  0  0  0  2  0  0  0  0  0  0
  -28.2290  -26.8640   17.5060 C   0  0  0  0  0  2  0  0  0  0  0  0
  -27.2880  -25.8570   16.8230 C   0  0  0  0  0  2  0  0  0  0  0  0
  -26.1460  -25.3290   17.7130 C   0  0  0  0  0  2  0  0  0  0  0  0
  -25.2120  -26.3890   18.1610 N   0  0  0  0  0  4  0  0  0  0  0  0
  -24.8060  -26.8280   17.3500 H   0  0  0  0  0  0  0  0  0  0  0  0
  -25.7250  -27.1050   18.6540 H   0  0  0  0  0  0  0  0  0  0  0  0
  -24.1100  -25.9330   19.0460 C   0  0  0  0  0  2  0  0  0  0  0  0
  -23.1430  -24.9460   18.3570 C   0  0  0  0  0  2  0  0  0  0  0  0
  -21.8690  -24.6100   19.1560 C   0  0  0  0  0  2  0  0  0  0  0  0
  -20.9980  -23.6180   18.3650 C   0  0  0  0  0  2  0  0  0  0  0  0
  -18.6050  -23.2610   17.9940 C   0  0  0  0  0  0  0  0  0  0  0  0
  -16.3210  -23.9500   17.4370 C   0  0  0  0  0  2  0  0  0  0  0  0
  -16.2640  -25.4870   17.3860 C   0  0  0  0  0  2  0  0  0  0  0  0
  -15.9580  -26.0540   18.7870 C   0  0  0  0  0  2  0  0  0  0  0  0
  -16.8520  -25.4450   19.9030 C   0  0  0  0  0  3  0  0  0  0  0  0
  -16.9440  -23.9040   19.7870 C   0  0  0  0  0  2  0  0  0  0  0  0
  -17.3540  -23.5760   18.4140 N   0  0  0  0  0  0  0  0  0  0  0  0
  -18.8580  -22.9230   16.8350 O   0  0  0  0  0  0  0  0  0  0  0  0
  -19.6110  -23.5370   18.8370 N   0  0  0  0  0  0  0  0  0  0  0  0
  -19.3900  -23.8420   19.7730 H   0  0  0  0  0  0  0  0  0  0  0  0
  -17.1080  -26.5050   22.2330 C   0  0  0  0  0  0  0  0  0  0  0  0
  -16.2120  -26.7280   23.2420 C   0  0  0  0  0  0  0  0  0  0  0  0
  -14.9630  -26.1970   22.7900 C   0  0  0  0  0  0  0  0  0  0  0  0
  -16.4020  -25.8580   21.2310 N   0  0  0  0  0  0  0  0  0  0  0  0
  -15.1150  -25.6260   21.6000 N   0  0  0  0  0  0  0  0  0  0  0  0
  -13.6270  -26.2440   23.3980 C   0  0  0  0  0  0  0  0  0  0  0  0
  -12.8850  -25.0660   23.6420 C   0  0  0  0  0  3  0  0  0  0  0  0
  -11.6080  -25.1350   24.2390 C   0  0  0  0  0  3  0  0  0  0  0  0
  -11.0630  -26.3900   24.6020 C   0  0  0  0  0  0  0  0  0  0  0  0
  -11.7950  -27.5610   24.3380 C   0  0  0  0  0  3  0  0  0  0  0  0
  -13.0630  -27.4900   23.7390 C   0  0  0  0  0  3  0  0  0  0  0  0
   -9.8220  -26.5550   25.1670 O   0  0  0  0  0  0  0  0  0  0  0  0
   -9.2390  -25.5750   25.9300 C   0  0  0  0  0  0  0  0  0  0  0  0
   -9.8740  -25.0500   27.0760 C   0  0  0  0  0  3  0  0  0  0  0  0
   -9.2120  -24.0940   27.8720 C   0  0  0  0  0  3  0  0  0  0  0  0
   -7.9150  -23.6700   27.5290 C   0  0  0  0  0  0  0  0  0  0  0  0
   -7.2770  -24.1960   26.3910 C   0  0  0  0  0  3  0  0  0  0  0  0
   -7.9370  -25.1480   25.5940 C   0  0  0  0  0  0  0  0  0  0  0  0
   -7.3120  -25.6670   24.5090 F   0  0  0  0  0  0  0  0  0  0  0  0
   -7.2740  -22.7610   28.2990 F   0  0  0  0  0  0  0  0  0  0  0  0
  -16.4660  -27.4770   24.5180 C   0  0  0  0  0  0  0  0  0  0  0  0
  -15.7800  -27.1120   25.5940 N   0  0  0  0  0  0  0  0  0  0  0  0
  -17.3170  -28.3640   24.5800 O   0  0  0  0  0  0  0  0  0  0  0  0
  -15.0970  -26.3700   25.5530 H   0  0  0  0  0  0  0  0  0  0  0  0
  -15.9370  -27.5830   26.4730 H   0  0  0  0  0  0  0  0  0  0  0  0
  -18.4540  -26.8200   22.0680 N   0  0  0  0  0  0  0  0  0  0  0  0
  -18.9650  -27.3640   22.7550 H   0  0  0  0  0  0  0  0  0  0  0  0
  -18.9690  -26.6810   21.2080 H   0  0  0  0  0  0  0  0  0  0  0  0
  -31.4930  -30.2390   22.6330 C   0  0  0  0  0  2  0  0  0  0  0  0
  -31.7660  -29.0640   23.6100 C   0  0  0  0  0  2  0  0  0  0  0  0
  -30.6860  -27.9610   23.7330 C   0  0  0  0  0  2  0  0  0  0  0  0
  -29.5220  -28.3520   24.5650 N   0  0  0  0  0  4  0  0  0  0  0  0
  -29.1380  -29.2220   24.2310 H   0  0  0  0  0  0  0  0  0  0  0  0
  -29.8050  -28.4890   25.5240 H   0  0  0  0  0  0  0  0  0  0  0  0
  -28.3940  -27.3930   24.5260 C   0  0  0  0  0  2  0  0  0  0  0  0
  -27.1140  -28.0670   25.0300 C   0  0  0  0  0  2  0  0  0  0  0  0
  -27.0310  -29.2960   24.3160 O   0  0  0  0  0  0  0  0  0  0  0  0
  -25.9340  -30.1070   24.7060 C   0  0  0  0  0  2  0  0  0  0  0  0
  -25.9530  -31.3980   23.8740 C   0  0  0  0  0  2  0  0  0  0  0  0
  -27.2610  -32.1820   24.0350 C   0  0  0  0  0  2  0  0  0  0  0  0
  -27.1370  -33.5070   23.5170 O   0  0  0  0  0  0  0  0  0  0  0  0
  -31.3440  -35.5640   28.8470 C   0  0  0  0  0  0  0  0  0  0  0  0
  -27.4710  -34.4920   24.4090 C   0  0  0  0  0  0  0  0  0  0  0  0
  -29.2940  -36.9080   28.5000 C   0  0  0  0  0  3  0  0  0  0  0  0
  -28.0460  -36.4810   26.3180 C   0  0  0  0  0  0  0  0  0  0  0  0
  -30.4180  -35.7180   26.5410 C   0  0  0  0  0  2  0  0  0  0  0  0
  -29.0470  -35.5890   25.9160 C   0  0  0  0  0  0  0  0  0  0  0  0
  -28.7680  -34.5930   24.9620 C   0  0  0  0  0  3  0  0  0  0  0  0
  -26.4780  -35.4110   24.7960 C   0  0  0  0  0  3  0  0  0  0  0  0
  -26.7560  -36.4010   25.7580 C   0  0  0  0  0  3  0  0  0  0  0  0
  -28.4280  -37.5080   27.3580 C   0  0  0  0  0  2  0  0  0  0  0  0
  -30.3830  -36.0140   27.9900 N   0  0  0  0  0  0  0  0  0  0  0  0
  -31.3590  -35.9190   30.0330 O   0  0  0  0  0  0  0  0  0  0  0  0
  -28.3570  -36.2160   29.5160 C   0  0  0  0  0  0  0  0  0  0  0  0
  -27.8120  -37.0020   30.4570 N   0  0  0  0  0  0  0  0  0  0  0  0
  -28.1150  -35.0100   29.4320 O   0  0  0  0  0  0  0  0  0  0  0  0
  -28.0680  -37.9800   30.4610 H   0  0  0  0  0  0  0  0  0  0  0  0
  -25.9560  -38.1380   33.3380 C   0  0  0  0  0  0  0  0  0  0  0  0
  -26.8740  -36.5780   31.4940 C   0  0  0  0  0  3  0  0  0  0  0  0
  -25.4270  -36.5380   30.9490 C   0  0  0  0  0  2  0  0  0  0  0  0
  -24.6580  -37.8410   31.1870 C   0  0  0  0  0  2  0  0  0  0  0  0
  -24.5850  -38.1570   32.6840 C   0  0  0  0  0  2  0  0  0  0  0  0
  -27.0360  -37.4100   32.7710 C   0  0  0  0  0  0  0  0  0  0  0  0
  -28.2990  -37.4560   33.4010 C   0  0  0  0  0  3  0  0  0  0  0  0
  -28.4910  -38.2060   34.5760 C   0  0  0  0  0  3  0  0  0  0  0  0
  -27.4140  -38.9130   35.1410 C   0  0  0  0  0  3  0  0  0  0  0  0
  -26.1500  -38.8730   34.5260 C   0  0  0  0  0  3  0  0  0  0  0  0
  -32.4800  -34.6050   28.3720 C   0  0  0  0  0  3  0  0  0  0  0  0
  -32.2110  -33.0920   28.7300 C   0  0  1  0  0  0  0  0  0  0  0  0
  -31.8250  -32.8670   30.2100 C   0  0  0  0  0  1  0  0  0  0  0  0
  -31.0820  -32.5130   27.8470 C   0  0  0  0  0  1  0  0  0  0  0  0
  -33.4760  -32.2500   28.4360 C   0  0  0  0  0  1  0  0  0  0  0  0
  -33.7340  -35.0710   28.9790 N   0  0  0  0  0  0  0  0  0  0  0  0
  -34.6510  -35.8190   28.3500 C   0  0  0  0  0  0  0  0  0  0  0  0
  -34.5580  -36.1320   27.1610 O   0  0  0  0  0  0  0  0  0  0  0  0
  -33.8510  -34.8950   29.9670 H   0  0  0  0  0  0  0  0  0  0  0  0
  -35.6460  -37.7550   29.6080 C   0  0  0  0  0  1  0  0  0  0  0  0
  -35.8610  -36.2960   29.1740 C   0  0  0  0  0  3  0  0  0  0  0  0
  -37.5600  -34.7940   28.2330 C   0  0  0  0  0  1  0  0  0  0  0  0
  -37.1470  -36.1770   28.4550 N   0  0  0  0  0  0  0  0  0  0  0  0
  -37.8880  -36.6510   28.9620 H   0  0  0  0  0  0  0  0  0  0  0  0
  1  2  1  0
  1 57  1  0
  3  1  1  0
  4  1  1  0
  5  4  1  0
  6  5  1  0
  7  6  1  0
  8  7  1  0
  8  9  1  0
 10  9  1  0
 10 11  1  0
 11 12  1  0
 12 14  1  0
 12 15  1  0
 13 12  1  0
 16 15  1  0
 16 17  1  0
 18 27  1  0
 18 17  1  0
 19 25  1  0
 19 27  1  0
 20 25  1  0
 21 20  1  0
 21 22  1  0
 23 22  1  0
 23 32  1  0
 24 23  1  0
 25 24  1  0
 26 19  2  0
 27 28  1  0
 29 30  2  0
 30 49  1  0
 31 30  1  0
 31 34  1  0
 32 33  1  0
 32 29  1  0
 33 31  2  0
 34 35  2  0
 34 39  1  0
 35 36  1  0
 36 37  2  0
 37 40  1  0
 38 37  1  0
 39 38  2  0
 40 41  1  0
 41 42  1  0
 42 43  2  0
 44 43  1  0
 44 48  1  0
 45 44  2  0
 46 41  2  0
 46 45  1  0
 47 46  1  0
 49 51  2  0
 49 50  1  0
 50 53  1  0
 52 50  1  0
 54 29  1  0
 54 55  1  0
 56 54  1  0
 57 58  1  0
 58 59  1  0
 59 60  1  0
 60 62  1  0
 61 60  1  0
 63 60  1  0
 63 64  1  0
 65 66  1  0
 65 64  1  0
 67 68  1  0
 67 66  1  0
 69 68  1  0
 69 71  1  0
 70 81  2  0
 71 77  2  0
 71 76  1  0
 72 82  1  0
 73 79  1  0
 74 80  1  0
 75 73  1  0
 75 74  1  0
 76 75  2  0
 77 78  1  0
 78 73  2  0
 79 72  1  0
 80 72  1  0
 80 70  1  0
 82 83  1  0
 83 85  1  0
 84 82  2  0
 86 95  1  0
 87 83  1  0
 87 91  1  0
 88 89  1  0
 88 87  1  0
 89 90  1  0
 90 86  1  0
 91 86  2  0
 91 92  1  0
 92 93  2  0
 93 94  1  0
 95 94  2  0
 96 97  1  0
 96 70  1  0
 96101  1  0
 97 98  1  1
 99 97  1  0
100 97  1  0
101104  1  0
102101  1  0
102106  1  0
103102  2  0
106105  1  0
107108  1  0
108109  1  0
108106  1  0
M  ISO  4  19 100  27 100  68 101  69 101
M  END
>  <TORSDO>  (78) 
F 39

>  <SCORE>  (78) 
-2.064

>  <name>  (78) 
84

>  <ligand_id>  (78) 
84

>  <original_smiles>  (78) 
[H]c1c([H])c([H])c2c(c1[H])C([H])([H])C([H])([H])C([H])([H])C2([H])N([H])C(=O)C1([H])N(C(=O)C([H])(N([H])C(=O)C([H])(N([H])C([H])([H])[H])C([H])([H])[H])C(C([H])([H])[H])(C([H])([H])[H])C([H])([H])[H])C([H])([H])c2c([H])c(OC([H])([H])C([H])([H])C([H])([H])OC([H])([H])C([H])([H])[N+]([H])([H])C([H])([H])C([H])([H])C([H])([H])[N+]([H])([H])C([H])([H])C([H])([H])OC([H])([H])C([H])([H])C([H])([H])C([H])([H])C([H])([H])[N+]([H])([H])C([H])([H])C([H])([H])C([H])([H])C([H])([H])N([H])C(=O)N3C([H])([H])C([H])([H])C([H])([H])C([H])(n4nc(-c5c([H])c([H])c(Oc6c([H])c([H])c(F)c([H])c6F)c([H])c5[H])c(C(=O)N([H])[H])c4N([H])[H])C3([H])[H])c([H])c([H])c2C1([H])[H]

>  <smiles>  (78) 
[H]c1c([H])c([H])c2c(c1[H])C([H])([H])C([H])([H])C([H])([H])C2([H])N([H])C(=O)C1([H])N(C(=O)C([H])(N([H])C(=O)C([H])(N([H])C([H])([H])[H])C([H])([H])[H])C(C([H])([H])[H])(C([H])([H])[H])C([H])([H])[H])C([H])([H])c2c([H])c(OC([H])([H])C([H])([H])C([H])([H])OC([H])([H])C([H])([H])[N+]([H])([H])C([H])([H])C([H])([H])C([H])([H])[N+]([H])([H])C([H])([H])C([H])([H])OC([H])([H])C([H])([H])C([H])([H])C([H])([H])C([H])([H])[N+]([H])([H])C([H])([H])C([H])([H])C([H])([H])C([H])([H])N([H])C(=O)N3C([H])([H])C([H])([H])C([H])([H])C([H])(n4nc(-c5c([H])c([H])c(Oc6c([H])c([H])c(F)c([H])c6F)c([H])c5[H])c(C(=O)N([H])[H])c4N([H])[H])C3([H])[H])c([H])c([H])c2C1([H])[H]

$$$$
85:0:0
     RDKit          3D

 91 98  0  0  1  0  0  0  0  0999 V2000
  -29.8720  -22.1720   21.2690 N   0  0  0  0  0  4  0  0  0  0  0  0
  -29.0020  -21.8950   20.8410 H   0  0  0  0  0  0  0  0  0  0  0  0
  -30.5920  -22.1480   20.5630 H   0  0  0  0  0  0  0  0  0  0  0  0
  -30.2130  -21.1780   22.3090 C   0  0  0  0  0  2  0  0  0  0  0  0
  -29.7200  -19.7640   21.9430 C   0  0  0  0  0  2  0  0  0  0  0  0
  -30.7090  -18.8180   22.3220 O   0  0  0  0  0  0  0  0  0  0  0  0
  -30.1920  -17.5080   22.4950 C   0  0  0  0  0  2  0  0  0  0  0  0
  -31.3670  -16.5280   22.6220 C   0  0  0  0  0  2  0  0  0  0  0  0
  -31.8700  -15.9660   21.2790 C   0  0  0  0  0  2  0  0  0  0  0  0
  -31.2630  -14.1080   19.7310 C   0  0  0  0  0  0  0  0  0  0  0  0
  -30.7120  -11.9570   18.6470 C   0  0  0  0  0  2  0  0  0  0  0  0
  -29.6930  -12.0980   17.5030 C   0  0  0  0  0  2  0  0  0  0  0  0
  -28.2560  -12.0540   18.0460 C   0  0  0  0  0  2  0  0  0  0  0  0
  -28.0450  -13.0280   19.2320 C   0  0  0  0  0  3  0  0  0  0  0  0
  -29.1530  -12.8520   20.2920 C   0  0  0  0  0  2  0  0  0  0  0  0
  -30.4650  -13.0140   19.6370 N   0  0  0  0  0  0  0  0  0  0  0  0
  -32.2060  -14.3360   18.9650 O   0  0  0  0  0  0  0  0  0  0  0  0
  -31.0240  -14.8750   20.8020 N   0  0  0  0  0  0  0  0  0  0  0  0
  -30.2540  -14.5880   21.3890 H   0  0  0  0  0  0  0  0  0  0  0  0
  -25.7690  -13.8420   20.1170 C   0  0  0  0  0  0  0  0  0  0  0  0
  -24.6740  -13.1660   20.5780 C   0  0  0  0  0  0  0  0  0  0  0  0
  -25.0150  -11.7790   20.5260 C   0  0  0  0  0  0  0  0  0  0  0  0
  -26.7140  -12.8750   19.8140 N   0  0  0  0  0  0  0  0  0  0  0  0
  -26.2660  -11.6280   20.1130 N   0  0  0  0  0  0  0  0  0  0  0  0
  -24.2050  -10.5840   20.7910 C   0  0  0  0  0  0  0  0  0  0  0  0
  -24.6180   -9.5990   21.7150 C   0  0  0  0  0  3  0  0  0  0  0  0
  -23.8120   -8.4660   21.9600 C   0  0  0  0  0  3  0  0  0  0  0  0
  -22.5790   -8.3110   21.2820 C   0  0  0  0  0  0  0  0  0  0  0  0
  -22.1840   -9.2840   20.3460 C   0  0  0  0  0  3  0  0  0  0  0  0
  -22.9910  -10.4080   20.1000 C   0  0  0  0  0  3  0  0  0  0  0  0
  -21.7440   -7.2320   21.4370 O   0  0  0  0  0  0  0  0  0  0  0  0
  -21.6910   -6.5300   22.6150 C   0  0  0  0  0  0  0  0  0  0  0  0
  -21.3900   -7.1560   23.8440 C   0  0  0  0  0  3  0  0  0  0  0  0
  -21.2760   -6.3840   25.0170 C   0  0  0  0  0  3  0  0  0  0  0  0
  -21.4530   -4.9880   24.9630 C   0  0  0  0  0  0  0  0  0  0  0  0
  -21.7480   -4.3640   23.7390 C   0  0  0  0  0  3  0  0  0  0  0  0
  -21.8640   -5.1320   22.5670 C   0  0  0  0  0  0  0  0  0  0  0  0
  -22.1280   -4.5240   21.3870 F   0  0  0  0  0  0  0  0  0  0  0  0
  -21.3360   -4.2440   26.0880 F   0  0  0  0  0  0  0  0  0  0  0  0
  -23.3470  -13.7610   20.9580 C   0  0  0  0  0  0  0  0  0  0  0  0
  -22.6490  -13.1460   21.9050 N   0  0  0  0  0  0  0  0  0  0  0  0
  -22.9460  -14.8060   20.4470 O   0  0  0  0  0  0  0  0  0  0  0  0
  -22.9900  -12.2980   22.3330 H   0  0  0  0  0  0  0  0  0  0  0  0
  -21.7640  -13.5290   22.2070 H   0  0  0  0  0  0  0  0  0  0  0  0
  -26.0380  -15.1940   19.9140 N   0  0  0  0  0  0  0  0  0  0  0  0
  -25.3360  -15.9080   20.0700 H   0  0  0  0  0  0  0  0  0  0  0  0
  -26.8960  -15.5580   19.5180 H   0  0  0  0  0  0  0  0  0  0  0  0
  -29.7080  -23.5680   21.7590 C   0  0  0  0  0  2  0  0  0  0  0  0
  -29.6440  -24.6560   20.6340 C   0  0  0  0  0  2  0  0  0  0  0  0
  -28.3850  -25.4680   20.2040 C   0  0  0  0  0  2  0  0  0  0  0  0
  -28.4970  -26.8870   20.3890 O   0  0  0  0  0  0  0  0  0  0  0  0
  -24.6670  -32.0120   23.4600 C   0  0  0  0  0  0  0  0  0  0  0  0
  -27.3200  -27.6040   20.3560 C   0  0  0  0  0  0  0  0  0  0  0  0
  -23.4720  -30.6450   21.7830 C   0  0  0  0  0  3  0  0  0  0  0  0
  -24.9310  -29.1190   20.3570 C   0  0  0  0  0  0  0  0  0  0  0  0
  -26.0010  -30.9910   21.6200 C   0  0  0  0  0  2  0  0  0  0  0  0
  -26.0860  -29.6300   20.9630 C   0  0  0  0  0  0  0  0  0  0  0  0
  -27.2830  -28.8810   20.9560 C   0  0  0  0  0  3  0  0  0  0  0  0
  -26.1440  -27.1100   19.7400 C   0  0  0  0  0  3  0  0  0  0  0  0
  -24.9540  -27.8570   19.7440 C   0  0  0  0  0  3  0  0  0  0  0  0
  -23.6920  -29.9840   20.3980 C   0  0  0  0  0  2  0  0  0  0  0  0
  -24.7310  -31.2290   22.3460 N   0  0  0  0  0  0  0  0  0  0  0  0
  -23.5810  -32.2860   23.9880 O   0  0  0  0  0  0  0  0  0  0  0  0
  -22.7990  -29.6140   22.7180 C   0  0  0  0  0  0  0  0  0  0  0  0
  -21.4780  -29.4320   22.5540 N   0  0  0  0  0  0  0  0  0  0  0  0
  -23.4620  -28.9830   23.5450 O   0  0  0  0  0  0  0  0  0  0  0  0
  -21.0070  -29.9960   21.8600 H   0  0  0  0  0  0  0  0  0  0  0  0
  -18.0980  -28.2200   22.9340 C   0  0  0  0  0  0  0  0  0  0  0  0
  -20.6420  -28.4900   23.2940 C   0  0  0  0  0  3  0  0  0  0  0  0
  -20.7710  -27.0590   22.7210 C   0  0  0  0  0  2  0  0  0  0  0  0
  -19.7060  -26.7320   21.6700 C   0  0  0  0  0  2  0  0  0  0  0  0
  -18.3030  -26.8710   22.2660 C   0  0  0  0  0  2  0  0  0  0  0  0
  -19.1960  -28.9870   23.4030 C   0  0  0  0  0  0  0  0  0  0  0  0
  -18.9520  -30.2500   23.9840 C   0  0  0  0  0  3  0  0  0  0  0  0
  -17.6410  -30.7470   24.1010 C   0  0  0  0  0  3  0  0  0  0  0  0
  -16.5550  -29.9770   23.6500 C   0  0  0  0  0  3  0  0  0  0  0  0
  -16.7840  -28.7150   23.0730 C   0  0  0  0  0  3  0  0  0  0  0  0
  -25.9480  -32.6230   24.1060 C   0  0  0  0  0  3  0  0  0  0  0  0
  -26.4360  -31.8360   25.3830 C   0  0  1  0  0  0  0  0  0  0  0  0
  -25.3210  -31.5960   26.4280 C   0  0  0  0  0  1  0  0  0  0  0  0
  -27.0140  -30.4590   24.9830 C   0  0  0  0  0  1  0  0  0  0  0  0
  -27.5810  -32.6150   26.0720 C   0  0  0  0  0  1  0  0  0  0  0  0
  -25.6520  -34.0220   24.4360 N   0  0  0  0  0  0  0  0  0  0  0  0
  -26.0140  -35.0730   23.6870 C   0  0  0  0  0  0  0  0  0  0  0  0
  -26.7030  -34.9630   22.6680 O   0  0  0  0  0  0  0  0  0  0  0  0
  -25.0400  -34.1810   25.2240 H   0  0  0  0  0  0  0  0  0  0  0  0
  -24.3110  -36.8850   23.3110 C   0  0  0  0  0  1  0  0  0  0  0  0
  -25.5340  -36.4650   24.1400 C   0  0  0  0  0  3  0  0  0  0  0  0
  -27.6700  -37.3210   25.0010 C   0  0  0  0  0  1  0  0  0  0  0  0
  -26.5810  -37.5060   24.0450 N   0  0  0  0  0  0  0  0  0  0  0  0
  -26.1850  -38.4310   24.1920 H   0  0  0  0  0  0  0  0  0  0  0  0
  1 48  1  0
  1  4  1  0
  2  1  1  0
  3  1  1  0
  5  4  1  0
  5  6  1  0
  6  7  1  0
  7  8  1  0
  9  8  1  0
 10 18  1  0
 11 16  1  0
 12 13  1  0
 12 11  1  0
 14 13  1  0
 14 23  1  0
 14 15  1  0
 16 10  1  0
 16 15  1  0
 17 10  2  0
 18  9  1  0
 18 19  1  0
 20 21  2  0
 21 40  1  0
 22 21  1  0
 22 25  1  0
 23 24  1  0
 23 20  1  0
 24 22  2  0
 25 26  1  0
 26 27  2  0
 28 31  1  0
 28 27  1  0
 29 28  2  0
 30 29  1  0
 30 25  2  0
 31 32  1  0
 32 33  1  0
 33 34  2  0
 35 34  1  0
 35 39  1  0
 36 35  2  0
 37 32  2  0
 37 36  1  0
 38 37  1  0
 40 41  1  0
 41 44  1  0
 41 43  1  0
 42 40  2  0
 45 46  1  0
 45 20  1  0
 47 45  1  0
 49 48  1  0
 50 51  1  0
 50 49  1  0
 52 63  2  0
 53 51  1  0
 53 58  1  0
 54 62  1  0
 54 64  1  0
 55 61  1  0
 55 57  1  0
 56 62  1  0
 57 56  1  0
 58 57  2  0
 59 60  1  0
 59 53  2  0
 60 55  2  0
 61 54  1  0
 62 52  1  0
 64 66  2  0
 65 64  1  0
 67 65  1  0
 68 77  2  0
 68 73  1  0
 69 65  1  0
 69 73  1  0
 70 69  1  0
 71 72  1  0
 71 70  1  0
 72 68  1  0
 73 74  2  0
 74 75  1  0
 76 75  2  0
 77 76  1  0
 78 52  1  0
 78 83  1  0
 78 79  1  0
 79 82  1  1
 79 80  1  0
 81 79  1  0
 83 86  1  0
 84 88  1  0
 84 83  1  0
 85 84  2  0
 88 87  1  0
 90 88  1  0
 90 91  1  0
 90 89  1  0
M  ISO  4  10 100  18 100  50 101  51 101
M  END
>  <TORSDO>  (79) 
F 25

>  <SCORE>  (79) 
-9.805

>  <name>  (79) 
85

>  <ligand_id>  (79) 
85

>  <original_smiles>  (79) 
[H]c1c([H])c([H])c2c(c1[H])C([H])([H])C([H])([H])C([H])([H])C2([H])N([H])C(=O)C1([H])N(C(=O)C([H])(N([H])C(=O)C([H])(N([H])C([H])([H])[H])C([H])([H])[H])C(C([H])([H])[H])(C([H])([H])[H])C([H])([H])[H])C([H])([H])c2c([H])c(OC([H])([H])C([H])([H])C([H])([H])[N+]([H])([H])C([H])([H])C([H])([H])OC([H])([H])C([H])([H])C([H])([H])N([H])C(=O)N3C([H])([H])C([H])([H])C([H])([H])C([H])(n4nc(-c5c([H])c([H])c(Oc6c([H])c([H])c(F)c([H])c6F)c([H])c5[H])c(C(=O)N([H])[H])c4N([H])[H])C3([H])[H])c([H])c([H])c2C1([H])[H]

>  <smiles>  (79) 
[H]c1c([H])c([H])c2c(c1[H])C([H])([H])C([H])([H])C([H])([H])C2([H])N([H])C(=O)C1([H])N(C(=O)C([H])(N([H])C(=O)C([H])(N([H])C([H])([H])[H])C([H])([H])[H])C(C([H])([H])[H])(C([H])([H])[H])C([H])([H])[H])C([H])([H])c2c([H])c(OC([H])([H])C([H])([H])C([H])([H])[N+]([H])([H])C([H])([H])C([H])([H])OC([H])([H])C([H])([H])C([H])([H])N([H])C(=O)N3C([H])([H])C([H])([H])C([H])([H])C([H])(n4nc(-c5c([H])c([H])c(Oc6c([H])c([H])c(F)c([H])c6F)c([H])c5[H])c(C(=O)N([H])[H])c4N([H])[H])C3([H])[H])c([H])c([H])c2C1([H])[H]

$$$$
86:0:0
     RDKit          3D

 98105  0  0  1  0  0  0  0  0999 V2000
  -27.7180  -19.4820   19.9660 C   0  0  0  0  0  0  0  0  0  0  0  0
  -27.1950  -20.6260   20.4310 N   0  0  0  0  0  0  0  0  0  0  0  0
  -27.5270  -18.4460   20.6070 O   0  0  0  0  0  0  0  0  0  0  0  0
  -26.7220  -20.5290   21.3190 H   0  0  0  0  0  0  0  0  0  0  0  0
  -27.6320  -19.3300   17.4060 C   0  0  0  0  0  1  0  0  0  0  0  0
  -28.5400  -19.4260   18.6500 C   0  0  0  0  0  3  0  0  0  0  0  0
  -30.3250  -17.8210   19.5000 C   0  0  0  0  0  0  0  0  0  0  0  0
  -29.4390  -18.2630   18.5960 N   0  0  0  0  0  0  0  0  0  0  0  0
  -30.5440  -18.3940   20.5660 O   0  0  0  0  0  0  0  0  0  0  0  0
  -29.3540  -17.6890   17.7710 H   0  0  0  0  0  0  0  0  0  0  0  0
  -30.9530  -16.1150   17.6500 C   0  0  0  0  0  1  0  0  0  0  0  0
  -31.0880  -16.5350   19.1380 C   0  0  0  0  0  3  0  0  0  0  0  0
  -31.4980  -14.4250   20.3900 C   0  0  0  0  0  0  0  0  0  0  0  0
  -31.3450  -11.9810   20.3740 C   0  0  0  0  0  2  0  0  0  0  0  0
  -30.6050  -11.5710   19.0830 C   0  0  0  0  0  2  0  0  0  0  0  0
  -29.0810  -11.5610   19.3150 C   0  0  0  0  0  2  0  0  0  0  0  0
  -28.5650  -12.8610   19.9850 C   0  0  0  0  0  3  0  0  0  0  0  0
  -29.4330  -13.2410   21.2060 C   0  0  0  0  0  2  0  0  0  0  0  0
  -30.8370  -13.3030   20.7670 N   0  0  0  0  0  0  0  0  0  0  0  0
  -32.7030  -14.4540   20.1310 O   0  0  0  0  0  0  0  0  0  0  0  0
  -30.6970  -15.4360   20.0250 N   0  0  0  0  0  0  0  0  0  0  0  0
  -29.7210  -15.3710   20.2600 H   0  0  0  0  0  0  0  0  0  0  0  0
  -26.1860  -13.7450   20.4130 C   0  0  0  0  0  0  0  0  0  0  0  0
  -25.0170  -13.1080   20.7240 C   0  0  0  0  0  0  0  0  0  0  0  0
  -25.3370  -11.7190   20.8210 C   0  0  0  0  0  0  0  0  0  0  0  0
  -27.1530  -12.7540   20.3420 N   0  0  0  0  0  0  0  0  0  0  0  0
  -26.6380  -11.5350   20.6450 N   0  0  0  0  0  0  0  0  0  0  0  0
  -24.4730  -10.5500   21.0160 C   0  0  0  0  0  0  0  0  0  0  0  0
  -24.7500   -9.5840   22.0090 C   0  0  0  0  0  3  0  0  0  0  0  0
  -23.8930   -8.4790   22.1920 C   0  0  0  0  0  3  0  0  0  0  0  0
  -22.7440   -8.3300   21.3770 C   0  0  0  0  0  0  0  0  0  0  0  0
  -22.4850   -9.2830   20.3760 C   0  0  0  0  0  3  0  0  0  0  0  0
  -23.3420  -10.3800   20.1930 C   0  0  0  0  0  3  0  0  0  0  0  0
  -21.8710   -7.2720   21.4630 O   0  0  0  0  0  0  0  0  0  0  0  0
  -21.7360   -6.5410   22.6150 C   0  0  0  0  0  0  0  0  0  0  0  0
  -21.3560   -7.1410   23.8370 C   0  0  0  0  0  3  0  0  0  0  0  0
  -21.1630   -6.3420   24.9820 C   0  0  0  0  0  3  0  0  0  0  0  0
  -21.3370   -4.9480   24.9060 C   0  0  0  0  0  0  0  0  0  0  0  0
  -21.7110   -4.3500   23.6900 C   0  0  0  0  0  3  0  0  0  0  0  0
  -21.9070   -5.1440   22.5480 C   0  0  0  0  0  0  0  0  0  0  0  0
  -22.2450   -4.5610   21.3730 F   0  0  0  0  0  0  0  0  0  0  0  0
  -21.1440   -4.1800   26.0040 F   0  0  0  0  0  0  0  0  0  0  0  0
  -23.6580  -13.7380   20.8310 C   0  0  0  0  0  0  0  0  0  0  0  0
  -22.8010  -13.1910   21.6870 N   0  0  0  0  0  0  0  0  0  0  0  0
  -23.3640  -14.7480   20.1920 O   0  0  0  0  0  0  0  0  0  0  0  0
  -23.0510  -12.3720   22.2230 H   0  0  0  0  0  0  0  0  0  0  0  0
  -21.8830  -13.5930   21.8080 H   0  0  0  0  0  0  0  0  0  0  0  0
  -26.5090  -15.0740   20.1690 N   0  0  0  0  0  0  0  0  0  0  0  0
  -25.8340  -15.8240   20.2590 H   0  0  0  0  0  0  0  0  0  0  0  0
  -27.4450  -15.4220   20.0090 H   0  0  0  0  0  0  0  0  0  0  0  0
  -27.0200  -21.9290   19.7850 C   0  0  0  0  0  2  0  0  0  0  0  0
  -28.3290  -22.7050   19.5190 C   0  0  0  0  0  2  0  0  0  0  0  0
  -28.7160  -22.8160   18.0390 C   0  0  0  0  0  2  0  0  0  0  0  0
  -27.8900  -23.8120   17.4510 O   0  0  0  0  0  0  0  0  0  0  0  0
  -28.1890  -24.0820   16.0890 C   0  0  0  0  0  2  0  0  0  0  0  0
  -27.5700  -25.4380   15.7300 C   0  0  0  0  0  2  0  0  0  0  0  0
  -27.9960  -26.5620   16.6800 C   0  0  0  0  0  2  0  0  0  0  0  0
  -27.4030  -27.7820   16.2520 O   0  0  0  0  0  0  0  0  0  0  0  0
  -25.4610  -28.4390   23.0590 C   0  0  0  0  0  0  0  0  0  0  0  0
  -26.5020  -28.2820   17.1510 C   0  0  0  0  0  0  0  0  0  0  0  0
  -23.7970  -29.1030   21.3760 C   0  0  0  0  0  3  0  0  0  0  0  0
  -24.6200  -29.2950   18.9740 C   0  0  0  0  0  0  0  0  0  0  0  0
  -26.2810  -29.2620   20.8500 C   0  0  0  0  0  2  0  0  0  0  0  0
  -25.9250  -29.0110   19.4020 C   0  0  0  0  0  0  0  0  0  0  0  0
  -26.8720  -28.5030   18.4920 C   0  0  0  0  0  3  0  0  0  0  0  0
  -25.1910  -28.5670   16.7260 C   0  0  0  0  0  3  0  0  0  0  0  0
  -24.2430  -29.0730   17.6380 C   0  0  0  0  0  3  0  0  0  0  0  0
  -23.6710  -29.8400   20.0130 C   0  0  0  0  0  2  0  0  0  0  0  0
  -25.2090  -28.8910   21.8010 N   0  0  0  0  0  0  0  0  0  0  0  0
  -24.5440  -28.2480   23.8700 O   0  0  0  0  0  0  0  0  0  0  0  0
  -22.9760  -27.8000   21.3100 C   0  0  0  0  0  0  0  0  0  0  0  0
  -21.6660  -28.0140   21.3420 N   0  0  0  0  0  0  0  0  0  0  0  0
  -23.4960  -26.6890   21.1910 O   0  0  0  0  0  0  0  0  0  0  0  0
  -21.4080  -28.9720   21.5270 H   0  0  0  0  0  0  0  0  0  0  0  0
  -18.0450  -27.2960   20.7670 C   0  0  0  0  0  0  0  0  0  0  0  0
  -20.5460  -27.1980   20.9470 C   0  0  0  0  0  3  0  0  0  0  0  0
  -20.6100  -26.2450   19.7450 C   0  0  0  0  0  2  0  0  0  0  0  0
  -19.5380  -26.6770   18.7260 C   0  0  0  0  0  2  0  0  0  0  0  0
  -18.1250  -26.7220   19.3500 C   0  0  0  0  0  2  0  0  0  0  0  0
  -19.1970  -27.4230   21.5810 C   0  0  0  0  0  0  0  0  0  0  0  0
  -19.0930  -27.9440   22.8870 C   0  0  0  0  0  3  0  0  0  0  0  0
  -17.8460  -28.3880   23.3660 C   0  0  0  0  0  3  0  0  0  0  0  0
  -16.7040  -28.2960   22.5490 C   0  0  0  0  0  3  0  0  0  0  0  0
  -16.8010  -27.7380   21.2620 C   0  0  0  0  0  3  0  0  0  0  0  0
  -26.9160  -28.1610   23.5420 C   0  0  0  0  0  3  0  0  0  0  0  0
  -27.3000  -26.6320   23.4950 C   0  0  1  0  0  0  0  0  0  0  0  0
  -26.2810  -25.7100   24.2060 C   0  0  0  0  0  1  0  0  0  0  0  0
  -27.4320  -26.1490   22.0310 C   0  0  0  0  0  1  0  0  0  0  0  0
  -28.6810  -26.4230   24.1580 C   0  0  0  0  0  1  0  0  0  0  0  0
  -27.0310  -28.6890   24.9060 N   0  0  0  0  0  0  0  0  0  0  0  0
  -27.6550  -29.8310   25.2250 C   0  0  0  0  0  0  0  0  0  0  0  0
  -28.2630  -30.5170   24.3990 O   0  0  0  0  0  0  0  0  0  0  0  0
  -26.5070  -28.2090   25.6230 H   0  0  0  0  0  0  0  0  0  0  0  0
  -26.5750  -31.4230   26.8450 C   0  0  0  0  0  1  0  0  0  0  0  0
  -27.5960  -30.2840   26.6960 C   0  0  0  0  0  3  0  0  0  0  0  0
  -29.8590  -29.6180   27.3780 C   0  0  0  0  0  1  0  0  0  0  0  0
  -28.9060  -30.7140   27.2300 N   0  0  0  0  0  0  0  0  0  0  0  0
  -28.7960  -31.1620   28.1360 H   0  0  0  0  0  0  0  0  0  0  0  0
  1  2  1  0
  1  3  2  0
  2  4  1  0
  6  5  1  0
  6  1  1  0
  7  9  2  0
  8  6  1  0
  8  7  1  0
 10  8  1  0
 12 11  1  0
 12  7  1  0
 12 21  1  0
 13 19  1  0
 14 19  1  0
 15 16  1  0
 15 14  1  0
 17 16  1  0
 17 26  1  0
 17 18  1  0
 19 18  1  0
 20 13  2  0
 21 22  1  0
 21 13  1  0
 23 24  2  0
 24 25  1  0
 24 43  1  0
 25 28  1  0
 26 23  1  0
 26 27  1  0
 27 25  2  0
 28 29  1  0
 29 30  2  0
 31 34  1  0
 31 30  1  0
 32 31  2  0
 33 32  1  0
 33 28  2  0
 34 35  1  0
 35 36  1  0
 36 37  2  0
 38 37  1  0
 38 42  1  0
 39 38  2  0
 40 35  2  0
 40 39  1  0
 41 40  1  0
 43 44  1  0
 44 47  1  0
 44 46  1  0
 45 43  2  0
 48 49  1  0
 48 23  1  0
 50 48  1  0
 51  2  1  0
 52 51  1  0
 53 52  1  0
 54 53  1  0
 55 54  1  0
 56 55  1  0
 56 57  1  0
 58 57  1  0
 58 60  1  0
 59 70  2  0
 60 65  1  0
 61 71  1  0
 61 69  1  0
 62 64  1  0
 62 68  1  0
 63 69  1  0
 64 63  1  0
 65 64  2  0
 66 60  2  0
 66 67  1  0
 67 62  2  0
 68 61  1  0
 69 59  1  0
 71 72  1  0
 72 74  1  0
 73 71  2  0
 75 84  2  0
 75 80  1  0
 76 72  1  0
 76 80  1  0
 77 76  1  0
 78 79  1  0
 78 77  1  0
 79 75  1  0
 80 81  2  0
 81 82  1  0
 83 82  2  0
 84 83  1  0
 85 59  1  0
 85 90  1  0
 86 85  1  0
 86 89  1  1
 86 87  1  0
 88 86  1  0
 90 91  1  0
 90 93  1  0
 91 95  1  0
 92 91  2  0
 95 94  1  0
 95 97  1  0
 97 96  1  0
 97 98  1  0
M  ISO  4  13 100  21 100  57 101  58 101
M  END
>  <TORSDO>  (80) 
F 26

>  <SCORE>  (80) 
-7.984

>  <name>  (80) 
86

>  <ligand_id>  (80) 
86

>  <original_smiles>  (80) 
[H]c1c([H])c([H])c2c(c1[H])C([H])([H])C([H])([H])C([H])([H])C2([H])N([H])C(=O)C1([H])N(C(=O)C([H])(N([H])C(=O)C([H])(N([H])C([H])([H])[H])C([H])([H])[H])C(C([H])([H])[H])(C([H])([H])[H])C([H])([H])[H])C([H])([H])c2c([H])c(OC([H])([H])C([H])([H])C([H])([H])OC([H])([H])C([H])([H])C([H])([H])N([H])C(=O)C([H])(N([H])C(=O)C([H])(N([H])C(=O)N3C([H])([H])C([H])([H])C([H])([H])C([H])(n4nc(-c5c([H])c([H])c(Oc6c([H])c([H])c(F)c([H])c6F)c([H])c5[H])c(C(=O)N([H])[H])c4N([H])[H])C3([H])[H])C([H])([H])[H])C([H])([H])[H])c([H])c([H])c2C1([H])[H]

>  <smiles>  (80) 
[H]c1c([H])c([H])c2c(c1[H])C([H])([H])C([H])([H])C([H])([H])C2([H])N([H])C(=O)C1([H])N(C(=O)C([H])(N([H])C(=O)C([H])(N([H])C([H])([H])[H])C([H])([H])[H])C(C([H])([H])[H])(C([H])([H])[H])C([H])([H])[H])C([H])([H])c2c([H])c(OC([H])([H])C([H])([H])C([H])([H])OC([H])([H])C([H])([H])C([H])([H])N([H])C(=O)C([H])(N([H])C(=O)C([H])(N([H])C(=O)N3C([H])([H])C([H])([H])C([H])([H])C([H])(n4nc(-c5c([H])c([H])c(Oc6c([H])c([H])c(F)c([H])c6F)c([H])c5[H])c(C(=O)N([H])[H])c4N([H])[H])C3([H])[H])C([H])([H])[H])C([H])([H])[H])c([H])c([H])c2C1([H])[H]

$$$$
87:0:0
     RDKit          3D

103110  0  0  1  0  0  0  0  0999 V2000
  -23.8820  -19.7940   18.9570 N   0  0  0  0  0  4  0  0  0  0  0  0
  -23.9390  -20.1460   18.0130 H   0  0  0  0  0  0  0  0  0  0  0  0
  -22.9650  -19.4150   19.1170 H   0  0  0  0  0  0  0  0  0  0  0  0
  -24.6610  -17.6930   17.8910 C   0  0  0  0  0  1  0  0  0  0  0  0
  -24.8800  -18.7060   19.0270 C   0  0  0  0  0  3  0  0  0  0  0  0
  -26.2740  -19.3270   18.9200 C   0  0  0  0  0  0  0  0  0  0  0  0
  -27.3300  -18.5620   19.2210 N   0  0  0  0  0  0  0  0  0  0  0  0
  -26.3800  -20.5160   18.6050 O   0  0  0  0  0  0  0  0  0  0  0  0
  -27.1650  -17.5940   19.4760 H   0  0  0  0  0  0  0  0  0  0  0  0
  -28.6950  -19.0730   19.3290 C   0  0  0  0  0  2  0  0  0  0  0  0
  -29.2660  -18.7930   20.7330 C   0  0  0  0  0  2  0  0  0  0  0  0
  -29.8180  -17.3600   20.8580 C   0  0  0  0  0  2  0  0  0  0  0  0
  -30.2900  -16.9750   22.2720 C   0  0  0  0  0  2  0  0  0  0  0  0
  -31.3080  -15.8120   22.3340 C   0  0  0  0  0  2  0  0  0  0  0  0
  -31.3420  -13.8390   20.7970 C   0  0  0  0  0  0  0  0  0  0  0  0
  -30.7140  -12.5170   18.8280 C   0  0  0  0  0  2  0  0  0  0  0  0
  -29.7690  -13.3740   17.9590 C   0  0  0  0  0  2  0  0  0  0  0  0
  -28.3060  -13.2210   18.4250 C   0  0  0  0  0  2  0  0  0  0  0  0
  -28.1410  -13.3980   19.9580 C   0  0  0  0  0  3  0  0  0  0  0  0
  -29.1820  -12.5420   20.7130 C   0  0  0  0  0  2  0  0  0  0  0  0
  -30.5190  -12.9250   20.2260 N   0  0  0  0  0  0  0  0  0  0  0  0
  -32.4560  -14.1220   20.3430 O   0  0  0  0  0  0  0  0  0  0  0  0
  -30.7900  -14.5490   21.7940 N   0  0  0  0  0  0  0  0  0  0  0  0
  -29.8880  -14.2340   22.1240 H   0  0  0  0  0  0  0  0  0  0  0  0
  -25.7120  -13.9750   20.5930 C   0  0  0  0  0  0  0  0  0  0  0  0
  -24.6440  -13.1830   20.9300 C   0  0  0  0  0  0  0  0  0  0  0  0
  -25.1310  -11.8420   20.9100 C   0  0  0  0  0  0  0  0  0  0  0  0
  -26.7780  -13.1100   20.3910 N   0  0  0  0  0  0  0  0  0  0  0  0
  -26.4280  -11.8230   20.6380 N   0  0  0  0  0  0  0  0  0  0  0  0
  -24.4250  -10.5650   21.0810 C   0  0  0  0  0  0  0  0  0  0  0  0
  -24.8330   -9.6200   22.0480 C   0  0  0  0  0  3  0  0  0  0  0  0
  -24.1280   -8.4070   22.2040 C   0  0  0  0  0  3  0  0  0  0  0  0
  -23.0020   -8.1300   21.3930 C   0  0  0  0  0  0  0  0  0  0  0  0
  -22.6150   -9.0660   20.4150 C   0  0  0  0  0  3  0  0  0  0  0  0
  -23.3210  -10.2700   20.2580 C   0  0  0  0  0  3  0  0  0  0  0  0
  -22.2750   -6.9660   21.4530 O   0  0  0  0  0  0  0  0  0  0  0  0
  -22.0130   -6.3430   22.6470 C   0  0  0  0  0  0  0  0  0  0  0  0
  -21.4210   -7.0260   23.7310 C   0  0  0  0  0  3  0  0  0  0  0  0
  -21.1060   -6.3280   24.9140 C   0  0  0  0  0  3  0  0  0  0  0  0
  -21.3740   -4.9510   25.0130 C   0  0  0  0  0  0  0  0  0  0  0  0
  -21.9600   -4.2680   23.9330 C   0  0  0  0  0  3  0  0  0  0  0  0
  -22.2760   -4.9620   22.7520 C   0  0  0  0  0  0  0  0  0  0  0  0
  -22.8200   -4.2950   21.7060 F   0  0  0  0  0  0  0  0  0  0  0  0
  -21.0650   -4.2800   26.1470 F   0  0  0  0  0  0  0  0  0  0  0  0
  -23.2350  -13.6390   21.1710 C   0  0  0  0  0  0  0  0  0  0  0  0
  -22.5090  -12.9510   22.0490 N   0  0  0  0  0  0  0  0  0  0  0  0
  -22.7850  -14.6400   20.6200 O   0  0  0  0  0  0  0  0  0  0  0  0
  -22.8860  -12.1410   22.5170 H   0  0  0  0  0  0  0  0  0  0  0  0
  -21.5640  -13.2420   22.2560 H   0  0  0  0  0  0  0  0  0  0  0  0
  -25.8620  -15.3500   20.4380 N   0  0  0  0  0  0  0  0  0  0  0  0
  -25.1490  -15.9320   20.8600 H   0  0  0  0  0  0  0  0  0  0  0  0
  -26.7890  -15.7450   20.5240 H   0  0  0  0  0  0  0  0  0  0  0  0
  -24.1050  -20.9110   19.9000 C   0  0  0  0  0  2  0  0  0  0  0  0
  -23.5940  -22.2460   19.3270 C   0  0  0  0  0  2  0  0  0  0  0  0
  -24.5890  -22.9100   18.4810 N   0  0  0  0  0  0  0  0  0  0  0  0
  -24.6130  -22.5130   17.5410 H   0  0  0  0  0  0  0  0  0  0  0  0
  -24.3600  -24.3530   18.3580 C   0  0  0  0  0  2  0  0  0  0  0  0
  -25.6270  -25.1250   18.7250 C   0  0  0  0  0  2  0  0  0  0  0  0
  -26.0230  -24.7050   20.0280 O   0  0  0  0  0  0  0  0  0  0  0  0
  -27.0260  -25.5290   20.5940 C   0  0  0  0  0  2  0  0  0  0  0  0
  -28.3920  -25.3490   19.9010 C   0  0  0  0  0  2  0  0  0  0  0  0
  -29.2990  -26.5820   20.0980 C   0  0  0  0  0  2  0  0  0  0  0  0
  -28.9660  -27.6460   19.2140 O   0  0  0  0  0  0  0  0  0  0  0  0
  -24.6810  -31.4640   23.4450 C   0  0  0  0  0  0  0  0  0  0  0  0
  -27.7390  -28.2150   19.4220 C   0  0  0  0  0  0  0  0  0  0  0  0
  -23.6120  -30.4170   21.4750 C   0  0  0  0  0  3  0  0  0  0  0  0
  -25.2060  -29.3960   19.7640 C   0  0  0  0  0  0  0  0  0  0  0  0
  -26.0920  -31.0330   21.4380 C   0  0  0  0  0  2  0  0  0  0  0  0
  -26.3060  -29.8710   20.4930 C   0  0  0  0  0  0  0  0  0  0  0  0
  -27.5740  -29.2770   20.3340 C   0  0  0  0  0  3  0  0  0  0  0  0
  -26.6340  -27.7570   18.6800 C   0  0  0  0  0  3  0  0  0  0  0  0
  -25.3580  -28.3210   18.8700 C   0  0  0  0  0  3  0  0  0  0  0  0
  -23.8910  -30.1140   19.9800 C   0  0  0  0  0  2  0  0  0  0  0  0
  -24.8120  -30.9700   22.1810 N   0  0  0  0  0  0  0  0  0  0  0  0
  -23.5790  -31.4990   24.0090 O   0  0  0  0  0  0  0  0  0  0  0  0
  -23.0550  -29.1350   22.1300 C   0  0  0  0  0  0  0  0  0  0  0  0
  -21.7610  -28.8540   21.8970 N   0  0  0  0  0  0  0  0  0  0  0  0
  -23.7850  -28.4050   22.8070 O   0  0  0  0  0  0  0  0  0  0  0  0
  -21.2300  -29.4910   21.3150 H   0  0  0  0  0  0  0  0  0  0  0  0
  -18.5220  -27.2710   21.9860 C   0  0  0  0  0  0  0  0  0  0  0  0
  -21.0390  -27.6860   22.3980 C   0  0  0  0  0  3  0  0  0  0  0  0
  -21.2850  -26.4560   21.4910 C   0  0  0  0  0  2  0  0  0  0  0  0
  -20.2240  -26.2960   20.3980 C   0  0  0  0  0  2  0  0  0  0  0  0
  -18.8400  -26.1360   21.0270 C   0  0  0  0  0  2  0  0  0  0  0  0
  -19.5570  -28.0010   22.6280 C   0  0  0  0  0  0  0  0  0  0  0  0
  -19.2110  -29.0540   23.5020 C   0  0  0  0  0  3  0  0  0  0  0  0
  -17.8620  -29.3790   23.7370 C   0  0  0  0  0  3  0  0  0  0  0  0
  -16.8440  -28.6500   23.1020 C   0  0  0  0  0  3  0  0  0  0  0  0
  -17.1730  -27.5930   22.2330 C   0  0  0  0  0  3  0  0  0  0  0  0
  -25.9050  -32.0350   24.2310 C   0  0  0  0  0  3  0  0  0  0  0  0
  -26.2250  -31.2320   25.5480 C   0  0  1  0  0  0  0  0  0  0  0  0
  -25.0010  -31.0420   26.4730 C   0  0  0  0  0  1  0  0  0  0  0  0
  -26.7910  -29.8320   25.2140 C   0  0  0  0  0  1  0  0  0  0  0  0
  -27.3140  -31.9680   26.3590 C   0  0  0  0  0  1  0  0  0  0  0  0
  -25.6160  -33.4430   24.5320 N   0  0  0  0  0  0  0  0  0  0  0  0
  -26.1210  -34.4840   23.8570 C   0  0  0  0  0  0  0  0  0  0  0  0
  -26.9540  -34.3610   22.9560 O   0  0  0  0  0  0  0  0  0  0  0  0
  -24.9070  -33.6170   25.2290 H   0  0  0  0  0  0  0  0  0  0  0  0
  -24.6190  -36.3920   23.2070 C   0  0  0  0  0  1  0  0  0  0  0  0
  -25.6280  -35.8900   24.2510 C   0  0  0  0  0  3  0  0  0  0  0  0
  -27.5790  -36.6170   25.5490 C   0  0  0  0  0  1  0  0  0  0  0  0
  -26.7190  -36.8750   24.3990 N   0  0  0  0  0  0  0  0  0  0  0  0
  -26.3450  -37.8150   24.4820 H   0  0  0  0  0  0  0  0  0  0  0  0
  1  5  1  0
  1  3  1  0
  1 53  1  0
  2  1  1  0
  5  4  1  0
  6  5  1  0
  6  7  1  0
  7 10  1  0
  7  9  1  0
  8  6  2  0
 10 11  1  0
 11 12  1  0
 12 13  1  0
 13 14  1  0
 15 23  1  0
 16 21  1  0
 17 18  1  0
 17 16  1  0
 19 18  1  0
 19 28  1  0
 19 20  1  0
 21 20  1  0
 21 15  1  0
 22 15  2  0
 23 24  1  0
 23 14  1  0
 25 26  2  0
 26 45  1  0
 27 26  1  0
 27 30  1  0
 28 25  1  0
 28 29  1  0
 29 27  2  0
 30 31  1  0
 31 32  2  0
 33 36  1  0
 33 32  1  0
 34 33  2  0
 35 34  1  0
 35 30  2  0
 36 37  1  0
 37 42  2  0
 37 38  1  0
 38 39  2  0
 39 40  1  0
 40 44  1  0
 41 40  2  0
 42 41  1  0
 43 42  1  0
 45 46  1  0
 46 49  1  0
 46 48  1  0
 47 45  2  0
 50 52  1  0
 50 25  1  0
 50 51  1  0
 54 53  1  0
 55 54  1  0
 56 55  1  0
 57 55  1  0
 57 58  1  0
 58 59  1  0
 59 60  1  0
 61 62  1  0
 61 60  1  0
 63 65  1  0
 63 62  1  0
 64 75  2  0
 65 70  1  0
 66 76  1  0
 66 74  1  0
 67 73  1  0
 67 69  1  0
 68 74  1  0
 69 68  1  0
 70 69  2  0
 71 72  1  0
 71 65  2  0
 72 67  2  0
 73 66  1  0
 74 64  1  0
 76 78  2  0
 77 76  1  0
 79 77  1  0
 80 89  2  0
 80 85  1  0
 81 77  1  0
 81 85  1  0
 82 81  1  0
 83 84  1  0
 83 82  1  0
 84 80  1  0
 85 86  2  0
 86 87  1  0
 88 87  2  0
 89 88  1  0
 90 64  1  0
 90 95  1  0
 90 91  1  0
 91 94  1  1
 91 92  1  0
 93 91  1  0
 95 98  1  0
 96100  1  0
 96 95  1  0
 97 96  2  0
100 99  1  0
100102  1  0
102103  1  0
102101  1  0
M  ISO  4  15 100  23 100  62 101  63 101
M  END
>  <TORSDO>  (81) 
F 32

>  <SCORE>  (81) 
-0.880

>  <name>  (81) 
87

>  <ligand_id>  (81) 
87

>  <original_smiles>  (81) 
[H]c1c([H])c([H])c2c(c1[H])C([H])([H])C([H])([H])C([H])([H])C2([H])N([H])C(=O)C1([H])N(C(=O)C([H])(N([H])C(=O)C([H])(N([H])C([H])([H])[H])C([H])([H])[H])C(C([H])([H])[H])(C([H])([H])[H])C([H])([H])[H])C([H])([H])c2c([H])c(OC([H])([H])C([H])([H])C([H])([H])OC([H])([H])C([H])([H])N([H])C([H])([H])C([H])([H])[N+]([H])([H])C([H])(C(=O)N([H])C([H])([H])C([H])([H])C([H])([H])C([H])([H])C([H])([H])N([H])C(=O)N3C([H])([H])C([H])([H])C([H])([H])C([H])(n4nc(-c5c([H])c([H])c(Oc6c([H])c([H])c(F)c([H])c6F)c([H])c5[H])c(C(=O)N([H])[H])c4N([H])[H])C3([H])[H])C([H])([H])[H])c([H])c([H])c2C1([H])[H]

>  <smiles>  (81) 
[H]c1c([H])c([H])c2c(c1[H])C([H])([H])C([H])([H])C([H])([H])C2([H])N([H])C(=O)C1([H])N(C(=O)C([H])(N([H])C(=O)C([H])(N([H])C([H])([H])[H])C([H])([H])[H])C(C([H])([H])[H])(C([H])([H])[H])C([H])([H])[H])C([H])([H])c2c([H])c(OC([H])([H])C([H])([H])C([H])([H])OC([H])([H])C([H])([H])N([H])C([H])([H])C([H])([H])[N+]([H])([H])C([H])(C(=O)N([H])C([H])([H])C([H])([H])C([H])([H])C([H])([H])C([H])([H])N([H])C(=O)N3C([H])([H])C([H])([H])C([H])([H])C([H])(n4nc(-c5c([H])c([H])c(Oc6c([H])c([H])c(F)c([H])c6F)c([H])c5[H])c(C(=O)N([H])[H])c4N([H])[H])C3([H])[H])C([H])([H])[H])c([H])c([H])c2C1([H])[H]

$$$$
88:0:0
     RDKit          3D

105113  0  0  1  0  0  0  0  0999 V2000
  -27.7970  -19.0910   20.0680 C   0  0  0  0  0  3  0  0  0  0  0  0
  -28.9730  -18.1430   20.4650 C   0  0  0  0  0  0  0  0  0  0  0  0
  -30.7770  -20.6230   22.7800 C   0  0  0  0  0  2  0  0  0  0  0  0
  -32.0490  -19.8080   23.0690 C   0  0  0  0  0  2  0  0  0  0  0  0
  -30.6860  -21.1240   21.3290 C   0  0  0  0  0  2  0  0  0  0  0  0
  -32.4520  -18.7950   21.9710 C   0  0  0  0  0  2  0  0  0  0  0  0
  -30.5940  -20.0080   20.2570 C   0  0  0  0  0  2  0  0  0  0  0  0
  -31.3070  -17.8640   21.4190 C   0  0  1  0  0  0  0  0  0  0  0  0
  -30.7860  -17.0790   22.6640 C   0  0  0  0  0  1  0  0  0  0  0  0
  -30.2020  -18.6660   20.7710 N   0  0  0  0  0  0  0  0  0  0  0  0
  -28.7770  -16.9260   20.4250 O   0  0  0  0  0  0  0  0  0  0  0  0
  -32.1050  -14.5060   19.8150 C   0  0  0  0  0  0  0  0  0  0  0  0
  -31.7820  -12.1210   19.2190 C   0  0  0  0  0  2  0  0  0  0  0  0
  -30.7960  -11.9380   18.0460 C   0  0  0  0  0  2  0  0  0  0  0  0
  -29.3410  -11.8980   18.5420 C   0  0  0  0  0  2  0  0  0  0  0  0
  -29.0180  -13.0510   19.5300 C   0  0  0  0  0  3  0  0  0  0  0  0
  -30.0990  -13.1890   20.6190 C   0  0  0  0  0  2  0  0  0  0  0  0
  -31.4100  -13.3400   19.9620 N   0  0  0  0  0  0  0  0  0  0  0  0
  -33.1610  -14.5480   19.1780 O   0  0  0  0  0  0  0  0  0  0  0  0
  -31.9570  -16.8780   20.3930 C   0  0  0  0  0  0  0  0  0  0  0  0
  -31.5420  -15.5910   20.4000 N   0  0  0  0  0  0  0  0  0  0  0  0
  -32.8290  -17.3170   19.6340 O   0  0  0  0  0  0  0  0  0  0  0  0
  -30.7190  -15.4220   20.9560 H   0  0  0  0  0  0  0  0  0  0  0  0
  -26.7940  -13.8560   20.5320 C   0  0  0  0  0  0  0  0  0  0  0  0
  -25.6720  -13.1820   20.9300 C   0  0  0  0  0  0  0  0  0  0  0  0
  -25.9540  -11.7960   20.7340 C   0  0  0  0  0  0  0  0  0  0  0  0
  -27.6930  -12.8870   20.1200 N   0  0  0  0  0  0  0  0  0  0  0  0
  -27.1980  -11.6350   20.3010 N   0  0  0  0  0  0  0  0  0  0  0  0
  -25.0880  -10.6220   20.8850 C   0  0  0  0  0  0  0  0  0  0  0  0
  -25.3700   -9.6110   21.8300 C   0  0  0  0  0  3  0  0  0  0  0  0
  -24.5090   -8.4990   21.9650 C   0  0  0  0  0  3  0  0  0  0  0  0
  -23.3510   -8.3940   21.1630 C   0  0  0  0  0  0  0  0  0  0  0  0
  -23.0890   -9.3910   20.2060 C   0  0  0  0  0  3  0  0  0  0  0  0
  -23.9480  -10.4930   20.0660 C   0  0  0  0  0  3  0  0  0  0  0  0
  -22.4730   -7.3350   21.2150 O   0  0  0  0  0  0  0  0  0  0  0  0
  -22.1090   -6.7550   22.4020 C   0  0  0  0  0  0  0  0  0  0  0  0
  -21.5060   -7.4970   23.4410 C   0  0  0  0  0  3  0  0  0  0  0  0
  -21.0740   -6.8470   24.6150 C   0  0  0  0  0  3  0  0  0  0  0  0
  -21.2400   -5.4560   24.7520 C   0  0  0  0  0  0  0  0  0  0  0  0
  -21.8410   -4.7130   23.7210 C   0  0  0  0  0  3  0  0  0  0  0  0
  -22.2680   -5.3580   22.5480 C   0  0  0  0  0  0  0  0  0  0  0  0
  -22.8230   -4.6340   21.5470 F   0  0  0  0  0  0  0  0  0  0  0  0
  -20.8260   -4.8340   25.8800 F   0  0  0  0  0  0  0  0  0  0  0  0
  -24.3760  -13.7880   21.3860 C   0  0  0  0  0  0  0  0  0  0  0  0
  -23.6740  -13.1310   22.3050 N   0  0  0  0  0  0  0  0  0  0  0  0
  -24.0030  -14.8820   20.9610 O   0  0  0  0  0  0  0  0  0  0  0  0
  -23.9900  -12.2450   22.6710 H   0  0  0  0  0  0  0  0  0  0  0  0
  -22.8150  -13.5260   22.6640 H   0  0  0  0  0  0  0  0  0  0  0  0
  -27.1160  -15.2060   20.4740 N   0  0  0  0  0  0  0  0  0  0  0  0
  -26.4400  -15.9140   20.7450 H   0  0  0  0  0  0  0  0  0  0  0  0
  -28.0540  -15.5810   20.3780 H   0  0  0  0  0  0  0  0  0  0  0  0
  -28.2400  -19.9730   18.9680 N   0  0  0  0  0  4  0  0  0  0  0  0
  -29.2380  -19.8670   18.9020 H   0  0  0  0  0  0  0  0  0  0  0  0
  -27.8510  -19.6400   18.1000 H   0  0  0  0  0  0  0  0  0  0  0  0
  -27.9290  -21.4090   19.1470 C   0  0  0  0  0  2  0  0  0  0  0  0
  -29.0820  -22.2870   18.6540 C   0  0  0  0  0  2  0  0  0  0  0  0
  -28.9840  -23.4980   19.3830 O   0  0  0  0  0  0  0  0  0  0  0  0
  -30.1950  -24.2310   19.4600 C   0  0  0  0  0  2  0  0  0  0  0  0
  -30.0900  -25.1700   20.6670 C   0  0  0  0  0  2  0  0  0  0  0  0
  -29.9940  -26.5140   20.2540 O   0  0  0  0  0  0  0  0  0  0  0  0
  -25.7240  -30.6860   24.0640 C   0  0  0  0  0  0  0  0  0  0  0  0
  -28.7630  -27.0980   20.3580 C   0  0  0  0  0  0  0  0  0  0  0  0
  -24.7030  -29.6850   22.0350 C   0  0  0  0  0  3  0  0  0  0  0  0
  -26.3190  -28.4890   20.4680 C   0  0  0  0  0  0  0  0  0  0  0  0
  -27.2190  -30.0980   22.1630 C   0  0  0  0  0  2  0  0  0  0  0  0
  -27.3980  -28.9010   21.2630 C   0  0  0  0  0  0  0  0  0  0  0  0
  -28.6210  -28.2100   21.2050 C   0  0  0  0  0  3  0  0  0  0  0  0
  -27.6720  -26.6710   19.5760 C   0  0  0  0  0  3  0  0  0  0  0  0
  -26.4470  -27.3680   19.6290 C   0  0  0  0  0  3  0  0  0  0  0  0
  -25.0530  -29.3090   20.5690 C   0  0  0  0  0  2  0  0  0  0  0  0
  -25.8930  -30.1570   22.8170 N   0  0  0  0  0  0  0  0  0  0  0  0
  -24.5920  -30.8340   24.5460 O   0  0  0  0  0  0  0  0  0  0  0  0
  -23.9880  -28.4810   22.6870 C   0  0  0  0  0  0  0  0  0  0  0  0
  -22.7350  -28.2350   22.2740 N   0  0  0  0  0  0  0  0  0  0  0  0
  -24.5660  -27.7720   23.5170 O   0  0  0  0  0  0  0  0  0  0  0  0
  -22.3270  -28.8780   21.6100 H   0  0  0  0  0  0  0  0  0  0  0  0
  -19.5300  -26.6570   21.7470 C   0  0  0  0  0  0  0  0  0  0  0  0
  -21.8850  -27.1260   22.7050 C   0  0  0  0  0  3  0  0  0  0  0  0
  -22.3070  -25.8010   22.0270 C   0  0  0  0  0  2  0  0  0  0  0  0
  -21.5450  -25.5220   20.7280 C   0  0  0  0  0  2  0  0  0  0  0  0
  -20.0400  -25.4390   20.9920 C   0  0  0  0  0  2  0  0  0  0  0  0
  -20.4010  -27.4610   22.5330 C   0  0  0  0  0  0  0  0  0  0  0  0
  -19.8820  -28.6150   23.1670 C   0  0  0  0  0  3  0  0  0  0  0  0
  -18.5250  -28.9620   23.0270 C   0  0  0  0  0  3  0  0  0  0  0  0
  -17.6650  -28.1480   22.2670 C   0  0  0  0  0  3  0  0  0  0  0  0
  -18.1690  -27.0020   21.6330 C   0  0  0  0  0  3  0  0  0  0  0  0
  -26.9370  -31.1570   24.9280 C   0  0  0  0  0  3  0  0  0  0  0  0
  -27.2010  -30.2370   26.1830 C   0  0  1  0  0  0  0  0  0  0  0  0
  -25.9410  -29.9810   27.0390 C   0  0  0  0  0  1  0  0  0  0  0  0
  -27.7690  -28.8680   25.7420 C   0  0  0  0  0  1  0  0  0  0  0  0
  -28.2660  -30.8860   27.0990 C   0  0  0  0  0  1  0  0  0  0  0  0
  -26.6680  -32.5390   25.3460 N   0  0  0  0  0  0  0  0  0  0  0  0
  -27.1980  -33.6260   24.7670 C   0  0  0  0  0  0  0  0  0  0  0  0
  -28.0360  -33.5630   23.8620 O   0  0  0  0  0  0  0  0  0  0  0  0
  -25.9540  -32.6670   26.0450 H   0  0  0  0  0  0  0  0  0  0  0  0
  -25.7010  -35.5910   24.2950 C   0  0  0  0  0  1  0  0  0  0  0  0
  -26.7270  -34.9980   25.2740 C   0  0  0  0  0  3  0  0  0  0  0  0
  -28.7120  -35.6130   26.5810 C   0  0  0  0  0  1  0  0  0  0  0  0
  -27.8300  -35.9630   25.4710 N   0  0  0  0  0  0  0  0  0  0  0  0
  -27.4660  -36.8990   25.6320 H   0  0  0  0  0  0  0  0  0  0  0  0
  -26.2150  -17.8380   18.3570 C   0  0  0  0  0  1  0  0  0  0  0  0
  -26.3900  -18.4840   19.7400 C   0  0  0  0  0  3  0  0  0  0  0  0
  -25.9060  -17.5730   20.7680 N   0  0  0  0  0  0  0  0  0  0  0  0
  -26.2890  -16.6460   20.6100 H   0  0  0  0  0  0  0  0  0  0  0  0
  -24.9060  -17.4470   20.6500 H   0  0  0  0  0  0  0  0  0  0  0  0
  1  2  1  0
  2 10  1  0
  3  4  1  0
  5  3  1  0
  6  4  1  0
  7 10  1  0
  7  5  1  0
  8  6  1  0
  8  9  1  1
 10  8  1  0
 11  2  2  0
 12 18  1  0
 12 21  1  0
 13 18  1  0
 14 15  1  0
 14 13  1  0
 16 15  1  0
 16 27  1  0
 16 17  1  0
 18 17  1  0
 19 12  2  0
 20 21  1  0
 20  8  1  0
 21 23  1  0
 22 20  2  0
 24 25  2  0
 25 44  1  0
 26 29  1  0
 26 25  1  0
 27 28  1  0
 27 24  1  0
 28 26  2  0
 29 30  1  0
 30 31  2  0
 32 35  1  0
 32 31  1  0
 33 32  2  0
 34 33  1  0
 34 29  2  0
 35 36  1  0
 36 41  2  0
 36 37  1  0
 37 38  2  0
 38 39  1  0
 39 43  1  0
 40 39  2  0
 41 40  1  0
 42 41  1  0
 44 45  1  0
 45 48  1  0
 45 47  1  0
 46 44  2  0
 49 24  1  0
 49 50  1  0
 51 49  1  0
 52 55  1  0
 52  1  1  0
 53 52  1  0
 54 52  1  0
 56 55  1  0
 56 57  1  0
 57 58  1  0
 58 59  1  0
 60 62  1  0
 60 59  1  0
 61 72  2  0
 62 67  1  0
 63 73  1  0
 63 71  1  0
 64 70  1  0
 64 66  1  0
 65 71  1  0
 66 65  1  0
 67 66  2  0
 68 69  1  0
 68 62  2  0
 69 64  2  0
 70 63  1  0
 71 61  1  0
 73 75  2  0
 74 73  1  0
 76 74  1  0
 77 82  1  0
 78 74  1  0
 79 78  1  0
 80 81  1  0
 80 79  1  0
 81 77  1  0
 82 78  1  0
 82 83  2  0
 84 83  1  0
 85 84  2  0
 86 77  2  0
 86 85  1  0
 87 61  1  0
 87 92  1  0
 87 88  1  0
 88 89  1  1
 88 91  1  0
 90 88  1  0
 92 95  1  0
 93 97  1  0
 93 92  1  0
 94 93  2  0
 97 96  1  0
 97 99  1  0
 99100  1  0
 99 98  1  0
102101  1  0
102  1  1  0
102103  1  0
104103  1  0
105103  1  0
M  ISO  4  12 100  21 100  59 101  60 101
M  END
>  <TORSDO>  (82) 
F 25

>  <SCORE>  (82) 
-7.912

>  <name>  (82) 
88

>  <ligand_id>  (82) 
88

>  <original_smiles>  (82) 
[H]c1c([H])c([H])c2c(c1[H])C([H])([H])C([H])([H])C([H])([H])C2([H])N([H])C(=O)C1([H])N(C(=O)C([H])(N([H])C(=O)C([H])(N([H])C([H])([H])[H])C([H])([H])[H])C(C([H])([H])[H])(C([H])([H])[H])C([H])([H])[H])C([H])([H])c2c([H])c(OC([H])([H])C([H])([H])OC([H])([H])C([H])([H])[N+]([H])([H])C([H])(C(=O)N3C([H])([H])C([H])([H])C([H])([H])C([H])([H])C([H])([H])C3(C(=O)N([H])C(=O)N3C([H])([H])C([H])([H])C([H])([H])C([H])(n4nc(-c5c([H])c([H])c(Oc6c([H])c([H])c(F)c([H])c6F)c([H])c5[H])c(C(=O)N([H])[H])c4N([H])[H])C3([H])[H])C([H])([H])[H])C([H])(N([H])[H])C([H])([H])[H])c([H])c([H])c2C1([H])[H]

>  <smiles>  (82) 
[H]c1c([H])c([H])c2c(c1[H])C([H])([H])C([H])([H])C([H])([H])C2([H])N([H])C(=O)C1([H])N(C(=O)C([H])(N([H])C(=O)C([H])(N([H])C([H])([H])[H])C([H])([H])[H])C(C([H])([H])[H])(C([H])([H])[H])C([H])([H])[H])C([H])([H])c2c([H])c(OC([H])([H])C([H])([H])OC([H])([H])C([H])([H])[N+]([H])([H])C([H])(C(=O)N3C([H])([H])C([H])([H])C([H])([H])C([H])([H])C([H])([H])C3(C(=O)N([H])C(=O)N3C([H])([H])C([H])([H])C([H])([H])C([H])(n4nc(-c5c([H])c([H])c(Oc6c([H])c([H])c(F)c([H])c6F)c([H])c5[H])c(C(=O)N([H])[H])c4N([H])[H])C3([H])[H])C([H])([H])[H])C([H])(N([H])[H])C([H])([H])[H])c([H])c([H])c2C1([H])[H]

$$$$
89:0:0
     RDKit          3D

104112  0  0  1  0  0  0  0  0999 V2000
  -25.0140  -17.1590   18.5010 C   0  0  0  0  0  0  0  0  0  0  0  0
  -24.5620  -16.2800   19.4600 N   0  0  0  0  0  4  0  0  0  0  0  0
  -24.6810  -17.0210   17.3190 O   0  0  0  0  0  0  0  0  0  0  0  0
  -24.9540  -16.3730   20.3930 H   0  0  0  0  0  0  0  0  0  0  0  0
  -26.0450  -18.3180   18.8300 C   0  0  0  0  0  3  0  0  0  0  0  0
  -26.1390  -19.4520   17.8380 N   0  0  0  0  0  4  0  0  0  0  0  0
  -26.3180  -19.0570   16.9280 H   0  0  0  0  0  0  0  0  0  0  0  0
  -25.2370  -19.8790   17.7440 H   0  0  0  0  0  0  0  0  0  0  0  0
  -27.2010  -20.4820   18.1840 C   0  0  0  0  0  2  0  0  0  0  0  0
  -26.9340  -21.9890   17.8610 C   0  0  0  0  0  2  0  0  0  0  0  0
  -27.5290  -22.7420   18.9460 O   0  0  0  0  0  0  0  0  0  0  0  0
  -28.0380  -24.0610   18.7090 C   0  0  0  0  0  2  0  0  0  0  0  0
  -28.1830  -24.8590   20.0660 C   0  0  0  0  0  2  0  0  0  0  0  0
  -28.2930  -26.3170   20.0780 O   0  0  0  0  0  0  0  0  0  0  0  0
  -24.4430  -31.6080   23.1580 C   0  0  0  0  0  0  0  0  0  0  0  0
  -27.1180  -27.0490   20.1560 C   0  0  0  0  0  0  0  0  0  0  0  0
  -23.2890  -30.2050   21.4990 C   0  0  0  0  0  3  0  0  0  0  0  0
  -24.7630  -28.6050   20.1550 C   0  0  0  0  0  0  0  0  0  0  0  0
  -25.8420  -30.5060   21.3690 C   0  0  0  0  0  2  0  0  0  0  0  0
  -25.9250  -29.1200   20.7390 C   0  0  0  0  0  0  0  0  0  0  0  0
  -27.1080  -28.3490   20.7200 C   0  0  0  0  0  3  0  0  0  0  0  0
  -25.9030  -26.5220   19.6570 C   0  0  0  0  0  3  0  0  0  0  0  0
  -24.7470  -27.3150   19.6050 C   0  0  0  0  0  3  0  0  0  0  0  0
  -23.5470  -29.4810   20.1460 C   0  0  0  0  0  2  0  0  0  0  0  0
  -24.5450  -30.7930   22.0640 N   0  0  0  0  0  0  0  0  0  0  0  0
  -23.3410  -31.8940   23.6610 O   0  0  0  0  0  0  0  0  0  0  0  0
  -22.5800  -29.2040   22.4500 C   0  0  0  0  0  0  0  0  0  0  0  0
  -21.2460  -29.1000   22.3270 N   0  0  0  0  0  0  0  0  0  0  0  0
  -23.2290  -28.5120   23.2380 O   0  0  0  0  0  0  0  0  0  0  0  0
  -20.8050  -29.7180   21.6610 H   0  0  0  0  0  0  0  0  0  0  0  0
  -17.7960  -28.0870   22.8380 C   0  0  0  0  0  0  0  0  0  0  0  0
  -20.3700  -28.1840   23.0730 C   0  0  0  0  0  3  0  0  0  0  0  0
  -20.3760  -26.7710   22.4420 C   0  0  0  0  0  2  0  0  0  0  0  0
  -19.2390  -26.5520   21.4400 C   0  0  0  0  0  2  0  0  0  0  0  0
  -17.8800  -26.7530   22.1160 C   0  0  0  0  0  2  0  0  0  0  0  0
  -18.9650  -28.7680   23.2710 C   0  0  0  0  0  0  0  0  0  0  0  0
  -18.8310  -30.0190   23.9120 C   0  0  0  0  0  3  0  0  0  0  0  0
  -17.5610  -30.5900   24.1170 C   0  0  0  0  0  3  0  0  0  0  0  0
  -16.4070  -29.9060   23.6980 C   0  0  0  0  0  3  0  0  0  0  0  0
  -16.5250  -28.6550   23.0680 C   0  0  0  0  0  3  0  0  0  0  0  0
  -25.7060  -32.2400   23.8210 C   0  0  0  0  0  3  0  0  0  0  0  0
  -25.3990  -33.6440   24.1340 N   0  0  0  0  0  0  0  0  0  0  0  0
  -25.7920  -34.6920   23.3960 C   0  0  0  0  0  0  0  0  0  0  0  0
  -26.5200  -34.5750   22.4070 O   0  0  0  0  0  0  0  0  0  0  0  0
  -24.7570  -33.8000   24.8960 H   0  0  0  0  0  0  0  0  0  0  0  0
  -24.1310  -36.5290   22.9290 C   0  0  0  0  0  1  0  0  0  0  0  0
  -25.3030  -36.0930   23.8230 C   0  0  0  0  0  3  0  0  0  0  0  0
  -27.3970  -36.9300   24.7990 C   0  0  0  0  0  1  0  0  0  0  0  0
  -26.3640  -37.1250   23.7870 N   0  0  0  0  0  0  0  0  0  0  0  0
  -25.9690  -38.0540   23.9080 H   0  0  0  0  0  0  0  0  0  0  0  0
  -26.1570  -31.4760   25.1270 C   0  0  1  0  0  0  0  0  0  0  0  0
  -25.0220  -31.2840   26.1620 C   0  0  0  0  0  1  0  0  0  0  0  0
  -26.7200  -30.0820   24.7670 C   0  0  0  0  0  1  0  0  0  0  0  0
  -27.3050  -32.2530   25.8110 C   0  0  0  0  0  1  0  0  0  0  0  0
  -24.7500  -19.8240   20.5350 C   0  0  0  0  0  1  0  0  0  0  0  0
  -25.9420  -18.8940   20.2650 C   0  0  0  0  0  2  0  0  0  0  0  0
  -23.8550  -14.9370   19.2750 C   0  0  0  0  0  0  0  0  0  0  0  0
  -22.3600  -15.3040   18.9560 C   0  0  0  0  0  0  0  0  0  0  0  0
  -21.7010  -14.7570   17.9310 N   0  0  0  0  0  0  0  0  0  0  0  0
  -21.8520  -16.2940   19.4630 O   0  0  0  0  0  0  0  0  0  0  0  0
  -20.8670  -15.2460   17.6110 H   0  0  0  0  0  0  0  0  0  0  0  0
  -22.0690  -14.0150   17.3470 H   0  0  0  0  0  0  0  0  0  0  0  0
  -24.5270  -13.4540   20.0110 C   0  0  0  0  0  3  0  0  0  0  0  0
  -25.9370  -13.8630   19.0450 C   0  0  0  0  0  2  0  0  0  0  0  0
  -27.5730  -14.0370   18.8410 C   0  0  0  0  0  2  0  0  0  0  0  0
  -28.7400  -14.8380   19.6870 C   0  0  0  0  0  2  0  0  0  0  0  0
  -30.4470  -13.4530   21.1790 C   0  0  0  0  0  0  0  0  0  0  0  0
  -30.4730  -11.2850   20.1370 C   0  0  0  0  0  2  0  0  0  0  0  0
  -29.5610  -11.5030   18.9350 C   0  0  0  0  0  2  0  0  0  0  0  0
  -28.1130  -11.2980   19.4210 C   0  0  0  0  0  2  0  0  0  0  0  0
  -27.8090  -12.0570   20.7810 C   0  0  0  0  0  3  0  0  0  0  0  0
  -28.7860  -11.7330   21.8450 C   0  0  0  0  0  2  0  0  0  0  0  0
  -30.0100  -12.1760   21.1980 N   0  0  0  0  0  0  0  0  0  0  0  0
  -31.6430  -13.7230   21.1800 O   0  0  0  0  0  0  0  0  0  0  0  0
  -29.5190  -14.4290   20.9410 N   0  0  0  0  0  0  0  0  0  0  0  0
  -29.8720  -15.2740   21.3700 H   0  0  0  0  0  0  0  0  0  0  0  0
  -25.1500  -13.0710   21.7230 C   0  0  1  0  0  0  0  0  0  0  0  0
  -23.6930  -12.1140   21.6090 C   0  0  0  0  0  3  0  0  0  0  0  0
  -24.1180  -10.4670   20.9810 C   0  0  0  0  0  3  0  0  0  0  0  0
  -26.5380  -11.9450   21.1140 N   0  0  0  0  0  0  0  0  0  0  0  0
  -25.7940  -10.3860   20.6620 N   0  0  0  0  0  2  0  0  0  0  0  0
  -23.5990   -9.1900   21.4530 C   0  0  0  0  0  0  0  0  0  0  0  0
  -24.1860   -8.3550   22.4670 C   0  0  0  0  0  3  0  0  0  0  0  0
  -23.6180   -7.0880   22.7390 C   0  0  0  0  0  3  0  0  0  0  0  0
  -22.4630   -6.6810   22.0110 C   0  0  0  0  0  0  0  0  0  0  0  0
  -21.9030   -7.5430   21.0650 C   0  0  0  0  0  3  0  0  0  0  0  0
  -22.4530   -8.7910   20.8020 C   0  0  0  0  0  3  0  0  0  0  0  0
  -21.8500   -5.4560   22.0810 O   0  0  0  0  0  0  0  0  0  0  0  0
  -21.7350   -4.7500   23.2400 C   0  0  0  0  0  0  0  0  0  0  0  0
  -21.1240   -5.2820   24.3920 C   0  0  0  0  0  3  0  0  0  0  0  0
  -20.9460   -4.4630   25.5290 C   0  0  0  0  0  3  0  0  0  0  0  0
  -21.3830   -3.1280   25.5070 C   0  0  0  0  0  0  0  0  0  0  0  0
  -21.9840   -2.5950   24.3580 C   0  0  0  0  0  3  0  0  0  0  0  0
  -22.1630   -3.4070   23.2200 C   0  0  0  0  0  0  0  0  0  0  0  0
  -22.7190   -2.8890   22.1040 F   0  0  0  0  0  0  0  0  0  0  0  0
  -21.2160   -2.3400   26.6040 F   0  0  0  0  0  0  0  0  0  0  0  0
  -22.3570  -12.4270   22.1160 C   0  0  0  0  0  0  0  0  0  0  0  0
  -21.7270  -11.5180   22.8460 N   0  0  0  0  0  0  0  0  0  0  0  0
  -21.8790  -13.5090   21.8730 O   0  0  0  0  0  0  0  0  0  0  0  0
  -22.1310  -10.6100   23.0150 H   0  0  0  0  0  0  0  0  0  0  0  0
  -20.8110  -11.7210   23.2180 H   0  0  0  0  0  0  0  0  0  0  0  0
  -25.4660  -14.3660   21.9470 N   0  0  0  0  0  0  0  0  0  0  0  0
  -24.9210  -15.0490   22.4660 H   0  0  0  0  0  0  0  0  0  0  0  0
  -26.4580  -14.4430   22.1490 H   0  0  0  0  0  0  0  0  0  0  0  0
  1  5  1  0
  1  2  1  0
  2  4  1  0
  3  1  2  0
  5 56  1  0
  6  9  1  0
  6  5  1  0
  7  6  1  0
  8  6  1  0
 10  9  1  0
 10 11  1  0
 12 11  1  0
 12 13  1  0
 13 14  1  0
 14 16  1  0
 15 26  2  0
 16 21  1  0
 17 25  1  0
 17 27  1  0
 18 20  1  0
 19 25  1  0
 20 19  1  0
 21 20  2  0
 22 16  2  0
 23 22  1  0
 23 18  2  0
 24 18  1  0
 24 17  1  0
 25 15  1  0
 27 29  2  0
 28 27  1  0
 30 28  1  0
 31 40  2  0
 31 36  1  0
 32 28  1  0
 32 36  1  0
 33 32  1  0
 34 35  1  0
 34 33  1  0
 35 31  1  0
 36 37  2  0
 37 38  1  0
 39 38  2  0
 40 39  1  0
 41 15  1  0
 41 42  1  0
 41 51  1  0
 42 45  1  0
 43 47  1  0
 43 42  1  0
 44 43  2  0
 47 46  1  0
 49 47  1  0
 49 50  1  0
 49 48  1  0
 51 54  1  1
 51 52  1  0
 53 51  1  0
 56 55  1  0
 57  2  2  0
 58 57  1  0
 58 60  2  0
 59 58  1  0
 61 59  1  0
 62 59  1  0
 63 57  1  0
 63 77  1  0
 64 63  1  0
 65 64  1  0
 65 66  1  0
 66 75  1  0
 67 74  2  0
 67 73  1  0
 68 73  1  0
 69 70  1  0
 69 68  1  0
 71 70  1  0
 71 80  1  0
 71 72  1  0
 73 72  1  0
 75 67  1  0
 75 76  1  0
 77102  1  1
 78 77  1  0
 78 97  1  0
 79 82  1  0
 79 78  1  0
 80 81  1  0
 80 77  1  0
 81 79  1  0
 82 83  1  0
 83 84  2  0
 85 88  1  0
 85 84  1  0
 86 85  2  0
 87 86  1  0
 87 82  2  0
 88 89  1  0
 89 90  1  0
 90 91  2  0
 92 91  1  0
 92 96  1  0
 93 92  2  0
 94 89  2  0
 94 93  1  0
 95 94  1  0
 97 98  1  0
 98100  1  0
 98101  1  0
 99 97  2  0
102104  1  0
102103  1  0
M  ISO  4  13 101  14 101  67 100  75 100
M  END
>  <TORSDO>  (83) 
F 30

>  <SCORE>  (83) 
14.086

>  <name>  (83) 
89

>  <ligand_id>  (83) 
89

>  <original_smiles>  (83) 
[H]c1c([H])c([H])c2c(c1[H])C([H])([H])C([H])([H])C([H])([H])C2([H])N([H])C(=O)C1([H])N(C(=O)C([H])(N([H])C(=O)C([H])(N([H])C([H])([H])[H])C([H])([H])[H])C(C([H])([H])[H])(C([H])([H])[H])C([H])([H])[H])C([H])([H])c2c([H])c(OC([H])([H])C([H])([H])OC([H])([H])C([H])([H])[N+]([H])([H])C([H])(C(=O)N([H])C([H])(C(=O)N([H])[H])C([H])([H])C([H])([H])C([H])([H])C([H])([H])N([H])C(=O)N3C([H])([H])C([H])([H])C([H])([H])C([H])(n4nc(-c5c([H])c([H])c(Oc6c([H])c([H])c(F)c([H])c6F)c([H])c5[H])c(C(=O)N([H])[H])c4N([H])[H])C3([H])[H])C([H])([H])C([H])([H])[H])c([H])c([H])c2C1([H])[H]

>  <smiles>  (83) 
[H]c1c([H])c([H])c2c(c1[H])C([H])([H])C([H])([H])C([H])([H])C2([H])N([H])C(=O)C1([H])N(C(=O)C([H])(N([H])C(=O)C([H])(N([H])C([H])([H])[H])C([H])([H])[H])C(C([H])([H])[H])(C([H])([H])[H])C([H])([H])[H])C([H])([H])c2c([H])c(OC([H])([H])C([H])([H])OC([H])([H])C([H])([H])[N+]([H])([H])C([H])(C(=O)N([H])C([H])(C(=O)N([H])[H])C([H])([H])C([H])([H])C([H])([H])C([H])([H])N([H])C(=O)N3C([H])([H])C([H])([H])C([H])([H])C([H])(n4nc(-c5c([H])c([H])c(Oc6c([H])c([H])c(F)c([H])c6F)c([H])c5[H])c(C(=O)N([H])[H])c4N([H])[H])C3([H])[H])C([H])([H])C([H])([H])[H])c([H])c([H])c2C1([H])[H]

$$$$
90:0:0
     RDKit          3D

108115  0  0  1  0  0  0  0  0999 V2000
  -26.0200  -17.9390   15.0200 C   0  0  0  0  0  2  0  0  0  0  0  0
  -25.4400  -19.2080   15.5130 N   0  0  0  0  0  4  0  0  0  0  0  0
  -25.8000  -19.4060   16.4370 H   0  0  0  0  0  0  0  0  0  0  0  0
  -25.7420  -19.9590   14.9110 H   0  0  0  0  0  0  0  0  0  0  0  0
  -23.9700  -19.2460   15.6550 C   0  0  0  0  0  2  0  0  0  0  0  0
  -23.5670  -20.5720   16.3070 C   0  0  0  0  0  2  0  0  0  0  0  0
  -24.4490  -20.7620   17.4130 O   0  0  0  0  0  0  0  0  0  0  0  0
  -24.4820  -22.1040   17.8730 C   0  0  0  0  0  2  0  0  0  0  0  0
  -25.4520  -22.2120   19.0580 C   0  0  0  0  0  2  0  0  0  0  0  0
  -26.8850  -21.7380   18.7420 C   0  0  0  0  0  2  0  0  0  0  0  0
  -27.8300  -21.9250   19.9430 C   0  0  0  0  0  2  0  0  0  0  0  0
  -29.2100  -21.2710   19.7720 C   0  0  0  0  0  2  0  0  0  0  0  0
  -29.0880  -19.8540   19.8260 O   0  0  0  0  0  0  0  0  0  0  0  0
  -30.3320  -19.1950   20.0480 C   0  0  0  0  0  2  0  0  0  0  0  0
  -30.0660  -17.6910   20.2070 C   0  0  0  0  0  2  0  0  0  0  0  0
  -31.3000  -16.8750   20.6370 C   0  0  0  0  0  2  0  0  0  0  0  0
  -31.5490  -14.4420   20.0620 C   0  0  0  0  0  0  0  0  0  0  0  0
  -31.0920  -12.2440   19.0420 C   0  0  0  0  0  2  0  0  0  0  0  0
  -30.1690  -12.4320   17.8190 C   0  0  0  0  0  2  0  0  0  0  0  0
  -28.6850  -12.4630   18.2390 C   0  0  0  0  0  2  0  0  0  0  0  0
  -28.4210  -13.4240   19.4290 C   0  0  0  0  0  3  0  0  0  0  0  0
  -29.4390  -13.1630   20.5620 C   0  0  0  0  0  2  0  0  0  0  0  0
  -30.7970  -13.3140   20.0040 N   0  0  0  0  0  0  0  0  0  0  0  0
  -32.6370  -14.5710   19.4920 O   0  0  0  0  0  0  0  0  0  0  0  0
  -30.9540  -15.4570   20.7030 N   0  0  0  0  0  0  0  0  0  0  0  0
  -30.0920  -15.2210   21.1710 H   0  0  0  0  0  0  0  0  0  0  0  0
  -26.1070  -14.3190   20.1260 C   0  0  0  0  0  0  0  0  0  0  0  0
  -24.9550  -13.6800   20.5010 C   0  0  0  0  0  0  0  0  0  0  0  0
  -25.2530  -12.2830   20.4760 C   0  0  0  0  0  0  0  0  0  0  0  0
  -27.0420  -13.3190   19.9040 N   0  0  0  0  0  0  0  0  0  0  0  0
  -26.5290  -12.0900   20.1680 N   0  0  0  0  0  0  0  0  0  0  0  0
  -24.3840  -11.1150   20.6720 C   0  0  0  0  0  0  0  0  0  0  0  0
  -24.6990  -10.1120   21.6160 C   0  0  0  0  0  3  0  0  0  0  0  0
  -23.8400   -9.0080   21.8010 C   0  0  0  0  0  3  0  0  0  0  0  0
  -22.6510   -8.9010   21.0420 C   0  0  0  0  0  0  0  0  0  0  0  0
  -22.3540   -9.8900   20.0870 C   0  0  0  0  0  3  0  0  0  0  0  0
  -23.2120  -10.9850   19.9010 C   0  0  0  0  0  3  0  0  0  0  0  0
  -21.7690   -7.8510   21.1340 O   0  0  0  0  0  0  0  0  0  0  0  0
  -21.6120   -7.1440   22.2980 C   0  0  0  0  0  0  0  0  0  0  0  0
  -21.2500   -7.7760   23.5100 C   0  0  0  0  0  3  0  0  0  0  0  0
  -21.0320   -7.0010   24.6680 C   0  0  0  0  0  3  0  0  0  0  0  0
  -21.1640   -5.6010   24.6150 C   0  0  0  0  0  0  0  0  0  0  0  0
  -21.5140   -4.9710   23.4070 C   0  0  0  0  0  3  0  0  0  0  0  0
  -21.7360   -5.7410   22.2530 C   0  0  0  0  0  0  0  0  0  0  0  0
  -22.0560   -5.1270   21.0880 F   0  0  0  0  0  0  0  0  0  0  0  0
  -20.9440   -4.8560   25.7250 F   0  0  0  0  0  0  0  0  0  0  0  0
  -23.6230  -14.3180   20.7750 C   0  0  0  0  0  0  0  0  0  0  0  0
  -22.8300  -13.7250   21.6600 N   0  0  0  0  0  0  0  0  0  0  0  0
  -23.3010  -15.3790   20.2410 O   0  0  0  0  0  0  0  0  0  0  0  0
  -23.1040  -12.8650   22.1140 H   0  0  0  0  0  0  0  0  0  0  0  0
  -21.9350  -14.1350   21.8870 H   0  0  0  0  0  0  0  0  0  0  0  0
  -26.4320  -15.6590   19.9430 N   0  0  0  0  0  0  0  0  0  0  0  0
  -25.7540  -16.4020   20.0700 H   0  0  0  0  0  0  0  0  0  0  0  0
  -27.3410  -15.9980   19.6580 H   0  0  0  0  0  0  0  0  0  0  0  0
  -27.4120  -17.7220   15.6280 C   0  0  0  0  0  2  0  0  0  0  0  0
  -28.2260  -18.8480   15.3140 O   0  0  0  0  0  0  0  0  0  0  0  0
  -29.4470  -18.8390   16.0460 C   0  0  0  0  0  2  0  0  0  0  0  0
  -30.3880  -19.8970   15.4580 C   0  0  0  0  0  2  0  0  0  0  0  0
  -29.7910  -21.2520   15.4940 N   0  0  0  0  0  4  0  0  0  0  0  0
  -28.9560  -21.2430   14.9260 H   0  0  0  0  0  0  0  0  0  0  0  0
  -29.5160  -21.4880   16.4370 H   0  0  0  0  0  0  0  0  0  0  0  0
  -30.6920  -22.3190   15.0050 C   0  0  0  0  0  2  0  0  0  0  0  0
  -30.0150  -23.6940   15.0340 C   0  0  0  0  0  2  0  0  0  0  0  0
  -29.6220  -23.9900   16.3720 O   0  0  0  0  0  0  0  0  0  0  0  0
  -29.2000  -25.3420   16.5040 C   0  0  0  0  0  2  0  0  0  0  0  0
  -28.7900  -25.6450   17.9520 C   0  0  0  0  0  2  0  0  0  0  0  0
  -28.5540  -27.1480   18.1600 C   0  0  0  0  0  2  0  0  0  0  0  0
  -28.1980  -27.4340   19.5110 O   0  0  0  0  0  0  0  0  0  0  0  0
  -24.5730  -32.1660   23.3830 C   0  0  0  0  0  0  0  0  0  0  0  0
  -27.0180  -28.1130   19.6830 C   0  0  0  0  0  0  0  0  0  0  0  0
  -23.2620  -30.9400   21.6780 C   0  0  0  0  0  3  0  0  0  0  0  0
  -24.6220  -29.5630   20.0160 C   0  0  0  0  0  0  0  0  0  0  0  0
  -25.7690  -31.3310   21.3670 C   0  0  0  0  0  2  0  0  0  0  0  0
  -25.8110  -30.0320   20.5890 C   0  0  0  0  0  0  0  0  0  0  0  0
  -27.0090  -29.3040   20.4370 C   0  0  0  0  0  3  0  0  0  0  0  0
  -25.8120  -27.6370   19.1240 C   0  0  0  0  0  3  0  0  0  0  0  0
  -24.6140  -28.3590   19.2900 C   0  0  0  0  0  3  0  0  0  0  0  0
  -23.3850  -30.4070   20.2250 C   0  0  0  0  0  2  0  0  0  0  0  0
  -24.5560  -31.4880   22.2000 N   0  0  0  0  0  0  0  0  0  0  0  0
  -23.5280  -32.3770   24.0140 O   0  0  0  0  0  0  0  0  0  0  0  0
  -22.6690  -29.8220   22.5640 C   0  0  0  0  0  0  0  0  0  0  0  0
  -21.3490  -29.6090   22.4490 N   0  0  0  0  0  0  0  0  0  0  0  0
  -23.3920  -29.1540   23.3070 O   0  0  0  0  0  0  0  0  0  0  0  0
  -20.8250  -30.2040   21.8230 H   0  0  0  0  0  0  0  0  0  0  0  0
  -18.0430  -28.2050   22.8350 C   0  0  0  0  0  0  0  0  0  0  0  0
  -20.5790  -28.5840   23.1540 C   0  0  0  0  0  3  0  0  0  0  0  0
  -20.7670  -27.1970   22.4970 C   0  0  0  0  0  2  0  0  0  0  0  0
  -19.6940  -26.8740   21.4530 C   0  0  0  0  0  2  0  0  0  0  0  0
  -18.3000  -26.9080   22.0870 C   0  0  0  0  0  2  0  0  0  0  0  0
  -19.1150  -29.0000   23.3230 C   0  0  0  0  0  0  0  0  0  0  0  0
  -18.8220  -30.2150   23.9810 C   0  0  0  0  0  3  0  0  0  0  0  0
  -17.4910  -30.6350   24.1570 C   0  0  0  0  0  3  0  0  0  0  0  0
  -16.4330  -29.8370   23.6870 C   0  0  0  0  0  3  0  0  0  0  0  0
  -16.7110  -28.6230   23.0320 C   0  0  0  0  0  3  0  0  0  0  0  0
  -25.8990  -32.7300   23.9850 C   0  0  0  0  0  3  0  0  0  0  0  0
  -26.4830  -31.8370   25.1470 C   0  0  1  0  0  0  0  0  0  0  0  0
  -25.4530  -31.5010   26.2510 C   0  0  0  0  0  1  0  0  0  0  0  0
  -27.0280  -30.5020   24.5880 C   0  0  0  0  0  1  0  0  0  0  0  0
  -27.6790  -32.5590   25.8140 C   0  0  0  0  0  1  0  0  0  0  0  0
  -25.6220  -34.0910   24.4620 N   0  0  0  0  0  0  0  0  0  0  0  0
  -25.9380  -35.2080   23.7940 C   0  0  0  0  0  0  0  0  0  0  0  0
  -26.5640  -35.2000   22.7310 O   0  0  0  0  0  0  0  0  0  0  0  0
  -25.0640  -34.1730   25.2990 H   0  0  0  0  0  0  0  0  0  0  0  0
  -24.2230  -37.0440   23.6800 C   0  0  0  0  0  1  0  0  0  0  0  0
  -25.4870  -36.5500   24.4020 C   0  0  0  0  0  3  0  0  0  0  0  0
  -27.6640  -37.3220   25.2310 C   0  0  0  0  0  1  0  0  0  0  0  0
  -26.5290  -37.5980   24.3550 N   0  0  0  0  0  0  0  0  0  0  0  0
  -26.1420  -38.5020   24.6120 H   0  0  0  0  0  0  0  0  0  0  0  0
  1  2  1  0
  1 55  1  0
  2  5  1  0
  2  3  1  0
  4  2  1  0
  5  6  1  0
  6  7  1  0
  7  8  1  0
  8  9  1  0
 10  9  1  0
 10 11  1  0
 12 13  1  0
 12 11  1  0
 13 14  1  0
 14 15  1  0
 15 16  1  0
 16 25  1  0
 17 25  1  0
 18 23  1  0
 19 20  1  0
 19 18  1  0
 21 20  1  0
 21 30  1  0
 21 22  1  0
 23 17  1  0
 23 22  1  0
 24 17  2  0
 25 26  1  0
 27 28  2  0
 28 47  1  0
 29 28  1  0
 29 32  1  0
 30 27  1  0
 30 31  1  0
 31 29  2  0
 32 33  1  0
 33 34  2  0
 35 38  1  0
 35 34  1  0
 36 35  2  0
 37 36  1  0
 37 32  2  0
 38 39  1  0
 39 40  1  0
 40 41  2  0
 42 41  1  0
 42 46  1  0
 43 42  2  0
 44 39  2  0
 44 43  1  0
 45 44  1  0
 47 48  1  0
 48 51  1  0
 48 50  1  0
 49 47  2  0
 52 53  1  0
 52 27  1  0
 54 52  1  0
 56 55  1  0
 56 57  1  0
 58 59  1  0
 58 57  1  0
 59 61  1  0
 60 59  1  0
 62 63  1  0
 62 59  1  0
 63 64  1  0
 64 65  1  0
 65 66  1  0
 66 67  1  0
 67 68  1  0
 68 70  1  0
 69 80  2  0
 70 75  1  0
 71 79  1  0
 71 81  1  0
 72 78  1  0
 72 74  1  0
 73 79  1  0
 74 73  1  0
 75 74  2  0
 76 77  1  0
 76 70  2  0
 77 72  2  0
 78 71  1  0
 79 69  1  0
 81 83  2  0
 82 81  1  0
 84 82  1  0
 85 94  2  0
 85 90  1  0
 86 82  1  0
 86 90  1  0
 87 86  1  0
 88 89  1  0
 88 87  1  0
 89 85  1  0
 90 91  2  0
 91 92  1  0
 93 92  2  0
 94 93  1  0
 95 69  1  0
 95100  1  0
 95 96  1  0
 96 99  1  1
 96 97  1  0
 98 96  1  0
100103  1  0
101105  1  0
101100  1  0
102101  2  0
105104  1  0
107105  1  0
107108  1  0
107106  1  0
M  ISO  4  17 100  25 100  67 101  68 101
M  END
>  <TORSDO>  (84) 
F 40

>  <SCORE>  (84) 
-3.028

>  <name>  (84) 
90

>  <ligand_id>  (84) 
90

>  <original_smiles>  (84) 
[H]c1c([H])c([H])c2c(c1[H])C([H])([H])C([H])([H])C([H])([H])C2([H])N([H])C(=O)C1([H])N(C(=O)C([H])(N([H])C(=O)C([H])(N([H])C([H])([H])[H])C([H])([H])[H])C(C([H])([H])[H])(C([H])([H])[H])C([H])([H])[H])C([H])([H])c2c([H])c(OC([H])([H])C([H])([H])C([H])([H])OC([H])([H])C([H])([H])[N+]([H])([H])C([H])([H])C([H])([H])OC([H])([H])C([H])([H])[N+]([H])([H])C([H])([H])C([H])([H])OC([H])([H])C([H])([H])C([H])([H])C([H])([H])C([H])([H])OC([H])([H])C([H])([H])C([H])([H])N([H])C(=O)N3C([H])([H])C([H])([H])C([H])([H])C([H])(n4nc(-c5c([H])c([H])c(Oc6c([H])c([H])c(F)c([H])c6F)c([H])c5[H])c(C(=O)N([H])[H])c4N([H])[H])C3([H])[H])c([H])c([H])c2C1([H])[H]

>  <smiles>  (84) 
[H]c1c([H])c([H])c2c(c1[H])C([H])([H])C([H])([H])C([H])([H])C2([H])N([H])C(=O)C1([H])N(C(=O)C([H])(N([H])C(=O)C([H])(N([H])C([H])([H])[H])C([H])([H])[H])C(C([H])([H])[H])(C([H])([H])[H])C([H])([H])[H])C([H])([H])c2c([H])c(OC([H])([H])C([H])([H])C([H])([H])OC([H])([H])C([H])([H])[N+]([H])([H])C([H])([H])C([H])([H])OC([H])([H])C([H])([H])[N+]([H])([H])C([H])([H])C([H])([H])OC([H])([H])C([H])([H])C([H])([H])C([H])([H])C([H])([H])OC([H])([H])C([H])([H])C([H])([H])N([H])C(=O)N3C([H])([H])C([H])([H])C([H])([H])C([H])(n4nc(-c5c([H])c([H])c(Oc6c([H])c([H])c(F)c([H])c6F)c([H])c5[H])c(C(=O)N([H])[H])c4N([H])[H])C3([H])[H])c([H])c([H])c2C1([H])[H]

$$$$
91:0:0
     RDKit          3D

100107  0  0  1  0  0  0  0  0999 V2000
  -30.7400  -21.3600   17.3660 C   0  0  0  0  0  0  0  0  0  0  0  0
  -30.0100  -21.5880   18.4660 N   0  0  0  0  0  0  0  0  0  0  0  0
  -30.2990  -20.7080   16.4190 O   0  0  0  0  0  0  0  0  0  0  0  0
  -30.3310  -22.2250   19.1830 H   0  0  0  0  0  0  0  0  0  0  0  0
  -32.1950  -21.8550   17.3210 C   0  0  0  0  0  2  0  0  0  0  0  0
  -34.4440  -21.8920   18.3300 C   0  0  0  0  0  1  0  0  0  0  0  0
  -33.0770  -21.3290   18.4070 N   0  0  2  0  0  4  0  0  0  0  0  0
  -32.6910  -21.6740   19.2720 H   0  0  0  0  0  0  0  0  0  0  0  0
  -33.0730  -19.8480   18.5480 C   0  0  0  0  0  2  0  0  0  0  0  0
  -32.6300  -19.4350   19.9660 C   0  0  0  0  0  2  0  0  0  0  0  0
  -31.5300  -17.2820   20.6550 C   0  0  0  0  0  0  0  0  0  0  0  0
  -31.6350  -18.3740   19.8990 N   0  0  0  0  0  0  0  0  0  0  0  0
  -32.3530  -16.9470   21.5070 O   0  0  0  0  0  0  0  0  0  0  0  0
  -30.8700  -18.5240   19.2540 H   0  0  0  0  0  0  0  0  0  0  0  0
  -29.0840  -17.1630   21.1890 C   0  0  0  0  0  1  0  0  0  0  0  0
  -30.2350  -16.4920   20.4180 C   0  0  0  0  0  3  0  0  0  0  0  0
  -30.9270  -14.1330   20.0840 C   0  0  0  0  0  0  0  0  0  0  0  0
  -30.5400  -11.9590   18.9920 C   0  0  0  0  0  2  0  0  0  0  0  0
  -29.5790  -12.1670   17.8020 C   0  0  0  0  0  2  0  0  0  0  0  0
  -28.1040  -12.1310   18.2560 C   0  0  0  0  0  2  0  0  0  0  0  0
  -27.8350  -13.0210   19.4980 C   0  0  0  0  0  3  0  0  0  0  0  0
  -28.8910  -12.7410   20.5920 C   0  0  0  0  0  2  0  0  0  0  0  0
  -30.2310  -12.9690   20.0130 N   0  0  0  0  0  0  0  0  0  0  0  0
  -31.9610  -14.3500   19.4450 O   0  0  0  0  0  0  0  0  0  0  0  0
  -30.3000  -15.0820   20.7880 N   0  0  0  0  0  0  0  0  0  0  0  0
  -29.5390  -14.7490   21.3590 H   0  0  0  0  0  0  0  0  0  0  0  0
  -25.4810  -13.7850   20.2300 C   0  0  0  0  0  0  0  0  0  0  0  0
  -24.3770  -13.0810   20.6360 C   0  0  0  0  0  0  0  0  0  0  0  0
  -24.7610  -11.7060   20.6190 C   0  0  0  0  0  0  0  0  0  0  0  0
  -26.4720  -12.8410   19.9980 N   0  0  0  0  0  0  0  0  0  0  0  0
  -26.0380  -11.5860   20.2830 N   0  0  0  0  0  0  0  0  0  0  0  0
  -23.9700  -10.4890   20.8510 C   0  0  0  0  0  0  0  0  0  0  0  0
  -24.3690   -9.5170   21.7960 C   0  0  0  0  0  3  0  0  0  0  0  0
  -23.5850   -8.3640   22.0130 C   0  0  0  0  0  3  0  0  0  0  0  0
  -22.3850   -8.1750   21.2840 C   0  0  0  0  0  0  0  0  0  0  0  0
  -22.0040   -9.1350   20.3310 C   0  0  0  0  0  3  0  0  0  0  0  0
  -22.7880  -10.2790   20.1120 C   0  0  0  0  0  3  0  0  0  0  0  0
  -21.5740   -7.0730   21.4100 O   0  0  0  0  0  0  0  0  0  0  0  0
  -21.5140   -6.3520   22.5760 C   0  0  0  0  0  0  0  0  0  0  0  0
  -21.1520   -6.9500   23.8030 C   0  0  0  0  0  3  0  0  0  0  0  0
  -21.0320   -6.1570   24.9620 C   0  0  0  0  0  3  0  0  0  0  0  0
  -21.2670   -4.7700   24.8970 C   0  0  0  0  0  0  0  0  0  0  0  0
  -21.6240   -4.1740   23.6740 C   0  0  0  0  0  3  0  0  0  0  0  0
  -21.7440   -4.9620   22.5170 C   0  0  0  0  0  0  0  0  0  0  0  0
  -22.0680   -4.3790   21.3370 F   0  0  0  0  0  0  0  0  0  0  0  0
  -21.1440   -4.0090   26.0090 F   0  0  0  0  0  0  0  0  0  0  0  0
  -23.0150  -13.6420   20.9290 C   0  0  0  0  0  0  0  0  0  0  0  0
  -22.2710  -13.0070   21.8270 N   0  0  0  0  0  0  0  0  0  0  0  0
  -22.6200  -14.6780   20.3960 O   0  0  0  0  0  0  0  0  0  0  0  0
  -22.6000  -12.1700   22.2860 H   0  0  0  0  0  0  0  0  0  0  0  0
  -21.3580  -13.3680   22.0660 H   0  0  0  0  0  0  0  0  0  0  0  0
  -25.7200  -15.1400   20.0260 N   0  0  0  0  0  0  0  0  0  0  0  0
  -25.0000  -15.8430   20.1520 H   0  0  0  0  0  0  0  0  0  0  0  0
  -26.5860  -15.5230   19.6680 H   0  0  0  0  0  0  0  0  0  0  0  0
  -28.6630  -21.0580   18.6760 C   0  0  0  0  0  2  0  0  0  0  0  0
  -27.8570  -21.9150   19.6660 C   0  0  0  0  0  2  0  0  0  0  0  0
  -28.6150  -23.0230   20.1580 O   0  0  0  0  0  0  0  0  0  0  0  0
  -27.8930  -24.2440   20.0480 C   0  0  0  0  0  2  0  0  0  0  0  0
  -28.5240  -25.3920   20.8550 C   0  0  0  0  0  2  0  0  0  0  0  0
  -28.4980  -26.6480   20.1720 O   0  0  0  0  0  0  0  0  0  0  0  0
  -24.4930  -31.7150   23.1580 C   0  0  0  0  0  0  0  0  0  0  0  0
  -27.2990  -27.3240   20.1710 C   0  0  0  0  0  0  0  0  0  0  0  0
  -23.3630  -30.3020   21.4710 C   0  0  0  0  0  3  0  0  0  0  0  0
  -24.8840  -28.7850   20.1020 C   0  0  0  0  0  0  0  0  0  0  0  0
  -25.8880  -30.6940   21.3660 C   0  0  0  0  0  2  0  0  0  0  0  0
  -26.0120  -29.3250   20.7350 C   0  0  0  0  0  0  0  0  0  0  0  0
  -27.2220  -28.6000   20.7690 C   0  0  0  0  0  3  0  0  0  0  0  0
  -26.1570  -26.8010   19.5260 C   0  0  0  0  0  3  0  0  0  0  0  0
  -24.9500  -27.5210   19.4980 C   0  0  0  0  0  3  0  0  0  0  0  0
  -23.6300  -29.6270   20.1000 C   0  0  0  0  0  2  0  0  0  0  0  0
  -24.5980  -30.9190   22.0570 N   0  0  0  0  0  0  0  0  0  0  0  0
  -23.3910  -31.9750   23.6580 O   0  0  0  0  0  0  0  0  0  0  0  0
  -22.6930  -29.2710   22.4060 C   0  0  0  0  0  0  0  0  0  0  0  0
  -21.3730  -29.0840   22.2380 N   0  0  0  0  0  0  0  0  0  0  0  0
  -23.3550  -28.6420   23.2340 O   0  0  0  0  0  0  0  0  0  0  0  0
  -20.9040  -29.6430   21.5400 H   0  0  0  0  0  0  0  0  0  0  0  0
  -17.9880  -27.8900   22.6340 C   0  0  0  0  0  0  0  0  0  0  0  0
  -20.5370  -28.1400   22.9770 C   0  0  0  0  0  3  0  0  0  0  0  0
  -20.6530  -26.7160   22.3870 C   0  0  0  0  0  2  0  0  0  0  0  0
  -19.5770  -26.4060   21.3410 C   0  0  0  0  0  2  0  0  0  0  0  0
  -18.1790  -26.5470   21.9520 C   0  0  0  0  0  2  0  0  0  0  0  0
  -19.0950  -28.6450   23.1020 C   0  0  0  0  0  0  0  0  0  0  0  0
  -18.8640  -29.9040   23.6990 C   0  0  0  0  0  3  0  0  0  0  0  0
  -17.5560  -30.4050   23.8370 C   0  0  0  0  0  3  0  0  0  0  0  0
  -16.4610  -29.6470   23.3860 C   0  0  0  0  0  3  0  0  0  0  0  0
  -16.6790  -28.3910   22.7910 C   0  0  0  0  0  3  0  0  0  0  0  0
  -25.7510  -32.3570   23.8250 C   0  0  0  0  0  3  0  0  0  0  0  0
  -25.4090  -33.7430   24.1670 N   0  0  0  0  0  0  0  0  0  0  0  0
  -25.7400  -34.8110   23.4280 C   0  0  0  0  0  0  0  0  0  0  0  0
  -26.4370  -34.7340   22.4140 O   0  0  0  0  0  0  0  0  0  0  0  0
  -24.7950  -33.8780   24.9570 H   0  0  0  0  0  0  0  0  0  0  0  0
  -23.9850  -36.5710   23.0500 C   0  0  0  0  0  1  0  0  0  0  0  0
  -25.2140  -36.1840   23.8900 C   0  0  0  0  0  3  0  0  0  0  0  0
  -27.3100  -37.0980   24.7830 C   0  0  0  0  0  1  0  0  0  0  0  0
  -26.2290  -37.2580   23.8140 N   0  0  0  0  0  0  0  0  0  0  0  0
  -25.8010  -38.1690   23.9620 H   0  0  0  0  0  0  0  0  0  0  0  0
  -26.2470  -31.5730   25.1010 C   0  0  1  0  0  0  0  0  0  0  0  0
  -25.1300  -31.2970   26.1350 C   0  0  0  0  0  1  0  0  0  0  0  0
  -26.8630  -30.2120   24.6990 C   0  0  0  0  0  1  0  0  0  0  0  0
  -27.3660  -32.3730   25.8080 C   0  0  0  0  0  1  0  0  0  0  0  0
  1  2  1  0
  2 55  1  0
  2  4  1  0
  3  1  2  0
  5  1  1  0
  5  7  1  0
  6  7  1  0
  7  9  1  0
  7  8  1  1
  9 10  1  0
 11 13  2  0
 12 10  1  0
 12 11  1  0
 14 12  1  0
 16 11  1  0
 16 25  1  0
 16 15  1  0
 17 25  1  0
 18 23  1  0
 19 20  1  0
 19 18  1  0
 21 20  1  0
 21 30  1  0
 21 22  1  0
 23 17  1  0
 23 22  1  0
 24 17  2  0
 25 26  1  0
 27 28  2  0
 28 47  1  0
 29 28  1  0
 29 32  1  0
 30 27  1  0
 30 31  1  0
 31 29  2  0
 32 33  1  0
 33 34  2  0
 35 38  1  0
 35 34  1  0
 36 35  2  0
 37 36  1  0
 37 32  2  0
 38 39  1  0
 39 40  1  0
 40 41  2  0
 42 41  1  0
 42 46  1  0
 43 42  2  0
 44 39  2  0
 44 43  1  0
 45 44  1  0
 47 48  1  0
 48 51  1  0
 48 50  1  0
 49 47  2  0
 52 53  1  0
 52 27  1  0
 54 52  1  0
 55 56  1  0
 56 57  1  0
 58 57  1  0
 58 59  1  0
 60 59  1  0
 61 72  2  0
 62 60  1  0
 62 67  1  0
 63 71  1  0
 63 73  1  0
 64 66  1  0
 65 71  1  0
 66 67  2  0
 66 65  1  0
 68 62  2  0
 69 68  1  0
 69 64  2  0
 70 64  1  0
 70 63  1  0
 71 61  1  0
 73 75  2  0
 74 73  1  0
 76 74  1  0
 77 86  2  0
 77 82  1  0
 78 74  1  0
 78 82  1  0
 79 78  1  0
 80 81  1  0
 80 79  1  0
 81 77  1  0
 82 83  2  0
 83 84  1  0
 85 84  2  0
 86 85  1  0
 87 61  1  0
 87 88  1  0
 87 97  1  0
 88 91  1  0
 89 93  1  0
 89 88  1  0
 90 89  2  0
 93 92  1  0
 95 93  1  0
 95 96  1  0
 95 94  1  0
 97100  1  1
 97 98  1  0
 99 97  1  0
M  ISO  4  17 100  25 100  59 101  60 101
M  END
>  <TORSDO>  (85) 
F 27

>  <SCORE>  (85) 
-11.007

>  <name>  (85) 
91

>  <ligand_id>  (85) 
91

>  <original_smiles>  (85) 
[H]c1c([H])c([H])c2c(c1[H])C([H])([H])C([H])([H])C([H])([H])C2([H])N([H])C(=O)C1([H])N(C(=O)C([H])(N([H])C(=O)C([H])(N([H])C([H])([H])[H])C([H])([H])[H])C(C([H])([H])[H])(C([H])([H])[H])C([H])([H])[H])C([H])([H])c2c([H])c(OC([H])([H])C([H])([H])OC([H])([H])C([H])([H])N([H])C(=O)C([H])([H])[N+]([H])(C([H])([H])[H])C([H])([H])C([H])([H])N([H])C(=O)C([H])(N([H])C(=O)N3C([H])([H])C([H])([H])C([H])([H])C([H])(n4nc(-c5c([H])c([H])c(Oc6c([H])c([H])c(F)c([H])c6F)c([H])c5[H])c(C(=O)N([H])[H])c4N([H])[H])C3([H])[H])C([H])([H])[H])c([H])c([H])c2C1([H])[H]

>  <smiles>  (85) 
[H]c1c([H])c([H])c2c(c1[H])C([H])([H])C([H])([H])C([H])([H])C2([H])N([H])C(=O)C1([H])N(C(=O)C([H])(N([H])C(=O)C([H])(N([H])C([H])([H])[H])C([H])([H])[H])C(C([H])([H])[H])(C([H])([H])[H])C([H])([H])[H])C([H])([H])c2c([H])c(OC([H])([H])C([H])([H])OC([H])([H])C([H])([H])N([H])C(=O)C([H])([H])[N+]([H])(C([H])([H])[H])C([H])([H])C([H])([H])N([H])C(=O)C([H])(N([H])C(=O)N3C([H])([H])C([H])([H])C([H])([H])C([H])(n4nc(-c5c([H])c([H])c(Oc6c([H])c([H])c(F)c([H])c6F)c([H])c5[H])c(C(=O)N([H])[H])c4N([H])[H])C3([H])[H])C([H])([H])[H])c([H])c([H])c2C1([H])[H]

$$$$
92:0:0
     RDKit          3D

 97104  0  0  1  0  0  0  0  0999 V2000
  -28.5720  -18.2580   20.7170 C   0  0  0  0  0  2  0  0  0  0  0  0
  -28.7940  -16.9720   19.9020 C   0  0  0  0  0  3  0  0  0  0  0  0
  -30.8420  -15.5080   20.3960 C   0  0  0  0  0  0  0  0  0  0  0  0
  -29.6130  -16.0020   20.6260 N   0  0  0  0  0  0  0  0  0  0  0  0
  -31.6680  -15.9730   19.6100 O   0  0  0  0  0  0  0  0  0  0  0  0
  -29.0990  -15.5120   21.3430 H   0  0  0  0  0  0  0  0  0  0  0  0
  -31.2550  -14.3870   22.6870 C   0  0  0  0  0  1  0  0  0  0  0  0
  -31.1270  -14.2180   21.1600 C   0  0  0  0  0  3  0  0  0  0  0  0
  -32.7540  -12.2120   20.9400 C   0  0  0  0  0  0  0  0  0  0  0  0
  -32.5430   -9.9120   21.8140 C   0  0  0  0  0  2  0  0  0  0  0  0
  -31.7820   -9.0220   20.8020 C   0  0  0  0  0  2  0  0  0  0  0  0
  -30.2460   -9.1670   20.9200 C   0  0  0  0  0  2  0  0  0  0  0  0
  -29.7910  -10.6500   21.0200 C   0  0  0  0  0  3  0  0  0  0  0  0
  -30.6440  -11.3090   22.1220 C   0  0  0  0  0  2  0  0  0  0  0  0
  -32.0500  -11.2960   21.6780 N   0  0  0  0  0  0  0  0  0  0  0  0
  -33.8780  -11.9550   20.4900 O   0  0  0  0  0  0  0  0  0  0  0  0
  -32.2280  -13.4140   20.6260 N   0  0  0  0  0  0  0  0  0  0  0  0
  -32.7850  -13.9280   19.9570 H   0  0  0  0  0  0  0  0  0  0  0  0
  -27.5380  -11.8790   21.2990 C   0  0  0  0  0  0  0  0  0  0  0  0
  -26.2700  -11.4200   21.5420 C   0  0  0  0  0  0  0  0  0  0  0  0
  -26.3810  -10.0000   21.6430 C   0  0  0  0  0  0  0  0  0  0  0  0
  -28.3550  -10.7570   21.2840 N   0  0  0  0  0  0  0  0  0  0  0  0
  -27.6480   -9.6260   21.5340 N   0  0  0  0  0  0  0  0  0  0  0  0
  -25.3490   -8.9660   21.7850 C   0  0  0  0  0  0  0  0  0  0  0  0
  -25.0680   -8.3770   23.0370 C   0  0  0  0  0  3  0  0  0  0  0  0
  -24.0630   -7.3950   23.1530 C   0  0  0  0  0  3  0  0  0  0  0  0
  -23.3280   -6.9940   22.0110 C   0  0  0  0  0  0  0  0  0  0  0  0
  -23.6300   -7.5680   20.7640 C   0  0  0  0  0  3  0  0  0  0  0  0
  -24.6330   -8.5440   20.6480 C   0  0  0  0  0  3  0  0  0  0  0  0
  -22.3480   -6.0340   22.0210 O   0  0  0  0  0  0  0  0  0  0  0  0
  -21.3600   -6.0250   22.9740 C   0  0  0  0  0  0  0  0  0  0  0  0
  -20.4670   -7.1080   23.1290 C   0  0  0  0  0  3  0  0  0  0  0  0
  -19.4240   -7.0290   24.0740 C   0  0  0  0  0  3  0  0  0  0  0  0
  -19.2680   -5.8670   24.8550 C   0  0  0  0  0  0  0  0  0  0  0  0
  -20.1540   -4.7870   24.6970 C   0  0  0  0  0  3  0  0  0  0  0  0
  -21.1970   -4.8670   23.7590 C   0  0  0  0  0  0  0  0  0  0  0  0
  -22.0370   -3.8160   23.5980 F   0  0  0  0  0  0  0  0  0  0  0  0
  -18.2640   -5.7870   25.7580 F   0  0  0  0  0  0  0  0  0  0  0  0
  -25.0080  -12.2360   21.5760 C   0  0  0  0  0  0  0  0  0  0  0  0
  -24.0470  -11.8500   22.4060 N   0  0  0  0  0  0  0  0  0  0  0  0
  -24.8860  -13.2530   20.8950 O   0  0  0  0  0  0  0  0  0  0  0  0
  -24.1580  -11.0370   22.9930 H   0  0  0  0  0  0  0  0  0  0  0  0
  -23.1910  -12.3860   22.4580 H   0  0  0  0  0  0  0  0  0  0  0  0
  -28.0630  -13.1490   21.0770 N   0  0  0  0  0  0  0  0  0  0  0  0
  -27.4880  -13.9830   21.0500 H   0  0  0  0  0  0  0  0  0  0  0  0
  -29.0290  -13.3250   20.8300 H   0  0  0  0  0  0  0  0  0  0  0  0
  -26.6340  -17.2040   18.5370 C   0  0  0  0  0  1  0  0  0  0  0  0
  -27.6050  -14.9130   18.8610 C   0  0  0  0  0  1  0  0  0  0  0  0
  -27.4470  -16.3120   19.4940 C   0  0  0  0  0  3  0  0  0  0  0  0
  -29.5150  -19.2110   20.2760 O   0  0  0  0  0  0  0  0  0  0  0  0
  -30.0840  -19.9100   21.3560 C   0  0  0  0  0  2  0  0  0  0  0  0
  -31.1460  -20.8310   20.7760 C   0  0  0  0  0  2  0  0  0  0  0  0
  -31.4070  -21.9950   21.7190 C   0  0  0  0  0  2  0  0  0  0  0  0
  -32.1420  -22.9670   21.0080 O   0  0  0  0  0  0  0  0  0  0  0  0
  -31.7290  -24.2660   21.3670 C   0  0  0  0  0  2  0  0  0  0  0  0
  -32.4040  -25.2810   20.4490 C   0  0  0  0  0  2  0  0  0  0  0  0
  -31.9330  -26.5640   20.8200 O   0  0  0  0  0  0  0  0  0  0  0  0
  -26.0690  -29.7590   23.2120 C   0  0  0  0  0  0  0  0  0  0  0  0
  -30.6340  -26.9140   20.5310 C   0  0  0  0  0  0  0  0  0  0  0  0
  -25.8560  -28.6710   20.9990 C   0  0  0  0  0  3  0  0  0  0  0  0
  -28.0320  -27.8530   19.9590 C   0  0  0  0  0  0  0  0  0  0  0  0
  -28.1200  -29.5110   21.8290 C   0  0  0  0  0  2  0  0  0  0  0  0
  -28.7580  -28.4050   21.0210 C   0  0  0  0  0  0  0  0  0  0  0  0
  -30.0590  -27.9420   21.3040 C   0  0  0  0  0  3  0  0  0  0  0  0
  -29.8760  -26.3400   19.4820 C   0  0  0  0  0  3  0  0  0  0  0  0
  -28.5820  -26.8110   19.1920 C   0  0  0  0  0  3  0  0  0  0  0  0
  -26.6650  -28.4380   19.6950 C   0  0  0  0  0  2  0  0  0  0  0  0
  -26.6750  -29.3120   22.0770 N   0  0  0  0  0  0  0  0  0  0  0  0
  -24.8400  -29.6820   23.3530 O   0  0  0  0  0  0  0  0  0  0  0  0
  -25.2240  -27.3300   21.4290 C   0  0  0  0  0  0  0  0  0  0  0  0
  -24.2070  -26.8830   20.6770 N   0  0  0  0  0  0  0  0  0  0  0  0
  -25.6650  -26.7010   22.3940 O   0  0  0  0  0  0  0  0  0  0  0  0
  -23.9010  -27.4610   19.9070 H   0  0  0  0  0  0  0  0  0  0  0  0
  -21.5180  -24.8480   19.3810 C   0  0  0  0  0  0  0  0  0  0  0  0
  -23.4800  -25.6290   20.8710 C   0  0  0  0  0  3  0  0  0  0  0  0
  -24.2670  -24.4350   20.2840 C   0  0  0  0  0  2  0  0  0  0  0  0
  -23.8760  -24.1050   18.8400 C   0  0  0  0  0  2  0  0  0  0  0  0
  -22.3840  -23.7700   18.7520 C   0  0  0  0  0  2  0  0  0  0  0  0
  -22.0370  -25.7320   20.3640 C   0  0  0  0  0  0  0  0  0  0  0  0
  -21.2000  -26.7390   20.8900 C   0  0  0  0  0  3  0  0  0  0  0  0
  -19.8690  -26.8710   20.4530 C   0  0  0  0  0  3  0  0  0  0  0  0
  -19.3560  -25.9840   19.4900 C   0  0  0  0  0  3  0  0  0  0  0  0
  -20.1780  -24.9730   18.9610 C   0  0  0  0  0  3  0  0  0  0  0  0
  -26.8840  -30.4070   24.3760 C   0  0  0  0  0  3  0  0  0  0  0  0
  -26.3390  -31.7520   24.5990 N   0  0  0  0  0  0  0  0  0  0  0  0
  -26.9330  -32.8870   24.2050 C   0  0  0  0  0  0  0  0  0  0  0  0
  -28.0470  -32.9110   23.6760 O   0  0  0  0  0  0  0  0  0  0  0  0
  -25.4070  -31.8040   24.9840 H   0  0  0  0  0  0  0  0  0  0  0  0
  -25.5080  -34.6510   23.1220 C   0  0  0  0  0  1  0  0  0  0  0  0
  -26.1670  -34.2030   24.4350 C   0  0  0  0  0  3  0  0  0  0  0  0
  -27.4930  -35.0410   26.3250 C   0  0  0  0  0  1  0  0  0  0  0  0
  -27.0140  -35.2920   24.9670 N   0  0  0  0  0  0  0  0  0  0  0  0
  -26.5070  -36.1730   24.9700 H   0  0  0  0  0  0  0  0  0  0  0  0
  -26.8490  -29.5630   25.7070 C   0  0  1  0  0  0  0  0  0  0  0  0
  -25.4290  -29.1140   26.1220 C   0  0  0  0  0  1  0  0  0  0  0  0
  -27.7250  -28.2950   25.5710 C   0  0  0  0  0  1  0  0  0  0  0  0
  -27.4480  -30.3890   26.8700 C   0  0  0  0  0  1  0  0  0  0  0  0
  2  4  1  0
  2  1  1  0
  3  4  1  0
  3  8  1  0
  4  6  1  0
  5  3  2  0
  8  7  1  0
  9 15  1  0
 11 12  1  0
 11 10  1  0
 13 12  1  0
 13 22  1  0
 13 14  1  0
 15 10  1  0
 15 14  1  0
 16  9  2  0
 17  9  1  0
 17  8  1  0
 18 17  1  0
 19 20  2  0
 20 39  1  0
 20 21  1  0
 21 24  1  0
 22 19  1  0
 22 23  1  0
 23 21  2  0
 24 25  1  0
 25 26  2  0
 27 30  1  0
 27 26  1  0
 28 27  2  0
 29 28  1  0
 29 24  2  0
 30 31  1  0
 31 32  2  0
 31 36  1  0
 32 33  1  0
 33 34  2  0
 34 38  1  0
 35 34  1  0
 36 35  2  0
 37 36  1  0
 39 40  1  0
 40 43  1  0
 40 42  1  0
 41 39  2  0
 44 19  1  0
 45 44  1  0
 46 44  1  0
 47 49  1  0
 48 49  1  0
 49  2  1  0
 50  1  1  0
 50 51  1  0
 52 51  1  0
 52 53  1  0
 54 55  1  0
 54 53  1  0
 56 57  1  0
 56 55  1  0
 58 69  2  0
 59 57  1  0
 59 64  1  0
 60 70  1  0
 60 68  1  0
 61 63  1  0
 62 68  1  0
 63 64  2  0
 63 62  1  0
 65 59  2  0
 66 65  1  0
 66 61  2  0
 67 61  1  0
 67 60  1  0
 68 58  1  0
 70 72  2  0
 71 70  1  0
 73 71  1  0
 74 79  1  0
 75 71  1  0
 76 75  1  0
 77 76  1  0
 78 77  1  0
 78 74  1  0
 79 75  1  0
 79 80  2  0
 81 80  1  0
 82 81  2  0
 83 74  2  0
 83 82  1  0
 84 58  1  0
 84 85  1  0
 84 94  1  0
 85 88  1  0
 86 90  1  0
 86 85  1  0
 87 86  2  0
 90 89  1  0
 90 92  1  0
 92 93  1  0
 92 91  1  0
 94 95  1  1
 94 97  1  0
 96 94  1  0
M  ISO  4   9 100  17 100  56 101  57 101
M  END
>  <TORSDO>  (86) 
F 27

>  <SCORE>  (86) 
-1.915

>  <name>  (86) 
92

>  <ligand_id>  (86) 
92

>  <original_smiles>  (86) 
[H]c1c([H])c([H])c2c(c1[H])C([H])([H])C([H])([H])C([H])([H])C2([H])N([H])C(=O)C1([H])N(C(=O)C([H])(N([H])C(=O)C([H])(N([H])C([H])([H])[H])C([H])([H])[H])C(C([H])([H])[H])(C([H])([H])[H])C([H])([H])[H])C([H])([H])c2c([H])c(OC([H])([H])C([H])([H])OC([H])([H])C([H])([H])C([H])([H])OC([H])([H])C([H])(N([H])C(=O)C([H])(N([H])C(=O)N3C([H])([H])C([H])([H])C([H])([H])C([H])(n4nc(-c5c([H])c([H])c(Oc6c([H])c([H])c(F)c([H])c6F)c([H])c5[H])c(C(=O)N([H])[H])c4N([H])[H])C3([H])[H])C([H])([H])[H])C([H])(C([H])([H])[H])C([H])([H])[H])c([H])c([H])c2C1([H])[H]

>  <smiles>  (86) 
[H]c1c([H])c([H])c2c(c1[H])C([H])([H])C([H])([H])C([H])([H])C2([H])N([H])C(=O)C1([H])N(C(=O)C([H])(N([H])C(=O)C([H])(N([H])C([H])([H])[H])C([H])([H])[H])C(C([H])([H])[H])(C([H])([H])[H])C([H])([H])[H])C([H])([H])c2c([H])c(OC([H])([H])C([H])([H])OC([H])([H])C([H])([H])C([H])([H])OC([H])([H])C([H])(N([H])C(=O)C([H])(N([H])C(=O)N3C([H])([H])C([H])([H])C([H])([H])C([H])(n4nc(-c5c([H])c([H])c(Oc6c([H])c([H])c(F)c([H])c6F)c([H])c5[H])c(C(=O)N([H])[H])c4N([H])[H])C3([H])[H])C([H])([H])[H])C([H])(C([H])([H])[H])C([H])([H])[H])c([H])c([H])c2C1([H])[H]

$$$$
93:0:0
     RDKit          3D

 94101  0  0  1  0  0  0  0  0999 V2000
  -28.3360  -19.4620   17.9300 C   0  0  0  0  0  2  0  0  0  0  0  0
  -29.0580  -17.3540   19.0980 C   0  0  0  0  0  0  0  0  0  0  0  0
  -29.2930  -18.5100   18.4720 N   0  0  0  0  0  0  0  0  0  0  0  0
  -27.9630  -17.0620   19.5760 O   0  0  0  0  0  0  0  0  0  0  0  0
  -30.2410  -18.5990   18.1370 H   0  0  0  0  0  0  0  0  0  0  0  0
  -30.2160  -16.3550   19.1730 C   0  0  0  0  0  3  0  0  0  0  0  0
  -31.1410  -14.9040   20.9660 C   0  0  0  0  0  0  0  0  0  0  0  0
  -30.8710  -12.6690   20.0150 C   0  0  0  0  0  2  0  0  0  0  0  0
  -30.0780  -12.7740   18.7030 C   0  0  0  0  0  2  0  0  0  0  0  0
  -28.5670  -12.7010   18.9860 C   0  0  0  0  0  2  0  0  0  0  0  0
  -28.0790  -13.6120   20.1560 C   0  0  0  0  0  3  0  0  0  0  0  0
  -29.0390  -13.5590   21.3690 C   0  0  0  0  0  2  0  0  0  0  0  0
  -30.4050  -13.7600   20.8760 N   0  0  0  0  0  0  0  0  0  0  0  0
  -32.3650  -14.9230   21.0330 O   0  0  0  0  0  0  0  0  0  0  0  0
  -30.5530  -16.0460   20.5810 N   0  0  0  0  0  0  0  0  0  0  0  0
  -31.0020  -16.8420   21.0140 H   0  0  0  0  0  0  0  0  0  0  0  0
  -25.6220  -14.2670   20.5560 C   0  0  0  0  0  0  0  0  0  0  0  0
  -24.5010  -13.5020   20.7620 C   0  0  0  0  0  0  0  0  0  0  0  0
  -24.9530  -12.1510   20.8280 C   0  0  0  0  0  0  0  0  0  0  0  0
  -26.6780  -13.3660   20.4940 N   0  0  0  0  0  0  0  0  0  0  0  0
  -26.2730  -12.0970   20.7300 N   0  0  0  0  0  0  0  0  0  0  0  0
  -24.1930  -10.8990   20.9400 C   0  0  0  0  0  0  0  0  0  0  0  0
  -24.5160   -9.9420   21.9250 C   0  0  0  0  0  3  0  0  0  0  0  0
  -23.7760   -8.7430   22.0270 C   0  0  0  0  0  3  0  0  0  0  0  0
  -22.6930   -8.5020   21.1480 C   0  0  0  0  0  0  0  0  0  0  0  0
  -22.3930   -9.4490   20.1520 C   0  0  0  0  0  3  0  0  0  0  0  0
  -23.1360  -10.6380   20.0460 C   0  0  0  0  0  3  0  0  0  0  0  0
  -21.9180   -7.3650   21.1650 O   0  0  0  0  0  0  0  0  0  0  0  0
  -21.7340   -6.6320   22.3090 C   0  0  0  0  0  0  0  0  0  0  0  0
  -21.2110   -7.1970   23.4940 C   0  0  0  0  0  3  0  0  0  0  0  0
  -21.0020   -6.3900   24.6290 C   0  0  0  0  0  3  0  0  0  0  0  0
  -21.2820   -5.0090   24.5730 C   0  0  0  0  0  0  0  0  0  0  0  0
  -21.7940   -4.4440   23.3910 C   0  0  0  0  0  3  0  0  0  0  0  0
  -22.0240   -5.2510   22.2670 C   0  0  0  0  0  0  0  0  0  0  0  0
  -22.5060   -4.7000   21.1260 F   0  0  0  0  0  0  0  0  0  0  0  0
  -21.0510   -4.2220   25.6510 F   0  0  0  0  0  0  0  0  0  0  0  0
  -23.0770  -13.9780   20.8120 C   0  0  0  0  0  0  0  0  0  0  0  0
  -22.2350  -13.2890   21.5850 N   0  0  0  0  0  0  0  0  0  0  0  0
  -22.7080  -14.9790   20.2030 O   0  0  0  0  0  0  0  0  0  0  0  0
  -22.5460  -12.4810   22.1060 H   0  0  0  0  0  0  0  0  0  0  0  0
  -21.2470  -13.5180   21.5860 H   0  0  0  0  0  0  0  0  0  0  0  0
  -25.8210  -15.6310   20.3900 N   0  0  0  0  0  0  0  0  0  0  0  0
  -25.0630  -16.3010   20.3140 H   0  0  0  0  0  0  0  0  0  0  0  0
  -26.7370  -16.0680   20.2730 H   0  0  0  0  0  0  0  0  0  0  0  0
  -30.9990  -16.8120   16.7280 C   0  0  0  0  0  1  0  0  0  0  0  0
  -32.4240  -17.7110   18.6040 C   0  0  0  0  0  1  0  0  0  0  0  0
  -31.4370  -16.5900   18.2010 C   0  0  0  0  0  3  0  0  0  0  0  0
  -27.4780  -20.2290   18.9720 C   0  0  0  0  0  2  0  0  0  0  0  0
  -28.0600  -21.4530   19.4370 O   0  0  0  0  0  0  0  0  0  0  0  0
  -27.1540  -22.1830   20.2720 C   0  0  0  0  0  2  0  0  0  0  0  0
  -27.8580  -23.3370   20.9980 C   0  0  0  0  0  2  0  0  0  0  0  0
  -28.2840  -24.4970   20.0780 C   0  0  0  0  0  2  0  0  0  0  0  0
  -28.4000  -25.8040   20.8730 C   0  0  0  0  0  2  0  0  0  0  0  0
  -28.3960  -26.9340   20.0090 O   0  0  0  0  0  0  0  0  0  0  0  0
  -24.6520  -31.9690   23.3310 C   0  0  0  0  0  0  0  0  0  0  0  0
  -27.2230  -27.6450   20.0600 C   0  0  0  0  0  0  0  0  0  0  0  0
  -23.4000  -30.6070   21.6850 C   0  0  0  0  0  3  0  0  0  0  0  0
  -24.8170  -29.1070   20.1930 C   0  0  0  0  0  0  0  0  0  0  0  0
  -25.9160  -30.9860   21.4270 C   0  0  0  0  0  2  0  0  0  0  0  0
  -25.9890  -29.6320   20.7520 C   0  0  0  0  0  0  0  0  0  0  0  0
  -27.1970  -28.9060   20.6820 C   0  0  0  0  0  3  0  0  0  0  0  0
  -26.0340  -27.1190   19.5080 C   0  0  0  0  0  3  0  0  0  0  0  0
  -24.8320  -27.8460   19.5720 C   0  0  0  0  0  3  0  0  0  0  0  0
  -23.5700  -29.9540   20.2890 C   0  0  0  0  0  2  0  0  0  0  0  0
  -24.6760  -31.1960   22.2090 N   0  0  0  0  0  0  0  0  0  0  0  0
  -23.5870  -32.2320   23.9060 O   0  0  0  0  0  0  0  0  0  0  0  0
  -22.7730  -29.5650   22.6390 C   0  0  0  0  0  0  0  0  0  0  0  0
  -21.4550  -29.3510   22.5030 N   0  0  0  0  0  0  0  0  0  0  0  0
  -23.4670  -28.9550   23.4560 O   0  0  0  0  0  0  0  0  0  0  0  0
  -20.9590  -29.8920   21.8080 H   0  0  0  0  0  0  0  0  0  0  0  0
  -18.1220  -28.0290   22.9150 C   0  0  0  0  0  0  0  0  0  0  0  0
  -20.6540  -28.3930   23.2630 C   0  0  0  0  0  3  0  0  0  0  0  0
  -20.8370  -26.9610   22.7120 C   0  0  0  0  0  2  0  0  0  0  0  0
  -19.7820  -26.5790   21.6700 C   0  0  0  0  0  2  0  0  0  0  0  0
  -18.3740  -26.6780   22.2680 C   0  0  0  0  0  2  0  0  0  0  0  0
  -19.1940  -28.8430   23.3660 C   0  0  0  0  0  0  0  0  0  0  0  0
  -18.9060  -30.1050   23.9290 C   0  0  0  0  0  3  0  0  0  0  0  0
  -17.5780  -30.5550   24.0460 C   0  0  0  0  0  3  0  0  0  0  0  0
  -16.5190  -29.7390   23.6110 C   0  0  0  0  0  3  0  0  0  0  0  0
  -16.7910  -28.4780   23.0530 C   0  0  0  0  0  3  0  0  0  0  0  0
  -25.9580  -32.5810   23.9310 C   0  0  0  0  0  3  0  0  0  0  0  0
  -26.4980  -31.7880   25.1840 C   0  0  1  0  0  0  0  0  0  0  0  0
  -25.4220  -31.5440   26.2660 C   0  0  0  0  0  1  0  0  0  0  0  0
  -27.0590  -30.4110   24.7580 C   0  0  0  0  0  1  0  0  0  0  0  0
  -27.6740  -32.5580   25.8300 C   0  0  0  0  0  1  0  0  0  0  0  0
  -25.6740  -33.9790   24.2820 N   0  0  0  0  0  0  0  0  0  0  0  0
  -26.0050  -35.0340   23.5260 C   0  0  0  0  0  0  0  0  0  0  0  0
  -26.6530  -34.9320   22.4810 O   0  0  0  0  0  0  0  0  0  0  0  0
  -25.0950  -34.1310   25.0940 H   0  0  0  0  0  0  0  0  0  0  0  0
  -24.2820  -36.8360   23.2260 C   0  0  0  0  0  1  0  0  0  0  0  0
  -25.5420  -36.4220   24.0040 C   0  0  0  0  0  3  0  0  0  0  0  0
  -27.7030  -37.2800   24.7860 C   0  0  0  0  0  1  0  0  0  0  0  0
  -26.5800  -37.4670   23.8690 N   0  0  0  0  0  0  0  0  0  0  0  0
  -26.1870  -38.3890   24.0380 H   0  0  0  0  0  0  0  0  0  0  0  0
  1  3  1  0
  1 48  1  0
  2  6  1  0
  2  4  2  0
  3  2  1  0
  5  3  1  0
  6 47  1  0
  6 15  1  0
  7 14  2  0
  8 13  1  0
  9 10  1  0
  9  8  1  0
 11 10  1  0
 11 20  1  0
 11 12  1  0
 13  7  1  0
 13 12  1  0
 15  7  1  0
 15 16  1  0
 17 18  2  0
 18 37  1  0
 18 19  1  0
 19 22  1  0
 20 17  1  0
 20 21  1  0
 21 19  2  0
 22 23  1  0
 23 24  2  0
 25 28  1  0
 25 24  1  0
 26 25  2  0
 27 26  1  0
 27 22  2  0
 28 29  1  0
 29 30  1  0
 30 31  2  0
 32 31  1  0
 32 36  1  0
 33 32  2  0
 34 29  2  0
 34 33  1  0
 35 34  1  0
 37 38  1  0
 38 41  1  0
 38 40  1  0
 39 37  2  0
 42 17  1  0
 43 42  1  0
 44 42  1  0
 45 47  1  0
 47 46  1  0
 48 49  1  0
 49 50  1  0
 50 51  1  0
 52 53  1  0
 52 51  1  0
 54 56  1  0
 54 53  1  0
 55 66  2  0
 56 61  1  0
 57 65  1  0
 57 67  1  0
 58 64  1  0
 58 60  1  0
 59 65  1  0
 60 59  1  0
 61 60  2  0
 62 63  1  0
 62 56  2  0
 63 58  2  0
 64 57  1  0
 65 55  1  0
 67 69  2  0
 68 67  1  0
 70 68  1  0
 71 80  2  0
 71 76  1  0
 72 68  1  0
 72 76  1  0
 73 72  1  0
 74 75  1  0
 74 73  1  0
 75 71  1  0
 76 77  2  0
 77 78  1  0
 79 78  2  0
 80 79  1  0
 81 55  1  0
 81 86  1  0
 81 82  1  0
 82 85  1  1
 82 83  1  0
 84 82  1  0
 86 89  1  0
 87 91  1  0
 87 86  1  0
 88 87  2  0
 91 90  1  0
 93 91  1  0
 93 94  1  0
 93 92  1  0
M  ISO  4   7 100  15 100  53 101  54 101
M  END
>  <TORSDO>  (87) 
F 25

>  <SCORE>  (87) 
-11.003

>  <name>  (87) 
93

>  <ligand_id>  (87) 
93

>  <original_smiles>  (87) 
[H]c1c([H])c([H])c2c(c1[H])C([H])([H])C([H])([H])C([H])([H])C2([H])N([H])C(=O)C1([H])N(C(=O)C([H])(N([H])C(=O)C([H])(N([H])C([H])([H])[H])C([H])([H])[H])C(C([H])([H])[H])(C([H])([H])[H])C([H])([H])[H])C([H])([H])c2c([H])c(OC([H])([H])C([H])([H])C([H])([H])C([H])([H])OC([H])([H])C([H])([H])N([H])C(=O)C([H])(N([H])C(=O)N3C([H])([H])C([H])([H])C([H])([H])C([H])(n4nc(-c5c([H])c([H])c(Oc6c([H])c([H])c(F)c([H])c6F)c([H])c5[H])c(C(=O)N([H])[H])c4N([H])[H])C3([H])[H])C([H])(C([H])([H])[H])C([H])([H])[H])c([H])c([H])c2C1([H])[H]

>  <smiles>  (87) 
[H]c1c([H])c([H])c2c(c1[H])C([H])([H])C([H])([H])C([H])([H])C2([H])N([H])C(=O)C1([H])N(C(=O)C([H])(N([H])C(=O)C([H])(N([H])C([H])([H])[H])C([H])([H])[H])C(C([H])([H])[H])(C([H])([H])[H])C([H])([H])[H])C([H])([H])c2c([H])c(OC([H])([H])C([H])([H])C([H])([H])C([H])([H])OC([H])([H])C([H])([H])N([H])C(=O)C([H])(N([H])C(=O)N3C([H])([H])C([H])([H])C([H])([H])C([H])(n4nc(-c5c([H])c([H])c(Oc6c([H])c([H])c(F)c([H])c6F)c([H])c5[H])c(C(=O)N([H])[H])c4N([H])[H])C3([H])[H])C([H])(C([H])([H])[H])C([H])([H])[H])c([H])c([H])c2C1([H])[H]

$$$$
94:0:0
     RDKit          3D

 95 95  0  0  1  0  0  0  0  0999 V2000
  -25.2790  -22.7750   20.1620 C   0  0  0  0  0  1  0  0  0  0  0  0
  -27.2670  -20.1580   20.2330 C   0  0  0  0  0  0  0  0  0  0  0  0
  -26.5560  -21.5090   19.7420 N   0  0  0  0  0  0  0  0  0  0  0  0
  -26.7900  -19.8050   21.3100 O   0  0  0  0  0  0  0  0  0  0  0  0
  -26.9810  -21.7660   18.8560 H   0  0  0  0  0  0  0  0  0  0  0  0
  -28.6530  -18.8980   19.7040 C   0  0  0  0  0  0  0  0  0  0  0  0
  -30.2520  -15.9590   19.6900 C   0  0  0  0  0  0  0  0  0  0  0  0
  -30.6320  -13.4570   18.7330 C   0  0  0  0  0  2  0  0  0  0  0  0
  -29.6740  -13.1190   17.5520 C   0  0  0  0  0  2  0  0  0  0  0  0
  -28.2590  -12.7850   18.0680 C   0  0  0  0  0  2  0  0  0  0  0  0
  -27.8690  -13.7210   19.2340 C   0  0  0  0  0  3  0  0  0  0  0  0
  -28.9370  -13.8270   20.3180 C   0  0  0  0  0  2  0  0  0  0  0  0
  -29.9980  -14.5280   19.6360 N   0  0  0  0  0  0  0  0  0  0  0  0
  -31.4690  -16.0570   19.3560 O   0  0  0  0  0  0  0  0  0  0  0  0
  -29.1900  -17.1400   19.9240 N   0  0  0  0  0  4  0  0  0  0  0  0
  -28.3500  -16.6630   20.2230 H   0  0  0  0  0  0  0  0  0  0  0  0
  -25.6810  -14.3810   20.2730 C   0  0  0  0  0  0  0  0  0  0  0  0
  -24.6110  -13.6570   20.7010 C   0  0  0  0  0  0  0  0  0  0  0  0
  -24.9640  -12.2850   20.5170 C   0  0  0  0  0  0  0  0  0  0  0  0
  -26.5980  -13.4500   19.8350 N   0  0  0  0  0  0  0  0  0  0  0  0
  -26.2020  -12.1800   20.0590 N   0  0  0  0  0  0  0  0  0  0  0  0
  -24.1690  -11.0710   20.6790 C   0  0  0  0  0  0  0  0  0  0  0  0
  -24.5600  -10.0410   21.5650 C   0  0  0  0  0  3  0  0  0  0  0  0
  -23.7610   -8.8860   21.7110 C   0  0  0  0  0  3  0  0  0  0  0  0
  -22.5630   -8.7550   20.9690 C   0  0  0  0  0  0  0  0  0  0  0  0
  -22.1960   -9.7710   20.0690 C   0  0  0  0  0  3  0  0  0  0  0  0
  -22.9930  -10.9160   19.9200 C   0  0  0  0  0  3  0  0  0  0  0  0
  -21.7350   -7.6610   21.0320 O   0  0  0  0  0  0  0  0  0  0  0  0
  -21.5550   -6.9640   22.2000 C   0  0  0  0  0  0  0  0  0  0  0  0
  -21.0810   -7.5880   23.3750 C   0  0  0  0  0  3  0  0  0  0  0  0
  -20.8450   -6.8190   24.5320 C   0  0  0  0  0  3  0  0  0  0  0  0
  -21.0720   -5.4300   24.5140 C   0  0  0  0  0  0  0  0  0  0  0  0
  -21.5390   -4.8080   23.3430 C   0  0  0  0  0  3  0  0  0  0  0  0
  -21.7780   -5.5730   22.1890 C   0  0  0  0  0  0  0  0  0  0  0  0
  -22.2080   -4.9660   21.0570 F   0  0  0  0  0  0  0  0  0  0  0  0
  -20.8370   -4.6910   25.6230 F   0  0  0  0  0  0  0  0  0  0  0  0
  -23.2920  -14.2160   21.1390 C   0  0  0  0  0  0  0  0  0  0  0  0
  -22.6050  -13.5300   22.0410 N   0  0  0  0  0  0  0  0  0  0  0  0
  -22.8880  -15.2990   20.7110 O   0  0  0  0  0  0  0  0  0  0  0  0
  -22.9500  -12.6550   22.4130 H   0  0  0  0  0  0  0  0  0  0  0  0
  -21.7160  -13.8840   22.3650 H   0  0  0  0  0  0  0  0  0  0  0  0
  -25.9350  -15.7470   20.1740 N   0  0  0  0  0  0  0  0  0  0  0  0
  -25.1320  -16.3600   20.2700 H   0  0  0  0  0  0  0  0  0  0  0  0
  -26.5580  -16.0650   19.4460 H   0  0  0  0  0  0  0  0  0  0  0  0
  -27.8860  -18.2650   17.3710 C   0  0  0  0  0  1  0  0  0  0  0  0
  -30.3250  -18.7490   17.7210 C   0  0  0  0  0  1  0  0  0  0  0  0
  -28.7050  -20.6010   17.6930 C   0  0  0  0  0  1  0  0  0  0  0  0
  -28.8890  -19.1350   18.1550 C   0  0  2  0  0  0  0  0  0  0  0  0
  -24.3250  -24.4360   19.4920 C   0  0  0  0  0 15  0  0  0  0  0  0
  -22.9370  -25.8530   19.9310 C   0  0  0  0  0 15  0  0  0  0  0  0
  -22.2770  -27.6070   19.8130 O   0  0  0  0  0 15  0  0  0  0  0  0
  -21.7260  -29.1600   20.8170 C   0  0  0  0  0 15  0  0  0  0  0  0
  -22.4120  -29.7460   22.8360 C   0  0  0  0  0 15  0  0  0  0  0  0
  -24.3860  -29.0490   23.6980 C   0  0  0  0  0 15  0  0  0  0  0  0
  -25.9980  -28.1920   22.9320 O   0  0  0  0  0  1  0  0  0  0  0  0
  -24.5310  -31.6610   22.8930 C   0  0  0  0  0  0  0  0  0  0  0  0
  -26.6930  -27.7810   21.6500 C   0  0  0  0  0  3  0  0  0  0  0  0
  -23.9900  -29.2330   21.2370 C   0  0  0  0  0  3  0  0  0  0  0  0
  -25.4850  -28.8650   19.5970 C   0  0  0  0  0  3  0  0  0  0  0  0
  -25.9850  -30.8560   21.1320 C   0  0  0  0  0  2  0  0  0  0  0  0
  -26.4150  -29.5810   20.4220 C   0  0  0  0  0  3  0  0  0  0  0  0
  -27.3760  -28.8450   21.1060 C   0  0  0  0  0  2  0  0  0  0  0  0
  -26.2150  -26.8650   20.6370 C   0  0  0  0  0  2  0  0  0  0  0  0
  -25.5760  -27.4520   19.5170 C   0  0  0  0  0  2  0  0  0  0  0  0
  -24.0860  -29.3490   19.7190 C   0  0  0  0  0  2  0  0  0  0  0  0
  -24.6870  -30.6970   21.7970 N   0  0  0  0  0  0  0  0  0  0  0  0
  -23.4420  -32.0560   23.3340 O   0  0  0  0  0  0  0  0  0  0  0  0
  -23.3870  -27.5740   22.1000 C   0  0  0  0  0  0  0  0  0  0  0  0
  -22.1320  -27.2610   22.7940 N   0  0  0  0  0  0  0  0  0  0  0  0
  -24.0690  -26.7760   22.6650 O   0  0  0  0  0  0  0  0  0  0  0  0
  -22.3990  -26.4040   23.2540 H   0  0  0  0  0  0  0  0  0  0  0  0
  -18.0780  -27.9210   22.4940 C   0  0  0  0  0  0  0  0  0  0  0  0
  -20.6120  -27.4770   23.2220 C   0  0  0  0  0  3  0  0  0  0  0  0
  -20.1910  -26.1290   22.7310 C   0  0  0  0  0  2  0  0  0  0  0  0
  -19.4690  -26.1590   21.3940 C   0  0  0  0  0  2  0  0  0  0  0  0
  -18.0730  -26.6360   21.6980 C   0  0  0  0  0  2  0  0  0  0  0  0
  -19.2900  -28.4590   23.0720 C   0  0  0  0  0  0  0  0  0  0  0  0
  -19.0940  -29.7180   23.7350 C   0  0  0  0  0  3  0  0  0  0  0  0
  -17.8140  -30.3500   23.8290 C   0  0  0  0  0  3  0  0  0  0  0  0
  -16.6590  -29.7400   23.3070 C   0  0  0  0  0  3  0  0  0  0  0  0
  -16.8030  -28.5190   22.6430 C   0  0  0  0  0  3  0  0  0  0  0  0
  -25.6880  -32.3230   23.8060 C   0  0  0  0  0  3  0  0  0  0  0  0
  -26.0230  -31.7040   25.2650 C   0  0  1  0  0  0  0  0  0  0  0  0
  -24.7840  -31.5140   26.2110 C   0  0  0  0  0  1  0  0  0  0  0  0
  -26.8480  -30.3980   25.1430 C   0  0  0  0  0  1  0  0  0  0  0  0
  -26.9880  -32.6550   26.0420 C   0  0  0  0  0  1  0  0  0  0  0  0
  -25.3030  -33.7310   24.0570 N   0  0  0  0  0  0  0  0  0  0  0  0
  -25.7290  -34.7840   23.3540 C   0  0  0  0  0  0  0  0  0  0  0  0
  -26.5400  -34.6620   22.4330 O   0  0  0  0  0  0  0  0  0  0  0  0
  -24.5780  -33.8860   24.7420 H   0  0  0  0  0  0  0  0  0  0  0  0
  -24.0310  -36.5440   22.7690 C   0  0  0  0  0  1  0  0  0  0  0  0
  -25.1820  -36.1850   23.7220 C   0  0  0  0  0  3  0  0  0  0  0  0
  -27.2270  -37.1150   24.7300 C   0  0  0  0  0  1  0  0  0  0  0  0
  -26.2200  -37.2430   23.6760 N   0  0  0  0  0  0  0  0  0  0  0  0
  -25.8050  -38.1700   23.7240 H   0  0  0  0  0  0  0  0  0  0  0  0
  2  4  2  0
  3  1  1  0
  3  2  1  0
  5  3  1  0
  6 15  2  0
  6  2  1  0
  7 15  1  0
  8 13  1  0
  9 10  1  0
  9  8  1  0
 11 10  1  0
 11 20  1  0
 11 12  1  0
 13  7  1  0
 13 12  1  0
 14  7  2  0
 15 16  1  0
 17 18  2  0
 18 37  1  0
 19 22  1  0
 19 18  1  0
 20 21  1  0
 20 17  1  0
 21 19  2  0
 22 23  1  0
 23 24  2  0
 25 28  1  0
 25 24  1  0
 26 25  2  0
 27 26  1  0
 27 22  2  0
 28 29  1  0
 29 30  1  0
 30 31  2  0
 32 31  1  0
 32 36  1  0
 33 32  2  0
 34 29  2  0
 34 33  1  0
 35 34  1  0
 37 38  1  0
 38 41  1  0
 38 40  1  0
 39 37  2  0
 42 43  1  0
 42 17  1  0
 44 42  1  0
 48 45  1  6
 46 48  1  0
 47 48  1  0
 48  6  1  0
 56 67  2  0
 57 55  1  0
 58 66  1  0
 58 68  1  0
 59 64  1  0
 59 65  1  0
 59 61  1  0
 60 66  1  0
 61 62  1  0
 61 60  1  0
 62 57  1  0
 63 57  1  0
 64 63  1  0
 65 58  1  0
 66 56  1  0
 68 70  2  0
 68 69  1  0
 69 71  1  0
 72 81  2  0
 72 77  1  0
 73 69  1  0
 74 73  1  0
 75 76  1  0
 75 74  1  0
 76 72  1  0
 77 73  1  0
 77 78  2  0
 78 79  1  0
 80 79  2  0
 81 80  1  0
 82 56  1  0
 82 87  1  0
 82 83  1  0
 83 86  1  1
 83 84  1  0
 85 83  1  0
 87 90  1  0
 88 92  1  0
 88 87  1  0
 89 88  2  0
 92 91  1  0
 94 92  1  0
 94 95  1  0
 94 93  1  0
M  ISO  4   7 100  15 100  54 101  55 101
M  END
>  <TORSDO>  (88) 
F 25

>  <SCORE>  (88) 
-10.737

>  <name>  (88) 
94

>  <ligand_id>  (88) 
94

>  <original_smiles>  (88) 
[H]c1c([H])c([H])c2c(c1[H])C([H])([H])C([H])([H])C([H])([H])C2([H])N([H])C(=O)C1([H])N(C(=O)C([H])(N([H])C(=O)C([H])(N([H])C([H])([H])[H])C([H])([H])[H])C(C([H])([H])[H])(C([H])([H])[H])C([H])([H])[H])C([H])([H])c2c([H])c(OC([H])([H])C([H])([H])C([H])([H])OC([H])([H])C([H])([H])C([H])([H])N([H])C(=O)C([H])(N([H])C(=O)N3C([H])([H])C([H])([H])C([H])([H])C([H])(n4nc(-c5c([H])c([H])c(Oc6c([H])c([H])c(F)c([H])c6F)c([H])c5[H])c(C(=O)N([H])[H])c4N([H])[H])C3([H])[H])C(C([H])([H])[H])(C([H])([H])[H])C([H])([H])[H])c([H])c([H])c2C1([H])[H]

>  <smiles>  (88) 
[H]c1c([H])c([H])c2c(c1[H])C([H])([H])C([H])([H])C([H])([H])C2([H])N([H])C(=O)C1([H])N(C(=O)C([H])(N([H])C(=O)C([H])(N([H])C([H])([H])[H])C([H])([H])[H])C(C([H])([H])[H])(C([H])([H])[H])C([H])([H])[H])C([H])([H])c2c([H])c(OC([H])([H])C([H])([H])C([H])([H])OC([H])([H])C([H])([H])C([H])([H])N([H])C(=O)C([H])(N([H])C(=O)N3C([H])([H])C([H])([H])C([H])([H])C([H])(n4nc(-c5c([H])c([H])c(Oc6c([H])c([H])c(F)c([H])c6F)c([H])c5[H])c(C(=O)N([H])[H])c4N([H])[H])C3([H])[H])C(C([H])([H])[H])(C([H])([H])[H])C([H])([H])[H])c([H])c([H])c2C1([H])[H]

$$$$
95:0:0
     RDKit          3D

 94101  0  0  1  0  0  0  0  0999 V2000
  -27.0980  -21.4160   17.1320 C   0  0  0  0  0  2  0  0  0  0  0  0
  -28.1250  -22.5010   16.7650 C   0  0  0  0  0  2  0  0  0  0  0  0
  -27.8590  -23.7460   17.4070 O   0  0  0  0  0  0  0  0  0  0  0  0
  -28.9650  -24.6380   17.2860 C   0  0  0  0  0  2  0  0  0  0  0  0
  -28.7810  -25.8840   18.1580 C   0  0  0  0  0  2  0  0  0  0  0  0
  -28.6020  -25.5370   19.6480 C   0  0  0  0  0  2  0  0  0  0  0  0
  -28.4180  -26.7130   20.4310 O   0  0  0  0  0  0  0  0  0  0  0  0
  -24.5190  -31.8680   23.3350 C   0  0  0  0  0  0  0  0  0  0  0  0
  -27.2130  -27.3800   20.3850 C   0  0  0  0  0  0  0  0  0  0  0  0
  -23.3450  -30.4600   21.6740 C   0  0  0  0  0  3  0  0  0  0  0  0
  -24.8220  -28.8880   20.3200 C   0  0  0  0  0  0  0  0  0  0  0  0
  -25.8760  -30.7980   21.5410 C   0  0  0  0  0  2  0  0  0  0  0  0
  -25.9640  -29.4140   20.9330 C   0  0  0  0  0  0  0  0  0  0  0  0
  -27.1590  -28.6640   20.9710 C   0  0  0  0  0  3  0  0  0  0  0  0
  -26.0420  -26.8560   19.7840 C   0  0  0  0  0  3  0  0  0  0  0  0
  -24.8520  -27.6050   19.7500 C   0  0  0  0  0  3  0  0  0  0  0  0
  -23.5890  -29.7640   20.3090 C   0  0  0  0  0  2  0  0  0  0  0  0
  -24.5980  -31.0560   22.2440 N   0  0  0  0  0  0  0  0  0  0  0  0
  -23.4250  -32.1580   23.8410 O   0  0  0  0  0  0  0  0  0  0  0  0
  -22.6570  -29.4540   22.6240 C   0  0  0  0  0  0  0  0  0  0  0  0
  -21.3390  -29.2650   22.4430 N   0  0  0  0  0  0  0  0  0  0  0  0
  -23.3060  -28.8470   23.4800 O   0  0  0  0  0  0  0  0  0  0  0  0
  -20.8770  -29.8130   21.7320 H   0  0  0  0  0  0  0  0  0  0  0  0
  -17.9520  -28.0620   22.8000 C   0  0  0  0  0  0  0  0  0  0  0  0
  -20.4920  -28.3430   23.1980 C   0  0  0  0  0  3  0  0  0  0  0  0
  -20.6320  -26.8970   22.6690 C   0  0  0  0  0  2  0  0  0  0  0  0
  -19.5840  -26.5380   21.6100 C   0  0  0  0  0  2  0  0  0  0  0  0
  -18.1700  -26.6950   22.1750 C   0  0  0  0  0  2  0  0  0  0  0  0
  -19.0450  -28.8430   23.2650 C   0  0  0  0  0  0  0  0  0  0  0  0
  -18.7900  -30.1220   23.8040 C   0  0  0  0  0  3  0  0  0  0  0  0
  -17.4760  -30.6200   23.8900 C   0  0  0  0  0  3  0  0  0  0  0  0
  -16.3980  -29.8380   23.4420 C   0  0  0  0  0  3  0  0  0  0  0  0
  -16.6380  -28.5620   22.9000 C   0  0  0  0  0  3  0  0  0  0  0  0
  -25.7940  -32.4930   23.9840 C   0  0  0  0  0  3  0  0  0  0  0  0
  -26.2550  -31.7460   25.2940 C   0  0  1  0  0  0  0  0  0  0  0  0
  -25.1240  -31.5540   26.3310 C   0  0  0  0  0  1  0  0  0  0  0  0
  -26.8330  -30.3510   24.9530 C   0  0  0  0  0  1  0  0  0  0  0  0
  -27.3940  -32.5410   25.9770 C   0  0  0  0  0  1  0  0  0  0  0  0
  -25.5040  -33.9060   24.2640 N   0  0  0  0  0  0  0  0  0  0  0  0
  -25.8790  -34.9270   23.4810 C   0  0  0  0  0  0  0  0  0  0  0  0
  -26.5820  -34.7810   22.4780 O   0  0  0  0  0  0  0  0  0  0  0  0
  -24.8960  -34.1000   25.0460 H   0  0  0  0  0  0  0  0  0  0  0  0
  -24.2050  -36.7430   23.0010 C   0  0  0  0  0  1  0  0  0  0  0  0
  -25.4000  -36.3360   23.8790 C   0  0  0  0  0  3  0  0  0  0  0  0
  -27.5140  -37.2050   24.7770 C   0  0  0  0  0  1  0  0  0  0  0  0
  -26.4560  -37.3660   23.7840 N   0  0  0  0  0  0  0  0  0  0  0  0
  -26.0590  -38.2960   23.8910 H   0  0  0  0  0  0  0  0  0  0  0  0
  -27.4110  -20.8450   18.4030 O   0  0  0  0  0  0  0  0  0  0  0  0
  -26.8710  -19.5340   18.5630 C   0  0  0  0  0  2  0  0  0  0  0  0
  -27.1600  -18.9800   19.9700 C   0  0  0  0  0  2  0  0  0  0  0  0
  -29.1820  -17.5420   20.1380 C   0  0  0  0  0  0  0  0  0  0  0  0
  -28.5870  -18.7420   20.2100 N   0  0  0  0  0  0  0  0  0  0  0  0
  -28.5710  -16.5420   19.7590 O   0  0  0  0  0  0  0  0  0  0  0  0
  -29.1420  -19.5410   20.4890 H   0  0  0  0  0  0  0  0  0  0  0  0
  -30.6660  -17.4420   20.5370 C   0  0  0  0  0  2  0  0  0  0  0  0
  -31.0090  -16.3520   21.5930 C   0  0  0  0  0  2  0  0  0  0  0  0
  -31.0770  -14.1950   20.2860 C   0  0  0  0  0  0  0  0  0  0  0  0
  -30.6560  -12.1400   18.9810 C   0  0  0  0  0  2  0  0  0  0  0  0
  -29.6900  -12.4240   17.8150 C   0  0  0  0  0  2  0  0  0  0  0  0
  -28.2230  -12.3220   18.2770 C   0  0  0  0  0  2  0  0  0  0  0  0
  -27.9520  -13.1330   19.5700 C   0  0  0  0  0  3  0  0  0  0  0  0
  -29.0100  -12.8000   20.6430 C   0  0  0  0  0  2  0  0  0  0  0  0
  -30.3450  -13.0700   20.0760 N   0  0  0  0  0  0  0  0  0  0  0  0
  -32.0980  -14.4790   19.6500 O   0  0  0  0  0  0  0  0  0  0  0  0
  -30.5910  -14.9910   21.2480 N   0  0  0  0  0  0  0  0  0  0  0  0
  -29.7820  -14.6360   21.7350 H   0  0  0  0  0  0  0  0  0  0  0  0
  -25.5840  -13.8370   20.3010 C   0  0  0  0  0  0  0  0  0  0  0  0
  -24.4960  -13.1060   20.6940 C   0  0  0  0  0  0  0  0  0  0  0  0
  -24.9100  -11.7380   20.6710 C   0  0  0  0  0  0  0  0  0  0  0  0
  -26.5950  -12.9160   20.0650 N   0  0  0  0  0  0  0  0  0  0  0  0
  -26.1910  -11.6510   20.3400 N   0  0  0  0  0  0  0  0  0  0  0  0
  -24.1470  -10.5030   20.8890 C   0  0  0  0  0  0  0  0  0  0  0  0
  -24.5550   -9.5400   21.8390 C   0  0  0  0  0  3  0  0  0  0  0  0
  -23.7970   -8.3660   22.0410 C   0  0  0  0  0  3  0  0  0  0  0  0
  -22.6170   -8.1470   21.2920 C   0  0  0  0  0  0  0  0  0  0  0  0
  -22.2270   -9.0970   20.3310 C   0  0  0  0  0  3  0  0  0  0  0  0
  -22.9850  -10.2620   20.1280 C   0  0  0  0  0  3  0  0  0  0  0  0
  -21.8320   -7.0250   21.4020 O   0  0  0  0  0  0  0  0  0  0  0  0
  -21.7520   -6.3140   22.5730 C   0  0  0  0  0  0  0  0  0  0  0  0
  -21.3210   -6.9100   23.7790 C   0  0  0  0  0  3  0  0  0  0  0  0
  -21.1870   -6.1270   24.9430 C   0  0  0  0  0  3  0  0  0  0  0  0
  -21.4730   -4.7480   24.9020 C   0  0  0  0  0  0  0  0  0  0  0  0
  -21.8960   -4.1520   23.7010 C   0  0  0  0  0  3  0  0  0  0  0  0
  -22.0320   -4.9330   22.5390 C   0  0  0  0  0  0  0  0  0  0  0  0
  -22.4200   -4.3490   21.3790 F   0  0  0  0  0  0  0  0  0  0  0  0
  -21.3370   -3.9940   26.0170 F   0  0  0  0  0  0  0  0  0  0  0  0
  -23.1190  -13.6300   20.9880 C   0  0  0  0  0  0  0  0  0  0  0  0
  -22.3860  -12.9640   21.8730 N   0  0  0  0  0  0  0  0  0  0  0  0
  -22.7030  -14.6650   20.4690 O   0  0  0  0  0  0  0  0  0  0  0  0
  -22.7340  -12.1270   22.3170 H   0  0  0  0  0  0  0  0  0  0  0  0
  -21.4630  -13.2980   22.1130 H   0  0  0  0  0  0  0  0  0  0  0  0
  -25.7990  -15.2000   20.1080 N   0  0  0  0  0  0  0  0  0  0  0  0
  -25.0750  -15.8940   20.2440 H   0  0  0  0  0  0  0  0  0  0  0  0
  -26.6970  -15.6010   19.8460 H   0  0  0  0  0  0  0  0  0  0  0  0
  1 48  1  0
  2  1  1  0
  2  3  1  0
  4  3  1  0
  4  5  1  0
  5  6  1  0
  6  7  1  0
  8 19  2  0
  9  7  1  0
  9 14  1  0
 10 18  1  0
 10 20  1  0
 11 13  1  0
 12 18  1  0
 13 14  2  0
 13 12  1  0
 15  9  2  0
 16 15  1  0
 16 11  2  0
 17 11  1  0
 17 10  1  0
 18  8  1  0
 20 22  2  0
 21 20  1  0
 23 21  1  0
 24 33  2  0
 24 29  1  0
 25 21  1  0
 25 29  1  0
 26 25  1  0
 27 28  1  0
 27 26  1  0
 28 24  1  0
 29 30  2  0
 30 31  1  0
 32 31  2  0
 33 32  1  0
 34  8  1  0
 34 39  1  0
 34 35  1  0
 35 38  1  1
 35 36  1  0
 37 35  1  0
 39 42  1  0
 40 44  1  0
 40 39  1  0
 41 40  2  0
 44 43  1  0
 46 44  1  0
 46 47  1  0
 46 45  1  0
 48 49  1  0
 49 50  1  0
 50 52  1  0
 51 52  1  0
 51 55  1  0
 52 54  1  0
 53 51  2  0
 55 56  1  0
 57 65  1  0
 58 63  1  0
 59 60  1  0
 59 58  1  0
 61 60  1  0
 61 70  1  0
 61 62  1  0
 63 57  1  0
 63 62  1  0
 64 57  2  0
 65 56  1  0
 65 66  1  0
 67 68  2  0
 68 87  1  0
 69 68  1  0
 69 72  1  0
 70 67  1  0
 70 71  1  0
 71 69  2  0
 72 73  1  0
 73 74  2  0
 75 78  1  0
 75 74  1  0
 76 75  2  0
 77 76  1  0
 77 72  2  0
 78 79  1  0
 79 80  1  0
 80 81  2  0
 82 81  1  0
 82 86  1  0
 83 82  2  0
 84 79  2  0
 84 83  1  0
 85 84  1  0
 87 88  1  0
 88 91  1  0
 88 90  1  0
 89 87  2  0
 92 93  1  0
 92 67  1  0
 94 92  1  0
M  ISO  4   6 101   7 101  57 100  65 100
M  END
>  <TORSDO>  (89) 
F 27

>  <SCORE>  (89) 
-10.583

>  <name>  (89) 
95

>  <ligand_id>  (89) 
95

>  <original_smiles>  (89) 
[H]c1c([H])c([H])c2c(c1[H])C([H])([H])C([H])([H])C([H])([H])C2([H])N([H])C(=O)C1([H])N(C(=O)C([H])(N([H])C(=O)C([H])(N([H])C([H])([H])[H])C([H])([H])[H])C(C([H])([H])[H])(C([H])([H])[H])C([H])([H])[H])C([H])([H])c2c([H])c(OC([H])([H])C([H])([H])C([H])([H])OC([H])([H])C([H])([H])OC([H])([H])C([H])([H])N([H])C(=O)C([H])([H])C([H])([H])N([H])C(=O)N3C([H])([H])C([H])([H])C([H])([H])C([H])(n4nc(-c5c([H])c([H])c(Oc6c([H])c([H])c(F)c([H])c6F)c([H])c5[H])c(C(=O)N([H])[H])c4N([H])[H])C3([H])[H])c([H])c([H])c2C1([H])[H]

>  <smiles>  (89) 
[H]c1c([H])c([H])c2c(c1[H])C([H])([H])C([H])([H])C([H])([H])C2([H])N([H])C(=O)C1([H])N(C(=O)C([H])(N([H])C(=O)C([H])(N([H])C([H])([H])[H])C([H])([H])[H])C(C([H])([H])[H])(C([H])([H])[H])C([H])([H])[H])C([H])([H])c2c([H])c(OC([H])([H])C([H])([H])C([H])([H])OC([H])([H])C([H])([H])OC([H])([H])C([H])([H])N([H])C(=O)C([H])([H])C([H])([H])N([H])C(=O)N3C([H])([H])C([H])([H])C([H])([H])C([H])(n4nc(-c5c([H])c([H])c(Oc6c([H])c([H])c(F)c([H])c6F)c([H])c5[H])c(C(=O)N([H])[H])c4N([H])[H])C3([H])[H])c([H])c([H])c2C1([H])[H]

$$$$
96:0:0
     RDKit          3D

113120  0  0  1  0  0  0  0  0999 V2000
  -27.3350  -23.8700   21.3320 C   0  0  0  0  0  0  0  0  0  0  0  0
  -28.1610  -22.9470   21.8270 N   0  0  0  0  0  0  0  0  0  0  0  0
  -26.0920  -23.7590   21.8130 N   0  0  0  0  0  0  0  0  0  0  0  0
  -27.6720  -24.7030   20.4910 O   0  0  0  0  0  0  0  0  0  0  0  0
  -27.8270  -22.3170   22.5350 H   0  0  0  0  0  0  0  0  0  0  0  0
  -25.9120  -23.0410   22.4990 H   0  0  0  0  0  0  0  0  0  0  0  0
  -24.9160  -24.4690   21.2990 C   0  0  0  0  0  3  0  0  0  0  0  0
  -23.8030  -24.9560   23.5730 C   0  0  0  0  0  1  0  0  0  0  0  0
  -23.6980  -24.2440   22.2160 C   0  0  0  0  0  2  0  0  0  0  0  0
  -24.6270  -24.0060   19.8580 C   0  0  0  0  0  2  0  0  0  0  0  0
  -25.4370  -24.7560   18.9710 O   0  0  0  0  0  0  0  0  0  0  0  0
  -25.1190  -24.5680   17.6020 C   0  0  0  0  0  2  0  0  0  0  0  0
  -26.0740  -25.4800   16.8310 C   0  0  0  0  0  2  0  0  0  0  0  0
  -26.0140  -25.3630   15.3060 C   0  0  0  0  0  2  0  0  0  0  0  0
  -27.1510  -26.0740   14.8420 O   0  0  0  0  0  0  0  0  0  0  0  0
  -27.5280  -25.7880   13.5080 C   0  0  0  0  0  2  0  0  0  0  0  0
  -28.8710  -26.4880   13.2300 C   0  0  0  0  0  2  0  0  0  0  0  0
  -30.0250  -25.7680   13.6820 O   0  0  0  0  0  0  0  0  0  0  0  0
  -30.3700  -25.8460   15.0690 C   0  0  0  0  0  2  0  0  0  0  0  0
  -29.8790  -24.5970   15.8240 C   0  0  0  0  0  2  0  0  0  0  0  0
  -30.8590  -23.9080   16.8050 C   0  0  0  0  0  2  0  0  0  0  0  0
  -30.1430  -22.7020   17.4530 C   0  0  0  0  0  2  0  0  0  0  0  0
  -30.9550  -21.7630   18.3780 C   0  0  0  0  0  2  0  0  0  0  0  0
  -30.4840  -19.4060   18.8620 C   0  0  0  0  0  0  0  0  0  0  0  0
  -30.1560  -17.7790   17.0900 C   0  0  0  0  0  2  0  0  0  0  0  0
  -30.0350  -18.6090   15.7950 C   0  0  0  0  0  2  0  0  0  0  0  0
  -28.5700  -19.0190   15.5480 C   0  0  0  0  0  2  0  0  0  0  0  0
  -27.8830  -19.6210   16.7990 C   0  0  0  0  0  3  0  0  0  0  0  0
  -28.1720  -18.7940   18.0750 C   0  0  0  0  0  2  0  0  0  0  0  0
  -29.6290  -18.6030   18.1840 N   0  0  0  0  0  0  0  0  0  0  0  0
  -31.6640  -19.1290   19.0850 O   0  0  0  0  0  0  0  0  0  0  0  0
  -30.0880  -20.6820   18.8730 N   0  0  0  0  0  0  0  0  0  0  0  0
  -29.0970  -20.8220   18.7720 H   0  0  0  0  0  0  0  0  0  0  0  0
  -25.6310  -20.8130   17.1240 C   0  0  0  0  0  0  0  0  0  0  0  0
  -24.4050  -20.6200   16.5410 C   0  0  0  0  0  0  0  0  0  0  0  0
  -24.5690  -19.5200   15.6430 C   0  0  0  0  0  0  0  0  0  0  0  0
  -26.4610  -19.8410   16.5850 N   0  0  0  0  0  0  0  0  0  0  0  0
  -25.7950  -19.0260   15.7320 N   0  0  0  0  0  0  0  0  0  0  0  0
  -23.6460  -18.9400   14.6620 C   0  0  0  0  0  0  0  0  0  0  0  0
  -23.7590  -17.5940   14.2580 C   0  0  0  0  0  3  0  0  0  0  0  0
  -22.8470  -17.0470   13.3300 C   0  0  0  0  0  3  0  0  0  0  0  0
  -21.8120  -17.8520   12.7970 C   0  0  0  0  0  0  0  0  0  0  0  0
  -21.7200  -19.2010   13.1850 C   0  0  0  0  0  3  0  0  0  0  0  0
  -22.6310  -19.7430   14.1070 C   0  0  0  0  0  3  0  0  0  0  0  0
  -20.8990  -17.4170   11.8690 O   0  0  0  0  0  0  0  0  0  0  0  0
  -21.1560  -16.3450   11.0520 C   0  0  0  0  0  0  0  0  0  0  0  0
  -20.5580  -15.0850   11.2700 C   0  0  0  0  0  3  0  0  0  0  0  0
  -20.7910  -14.0290   10.3680 C   0  0  0  0  0  3  0  0  0  0  0  0
  -21.6170  -14.2330    9.2480 C   0  0  0  0  0  0  0  0  0  0  0  0
  -22.2110  -15.4880    9.0270 C   0  0  0  0  0  3  0  0  0  0  0  0
  -21.9790  -16.5400    9.9250 C   0  0  0  0  0  0  0  0  0  0  0  0
  -22.5340  -17.7550    9.6960 F   0  0  0  0  0  0  0  0  0  0  0  0
  -21.8390  -13.2210    8.3780 F   0  0  0  0  0  0  0  0  0  0  0  0
  -23.1810  -21.4640   16.7290 C   0  0  0  0  0  0  0  0  0  0  0  0
  -21.9980  -20.8630   16.6170 N   0  0  0  0  0  0  0  0  0  0  0  0
  -23.2660  -22.6520   17.0300 O   0  0  0  0  0  0  0  0  0  0  0  0
  -21.9340  -19.8810   16.3940 H   0  0  0  0  0  0  0  0  0  0  0  0
  -21.1480  -21.3890   16.7690 H   0  0  0  0  0  0  0  0  0  0  0  0
  -26.1120  -21.7410   18.0470 N   0  0  0  0  0  0  0  0  0  0  0  0
  -25.5400  -22.4940   18.4080 H   0  0  0  0  0  0  0  0  0  0  0  0
  -27.0810  -21.8080   18.3320 H   0  0  0  0  0  0  0  0  0  0  0  0
  -29.5590  -22.7670   21.4220 C   0  0  0  0  0  3  0  0  0  0  0  0
  -31.7390  -21.5680   22.0920 C   0  0  0  0  0  1  0  0  0  0  0  0
  -29.9450  -21.8080   23.8140 C   0  0  0  0  0  1  0  0  0  0  0  0
  -29.6260  -20.2980   21.8390 C   0  0  0  0  0  1  0  0  0  0  0  0
  -30.2080  -21.6440   22.2990 C   0  0  1  0  0  0  0  0  0  0  0  0
  -30.3030  -24.1130   21.5190 C   0  0  0  0  0  0  0  0  0  0  0  0
  -30.8080  -24.5840   20.3750 N   0  0  0  0  0  0  0  0  0  0  0  0
  -30.4130  -24.7040   22.5980 O   0  0  0  0  0  0  0  0  0  0  0  0
  -30.6850  -24.0180   19.5450 H   0  0  0  0  0  0  0  0  0  0  0  0
  -31.4270  -25.8900   20.1940 C   0  0  0  0  0  2  0  0  0  0  0  0
  -30.3470  -26.9550   19.9790 C   0  0  0  0  0  2  0  0  0  0  0  0
  -29.5760  -27.0890   21.1670 O   0  0  0  0  0  0  0  0  0  0  0  0
  -24.7630  -31.8940   23.1970 C   0  0  0  0  0  0  0  0  0  0  0  0
  -28.3490  -27.6480   20.9520 C   0  0  0  0  0  0  0  0  0  0  0  0
  -24.0210  -30.2920   21.4610 C   0  0  0  0  0  3  0  0  0  0  0  0
  -25.8530  -28.8400   20.4430 C   0  0  0  0  0  0  0  0  0  0  0  0
  -26.4880  -30.9110   21.6990 C   0  0  0  0  0  2  0  0  0  0  0  0
  -26.8180  -29.5260   21.1920 C   0  0  0  0  0  0  0  0  0  0  0  0
  -28.0660  -28.9300   21.4580 C   0  0  0  0  0  3  0  0  0  0  0  0
  -27.3700  -26.9510   20.2170 C   0  0  0  0  0  3  0  0  0  0  0  0
  -26.1180  -27.5440   19.9600 C   0  0  0  0  0  3  0  0  0  0  0  0
  -24.5480  -29.5600   20.1960 C   0  0  0  0  0  2  0  0  0  0  0  0
  -25.0950  -31.0500   22.1790 N   0  0  0  0  0  0  0  0  0  0  0  0
  -23.5800  -32.0810   23.5120 O   0  0  0  0  0  0  0  0  0  0  0  0
  -23.2990  -29.2610   22.3570 C   0  0  0  0  0  0  0  0  0  0  0  0
  -22.0080  -29.0240   22.0710 N   0  0  0  0  0  0  0  0  0  0  0  0
  -23.9000  -28.6750   23.2610 O   0  0  0  0  0  0  0  0  0  0  0  0
  -21.5860  -29.5490   21.3180 H   0  0  0  0  0  0  0  0  0  0  0  0
  -18.5630  -28.0510   22.5420 C   0  0  0  0  0  0  0  0  0  0  0  0
  -21.1380  -28.0660   22.7530 C   0  0  0  0  0  3  0  0  0  0  0  0
  -21.1060  -26.7130   22.0050 C   0  0  0  0  0  2  0  0  0  0  0  0
  -19.9550  -26.6060   21.0000 C   0  0  0  0  0  2  0  0  0  0  0  0
  -18.6080  -26.7840   21.7050 C   0  0  0  0  0  2  0  0  0  0  0  0
  -19.7510  -28.6610   23.0200 C   0  0  0  0  0  0  0  0  0  0  0  0
  -19.6570  -29.8590   23.7640 C   0  0  0  0  0  3  0  0  0  0  0  0
  -18.4040  -30.4410   24.0330 C   0  0  0  0  0  3  0  0  0  0  0  0
  -17.2290  -29.8240   23.5710 C   0  0  0  0  0  3  0  0  0  0  0  0
  -17.3090  -28.6290   22.8330 C   0  0  0  0  0  3  0  0  0  0  0  0
  -25.8490  -32.6820   23.9960 C   0  0  0  0  0  3  0  0  0  0  0  0
  -26.2350  -31.9960   25.3630 C   0  0  1  0  0  0  0  0  0  0  0  0
  -25.0150  -31.5430   26.1970 C   0  0  0  0  0  1  0  0  0  0  0  0
  -27.1290  -30.7560   25.1190 C   0  0  0  0  0  1  0  0  0  0  0  0
  -27.0650  -32.9760   26.2260 C   0  0  0  0  0  1  0  0  0  0  0  0
  -25.3350  -34.0380   24.2200 N   0  0  0  0  0  0  0  0  0  0  0  0
  -25.6470  -35.1020   23.4670 C   0  0  0  0  0  0  0  0  0  0  0  0
  -26.4670  -35.0550   22.5470 O   0  0  0  0  0  0  0  0  0  0  0  0
  -24.6180  -34.1400   24.9220 H   0  0  0  0  0  0  0  0  0  0  0  0
  -23.7620  -36.6340   22.8210 C   0  0  0  0  0  1  0  0  0  0  0  0
  -24.9380  -36.4310   23.7900 C   0  0  0  0  0  3  0  0  0  0  0  0
  -26.8370  -37.6130   24.8000 C   0  0  0  0  0  1  0  0  0  0  0  0
  -25.8360  -37.6060   23.7390 N   0  0  0  0  0  0  0  0  0  0  0  0
  -25.3000  -38.4690   23.7980 H   0  0  0  0  0  0  0  0  0  0  0  0
  1  3  1  0
  1  2  1  0
  2  5  1  0
  3  6  1  0
  4  1  2  0
  7 10  1  0
  7  3  1  0
  7  9  1  0
  9  8  1  0
 11 10  1  0
 12 11  1  0
 13 12  1  0
 14 13  1  0
 15 14  1  0
 16 15  1  0
 17 16  1  0
 17 18  1  0
 18 19  1  0
 19 20  1  0
 20 21  1  0
 21 22  1  0
 22 23  1  0
 23 32  1  0
 24 32  1  0
 24 31  2  0
 25 30  1  0
 26 25  1  0
 27 26  1  0
 28 27  1  0
 28 29  1  0
 29 30  1  0
 30 24  1  0
 33 32  1  0
 34 59  1  0
 35 54  1  0
 35 34  2  0
 36 38  2  0
 36 35  1  0
 37 28  1  0
 37 34  1  0
 38 37  1  0
 39 36  1  0
 40 39  1  0
 41 40  2  0
 42 43  2  0
 42 41  1  0
 43 44  1  0
 44 39  2  0
 45 42  1  0
 46 47  1  0
 46 45  1  0
 48 47  2  0
 49 48  1  0
 50 49  2  0
 50 51  1  0
 51 46  2  0
 52 51  1  0
 53 49  1  0
 54 56  2  0
 55 54  1  0
 55 58  1  0
 57 55  1  0
 59 61  1  0
 59 60  1  0
 62 67  1  0
 62  2  1  0
 62 66  1  0
 66 63  1  1
 65 66  1  0
 66 64  1  0
 67 69  2  0
 68 67  1  0
 70 68  1  0
 71 68  1  0
 72 71  1  0
 72 73  1  0
 74 85  2  0
 75 73  1  0
 75 80  1  0
 76 84  1  0
 76 86  1  0
 77 79  1  0
 78 84  1  0
 79 80  2  0
 79 78  1  0
 81 75  2  0
 82 81  1  0
 82 77  2  0
 83 77  1  0
 83 76  1  0
 84 74  1  0
 86 88  2  0
 87 86  1  0
 89 87  1  0
 90 99  2  0
 90 95  1  0
 91 87  1  0
 91 95  1  0
 92 91  1  0
 93 94  1  0
 93 92  1  0
 94 90  1  0
 95 96  2  0
 96 97  1  0
 98 97  2  0
 99 98  1  0
100 74  1  0
100105  1  0
100101  1  0
101102  1  1
101104  1  0
103101  1  0
105108  1  0
106110  1  0
106105  1  0
107106  2  0
110109  1  0
112110  1  0
112113  1  0
112111  1  0
M  ISO  4  24 100  32 100  72 101  73 101
M  END
>  <TORSDO>  (90) 
F 37

>  <SCORE>  (90) 
26.706

>  <name>  (90) 
96

>  <ligand_id>  (90) 
96

>  <original_smiles>  (90) 
[H]c1c([H])c([H])c2c(c1[H])C([H])([H])C([H])([H])C([H])([H])C2([H])N([H])C(=O)C1([H])N(C(=O)C([H])(N([H])C(=O)C([H])(N([H])C([H])([H])[H])C([H])([H])[H])C(C([H])([H])[H])(C([H])([H])[H])C([H])([H])[H])C([H])([H])c2c([H])c(OC([H])([H])C([H])([H])N([H])C(=O)C([H])(N([H])C(=O)N([H])C([H])(C([H])([H])OC([H])([H])C([H])([H])C([H])([H])OC([H])([H])C([H])([H])OC([H])([H])C([H])([H])C([H])([H])C([H])([H])C([H])([H])N([H])C(=O)N3C([H])([H])C([H])([H])C([H])([H])C([H])(n4nc(-c5c([H])c([H])c(Oc6c([H])c([H])c(F)c([H])c6F)c([H])c5[H])c(C(=O)N([H])[H])c4N([H])[H])C3([H])[H])C([H])([H])C([H])([H])[H])C(C([H])([H])[H])(C([H])([H])[H])C([H])([H])[H])c([H])c([H])c2C1([H])[H]

>  <smiles>  (90) 
[H]c1c([H])c([H])c2c(c1[H])C([H])([H])C([H])([H])C([H])([H])C2([H])N([H])C(=O)C1([H])N(C(=O)C([H])(N([H])C(=O)C([H])(N([H])C([H])([H])[H])C([H])([H])[H])C(C([H])([H])[H])(C([H])([H])[H])C([H])([H])[H])C([H])([H])c2c([H])c(OC([H])([H])C([H])([H])N([H])C(=O)C([H])(N([H])C(=O)N([H])C([H])(C([H])([H])OC([H])([H])C([H])([H])C([H])([H])OC([H])([H])C([H])([H])OC([H])([H])C([H])([H])C([H])([H])C([H])([H])C([H])([H])N([H])C(=O)N3C([H])([H])C([H])([H])C([H])([H])C([H])(n4nc(-c5c([H])c([H])c(Oc6c([H])c([H])c(F)c([H])c6F)c([H])c5[H])c(C(=O)N([H])[H])c4N([H])[H])C3([H])[H])C([H])([H])C([H])([H])[H])C(C([H])([H])[H])(C([H])([H])[H])C([H])([H])[H])c([H])c([H])c2C1([H])[H]

$$$$
