0:0:0
     RDKit          3D

100107  0  0  1  0  0  0  0  0999 V2000
  -31.3650  -23.7320   20.7890 C   0  0  0  0  0  2  0  0  0  0  0  0
  -30.8380  -24.4250   22.0650 C   0  0  0  0  0  2  0  0  0  0  0  0
  -29.7940  -23.6860   22.6870 O   0  0  0  0  0  0  0  0  0  0  0  0
  -30.1520  -22.3990   23.1830 C   0  0  0  0  0  2  0  0  0  0  0  0
  -28.9160  -21.4930   23.0550 C   0  0  0  0  0  2  0  0  0  0  0  0
  -28.3500  -21.6350   21.7540 O   0  0  0  0  0  0  0  0  0  0  0  0
  -28.6260  -20.5990   20.8180 C   0  0  0  0  0  2  0  0  0  0  0  0
  -30.0760  -20.5360   20.2970 C   0  0  0  0  0  2  0  0  0  0  0  0
  -30.9080  -19.6810   21.0800 O   0  0  0  0  0  0  0  0  0  0  0  0
  -32.0350  -19.1630   20.3610 C   0  0  0  0  0  2  0  0  0  0  0  0
  -32.2810  -17.7030   20.7940 C   0  0  0  0  0  2  0  0  0  0  0  0
  -30.9710  -16.8990   20.6540 C   0  0  0  0  0  2  0  0  0  0  0  0
  -31.5530  -14.4910   20.2290 C   0  0  0  0  0  0  0  0  0  0  0  0
  -31.0940  -12.3170   19.1610 C   0  0  0  0  0  2  0  0  0  0  0  0
  -30.1740  -12.5520   17.9500 C   0  0  0  0  0  2  0  0  0  0  0  0
  -28.6920  -12.5710   18.3700 C   0  0  0  0  0  2  0  0  0  0  0  0
  -28.4230  -13.4880   19.5940 C   0  0  0  0  0  3  0  0  0  0  0  0
  -29.4470  -13.1960   20.7160 C   0  0  0  0  0  2  0  0  0  0  0  0
  -30.8040  -13.3580   20.1580 N   0  0  0  0  0  0  0  0  0  0  0  0
  -32.6120  -14.6510   19.6190 O   0  0  0  0  0  0  0  0  0  0  0  0
  -30.9890  -15.4690   20.9540 N   0  0  0  0  0  0  0  0  0  0  0  0
  -30.1930  -15.1590   21.4930 H   0  0  0  0  0  0  0  0  0  0  0  0
  -26.1000  -14.3480   20.3120 C   0  0  0  0  0  0  0  0  0  0  0  0
  -24.9530  -13.6900   20.6680 C   0  0  0  0  0  0  0  0  0  0  0  0
  -25.2620  -12.2960   20.6050 C   0  0  0  0  0  0  0  0  0  0  0  0
  -27.0450  -13.3590   20.0630 N   0  0  0  0  0  0  0  0  0  0  0  0
  -26.5390  -12.1200   20.2940 N   0  0  0  0  0  0  0  0  0  0  0  0
  -24.3980  -11.1200   20.7690 C   0  0  0  0  0  0  0  0  0  0  0  0
  -24.7240  -10.0890   21.6760 C   0  0  0  0  0  3  0  0  0  0  0  0
  -23.8680   -8.9770   21.8320 C   0  0  0  0  0  3  0  0  0  0  0  0
  -22.6740   -8.8870   21.0810 C   0  0  0  0  0  0  0  0  0  0  0  0
  -22.3640   -9.9090   20.1630 C   0  0  0  0  0  3  0  0  0  0  0  0
  -23.2170  -11.0130   20.0050 C   0  0  0  0  0  3  0  0  0  0  0  0
  -21.7990   -7.8290   21.1410 O   0  0  0  0  0  0  0  0  0  0  0  0
  -21.6630   -7.0740   22.2800 C   0  0  0  0  0  0  0  0  0  0  0  0
  -21.3120   -7.6540   23.5190 C   0  0  0  0  0  3  0  0  0  0  0  0
  -21.1080   -6.8370   24.6480 C   0  0  0  0  0  3  0  0  0  0  0  0
  -21.2480   -5.4380   24.5410 C   0  0  0  0  0  0  0  0  0  0  0  0
  -21.5960   -4.8590   23.3080 C   0  0  0  0  0  3  0  0  0  0  0  0
  -21.7990   -5.6760   22.1800 C   0  0  0  0  0  0  0  0  0  0  0  0
  -22.1090   -5.1080   20.9900 F   0  0  0  0  0  0  0  0  0  0  0  0
  -21.0510   -4.6510   25.6250 F   0  0  0  0  0  0  0  0  0  0  0  0
  -23.6170  -14.3140   20.9550 C   0  0  0  0  0  0  0  0  0  0  0  0
  -22.8250  -13.6920   21.8190 N   0  0  0  0  0  0  0  0  0  0  0  0
  -23.2890  -15.3890   20.4510 O   0  0  0  0  0  0  0  0  0  0  0  0
  -23.0990  -12.8220   22.2470 H   0  0  0  0  0  0  0  0  0  0  0  0
  -21.9280  -14.0940   22.0510 H   0  0  0  0  0  0  0  0  0  0  0  0
  -26.4110  -15.6970   20.1700 N   0  0  0  0  0  0  0  0  0  0  0  0
  -25.7170  -16.4240   20.3050 H   0  0  0  0  0  0  0  0  0  0  0  0
  -27.3010  -16.0630   19.8600 H   0  0  0  0  0  0  0  0  0  0  0  0
  -31.9550  -24.6720   19.7180 C   0  0  0  0  0  2  0  0  0  0  0  0
  -30.8570  -26.8660   19.3320 C   0  0  0  0  0  0  0  0  0  0  0  0
  -30.9130  -25.5400   19.1870 N   0  0  0  0  0  0  0  0  0  0  0  0
  -31.8060  -27.5330   19.7580 O   0  0  0  0  0  0  0  0  0  0  0  0
  -30.0940  -25.1100   18.7720 H   0  0  0  0  0  0  0  0  0  0  0  0
  -29.5030  -27.5200   19.0410 C   0  0  0  0  0  3  0  0  0  0  0  0
  -29.2470  -27.8050   17.5360 C   0  0  0  0  0  2  0  0  0  0  0  0
  -29.1550  -26.6280   16.7450 O   0  0  0  0  0  0  0  0  0  0  0  0
  -29.0700  -26.8950   15.8360 H   0  0  0  0  0  0  0  0  0  0  0  0
  -28.4520  -26.7500   19.6460 O   0  0  0  0  0  0  0  0  0  0  0  0
  -24.5170  -31.6330   23.0700 C   0  0  0  0  0  0  0  0  0  0  0  0
  -27.2620  -27.4140   19.8100 C   0  0  0  0  0  0  0  0  0  0  0  0
  -23.3300  -30.2540   21.3890 C   0  0  0  0  0  3  0  0  0  0  0  0
  -24.8150  -28.8000   19.9150 C   0  0  0  0  0  0  0  0  0  0  0  0
  -25.8390  -30.6910   21.1920 C   0  0  0  0  0  2  0  0  0  0  0  0
  -25.9540  -29.3470   20.5130 C   0  0  0  0  0  0  0  0  0  0  0  0
  -27.1770  -28.6540   20.4790 C   0  0  0  0  0  3  0  0  0  0  0  0
  -26.1030  -26.8460   19.2490 C   0  0  0  0  0  3  0  0  0  0  0  0
  -24.8770  -27.5380   19.2940 C   0  0  0  0  0  3  0  0  0  0  0  0
  -23.5510  -29.6260   19.9850 C   0  0  0  0  0  2  0  0  0  0  0  0
  -24.5800  -30.8720   21.9420 N   0  0  0  0  0  0  0  0  0  0  0  0
  -23.4360  -31.8640   23.6270 O   0  0  0  0  0  0  0  0  0  0  0  0
  -22.7130  -29.1860   22.3180 C   0  0  0  0  0  0  0  0  0  0  0  0
  -21.3910  -28.9890   22.2050 N   0  0  0  0  0  0  0  0  0  0  0  0
  -23.4210  -28.5440   23.0980 O   0  0  0  0  0  0  0  0  0  0  0  0
  -20.8840  -29.5650   21.5460 H   0  0  0  0  0  0  0  0  0  0  0  0
  -18.0390  -27.7420   22.7090 C   0  0  0  0  0  0  0  0  0  0  0  0
  -20.5980  -28.0120   22.9490 C   0  0  0  0  0  3  0  0  0  0  0  0
  -20.7030  -26.6080   22.3120 C   0  0  0  0  0  2  0  0  0  0  0  0
  -19.5850  -26.3160   21.3050 C   0  0  0  0  0  2  0  0  0  0  0  0
  -18.2140  -26.4220   21.9780 C   0  0  0  0  0  2  0  0  0  0  0  0
  -19.1580  -28.4970   23.1510 C   0  0  0  0  0  0  0  0  0  0  0  0
  -18.9400  -29.7340   23.7940 C   0  0  0  0  0  3  0  0  0  0  0  0
  -17.6360  -30.2190   23.9990 C   0  0  0  0  0  3  0  0  0  0  0  0
  -16.5310  -29.4600   23.5760 C   0  0  0  0  0  3  0  0  0  0  0  0
  -16.7330  -28.2230   22.9390 C   0  0  0  0  0  3  0  0  0  0  0  0
  -25.7990  -32.2680   23.6990 C   0  0  0  0  0  3  0  0  0  0  0  0
  -26.3570  -31.4530   24.9310 C   0  0  1  0  0  0  0  0  0  0  0  0
  -25.2870  -31.1350   26.0000 C   0  0  0  0  0  1  0  0  0  0  0  0
  -26.9720  -30.1120   24.4670 C   0  0  0  0  0  1  0  0  0  0  0  0
  -27.4980  -32.2470   25.6090 C   0  0  0  0  0  1  0  0  0  0  0  0
  -25.4610  -33.6430   24.0910 N   0  0  0  0  0  0  0  0  0  0  0  0
  -25.7690  -34.7330   23.3710 C   0  0  0  0  0  0  0  0  0  0  0  0
  -26.4380  -34.6870   22.3360 O   0  0  0  0  0  0  0  0  0  0  0  0
  -24.8560  -33.7530   24.8900 H   0  0  0  0  0  0  0  0  0  0  0  0
  -23.9920  -36.4900   23.0970 C   0  0  0  0  0  1  0  0  0  0  0  0
  -25.2500  -36.0900   23.8850 C   0  0  0  0  0  3  0  0  0  0  0  0
  -27.3690  -36.9880   24.7340 C   0  0  0  0  0  1  0  0  0  0  0  0
  -26.2550  -37.1710   23.8070 N   0  0  0  0  0  0  0  0  0  0  0  0
  -25.8270  -38.0730   24.0020 H   0  0  0  0  0  0  0  0  0  0  0  0
  1  2  1  0
  2  3  1  0
  3  4  1  0
  5  4  1  0
  6  5  1  0
  7  6  1  0
  8  7  1  0
  8  9  1  0
 10 11  1  0
 10  9  1  0
 12 11  1  0
 12 21  1  0
 13 21  1  0
 14 19  1  0
 15 16  1  0
 15 14  1  0
 17 16  1  0
 17 26  1  0
 17 18  1  0
 19 13  1  0
 19 18  1  0
 20 13  2  0
 21 22  1  0
 23 24  2  0
 24 43  1  0
 25 24  1  0
 25 28  1  0
 26 27  1  0
 26 23  1  0
 27 25  2  0
 28 29  1  0
 29 30  2  0
 31 34  1  0
 31 30  1  0
 32 31  2  0
 33 32  1  0
 33 28  2  0
 34 35  1  0
 35 36  1  0
 36 37  2  0
 38 37  1  0
 38 42  1  0
 39 38  2  0
 40 35  2  0
 40 39  1  0
 41 40  1  0
 43 44  1  0
 44 47  1  0
 44 46  1  0
 45 43  2  0
 48 49  1  0
 48 23  1  0
 50 48  1  0
 51  1  1  0
 52 54  2  0
 53 52  1  0
 53 51  1  0
 55 53  1  0
 56 57  1  0
 56 52  1  0
 56 60  1  0
 58 57  1  0
 59 58  1  0
 60 62  1  0
 61 72  2  0
 62 67  1  0
 63 71  1  0
 63 73  1  0
 64 70  1  0
 64 66  1  0
 65 71  1  0
 66 65  1  0
 67 66  2  0
 68 69  1  0
 68 62  2  0
 69 64  2  0
 70 63  1  0
 71 61  1  0
 73 75  2  0
 74 73  1  0
 76 74  1  0
 77 86  2  0
 77 82  1  0
 78 74  1  0
 78 82  1  0
 79 78  1  0
 80 81  1  0
 80 79  1  0
 81 77  1  0
 82 83  2  0
 83 84  1  0
 85 84  2  0
 86 85  1  0
 87 61  1  0
 87 92  1  0
 87 88  1  0
 88 91  1  1
 88 89  1  0
 90 88  1  0
 92 95  1  0
 93 97  1  0
 93 92  1  0
 94 93  2  0
 97 96  1  0
 99 97  1  0
 99100  1  0
 99 98  1  0
M  ISO  4  13 100  21 100  56 101  60 101
M  END
>  <TORSDO>  (1) 
F 32

>  <SCORE>  (1) 
-8.946

>  <name>  (1) 
0

>  <ligand_id>  (1) 
0

>  <original_smiles>  (1) 
[H]OC([H])([H])C([H])(Oc1c([H])c([H])c2c(c1[H])C([H])([H])N(C(=O)C([H])(N([H])C(=O)C([H])(N([H])C([H])([H])[H])C([H])([H])[H])C(C([H])([H])[H])(C([H])([H])[H])C([H])([H])[H])C([H])(C(=O)N([H])C1([H])c3c([H])c([H])c([H])c([H])c3C([H])([H])C([H])([H])C1([H])[H])C2([H])[H])C(=O)N([H])C([H])([H])C([H])([H])C([H])([H])OC([H])([H])C([H])([H])OC([H])([H])C([H])([H])OC([H])([H])C([H])([H])C([H])([H])N([H])C(=O)N1C([H])([H])C([H])([H])C([H])([H])C([H])(n2nc(-c3c([H])c([H])c(Oc4c([H])c([H])c(F)c([H])c4F)c([H])c3[H])c(C(=O)N([H])[H])c2N([H])[H])C1([H])[H]

>  <smiles>  (1) 
[H]OC([H])([H])C([H])(Oc1c([H])c([H])c2c(c1[H])C([H])([H])N(C(=O)C([H])(N([H])C(=O)C([H])(N([H])C([H])([H])[H])C([H])([H])[H])C(C([H])([H])[H])(C([H])([H])[H])C([H])([H])[H])C([H])(C(=O)N([H])C1([H])c3c([H])c([H])c([H])c([H])c3C([H])([H])C([H])([H])C1([H])[H])C2([H])[H])C(=O)N([H])C([H])([H])C([H])([H])C([H])([H])OC([H])([H])C([H])([H])OC([H])([H])C([H])([H])OC([H])([H])C([H])([H])C([H])([H])N([H])C(=O)N1C([H])([H])C([H])([H])C([H])([H])C([H])(n2nc(-c3c([H])c([H])c(Oc4c([H])c([H])c(F)c([H])c4F)c([H])c3[H])c(C(=O)N([H])[H])c2N([H])[H])C1([H])[H]

$$$$
1:0:0
     RDKit          3D

104111  0  0  1  0  0  0  0  0999 V2000
  -32.6850  -25.5350   19.2040 C   0  0  0  0  0  3  0  0  0  0  0  0
  -32.0580  -26.6560   20.0500 C   0  0  0  0  0  0  0  0  0  0  0  0
  -32.2620  -26.6210   21.3730 N   0  0  0  0  0  0  0  0  0  0  0  0
  -31.4180  -27.5510   19.4910 O   0  0  0  0  0  0  0  0  0  0  0  0
  -32.8130  -25.8540   21.7340 H   0  0  0  0  0  0  0  0  0  0  0  0
  -31.6670  -27.5240   22.3570 C   0  0  0  0  0  2  0  0  0  0  0  0
  -30.6670  -26.7930   23.2750 C   0  0  0  0  0  2  0  0  0  0  0  0
  -29.4230  -26.5730   22.6220 O   0  0  0  0  0  0  0  0  0  0  0  0
  -29.3200  -25.3410   21.9160 C   0  0  0  0  0  2  0  0  0  0  0  0
  -28.1860  -25.4590   20.8930 C   0  0  0  0  0  2  0  0  0  0  0  0
  -28.3640  -26.6400   20.1000 O   0  0  0  0  0  0  0  0  0  0  0  0
  -24.5910  -31.8040   23.1700 C   0  0  0  0  0  0  0  0  0  0  0  0
  -27.2340  -27.4120   20.0510 C   0  0  0  0  0  0  0  0  0  0  0  0
  -23.3950  -30.4410   21.4870 C   0  0  0  0  0  3  0  0  0  0  0  0
  -24.8560  -28.9220   20.0530 C   0  0  0  0  0  0  0  0  0  0  0  0
  -25.9260  -30.7850   21.3310 C   0  0  0  0  0  2  0  0  0  0  0  0
  -26.0100  -29.4300   20.6630 C   0  0  0  0  0  0  0  0  0  0  0  0
  -27.2070  -28.6830   20.6610 C   0  0  0  0  0  3  0  0  0  0  0  0
  -26.0730  -26.9130   19.4270 C   0  0  0  0  0  3  0  0  0  0  0  0
  -24.8820  -27.6610   19.4300 C   0  0  0  0  0  3  0  0  0  0  0  0
  -23.6160  -29.7850   20.0980 C   0  0  0  0  0  2  0  0  0  0  0  0
  -24.6540  -31.0220   22.0550 N   0  0  0  0  0  0  0  0  0  0  0  0
  -23.5040  -32.0760   23.6980 O   0  0  0  0  0  0  0  0  0  0  0  0
  -22.7220  -29.4100   22.4200 C   0  0  0  0  0  0  0  0  0  0  0  0
  -21.3970  -29.2470   22.2740 N   0  0  0  0  0  0  0  0  0  0  0  0
  -23.3890  -28.7600   23.2280 O   0  0  0  0  0  0  0  0  0  0  0  0
  -20.9220  -29.8230   21.5930 H   0  0  0  0  0  0  0  0  0  0  0  0
  -18.0040  -28.0800   22.6990 C   0  0  0  0  0  0  0  0  0  0  0  0
  -20.5600  -28.3060   23.0170 C   0  0  0  0  0  3  0  0  0  0  0  0
  -20.6570  -26.8840   22.4180 C   0  0  0  0  0  2  0  0  0  0  0  0
  -19.5660  -26.5890   21.3820 C   0  0  0  0  0  2  0  0  0  0  0  0
  -18.1760  -26.7390   22.0060 C   0  0  0  0  0  2  0  0  0  0  0  0
  -19.1240  -28.8230   23.1600 C   0  0  0  0  0  0  0  0  0  0  0  0
  -18.9110  -30.0800   23.7650 C   0  0  0  0  0  3  0  0  0  0  0  0
  -17.6100  -30.5940   23.9190 C   0  0  0  0  0  3  0  0  0  0  0  0
  -16.5040  -29.8480   23.4750 C   0  0  0  0  0  3  0  0  0  0  0  0
  -16.7010  -28.5940   22.8710 C   0  0  0  0  0  3  0  0  0  0  0  0
  -25.8750  -32.4110   23.8180 C   0  0  0  0  0  3  0  0  0  0  0  0
  -26.4000  -31.5820   25.0520 C   0  0  1  0  0  0  0  0  0  0  0  0
  -25.3130  -31.2860   26.1130 C   0  0  0  0  0  1  0  0  0  0  0  0
  -26.9890  -30.2260   24.5920 C   0  0  0  0  0  1  0  0  0  0  0  0
  -27.5510  -32.3470   25.7450 C   0  0  0  0  0  1  0  0  0  0  0  0
  -25.5590  -33.7900   24.2150 N   0  0  0  0  0  0  0  0  0  0  0  0
  -25.8850  -34.8780   23.5040 C   0  0  0  0  0  0  0  0  0  0  0  0
  -26.5540  -34.8270   22.4680 O   0  0  0  0  0  0  0  0  0  0  0  0
  -24.9630  -33.9040   25.0220 H   0  0  0  0  0  0  0  0  0  0  0  0
  -24.1360  -36.6680   23.2420 C   0  0  0  0  0  1  0  0  0  0  0  0
  -25.3880  -36.2410   24.0250 C   0  0  0  0  0  3  0  0  0  0  0  0
  -27.5260  -37.1010   24.8690 C   0  0  0  0  0  1  0  0  0  0  0  0
  -26.4090  -37.3080   23.9510 N   0  0  0  0  0  0  0  0  0  0  0  0
  -26.0000  -38.2170   24.1490 H   0  0  0  0  0  0  0  0  0  0  0  0
  -33.2280  -26.1200   18.0320 O   0  0  0  0  0  0  0  0  0  0  0  0
  -32.5530  -26.7200   17.7220 H   0  0  0  0  0  0  0  0  0  0  0  0
  -31.6660  -24.4390   18.8060 C   0  0  0  0  0  2  0  0  0  0  0  0
  -31.7680  -23.3290   19.6960 O   0  0  0  0  0  0  0  0  0  0  0  0
  -30.8990  -22.2540   19.3590 C   0  0  0  0  0  2  0  0  0  0  0  0
  -31.3580  -20.9960   20.1120 C   0  0  0  0  0  2  0  0  0  0  0  0
  -30.4640  -19.7690   19.8470 C   0  0  0  0  0  2  0  0  0  0  0  0
  -30.2920  -17.4300   20.6750 C   0  0  0  0  0  0  0  0  0  0  0  0
  -30.9280  -18.6060   20.6030 N   0  0  0  0  0  0  0  0  0  0  0  0
  -29.2660  -17.1930   20.0300 O   0  0  0  0  0  0  0  0  0  0  0  0
  -31.7800  -18.7090   21.1380 H   0  0  0  0  0  0  0  0  0  0  0  0
  -30.8810  -16.3770   21.6390 C   0  0  0  0  0  3  0  0  0  0  0  0
  -30.9020  -14.2930   20.2740 C   0  0  0  0  0  0  0  0  0  0  0  0
  -30.5390  -12.2620   18.9270 C   0  0  0  0  0  2  0  0  0  0  0  0
  -29.5610  -12.5450   17.7720 C   0  0  0  0  0  2  0  0  0  0  0  0
  -28.1030  -12.3660   18.2390 C   0  0  0  0  0  2  0  0  0  0  0  0
  -27.8020  -13.1300   19.5560 C   0  0  0  0  0  3  0  0  0  0  0  0
  -28.8810  -12.8250   20.6160 C   0  0  0  0  0  2  0  0  0  0  0  0
  -30.2020  -13.1540   20.0430 N   0  0  0  0  0  0  0  0  0  0  0  0
  -31.8990  -14.6330   19.6300 O   0  0  0  0  0  0  0  0  0  0  0  0
  -30.4430  -15.0310   21.2830 N   0  0  0  0  0  0  0  0  0  0  0  0
  -29.6270  -14.7060   21.7780 H   0  0  0  0  0  0  0  0  0  0  0  0
  -25.4210  -13.6920   20.3640 C   0  0  0  0  0  0  0  0  0  0  0  0
  -24.3650  -12.8960   20.7190 C   0  0  0  0  0  0  0  0  0  0  0  0
  -24.8270  -11.5500   20.5950 C   0  0  0  0  0  0  0  0  0  0  0  0
  -26.4600  -12.8280   20.0530 N   0  0  0  0  0  0  0  0  0  0  0  0
  -26.1060  -11.5310   20.2430 N   0  0  0  0  0  0  0  0  0  0  0  0
  -24.1080  -10.2760   20.7350 C   0  0  0  0  0  0  0  0  0  0  0  0
  -24.6070   -9.2320   21.5450 C   0  0  0  0  0  3  0  0  0  0  0  0
  -23.8900   -8.0230   21.6770 C   0  0  0  0  0  3  0  0  0  0  0  0
  -22.6620   -7.8510   20.9980 C   0  0  0  0  0  0  0  0  0  0  0  0
  -22.1790   -8.8830   20.1740 C   0  0  0  0  0  3  0  0  0  0  0  0
  -22.8970  -10.0840   20.0400 C   0  0  0  0  0  3  0  0  0  0  0  0
  -21.9090   -6.7030   21.0440 O   0  0  0  0  0  0  0  0  0  0  0  0
  -21.9830   -5.8350   22.1050 C   0  0  0  0  0  0  0  0  0  0  0  0
  -21.7510   -6.2610   23.4310 C   0  0  0  0  0  3  0  0  0  0  0  0
  -21.7670   -5.3240   24.4840 C   0  0  0  0  0  3  0  0  0  0  0  0
  -22.0090   -3.9630   24.2130 C   0  0  0  0  0  0  0  0  0  0  0  0
  -22.2330   -3.5380   22.8910 C   0  0  0  0  0  3  0  0  0  0  0  0
  -22.2190   -4.4710   21.8410 C   0  0  0  0  0  0  0  0  0  0  0  0
  -22.4160   -4.0520   20.5670 F   0  0  0  0  0  0  0  0  0  0  0  0
  -22.0160   -3.0610   25.2220 F   0  0  0  0  0  0  0  0  0  0  0  0
  -22.9760  -13.3540   21.0630 C   0  0  0  0  0  0  0  0  0  0  0  0
  -22.2800  -12.6090   21.9150 N   0  0  0  0  0  0  0  0  0  0  0  0
  -22.5170  -14.4030   20.6160 O   0  0  0  0  0  0  0  0  0  0  0  0
  -22.6620  -11.7610   22.3040 H   0  0  0  0  0  0  0  0  0  0  0  0
  -21.3500  -12.8990   22.1870 H   0  0  0  0  0  0  0  0  0  0  0  0
  -25.5780  -15.0710   20.2640 N   0  0  0  0  0  0  0  0  0  0  0  0
  -24.8170  -15.7170   20.4450 H   0  0  0  0  0  0  0  0  0  0  0  0
  -26.4270  -15.5320   19.9610 H   0  0  0  0  0  0  0  0  0  0  0  0
  -30.3930  -16.6170   23.0870 C   0  0  0  0  0  2  0  0  0  0  0  0
  -29.0250  -16.2500   23.2710 O   0  0  0  0  0  0  0  0  0  0  0  0
  -28.4870  -16.8150   22.7260 H   0  0  0  0  0  0  0  0  0  0  0  0
  1 54  1  0
  1  2  1  0
  2  3  1  0
  3  5  1  0
  3  6  1  0
  4  2  2  0
  6  7  1  0
  8  7  1  0
  9  8  1  0
 10  9  1  0
 11 10  1  0
 12 23  2  0
 13 11  1  0
 13 18  1  0
 14 22  1  0
 14 24  1  0
 15 21  1  0
 15 17  1  0
 16 22  1  0
 17 16  1  0
 18 17  2  0
 19 20  1  0
 19 13  2  0
 20 15  2  0
 21 14  1  0
 22 12  1  0
 24 26  2  0
 25 24  1  0
 27 25  1  0
 28 37  2  0
 28 33  1  0
 29 25  1  0
 29 33  1  0
 30 29  1  0
 31 32  1  0
 31 30  1  0
 32 28  1  0
 33 34  2  0
 34 35  1  0
 36 35  2  0
 37 36  1  0
 38 12  1  0
 38 43  1  0
 38 39  1  0
 39 42  1  1
 39 40  1  0
 41 39  1  0
 43 46  1  0
 44 48  1  0
 44 43  1  0
 45 44  2  0
 48 47  1  0
 50 48  1  0
 50 51  1  0
 50 49  1  0
 52  1  1  0
 53 52  1  0
 54 55  1  0
 56 55  1  0
 56 57  1  0
 58 57  1  0
 58 60  1  0
 59 63  1  0
 60 59  1  0
 60 62  1  0
 61 59  2  0
 63102  1  0
 64 72  1  0
 65 70  1  0
 66 67  1  0
 66 65  1  0
 68 67  1  0
 68 77  1  0
 68 69  1  0
 70 64  1  0
 70 69  1  0
 71 64  2  0
 72 63  1  0
 72 73  1  0
 74 75  2  0
 75 94  1  0
 76 75  1  0
 76 79  1  0
 77 78  1  0
 77 74  1  0
 78 76  2  0
 79 80  1  0
 80 81  2  0
 82 85  1  0
 82 81  1  0
 83 82  2  0
 84 83  1  0
 84 79  2  0
 85 86  1  0
 86 87  1  0
 87 88  2  0
 89 88  1  0
 89 93  1  0
 90 89  2  0
 91 86  2  0
 91 90  1  0
 92 91  1  0
 94 95  1  0
 95 98  1  0
 95 97  1  0
 96 94  2  0
 99 74  1  0
 99100  1  0
101 99  1  0
102103  1  0
104103  1  0
M  ISO  4  10 101  11 101  64 100  72 100
M  END
>  <TORSDO>  (2) 
F 32

>  <SCORE>  (2) 
-7.382

>  <name>  (2) 
1

>  <ligand_id>  (2) 
1

>  <original_smiles>  (2) 
[H]OC([H])([H])C([H])(C(=O)N([H])C([H])([H])C([H])([H])C([H])([H])OC([H])([H])C([H])(O[H])C(=O)N([H])C([H])([H])C([H])([H])OC([H])([H])C([H])([H])Oc1c([H])c([H])c2c(c1[H])C([H])([H])N(C(=O)C([H])(N([H])C(=O)C([H])(N([H])C([H])([H])[H])C([H])([H])[H])C(C([H])([H])[H])(C([H])([H])[H])C([H])([H])[H])C([H])(C(=O)N([H])C1([H])c3c([H])c([H])c([H])c([H])c3C([H])([H])C([H])([H])C1([H])[H])C2([H])[H])N([H])C(=O)N1C([H])([H])C([H])([H])C([H])([H])C([H])(n2nc(-c3c([H])c([H])c(Oc4c([H])c([H])c(F)c([H])c4F)c([H])c3[H])c(C(=O)N([H])[H])c2N([H])[H])C1([H])[H]

>  <smiles>  (2) 
[H]OC([H])([H])C([H])(C(=O)N([H])C([H])([H])C([H])([H])C([H])([H])OC([H])([H])C([H])(O[H])C(=O)N([H])C([H])([H])C([H])([H])OC([H])([H])C([H])([H])Oc1c([H])c([H])c2c(c1[H])C([H])([H])N(C(=O)C([H])(N([H])C(=O)C([H])(N([H])C([H])([H])[H])C([H])([H])[H])C(C([H])([H])[H])(C([H])([H])[H])C([H])([H])[H])C([H])(C(=O)N([H])C1([H])c3c([H])c([H])c([H])c([H])c3C([H])([H])C([H])([H])C1([H])[H])C2([H])[H])N([H])C(=O)N1C([H])([H])C([H])([H])C([H])([H])C([H])(n2nc(-c3c([H])c([H])c(Oc4c([H])c([H])c(F)c([H])c4F)c([H])c3[H])c(C(=O)N([H])[H])c2N([H])[H])C1([H])[H]

$$$$
2:0:0
     RDKit          3D

102109  0  0  1  0  0  0  0  0999 V2000
  -34.9300  -17.9290   20.6200 C   0  0  0  0  0  2  0  0  0  0  0  0
  -34.7810  -18.4070   19.1650 C   0  0  0  0  0  2  0  0  0  0  0  0
  -33.4540  -18.8520   18.9190 O   0  0  0  0  0  0  0  0  0  0  0  0
  -33.2610  -19.2740   17.5740 C   0  0  0  0  0  2  0  0  0  0  0  0
  -31.8940  -19.9520   17.4540 C   0  0  0  0  0  2  0  0  0  0  0  0
  -31.9660  -21.1450   18.2220 O   0  0  0  0  0  0  0  0  0  0  0  0
  -30.7390  -21.8490   18.3030 C   0  0  0  0  0  2  0  0  0  0  0  0
  -30.9780  -23.1030   19.1540 C   0  0  0  0  0  2  0  0  0  0  0  0
  -29.7450  -23.7820   19.3120 O   0  0  0  0  0  0  0  0  0  0  0  0
  -29.8770  -25.0630   19.9110 C   0  0  0  0  0  2  0  0  0  0  0  0
  -28.5050  -25.7210   19.7970 C   0  0  0  0  0  2  0  0  0  0  0  0
  -28.5280  -27.0840   20.2070 O   0  0  0  0  0  0  0  0  0  0  0  0
  -24.5180  -32.0320   23.3390 C   0  0  0  0  0  0  0  0  0  0  0  0
  -27.3190  -27.7430   20.2010 C   0  0  0  0  0  0  0  0  0  0  0  0
  -23.3710  -30.6340   21.6520 C   0  0  0  0  0  3  0  0  0  0  0  0
  -24.8800  -29.1710   20.2210 C   0  0  0  0  0  0  0  0  0  0  0  0
  -25.8850  -31.0740   21.4910 C   0  0  0  0  0  2  0  0  0  0  0  0
  -26.0180  -29.7190   20.8270 C   0  0  0  0  0  0  0  0  0  0  0  0
  -27.2390  -29.0130   20.8140 C   0  0  0  0  0  3  0  0  0  0  0  0
  -26.1500  -27.2010   19.6040 C   0  0  0  0  0  3  0  0  0  0  0  0
  -24.9410  -27.9080   19.6150 C   0  0  0  0  0  3  0  0  0  0  0  0
  -23.6140  -29.9900   20.2630 C   0  0  0  0  0  2  0  0  0  0  0  0
  -24.6100  -31.2590   22.2200 N   0  0  0  0  0  0  0  0  0  0  0  0
  -23.4230  -32.2650   23.8700 O   0  0  0  0  0  0  0  0  0  0  0  0
  -22.7340  -29.5770   22.5810 C   0  0  0  0  0  0  0  0  0  0  0  0
  -21.4120  -29.3790   22.4430 N   0  0  0  0  0  0  0  0  0  0  0  0
  -23.4240  -28.9380   23.3790 O   0  0  0  0  0  0  0  0  0  0  0  0
  -20.9140  -29.9440   21.7700 H   0  0  0  0  0  0  0  0  0  0  0  0
  -18.0530  -28.1350   22.9000 C   0  0  0  0  0  0  0  0  0  0  0  0
  -20.6070  -28.4100   23.1820 C   0  0  0  0  0  3  0  0  0  0  0  0
  -20.7260  -26.9990   22.5570 C   0  0  0  0  0  2  0  0  0  0  0  0
  -19.6260  -26.6990   21.5330 C   0  0  0  0  0  2  0  0  0  0  0  0
  -18.2430  -26.8100   22.1800 C   0  0  0  0  0  2  0  0  0  0  0  0
  -19.1630  -28.8930   23.3560 C   0  0  0  0  0  0  0  0  0  0  0  0
  -18.9330  -30.1370   23.9850 C   0  0  0  0  0  3  0  0  0  0  0  0
  -17.6230  -30.6220   24.1600 C   0  0  0  0  0  3  0  0  0  0  0  0
  -16.5270  -29.8590   23.7210 C   0  0  0  0  0  3  0  0  0  0  0  0
  -16.7430  -28.6170   23.1000 C   0  0  0  0  0  3  0  0  0  0  0  0
  -25.7810  -32.6780   23.9900 C   0  0  0  0  0  3  0  0  0  0  0  0
  -25.4630  -34.0830   24.2750 N   0  0  0  0  0  0  0  0  0  0  0  0
  -25.8310  -35.1160   23.5050 C   0  0  0  0  0  0  0  0  0  0  0  0
  -26.5440  -34.9850   22.5060 O   0  0  0  0  0  0  0  0  0  0  0  0
  -24.8410  -34.2560   25.0500 H   0  0  0  0  0  0  0  0  0  0  0  0
  -24.1170  -36.8920   23.0270 C   0  0  0  0  0  1  0  0  0  0  0  0
  -25.3230  -36.5130   23.9040 C   0  0  0  0  0  3  0  0  0  0  0  0
  -27.4200  -37.4200   24.8020 C   0  0  0  0  0  1  0  0  0  0  0  0
  -26.3590  -37.5650   23.8090 N   0  0  0  0  0  0  0  0  0  0  0  0
  -25.9460  -38.4880   23.9200 H   0  0  0  0  0  0  0  0  0  0  0  0
  -26.2550  -31.9350   25.2970 C   0  0  1  0  0  0  0  0  0  0  0  0
  -25.1270  -31.7140   26.3300 C   0  0  0  0  0  1  0  0  0  0  0  0
  -26.8560  -30.5520   24.9480 C   0  0  0  0  0  1  0  0  0  0  0  0
  -27.3810  -32.7440   25.9850 C   0  0  0  0  0  1  0  0  0  0  0  0
  -34.3780  -16.5120   20.8770 C   0  0  0  0  0  2  0  0  0  0  0  0
  -31.9710  -17.1550   20.7950 C   0  0  0  0  0  0  0  0  0  0  0  0
  -32.9880  -16.3620   20.4540 N   0  0  0  0  0  0  0  0  0  0  0  0
  -32.1440  -18.0980   21.5680 O   0  0  0  0  0  0  0  0  0  0  0  0
  -32.7700  -15.6000   19.8060 H   0  0  0  0  0  0  0  0  0  0  0  0
  -30.5390  -16.8860   20.2670 C   0  0  0  0  0  0  0  0  0  0  0  0
  -30.6110  -14.5070   19.1770 C   0  0  0  0  0  0  0  0  0  0  0  0
  -30.4340  -12.0780   18.7690 C   0  0  0  0  0  2  0  0  0  0  0  0
  -29.4150  -11.7520   17.6610 C   0  0  0  0  0  2  0  0  0  0  0  0
  -27.9920  -11.6320   18.2410 C   0  0  0  0  0  2  0  0  0  0  0  0
  -27.6210  -12.8440   19.1370 C   0  0  0  0  0  3  0  0  0  0  0  0
  -28.7380  -13.1220   20.1670 C   0  0  0  0  0  2  0  0  0  0  0  0
  -30.0040  -13.3180   19.4330 N   0  0  0  0  0  0  0  0  0  0  0  0
  -31.5820  -14.6080   18.4250 O   0  0  0  0  0  0  0  0  0  0  0  0
  -30.0650  -15.5570   19.8060 N   0  0  0  0  0  4  0  0  0  0  0  0
  -29.1880  -15.3080   20.2440 H   0  0  0  0  0  0  0  0  0  0  0  0
  -25.3890  -13.5970   20.1770 C   0  0  0  0  0  0  0  0  0  0  0  0
  -24.3170  -12.8890   20.6510 C   0  0  0  0  0  0  0  0  0  0  0  0
  -24.6620  -11.5090   20.5140 C   0  0  0  0  0  0  0  0  0  0  0  0
  -26.3230  -12.6520   19.7820 N   0  0  0  0  0  0  0  0  0  0  0  0
  -25.8960  -11.3880   20.0370 N   0  0  0  0  0  0  0  0  0  0  0  0
  -23.8720  -10.2960   20.7550 C   0  0  0  0  0  0  0  0  0  0  0  0
  -24.3600   -9.2400   21.5580 C   0  0  0  0  0  3  0  0  0  0  0  0
  -23.5710   -8.0930   21.7890 C   0  0  0  0  0  3  0  0  0  0  0  0
  -22.2790   -7.9940   21.2200 C   0  0  0  0  0  0  0  0  0  0  0  0
  -21.8080   -9.0370   20.4040 C   0  0  0  0  0  3  0  0  0  0  0  0
  -22.5960  -10.1760   20.1700 C   0  0  0  0  0  3  0  0  0  0  0  0
  -21.4530   -6.9070   21.3700 O   0  0  0  0  0  0  0  0  0  0  0  0
  -21.5290   -6.0910   22.4690 C   0  0  0  0  0  0  0  0  0  0  0  0
  -21.3770   -6.5900   23.7820 C   0  0  0  0  0  3  0  0  0  0  0  0
  -21.3940   -5.7050   24.8780 C   0  0  0  0  0  3  0  0  0  0  0  0
  -21.5540   -4.3210   24.6650 C   0  0  0  0  0  0  0  0  0  0  0  0
  -21.7030   -3.8230   23.3570 C   0  0  0  0  0  3  0  0  0  0  0  0
  -21.6880   -4.7050   22.2630 C   0  0  0  0  0  0  0  0  0  0  0  0
  -21.8090   -4.2190   21.0040 F   0  0  0  0  0  0  0  0  0  0  0  0
  -21.5640   -3.4670   25.7140 F   0  0  0  0  0  0  0  0  0  0  0  0
  -23.0120  -13.4550   21.1310 C   0  0  0  0  0  0  0  0  0  0  0  0
  -22.3720  -12.7910   22.0880 N   0  0  0  0  0  0  0  0  0  0  0  0
  -22.5760  -14.5190   20.6930 O   0  0  0  0  0  0  0  0  0  0  0  0
  -22.7410  -11.9280   22.4590 H   0  0  0  0  0  0  0  0  0  0  0  0
  -21.5020  -13.1510   22.4560 H   0  0  0  0  0  0  0  0  0  0  0  0
  -25.6390  -14.9570   20.0320 N   0  0  0  0  0  0  0  0  0  0  0  0
  -24.9820  -15.6630   20.3490 H   0  0  0  0  0  0  0  0  0  0  0  0
  -26.5630  -15.3330   19.8490 H   0  0  0  0  0  0  0  0  0  0  0  0
  -30.0670  -17.9970   19.2870 C   0  0  0  0  0  2  0  0  0  0  0  0
  -28.5540  -18.0320   19.0550 C   0  0  0  0  0  0  0  0  0  0  0  0
  -27.8790  -19.1090   19.4360 N   0  0  0  0  0  0  0  0  0  0  0  0
  -27.9780  -17.0720   18.5460 O   0  0  0  0  0  0  0  0  0  0  0  0
  -28.3460  -19.9020   19.8560 H   0  0  0  0  0  0  0  0  0  0  0  0
  -26.8800  -19.1600   19.2870 H   0  0  0  0  0  0  0  0  0  0  0  0
  1 53  1  0
  2  1  1  0
  3  2  1  0
  4  3  1  0
  5  4  1  0
  5  6  1  0
  6  7  1  0
  7  8  1  0
  8  9  1  0
  9 10  1  0
 11 10  1  0
 11 12  1  0
 13 24  2  0
 14 12  1  0
 14 19  1  0
 15 23  1  0
 15 25  1  0
 16 22  1  0
 16 18  1  0
 17 23  1  0
 18 17  1  0
 19 18  2  0
 20 21  1  0
 20 14  2  0
 21 16  2  0
 22 15  1  0
 23 13  1  0
 25 27  2  0
 26 25  1  0
 28 26  1  0
 29 38  2  0
 29 34  1  0
 30 26  1  0
 30 34  1  0
 31 30  1  0
 32 33  1  0
 32 31  1  0
 33 29  1  0
 34 35  2  0
 35 36  1  0
 37 36  2  0
 38 37  1  0
 39 13  1  0
 39 40  1  0
 39 49  1  0
 40 43  1  0
 41 45  1  0
 41 40  1  0
 42 41  2  0
 45 44  1  0
 47 45  1  0
 47 48  1  0
 47 46  1  0
 49 52  1  1
 49 50  1  0
 51 49  1  0
 54 56  2  0
 55 54  1  0
 55 53  1  0
 57 55  1  0
 58 54  1  0
 59 65  1  0
 59 67  1  0
 60 65  1  0
 61 62  1  0
 61 60  1  0
 63 62  1  0
 63 72  1  0
 63 64  1  0
 65 64  1  0
 66 59  2  0
 67 68  1  0
 67 58  2  3
 69 70  2  0
 70 89  1  0
 71 70  1  0
 71 74  1  0
 72 73  1  0
 72 69  1  0
 73 71  2  0
 74 75  1  0
 75 76  2  0
 77 80  1  0
 77 76  1  0
 78 77  2  0
 79 78  1  0
 79 74  2  0
 80 81  1  0
 81 82  1  0
 82 83  2  0
 84 83  1  0
 84 88  1  0
 85 84  2  0
 86 81  2  0
 86 85  1  0
 87 86  1  0
 89 90  1  0
 90 93  1  0
 90 92  1  0
 91 89  2  0
 94 69  1  0
 94 95  1  0
 96 94  1  0
 97 58  1  0
 98 97  1  0
 98 99  1  0
 99101  1  0
100 98  2  0
102 99  1  0
M  ISO  4  11 101  12 101  59 100  67 100
M  END
>  <TORSDO>  (3) 
F 31

>  <SCORE>  (3) 
-7.243

>  <name>  (3) 
2

>  <ligand_id>  (3) 
2

>  <original_smiles>  (3) 
[H]c1c([H])c([H])c2c(c1[H])C([H])([H])C([H])([H])C([H])([H])C2([H])N([H])C(=O)C1([H])N(C(=O)C([H])(N([H])C(=O)C([H])(N([H])C([H])([H])[H])C([H])([H])[H])C(C([H])([H])[H])(C([H])([H])[H])C([H])([H])[H])C([H])([H])c2c([H])c(OC([H])([H])C([H])([H])OC([H])([H])C([H])([H])OC([H])([H])C([H])([H])OC([H])([H])C([H])([H])C([H])([H])N([H])C(=O)C([H])(N([H])C(=O)N3C([H])([H])C([H])([H])C([H])([H])C([H])(n4nc(-c5c([H])c([H])c(Oc6c([H])c([H])c(F)c([H])c6F)c([H])c5[H])c(C(=O)N([H])[H])c4N([H])[H])C3([H])[H])C([H])([H])C(=O)N([H])[H])c([H])c([H])c2C1([H])[H]

>  <smiles>  (3) 
[H]c1c([H])c([H])c2c(c1[H])C([H])([H])C([H])([H])C([H])([H])C2([H])N([H])C(=O)C1([H])N(C(=O)C([H])(N([H])C(=O)C([H])(N([H])C([H])([H])[H])C([H])([H])[H])C(C([H])([H])[H])(C([H])([H])[H])C([H])([H])[H])C([H])([H])c2c([H])c(OC([H])([H])C([H])([H])OC([H])([H])C([H])([H])OC([H])([H])C([H])([H])OC([H])([H])C([H])([H])C([H])([H])N([H])C(=O)C([H])(N([H])C(=O)N3C([H])([H])C([H])([H])C([H])([H])C([H])(n4nc(-c5c([H])c([H])c(Oc6c([H])c([H])c(F)c([H])c6F)c([H])c5[H])c(C(=O)N([H])[H])c4N([H])[H])C3([H])[H])C([H])([H])C(=O)N([H])[H])c([H])c([H])c2C1([H])[H]

$$$$
3:0:0
     RDKit          3D

108106  0  0  1  0  0  0  0  0999 V2000
  -25.2620  -24.2370   17.4210 C   0  0  0  0  0  1  0  0  0  0  0  0
  -21.6330  -25.6270   21.2140 C   0  0  0  0  0  1  0  0  0  0  0  0
  -22.8500  -26.0360   22.7850 C   0  0  0  0  0 15  0  0  0  0  0  0
  -22.2030  -24.5420   19.6860 C   0  0  0  0  0  2  0  0  0  0  0  0
  -24.4060  -24.8830   23.2000 C   0  0  0  0  0  1  0  0  0  0  0  0
  -23.9080  -23.6710   19.5190 C   0  0  0  0  0  1  0  0  0  0  0  0
  -25.8070  -22.7060   22.8260 C   0  0  0  0  0  1  0  0  0  0  0  0
  -24.9950  -23.6770   21.9650 N   0  0  0  0  0  0  0  0  0  0  0  0
  -25.8080  -24.1710   21.6180 H   0  0  0  0  0  0  0  0  0  0  0  0
  -26.4190  -24.1140   13.6690 C   0  0  0  0  0  2  0  0  0  0  0  0
  -26.3010  -24.0000   15.5030 N   0  0  0  0  0  2  0  0  0  0  0  0
  -25.4820  -24.8570   13.3670 O   0  0  0  0  0  1  0  0  0  0  0  0
  -27.1210  -23.4580   15.7450 H   0  0  0  0  0  0  0  0  0  0  0  0
  -27.3590  -23.6170   11.6200 C   0  0  0  0  0  1  0  0  0  0  0  0
  -29.4410  -21.0500    9.3160 C   0  0  0  0  0  0  0  0  0  0  0  0
  -30.6230  -18.4520    8.5900 C   0  0  0  0  0  2  0  0  0  0  0  0
  -30.3880  -17.0350    9.2670 C   0  0  0  0  0  2  0  0  0  0  0  0
  -30.9840  -16.9870   10.6760 C   0  0  0  0  0  2  0  0  0  0  0  0
  -30.8750  -18.4060   11.2430 C   0  0  0  0  0  3  0  0  0  0  0  0
  -31.4660  -19.5190   10.3800 C   0  0  0  0  0  2  0  0  0  0  0  0
  -30.3450  -19.7750    9.4850 N   0  0  0  0  0  0  0  0  0  0  0  0
  -29.5140  -20.8670    8.0290 O   0  0  0  0  0  0  0  0  0  0  0  0
  -28.4710  -22.3610   10.1950 N   0  0  0  0  0  2  0  0  0  0  0  0
  -28.2570  -22.8950    9.3640 H   0  0  0  0  0  0  0  0  0  0  0  0
  -31.0140  -19.7660   13.2820 C   0  0  0  0  0  0  0  0  0  0  0  0
  -31.5850  -19.5460   14.4900 C   0  0  0  0  0  0  0  0  0  0  0  0
  -32.2410  -18.2780   14.3940 C   0  0  0  0  0  0  0  0  0  0  0  0
  -31.3100  -18.6370   12.5540 N   0  0  0  0  0  0  0  0  0  0  0  0
  -32.1250  -17.7680   13.1790 N   0  0  0  0  0  0  0  0  0  0  0  0
  -32.8980  -17.4760   15.4120 C   0  0  0  0  0  0  0  0  0  0  0  0
  -33.1410  -17.9790   16.7070 C   0  0  0  0  0  3  0  0  0  0  0  0
  -33.7600  -17.1630   17.6750 C   0  0  0  0  0  3  0  0  0  0  0  0
  -34.1370  -15.8380   17.3450 C   0  0  0  0  0  0  0  0  0  0  0  0
  -33.9180  -15.3600   16.0430 C   0  0  0  0  0  3  0  0  0  0  0  0
  -33.3060  -16.1730   15.0790 C   0  0  0  0  0  3  0  0  0  0  0  0
  -34.7600  -14.9790   18.2120 O   0  0  0  0  0  0  0  0  0  0  0  0
  -34.1070  -13.8970   18.7400 C   0  0  0  0  0  0  0  0  0  0  0  0
  -33.9740  -12.6850   18.0290 C   0  0  0  0  0  3  0  0  0  0  0  0
  -33.3550  -11.5770   18.6390 C   0  0  0  0  0  3  0  0  0  0  0  0
  -32.8800  -11.6760   19.9600 C   0  0  0  0  0  0  0  0  0  0  0  0
  -33.0150  -12.8810   20.6710 C   0  0  0  0  0  3  0  0  0  0  0  0
  -33.6310  -13.9880   20.0620 C   0  0  0  0  0  0  0  0  0  0  0  0
  -33.7790  -15.1420   20.7550 F   0  0  0  0  0  0  0  0  0  0  0  0
  -32.2950  -10.6080   20.5500 F   0  0  0  0  0  0  0  0  0  0  0  0
  -31.4220  -20.4200   15.6900 C   0  0  0  0  0  0  0  0  0  0  0  0
  -32.4340  -20.4770   16.5430 N   0  0  0  0  0  0  0  0  0  0  0  0
  -30.4060  -21.0940   15.8490 O   0  0  0  0  0  0  0  0  0  0  0  0
  -33.2800  -19.9450   16.3960 H   0  0  0  0  0  0  0  0  0  0  0  0
  -32.3630  -21.0650   17.3610 H   0  0  0  0  0  0  0  0  0  0  0  0
  -30.2500  -20.8120   12.7630 N   0  0  0  0  0  0  0  0  0  0  0  0
  -30.0010  -21.5990   13.3520 H   0  0  0  0  0  0  0  0  0  0  0  0
  -29.8010  -20.8480   11.8580 H   0  0  0  0  0  0  0  0  0  0  0  0
  -27.6960  -26.2470   11.8440 C   0  0  0  0  0  1  0  0  0  0  0  0
  -29.6150  -24.6290   12.1880 C   0  0  0  0  0  1  0  0  0  0  0  0
  -28.2800  -24.8650   11.4640 C   0  0  0  0  0  3  0  0  0  0  0  0
  -25.7820  -25.6800   17.5410 C   0  0  0  0  0  0  0  0  0  0  0  0
  -26.7420  -25.9740   16.8360 O   0  0  0  0  0  0  0  0  0  0  0  0
  -25.3900  -26.6270   18.7130 C   0  0  0  0  0  2  0  0  0  0  0  0
  -25.7430  -26.0200   20.0280 N   0  0  0  0  0  4  0  0  0  0  0  0
  -24.9690  -25.4260   20.3230 H   0  0  0  0  0  0  0  0  0  0  0  0
  -25.7650  -26.7480   20.7280 H   0  0  0  0  0  0  0  0  0  0  0  0
  -27.0310  -25.2630   20.0990 C   0  0  0  0  0  2  0  0  0  0  0  0
  -27.8260  -25.2320   18.7730 C   0  0  0  0  0  2  0  0  0  0  0  0
  -27.6920  -23.9720   18.1160 O   0  0  0  0  0  0  0  0  0  0  0  0
  -28.9310  -23.3550   17.7880 C   0  0  0  0  0  2  0  0  0  0  0  0
  -29.3350  -23.6640   16.3290 C   0  0  0  0  0  2  0  0  0  0  0  0
  -30.3840  -24.7870   16.1380 C   0  0  0  0  0  2  0  0  0  0  0  0
  -31.3950  -24.6950   17.1480 O   0  0  0  0  0  0  0  0  0  0  0  0
  -31.4110  -30.7040   21.0940 C   0  0  0  0  0  0  0  0  0  0  0  0
  -32.0190  -25.8540   17.5410 C   0  0  0  0  0  0  0  0  0  0  0  0
  -32.8600  -30.4420   19.1770 C   0  0  0  0  0  3  0  0  0  0  0  0
  -33.3750  -28.2150   18.2120 C   0  0  0  0  0  0  0  0  0  0  0  0
  -32.2130  -28.4050   20.4310 C   0  0  0  0  0  2  0  0  0  0  0  0
  -32.4410  -27.6840   19.1050 C   0  0  0  0  0  0  0  0  0  0  0  0
  -31.7340  -26.5180   18.7540 C   0  0  0  0  0  3  0  0  0  0  0  0
  -33.0090  -26.3760   16.6930 C   0  0  0  0  0  3  0  0  0  0  0  0
  -33.6660  -27.5800   16.9960 C   0  0  0  0  0  3  0  0  0  0  0  0
  -33.9850  -29.5050   18.6240 C   0  0  0  0  0  2  0  0  0  0  0  0
  -32.1490  -29.8720   20.3060 N   0  0  0  0  0  0  0  0  0  0  0  0
  -31.4380  -31.9400   20.9760 O   0  0  0  0  0  0  0  0  0  0  0  0
  -31.8010  -30.6650   18.0810 C   0  0  0  0  0  0  0  0  0  0  0  0
  -31.7830  -29.8410   17.0820 N   0  0  0  0  0  0  0  0  0  0  0  0
  -31.0370  -31.6040   18.0080 O   0  0  0  0  0  0  0  0  0  0  0  0
  -32.3410  -29.0270   17.2800 H   0  0  0  0  0  0  0  0  0  0  0  0
  -34.1600  -29.5380   12.9940 C   0  0  0  0  0  3  0  0  0  0  0  0
  -31.9560  -30.2110   15.7080 C   0  0  0  0  0  1  0  0  0  0  0  0
  -30.3340  -29.8210   14.5270 C   0  0  0  0  0 15  0  0  0  0  0  0
  -30.9090  -28.9830   12.7120 C   0  0  0  0  0  1  0  0  0  0  0  0
  -32.8000  -28.8040   12.2220 C   0  0  0  0  0  2  0  0  0  0  0  0
  -34.0810  -29.9890   14.4340 C   0  0  0  0  0  2  0  0  0  0  0  0
  -35.3260  -30.8890   14.5730 C   0  0  0  0  0  2  0  0  0  0  0  0
  -36.0000  -31.7560   13.7000 C   0  0  0  0  0  2  0  0  0  0  0  0
  -35.9630  -31.3180   12.4060 C   0  0  0  0  0  3  0  0  0  0  0  0
  -35.1360  -30.1940   12.1120 C   0  0  0  0  0  3  0  0  0  0  0  0
  -30.4730  -30.1020   22.1520 C   0  0  0  0  0  3  0  0  0  0  0  0
  -30.4170  -28.6660   21.8850 N   0  0  0  0  0  0  0  0  0  0  0  0
  -29.6290  -27.8190   22.5530 C   0  0  0  0  0  0  0  0  0  0  0  0
  -28.9270  -28.1660   23.5040 O   0  0  0  0  0  0  0  0  0  0  0  0
  -30.8890  -28.3330   21.0590 H   0  0  0  0  0  0  0  0  0  0  0  0
  -28.1890  -25.9090   21.7800 C   0  0  0  0  0  1  0  0  0  0  0  0
  -29.6250  -26.3510   22.0970 C   0  0  0  0  0  3  0  0  0  0  0  0
  -31.6840  -25.5280   23.1450 C   0  0  0  0  0  1  0  0  0  0  0  0
  -30.2260  -25.4320   23.0880 N   0  0  0  0  0  0  0  0  0  0  0  0
  -29.9810  -24.4680   22.8800 H   0  0  0  0  0  0  0  0  0  0  0  0
  -30.9560  -30.3990   23.6160 C   0  0  1  0  0  0  0  0  0  0  0  0
  -32.4250  -30.0020   23.8860 C   0  0  0  0  0  1  0  0  0  0  0  0
  -30.8000  -31.9000   23.9540 C   0  0  0  0  0  1  0  0  0  0  0  0
  -30.0520  -29.6320   24.5980 C   0  0  0  0  0  1  0  0  0  0  0  0
  1 56  1  0
  4  2  1  0
  6  4  1  0
  8  7  1  0
  8  5  1  0
  9  8  1  0
 10 11  1  0
 11 13  1  0
 12 10  1  0
 15 21  1  0
 15 23  1  0
 16 17  1  0
 16 21  1  0
 17 18  1  0
 18 19  1  0
 19 20  1  0
 19 28  1  0
 21 20  1  0
 22 15  2  0
 24 23  1  0
 25 26  2  0
 26 45  1  0
 27 26  1  0
 27 30  1  0
 28 29  1  0
 28 25  1  0
 29 27  2  0
 30 31  1  0
 31 32  2  0
 33 32  1  0
 33 36  1  0
 34 33  2  0
 35 30  2  0
 35 34  1  0
 36 37  1  0
 37 42  1  0
 38 39  1  0
 38 37  2  0
 39 40  2  0
 40 44  1  0
 40 41  1  0
 42 41  2  0
 42 43  1  0
 45 47  2  0
 45 46  1  0
 46 49  1  0
 48 46  1  0
 50 25  1  0
 50 51  1  0
 52 50  1  0
 55 14  1  0
 55 53  1  0
 55 54  1  0
 56 58  1  0
 57 56  2  0
 58 59  1  0
 59 62  1  0
 59 60  1  0
 59 61  1  0
 63 62  1  0
 64 63  1  0
 65 64  1  0
 66 65  1  0
 67 66  1  0
 67 68  1  0
 68 70  1  0
 70 75  1  0
 71 81  1  0
 71 79  1  0
 72 78  1  0
 72 74  1  0
 74 73  1  0
 75 74  2  0
 76 77  1  0
 76 70  2  0
 77 72  2  0
 78 71  1  0
 79 73  1  0
 79 69  1  0
 80 69  2  0
 82 84  1  0
 82 81  1  0
 83 81  2  0
 85 89  1  0
 85 90  1  0
 86 82  1  0
 89 88  1  0
 90 91  1  0
 92 91  1  0
 93 92  1  0
 94 93  2  0
 94 85  1  0
 95 69  1  0
 95105  1  0
 96 95  1  0
 96 97  1  0
 97 98  2  0
 99 96  1  0
101100  1  0
101 97  1  0
101103  1  0
103102  1  0
104103  1  0
105106  1  6
105107  1  0
105108  1  0
M  ISO  4  15 100  23 100  67 101  68 101
M  END
>  <TORSDO>  (4) 
F 29

>  <SCORE>  (4) 
7.687

>  <name>  (4) 
3

>  <ligand_id>  (4) 
3

>  <original_smiles>  (4) 
[H]c1c([H])c([H])c2c(c1[H])C([H])([H])C([H])([H])C([H])([H])C2([H])N([H])C(=O)C1([H])N(C(=O)C([H])(N([H])C(=O)C([H])(N([H])C([H])([H])[H])C([H])([H])[H])C(C([H])([H])[H])(C([H])([H])[H])C([H])([H])[H])C([H])([H])c2c([H])c(OC([H])([H])C([H])([H])C([H])([H])OC([H])([H])C([H])([H])[N+]([H])([H])C([H])([H])C(=O)C([H])(N([H])C(=O)C([H])(N([H])C(=O)N3C([H])([H])C([H])([H])C([H])([H])C([H])(n4nc(-c5c([H])c([H])c(Oc6c([H])c([H])c(F)c([H])c6F)c([H])c5[H])c(C(=O)N([H])[H])c4N([H])[H])C3([H])[H])C([H])(C([H])([H])[H])C([H])([H])[H])C3([H])C([H])([H])C([H])([H])C([H])([H])C([H])([H])[N+]3([H])C([H])([H])[H])c([H])c([H])c2C1([H])[H]

>  <smiles>  (4) 
[H]c1c([H])c([H])c2c(c1[H])C([H])([H])C([H])([H])C([H])([H])C2([H])N([H])C(=O)C1([H])N(C(=O)C([H])(N([H])C(=O)C([H])(N([H])C([H])([H])[H])C([H])([H])[H])C(C([H])([H])[H])(C([H])([H])[H])C([H])([H])[H])C([H])([H])c2c([H])c(OC([H])([H])C([H])([H])C([H])([H])OC([H])([H])C([H])([H])[N+]([H])([H])C([H])([H])C(=O)C([H])(N([H])C(=O)C([H])(N([H])C(=O)N3C([H])([H])C([H])([H])C([H])([H])C([H])(n4nc(-c5c([H])c([H])c(Oc6c([H])c([H])c(F)c([H])c6F)c([H])c5[H])c(C(=O)N([H])[H])c4N([H])[H])C3([H])[H])C([H])(C([H])([H])[H])C([H])([H])[H])C3([H])C([H])([H])C([H])([H])C([H])([H])C([H])([H])[N+]3([H])C([H])([H])[H])c([H])c([H])c2C1([H])[H]

$$$$
4:0:0
     RDKit          3D

 97104  0  0  1  0  0  0  0  0999 V2000
  -31.3640  -23.5110   21.3640 N   0  0  0  0  0  4  0  0  0  0  0  0
  -30.6790  -24.2520   21.3460 H   0  0  0  0  0  0  0  0  0  0  0  0
  -32.0130  -23.7200   22.1070 H   0  0  0  0  0  0  0  0  0  0  0  0
  -30.6870  -22.2340   21.7090 C   0  0  0  0  0  2  0  0  0  0  0  0
  -29.9900  -21.5560   20.5160 C   0  0  0  0  0  2  0  0  0  0  0  0
  -30.8690  -20.6050   19.9200 O   0  0  0  0  0  0  0  0  0  0  0  0
  -30.1690  -19.6850   19.0940 C   0  0  0  0  0  2  0  0  0  0  0  0
  -30.9750  -18.4010   18.8590 C   0  0  0  0  0  2  0  0  0  0  0  0
  -31.2550  -17.7490   20.0950 O   0  0  0  0  0  0  0  0  0  0  0  0
  -31.3350  -16.3360   19.9590 C   0  0  0  0  0  2  0  0  0  0  0  0
  -31.7230  -15.6910   21.3020 C   0  0  0  0  0  2  0  0  0  0  0  0
  -31.6930  -13.2150   20.9800 C   0  0  0  0  0  0  0  0  0  0  0  0
  -31.4340  -10.7620   20.8680 C   0  0  0  0  0  2  0  0  0  0  0  0
  -30.7000  -10.2970   19.5960 C   0  0  0  0  0  2  0  0  0  0  0  0
  -29.1720  -10.3450   19.7780 C   0  0  0  0  0  2  0  0  0  0  0  0
  -28.6920  -11.6980   20.3650 C   0  0  0  0  0  3  0  0  0  0  0  0
  -29.5280  -12.0840   21.6040 C   0  0  0  0  0  2  0  0  0  0  0  0
  -30.9550  -12.1030   21.2260 N   0  0  0  0  0  0  0  0  0  0  0  0
  -32.7930  -13.2010   20.4250 O   0  0  0  0  0  0  0  0  0  0  0  0
  -31.1600  -14.3490   21.4450 N   0  0  0  0  0  0  0  0  0  0  0  0
  -30.2830  -14.2630   21.9380 H   0  0  0  0  0  0  0  0  0  0  0  0
  -26.3310  -12.6940   20.6350 C   0  0  0  0  0  0  0  0  0  0  0  0
  -25.1240  -12.1150   20.9290 C   0  0  0  0  0  0  0  0  0  0  0  0
  -25.3900  -10.7240   21.1130 C   0  0  0  0  0  0  0  0  0  0  0  0
  -27.2610  -11.6670   20.6630 N   0  0  0  0  0  0  0  0  0  0  0  0
  -26.6900  -10.4840   21.0050 N   0  0  0  0  0  0  0  0  0  0  0  0
  -24.4740   -9.5950   21.3320 C   0  0  0  0  0  0  0  0  0  0  0  0
  -24.4140   -8.9270   22.5750 C   0  0  0  0  0  3  0  0  0  0  0  0
  -23.5140   -7.8580   22.7700 C   0  0  0  0  0  3  0  0  0  0  0  0
  -22.6590   -7.4480   21.7180 C   0  0  0  0  0  0  0  0  0  0  0  0
  -22.7390   -8.1020   20.4760 C   0  0  0  0  0  3  0  0  0  0  0  0
  -23.6380   -9.1650   20.2830 C   0  0  0  0  0  3  0  0  0  0  0  0
  -21.7740   -6.4030   21.8080 O   0  0  0  0  0  0  0  0  0  0  0  0
  -21.0250   -6.1870   22.9380 C   0  0  0  0  0  0  0  0  0  0  0  0
  -20.0850   -7.1340   23.3990 C   0  0  0  0  0  3  0  0  0  0  0  0
  -19.2900   -6.8430   24.5260 C   0  0  0  0  0  3  0  0  0  0  0  0
  -19.4250   -5.6050   25.1830 C   0  0  0  0  0  0  0  0  0  0  0  0
  -20.3570   -4.6600   24.7210 C   0  0  0  0  0  3  0  0  0  0  0  0
  -21.1540   -4.9500   23.5990 C   0  0  0  0  0  0  0  0  0  0  0  0
  -22.0350   -4.0280   23.1440 F   0  0  0  0  0  0  0  0  0  0  0  0
  -18.6550   -5.3220   26.2600 F   0  0  0  0  0  0  0  0  0  0  0  0
  -23.7850  -12.7920   20.9440 C   0  0  0  0  0  0  0  0  0  0  0  0
  -22.8540  -12.2880   21.7460 N   0  0  0  0  0  0  0  0  0  0  0  0
  -23.5730  -13.8040   20.2790 O   0  0  0  0  0  0  0  0  0  0  0  0
  -23.0380  -11.4690   22.3060 H   0  0  0  0  0  0  0  0  0  0  0  0
  -21.9470  -12.7310   21.8010 H   0  0  0  0  0  0  0  0  0  0  0  0
  -26.7100  -13.9980   20.3300 N   0  0  0  0  0  0  0  0  0  0  0  0
  -26.0440  -14.7610   20.2760 H   0  0  0  0  0  0  0  0  0  0  0  0
  -27.6500  -14.2780   20.0830 H   0  0  0  0  0  0  0  0  0  0  0  0
  -32.1170  -23.4940   20.0890 C   0  0  0  0  0  2  0  0  0  0  0  0
  -32.8810  -24.8040   19.8050 C   0  0  0  0  0  2  0  0  0  0  0  0
  -32.0080  -25.9890   19.3680 C   0  0  0  0  0  2  0  0  0  0  0  0
  -31.1600  -25.6360   18.2790 O   0  0  0  0  0  0  0  0  0  0  0  0
  -30.1920  -26.6470   18.0110 C   0  0  0  0  0  2  0  0  0  0  0  0
  -29.0960  -26.1140   17.0730 C   0  0  0  0  0  2  0  0  0  0  0  0
  -27.7290  -26.7950   17.2920 C   0  0  0  0  0  2  0  0  0  0  0  0
  -27.2510  -26.5420   18.6170 O   0  0  0  0  0  0  0  0  0  0  0  0
  -24.8420  -30.9160   23.7030 C   0  0  0  0  0  0  0  0  0  0  0  0
  -26.2530  -27.3890   19.0380 C   0  0  0  0  0  0  0  0  0  0  0  0
  -23.2440  -30.3830   21.8920 C   0  0  0  0  0  3  0  0  0  0  0  0
  -24.2230  -29.1610   19.8750 C   0  0  0  0  0  0  0  0  0  0  0  0
  -25.7610  -30.3350   21.4620 C   0  0  0  0  0  2  0  0  0  0  0  0
  -25.5040  -29.2530   20.4320 C   0  0  0  0  0  0  0  0  0  0  0  0
  -26.5220  -28.3620   20.0240 C   0  0  0  0  0  3  0  0  0  0  0  0
  -24.9540  -27.2900   18.4990 C   0  0  0  0  0  3  0  0  0  0  0  0
  -23.9360  -28.1720   18.9150 C   0  0  0  0  0  3  0  0  0  0  0  0
  -23.2000  -30.1660   20.3530 C   0  0  0  0  0  2  0  0  0  0  0  0
  -24.6420  -30.5320   22.4110 N   0  0  0  0  0  0  0  0  0  0  0  0
  -23.8910  -31.1820   24.4490 O   0  0  0  0  0  0  0  0  0  0  0  0
  -22.4560  -29.2400   22.5720 C   0  0  0  0  0  0  0  0  0  0  0  0
  -21.1230  -29.2520   22.4080 N   0  0  0  0  0  0  0  0  0  0  0  0
  -23.0410  -28.3580   23.2060 O   0  0  0  0  0  0  0  0  0  0  0  0
  -20.7170  -30.0140   21.8850 H   0  0  0  0  0  0  0  0  0  0  0  0
  -17.6450  -28.2790   22.4450 C   0  0  0  0  0  0  0  0  0  0  0  0
  -20.1840  -28.2560   22.9240 C   0  0  0  0  0  3  0  0  0  0  0  0
  -20.2290  -26.9610   22.0810 C   0  0  0  0  0  2  0  0  0  0  0  0
  -19.1900  -26.9390   20.9560 C   0  0  0  0  0  2  0  0  0  0  0  0
  -17.7770  -27.0750   21.5300 C   0  0  0  0  0  2  0  0  0  0  0  0
  -18.7780  -28.8440   23.0880 C   0  0  0  0  0  0  0  0  0  0  0  0
  -18.6050  -29.9840   23.9030 C   0  0  0  0  0  3  0  0  0  0  0  0
  -17.3320  -30.5580   24.0790 C   0  0  0  0  0  3  0  0  0  0  0  0
  -16.2120  -29.9850   23.4540 C   0  0  0  0  0  3  0  0  0  0  0  0
  -16.3670  -28.8470   22.6430 C   0  0  0  0  0  3  0  0  0  0  0  0
  -26.2790  -31.0610   24.2970 C   0  0  0  0  0  3  0  0  0  0  0  0
  -26.3800  -32.4000   24.8920 N   0  0  0  0  0  0  0  0  0  0  0  0
  -27.0150  -33.4350   24.3250 C   0  0  0  0  0  0  0  0  0  0  0  0
  -27.6420  -33.3360   23.2660 O   0  0  0  0  0  0  0  0  0  0  0  0
  -25.8360  -32.5670   25.7260 H   0  0  0  0  0  0  0  0  0  0  0  0
  -25.9000  -35.6860   24.3520 C   0  0  0  0  0  1  0  0  0  0  0  0
  -26.9420  -34.7940   25.0430 C   0  0  0  0  0  3  0  0  0  0  0  0
  -29.2080  -34.8520   25.9900 C   0  0  0  0  0  1  0  0  0  0  0  0
  -28.2420  -35.4970   25.1040 N   0  0  0  0  0  0  0  0  0  0  0  0
  -28.1170  -36.4550   25.4180 H   0  0  0  0  0  0  0  0  0  0  0  0
  -26.6290  -29.9460   25.3590 C   0  0  1  0  0  0  0  0  0  0  0  0
  -25.5640  -29.7850   26.4700 C   0  0  0  0  0  1  0  0  0  0  0  0
  -26.8040  -28.5740   24.6670 C   0  0  0  0  0  1  0  0  0  0  0  0
  -27.9770  -30.2790   26.0380 C   0  0  0  0  0  1  0  0  0  0  0  0
  1  4  1  0
  1  3  1  0
  2  1  1  0
  5  4  1  0
  6  5  1  0
  7  6  1  0
  8  7  1  0
  8  9  1  0
 10  9  1  0
 10 11  1  0
 11 20  1  0
 12 18  1  0
 12 20  1  0
 13 18  1  0
 14 15  1  0
 14 13  1  0
 16 15  1  0
 16 25  1  0
 16 17  1  0
 18 17  1  0
 19 12  2  0
 20 21  1  0
 22 25  1  0
 22 23  2  0
 23 42  1  0
 23 24  1  0
 24 27  1  0
 25 26  1  0
 26 24  2  0
 27 28  1  0
 28 29  2  0
 30 33  1  0
 30 29  1  0
 31 30  2  0
 32 31  1  0
 32 27  2  0
 33 34  1  0
 34 35  2  0
 34 39  1  0
 35 36  1  0
 36 37  2  0
 37 41  1  0
 38 37  1  0
 39 38  2  0
 40 39  1  0
 42 43  1  0
 43 46  1  0
 43 45  1  0
 44 42  2  0
 47 22  1  0
 48 47  1  0
 49 47  1  0
 50  1  1  0
 51 50  1  0
 52 51  1  0
 53 52  1  0
 54 53  1  0
 55 56  1  0
 55 54  1  0
 56 57  1  0
 57 59  1  0
 58 69  2  0
 59 64  1  0
 60 68  1  0
 60 70  1  0
 61 67  1  0
 61 63  1  0
 62 68  1  0
 63 62  1  0
 64 63  2  0
 65 66  1  0
 65 59  2  0
 66 61  2  0
 67 60  1  0
 68 58  1  0
 70 72  2  0
 71 70  1  0
 73 71  1  0
 74 83  2  0
 74 79  1  0
 75 71  1  0
 75 79  1  0
 76 75  1  0
 77 78  1  0
 77 76  1  0
 78 74  1  0
 79 80  2  0
 80 81  1  0
 82 81  2  0
 83 82  1  0
 84 58  1  0
 84 85  1  0
 84 94  1  0
 85 88  1  0
 86 85  1  0
 86 90  1  0
 87 86  2  0
 90 89  1  0
 90 92  1  0
 92 93  1  0
 92 91  1  0
 94 97  1  1
 94 95  1  0
 96 94  1  0
M  ISO  4  12 100  20 100  56 101  57 101
M  END
>  <TORSDO>  (5) 
F 31

>  <SCORE>  (5) 
-7.307

>  <name>  (5) 
4

>  <ligand_id>  (5) 
4

>  <original_smiles>  (5) 
[H]c1c([H])c([H])c2c(c1[H])C([H])([H])C([H])([H])C([H])([H])C2([H])N([H])C(=O)C1([H])N(C(=O)C([H])(N([H])C(=O)C([H])(N([H])C([H])([H])[H])C([H])([H])[H])C(C([H])([H])[H])(C([H])([H])[H])C([H])([H])[H])C([H])([H])c2c([H])c(OC([H])([H])C([H])([H])C([H])([H])OC([H])([H])C([H])([H])C([H])([H])[N+]([H])([H])C([H])([H])C([H])([H])OC([H])([H])C([H])([H])OC([H])([H])C([H])([H])N([H])C(=O)N3C([H])([H])C([H])([H])C([H])([H])C([H])(n4nc(-c5c([H])c([H])c(Oc6c([H])c([H])c(F)c([H])c6F)c([H])c5[H])c(C(=O)N([H])[H])c4N([H])[H])C3([H])[H])c([H])c([H])c2C1([H])[H]

>  <smiles>  (5) 
[H]c1c([H])c([H])c2c(c1[H])C([H])([H])C([H])([H])C([H])([H])C2([H])N([H])C(=O)C1([H])N(C(=O)C([H])(N([H])C(=O)C([H])(N([H])C([H])([H])[H])C([H])([H])[H])C(C([H])([H])[H])(C([H])([H])[H])C([H])([H])[H])C([H])([H])c2c([H])c(OC([H])([H])C([H])([H])C([H])([H])OC([H])([H])C([H])([H])C([H])([H])[N+]([H])([H])C([H])([H])C([H])([H])OC([H])([H])C([H])([H])OC([H])([H])C([H])([H])N([H])C(=O)N3C([H])([H])C([H])([H])C([H])([H])C([H])(n4nc(-c5c([H])c([H])c(Oc6c([H])c([H])c(F)c([H])c6F)c([H])c5[H])c(C(=O)N([H])[H])c4N([H])[H])C3([H])[H])c([H])c([H])c2C1([H])[H]

$$$$
5:0:0
     RDKit          3D

112119  0  0  1  0  0  0  0  0999 V2000
  -27.9710  -27.0860   25.9950 C   0  0  0  0  0  2  0  0  0  0  0  0
  -26.8840  -27.4270   27.0210 C   0  0  0  0  0  2  0  0  0  0  0  0
  -25.6240  -27.2250   26.4090 O   0  0  0  0  0  0  0  0  0  0  0  0
  -24.5920  -28.0530   26.9320 C   0  0  0  0  0  2  0  0  0  0  0  0
  -23.3070  -27.5080   26.3080 C   0  0  0  0  0  2  0  0  0  0  0  0
  -23.5550  -27.1150   24.9020 N   0  0  0  0  0  4  0  0  0  0  0  0
  -24.4540  -26.6470   24.8820 H   0  0  0  0  0  0  0  0  0  0  0  0
  -23.6470  -27.9330   24.3200 H   0  0  0  0  0  0  0  0  0  0  0  0
  -22.5530  -26.1770   24.3520 C   0  0  0  0  0  2  0  0  0  0  0  0
  -22.9620  -25.6600   22.9710 C   0  0  0  0  0  2  0  0  0  0  0  0
  -24.3410  -25.3360   23.0370 O   0  0  0  0  0  0  0  0  0  0  0  0
  -24.7860  -24.6910   21.8560 C   0  0  0  0  0  2  0  0  0  0  0  0
  -26.3120  -24.6080   21.8990 C   0  0  0  0  0  2  0  0  0  0  0  0
  -26.8500  -25.9260   21.9260 O   0  0  0  0  0  0  0  0  0  0  0  0
  -28.2230  -25.9710   21.5590 C   0  0  0  0  0  2  0  0  0  0  0  0
  -28.3850  -26.0260   20.0210 C   0  0  0  0  0  2  0  0  0  0  0  0
  -28.3960  -27.3760   19.5530 O   0  0  0  0  0  0  0  0  0  0  0  0
  -24.5160  -31.9430   23.3210 C   0  0  0  0  0  0  0  0  0  0  0  0
  -27.2090  -28.0560   19.6400 C   0  0  0  0  0  0  0  0  0  0  0  0
  -23.3240  -30.7870   21.4900 C   0  0  0  0  0  3  0  0  0  0  0  0
  -24.7940  -29.4990   19.8520 C   0  0  0  0  0  0  0  0  0  0  0  0
  -25.8370  -31.2190   21.3360 C   0  0  0  0  0  2  0  0  0  0  0  0
  -25.9430  -29.9570   20.5070 C   0  0  0  0  0  0  0  0  0  0  0  0
  -27.1570  -29.2470   20.3950 C   0  0  0  0  0  3  0  0  0  0  0  0
  -26.0440  -27.6010   18.9840 C   0  0  0  0  0  3  0  0  0  0  0  0
  -24.8380  -28.3230   19.0850 C   0  0  0  0  0  3  0  0  0  0  0  0
  -23.5340  -30.3190   20.0280 C   0  0  0  0  0  2  0  0  0  0  0  0
  -24.5780  -31.3220   22.1110 N   0  0  0  0  0  0  0  0  0  0  0  0
  -23.4330  -32.1200   23.8980 O   0  0  0  0  0  0  0  0  0  0  0  0
  -22.6800  -29.6310   22.2890 C   0  0  0  0  0  0  0  0  0  0  0  0
  -21.3400  -29.5540   22.2490 N   0  0  0  0  0  0  0  0  0  0  0  0
  -23.3760  -28.8060   22.8900 O   0  0  0  0  0  0  0  0  0  0  0  0
  -20.8420  -30.2590   21.7260 H   0  0  0  0  0  0  0  0  0  0  0  0
  -17.9350  -28.5220   22.8700 C   0  0  0  0  0  0  0  0  0  0  0  0
  -20.5180  -28.5340   22.8940 C   0  0  0  0  0  3  0  0  0  0  0  0
  -20.4260  -27.2650   22.0180 C   0  0  0  0  0  2  0  0  0  0  0  0
  -19.2080  -27.2510   21.0910 C   0  0  0  0  0  2  0  0  0  0  0  0
  -17.9160  -27.3470   21.9060 C   0  0  0  0  0  2  0  0  0  0  0  0
  -19.1560  -29.0910   23.3200 C   0  0  0  0  0  0  0  0  0  0  0  0
  -19.1170  -30.2090   24.1800 C   0  0  0  0  0  3  0  0  0  0  0  0
  -17.8880  -30.7520   24.5980 C   0  0  0  0  0  3  0  0  0  0  0  0
  -16.6810  -30.1710   24.1660 C   0  0  0  0  0  3  0  0  0  0  0  0
  -16.7070  -29.0600   23.3060 C   0  0  0  0  0  3  0  0  0  0  0  0
  -25.7950  -32.4910   24.0280 C   0  0  0  0  0  3  0  0  0  0  0  0
  -25.5390  -33.8900   24.3910 N   0  0  0  0  0  0  0  0  0  0  0  0
  -25.9670  -34.9470   23.6870 C   0  0  0  0  0  0  0  0  0  0  0  0
  -26.6910  -34.8410   22.6920 O   0  0  0  0  0  0  0  0  0  0  0  0
  -24.9180  -34.0520   25.1700 H   0  0  0  0  0  0  0  0  0  0  0  0
  -24.3530  -36.8320   23.2940 C   0  0  0  0  0  1  0  0  0  0  0  0
  -25.5230  -36.3440   24.1610 C   0  0  0  0  0  3  0  0  0  0  0  0
  -27.6490  -37.0910   25.1360 C   0  0  0  0  0  1  0  0  0  0  0  0
  -26.6110  -37.3450   24.1420 N   0  0  0  0  0  0  0  0  0  0  0  0
  -26.2450  -38.2810   24.2970 H   0  0  0  0  0  0  0  0  0  0  0  0
  -26.2090  -31.6460   25.2940 C   0  0  1  0  0  0  0  0  0  0  0  0
  -25.0570  -31.4050   26.2980 C   0  0  0  0  0  1  0  0  0  0  0  0
  -26.7530  -30.2640   24.8660 C   0  0  0  0  0  1  0  0  0  0  0  0
  -27.3620  -32.3570   26.0450 C   0  0  0  0  0  1  0  0  0  0  0  0
  -27.9010  -25.6310   25.5110 C   0  0  0  0  0  2  0  0  0  0  0  0
  -28.8460  -25.4540   24.4660 O   0  0  0  0  0  0  0  0  0  0  0  0
  -28.9500  -24.1060   24.0320 C   0  0  0  0  0  2  0  0  0  0  0  0
  -29.9090  -24.0660   22.8360 C   0  0  0  0  0  2  0  0  0  0  0  0
  -30.3190  -22.6360   22.4390 C   0  0  0  0  0  2  0  0  0  0  0  0
  -31.2190  -22.6380   21.2660 N   0  0  0  0  0  4  0  0  0  0  0  0
  -31.8480  -23.4190   21.3450 H   0  0  0  0  0  0  0  0  0  0  0  0
  -30.6640  -22.7780   20.4360 H   0  0  0  0  0  0  0  0  0  0  0  0
  -32.0120  -21.4000   21.0830 C   0  0  0  0  0  2  0  0  0  0  0  0
  -32.8150  -21.4580   19.7780 C   0  0  0  0  0  2  0  0  0  0  0  0
  -31.8950  -21.7810   18.7480 O   0  0  0  0  0  0  0  0  0  0  0  0
  -32.5040  -22.3270   17.5830 C   0  0  0  0  0  2  0  0  0  0  0  0
  -31.3860  -22.7450   16.6250 C   0  0  0  0  0  2  0  0  0  0  0  0
  -30.5660  -23.7220   17.2610 O   0  0  0  0  0  0  0  0  0  0  0  0
  -29.2430  -23.6960   16.7560 C   0  0  0  0  0  2  0  0  0  0  0  0
  -28.4230  -24.8450   17.3530 C   0  0  0  0  0  2  0  0  0  0  0  0
  -26.9160  -24.7110   17.0820 C   0  0  0  0  0  2  0  0  0  0  0  0
  -26.1690  -22.5350   18.0230 C   0  0  0  0  0  0  0  0  0  0  0  0
  -24.5830  -20.7090   17.6130 C   0  0  0  0  0  2  0  0  0  0  0  0
  -23.9670  -20.9720   16.2200 C   0  0  0  0  0  2  0  0  0  0  0  0
  -22.7500  -21.9150   16.3260 C   0  0  0  0  0  2  0  0  0  0  0  0
  -23.0410  -23.1820   17.1770 C   0  0  0  0  0  3  0  0  0  0  0  0
  -23.7210  -22.7950   18.5130 C   0  0  0  0  0  2  0  0  0  0  0  0
  -24.9300  -22.0120   18.1980 N   0  0  0  0  0  0  0  0  0  0  0  0
  -27.1500  -21.8660   17.6830 O   0  0  0  0  0  0  0  0  0  0  0  0
  -26.1920  -23.8750   18.0380 N   0  0  0  0  0  0  0  0  0  0  0  0
  -25.3620  -24.2980   18.4280 H   0  0  0  0  0  0  0  0  0  0  0  0
  -21.3480  -25.0660   16.6920 C   0  0  0  0  0  0  0  0  0  0  0  0
  -20.1520  -25.3890   17.2750 C   0  0  0  0  0  0  0  0  0  0  0  0
  -19.9570  -24.4420   18.3270 C   0  0  0  0  0  0  0  0  0  0  0  0
  -21.8300  -23.9720   17.3970 N   0  0  0  0  0  0  0  0  0  0  0  0
  -21.0020  -23.6310   18.4190 N   0  0  0  0  0  0  0  0  0  0  0  0
  -18.8090  -24.2230   19.2160 C   0  0  0  0  0  0  0  0  0  0  0  0
  -18.9600  -24.1980   20.6210 C   0  0  0  0  0  3  0  0  0  0  0  0
  -17.8400  -24.0000   21.4580 C   0  0  0  0  0  3  0  0  0  0  0  0
  -16.5540  -23.8290   20.8930 C   0  0  0  0  0  0  0  0  0  0  0  0
  -16.4160  -23.8230   19.4920 C   0  0  0  0  0  3  0  0  0  0  0  0
  -17.5320  -24.0150   18.6620 C   0  0  0  0  0  3  0  0  0  0  0  0
  -15.4120  -23.6060   21.6220 O   0  0  0  0  0  0  0  0  0  0  0  0
  -15.2600  -24.1070   22.8890 C   0  0  0  0  0  0  0  0  0  0  0  0
  -15.4640  -25.4730   23.1820 C   0  0  0  0  0  3  0  0  0  0  0  0
  -15.2330  -25.9570   24.4840 C   0  0  0  0  0  3  0  0  0  0  0  0
  -14.7880  -25.0810   25.4930 C   0  0  0  0  0  0  0  0  0  0  0  0
  -14.5760  -23.7220   25.2020 C   0  0  0  0  0  3  0  0  0  0  0  0
  -14.8110  -23.2360   23.9040 C   0  0  0  0  0  0  0  0  0  0  0  0
  -14.5890  -21.9300   23.6240 F   0  0  0  0  0  0  0  0  0  0  0  0
  -14.5550  -25.5490   26.7410 F   0  0  0  0  0  0  0  0  0  0  0  0
  -19.1930  -26.4540   16.8320 C   0  0  0  0  0  0  0  0  0  0  0  0
  -18.4180  -27.0090   17.7590 N   0  0  0  0  0  0  0  0  0  0  0  0
  -19.1550  -26.8330   15.6610 O   0  0  0  0  0  0  0  0  0  0  0  0
  -18.4620  -26.7100   18.7220 H   0  0  0  0  0  0  0  0  0  0  0  0
  -17.7660  -27.7380   17.5030 H   0  0  0  0  0  0  0  0  0  0  0  0
  -22.0560  -25.6040   15.6190 N   0  0  0  0  0  0  0  0  0  0  0  0
  -21.6940  -26.3640   15.0540 H   0  0  0  0  0  0  0  0  0  0  0  0
  -22.9220  -25.2340   15.2520 H   0  0  0  0  0  0  0  0  0  0  0  0
  1  2  1  0
  3  4  1  0
  3  2  1  0
  5  4  1  0
  6  5  1  0
  7  6  1  0
  8  6  1  0
  9  6  1  0
 10 11  1  0
 10  9  1  0
 12 13  1  0
 12 11  1  0
 13 14  1  0
 15 14  1  0
 16 15  1  0
 17 19  1  0
 17 16  1  0
 18 29  2  0
 19 24  1  0
 20 28  1  0
 20 30  1  0
 21 27  1  0
 21 23  1  0
 22 28  1  0
 23 22  1  0
 24 23  2  0
 25 26  1  0
 25 19  2  0
 26 21  2  0
 27 20  1  0
 28 18  1  0
 30 32  2  0
 31 30  1  0
 33 31  1  0
 34 43  2  0
 34 39  1  0
 35 31  1  0
 35 39  1  0
 36 35  1  0
 37 38  1  0
 37 36  1  0
 38 34  1  0
 39 40  2  0
 40 41  1  0
 42 41  2  0
 43 42  1  0
 44 18  1  0
 44 45  1  0
 44 54  1  0
 45 48  1  0
 46 50  1  0
 46 45  1  0
 47 46  2  0
 50 49  1  0
 52 50  1  0
 52 53  1  0
 52 51  1  0
 54 57  1  1
 54 55  1  0
 56 54  1  0
 58  1  1  0
 59 58  1  0
 60 59  1  0
 61 60  1  0
 62 61  1  0
 63 64  1  0
 63 62  1  0
 65 63  1  0
 66 63  1  0
 67 66  1  0
 68 67  1  0
 69 68  1  0
 70 71  1  0
 70 69  1  0
 72 71  1  0
 72 73  1  0
 74 73  1  0
 74 83  1  0
 75 83  1  0
 75 81  1  0
 76 81  1  0
 77 78  1  0
 77 76  1  0
 79 78  1  0
 79 88  1  0
 79 80  1  0
 81 80  1  0
 82 75  2  0
 83 84  1  0
 85 86  2  0
 85 88  1  0
 86 87  1  0
 87 89  2  0
 87 90  1  0
 88 89  1  0
 90 91  1  0
 91 92  2  0
 93 92  1  0
 93 96  1  0
 94 93  2  0
 95 90  2  0
 95 94  1  0
 96 97  1  0
 97 98  2  0
 97102  1  0
 98 99  1  0
 99100  2  0
100104  1  0
101100  1  0
102101  2  0
103102  1  0
105 86  1  0
105106  1  0
106108  1  0
107105  2  0
109106  1  0
110 85  1  0
111110  1  0
112110  1  0
M  ISO  4  16 101  17 101  75 100  83 100
M  END
>  <TORSDO>  (6) 
F 44

>  <SCORE>  (6) 
-4.368

>  <name>  (6) 
5

>  <ligand_id>  (6) 
5

>  <original_smiles>  (6) 
[H]c1c([H])c([H])c2c(c1[H])C([H])([H])C([H])([H])C([H])([H])C2([H])N([H])C(=O)C1([H])N(C(=O)C([H])(N([H])C(=O)C([H])(N([H])C([H])([H])[H])C([H])([H])[H])C(C([H])([H])[H])(C([H])([H])[H])C([H])([H])[H])C([H])([H])c2c([H])c(OC([H])([H])C([H])([H])OC([H])([H])C([H])([H])OC([H])([H])C([H])([H])[N+]([H])([H])C([H])([H])C([H])([H])OC([H])([H])C([H])([H])C([H])([H])OC([H])([H])C([H])([H])C([H])([H])[N+]([H])([H])C([H])([H])C([H])([H])OC([H])([H])C([H])([H])OC([H])([H])C([H])([H])C([H])([H])N([H])C(=O)N3C([H])([H])C([H])([H])C([H])([H])C([H])(n4nc(-c5c([H])c([H])c(Oc6c([H])c([H])c(F)c([H])c6F)c([H])c5[H])c(C(=O)N([H])[H])c4N([H])[H])C3([H])[H])c([H])c([H])c2C1([H])[H]

>  <smiles>  (6) 
[H]c1c([H])c([H])c2c(c1[H])C([H])([H])C([H])([H])C([H])([H])C2([H])N([H])C(=O)C1([H])N(C(=O)C([H])(N([H])C(=O)C([H])(N([H])C([H])([H])[H])C([H])([H])[H])C(C([H])([H])[H])(C([H])([H])[H])C([H])([H])[H])C([H])([H])c2c([H])c(OC([H])([H])C([H])([H])OC([H])([H])C([H])([H])OC([H])([H])C([H])([H])[N+]([H])([H])C([H])([H])C([H])([H])OC([H])([H])C([H])([H])C([H])([H])OC([H])([H])C([H])([H])C([H])([H])[N+]([H])([H])C([H])([H])C([H])([H])OC([H])([H])C([H])([H])OC([H])([H])C([H])([H])C([H])([H])N([H])C(=O)N3C([H])([H])C([H])([H])C([H])([H])C([H])(n4nc(-c5c([H])c([H])c(Oc6c([H])c([H])c(F)c([H])c6F)c([H])c5[H])c(C(=O)N([H])[H])c4N([H])[H])C3([H])[H])c([H])c([H])c2C1([H])[H]

$$$$
6:0:0
     RDKit          3D

106113  0  0  1  0  0  0  0  0999 V2000
  -34.2750  -23.3630   16.9030 C   0  0  0  0  0  3  0  0  0  0  0  0
  -33.0340  -22.5690   16.4520 C   0  0  0  0  0  0  0  0  0  0  0  0
  -32.0120  -22.5380   17.3070 N   0  0  0  0  0  0  0  0  0  0  0  0
  -32.9960  -22.0360   15.3410 O   0  0  0  0  0  0  0  0  0  0  0  0
  -32.1880  -22.9800   18.2020 H   0  0  0  0  0  0  0  0  0  0  0  0
  -30.6500  -22.0880   17.0650 C   0  0  0  0  0  2  0  0  0  0  0  0
  -29.6990  -23.1900   17.5510 C   0  0  0  0  0  2  0  0  0  0  0  0
  -29.9910  -23.4620   18.9200 O   0  0  0  0  0  0  0  0  0  0  0  0
  -29.8950  -24.8350   19.2940 C   0  0  0  0  0  2  0  0  0  0  0  0
  -28.4530  -25.3620   19.3110 C   0  0  0  0  0  2  0  0  0  0  0  0
  -28.4090  -26.6450   19.9470 O   0  0  0  0  0  0  0  0  0  0  0  0
  -24.5260  -31.7280   23.0990 C   0  0  0  0  0  0  0  0  0  0  0  0
  -27.2060  -27.3230   19.9750 C   0  0  0  0  0  0  0  0  0  0  0  0
  -23.3290  -30.3170   21.4560 C   0  0  0  0  0  3  0  0  0  0  0  0
  -24.7900  -28.7890   20.0340 C   0  0  0  0  0  0  0  0  0  0  0  0
  -25.8500  -30.6920   21.2630 C   0  0  0  0  0  2  0  0  0  0  0  0
  -25.9450  -29.3260   20.6160 C   0  0  0  0  0  0  0  0  0  0  0  0
  -27.1530  -28.5950   20.5930 C   0  0  0  0  0  3  0  0  0  0  0  0
  -26.0240  -26.7990   19.3990 C   0  0  0  0  0  3  0  0  0  0  0  0
  -24.8220  -27.5220   19.4340 C   0  0  0  0  0  3  0  0  0  0  0  0
  -23.5440  -29.6350   20.0790 C   0  0  0  0  0  2  0  0  0  0  0  0
  -24.5850  -30.9270   21.9970 N   0  0  0  0  0  0  0  0  0  0  0  0
  -23.4430  -31.9970   23.6350 O   0  0  0  0  0  0  0  0  0  0  0  0
  -22.6770  -29.2970   22.4200 C   0  0  0  0  0  0  0  0  0  0  0  0
  -21.3530  -29.1180   22.2990 N   0  0  0  0  0  0  0  0  0  0  0  0
  -23.3630  -28.6680   23.2310 O   0  0  0  0  0  0  0  0  0  0  0  0
  -20.8560  -29.6780   21.6210 H   0  0  0  0  0  0  0  0  0  0  0  0
  -17.9820  -27.9260   22.8000 C   0  0  0  0  0  0  0  0  0  0  0  0
  -20.5390  -28.1750   23.0650 C   0  0  0  0  0  3  0  0  0  0  0  0
  -20.6410  -26.7510   22.4730 C   0  0  0  0  0  2  0  0  0  0  0  0
  -19.5340  -26.4380   21.4620 C   0  0  0  0  0  2  0  0  0  0  0  0
  -18.1550  -26.5810   22.1130 C   0  0  0  0  0  2  0  0  0  0  0  0
  -19.1030  -28.6840   23.2310 C   0  0  0  0  0  0  0  0  0  0  0  0
  -18.8890  -29.9450   23.8260 C   0  0  0  0  0  3  0  0  0  0  0  0
  -17.5860  -30.4480   24.0010 C   0  0  0  0  0  3  0  0  0  0  0  0
  -16.4780  -29.6850   23.5920 C   0  0  0  0  0  3  0  0  0  0  0  0
  -16.6770  -28.4270   22.9950 C   0  0  0  0  0  3  0  0  0  0  0  0
  -25.8120  -32.3640   23.7180 C   0  0  0  0  0  3  0  0  0  0  0  0
  -26.3570  -31.5710   24.9710 C   0  0  1  0  0  0  0  0  0  0  0  0
  -25.2880  -31.2920   26.0540 C   0  0  0  0  0  1  0  0  0  0  0  0
  -26.9470  -30.2100   24.5380 C   0  0  0  0  0  1  0  0  0  0  0  0
  -27.5100  -32.3600   25.6340 C   0  0  0  0  0  1  0  0  0  0  0  0
  -25.4930  -33.7510   24.0830 N   0  0  0  0  0  0  0  0  0  0  0  0
  -25.7910  -34.8210   23.3360 C   0  0  0  0  0  0  0  0  0  0  0  0
  -26.4390  -34.7500   22.2880 O   0  0  0  0  0  0  0  0  0  0  0  0
  -24.9320  -33.8840   24.9110 H   0  0  0  0  0  0  0  0  0  0  0  0
  -24.0220  -36.5810   23.0530 C   0  0  0  0  0  1  0  0  0  0  0  0
  -25.2900  -36.1910   23.8290 C   0  0  0  0  0  3  0  0  0  0  0  0
  -27.4280  -37.1010   24.6190 C   0  0  0  0  0  1  0  0  0  0  0  0
  -26.2980  -37.2650   23.7090 N   0  0  0  0  0  0  0  0  0  0  0  0
  -25.8770  -38.1730   23.8880 H   0  0  0  0  0  0  0  0  0  0  0  0
  -34.1360  -23.7440   18.2800 O   0  0  0  0  0  0  0  0  0  0  0  0
  -34.8550  -22.9390   19.2200 C   0  0  0  0  0  2  0  0  0  0  0  0
  -33.9140  -22.1010   20.0970 C   0  0  0  0  0  2  0  0  0  0  0  0
  -33.3970  -21.0220   19.3310 O   0  0  0  0  0  0  0  0  0  0  0  0
  -32.8100  -20.0080   20.1310 C   0  0  0  0  0  2  0  0  0  0  0  0
  -32.3870  -18.8400   19.2280 C   0  0  0  0  0  2  0  0  0  0  0  0
  -31.3870  -16.7440   20.1590 C   0  0  0  0  0  0  0  0  0  0  0  0
  -32.4080  -17.5820   19.9690 N   0  0  0  0  0  0  0  0  0  0  0  0
  -30.2340  -16.9940   19.7990 O   0  0  0  0  0  0  0  0  0  0  0  0
  -33.3120  -17.2700   20.3020 H   0  0  0  0  0  0  0  0  0  0  0  0
  -31.7490  -15.3870   20.7970 C   0  0  0  0  0  3  0  0  0  0  0  0
  -30.8530  -13.7760   19.1400 C   0  0  0  0  0  0  0  0  0  0  0  0
  -29.9330  -11.9370   17.7840 C   0  0  0  0  0  2  0  0  0  0  0  0
  -28.8340  -12.4150   16.8250 C   0  0  0  0  0  2  0  0  0  0  0  0
  -27.4670  -12.3670   17.5290 C   0  0  0  0  0  2  0  0  0  0  0  0
  -27.4850  -13.1230   18.8830 C   0  0  0  0  0  3  0  0  0  0  0  0
  -28.6780  -12.6730   19.7510 C   0  0  0  0  0  2  0  0  0  0  0  0
  -29.9220  -12.8060   18.9700 N   0  0  0  0  0  0  0  0  0  0  0  0
  -31.7280  -14.0430   18.3120 O   0  0  0  0  0  0  0  0  0  0  0  0
  -30.8230  -14.3610   20.3370 N   0  0  0  0  0  0  0  0  0  0  0  0
  -30.0500  -14.1360   20.9400 H   0  0  0  0  0  0  0  0  0  0  0  0
  -25.3310  -13.9420   20.0380 C   0  0  0  0  0  0  0  0  0  0  0  0
  -24.2760  -13.2620   20.5900 C   0  0  0  0  0  0  0  0  0  0  0  0
  -24.5880  -11.8770   20.4590 C   0  0  0  0  0  0  0  0  0  0  0  0
  -26.2220  -12.9710   19.6000 N   0  0  0  0  0  0  0  0  0  0  0  0
  -25.7880  -11.7230   19.9130 N   0  0  0  0  0  0  0  0  0  0  0  0
  -23.7910  -10.6840   20.7660 C   0  0  0  0  0  0  0  0  0  0  0  0
  -24.2910   -9.6540   21.5910 C   0  0  0  0  0  3  0  0  0  0  0  0
  -23.4990   -8.5230   21.8870 C   0  0  0  0  0  3  0  0  0  0  0  0
  -22.1920   -8.4130   21.3580 C   0  0  0  0  0  0  0  0  0  0  0  0
  -21.7050   -9.4310   20.5200 C   0  0  0  0  0  3  0  0  0  0  0  0
  -22.4960  -10.5550   20.2230 C   0  0  0  0  0  3  0  0  0  0  0  0
  -21.3620   -7.3370   21.5680 O   0  0  0  0  0  0  0  0  0  0  0  0
  -21.4600   -6.5610   22.6920 C   0  0  0  0  0  0  0  0  0  0  0  0
  -21.3540   -7.1090   23.9900 C   0  0  0  0  0  3  0  0  0  0  0  0
  -21.3910   -6.2640   25.1150 C   0  0  0  0  0  3  0  0  0  0  0  0
  -21.5220   -4.8720   24.9500 C   0  0  0  0  0  0  0  0  0  0  0  0
  -21.6240   -4.3240   23.6580 C   0  0  0  0  0  3  0  0  0  0  0  0
  -21.5900   -5.1650   22.5340 C   0  0  0  0  0  0  0  0  0  0  0  0
  -21.6650   -4.6290   21.2920 F   0  0  0  0  0  0  0  0  0  0  0  0
  -21.5530   -4.0610   26.0320 F   0  0  0  0  0  0  0  0  0  0  0  0
  -23.0060  -13.8640   21.1200 C   0  0  0  0  0  0  0  0  0  0  0  0
  -22.3890  -13.2270   22.1100 N   0  0  0  0  0  0  0  0  0  0  0  0
  -22.5730  -14.9270   20.6830 O   0  0  0  0  0  0  0  0  0  0  0  0
  -22.7580  -12.3680   22.4900 H   0  0  0  0  0  0  0  0  0  0  0  0
  -21.5390  -13.6120   22.4990 H   0  0  0  0  0  0  0  0  0  0  0  0
  -25.5940  -15.2950   19.8650 N   0  0  0  0  0  0  0  0  0  0  0  0
  -24.9240  -15.9990   20.1580 H   0  0  0  0  0  0  0  0  0  0  0  0
  -26.4260  -15.6920   19.4430 H   0  0  0  0  0  0  0  0  0  0  0  0
  -30.3480  -15.5610   22.9910 C   0  0  0  0  0  1  0  0  0  0  0  0
  -32.4540  -14.1810   22.9200 C   0  0  0  0  0  1  0  0  0  0  0  0
  -31.7420  -15.4200   22.3480 C   0  0  0  0  0  3  0  0  0  0  0  0
  -34.4020  -24.6660   16.0860 C   0  0  0  0  0  2  0  0  0  0  0  0
  -35.6540  -25.2800   16.3440 O   0  0  0  0  0  0  0  0  0  0  0  0
  -35.7090  -25.3880   17.2890 H   0  0  0  0  0  0  0  0  0  0  0  0
  1104  1  0
  1 52  1  0
  2  1  1  0
  2  3  1  0
  3  5  1  0
  4  2  2  0
  6  3  1  0
  6  7  1  0
  7  8  1  0
  8  9  1  0
  9 10  1  0
 10 11  1  0
 11 13  1  0
 12 23  2  0
 13 18  1  0
 14 22  1  0
 14 24  1  0
 15 21  1  0
 15 17  1  0
 16 22  1  0
 17 16  1  0
 18 17  2  0
 19 20  1  0
 19 13  2  0
 20 15  2  0
 21 14  1  0
 22 12  1  0
 24 26  2  0
 25 24  1  0
 27 25  1  0
 28 37  2  0
 28 33  1  0
 29 25  1  0
 29 33  1  0
 30 29  1  0
 31 32  1  0
 31 30  1  0
 32 28  1  0
 33 34  2  0
 34 35  1  0
 36 35  2  0
 37 36  1  0
 38 12  1  0
 38 43  1  0
 38 39  1  0
 39 42  1  1
 39 40  1  0
 41 39  1  0
 43 46  1  0
 44 48  1  0
 44 43  1  0
 45 44  2  0
 48 47  1  0
 50 48  1  0
 50 51  1  0
 50 49  1  0
 52 53  1  0
 53 54  1  0
 55 54  1  0
 55 56  1  0
 57 59  1  0
 57 56  1  0
 59 58  1  0
 59 61  1  0
 60 58  2  0
 62 58  1  0
 62103  1  0
 63 71  1  0
 64 69  1  0
 65 66  1  0
 65 64  1  0
 67 66  1  0
 67 76  1  0
 67 68  1  0
 69 63  1  0
 69 68  1  0
 70 63  2  0
 71 62  1  0
 71 72  1  0
 73 74  2  0
 74 93  1  0
 75 74  1  0
 75 78  1  0
 76 77  1  0
 76 73  1  0
 77 75  2  0
 78 79  1  0
 79 80  2  0
 81 84  1  0
 81 80  1  0
 82 81  2  0
 83 82  1  0
 83 78  2  0
 84 85  1  0
 85 86  1  0
 86 87  2  0
 88 87  1  0
 88 92  1  0
 89 88  2  0
 90 85  2  0
 90 89  1  0
 91 90  1  0
 93 94  1  0
 94 96  1  0
 94 97  1  0
 95 93  2  0
 98 73  1  0
 98 99  1  0
100 98  1  0
103102  1  0
103101  1  0
104105  1  0
105106  1  0
M  ISO  4  10 101  11 101  63 100  71 100
M  END
>  <TORSDO>  (7) 
F 33

>  <SCORE>  (7) 
-3.655

>  <name>  (7) 
6

>  <ligand_id>  (7) 
6

>  <original_smiles>  (7) 
[H]OC([H])([H])C([H])(OC([H])([H])C([H])([H])OC([H])([H])C([H])([H])N([H])C(=O)C([H])(N([H])C(=O)N1C([H])([H])C([H])([H])C([H])([H])C([H])(n2nc(-c3c([H])c([H])c(Oc4c([H])c([H])c(F)c([H])c4F)c([H])c3[H])c(C(=O)N([H])[H])c2N([H])[H])C1([H])[H])C([H])(C([H])([H])[H])C([H])([H])[H])C(=O)N([H])C([H])([H])C([H])([H])OC([H])([H])C([H])([H])Oc1c([H])c([H])c2c(c1[H])C([H])([H])N(C(=O)C([H])(N([H])C(=O)C([H])(N([H])C([H])([H])[H])C([H])([H])[H])C(C([H])([H])[H])(C([H])([H])[H])C([H])([H])[H])C([H])(C(=O)N([H])C1([H])c3c([H])c([H])c([H])c([H])c3C([H])([H])C([H])([H])C1([H])[H])C2([H])[H]

>  <smiles>  (7) 
[H]OC([H])([H])C([H])(OC([H])([H])C([H])([H])OC([H])([H])C([H])([H])N([H])C(=O)C([H])(N([H])C(=O)N1C([H])([H])C([H])([H])C([H])([H])C([H])(n2nc(-c3c([H])c([H])c(Oc4c([H])c([H])c(F)c([H])c4F)c([H])c3[H])c(C(=O)N([H])[H])c2N([H])[H])C1([H])[H])C([H])(C([H])([H])[H])C([H])([H])[H])C(=O)N([H])C([H])([H])C([H])([H])OC([H])([H])C([H])([H])Oc1c([H])c([H])c2c(c1[H])C([H])([H])N(C(=O)C([H])(N([H])C(=O)C([H])(N([H])C([H])([H])[H])C([H])([H])[H])C(C([H])([H])[H])(C([H])([H])[H])C([H])([H])[H])C([H])(C(=O)N([H])C1([H])c3c([H])c([H])c([H])c([H])c3C([H])([H])C([H])([H])C1([H])[H])C2([H])[H]

$$$$
7:0:0
     RDKit          3D

100107  0  0  1  0  0  0  0  0999 V2000
  -30.9630  -21.7330   22.7940 C   0  0  0  0  0  2  0  0  0  0  0  0
  -29.7610  -21.4700   22.1360 O   0  0  0  0  0  0  0  0  0  0  0  0
  -28.7020  -22.3550   22.4810 C   0  0  0  0  0  2  0  0  0  0  0  0
  -27.4640  -22.0570   21.6150 C   0  0  0  0  0  2  0  0  0  0  0  0
  -27.3410  -22.9530   20.5120 O   0  0  0  0  0  0  0  0  0  0  0  0
  -27.7420  -22.4230   19.2530 C   0  0  0  0  0  2  0  0  0  0  0  0
  -29.2700  -22.3570   19.1280 C   0  0  0  0  0  2  0  0  0  0  0  0
  -29.6910  -22.7860   17.8420 O   0  0  0  0  0  0  0  0  0  0  0  0
  -31.1080  -22.8080   17.6950 C   0  0  0  0  0  2  0  0  0  0  0  0
  -31.5950  -21.6140   16.8610 C   0  0  0  0  0  2  0  0  0  0  0  0
  -31.5550  -20.3860   17.5880 O   0  0  0  0  0  0  0  0  0  0  0  0
  -31.8660  -19.2980   16.7290 C   0  0  0  0  0  2  0  0  0  0  0  0
  -31.7470  -17.9230   17.4070 C   0  0  0  0  0  2  0  0  0  0  0  0
  -32.8880  -16.3630   15.8630 C   0  0  0  0  0  0  0  0  0  0  0  0
  -34.0600  -15.7660   13.7780 C   0  0  0  0  0  2  0  0  0  0  0  0
  -34.6060  -17.0400   13.1020 C   0  0  0  0  0  2  0  0  0  0  0  0
  -33.5370  -17.6870   12.2020 C   0  0  0  0  0  2  0  0  0  0  0  0
  -32.1740  -17.8590   12.9250 C   0  0  0  0  0  3  0  0  0  0  0  0
  -31.7600  -16.5390   13.6150 C   0  0  0  0  0  2  0  0  0  0  0  0
  -32.8460  -16.1220   14.5260 N   0  0  0  0  0  0  0  0  0  0  0  0
  -33.8880  -16.1910   16.5640 O   0  0  0  0  0  0  0  0  0  0  0  0
  -31.7740  -16.9070   16.3590 N   0  0  0  0  0  0  0  0  0  0  0  0
  -30.9800  -16.8960   15.7340 H   0  0  0  0  0  0  0  0  0  0  0  0
  -30.3500  -19.4770   12.0830 C   0  0  0  0  0  0  0  0  0  0  0  0
  -29.5960  -19.4880   10.9390 C   0  0  0  0  0  0  0  0  0  0  0  0
  -29.9850  -18.3280   10.2000 C   0  0  0  0  0  0  0  0  0  0  0  0
  -31.1410  -18.3390   12.0080 N   0  0  0  0  0  0  0  0  0  0  0  0
  -30.8740  -17.6210   10.8870 N   0  0  0  0  0  0  0  0  0  0  0  0
  -29.6020  -17.8770    8.8560 C   0  0  0  0  0  0  0  0  0  0  0  0
  -29.1180  -16.5700    8.6300 C   0  0  0  0  0  3  0  0  0  0  0  0
  -28.7380  -16.1630    7.3330 C   0  0  0  0  0  3  0  0  0  0  0  0
  -28.8350  -17.0670    6.2490 C   0  0  0  0  0  0  0  0  0  0  0  0
  -29.3390  -18.3600    6.4770 C   0  0  0  0  0  3  0  0  0  0  0  0
  -29.7210  -18.7630    7.7670 C   0  0  0  0  0  3  0  0  0  0  0  0
  -28.5140  -16.7520    4.9510 O   0  0  0  0  0  0  0  0  0  0  0  0
  -27.5940  -15.7790    4.6530 C   0  0  0  0  0  0  0  0  0  0  0  0
  -26.2730  -15.8240    5.1510 C   0  0  0  0  0  3  0  0  0  0  0  0
  -25.3400  -14.8420    4.7600 C   0  0  0  0  0  3  0  0  0  0  0  0
  -25.7220  -13.8220    3.8690 C   0  0  0  0  0  0  0  0  0  0  0  0
  -27.0360  -13.7780    3.3690 C   0  0  0  0  0  3  0  0  0  0  0  0
  -27.9670  -14.7560    3.7570 C   0  0  0  0  0  0  0  0  0  0  0  0
  -29.2250  -14.7230    3.2550 F   0  0  0  0  0  0  0  0  0  0  0  0
  -24.8250  -12.8830    3.4870 F   0  0  0  0  0  0  0  0  0  0  0  0
  -28.6390  -20.5600   10.5070 C   0  0  0  0  0  0  0  0  0  0  0  0
  -27.5960  -20.1880    9.7710 N   0  0  0  0  0  0  0  0  0  0  0  0
  -28.7830  -21.7290   10.8620 O   0  0  0  0  0  0  0  0  0  0  0  0
  -27.4670  -19.2250    9.4990 H   0  0  0  0  0  0  0  0  0  0  0  0
  -26.9170  -20.8750    9.4790 H   0  0  0  0  0  0  0  0  0  0  0  0
  -30.4410  -20.3430   13.1670 N   0  0  0  0  0  0  0  0  0  0  0  0
  -29.9040  -21.2000   13.2160 H   0  0  0  0  0  0  0  0  0  0  0  0
  -31.0890  -20.2300   13.9350 H   0  0  0  0  0  0  0  0  0  0  0  0
  -31.6280  -22.8400   22.2710 O   0  0  0  0  0  0  0  0  0  0  0  0
  -32.1170  -22.6400   20.9480 C   0  0  0  0  0  2  0  0  0  0  0  0
  -33.2730  -23.6050   20.6650 C   0  0  0  0  0  2  0  0  0  0  0  0
  -32.1990  -25.6850   19.8350 C   0  0  0  0  0  0  0  0  0  0  0  0
  -32.8670  -25.0040   20.7730 N   0  0  0  0  0  0  0  0  0  0  0  0
  -31.7410  -25.1470   18.8230 O   0  0  0  0  0  0  0  0  0  0  0  0
  -33.1700  -25.5140   21.5920 H   0  0  0  0  0  0  0  0  0  0  0  0
  -32.0560  -27.1930   20.0470 C   0  0  0  0  0  2  0  0  0  0  0  0
  -31.3490  -27.4490   21.2620 O   0  0  0  0  0  0  0  0  0  0  0  0
  -25.9400  -31.1710   23.9740 C   0  0  0  0  0  0  0  0  0  0  0  0
  -30.0290  -27.8100   21.1320 C   0  0  0  0  0  0  0  0  0  0  0  0
  -25.3640  -29.6480   22.1090 C   0  0  0  0  0  3  0  0  0  0  0  0
  -27.3430  -28.6310   20.8630 C   0  0  0  0  0  0  0  0  0  0  0  0
  -27.7120  -30.6370   22.3090 C   0  0  0  0  0  2  0  0  0  0  0  0
  -28.2300  -29.3820   21.6410 C   0  0  0  0  0  0  0  0  0  0  0  0
  -29.5700  -28.9690   21.7890 C   0  0  0  0  0  3  0  0  0  0  0  0
  -29.1190  -27.0440   20.3690 C   0  0  0  0  0  3  0  0  0  0  0  0
  -27.7790  -27.4520   20.2310 C   0  0  0  0  0  3  0  0  0  0  0  0
  -25.9270  -29.1480   20.7500 C   0  0  0  0  0  2  0  0  0  0  0  0
  -26.3440  -30.5000   22.8590 N   0  0  0  0  0  0  0  0  0  0  0  0
  -24.7630  -31.1250   24.3560 O   0  0  0  0  0  0  0  0  0  0  0  0
  -24.8740  -28.4260   22.9170 C   0  0  0  0  0  0  0  0  0  0  0  0
  -23.7550  -27.8290   22.4760 N   0  0  0  0  0  0  0  0  0  0  0  0
  -25.5070  -28.0170   23.8940 O   0  0  0  0  0  0  0  0  0  0  0  0
  -23.2900  -28.2310   21.6730 H   0  0  0  0  0  0  0  0  0  0  0  0
  -21.0120  -25.5100   22.0940 C   0  0  0  0  0  0  0  0  0  0  0  0
  -23.1280  -26.6430   23.0550 C   0  0  0  0  0  3  0  0  0  0  0  0
  -23.8810  -25.3570   22.6390 C   0  0  0  0  0  2  0  0  0  0  0  0
  -23.3010  -24.6980   21.3830 C   0  0  0  0  0  2  0  0  0  0  0  0
  -21.8300  -24.3300   21.6000 C   0  0  0  0  0  2  0  0  0  0  0  0
  -21.6240  -26.6030   22.7640 C   0  0  0  0  0  0  0  0  0  0  0  0
  -20.8220  -27.6920   23.1710 C   0  0  0  0  0  3  0  0  0  0  0  0
  -19.4360  -27.6980   22.9250 C   0  0  0  0  0  3  0  0  0  0  0  0
  -18.8340  -26.6070   22.2760 C   0  0  0  0  0  3  0  0  0  0  0  0
  -19.6200  -25.5150   21.8660 C   0  0  0  0  0  3  0  0  0  0  0  0
  -26.9290  -32.0470   24.8050 C   0  0  0  0  0  3  0  0  0  0  0  0
  -26.3130  -33.3690   24.9750 N   0  0  0  0  0  0  0  0  0  0  0  0
  -26.6270  -34.4520   24.2510 C   0  0  0  0  0  0  0  0  0  0  0  0
  -27.5300  -34.4570   23.4090 O   0  0  0  0  0  0  0  0  0  0  0  0
  -25.5300  -33.4260   25.6090 H   0  0  0  0  0  0  0  0  0  0  0  0
  -24.7550  -35.8960   23.3940 C   0  0  0  0  0  1  0  0  0  0  0  0
  -25.8080  -35.7330   24.5010 C   0  0  0  0  0  3  0  0  0  0  0  0
  -27.4950  -36.9930   25.7650 C   0  0  0  0  0  1  0  0  0  0  0  0
  -26.6380  -36.9540   24.5830 N   0  0  0  0  0  0  0  0  0  0  0  0
  -26.0540  -37.7860   24.5890 H   0  0  0  0  0  0  0  0  0  0  0  0
  -27.2930  -31.4170   26.2060 C   0  0  1  0  0  0  0  0  0  0  0  0
  -26.0590  -31.0080   27.0430 C   0  0  0  0  0  1  0  0  0  0  0  0
  -28.1800  -30.1630   26.0240 C   0  0  0  0  0  1  0  0  0  0  0  0
  -28.1200  -32.4270   27.0370 C   0  0  0  0  0  1  0  0  0  0  0  0
  2  3  1  0
  2  1  1  0
  4  3  1  0
  5  4  1  0
  6  5  1  0
  7  6  1  0
  8  7  1  0
  9  8  1  0
 10 11  1  0
 10  9  1  0
 12 13  1  0
 12 11  1  0
 14 22  1  0
 14 21  2  0
 15 20  1  0
 16 15  1  0
 17 18  1  0
 17 16  1  0
 18 27  1  0
 18 19  1  0
 19 20  1  0
 20 14  1  0
 22 13  1  0
 23 22  1  0
 24 49  1  0
 25 24  2  0
 26 28  2  0
 26 25  1  0
 27 24  1  0
 28 27  1  0
 29 26  1  0
 30 29  1  0
 31 30  2  0
 32 33  2  0
 32 31  1  0
 33 34  1  0
 34 29  2  0
 35 32  1  0
 36 35  1  0
 36 37  1  0
 38 37  2  0
 39 38  1  0
 40 41  1  0
 40 39  2  0
 41 36  2  0
 42 41  1  0
 43 39  1  0
 44 46  2  0
 44 25  1  0
 45 44  1  0
 47 45  1  0
 48 45  1  0
 49 50  1  0
 49 51  1  0
 52  1  1  0
 53 52  1  0
 54 56  1  0
 54 53  1  0
 55 59  1  0
 55 56  1  0
 56 58  1  0
 57 55  2  0
 59 60  1  0
 61 72  2  0
 62 60  1  0
 62 67  1  0
 63 71  1  0
 63 73  1  0
 64 66  1  0
 65 71  1  0
 66 67  2  0
 66 65  1  0
 68 62  2  0
 69 68  1  0
 69 64  2  0
 70 64  1  0
 70 63  1  0
 71 61  1  0
 73 75  2  0
 74 73  1  0
 76 74  1  0
 77 82  1  0
 78 74  1  0
 79 78  1  0
 80 81  1  0
 80 79  1  0
 81 77  1  0
 82 78  1  0
 82 83  2  0
 84 83  1  0
 85 84  2  0
 86 77  2  0
 86 85  1  0
 87 61  1  0
 87 88  1  0
 87 97  1  0
 88 91  1  0
 89 93  1  0
 89 88  1  0
 90 89  2  0
 93 92  1  0
 93 95  1  0
 95 96  1  0
 95 94  1  0
 97100  1  1
 97 98  1  0
 99 97  1  0
M  ISO  4  14 100  22 100  59 101  60 101
M  END
>  <TORSDO>  (8) 
F 33

>  <SCORE>  (8) 
-3.226

>  <name>  (8) 
7

>  <ligand_id>  (8) 
7

>  <original_smiles>  (8) 
[H]c1c([H])c([H])c2c(c1[H])C([H])([H])C([H])([H])C([H])([H])C2([H])N([H])C(=O)C1([H])N(C(=O)C([H])(N([H])C(=O)C([H])(N([H])C([H])([H])[H])C([H])([H])[H])C(C([H])([H])[H])(C([H])([H])[H])C([H])([H])[H])C([H])([H])c2c([H])c(OC([H])([H])C(=O)N([H])C([H])([H])C([H])([H])OC([H])([H])OC([H])([H])C([H])([H])OC([H])([H])C([H])([H])OC([H])([H])C([H])([H])OC([H])([H])C([H])([H])N([H])C(=O)N3C([H])([H])C([H])([H])C([H])([H])C([H])(n4nc(-c5c([H])c([H])c(Oc6c([H])c([H])c(F)c([H])c6F)c([H])c5[H])c(C(=O)N([H])[H])c4N([H])[H])C3([H])[H])c([H])c([H])c2C1([H])[H]

>  <smiles>  (8) 
[H]c1c([H])c([H])c2c(c1[H])C([H])([H])C([H])([H])C([H])([H])C2([H])N([H])C(=O)C1([H])N(C(=O)C([H])(N([H])C(=O)C([H])(N([H])C([H])([H])[H])C([H])([H])[H])C(C([H])([H])[H])(C([H])([H])[H])C([H])([H])[H])C([H])([H])c2c([H])c(OC([H])([H])C(=O)N([H])C([H])([H])C([H])([H])OC([H])([H])OC([H])([H])C([H])([H])OC([H])([H])C([H])([H])OC([H])([H])C([H])([H])OC([H])([H])C([H])([H])N([H])C(=O)N3C([H])([H])C([H])([H])C([H])([H])C([H])(n4nc(-c5c([H])c([H])c(Oc6c([H])c([H])c(F)c([H])c6F)c([H])c5[H])c(C(=O)N([H])[H])c4N([H])[H])C3([H])[H])c([H])c([H])c2C1([H])[H]

$$$$
8:0:0
     RDKit          3D

109113  0  0  1  0  0  0  0  0999 V2000
  -21.2630  -25.2650   18.4470 C   0  0  0  0  0  0  0  0  0  0  0  0
  -20.7240  -25.9190   17.1400 C   0  0  0  0  0  0  0  0  0  0  0  0
  -21.2230  -25.5830   15.9620 N   0  0  0  0  0  0  0  0  0  0  0  0
  -19.8220  -26.7540   17.1730 O   0  0  0  0  0  0  0  0  0  0  0  0
  -22.0160  -24.9350   15.9360 H   0  0  0  0  0  0  0  0  0  0  0  0
  -20.8780  -25.9990   15.1100 H   0  0  0  0  0  0  0  0  0  0  0  0
  -23.1840  -23.5780   17.5030 C   0  0  0  0  0  0  0  0  0  0  0  0
  -22.5640  -24.4380   18.3770 N   0  0  0  0  0  4  0  0  0  0  0  0
  -22.6690  -23.2770   16.4260 O   0  0  0  0  0  0  0  0  0  0  0  0
  -23.0910  -24.5540   19.2300 H   0  0  0  0  0  0  0  0  0  0  0  0
  -24.5450  -22.8320   17.8420 C   0  0  0  0  0  3  0  0  0  0  0  0
  -25.3310  -22.7990   16.5920 N   0  0  0  0  0  4  0  0  0  0  0  0
  -25.4990  -23.7460   16.2920 H   0  0  0  0  0  0  0  0  0  0  0  0
  -24.7640  -22.3840   15.8720 H   0  0  0  0  0  0  0  0  0  0  0  0
  -26.1970  -22.2950   16.6580 H   0  0  0  0  0  0  0  0  0  0  0  0
  -25.4830  -23.1840   19.1120 C   0  0  0  0  0  2  0  0  0  0  0  0
  -26.6300  -24.3340   19.1250 C   0  0  0  0  0  2  0  0  0  0  0  0
  -26.7520  -25.2750   20.2730 O   0  0  0  0  0  0  0  0  0  0  0  0
  -24.3090  -31.3260   23.0860 C   0  0  0  0  0  0  0  0  0  0  0  0
  -26.0760  -26.4380   20.0300 C   0  0  0  0  0  0  0  0  0  0  0  0
  -22.9090  -30.0860   21.5150 C   0  0  0  0  0  3  0  0  0  0  0  0
  -24.0720  -28.3830   20.0460 C   0  0  0  0  0  0  0  0  0  0  0  0
  -25.4510  -30.0070   21.3120 C   0  0  0  0  0  2  0  0  0  0  0  0
  -25.2900  -28.6450   20.6830 C   0  0  0  0  0  0  0  0  0  0  0  0
  -26.3040  -27.6540   20.7170 C   0  0  0  0  0  3  0  0  0  0  0  0
  -24.9720  -26.3430   19.1700 C   0  0  0  0  0  3  0  0  0  0  0  0
  -23.9310  -27.2560   19.2560 C   0  0  0  0  0  3  0  0  0  0  0  0
  -22.9770  -29.4040   20.1330 C   0  0  0  0  0  2  0  0  0  0  0  0
  -24.2440  -30.5050   22.0080 N   0  0  0  0  0  0  0  0  0  0  0  0
  -23.2830  -31.7590   23.6350 O   0  0  0  0  0  0  0  0  0  0  0  0
  -22.2470  -29.1630   22.5400 C   0  0  0  0  0  0  0  0  0  0  0  0
  -21.0230  -29.4890   22.8980 N   0  0  0  0  0  0  0  0  0  0  0  0
  -22.8230  -28.1820   23.0150 O   0  0  0  0  0  0  0  0  0  0  0  0
  -20.5820  -30.3240   22.5480 H   0  0  0  0  0  0  0  0  0  0  0  0
  -17.1480  -28.5830   23.1970 C   0  0  0  0  0  0  0  0  0  0  0  0
  -20.2430  -28.5890   23.6890 C   0  0  0  0  0  2  0  0  0  0  0  0
  -20.5630  -26.7410   22.8830 C   0  0  0  0  0  1  0  0  0  0  0  0
  -18.7880  -25.7610   22.1630 C   0  0  0  0  0 15  0  0  0  0  0  0
  -17.0620  -26.8660   22.3670 C   0  0  0  0  0  1  0  0  0  0  0  0
  -18.5120  -29.3270   23.7230 C   0  0  0  0  0  0  0  0  0  0  0  0
  -18.4140  -30.6690   24.1140 C   0  0  0  0  0  3  0  0  0  0  0  0
  -17.1770  -31.3310   24.1000 C   0  0  0  0  0  3  0  0  0  0  0  0
  -15.9940  -30.6820   23.7030 C   0  0  0  0  0  3  0  0  0  0  0  0
  -15.9770  -29.3450   23.2580 C   0  0  0  0  0  3  0  0  0  0  0  0
  -25.6800  -31.7770   23.6580 C   0  0  0  0  0  3  0  0  0  0  0  0
  -25.5010  -33.1440   24.1570 N   0  0  0  0  0  0  0  0  0  0  0  0
  -25.9240  -34.2400   23.5160 C   0  0  0  0  0  0  0  0  0  0  0  0
  -26.5870  -34.1960   22.4760 O   0  0  0  0  0  0  0  0  0  0  0  0
  -24.9320  -33.2560   24.9830 H   0  0  0  0  0  0  0  0  0  0  0  0
  -24.3260  -36.1780   23.4180 C   0  0  0  0  0  1  0  0  0  0  0  0
  -25.5580  -35.6020   24.1340 C   0  0  0  0  0  3  0  0  0  0  0  0
  -27.7590  -36.2500   25.0030 C   0  0  0  0  0  1  0  0  0  0  0  0
  -26.6660  -36.5790   24.0920 N   0  0  0  0  0  0  0  0  0  0  0  0
  -26.3330  -37.5120   24.3200 H   0  0  0  0  0  0  0  0  0  0  0  0
  -26.2210  -30.8250   24.7910 C   0  0  1  0  0  0  0  0  0  0  0  0
  -25.1410  -30.3900   25.8080 C   0  0  0  0  0  1  0  0  0  0  0  0
  -26.8440  -29.5410   24.1950 C   0  0  0  0  0  1  0  0  0  0  0  0
  -27.3500  -31.5420   25.5650 C   0  0  0  0  0  1  0  0  0  0  0  0
  -20.9700  -26.2920   19.7170 C   0  0  0  0  0  2  0  0  0  0  0  0
  -21.1000  -26.2610   21.2670 O   0  0  0  0  0  0  0  0  0  0  0  0
  -21.9920  -25.1640   23.1620 C   0  0  0  0  0  1  0  0  0  0  0  0
  -23.5340  -25.2180   23.8950 C   0  0  0  0  0  2  0  0  0  0  0  0
  -24.8510  -25.3490   23.1690 O   0  0  0  0  0  0  0  0  0  0  0  0
  -26.1130  -25.7850   23.8440 C   0  0  0  0  0  2  0  0  0  0  0  0
  -27.5400  -25.7080   23.0680 C   0  0  0  0  0  3  0  0  0  0  0  0
  -28.7440  -26.7560   23.3790 C   0  0  0  0  0  3  0  0  0  0  0  0
  -30.2420  -26.5710   22.7820 C   0  0  0  0  0  2  0  0  0  0  0  0
  -30.9300  -27.7100   22.1060 O   0  0  0  0  0  0  0  0  0  0  0  0
  -32.4010  -27.6840   21.8500 C   0  0  0  0  0  3  0  0  0  0  0  0
  -32.9710  -27.8000   20.3350 C   0  0  0  0  0  3  0  0  0  0  0  0
  -34.5280  -27.5260   19.9410 C   0  0  0  0  0  2  0  0  0  0  0  0
  -35.8990  -25.7880   18.3620 C   0  0  0  0  0  0  0  0  0  0  0  0
  -36.1930  -23.8240   16.8190 C   0  0  0  0  0  2  0  0  0  0  0  0
  -34.9060  -23.6810   15.9660 C   0  0  0  0  0  2  0  0  0  0  0  0
  -33.7750  -22.9630   16.7400 C   0  0  0  0  0  2  0  0  0  0  0  0
  -33.6090  -23.5080   18.1820 C   0  0  0  0  0  3  0  0  0  0  0  0
  -34.9780  -23.5400   18.8880 C   0  0  0  0  0  2  0  0  0  0  0  0
  -35.8170  -24.4490   18.1040 N   0  0  0  0  0  0  0  0  0  0  0  0
  -36.7210  -26.4980   17.7580 O   0  0  0  0  0  0  0  0  0  0  0  0
  -34.9010  -26.2410   19.2220 N   0  0  0  0  0  0  0  0  0  0  0  0
  -34.3070  -25.4710   19.4910 H   0  0  0  0  0  0  0  0  0  0  0  0
  -31.8450  -23.1830   20.0150 C   0  0  0  0  0  0  0  0  0  0  0  0
  -31.0710  -22.1080   20.3510 C   0  0  0  0  0  0  0  0  0  0  0  0
  -31.4420  -21.0620   19.4520 C   0  0  0  0  0  0  0  0  0  0  0  0
  -32.6350  -22.7610   18.9570 N   0  0  0  0  0  0  0  0  0  0  0  0
  -32.4280  -21.4570   18.6600 N   0  0  0  0  0  0  0  0  0  0  0  0
  -30.8750  -19.7260   19.2560 C   0  0  0  0  0  0  0  0  0  0  0  0
  -31.5150  -18.5740   19.7570 C   0  0  0  0  0  3  0  0  0  0  0  0
  -30.9410  -17.2990   19.5670 C   0  0  0  0  0  3  0  0  0  0  0  0
  -29.7150  -17.1710   18.8710 C   0  0  0  0  0  0  0  0  0  0  0  0
  -29.0950  -18.3220   18.3530 C   0  0  0  0  0  3  0  0  0  0  0  0
  -29.6700  -19.5890   18.5390 C   0  0  0  0  0  3  0  0  0  0  0  0
  -29.0950  -15.9730   18.6160 O   0  0  0  0  0  0  0  0  0  0  0  0
  -29.0330  -14.9810   19.5610 C   0  0  0  0  0  0  0  0  0  0  0  0
  -28.2150  -15.0920   20.7050 C   0  0  0  0  0  3  0  0  0  0  0  0
  -28.1270  -14.0190   21.6160 C   0  0  0  0  0  3  0  0  0  0  0  0
  -28.8490  -12.8340   21.3780 C   0  0  0  0  0  0  0  0  0  0  0  0
  -29.6610  -12.7200   20.2360 C   0  0  0  0  0  3  0  0  0  0  0  0
  -29.7510  -13.7900   19.3280 C   0  0  0  0  0  0  0  0  0  0  0  0
  -30.5170  -13.6680   18.2180 F   0  0  0  0  0  0  0  0  0  0  0  0
  -28.7600  -11.8000   22.2470 F   0  0  0  0  0  0  0  0  0  0  0  0
  -29.9750  -22.0830   21.3750 C   0  0  0  0  0  0  0  0  0  0  0  0
  -29.9610  -21.0720   22.2350 N   0  0  0  0  0  0  0  0  0  0  0  0
  -29.1480  -22.9920   21.4480 O   0  0  0  0  0  0  0  0  0  0  0  0
  -30.6510  -20.3380   22.1900 H   0  0  0  0  0  0  0  0  0  0  0  0
  -29.2490  -21.0330   22.9510 H   0  0  0  0  0  0  0  0  0  0  0  0
  -31.9230  -24.4820   20.5050 N   0  0  0  0  0  0  0  0  0  0  0  0
  -31.2850  -24.8050   21.2240 H   0  0  0  0  0  0  0  0  0  0  0  0
  -32.4370  -25.2340   20.0660 H   0  0  0  0  0  0  0  0  0  0  0  0
  1 59  1  0
  2  4  2  0
  2  1  1  0
  3  2  1  0
  5  3  1  0
  6  3  1  0
  7 11  1  0
  7  8  1  0
  8  1  2  0
  8 10  1  0
  9  7  2  0
 11 16  1  0
 12 15  1  0
 12 11  1  0
 13 12  1  0
 14 12  1  0
 16 17  1  0
 17 18  1  0
 19 30  2  0
 20 18  1  0
 20 25  1  0
 21 29  1  0
 21 31  1  0
 22 28  1  0
 22 24  1  0
 23 29  1  0
 24 25  2  0
 24 23  1  0
 26 27  1  0
 26 20  2  0
 27 22  2  0
 28 21  1  0
 29 19  1  0
 31 32  1  0
 31 33  2  0
 32 36  1  0
 34 32  1  0
 35 44  2  0
 35 40  1  0
 36 40  1  0
 39 35  1  0
 40 41  2  0
 42 41  1  0
 43 42  2  0
 44 43  1  0
 45 19  1  0
 45 46  1  0
 45 55  1  0
 46 49  1  0
 47 51  1  0
 47 46  1  0
 48 47  2  0
 51 50  1  0
 53 51  1  0
 53 54  1  0
 53 52  1  0
 55 58  1  1
 55 56  1  0
 57 55  1  0
 59 60  1  0
 60 37  1  0
 61 62  1  0
 63 64  1  0
 63 62  1  0
 65 66  2  0
 65 64  1  0
 67 66  1  0
 68 67  1  0
 69 68  1  0
 70 69  2  0
 71 70  1  0
 72 80  1  0
 73 78  1  0
 74 75  1  0
 74 73  1  0
 76 75  1  0
 76 77  1  0
 76 85  1  0
 78 72  1  0
 78 77  1  0
 79 72  2  0
 80 81  1  0
 80 71  1  0
 82 83  2  0
 82107  1  0
 83102  1  0
 84 83  1  0
 85 82  1  0
 86 85  1  0
 86 84  2  0
 87 84  1  0
 87 88  1  0
 89 88  2  0
 90 89  1  0
 91 92  1  0
 91 90  2  0
 92 87  2  0
 93 90  1  0
 93 94  1  0
 94 95  1  0
 95 96  2  0
 97 96  1  0
 97101  1  0
 98 97  2  0
 99 94  2  0
 99 98  1  0
100 99  1  0
102104  2  0
102103  1  0
103106  1  0
105103  1  0
107108  1  0
109107  1  0
M  ISO  4  17 101  18 101  72 100  80 100
M  END
>  <TORSDO>  (9) 
F 35

>  <SCORE>  (9) 
-5.191

>  <name>  (9) 
8

>  <ligand_id>  (9) 
8

>  <original_smiles>  (9) 
[H]c1c([H])c([H])c2c(c1[H])C([H])([H])C([H])([H])C([H])([H])C2([H])N([H])C(=O)C1([H])N(C(=O)C([H])(N([H])C(=O)C([H])(N([H])C([H])([H])[H])C([H])([H])[H])C(C([H])([H])[H])(C([H])([H])[H])C([H])([H])[H])C([H])([H])c2c([H])c(OC([H])([H])C([H])([H])C([H])(C(=O)N([H])C([H])(C(=O)N([H])[H])C([H])([H])OC([H])([H])C([H])([H])OC([H])([H])C([H])([H])C([H])([H])C([H])([H])OC([H])([H])C([H])([H])C([H])([H])N([H])C(=O)N3C([H])([H])C([H])([H])C([H])([H])C([H])(n4nc(-c5c([H])c([H])c(Oc6c([H])c([H])c(F)c([H])c6F)c([H])c5[H])c(C(=O)N([H])[H])c4N([H])[H])C3([H])[H])[N+]([H])([H])[H])c([H])c([H])c2C1([H])[H]

>  <smiles>  (9) 
[H]c1c([H])c([H])c2c(c1[H])C([H])([H])C([H])([H])C([H])([H])C2([H])N([H])C(=O)C1([H])N(C(=O)C([H])(N([H])C(=O)C([H])(N([H])C([H])([H])[H])C([H])([H])[H])C(C([H])([H])[H])(C([H])([H])[H])C([H])([H])[H])C([H])([H])c2c([H])c(OC([H])([H])C([H])([H])C([H])(C(=O)N([H])C([H])(C(=O)N([H])[H])C([H])([H])OC([H])([H])C([H])([H])OC([H])([H])C([H])([H])C([H])([H])C([H])([H])OC([H])([H])C([H])([H])C([H])([H])N([H])C(=O)N3C([H])([H])C([H])([H])C([H])([H])C([H])(n4nc(-c5c([H])c([H])c(Oc6c([H])c([H])c(F)c([H])c6F)c([H])c5[H])c(C(=O)N([H])[H])c4N([H])[H])C3([H])[H])[N+]([H])([H])[H])c([H])c([H])c2C1([H])[H]

$$$$
9:0:0
     RDKit          3D

 99106  0  0  1  0  0  0  0  0999 V2000
  -29.6700  -24.4160   22.6530 C   0  0  0  0  0  0  0  0  0  0  0  0
  -30.1160  -23.1620   22.5890 N   0  0  0  0  0  0  0  0  0  0  0  0
  -30.0590  -25.1810   23.5390 O   0  0  0  0  0  0  0  0  0  0  0  0
  -29.7930  -22.5650   21.8400 H   0  0  0  0  0  0  0  0  0  0  0  0
  -31.1880  -22.6420   23.4260 C   0  0  0  0  0  2  0  0  0  0  0  0
  -31.7190  -21.3480   22.8190 C   0  0  0  0  0  2  0  0  0  0  0  0
  -31.9300  -21.5910   21.4340 O   0  0  0  0  0  0  0  0  0  0  0  0
  -32.5150  -20.4990   20.7460 C   0  0  0  0  0  2  0  0  0  0  0  0
  -31.7050  -19.2120   20.9650 C   0  0  0  0  0  2  0  0  0  0  0  0
  -31.7420  -18.4310   19.7760 O   0  0  0  0  0  0  0  0  0  0  0  0
  -30.9690  -17.2400   19.8200 C   0  0  0  0  0  2  0  0  0  0  0  0
  -31.3340  -16.3580   21.0380 C   0  0  0  0  0  2  0  0  0  0  0  0
  -31.2540  -14.1050   20.0950 C   0  0  0  0  0  0  0  0  0  0  0  0
  -30.7630  -12.0110   18.9150 C   0  0  0  0  0  2  0  0  0  0  0  0
  -29.7730  -12.3050   17.7710 C   0  0  0  0  0  2  0  0  0  0  0  0
  -28.3210  -12.2200   18.2830 C   0  0  0  0  0  2  0  0  0  0  0  0
  -28.0900  -13.0610   19.5680 C   0  0  0  0  0  3  0  0  0  0  0  0
  -29.1890  -12.7590   20.6140 C   0  0  0  0  0  2  0  0  0  0  0  0
  -30.5030  -12.9820   19.9850 N   0  0  0  0  0  0  0  0  0  0  0  0
  -32.2750  -14.3130   19.4350 O   0  0  0  0  0  0  0  0  0  0  0  0
  -30.7690  -15.0260   20.9260 N   0  0  0  0  0  0  0  0  0  0  0  0
  -29.9430  -14.8010   21.4610 H   0  0  0  0  0  0  0  0  0  0  0  0
  -25.7530  -13.7640   20.3980 C   0  0  0  0  0  0  0  0  0  0  0  0
  -24.6770  -13.0320   20.8230 C   0  0  0  0  0  0  0  0  0  0  0  0
  -25.0830  -11.6640   20.7630 C   0  0  0  0  0  0  0  0  0  0  0  0
  -26.7520  -12.8440   20.1130 N   0  0  0  0  0  0  0  0  0  0  0  0
  -26.3510  -11.5760   20.3850 N   0  0  0  0  0  0  0  0  0  0  0  0
  -24.3220  -10.4310   20.9850 C   0  0  0  0  0  0  0  0  0  0  0  0
  -24.6840   -9.5070   21.9890 C   0  0  0  0  0  3  0  0  0  0  0  0
  -23.9220   -8.3370   22.1960 C   0  0  0  0  0  3  0  0  0  0  0  0
  -22.7810   -8.0830   21.3990 C   0  0  0  0  0  0  0  0  0  0  0  0
  -22.4390   -8.9940   20.3830 C   0  0  0  0  0  3  0  0  0  0  0  0
  -23.2020  -10.1540   20.1750 C   0  0  0  0  0  3  0  0  0  0  0  0
  -21.9960   -6.9600   21.5120 O   0  0  0  0  0  0  0  0  0  0  0  0
  -21.8110   -6.3300   22.7170 C   0  0  0  0  0  0  0  0  0  0  0  0
  -21.1670   -6.9650   23.8010 C   0  0  0  0  0  3  0  0  0  0  0  0
  -20.9360   -6.2570   24.9960 C   0  0  0  0  0  3  0  0  0  0  0  0
  -21.3380   -4.9120   25.1070 C   0  0  0  0  0  0  0  0  0  0  0  0
  -21.9730   -4.2760   24.0270 C   0  0  0  0  0  3  0  0  0  0  0  0
  -22.2060   -4.9820   22.8340 C   0  0  0  0  0  0  0  0  0  0  0  0
  -22.7990   -4.3570   21.7890 F   0  0  0  0  0  0  0  0  0  0  0  0
  -21.1110   -4.2280   26.2530 F   0  0  0  0  0  0  0  0  0  0  0  0
  -23.3170  -13.5600   21.1780 C   0  0  0  0  0  0  0  0  0  0  0  0
  -22.6040  -12.8760   22.0660 N   0  0  0  0  0  0  0  0  0  0  0  0
  -22.9000  -14.6170   20.7050 O   0  0  0  0  0  0  0  0  0  0  0  0
  -22.9530  -12.0220   22.4760 H   0  0  0  0  0  0  0  0  0  0  0  0
  -21.6930  -13.2140   22.3410 H   0  0  0  0  0  0  0  0  0  0  0  0
  -25.9570  -15.1270   20.2120 N   0  0  0  0  0  0  0  0  0  0  0  0
  -25.2050  -15.7990   20.3370 H   0  0  0  0  0  0  0  0  0  0  0  0
  -26.8080  -15.5470   19.8600 H   0  0  0  0  0  0  0  0  0  0  0  0
  -28.7540  -24.9200   21.5060 C   0  0  0  0  0  3  0  0  0  0  0  0
  -27.3500  -24.3010   21.6720 C   0  0  0  0  0  0  0  0  0  0  0  0
  -26.8050  -23.7170   20.6040 N   0  0  0  0  0  0  0  0  0  0  0  0
  -26.7230  -24.3600   22.7310 O   0  0  0  0  0  0  0  0  0  0  0  0
  -27.2880  -23.6860   19.7170 H   0  0  0  0  0  0  0  0  0  0  0  0
  -25.8800  -23.3130   20.6610 H   0  0  0  0  0  0  0  0  0  0  0  0
  -28.6880  -26.4630   21.4920 C   0  0  0  0  0  2  0  0  0  0  0  0
  -29.6520  -27.1100   20.4650 C   0  0  0  0  0  2  0  0  0  0  0  0
  -29.0010  -27.4490   19.2480 O   0  0  0  0  0  0  0  0  0  0  0  0
  -24.5920  -31.6470   22.9920 C   0  0  0  0  0  0  0  0  0  0  0  0
  -27.7830  -28.0750   19.3690 C   0  0  0  0  0  0  0  0  0  0  0  0
  -23.5820  -30.3700   21.1250 C   0  0  0  0  0  3  0  0  0  0  0  0
  -25.2260  -29.2480   19.5360 C   0  0  0  0  0  0  0  0  0  0  0  0
  -26.0470  -31.0500   21.0620 C   0  0  0  0  0  2  0  0  0  0  0  0
  -26.2980  -29.8070   20.2410 C   0  0  0  0  0  0  0  0  0  0  0  0
  -27.5790  -29.2220   20.1690 C   0  0  0  0  0  3  0  0  0  0  0  0
  -26.7000  -27.5300   18.6550 C   0  0  0  0  0  3  0  0  0  0  0  0
  -25.4170  -28.1030   18.7430 C   0  0  0  0  0  3  0  0  0  0  0  0
  -23.8850  -29.9350   19.6670 C   0  0  0  0  0  2  0  0  0  0  0  0
  -24.7540  -31.0320   21.7850 N   0  0  0  0  0  0  0  0  0  0  0  0
  -23.4790  -31.7080   23.5310 O   0  0  0  0  0  0  0  0  0  0  0  0
  -23.0530  -29.1470   21.9060 C   0  0  0  0  0  0  0  0  0  0  0  0
  -21.7450  -28.8750   21.7750 N   0  0  0  0  0  0  0  0  0  0  0  0
  -23.8150  -28.4520   22.5860 O   0  0  0  0  0  0  0  0  0  0  0  0
  -21.1850  -29.4940   21.2040 H   0  0  0  0  0  0  0  0  0  0  0  0
  -18.4890  -27.3670   22.1620 C   0  0  0  0  0  0  0  0  0  0  0  0
  -21.0340  -27.7550   22.3900 C   0  0  0  0  0  3  0  0  0  0  0  0
  -21.2060  -26.4640   21.5580 C   0  0  0  0  0  2  0  0  0  0  0  0
  -20.0810  -26.2520   20.5390 C   0  0  0  0  0  2  0  0  0  0  0  0
  -18.7230  -26.1800   21.2440 C   0  0  0  0  0  2  0  0  0  0  0  0
  -19.5740  -28.1170   22.6880 C   0  0  0  0  0  0  0  0  0  0  0  0
  -19.3010  -29.2340   23.5070 C   0  0  0  0  0  3  0  0  0  0  0  0
  -17.9740  -29.6010   23.8060 C   0  0  0  0  0  3  0  0  0  0  0  0
  -16.9050  -28.8450   23.2960 C   0  0  0  0  0  3  0  0  0  0  0  0
  -17.1630  -27.7290   22.4790 C   0  0  0  0  0  3  0  0  0  0  0  0
  -25.7850  -32.3250   23.7330 C   0  0  0  0  0  3  0  0  0  0  0  0
  -25.3820  -33.7040   24.0440 N   0  0  0  0  0  0  0  0  0  0  0  0
  -25.7330  -34.7780   23.3240 C   0  0  0  0  0  0  0  0  0  0  0  0
  -26.4990  -34.7200   22.3610 O   0  0  0  0  0  0  0  0  0  0  0  0
  -24.7160  -33.8270   24.7910 H   0  0  0  0  0  0  0  0  0  0  0  0
  -23.9620  -36.4920   22.8270 C   0  0  0  0  0  1  0  0  0  0  0  0
  -25.1430  -36.1380   23.7460 C   0  0  0  0  0  3  0  0  0  0  0  0
  -27.1510  -37.1120   24.7690 C   0  0  0  0  0  1  0  0  0  0  0  0
  -26.1290  -37.2400   23.7350 N   0  0  0  0  0  0  0  0  0  0  0  0
  -25.6660  -38.1360   23.8570 H   0  0  0  0  0  0  0  0  0  0  0  0
  -26.2230  -31.5590   25.0420 C   0  0  1  0  0  0  0  0  0  0  0  0
  -25.0490  -31.2670   26.0040 C   0  0  0  0  0  1  0  0  0  0  0  0
  -26.8910  -30.2080   24.6860 C   0  0  0  0  0  1  0  0  0  0  0  0
  -27.2830  -32.3840   25.8090 C   0  0  0  0  0  1  0  0  0  0  0  0
  1  3  2  0
  2  1  1  0
  2  5  1  0
  4  2  1  0
  6  5  1  0
  7  6  1  0
  8  9  1  0
  8  7  1  0
 10 11  1  0
 10  9  1  0
 11 12  1  0
 13 21  1  0
 14 19  1  0
 15 16  1  0
 15 14  1  0
 17 16  1  0
 17 26  1  0
 17 18  1  0
 19 13  1  0
 19 18  1  0
 20 13  2  0
 21 12  1  0
 21 22  1  0
 23 24  2  0
 24 43  1  0
 25 24  1  0
 25 28  1  0
 26 27  1  0
 26 23  1  0
 27 25  2  0
 28 29  1  0
 29 30  2  0
 31 34  1  0
 31 30  1  0
 32 31  2  0
 33 32  1  0
 33 28  2  0
 34 35  1  0
 35 40  2  0
 35 36  1  0
 36 37  2  0
 37 38  1  0
 38 42  1  0
 39 38  2  0
 40 39  1  0
 41 40  1  0
 43 44  1  0
 44 47  1  0
 44 46  1  0
 45 43  2  0
 48 49  1  0
 48 23  1  0
 50 48  1  0
 51 57  1  0
 51 52  1  0
 51  1  1  0
 52 54  2  0
 53 56  1  0
 53 52  1  0
 55 53  1  0
 58 57  1  0
 59 61  1  0
 59 58  1  0
 60 71  2  0
 61 66  1  0
 62 70  1  0
 62 72  1  0
 63 69  1  0
 63 65  1  0
 64 70  1  0
 65 64  1  0
 66 65  2  0
 67 68  1  0
 67 61  2  0
 68 63  2  0
 69 62  1  0
 70 60  1  0
 72 74  2  0
 73 72  1  0
 75 73  1  0
 76 85  2  0
 76 81  1  0
 77 73  1  0
 77 81  1  0
 78 77  1  0
 79 80  1  0
 79 78  1  0
 80 76  1  0
 81 82  2  0
 82 83  1  0
 84 83  2  0
 85 84  1  0
 86 60  1  0
 86 87  1  0
 86 96  1  0
 87 90  1  0
 88 92  1  0
 88 87  1  0
 89 88  2  0
 92 91  1  0
 94 92  1  0
 94 95  1  0
 94 93  1  0
 96 99  1  1
 96 97  1  0
 98 96  1  0
M  ISO  4  13 100  21 100  58 101  59 101
M  END
>  <TORSDO>  (10) 
F 28

>  <SCORE>  (10) 
-8.390

>  <name>  (10) 
9

>  <ligand_id>  (10) 
9

>  <original_smiles>  (10) 
[H]c1c([H])c([H])c2c(c1[H])C([H])([H])C([H])([H])C([H])([H])C2([H])N([H])C(=O)C1([H])N(C(=O)C([H])(N([H])C(=O)C([H])(N([H])C([H])([H])[H])C([H])([H])[H])C(C([H])([H])[H])(C([H])([H])[H])C([H])([H])[H])C([H])([H])c2c([H])c(OC([H])([H])C([H])([H])C([H])(C(=O)N([H])[H])C(=O)N([H])C([H])([H])C([H])([H])OC([H])([H])C([H])([H])OC([H])([H])C([H])([H])N([H])C(=O)N3C([H])([H])C([H])([H])C([H])([H])C([H])(n4nc(-c5c([H])c([H])c(Oc6c([H])c([H])c(F)c([H])c6F)c([H])c5[H])c(C(=O)N([H])[H])c4N([H])[H])C3([H])[H])c([H])c([H])c2C1([H])[H]

>  <smiles>  (10) 
[H]c1c([H])c([H])c2c(c1[H])C([H])([H])C([H])([H])C([H])([H])C2([H])N([H])C(=O)C1([H])N(C(=O)C([H])(N([H])C(=O)C([H])(N([H])C([H])([H])[H])C([H])([H])[H])C(C([H])([H])[H])(C([H])([H])[H])C([H])([H])[H])C([H])([H])c2c([H])c(OC([H])([H])C([H])([H])C([H])(C(=O)N([H])[H])C(=O)N([H])C([H])([H])C([H])([H])OC([H])([H])C([H])([H])OC([H])([H])C([H])([H])N([H])C(=O)N3C([H])([H])C([H])([H])C([H])([H])C([H])(n4nc(-c5c([H])c([H])c(Oc6c([H])c([H])c(F)c([H])c6F)c([H])c5[H])c(C(=O)N([H])[H])c4N([H])[H])C3([H])[H])c([H])c([H])c2C1([H])[H]

$$$$
10:0:0
     RDKit          3D

 95102  0  0  1  0  0  0  0  0999 V2000
  -28.7080  -20.1580   18.0230 C   0  0  0  0  0  0  0  0  0  0  0  0
  -27.7360  -20.3810   18.9200 N   0  0  0  0  0  0  0  0  0  0  0  0
  -28.8770  -20.8690   17.0290 O   0  0  0  0  0  0  0  0  0  0  0  0
  -27.6730  -19.7420   19.7010 H   0  0  0  0  0  0  0  0  0  0  0  0
  -26.7460  -21.4560   18.8550 C   0  0  0  0  0  2  0  0  0  0  0  0
  -27.0170  -22.5600   19.8940 C   0  0  0  0  0  2  0  0  0  0  0  0
  -28.3290  -23.0900   19.7350 O   0  0  0  0  0  0  0  0  0  0  0  0
  -28.5420  -24.3110   20.4450 C   0  0  0  0  0  2  0  0  0  0  0  0
  -28.6030  -25.5000   19.4690 C   0  0  0  0  0  2  0  0  0  0  0  0
  -28.4520  -26.7470   20.1580 O   0  0  0  0  0  0  0  0  0  0  0  0
  -24.5880  -31.8650   23.2330 C   0  0  0  0  0  0  0  0  0  0  0  0
  -27.2400  -27.4110   20.1690 C   0  0  0  0  0  0  0  0  0  0  0  0
  -23.3900  -30.4660   21.5830 C   0  0  0  0  0  3  0  0  0  0  0  0
  -24.8440  -28.9200   20.1780 C   0  0  0  0  0  0  0  0  0  0  0  0
  -25.9190  -30.8140   21.4070 C   0  0  0  0  0  2  0  0  0  0  0  0
  -26.0000  -29.4430   20.7670 C   0  0  0  0  0  0  0  0  0  0  0  0
  -27.1970  -28.6960   20.7610 C   0  0  0  0  0  3  0  0  0  0  0  0
  -26.0500  -26.8850   19.6150 C   0  0  0  0  0  3  0  0  0  0  0  0
  -24.8610  -27.6390   19.6070 C   0  0  0  0  0  3  0  0  0  0  0  0
  -23.6040  -29.7830   20.2070 C   0  0  0  0  0  2  0  0  0  0  0  0
  -24.6500  -31.0600   22.1330 N   0  0  0  0  0  0  0  0  0  0  0  0
  -23.5040  -32.1410   23.7630 O   0  0  0  0  0  0  0  0  0  0  0  0
  -22.7280  -29.4470   22.5370 C   0  0  0  0  0  0  0  0  0  0  0  0
  -21.4060  -29.2660   22.3940 N   0  0  0  0  0  0  0  0  0  0  0  0
  -23.4000  -28.8220   23.3620 O   0  0  0  0  0  0  0  0  0  0  0  0
  -20.9260  -29.8240   21.7030 H   0  0  0  0  0  0  0  0  0  0  0  0
  -18.0240  -28.0740   22.8430 C   0  0  0  0  0  0  0  0  0  0  0  0
  -20.5780  -28.3310   23.1540 C   0  0  0  0  0  3  0  0  0  0  0  0
  -20.6880  -26.8980   22.5870 C   0  0  0  0  0  2  0  0  0  0  0  0
  -19.6020  -26.5710   21.5560 C   0  0  0  0  0  2  0  0  0  0  0  0
  -18.2100  -26.7220   22.1760 C   0  0  0  0  0  2  0  0  0  0  0  0
  -19.1370  -28.8380   23.2850 C   0  0  0  0  0  0  0  0  0  0  0  0
  -18.9100  -30.1060   23.8650 C   0  0  0  0  0  3  0  0  0  0  0  0
  -17.6030  -30.6090   24.0070 C   0  0  0  0  0  3  0  0  0  0  0  0
  -16.5050  -29.8430   23.5830 C   0  0  0  0  0  3  0  0  0  0  0  0
  -16.7160  -28.5760   23.0070 C   0  0  0  0  0  3  0  0  0  0  0  0
  -25.8720  -32.4910   23.8600 C   0  0  0  0  0  3  0  0  0  0  0  0
  -26.3800  -31.7190   25.1400 C   0  0  1  0  0  0  0  0  0  0  0  0
  -25.2810  -31.4860   26.2040 C   0  0  0  0  0  1  0  0  0  0  0  0
  -26.9630  -30.3390   24.7510 C   0  0  0  0  0  1  0  0  0  0  0  0
  -27.5280  -32.5110   25.8080 C   0  0  0  0  0  1  0  0  0  0  0  0
  -25.5690  -33.8900   24.1890 N   0  0  0  0  0  0  0  0  0  0  0  0
  -25.9060  -34.9410   23.4300 C   0  0  0  0  0  0  0  0  0  0  0  0
  -26.5830  -34.8350   22.4020 O   0  0  0  0  0  0  0  0  0  0  0  0
  -24.9780  -34.0480   24.9910 H   0  0  0  0  0  0  0  0  0  0  0  0
  -24.1820  -36.7340   23.0610 C   0  0  0  0  0  1  0  0  0  0  0  0
  -25.4170  -36.3300   23.8820 C   0  0  0  0  0  3  0  0  0  0  0  0
  -27.5480  -37.2070   24.7260 C   0  0  0  0  0  1  0  0  0  0  0  0
  -26.4510  -37.3820   23.7770 N   0  0  0  0  0  0  0  0  0  0  0  0
  -26.0470  -38.3010   23.9310 H   0  0  0  0  0  0  0  0  0  0  0  0
  -29.6350  -18.9550   18.2710 C   0  0  0  0  0  2  0  0  0  0  0  0
  -30.9820  -19.3860   18.4750 O   0  0  0  0  0  0  0  0  0  0  0  0
  -31.2380  -19.9600   19.7560 C   0  0  0  0  0  2  0  0  0  0  0  0
  -32.0740  -18.9910   20.6050 C   0  0  0  0  0  2  0  0  0  0  0  0
  -31.2930  -17.8790   21.0370 O   0  0  0  0  0  0  0  0  0  0  0  0
  -32.1120  -16.8600   21.5980 C   0  0  0  0  0  2  0  0  0  0  0  0
  -31.2760  -15.7530   22.2710 C   0  0  0  0  0  2  0  0  0  0  0  0
  -30.6310  -14.3990   20.2510 C   0  0  0  0  0  0  0  0  0  0  0  0
  -30.1380  -12.4090   18.8740 C   0  0  0  0  0  2  0  0  0  0  0  0
  -29.1330  -12.6900   17.7480 C   0  0  0  0  0  2  0  0  0  0  0  0
  -27.6930  -12.5220   18.2580 C   0  0  0  0  0  2  0  0  0  0  0  0
  -27.4350  -13.3100   19.5680 C   0  0  0  0  0  3  0  0  0  0  0  0
  -28.5400  -13.0280   20.6100 C   0  0  0  0  0  2  0  0  0  0  0  0
  -29.8500  -13.3200   19.9920 N   0  0  0  0  0  0  0  0  0  0  0  0
  -31.5910  -14.7280   19.5550 O   0  0  0  0  0  0  0  0  0  0  0  0
  -30.3600  -14.9990   21.4130 N   0  0  0  0  0  0  0  0  0  0  0  0
  -29.5230  -14.6640   21.8660 H   0  0  0  0  0  0  0  0  0  0  0  0
  -25.0480  -13.8930   20.3400 C   0  0  0  0  0  0  0  0  0  0  0  0
  -24.0100  -13.1080   20.7650 C   0  0  0  0  0  0  0  0  0  0  0  0
  -24.4950  -11.7650   20.7440 C   0  0  0  0  0  0  0  0  0  0  0  0
  -26.1030  -13.0260   20.0980 N   0  0  0  0  0  0  0  0  0  0  0  0
  -25.7750  -11.7420   20.3950 N   0  0  0  0  0  0  0  0  0  0  0  0
  -23.7990  -10.4930   20.9800 C   0  0  0  0  0  0  0  0  0  0  0  0
  -24.2810   -9.5540   21.9220 C   0  0  0  0  0  3  0  0  0  0  0  0
  -23.5830   -8.3470   22.1460 C   0  0  0  0  0  3  0  0  0  0  0  0
  -22.3920   -8.0710   21.4330 C   0  0  0  0  0  0  0  0  0  0  0  0
  -21.9320   -8.9970   20.4810 C   0  0  0  0  0  3  0  0  0  0  0  0
  -22.6280  -10.1970   20.2540 C   0  0  0  0  0  3  0  0  0  0  0  0
  -21.6630   -6.9140   21.5680 O   0  0  0  0  0  0  0  0  0  0  0  0
  -21.6650   -6.1930   22.7360 C   0  0  0  0  0  0  0  0  0  0  0  0
  -21.2860   -6.7660   23.9680 C   0  0  0  0  0  3  0  0  0  0  0  0
  -21.2410   -5.9720   25.1320 C   0  0  0  0  0  3  0  0  0  0  0  0
  -21.5620   -4.6040   25.0630 C   0  0  0  0  0  0  0  0  0  0  0  0
  -21.9340   -4.0270   23.8350 C   0  0  0  0  0  3  0  0  0  0  0  0
  -21.9830   -4.8200   22.6750 C   0  0  0  0  0  0  0  0  0  0  0  0
  -22.3200   -4.2560   21.4900 F   0  0  0  0  0  0  0  0  0  0  0  0
  -21.5090   -3.8380   26.1780 F   0  0  0  0  0  0  0  0  0  0  0  0
  -22.6130  -13.5620   21.0790 C   0  0  0  0  0  0  0  0  0  0  0  0
  -21.9310  -12.8680   21.9820 N   0  0  0  0  0  0  0  0  0  0  0  0
  -22.1360  -14.5700   20.5560 O   0  0  0  0  0  0  0  0  0  0  0  0
  -22.3280  -12.0490   22.4220 H   0  0  0  0  0  0  0  0  0  0  0  0
  -20.9970  -13.1530   22.2390 H   0  0  0  0  0  0  0  0  0  0  0  0
  -25.1800  -15.2620   20.1180 N   0  0  0  0  0  0  0  0  0  0  0  0
  -24.4090  -15.9080   20.2480 H   0  0  0  0  0  0  0  0  0  0  0  0
  -26.0110  -15.7040   19.7420 H   0  0  0  0  0  0  0  0  0  0  0  0
  1 51  1  0
  1  2  1  0
  2  4  1  0
  3  1  2  0
  5  2  1  0
  5  6  1  0
  7  6  1  0
  7  8  1  0
  9 10  1  0
  9  8  1  0
 10 12  1  0
 11 22  2  0
 12 17  1  0
 13 21  1  0
 13 23  1  0
 14 20  1  0
 14 16  1  0
 15 21  1  0
 16 15  1  0
 17 16  2  0
 18 12  2  0
 19 18  1  0
 19 14  2  0
 20 13  1  0
 21 11  1  0
 23 25  2  0
 24 23  1  0
 26 24  1  0
 27 36  2  0
 27 32  1  0
 28 24  1  0
 28 32  1  0
 29 28  1  0
 30 31  1  0
 30 29  1  0
 31 27  1  0
 32 33  2  0
 33 34  1  0
 35 34  2  0
 36 35  1  0
 37 11  1  0
 37 42  1  0
 37 38  1  0
 38 41  1  1
 38 39  1  0
 40 38  1  0
 42 45  1  0
 43 47  1  0
 43 42  1  0
 44 43  2  0
 47 46  1  0
 49 47  1  0
 49 50  1  0
 49 48  1  0
 51 52  1  0
 52 53  1  0
 53 54  1  0
 54 55  1  0
 55 56  1  0
 56 57  1  0
 58 66  1  0
 59 64  1  0
 60 61  1  0
 60 59  1  0
 62 61  1  0
 62 71  1  0
 62 63  1  0
 64 58  1  0
 64 63  1  0
 65 58  2  0
 66 67  1  0
 66 57  1  0
 68 69  2  0
 69 88  1  0
 70 69  1  0
 70 73  1  0
 71 68  1  0
 71 72  1  0
 72 70  2  0
 73 74  1  0
 74 75  2  0
 76 79  1  0
 76 75  1  0
 77 76  2  0
 78 77  1  0
 78 73  2  0
 79 80  1  0
 80 81  1  0
 81 82  2  0
 83 82  1  0
 83 87  1  0
 84 83  2  0
 85 80  2  0
 85 84  1  0
 86 85  1  0
 88 89  1  0
 89 92  1  0
 89 91  1  0
 90 88  2  0
 93 94  1  0
 93 68  1  0
 95 93  1  0
M  ISO  4   9 101  10 101  58 100  66 100
M  END
>  <TORSDO>  (11) 
F 28

>  <SCORE>  (11) 
-10.207

>  <name>  (11) 
10

>  <ligand_id>  (11) 
10

>  <original_smiles>  (11) 
[H]c1c([H])c([H])c2c(c1[H])C([H])([H])C([H])([H])C([H])([H])C2([H])N([H])C(=O)C1([H])N(C(=O)C([H])(N([H])C(=O)C([H])(N([H])C([H])([H])[H])C([H])([H])[H])C(C([H])([H])[H])(C([H])([H])[H])C([H])([H])[H])C([H])([H])c2c([H])c(OC([H])([H])C([H])([H])OC([H])([H])C([H])([H])N([H])C(=O)C([H])([H])OC([H])([H])C([H])([H])OC([H])([H])C([H])([H])N([H])C(=O)N3C([H])([H])C([H])([H])C([H])([H])C([H])(n4nc(-c5c([H])c([H])c(Oc6c([H])c([H])c(F)c([H])c6F)c([H])c5[H])c(C(=O)N([H])[H])c4N([H])[H])C3([H])[H])c([H])c([H])c2C1([H])[H]

>  <smiles>  (11) 
[H]c1c([H])c([H])c2c(c1[H])C([H])([H])C([H])([H])C([H])([H])C2([H])N([H])C(=O)C1([H])N(C(=O)C([H])(N([H])C(=O)C([H])(N([H])C([H])([H])[H])C([H])([H])[H])C(C([H])([H])[H])(C([H])([H])[H])C([H])([H])[H])C([H])([H])c2c([H])c(OC([H])([H])C([H])([H])OC([H])([H])C([H])([H])N([H])C(=O)C([H])([H])OC([H])([H])C([H])([H])OC([H])([H])C([H])([H])N([H])C(=O)N3C([H])([H])C([H])([H])C([H])([H])C([H])(n4nc(-c5c([H])c([H])c(Oc6c([H])c([H])c(F)c([H])c6F)c([H])c5[H])c(C(=O)N([H])[H])c4N([H])[H])C3([H])[H])c([H])c([H])c2C1([H])[H]

$$$$
11:0:0
     RDKit          3D

 99106  0  0  1  0  0  0  0  0999 V2000
  -23.2210  -21.4340   24.9870 C   0  0  0  0  0  2  0  0  0  0  0  0
  -23.9050  -22.3210   24.1100 O   0  0  0  0  0  0  0  0  0  0  0  0
  -23.2770  -23.5900   23.9980 C   0  0  0  0  0  2  0  0  0  0  0  0
  -24.0870  -24.4430   23.0120 C   0  0  0  0  0  2  0  0  0  0  0  0
  -25.4430  -24.8790   23.5810 C   0  0  0  0  0  2  0  0  0  0  0  0
  -26.3670  -25.0020   22.5110 O   0  0  0  0  0  0  0  0  0  0  0  0
  -27.5220  -25.7490   22.8560 C   0  0  0  0  0  2  0  0  0  0  0  0
  -28.6240  -25.4340   21.8330 C   0  0  0  0  0  2  0  0  0  0  0  0
  -29.5120  -26.6350   21.4590 C   0  0  0  0  0  2  0  0  0  0  0  0
  -29.0890  -27.1960   20.2200 O   0  0  0  0  0  0  0  0  0  0  0  0
  -24.8270  -31.8980   23.4370 C   0  0  0  0  0  0  0  0  0  0  0  0
  -27.8760  -27.8310   20.2580 C   0  0  0  0  0  0  0  0  0  0  0  0
  -23.7710  -30.4870   21.7000 C   0  0  0  0  0  3  0  0  0  0  0  0
  -25.3740  -29.1220   20.2620 C   0  0  0  0  0  0  0  0  0  0  0  0
  -26.2640  -31.0430   21.5950 C   0  0  0  0  0  2  0  0  0  0  0  0
  -26.4670  -29.7100   20.9120 C   0  0  0  0  0  0  0  0  0  0  0  0
  -27.7220  -29.0670   20.9160 C   0  0  0  0  0  3  0  0  0  0  0  0
  -26.7760  -27.2490   19.5980 C   0  0  0  0  0  3  0  0  0  0  0  0
  -25.5190  -27.8850   19.6070 C   0  0  0  0  0  3  0  0  0  0  0  0
  -24.0690  -29.8830   20.3010 C   0  0  0  0  0  2  0  0  0  0  0  0
  -24.9700  -31.1560   22.3030 N   0  0  0  0  0  0  0  0  0  0  0  0
  -23.7150  -32.0680   23.9550 O   0  0  0  0  0  0  0  0  0  0  0  0
  -23.1710  -29.3810   22.5960 C   0  0  0  0  0  0  0  0  0  0  0  0
  -21.8910  -29.0500   22.3580 N   0  0  0  0  0  0  0  0  0  0  0  0
  -23.8560  -28.8220   23.4570 O   0  0  0  0  0  0  0  0  0  0  0  0
  -21.4000  -29.5590   21.6370 H   0  0  0  0  0  0  0  0  0  0  0  0
  -18.6760  -27.4090   22.4920 C   0  0  0  0  0  0  0  0  0  0  0  0
  -21.1270  -28.0120   23.0480 C   0  0  0  0  0  3  0  0  0  0  0  0
  -21.4880  -26.6080   22.5140 C   0  0  0  0  0  2  0  0  0  0  0  0
  -20.5640  -26.1340   21.3880 C   0  0  0  0  0  2  0  0  0  0  0  0
  -19.1090  -26.0920   21.8680 C   0  0  0  0  0  2  0  0  0  0  0  0
  -19.6250  -28.3170   23.0310 C   0  0  0  0  0  0  0  0  0  0  0  0
  -19.1720  -29.5430   23.5680 C   0  0  0  0  0  3  0  0  0  0  0  0
  -17.8010  -29.8630   23.5740 C   0  0  0  0  0  3  0  0  0  0  0  0
  -16.8650  -28.9530   23.0530 C   0  0  0  0  0  3  0  0  0  0  0  0
  -17.3020  -27.7280   22.5180 C   0  0  0  0  0  3  0  0  0  0  0  0
  -26.0490  -32.5870   24.1240 C   0  0  0  0  0  3  0  0  0  0  0  0
  -25.6710  -33.9780   24.4050 N   0  0  0  0  0  0  0  0  0  0  0  0
  -26.0060  -35.0260   23.6390 C   0  0  0  0  0  0  0  0  0  0  0  0
  -26.7360  -34.9260   22.6480 O   0  0  0  0  0  0  0  0  0  0  0  0
  -25.0270  -34.1290   25.1690 H   0  0  0  0  0  0  0  0  0  0  0  0
  -24.2250  -36.7340   23.1510 C   0  0  0  0  0  1  0  0  0  0  0  0
  -25.4400  -36.4030   24.0330 C   0  0  0  0  0  3  0  0  0  0  0  0
  -27.4990  -37.3900   24.9370 C   0  0  0  0  0  1  0  0  0  0  0  0
  -26.4350  -37.4940   23.9420 N   0  0  0  0  0  0  0  0  0  0  0  0
  -25.9870  -38.4000   24.0510 H   0  0  0  0  0  0  0  0  0  0  0  0
  -26.5180  -31.8560   25.4420 C   0  0  1  0  0  0  0  0  0  0  0  0
  -25.3700  -31.5830   26.4420 C   0  0  0  0  0  1  0  0  0  0  0  0
  -27.1830  -30.5020   25.1050 C   0  0  0  0  0  1  0  0  0  0  0  0
  -27.5890  -32.7090   26.1610 C   0  0  0  0  0  1  0  0  0  0  0  0
  -24.1620  -20.2680   25.3220 C   0  0  0  0  0  2  0  0  0  0  0  0
  -25.4560  -20.7560   25.8500 N   0  0  0  0  0  4  0  0  0  0  0  0
  -25.9700  -21.1640   25.0790 H   0  0  0  0  0  0  0  0  0  0  0  0
  -25.2960  -21.4940   26.5200 H   0  0  0  0  0  0  0  0  0  0  0  0
  -26.3080  -19.7120   26.4590 C   0  0  0  0  0  2  0  0  0  0  0  0
  -27.7020  -20.2680   26.7570 C   0  0  0  0  0  2  0  0  0  0  0  0
  -28.3130  -20.5150   25.4970 O   0  0  0  0  0  0  0  0  0  0  0  0
  -29.6750  -20.8920   25.6090 C   0  0  0  0  0  2  0  0  0  0  0  0
  -30.2370  -21.0540   24.1910 C   0  0  0  0  0  2  0  0  0  0  0  0
  -31.7620  -21.2260   24.1790 C   0  0  0  0  0  2  0  0  0  0  0  0
  -32.3490  -21.1760   22.7610 C   0  0  0  0  0  2  0  0  0  0  0  0
  -34.5870  -20.9520   21.7610 C   0  0  0  0  0  0  0  0  0  0  0  0
  -35.6920  -19.4560   20.1480 C   0  0  0  0  0  2  0  0  0  0  0  0
  -34.9390  -19.4240   18.8040 C   0  0  0  0  0  2  0  0  0  0  0  0
  -33.8020  -18.3850   18.8290 C   0  0  0  0  0  2  0  0  0  0  0  0
  -32.9100  -18.5120   20.0910 C   0  0  0  0  0  3  0  0  0  0  0  0
  -33.7900  -18.5770   21.3620 C   0  0  0  0  0  2  0  0  0  0  0  0
  -34.7180  -19.7130   21.2170 N   0  0  0  0  0  0  0  0  0  0  0  0
  -35.2910  -21.9120   21.4380 O   0  0  0  0  0  0  0  0  0  0  0  0
  -33.8030  -21.0590   22.8380 N   0  0  0  0  0  0  0  0  0  0  0  0
  -34.1800  -21.7510   23.4690 H   0  0  0  0  0  0  0  0  0  0  0  0
  -30.5470  -17.4810   20.0780 C   0  0  0  0  0  0  0  0  0  0  0  0
  -30.1190  -16.1810   20.1210 C   0  0  0  0  0  0  0  0  0  0  0  0
  -31.2980  -15.3800   20.2090 C   0  0  0  0  0  0  0  0  0  0  0  0
  -31.9310  -17.4280   20.1570 N   0  0  0  0  0  0  0  0  0  0  0  0
  -32.3740  -16.1510   20.2830 N   0  0  0  0  0  0  0  0  0  0  0  0
  -31.4700  -13.9220   20.1750 C   0  0  0  0  0  0  0  0  0  0  0  0
  -32.1860  -13.2380   21.1820 C   0  0  0  0  0  3  0  0  0  0  0  0
  -32.3210  -11.8340   21.1380 C   0  0  0  0  0  3  0  0  0  0  0  0
  -31.7340  -11.0970   20.0810 C   0  0  0  0  0  0  0  0  0  0  0  0
  -31.0420  -11.7850   19.0690 C   0  0  0  0  0  3  0  0  0  0  0  0
  -30.9130  -13.1830   19.1120 C   0  0  0  0  0  3  0  0  0  0  0  0
  -31.8360   -9.7340   19.9410 O   0  0  0  0  0  0  0  0  0  0  0  0
  -32.0150   -8.9110   21.0220 C   0  0  0  0  0  0  0  0  0  0  0  0
  -31.1010   -8.8850   22.0980 C   0  0  0  0  0  3  0  0  0  0  0  0
  -31.2860   -7.9750   23.1570 C   0  0  0  0  0  3  0  0  0  0  0  0
  -32.3770   -7.0860   23.1400 C   0  0  0  0  0  0  0  0  0  0  0  0
  -33.2860   -7.1060   22.0670 C   0  0  0  0  0  3  0  0  0  0  0  0
  -33.1030   -8.0150   21.0100 C   0  0  0  0  0  0  0  0  0  0  0  0
  -33.9700   -8.0160   19.9680 F   0  0  0  0  0  0  0  0  0  0  0  0
  -32.5500   -6.2060   24.1550 F   0  0  0  0  0  0  0  0  0  0  0  0
  -28.7040  -15.6980   19.9920 C   0  0  0  0  0  0  0  0  0  0  0  0
  -28.3740  -14.5940   20.6520 N   0  0  0  0  0  0  0  0  0  0  0  0
  -27.8670  -16.3290   19.3450 O   0  0  0  0  0  0  0  0  0  0  0  0
  -29.0580  -14.0930   21.2000 H   0  0  0  0  0  0  0  0  0  0  0  0
  -27.4280  -14.2420   20.6120 H   0  0  0  0  0  0  0  0  0  0  0  0
  -29.8810  -18.6970   19.9630 N   0  0  0  0  0  0  0  0  0  0  0  0
  -28.8760  -18.7550   19.8480 H   0  0  0  0  0  0  0  0  0  0  0  0
  -30.3420  -19.5940   19.8910 H   0  0  0  0  0  0  0  0  0  0  0  0
  1 51  1  0
  2  1  1  0
  3  2  1  0
  4  5  1  0
  4  3  1  0
  6  7  1  0
  6  5  1  0
  8  7  1  0
  9  8  1  0
 10 12  1  0
 10  9  1  0
 11 22  2  0
 12 17  1  0
 13 21  1  0
 13 23  1  0
 14 20  1  0
 14 16  1  0
 15 21  1  0
 16 17  2  0
 16 15  1  0
 18 19  1  0
 18 12  2  0
 19 14  2  0
 20 13  1  0
 21 11  1  0
 23 25  2  0
 24 23  1  0
 26 24  1  0
 27 36  2  0
 27 32  1  0
 28 24  1  0
 29 28  1  0
 30 31  1  0
 30 29  1  0
 31 27  1  0
 32 28  1  0
 32 33  2  0
 33 34  1  0
 35 34  2  0
 36 35  1  0
 37 11  1  0
 37 38  1  0
 37 47  1  0
 38 41  1  0
 39 43  1  0
 39 38  1  0
 40 39  2  0
 43 42  1  0
 45 43  1  0
 45 46  1  0
 45 44  1  0
 47 50  1  1
 47 48  1  0
 49 47  1  0
 51 52  1  0
 52 55  1  0
 52 54  1  0
 53 52  1  0
 55 56  1  0
 57 58  1  0
 57 56  1  0
 59 58  1  0
 60 59  1  0
 61 70  1  0
 61 60  1  0
 62 70  1  0
 63 68  1  0
 64 65  1  0
 64 63  1  0
 66 65  1  0
 66 75  1  0
 66 67  1  0
 68 67  1  0
 68 62  1  0
 69 62  2  0
 70 71  1  0
 72 73  2  0
 72 75  1  0
 73 74  1  0
 74 76  2  0
 75 76  1  0
 77 74  1  0
 77 78  1  0
 79 78  2  0
 80 79  1  0
 81 82  1  0
 81 80  2  0
 82 77  2  0
 83 80  1  0
 83 84  1  0
 84 85  1  0
 85 86  2  0
 87 86  1  0
 87 91  1  0
 88 87  2  0
 89 84  2  0
 89 88  1  0
 90 89  1  0
 92 73  1  0
 92 93  1  0
 93 95  1  0
 94 92  2  0
 96 93  1  0
 97 72  1  0
 98 97  1  0
 99 97  1  0
M  ISO  4   9 101  10 101  62 100  70 100
M  END
>  <TORSDO>  (12) 
F 33

>  <SCORE>  (12) 
17.031

>  <name>  (12) 
11

>  <ligand_id>  (12) 
11

>  <original_smiles>  (12) 
[H]c1c([H])c([H])c2c(c1[H])C([H])([H])C([H])([H])C([H])([H])C2([H])N([H])C(=O)C1([H])N(C(=O)C([H])(N([H])C(=O)C([H])(N([H])C([H])([H])[H])C([H])([H])[H])C(C([H])([H])[H])(C([H])([H])[H])C([H])([H])[H])C([H])([H])c2c([H])c(OC([H])([H])C([H])([H])C([H])([H])OC([H])([H])C([H])([H])C([H])([H])OC([H])([H])C([H])([H])[N+]([H])([H])C([H])([H])C([H])([H])OC([H])([H])C([H])([H])C([H])([H])C([H])([H])N([H])C(=O)N3C([H])([H])C([H])([H])C([H])([H])C([H])(n4nc(-c5c([H])c([H])c(Oc6c([H])c([H])c(F)c([H])c6F)c([H])c5[H])c(C(=O)N([H])[H])c4N([H])[H])C3([H])[H])c([H])c([H])c2C1([H])[H]

>  <smiles>  (12) 
[H]c1c([H])c([H])c2c(c1[H])C([H])([H])C([H])([H])C([H])([H])C2([H])N([H])C(=O)C1([H])N(C(=O)C([H])(N([H])C(=O)C([H])(N([H])C([H])([H])[H])C([H])([H])[H])C(C([H])([H])[H])(C([H])([H])[H])C([H])([H])[H])C([H])([H])c2c([H])c(OC([H])([H])C([H])([H])C([H])([H])OC([H])([H])C([H])([H])C([H])([H])OC([H])([H])C([H])([H])[N+]([H])([H])C([H])([H])C([H])([H])OC([H])([H])C([H])([H])C([H])([H])C([H])([H])N([H])C(=O)N3C([H])([H])C([H])([H])C([H])([H])C([H])(n4nc(-c5c([H])c([H])c(Oc6c([H])c([H])c(F)c([H])c6F)c([H])c5[H])c(C(=O)N([H])[H])c4N([H])[H])C3([H])[H])c([H])c([H])c2C1([H])[H]

$$$$
12:0:0
     RDKit          3D

 97104  0  0  1  0  0  0  0  0999 V2000
  -27.6420  -12.7730   23.4250 C   0  0  0  0  0  2  0  0  0  0  0  0
  -28.2150  -10.9300   23.7740 C   0  0  0  0  0  2  0  0  0  0  0  0
  -28.2090   -8.9030   21.3170 C   0  0  0  0  0  0  0  0  0  0  0  0
  -28.1490   -9.3980   22.7970 N   0  0  0  0  0  0  0  0  0  0  0  0
  -27.8630   -7.7280   21.2330 O   0  0  0  0  0  0  0  0  0  0  0  0
  -27.8820   -8.6260   23.3950 H   0  0  0  0  0  0  0  0  0  0  0  0
  -28.9370   -9.6540   19.7280 C   0  0  0  0  0  0  0  0  0  0  0  0
  -31.2640  -11.7910   19.6090 C   0  0  0  0  0  0  0  0  0  0  0  0
  -32.0220  -11.3530   21.6520 C   0  0  0  0  0  2  0  0  0  0  0  0
  -31.2970  -10.0540   21.5990 C   0  0  0  0  0  2  0  0  0  0  0  0
  -29.9340  -10.6690   21.8870 C   0  0  0  0  0  2  0  0  0  0  0  0
  -28.8520  -11.8970   20.9470 C   0  0  0  0  0  3  0  0  0  0  0  0
  -29.9940  -12.8890   21.2500 C   0  0  0  0  0  2  0  0  0  0  0  0
  -31.2390  -12.2860   20.8290 N   0  0  0  0  0  0  0  0  0  0  0  0
  -32.3170  -12.2100   19.0990 O   0  0  0  0  0  0  0  0  0  0  0  0
  -30.2920  -10.6830   19.1980 N   0  0  0  0  0  4  0  0  0  0  0  0
  -30.5640  -10.3650   18.2800 H   0  0  0  0  0  0  0  0  0  0  0  0
  -26.1930  -12.8770   20.2470 C   0  0  0  0  0  0  0  0  0  0  0  0
  -24.9240  -12.2890   20.4570 C   0  0  0  0  0  0  0  0  0  0  0  0
  -25.1060  -10.9840   20.8770 C   0  0  0  0  0  0  0  0  0  0  0  0
  -27.1690  -12.0330   20.7660 N   0  0  0  0  0  0  0  0  0  0  0  0
  -26.2090  -11.2180   21.3340 N   0  0  0  0  0  0  0  0  0  0  0  0
  -24.3620   -9.7350   21.2630 C   0  0  0  0  0  0  0  0  0  0  0  0
  -24.3510   -9.1390   22.5590 C   0  0  0  0  0  3  0  0  0  0  0  0
  -23.6090   -7.9600   22.8330 C   0  0  0  0  0  3  0  0  0  0  0  0
  -22.8320   -7.3730   21.8100 C   0  0  0  0  0  0  0  0  0  0  0  0
  -22.8690   -7.9440   20.5250 C   0  0  0  0  0  3  0  0  0  0  0  0
  -23.6360   -9.0930   20.2510 C   0  0  0  0  0  3  0  0  0  0  0  0
  -22.0360   -6.2570   21.9650 O   0  0  0  0  0  0  0  0  0  0  0  0
  -21.2140   -6.0710   23.0490 C   0  0  0  0  0  0  0  0  0  0  0  0
  -20.2660   -7.0370   23.4550 C   0  0  0  0  0  3  0  0  0  0  0  0
  -19.3970   -6.7690   24.5330 C   0  0  0  0  0  3  0  0  0  0  0  0
  -19.4620   -5.5310   25.2010 C   0  0  0  0  0  0  0  0  0  0  0  0
  -20.3960   -4.5630   24.7910 C   0  0  0  0  0  3  0  0  0  0  0  0
  -21.2630   -4.8290   23.7200 C   0  0  0  0  0  0  0  0  0  0  0  0
  -22.1420   -3.8770   23.3180 F   0  0  0  0  0  0  0  0  0  0  0  0
  -18.6230   -5.2720   26.2290 F   0  0  0  0  0  0  0  0  0  0  0  0
  -23.5680  -12.8470   20.3370 C   0  0  0  0  0  0  0  0  0  0  0  0
  -22.6560  -12.3810   21.1940 N   0  0  0  0  0  0  0  0  0  0  0  0
  -23.3230  -13.7200   19.5250 O   0  0  0  0  0  0  0  0  0  0  0  0
  -22.9040  -11.6980   21.8900 H   0  0  0  0  0  0  0  0  0  0  0  0
  -21.7150  -12.7370   21.1590 H   0  0  0  0  0  0  0  0  0  0  0  0
  -26.5690  -14.0680   19.6870 N   0  0  0  0  0  0  0  0  0  0  0  0
  -25.8670  -14.6640   19.2680 H   0  0  0  0  0  0  0  0  0  0  0  0
  -27.5220  -14.3490   19.4930 H   0  0  0  0  0  0  0  0  0  0  0  0
  -27.6160  -11.1800   18.0190 C   0  0  0  0  0  1  0  0  0  0  0  0
  -26.5170   -9.1010   18.6570 C   0  0  0  0  0  1  0  0  0  0  0  0
  -28.5250   -8.9960   17.2550 C   0  0  0  0  0  1  0  0  0  0  0  0
  -27.9210   -9.7310   18.4790 C   0  0  2  0  0  0  0  0  0  0  0  0
  -28.0340  -14.0940   22.4010 O   0  0  0  0  0  0  0  0  0  0  0  0
  -27.6420  -15.0780   21.0880 C   0  0  0  0  0  2  0  0  0  0  0  0
  -28.5330  -16.2360   19.9300 C   0  0  0  0  0  2  0  0  0  0  0  0
  -28.4310  -16.8270   18.3540 O   0  0  0  0  0  0  0  0  0  0  0  0
  -28.9650  -18.1690   17.4880 C   0  0  0  0  0  3  0  0  0  0  0  0
  -29.4370  -18.5950   15.7390 C   0  0  0  0  0  3  0  0  0  0  0  0
  -29.8090  -20.1190   14.7380 C   0  0  0  0  0  2  0  0  0  0  0  0
  -30.6190  -20.6490   13.3420 O   0  0  0  0  0  0  0  0  0  0  0  0
  -29.4880  -27.3160   10.0680 C   0  0  0  0  0  0  0  0  0  0  0  0
  -30.1140  -21.5060   12.2230 C   0  0  0  0  0  0  0  0  0  0  0  0
  -27.7780  -25.5570    9.8900 C   0  0  0  0  0  3  0  0  0  0  0  0
  -28.5570  -23.1320   10.3160 C   0  0  0  0  0  0  0  0  0  0  0  0
  -30.2660  -24.8930    9.9660 C   0  0  0  0  0  2  0  0  0  0  0  0
  -29.8620  -23.5380   10.6200 C   0  0  0  0  0  0  0  0  0  0  0  0
  -30.6560  -22.7060   11.5310 C   0  0  0  0  0  3  0  0  0  0  0  0
  -28.8680  -21.1200   11.6990 C   0  0  0  0  0  3  0  0  0  0  0  0
  -28.1020  -21.8970   10.7980 C   0  0  0  0  0  3  0  0  0  0  0  0
  -27.6590  -24.0590    9.4970 C   0  0  0  0  0  2  0  0  0  0  0  0
  -29.2130  -25.9740    9.9900 N   0  0  0  0  0  0  0  0  0  0  0  0
  -28.5860  -28.1680   10.0610 O   0  0  0  0  0  0  0  0  0  0  0  0
  -26.9740  -25.8370   11.1870 C   0  0  0  0  0  0  0  0  0  0  0  0
  -25.6600  -26.1020   11.0640 N   0  0  0  0  0  0  0  0  0  0  0  0
  -27.5350  -25.8030   12.2840 O   0  0  0  0  0  0  0  0  0  0  0  0
  -25.2630  -26.1360   10.1350 H   0  0  0  0  0  0  0  0  0  0  0  0
  -22.2270  -26.9380   11.8850 C   0  0  0  0  0  0  0  0  0  0  0  0
  -24.7260  -26.3360   12.1720 C   0  0  0  0  0  3  0  0  0  0  0  0
  -24.2260  -25.0000   12.7700 C   0  0  0  0  0  2  0  0  0  0  0  0
  -22.9120  -24.5170   12.1500 C   0  0  0  0  0  2  0  0  0  0  0  0
  -21.8060  -25.5560   12.3560 C   0  0  0  0  0  2  0  0  0  0  0  0
  -23.5970  -27.3000   11.7840 C   0  0  0  0  0  0  0  0  0  0  0  0
  -23.9320  -28.5880   11.3130 C   0  0  0  0  0  3  0  0  0  0  0  0
  -22.9290  -29.5040   10.9450 C   0  0  0  0  0  3  0  0  0  0  0  0
  -21.5750  -29.1460   11.0590 C   0  0  0  0  0  3  0  0  0  0  0  0
  -21.2270  -27.8690   11.5330 C   0  0  0  0  0  3  0  0  0  0  0  0
  -30.9520  -27.8440   10.1460 C   0  0  0  0  0  3  0  0  0  0  0  0
  -31.1030  -28.9170    9.1450 N   0  0  0  0  0  0  0  0  0  0  0  0
  -31.6400  -28.7610    7.9270 C   0  0  0  0  0  0  0  0  0  0  0  0
  -32.1210  -27.6920    7.5450 O   0  0  0  0  0  0  0  0  0  0  0  0
  -30.6880  -29.8080    9.3740 H   0  0  0  0  0  0  0  0  0  0  0  0
  -30.4920  -29.8670    5.9780 C   0  0  0  0  0  1  0  0  0  0  0  0
  -31.6480  -29.9830    6.9840 C   0  0  0  0  0  3  0  0  0  0  0  0
  -34.0380  -30.5380    7.1170 C   0  0  0  0  0  1  0  0  0  0  0  0
  -32.9240  -30.1540    6.2540 N   0  0  0  0  0  0  0  0  0  0  0  0
  -32.8310  -30.8560    5.5270 H   0  0  0  0  0  0  0  0  0  0  0  0
  -31.3390  -28.3790   11.5810 C   0  0  1  0  0  0  0  0  0  0  0  0
  -30.3570  -29.4320   12.1400 C   0  0  0  0  0  1  0  0  0  0  0  0
  -31.4120  -27.2210   12.6020 C   0  0  0  0  0  1  0  0  0  0  0  0
  -32.7460  -29.0180   11.5390 C   0  0  0  0  0  1  0  0  0  0  0  0
  1  2  1  0
  3  4  1  0
  4  6  1  0
  4  2  1  0
  5  3  2  0
  7  3  1  0
  8 14  1  0
 10  9  1  0
 10 11  1  0
 12 21  1  0
 12 13  1  0
 12 11  1  0
 14 13  1  0
 14  9  1  0
 15  8  2  0
 16  8  1  0
 16  7  2  0
 17 16  1  0
 18 19  2  0
 18 21  1  0
 19 20  1  0
 20 23  1  0
 20 22  2  0
 21 22  1  0
 23 24  1  0
 24 25  2  0
 26 29  1  0
 26 25  1  0
 27 26  2  0
 28 27  1  0
 28 23  2  0
 29 30  1  0
 30 31  2  0
 30 35  1  0
 31 32  1  0
 32 33  2  0
 33 37  1  0
 34 33  1  0
 35 34  2  0
 36 35  1  0
 38 19  1  0
 38 39  1  0
 39 41  1  0
 40 38  2  0
 42 39  1  0
 43 18  1  0
 44 43  1  0
 45 43  1  0
 49 46  1  6
 48 49  1  0
 49 47  1  0
 49  7  1  0
 50  1  1  0
 51 50  1  0
 52 51  1  0
 53 52  1  0
 54 53  1  0
 55 54  2  0
 56 55  1  0
 57 56  1  0
 59 57  1  0
 60 68  1  0
 60 70  1  0
 61 63  2  0
 61 66  1  0
 62 68  1  0
 62 63  1  0
 63 64  1  0
 64 59  2  0
 65 59  1  0
 66 65  2  0
 67 60  1  0
 67 61  1  0
 68 58  1  0
 69 58  2  0
 70 72  2  0
 71 70  1  0
 73 71  1  0
 74 78  1  0
 75 71  1  0
 75 76  1  0
 77 78  1  0
 77 76  1  0
 79 74  1  0
 79 75  1  0
 80 79  2  0
 81 82  2  0
 81 80  1  0
 82 83  1  0
 83 74  2  0
 84 58  1  0
 84 94  1  0
 85 88  1  0
 85 84  1  0
 86 85  1  0
 87 86  2  0
 90 89  1  0
 90 86  1  0
 92 90  1  0
 92 91  1  0
 93 92  1  0
 94 95  1  1
 94 96  1  0
 97 94  1  0
M  ISO  4   8 100  16 100  56 101  57 101
M  END
>  <TORSDO>  (13) 
F 27

>  <SCORE>  (13) 
1.113

>  <name>  (13) 
12

>  <ligand_id>  (13) 
12

>  <original_smiles>  (13) 
[H]c1c([H])c([H])c2c(c1[H])C([H])([H])C([H])([H])C([H])([H])C2([H])N([H])C(=O)C1([H])N(C(=O)C([H])(N([H])C(=O)C([H])(N([H])C([H])([H])[H])C([H])([H])[H])C(C([H])([H])[H])(C([H])([H])[H])C([H])([H])[H])C([H])([H])c2c([H])c(OC([H])([H])C([H])([H])C([H])([H])OC([H])([H])C([H])([H])OC([H])([H])C([H])([H])N([H])C(=O)C([H])(N([H])C(=O)N3C([H])([H])C([H])([H])C([H])([H])C([H])(n4nc(-c5c([H])c([H])c(Oc6c([H])c([H])c(F)c([H])c6F)c([H])c5[H])c(C(=O)N([H])[H])c4N([H])[H])C3([H])[H])C(C([H])([H])[H])(C([H])([H])[H])C([H])([H])[H])c([H])c([H])c2C1([H])[H]

>  <smiles>  (13) 
[H]c1c([H])c([H])c2c(c1[H])C([H])([H])C([H])([H])C([H])([H])C2([H])N([H])C(=O)C1([H])N(C(=O)C([H])(N([H])C(=O)C([H])(N([H])C([H])([H])[H])C([H])([H])[H])C(C([H])([H])[H])(C([H])([H])[H])C([H])([H])[H])C([H])([H])c2c([H])c(OC([H])([H])C([H])([H])C([H])([H])OC([H])([H])C([H])([H])OC([H])([H])C([H])([H])N([H])C(=O)C([H])(N([H])C(=O)N3C([H])([H])C([H])([H])C([H])([H])C([H])(n4nc(-c5c([H])c([H])c(Oc6c([H])c([H])c(F)c([H])c6F)c([H])c5[H])c(C(=O)N([H])[H])c4N([H])[H])C3([H])[H])C(C([H])([H])[H])(C([H])([H])[H])C([H])([H])[H])c([H])c([H])c2C1([H])[H]

$$$$
13:0:0
     RDKit          3D

 99106  0  0  1  0  0  0  0  0999 V2000
  -28.4740  -20.7780   17.8700 O   0  0  0  0  0  0  0  0  0  0  0  0
  -27.9080  -21.8110   17.0700 C   0  0  0  0  0  2  0  0  0  0  0  0
  -28.1660  -23.1830   17.7050 C   0  0  0  0  0  2  0  0  0  0  0  0
  -29.4450  -23.6770   17.3260 O   0  0  0  0  0  0  0  0  0  0  0  0
  -29.7110  -24.9780   17.8440 C   0  0  0  0  0  2  0  0  0  0  0  0
  -30.7330  -24.8980   18.9880 C   0  0  0  0  0  2  0  0  0  0  0  0
  -30.2310  -24.1420   20.0860 O   0  0  0  0  0  0  0  0  0  0  0  0
  -29.7820  -24.9050   21.2020 C   0  0  0  0  0  2  0  0  0  0  0  0
  -28.3900  -25.5180   20.9900 C   0  0  0  0  0  2  0  0  0  0  0  0
  -28.4920  -26.7660   20.3100 O   0  0  0  0  0  0  0  0  0  0  0  0
  -24.5960  -31.9000   23.2590 C   0  0  0  0  0  0  0  0  0  0  0  0
  -27.3150  -27.4670   20.2730 C   0  0  0  0  0  0  0  0  0  0  0  0
  -23.4180  -30.4660   21.6210 C   0  0  0  0  0  3  0  0  0  0  0  0
  -24.9010  -28.9220   20.2360 C   0  0  0  0  0  0  0  0  0  0  0  0
  -25.9390  -30.8540   21.4420 C   0  0  0  0  0  2  0  0  0  0  0  0
  -26.0440  -29.4770   20.8250 C   0  0  0  0  0  0  0  0  0  0  0  0
  -27.2560  -28.7570   20.8380 C   0  0  0  0  0  3  0  0  0  0  0  0
  -26.1590  -26.9160   19.6800 C   0  0  0  0  0  3  0  0  0  0  0  0
  -24.9500  -27.6400   19.6600 C   0  0  0  0  0  3  0  0  0  0  0  0
  -23.6480  -29.7660   20.2540 C   0  0  0  0  0  2  0  0  0  0  0  0
  -24.6690  -31.0890   22.1670 N   0  0  0  0  0  0  0  0  0  0  0  0
  -23.5070  -32.1700   23.7850 O   0  0  0  0  0  0  0  0  0  0  0  0
  -22.7650  -29.4530   22.5890 C   0  0  0  0  0  0  0  0  0  0  0  0
  -21.4430  -29.2630   22.4510 N   0  0  0  0  0  0  0  0  0  0  0  0
  -23.4450  -28.8410   23.4160 O   0  0  0  0  0  0  0  0  0  0  0  0
  -20.9570  -29.8110   21.7540 H   0  0  0  0  0  0  0  0  0  0  0  0
  -18.0670  -28.0770   22.9360 C   0  0  0  0  0  0  0  0  0  0  0  0
  -20.6230  -28.3330   23.2240 C   0  0  0  0  0  3  0  0  0  0  0  0
  -20.7270  -26.8970   22.6570 C   0  0  0  0  0  2  0  0  0  0  0  0
  -19.6310  -26.5700   21.6380 C   0  0  0  0  0  2  0  0  0  0  0  0
  -18.2460  -26.7210   22.2730 C   0  0  0  0  0  2  0  0  0  0  0  0
  -19.1840  -28.8390   23.3680 C   0  0  0  0  0  0  0  0  0  0  0  0
  -18.9630  -30.1080   23.9470 C   0  0  0  0  0  3  0  0  0  0  0  0
  -17.6580  -30.6130   24.1000 C   0  0  0  0  0  3  0  0  0  0  0  0
  -16.5550  -29.8470   23.6840 C   0  0  0  0  0  3  0  0  0  0  0  0
  -16.7610  -28.5810   23.1080 C   0  0  0  0  0  3  0  0  0  0  0  0
  -25.8720  -32.5450   23.8860 C   0  0  0  0  0  3  0  0  0  0  0  0
  -25.5490  -33.9430   24.2020 N   0  0  0  0  0  0  0  0  0  0  0  0
  -25.8910  -34.9920   23.4400 C   0  0  0  0  0  0  0  0  0  0  0  0
  -26.5800  -34.8850   22.4230 O   0  0  0  0  0  0  0  0  0  0  0  0
  -24.9390  -34.0990   24.9900 H   0  0  0  0  0  0  0  0  0  0  0  0
  -24.1640  -36.7730   23.0330 C   0  0  0  0  0  1  0  0  0  0  0  0
  -25.3840  -36.3800   23.8780 C   0  0  0  0  0  3  0  0  0  0  0  0
  -27.4950  -37.2760   24.7570 C   0  0  0  0  0  1  0  0  0  0  0  0
  -26.4160  -37.4370   23.7870 N   0  0  0  0  0  0  0  0  0  0  0  0
  -26.0010  -38.3550   23.9210 H   0  0  0  0  0  0  0  0  0  0  0  0
  -26.3880  -31.7870   25.1700 C   0  0  1  0  0  0  0  0  0  0  0  0
  -25.2900  -31.5420   26.2300 C   0  0  0  0  0  1  0  0  0  0  0  0
  -26.9900  -30.4140   24.7860 C   0  0  0  0  0  1  0  0  0  0  0  0
  -27.5260  -32.5960   25.8360 C   0  0  0  0  0  1  0  0  0  0  0  0
  -28.2570  -19.4790   17.3290 C   0  0  0  0  0  2  0  0  0  0  0  0
  -27.9310  -18.5040   18.4680 C   0  0  0  0  0  2  0  0  0  0  0  0
  -29.7700  -16.9820   19.1590 C   0  0  0  0  0  0  0  0  0  0  0  0
  -29.1110  -18.1410   19.2530 N   0  0  0  0  0  0  0  0  0  0  0  0
  -29.4880  -16.1850   18.2620 O   0  0  0  0  0  0  0  0  0  0  0  0
  -29.4020  -18.7870   19.9760 H   0  0  0  0  0  0  0  0  0  0  0  0
  -30.8960  -16.6330   20.1840 C   0  0  0  0  0  3  0  0  0  0  0  0
  -31.3400  -14.1780   19.9900 C   0  0  0  0  0  0  0  0  0  0  0  0
  -30.8860  -11.9790   18.9920 C   0  0  0  0  0  2  0  0  0  0  0  0
  -29.9280  -12.1800   17.7990 C   0  0  0  0  0  2  0  0  0  0  0  0
  -28.4570  -12.1770   18.2630 C   0  0  0  0  0  2  0  0  0  0  0  0
  -28.2110  -13.1120   19.4770 C   0  0  0  0  0  3  0  0  0  0  0  0
  -29.2710  -12.8660   20.5750 C   0  0  0  0  0  2  0  0  0  0  0  0
  -30.6070  -13.0360   19.9720 N   0  0  0  0  0  0  0  0  0  0  0  0
  -32.4330  -14.3040   19.4300 O   0  0  0  0  0  0  0  0  0  0  0  0
  -30.7030  -15.2210   20.5330 N   0  0  0  0  0  0  0  0  0  0  0  0
  -29.8200  -15.0040   20.9630 H   0  0  0  0  0  0  0  0  0  0  0  0
  -25.9150  -13.9570   20.2820 C   0  0  0  0  0  0  0  0  0  0  0  0
  -24.7830  -13.2930   20.6720 C   0  0  0  0  0  0  0  0  0  0  0  0
  -25.0950  -11.9020   20.5890 C   0  0  0  0  0  0  0  0  0  0  0  0
  -26.8520  -12.9750   19.9930 N   0  0  0  0  0  0  0  0  0  0  0  0
  -26.3610  -11.7340   20.2320 N   0  0  0  0  0  0  0  0  0  0  0  0
  -24.2470  -10.7170   20.7760 C   0  0  0  0  0  0  0  0  0  0  0  0
  -24.5970   -9.6960   21.6860 C   0  0  0  0  0  3  0  0  0  0  0  0
  -23.7570   -8.5740   21.8610 C   0  0  0  0  0  3  0  0  0  0  0  0
  -22.5520   -8.4680   21.1250 C   0  0  0  0  0  0  0  0  0  0  0  0
  -22.2210   -9.4770   20.2030 C   0  0  0  0  0  3  0  0  0  0  0  0
  -23.0610  -10.5900   20.0270 C   0  0  0  0  0  3  0  0  0  0  0  0
  -21.6880   -7.4040   21.2090 O   0  0  0  0  0  0  0  0  0  0  0  0
  -21.5720   -6.6610   22.3560 C   0  0  0  0  0  0  0  0  0  0  0  0
  -21.2180   -7.2470   23.5910 C   0  0  0  0  0  3  0  0  0  0  0  0
  -21.0420   -6.4360   24.7310 C   0  0  0  0  0  3  0  0  0  0  0  0
  -21.2110   -5.0410   24.6360 C   0  0  0  0  0  0  0  0  0  0  0  0
  -21.5580   -4.4560   23.4060 C   0  0  0  0  0  3  0  0  0  0  0  0
  -21.7360   -5.2640   22.2690 C   0  0  0  0  0  0  0  0  0  0  0  0
  -22.0500   -4.6920   21.0810 F   0  0  0  0  0  0  0  0  0  0  0  0
  -21.0340   -4.2620   25.7280 F   0  0  0  0  0  0  0  0  0  0  0  0
  -23.4540  -13.9070   21.0090 C   0  0  0  0  0  0  0  0  0  0  0  0
  -22.7020  -13.2850   21.9100 N   0  0  0  0  0  0  0  0  0  0  0  0
  -23.0950  -14.9720   20.5070 O   0  0  0  0  0  0  0  0  0  0  0  0
  -23.0030  -12.4230   22.3380 H   0  0  0  0  0  0  0  0  0  0  0  0
  -21.8110  -13.6800   22.1770 H   0  0  0  0  0  0  0  0  0  0  0  0
  -26.2210  -15.3070   20.1310 N   0  0  0  0  0  0  0  0  0  0  0  0
  -25.5320  -16.0360   20.2810 H   0  0  0  0  0  0  0  0  0  0  0  0
  -27.0940  -15.6550   19.7550 H   0  0  0  0  0  0  0  0  0  0  0  0
  -31.4050  -18.9080   21.3380 C   0  0  0  0  0  1  0  0  0  0  0  0
  -31.9360  -16.7990   22.4980 C   0  0  0  0  0  1  0  0  0  0  0  0
  -29.5400  -17.4740   22.2450 C   0  0  0  0  0  1  0  0  0  0  0  0
  -30.9140  -17.4520   21.5340 C   0  0  2  0  0  0  0  0  0  0  0  0
  2  3  1  0
  2  1  1  0
  4  3  1  0
  4  5  1  0
  5  6  1  0
  6  7  1  0
  7  8  1  0
  9  8  1  0
 10  9  1  0
 11 22  2  0
 12 10  1  0
 12 17  1  0
 13 21  1  0
 13 23  1  0
 14 20  1  0
 14 16  1  0
 15 21  1  0
 16 17  2  0
 16 15  1  0
 18 12  2  0
 19 18  1  0
 19 14  2  0
 20 13  1  0
 21 11  1  0
 23 25  2  0
 24 23  1  0
 26 24  1  0
 27 36  2  0
 27 32  1  0
 28 24  1  0
 28 32  1  0
 29 28  1  0
 30 31  1  0
 30 29  1  0
 31 27  1  0
 32 33  2  0
 33 34  1  0
 35 34  2  0
 36 35  1  0
 37 11  1  0
 37 38  1  0
 37 47  1  0
 38 41  1  0
 39 43  1  0
 39 38  1  0
 40 39  2  0
 43 42  1  0
 45 43  1  0
 45 46  1  0
 45 44  1  0
 47 50  1  1
 47 48  1  0
 49 47  1  0
 51  1  1  0
 51 52  1  0
 52 54  1  0
 53 54  1  0
 54 56  1  0
 55 53  2  0
 57 53  1  0
 57 66  1  0
 57 99  1  0
 58 66  1  0
 59 64  1  0
 60 61  1  0
 60 59  1  0
 62 61  1  0
 62 71  1  0
 62 63  1  0
 64 58  1  0
 64 63  1  0
 65 58  2  0
 66 67  1  0
 68 69  2  0
 69 88  1  0
 70 69  1  0
 70 73  1  0
 71 72  1  0
 71 68  1  0
 72 70  2  0
 73 74  1  0
 74 75  2  0
 76 79  1  0
 76 75  1  0
 77 76  2  0
 78 77  1  0
 78 73  2  0
 79 80  1  0
 80 81  1  0
 81 82  2  0
 83 82  1  0
 83 87  1  0
 84 83  2  0
 85 80  2  0
 85 84  1  0
 86 85  1  0
 88 89  1  0
 89 92  1  0
 89 91  1  0
 90 88  2  0
 93 94  1  0
 93 68  1  0
 95 93  1  0
 99 96  1  6
 99 98  1  0
 99 97  1  0
M  ISO  4   9 101  10 101  58 100  66 100
M  END
>  <TORSDO>  (14) 
F 29

>  <SCORE>  (14) 
-8.447

>  <name>  (14) 
13

>  <ligand_id>  (14) 
13

>  <original_smiles>  (14) 
[H]c1c([H])c([H])c2c(c1[H])C([H])([H])C([H])([H])C([H])([H])C2([H])N([H])C(=O)C1([H])N(C(=O)C([H])(N([H])C(=O)C([H])(N([H])C([H])([H])[H])C([H])([H])[H])C(C([H])([H])[H])(C([H])([H])[H])C([H])([H])[H])C([H])([H])c2c([H])c(OC([H])([H])C([H])([H])OC([H])([H])C([H])([H])OC([H])([H])C([H])([H])OC([H])([H])C([H])([H])N([H])C(=O)C([H])(N([H])C(=O)N3C([H])([H])C([H])([H])C([H])([H])C([H])(n4nc(-c5c([H])c([H])c(Oc6c([H])c([H])c(F)c([H])c6F)c([H])c5[H])c(C(=O)N([H])[H])c4N([H])[H])C3([H])[H])C(C([H])([H])[H])(C([H])([H])[H])C([H])([H])[H])c([H])c([H])c2C1([H])[H]

>  <smiles>  (14) 
[H]c1c([H])c([H])c2c(c1[H])C([H])([H])C([H])([H])C([H])([H])C2([H])N([H])C(=O)C1([H])N(C(=O)C([H])(N([H])C(=O)C([H])(N([H])C([H])([H])[H])C([H])([H])[H])C(C([H])([H])[H])(C([H])([H])[H])C([H])([H])[H])C([H])([H])c2c([H])c(OC([H])([H])C([H])([H])OC([H])([H])C([H])([H])OC([H])([H])C([H])([H])OC([H])([H])C([H])([H])N([H])C(=O)C([H])(N([H])C(=O)N3C([H])([H])C([H])([H])C([H])([H])C([H])(n4nc(-c5c([H])c([H])c(Oc6c([H])c([H])c(F)c([H])c6F)c([H])c5[H])c(C(=O)N([H])[H])c4N([H])[H])C3([H])[H])C(C([H])([H])[H])(C([H])([H])[H])C([H])([H])[H])c([H])c([H])c2C1([H])[H]

$$$$
14:0:0
     RDKit          3D

100107  0  0  1  0  0  0  0  0999 V2000
  -27.2320  -23.2570   20.4100 C   0  0  0  0  0  0  0  0  0  0  0  0
  -28.3910  -23.8780   20.1770 N   0  0  0  0  0  0  0  0  0  0  0  0
  -26.9330  -22.7930   21.5100 O   0  0  0  0  0  0  0  0  0  0  0  0
  -28.5770  -24.1960   19.2360 H   0  0  0  0  0  0  0  0  0  0  0  0
  -29.4950  -24.0210   21.1200 C   0  0  0  0  0  3  0  0  0  0  0  0
  -30.5230  -22.9200   20.7910 C   0  0  0  0  0  0  0  0  0  0  0  0
  -31.2270  -22.2300   21.9490 C   0  0  0  0  0  1  0  0  0  0  0  0
  -30.7880  -22.5730   19.6370 O   0  0  0  0  0  0  0  0  0  0  0  0
  -30.1730  -25.4010   20.9070 C   0  0  0  0  0  2  0  0  0  0  0  0
  -29.2420  -26.6180   21.1070 C   0  0  0  0  0  2  0  0  0  0  0  0
  -28.3830  -26.7090   19.9780 O   0  0  0  0  0  0  0  0  0  0  0  0
  -24.6110  -31.8710   23.2150 C   0  0  0  0  0  0  0  0  0  0  0  0
  -27.2470  -27.4710   20.0880 C   0  0  0  0  0  0  0  0  0  0  0  0
  -23.3990  -30.4940   21.5530 C   0  0  0  0  0  3  0  0  0  0  0  0
  -24.8510  -28.9620   20.1240 C   0  0  0  0  0  0  0  0  0  0  0  0
  -25.9240  -30.8430   21.3680 C   0  0  0  0  0  2  0  0  0  0  0  0
  -26.0060  -29.4750   20.7290 C   0  0  0  0  0  0  0  0  0  0  0  0
  -27.2070  -28.7310   20.7270 C   0  0  0  0  0  3  0  0  0  0  0  0
  -26.0800  -26.9730   19.4770 C   0  0  0  0  0  3  0  0  0  0  0  0
  -24.8780  -27.7020   19.5040 C   0  0  0  0  0  3  0  0  0  0  0  0
  -23.6100  -29.8260   20.1690 C   0  0  0  0  0  2  0  0  0  0  0  0
  -24.6620  -31.0830   22.1040 N   0  0  0  0  0  0  0  0  0  0  0  0
  -23.5310  -32.1470   23.7540 O   0  0  0  0  0  0  0  0  0  0  0  0
  -22.7400  -29.4670   22.5010 C   0  0  0  0  0  0  0  0  0  0  0  0
  -21.4130  -29.3020   22.3750 N   0  0  0  0  0  0  0  0  0  0  0  0
  -23.4180  -28.8200   23.3050 O   0  0  0  0  0  0  0  0  0  0  0  0
  -20.9280  -29.8730   21.6970 H   0  0  0  0  0  0  0  0  0  0  0  0
  -18.0270  -28.1380   22.8490 C   0  0  0  0  0  0  0  0  0  0  0  0
  -20.5850  -28.3650   23.1330 C   0  0  0  0  0  3  0  0  0  0  0  0
  -20.6770  -26.9390   22.5420 C   0  0  0  0  0  2  0  0  0  0  0  0
  -19.5760  -26.6380   21.5210 C   0  0  0  0  0  2  0  0  0  0  0  0
  -18.1930  -26.7930   22.1620 C   0  0  0  0  0  2  0  0  0  0  0  0
  -19.1510  -28.8830   23.2910 C   0  0  0  0  0  0  0  0  0  0  0  0
  -18.9440  -30.1440   23.8920 C   0  0  0  0  0  3  0  0  0  0  0  0
  -17.6450  -30.6590   24.0560 C   0  0  0  0  0  3  0  0  0  0  0  0
  -16.5340  -29.9090   23.6320 C   0  0  0  0  0  3  0  0  0  0  0  0
  -16.7260  -28.6500   23.0350 C   0  0  0  0  0  3  0  0  0  0  0  0
  -25.9030  -32.4840   23.8430 C   0  0  0  0  0  3  0  0  0  0  0  0
  -25.5890  -33.8640   24.2350 N   0  0  0  0  0  0  0  0  0  0  0  0
  -25.9030  -34.9480   23.5140 C   0  0  0  0  0  0  0  0  0  0  0  0
  -26.5590  -34.8930   22.4700 O   0  0  0  0  0  0  0  0  0  0  0  0
  -25.0040  -33.9810   25.0500 H   0  0  0  0  0  0  0  0  0  0  0  0
  -24.1490  -36.7320   23.2630 C   0  0  0  0  0  1  0  0  0  0  0  0
  -25.4100  -36.3120   24.0340 C   0  0  0  0  0  3  0  0  0  0  0  0
  -27.5580  -37.1810   24.8460 C   0  0  0  0  0  1  0  0  0  0  0  0
  -26.4300  -37.3800   23.9410 N   0  0  0  0  0  0  0  0  0  0  0  0
  -26.0180  -38.2880   24.1410 H   0  0  0  0  0  0  0  0  0  0  0  0
  -26.4470  -31.6600   25.0730 C   0  0  1  0  0  0  0  0  0  0  0  0
  -25.3750  -31.3700   26.1480 C   0  0  0  0  0  1  0  0  0  0  0  0
  -27.0300  -30.3050   24.6080 C   0  0  0  0  0  1  0  0  0  0  0  0
  -27.6060  -32.4300   25.7490 C   0  0  0  0  0  1  0  0  0  0  0  0
  -26.3010  -23.1050   19.2120 C   0  0  0  0  0  2  0  0  0  0  0  0
  -24.7970  -23.1850   19.5560 C   0  0  0  0  0  2  0  0  0  0  0  0
  -23.8860  -22.6660   18.4320 C   0  0  0  0  0  2  0  0  0  0  0  0
  -23.5590  -21.2770   18.5500 O   0  0  0  0  0  0  0  0  0  0  0  0
  -24.6040  -20.3280   18.3220 C   0  0  0  0  0  2  0  0  0  0  0  0
  -25.1140  -19.7620   19.6650 C   0  0  0  0  0  2  0  0  0  0  0  0
  -26.3120  -19.0090   19.5120 O   0  0  0  0  0  0  0  0  0  0  0  0
  -26.8410  -18.6170   20.7750 C   0  0  0  0  0  2  0  0  0  0  0  0
  -28.0550  -17.6920   20.5780 C   0  0  0  0  0  2  0  0  0  0  0  0
  -28.8810  -17.5220   21.8670 C   0  0  0  0  0  2  0  0  0  0  0  0
  -30.1640  -16.6650   21.7300 C   0  0  0  0  0  2  0  0  0  0  0  0
  -30.6400  -14.4240   20.6380 C   0  0  0  0  0  0  0  0  0  0  0  0
  -30.4410  -12.3040   19.3810 C   0  0  0  0  0  2  0  0  0  0  0  0
  -29.4920  -12.5290   18.1830 C   0  0  0  0  0  2  0  0  0  0  0  0
  -28.0120  -12.3900   18.5940 C   0  0  0  0  0  2  0  0  0  0  0  0
  -27.6710  -13.1760   19.8880 C   0  0  0  0  0  3  0  0  0  0  0  0
  -28.7090  -12.8660   20.9880 C   0  0  0  0  0  2  0  0  0  0  0  0
  -30.0360  -13.2260   20.4510 N   0  0  0  0  0  0  0  0  0  0  0  0
  -31.7410  -14.7170   20.1520 O   0  0  0  0  0  0  0  0  0  0  0  0
  -29.8790  -15.2920   21.3240 N   0  0  0  0  0  0  0  0  0  0  0  0
  -28.9820  -14.9190   21.6000 H   0  0  0  0  0  0  0  0  0  0  0  0
  -25.2640  -13.8020   20.5740 C   0  0  0  0  0  0  0  0  0  0  0  0
  -24.1860  -13.0320   20.9210 C   0  0  0  0  0  0  0  0  0  0  0  0
  -24.6350  -11.6780   20.8720 C   0  0  0  0  0  0  0  0  0  0  0  0
  -26.3040  -12.9150   20.3370 N   0  0  0  0  0  0  0  0  0  0  0  0
  -25.9280  -11.6320   20.5730 N   0  0  0  0  0  0  0  0  0  0  0  0
  -23.8980  -10.4200   21.0360 C   0  0  0  0  0  0  0  0  0  0  0  0
  -24.3520   -9.4130   21.9150 C   0  0  0  0  0  3  0  0  0  0  0  0
  -23.6190   -8.2180   22.0760 C   0  0  0  0  0  3  0  0  0  0  0  0
  -22.4200   -8.0210   21.3530 C   0  0  0  0  0  0  0  0  0  0  0  0
  -21.9800   -9.0150   20.4620 C   0  0  0  0  0  3  0  0  0  0  0  0
  -22.7120  -10.2030   20.3050 C   0  0  0  0  0  3  0  0  0  0  0  0
  -21.6570   -6.8810   21.4230 O   0  0  0  0  0  0  0  0  0  0  0  0
  -21.6800   -6.0650   22.5250 C   0  0  0  0  0  0  0  0  0  0  0  0
  -21.3950   -6.5570   23.8160 C   0  0  0  0  0  3  0  0  0  0  0  0
  -21.3690   -5.6760   24.9150 C   0  0  0  0  0  3  0  0  0  0  0  0
  -21.6080   -4.3020   24.7220 C   0  0  0  0  0  0  0  0  0  0  0  0
  -21.8790   -3.8070   23.4340 C   0  0  0  0  0  3  0  0  0  0  0  0
  -21.9140   -4.6880   22.3380 C   0  0  0  0  0  0  0  0  0  0  0  0
  -22.1620   -4.2050   21.0960 F   0  0  0  0  0  0  0  0  0  0  0  0
  -21.5660   -3.4540   25.7740 F   0  0  0  0  0  0  0  0  0  0  0  0
  -22.7900  -13.5190   21.1810 C   0  0  0  0  0  0  0  0  0  0  0  0
  -22.0490  -12.8270   22.0380 N   0  0  0  0  0  0  0  0  0  0  0  0
  -22.3630  -14.5500   20.6600 O   0  0  0  0  0  0  0  0  0  0  0  0
  -22.4040  -11.9970   22.4870 H   0  0  0  0  0  0  0  0  0  0  0  0
  -21.1100  -13.1390   22.2440 H   0  0  0  0  0  0  0  0  0  0  0  0
  -25.4260  -15.1730   20.4270 N   0  0  0  0  0  0  0  0  0  0  0  0
  -24.6540  -15.8140   20.5820 H   0  0  0  0  0  0  0  0  0  0  0  0
  -26.2580  -15.6320   20.0800 H   0  0  0  0  0  0  0  0  0  0  0  0
  1  3  2  0
  2  1  1  0
  2  5  1  0
  4  2  1  0
  5  9  1  0
  6  5  1  0
  6  7  1  0
  8  6  2  0
  9 10  1  0
 11 13  1  0
 11 10  1  0
 12 23  2  0
 13 18  1  0
 14 22  1  0
 14 24  1  0
 15 21  1  0
 15 17  1  0
 16 22  1  0
 17 16  1  0
 18 17  2  0
 19 20  1  0
 19 13  2  0
 20 15  2  0
 21 14  1  0
 22 12  1  0
 24 26  2  0
 25 24  1  0
 27 25  1  0
 28 37  2  0
 28 33  1  0
 29 25  1  0
 29 33  1  0
 30 29  1  0
 31 32  1  0
 31 30  1  0
 32 28  1  0
 33 34  2  0
 34 35  1  0
 36 35  2  0
 37 36  1  0
 38 12  1  0
 38 39  1  0
 38 48  1  0
 39 42  1  0
 40 44  1  0
 40 39  1  0
 41 40  2  0
 44 43  1  0
 46 44  1  0
 46 47  1  0
 46 45  1  0
 48 51  1  1
 48 49  1  0
 50 48  1  0
 52 53  1  0
 52  1  1  0
 54 55  1  0
 54 53  1  0
 56 55  1  0
 56 57  1  0
 58 57  1  0
 58 59  1  0
 60 59  1  0
 60 61  1  0
 62 61  1  0
 63 71  1  0
 64 69  1  0
 65 66  1  0
 65 64  1  0
 67 66  1  0
 67 76  1  0
 67 68  1  0
 69 63  1  0
 69 68  1  0
 70 63  2  0
 71 72  1  0
 71 62  1  0
 73 74  2  0
 74 93  1  0
 75 74  1  0
 75 78  1  0
 76 77  1  0
 76 73  1  0
 77 75  2  0
 78 79  1  0
 79 80  2  0
 81 84  1  0
 81 80  1  0
 82 81  2  0
 83 82  1  0
 83 78  2  0
 84 85  1  0
 85 86  1  0
 86 87  2  0
 88 87  1  0
 88 92  1  0
 89 88  2  0
 90 85  2  0
 90 89  1  0
 91 90  1  0
 93 94  1  0
 94 97  1  0
 94 96  1  0
 95 93  2  0
 98 73  1  0
 98 99  1  0
100 98  1  0
M  ISO  4  10 101  11 101  63 100  71 100
M  END
>  <TORSDO>  (15) 
F 31

>  <SCORE>  (15) 
-6.553

>  <name>  (15) 
14

>  <ligand_id>  (15) 
14

>  <original_smiles>  (15) 
[H]c1c([H])c([H])c2c(c1[H])C([H])([H])C([H])([H])C([H])([H])C2([H])N([H])C(=O)C1([H])N(C(=O)C([H])(N([H])C(=O)C([H])(N([H])C([H])([H])[H])C([H])([H])[H])C(C([H])([H])[H])(C([H])([H])[H])C([H])([H])[H])C([H])([H])c2c([H])c(OC([H])([H])C([H])([H])C([H])(C(=O)C([H])([H])[H])N([H])C(=O)C([H])([H])C([H])([H])C([H])([H])OC([H])([H])C([H])([H])OC([H])([H])C([H])([H])C([H])([H])C([H])([H])N([H])C(=O)N3C([H])([H])C([H])([H])C([H])([H])C([H])(n4nc(-c5c([H])c([H])c(Oc6c([H])c([H])c(F)c([H])c6F)c([H])c5[H])c(C(=O)N([H])[H])c4N([H])[H])C3([H])[H])c([H])c([H])c2C1([H])[H]

>  <smiles>  (15) 
[H]c1c([H])c([H])c2c(c1[H])C([H])([H])C([H])([H])C([H])([H])C2([H])N([H])C(=O)C1([H])N(C(=O)C([H])(N([H])C(=O)C([H])(N([H])C([H])([H])[H])C([H])([H])[H])C(C([H])([H])[H])(C([H])([H])[H])C([H])([H])[H])C([H])([H])c2c([H])c(OC([H])([H])C([H])([H])C([H])(C(=O)C([H])([H])[H])N([H])C(=O)C([H])([H])C([H])([H])C([H])([H])OC([H])([H])C([H])([H])OC([H])([H])C([H])([H])C([H])([H])C([H])([H])N([H])C(=O)N3C([H])([H])C([H])([H])C([H])([H])C([H])(n4nc(-c5c([H])c([H])c(Oc6c([H])c([H])c(F)c([H])c6F)c([H])c5[H])c(C(=O)N([H])[H])c4N([H])[H])C3([H])[H])c([H])c([H])c2C1([H])[H]

$$$$
15:0:0
     RDKit          3D

109116  0  0  1  0  0  0  0  0999 V2000
  -22.4200  -21.0980   27.6130 O   0  0  0  0  0  0  0  0  0  0  0  0
  -22.5460  -21.7840   28.8470 C   0  0  0  0  0  2  0  0  0  0  0  0
  -24.0460  -21.9940   29.0900 C   0  0  0  0  0  2  0  0  0  0  0  0
  -24.4750  -23.1430   28.3610 O   0  0  0  0  0  0  0  0  0  0  0  0
  -25.7300  -23.6350   28.8130 C   0  0  0  0  0  2  0  0  0  0  0  0
  -26.1060  -24.8590   27.9680 C   0  0  0  0  0  2  0  0  0  0  0  0
  -26.5820  -24.4990   26.6110 N   0  0  0  0  0  4  0  0  0  0  0  0
  -27.1210  -23.6480   26.6680 H   0  0  0  0  0  0  0  0  0  0  0  0
  -25.7740  -24.3100   26.0350 H   0  0  0  0  0  0  0  0  0  0  0  0
  -27.4080  -25.5660   25.9930 C   0  0  0  0  0  2  0  0  0  0  0  0
  -28.1400  -25.1180   24.7190 C   0  0  0  0  0  2  0  0  0  0  0  0
  -29.1590  -26.0800   24.4750 O   0  0  0  0  0  0  0  0  0  0  0  0
  -29.8510  -25.8820   23.2490 C   0  0  0  0  0  2  0  0  0  0  0  0
  -30.7300  -27.1160   22.9530 C   0  0  0  0  0  2  0  0  0  0  0  0
  -30.4550  -27.6410   21.6530 O   0  0  0  0  0  0  0  0  0  0  0  0
  -25.5090  -32.0460   24.2720 C   0  0  0  0  0  0  0  0  0  0  0  0
  -29.2250  -28.2320   21.5110 C   0  0  0  0  0  0  0  0  0  0  0  0
  -24.8080  -30.6340   22.3640 C   0  0  0  0  0  3  0  0  0  0  0  0
  -26.6820  -29.3950   21.1560 C   0  0  0  0  0  0  0  0  0  0  0  0
  -27.2530  -31.3190   22.6510 C   0  0  0  0  0  2  0  0  0  0  0  0
  -27.6290  -30.0200   21.9760 C   0  0  0  0  0  0  0  0  0  0  0  0
  -28.9020  -29.4450   22.1590 C   0  0  0  0  0  3  0  0  0  0  0  0
  -28.2720  -27.6190   20.6760 C   0  0  0  0  0  3  0  0  0  0  0  0
  -26.9950  -28.1880   20.5040 C   0  0  0  0  0  3  0  0  0  0  0  0
  -25.3450  -30.0850   21.0130 C   0  0  0  0  0  2  0  0  0  0  0  0
  -25.8620  -31.3460   23.1570 N   0  0  0  0  0  0  0  0  0  0  0  0
  -24.3240  -32.1450   24.6160 O   0  0  0  0  0  0  0  0  0  0  0  0
  -24.1380  -29.4740   23.1340 C   0  0  0  0  0  0  0  0  0  0  0  0
  -22.9080  -29.1190   22.7270 N   0  0  0  0  0  0  0  0  0  0  0  0
  -24.7300  -28.8960   24.0490 O   0  0  0  0  0  0  0  0  0  0  0  0
  -22.4900  -29.6420   21.9700 H   0  0  0  0  0  0  0  0  0  0  0  0
  -19.7190  -27.4450   22.4700 C   0  0  0  0  0  0  0  0  0  0  0  0
  -22.1020  -28.0320   23.2790 C   0  0  0  0  0  3  0  0  0  0  0  0
  -22.5300  -26.6690   22.6870 C   0  0  0  0  0  2  0  0  0  0  0  0
  -21.7140  -26.2650   21.4540 C   0  0  0  0  0  2  0  0  0  0  0  0
  -20.2250  -26.1790   21.8000 C   0  0  0  0  0  2  0  0  0  0  0  0
  -20.6030  -28.3240   23.1500 C   0  0  0  0  0  0  0  0  0  0  0  0
  -20.0870  -29.5060   23.7240 C   0  0  0  0  0  3  0  0  0  0  0  0
  -18.7160  -29.8130   23.6290 C   0  0  0  0  0  3  0  0  0  0  0  0
  -17.8430  -28.9320   22.9680 C   0  0  0  0  0  3  0  0  0  0  0  0
  -18.3440  -27.7490   22.3940 C   0  0  0  0  0  3  0  0  0  0  0  0
  -26.5720  -32.7750   25.1510 C   0  0  0  0  0  3  0  0  0  0  0  0
  -26.8250  -32.0660   26.5380 C   0  0  1  0  0  0  0  0  0  0  0  0
  -25.5270  -31.7330   27.3100 C   0  0  0  0  0  1  0  0  0  0  0  0
  -27.6080  -30.7470   26.3410 C   0  0  0  0  0  1  0  0  0  0  0  0
  -27.7050  -32.9690   27.4350 C   0  0  0  0  0  1  0  0  0  0  0  0
  -26.1110  -34.1560   25.3460 N   0  0  0  0  0  0  0  0  0  0  0  0
  -26.5700  -35.2130   24.6650 C   0  0  0  0  0  0  0  0  0  0  0  0
  -27.4900  -35.1340   23.8450 O   0  0  0  0  0  0  0  0  0  0  0  0
  -25.3210  -34.2870   25.9620 H   0  0  0  0  0  0  0  0  0  0  0  0
  -24.9060  -36.8900   23.8080 C   0  0  0  0  0  1  0  0  0  0  0  0
  -25.9030  -36.5750   24.9340 C   0  0  0  0  0  3  0  0  0  0  0  0
  -27.6970  -37.5890   26.2700 C   0  0  0  0  0  1  0  0  0  0  0  0
  -26.8710  -37.6860   25.0690 N   0  0  0  0  0  0  0  0  0  0  0  0
  -26.3910  -38.5820   25.0830 H   0  0  0  0  0  0  0  0  0  0  0  0
  -21.1110  -21.1020   27.0670 C   0  0  0  0  0  2  0  0  0  0  0  0
  -21.3050  -20.9090   25.5630 C   0  0  0  0  0  2  0  0  0  0  0  0
  -20.1140  -21.3470   24.6960 C   0  0  0  0  0  2  0  0  0  0  0  0
  -20.5530  -21.4280   23.2900 N   0  0  0  0  0  4  0  0  0  0  0  0
  -20.8020  -20.5120   22.9460 H   0  0  0  0  0  0  0  0  0  0  0  0
  -21.3990  -21.9750   23.2730 H   0  0  0  0  0  0  0  0  0  0  0  0
  -19.6300  -22.0550   22.3220 C   0  0  0  0  0  2  0  0  0  0  0  0
  -20.4450  -22.5840   21.1330 C   0  0  0  0  0  2  0  0  0  0  0  0
  -21.3270  -21.5370   20.7390 O   0  0  0  0  0  0  0  0  0  0  0  0
  -22.3280  -21.9390   19.8130 C   0  0  0  0  0  2  0  0  0  0  0  0
  -23.3430  -20.7940   19.7340 C   0  0  0  0  0  2  0  0  0  0  0  0
  -24.6100  -21.1000   18.9190 C   0  0  0  0  0  2  0  0  0  0  0  0
  -25.5800  -20.1130   19.2540 O   0  0  0  0  0  0  0  0  0  0  0  0
  -26.8650  -20.3430   18.6870 C   0  0  0  0  0  2  0  0  0  0  0  0
  -27.7730  -19.1700   19.0930 C   0  0  0  0  0  2  0  0  0  0  0  0
  -28.3160  -19.2460   20.5390 C   0  0  0  0  0  2  0  0  0  0  0  0
  -29.6360  -17.1180   20.7270 C   0  0  0  0  0  0  0  0  0  0  0  0
  -30.0350  -14.8380   19.8880 C   0  0  0  0  0  2  0  0  0  0  0  0
  -29.2570  -14.6670   18.5690 C   0  0  0  0  0  2  0  0  0  0  0  0
  -27.7930  -14.2520   18.8270 C   0  0  0  0  0  2  0  0  0  0  0  0
  -27.1010  -15.1220   19.9100 C   0  0  0  0  0  3  0  0  0  0  0  0
  -28.0060  -15.2530   21.1560 C   0  0  0  0  0  2  0  0  0  0  0  0
  -29.3040  -15.8020   20.7190 N   0  0  0  0  0  0  0  0  0  0  0  0
  -30.7050  -17.5620   20.2990 O   0  0  0  0  0  0  0  0  0  0  0  0
  -28.6120  -17.9140   21.0610 N   0  0  0  0  0  0  0  0  0  0  0  0
  -27.8270  -17.4330   21.4780 H   0  0  0  0  0  0  0  0  0  0  0  0
  -24.5700  -15.2820   20.3600 C   0  0  0  0  0  0  0  0  0  0  0  0
  -23.6290  -14.3310   20.6340 C   0  0  0  0  0  0  0  0  0  0  0  0
  -24.3270  -13.0870   20.6770 C   0  0  0  0  0  0  0  0  0  0  0  0
  -25.7760  -14.6060   20.2500 N   0  0  0  0  0  0  0  0  0  0  0  0
  -25.6280  -13.2800   20.4960 N   0  0  0  0  0  0  0  0  0  0  0  0
  -23.8300  -11.7150   20.8290 C   0  0  0  0  0  0  0  0  0  0  0  0
  -24.2780  -10.8770   21.8750 C   0  0  0  0  0  3  0  0  0  0  0  0
  -23.7690   -9.5660   22.0090 C   0  0  0  0  0  3  0  0  0  0  0  0
  -22.8030   -9.0850   21.0950 C   0  0  0  0  0  0  0  0  0  0  0  0
  -22.3790   -9.9160   20.0440 C   0  0  0  0  0  3  0  0  0  0  0  0
  -22.8870  -11.2170   19.9090 C   0  0  0  0  0  3  0  0  0  0  0  0
  -22.2700   -7.8190   21.1280 O   0  0  0  0  0  0  0  0  0  0  0  0
  -22.1040   -7.1440   22.3110 C   0  0  0  0  0  0  0  0  0  0  0  0
  -21.3270   -7.6670   23.3680 C   0  0  0  0  0  3  0  0  0  0  0  0
  -21.1270   -6.9070   24.5360 C   0  0  0  0  0  3  0  0  0  0  0  0
  -21.6960   -5.6220   24.6460 C   0  0  0  0  0  0  0  0  0  0  0  0
  -22.4680   -5.0990   23.5930 C   0  0  0  0  0  3  0  0  0  0  0  0
  -22.6690   -5.8570   22.4280 C   0  0  0  0  0  0  0  0  0  0  0  0
  -23.4000   -5.3440   21.4070 F   0  0  0  0  0  0  0  0  0  0  0  0
  -21.4980   -4.8870   25.7640 F   0  0  0  0  0  0  0  0  0  0  0  0
  -22.1470  -14.5460   20.7700 C   0  0  0  0  0  0  0  0  0  0  0  0
  -21.4840  -13.7370   21.5860 N   0  0  0  0  0  0  0  0  0  0  0  0
  -21.5810  -15.4730   20.1890 O   0  0  0  0  0  0  0  0  0  0  0  0
  -21.9570  -12.9920   22.0780 H   0  0  0  0  0  0  0  0  0  0  0  0
  -20.4900  -13.8620   21.7250 H   0  0  0  0  0  0  0  0  0  0  0  0
  -24.4920  -16.6590   20.1910 N   0  0  0  0  0  0  0  0  0  0  0  0
  -23.6010  -17.1390   20.2610 H   0  0  0  0  0  0  0  0  0  0  0  0
  -25.2610  -17.2880   19.9950 H   0  0  0  0  0  0  0  0  0  0  0  0
  1  2  1  0
  2  3  1  0
  4  5  1  0
  4  3  1  0
  6  5  1  0
  7  8  1  0
  7  6  1  0
  9  7  1  0
 10  7  1  0
 11 10  1  0
 12 11  1  0
 13 12  1  0
 14 13  1  0
 15 14  1  0
 16 27  2  0
 17 15  1  0
 17 22  1  0
 18 28  1  0
 18 26  1  0
 19 21  1  0
 20 26  1  0
 21 22  2  0
 21 20  1  0
 23 17  2  0
 24 23  1  0
 24 19  2  0
 25 19  1  0
 25 18  1  0
 26 16  1  0
 28 30  2  0
 29 28  1  0
 31 29  1  0
 32 37  1  0
 33 29  1  0
 34 33  1  0
 35 36  1  0
 35 34  1  0
 36 32  1  0
 37 33  1  0
 37 38  2  0
 39 38  1  0
 40 39  2  0
 41 32  2  0
 41 40  1  0
 42 16  1  0
 42 47  1  0
 42 43  1  0
 43 44  1  1
 43 46  1  0
 45 43  1  0
 47 50  1  0
 48 52  1  0
 48 47  1  0
 49 48  2  0
 52 51  1  0
 52 54  1  0
 54 55  1  0
 54 53  1  0
 56  1  1  0
 57 56  1  0
 58 57  1  0
 59 58  1  0
 60 59  1  0
 61 59  1  0
 62 59  1  0
 63 62  1  0
 64 63  1  0
 65 64  1  0
 66 65  1  0
 67 68  1  0
 67 66  1  0
 69 70  1  0
 69 68  1  0
 70 71  1  0
 71 80  1  0
 72 80  1  0
 73 78  1  0
 74 75  1  0
 74 73  1  0
 76 75  1  0
 76 85  1  0
 76 77  1  0
 78 72  1  0
 78 77  1  0
 79 72  2  0
 80 81  1  0
 82 83  2  0
 83 84  1  0
 83102  1  0
 84 87  1  0
 85 82  1  0
 85 86  1  0
 86 84  2  0
 87 88  1  0
 88 89  2  0
 90 93  1  0
 90 89  1  0
 91 90  2  0
 92 91  1  0
 92 87  2  0
 93 94  1  0
 94 99  2  0
 94 95  1  0
 95 96  2  0
 96 97  1  0
 97101  1  0
 98 97  2  0
 99 98  1  0
100 99  1  0
102103  1  0
103106  1  0
103105  1  0
104102  2  0
107108  1  0
107 82  1  0
109107  1  0
M  ISO  4  14 101  15 101  72 100  80 100
M  END
>  <TORSDO>  (16) 
F 41

>  <SCORE>  (16) 
32.835

>  <name>  (16) 
15

>  <ligand_id>  (16) 
15

>  <original_smiles>  (16) 
[H]c1c([H])c([H])c2c(c1[H])C([H])([H])C([H])([H])C([H])([H])C2([H])N([H])C(=O)C1([H])N(C(=O)C([H])(N([H])C(=O)C([H])(N([H])C([H])([H])[H])C([H])([H])[H])C(C([H])([H])[H])(C([H])([H])[H])C([H])([H])[H])C([H])([H])c2c([H])c(OC([H])([H])C([H])([H])OC([H])([H])C([H])([H])[N+]([H])([H])C([H])([H])C([H])([H])OC([H])([H])C([H])([H])OC([H])([H])C([H])([H])C([H])([H])[N+]([H])([H])C([H])([H])C([H])([H])OC([H])([H])C([H])([H])C([H])([H])OC([H])([H])C([H])([H])C([H])([H])N([H])C(=O)N3C([H])([H])C([H])([H])C([H])([H])C([H])(n4nc(-c5c([H])c([H])c(Oc6c([H])c([H])c(F)c([H])c6F)c([H])c5[H])c(C(=O)N([H])[H])c4N([H])[H])C3([H])[H])c([H])c([H])c2C1([H])[H]

>  <smiles>  (16) 
[H]c1c([H])c([H])c2c(c1[H])C([H])([H])C([H])([H])C([H])([H])C2([H])N([H])C(=O)C1([H])N(C(=O)C([H])(N([H])C(=O)C([H])(N([H])C([H])([H])[H])C([H])([H])[H])C(C([H])([H])[H])(C([H])([H])[H])C([H])([H])[H])C([H])([H])c2c([H])c(OC([H])([H])C([H])([H])OC([H])([H])C([H])([H])[N+]([H])([H])C([H])([H])C([H])([H])OC([H])([H])C([H])([H])OC([H])([H])C([H])([H])C([H])([H])[N+]([H])([H])C([H])([H])C([H])([H])OC([H])([H])C([H])([H])C([H])([H])OC([H])([H])C([H])([H])C([H])([H])N([H])C(=O)N3C([H])([H])C([H])([H])C([H])([H])C([H])(n4nc(-c5c([H])c([H])c(Oc6c([H])c([H])c(F)c([H])c6F)c([H])c5[H])c(C(=O)N([H])[H])c4N([H])[H])C3([H])[H])c([H])c([H])c2C1([H])[H]

$$$$
16:0:0
     RDKit          3D

106113  0  0  1  0  0  0  0  0999 V2000
  -32.4430  -21.6670   17.2650 C   0  0  0  0  0  0  0  0  0  0  0  0
  -33.0580  -20.4910   17.0790 N   0  0  0  0  0  0  0  0  0  0  0  0
  -31.2170  -21.7630   17.3790 O   0  0  0  0  0  0  0  0  0  0  0  0
  -34.0650  -20.4790   16.9830 H   0  0  0  0  0  0  0  0  0  0  0  0
  -33.3080  -22.9370   17.3760 C   0  0  0  0  0  3  0  0  0  0  0  0
  -32.5880  -23.9570   18.1700 N   0  0  0  0  0  4  0  0  0  0  0  0
  -32.9530  -24.8620   17.9300 H   0  0  0  0  0  0  0  0  0  0  0  0
  -31.6220  -23.9150   17.8740 H   0  0  0  0  0  0  0  0  0  0  0  0
  -32.6230  -23.7890   19.6440 C   0  0  0  0  0  2  0  0  0  0  0  0
  -32.2190  -25.0880   20.3520 C   0  0  0  0  0  2  0  0  0  0  0  0
  -31.0020  -25.5550   19.7830 O   0  0  0  0  0  0  0  0  0  0  0  0
  -30.6540  -26.8510   20.2560 C   0  0  0  0  0  2  0  0  0  0  0  0
  -29.4040  -27.3540   19.5250 C   0  0  0  0  0  2  0  0  0  0  0  0
  -28.2460  -26.7090   20.0530 O   0  0  0  0  0  0  0  0  0  0  0  0
  -24.5120  -31.9020   23.2230 C   0  0  0  0  0  0  0  0  0  0  0  0
  -27.1000  -27.4650   20.1160 C   0  0  0  0  0  0  0  0  0  0  0  0
  -23.2730  -30.5050   21.5960 C   0  0  0  0  0  3  0  0  0  0  0  0
  -24.6990  -28.9460   20.1680 C   0  0  0  0  0  0  0  0  0  0  0  0
  -25.7930  -30.8500   21.3690 C   0  0  0  0  0  2  0  0  0  0  0  0
  -25.8610  -29.4770   20.7400 C   0  0  0  0  0  0  0  0  0  0  0  0
  -27.0610  -28.7390   20.7240 C   0  0  0  0  0  3  0  0  0  0  0  0
  -25.9160  -26.9270   19.5730 C   0  0  0  0  0  3  0  0  0  0  0  0
  -24.7170  -27.6640   19.5890 C   0  0  0  0  0  3  0  0  0  0  0  0
  -23.4610  -29.8120   20.2190 C   0  0  0  0  0  2  0  0  0  0  0  0
  -24.5440  -31.0990   22.1230 N   0  0  0  0  0  0  0  0  0  0  0  0
  -23.4410  -32.1870   23.7750 O   0  0  0  0  0  0  0  0  0  0  0  0
  -22.6240  -29.4950   22.5690 C   0  0  0  0  0  0  0  0  0  0  0  0
  -21.2970  -29.3260   22.4540 N   0  0  0  0  0  0  0  0  0  0  0  0
  -23.3080  -28.8670   23.3810 O   0  0  0  0  0  0  0  0  0  0  0  0
  -20.8050  -29.8830   21.7680 H   0  0  0  0  0  0  0  0  0  0  0  0
  -17.9170  -28.1660   22.9740 C   0  0  0  0  0  0  0  0  0  0  0  0
  -20.4770  -28.4000   23.2350 C   0  0  0  0  0  3  0  0  0  0  0  0
  -20.5640  -26.9640   22.6670 C   0  0  0  0  0  2  0  0  0  0  0  0
  -19.4560  -26.6450   21.6590 C   0  0  0  0  0  2  0  0  0  0  0  0
  -18.0780  -26.8090   22.3080 C   0  0  0  0  0  2  0  0  0  0  0  0
  -19.0440  -28.9190   23.3950 C   0  0  0  0  0  0  0  0  0  0  0  0
  -18.8400  -30.1900   23.9760 C   0  0  0  0  0  3  0  0  0  0  0  0
  -17.5410  -30.7050   24.1410 C   0  0  0  0  0  3  0  0  0  0  0  0
  -16.4290  -29.9480   23.7390 C   0  0  0  0  0  3  0  0  0  0  0  0
  -16.6160  -28.6800   23.1610 C   0  0  0  0  0  3  0  0  0  0  0  0
  -25.8140  -32.5190   23.8270 C   0  0  0  0  0  3  0  0  0  0  0  0
  -25.5250  -33.9200   24.1580 N   0  0  0  0  0  0  0  0  0  0  0  0
  -25.8730  -34.9680   23.3990 C   0  0  0  0  0  0  0  0  0  0  0  0
  -26.5430  -34.8550   22.3680 O   0  0  0  0  0  0  0  0  0  0  0  0
  -24.9330  -34.0820   24.9590 H   0  0  0  0  0  0  0  0  0  0  0  0
  -24.1800  -36.7890   23.0310 C   0  0  0  0  0  1  0  0  0  0  0  0
  -25.4040  -36.3610   23.8560 C   0  0  0  0  0  3  0  0  0  0  0  0
  -27.5440  -37.2050   24.7150 C   0  0  0  0  0  1  0  0  0  0  0  0
  -26.4560  -37.3970   23.7610 N   0  0  0  0  0  0  0  0  0  0  0  0
  -26.0640  -38.3230   23.9100 H   0  0  0  0  0  0  0  0  0  0  0  0
  -26.3440  -31.7390   25.0920 C   0  0  1  0  0  0  0  0  0  0  0  0
  -25.2660  -31.5100   26.1760 C   0  0  0  0  0  1  0  0  0  0  0  0
  -26.9070  -30.3570   24.6860 C   0  0  0  0  0  1  0  0  0  0  0  0
  -27.5120  -32.5220   25.7390 C   0  0  0  0  0  1  0  0  0  0  0  0
  -34.6930  -24.6990   16.1230 C   0  0  0  0  0  1  0  0  0  0  0  0
  -32.5250  -23.9410   15.0930 C   0  0  0  0  0  1  0  0  0  0  0  0
  -33.7120  -23.5180   15.9870 C   0  0  0  0  0  3  0  0  0  0  0  0
  -32.3710  -19.1990   17.0880 C   0  0  0  0  0  2  0  0  0  0  0  0
  -32.0770  -18.6580   15.6760 C   0  0  0  0  0  2  0  0  0  0  0  0
  -31.5220  -19.6640   14.8310 O   0  0  0  0  0  0  0  0  0  0  0  0
  -30.5110  -19.1860   13.9450 C   0  0  0  0  0  2  0  0  0  0  0  0
  -29.1310  -19.4350   14.5740 C   0  0  0  0  0  2  0  0  0  0  0  0
  -29.0270  -18.7500   15.8160 O   0  0  0  0  0  0  0  0  0  0  0  0
  -28.3070  -19.4820   16.8000 C   0  0  0  0  0  2  0  0  0  0  0  0
  -28.0890  -18.5780   18.0160 C   0  0  0  0  0  2  0  0  0  0  0  0
  -29.2860  -18.4020   18.7740 O   0  0  0  0  0  0  0  0  0  0  0  0
  -29.3010  -17.1330   19.4080 C   0  0  0  0  0  2  0  0  0  0  0  0
  -30.2100  -17.0790   20.6500 C   0  0  0  0  0  2  0  0  0  0  0  0
  -30.8680  -14.7220   20.7030 C   0  0  0  0  0  0  0  0  0  0  0  0
  -30.6390  -12.5370   19.6120 C   0  0  0  0  0  2  0  0  0  0  0  0
  -29.7570  -12.7130   18.3570 C   0  0  0  0  0  2  0  0  0  0  0  0
  -28.2640  -12.5700   18.7070 C   0  0  0  0  0  2  0  0  0  0  0  0
  -27.8540  -13.4330   19.9300 C   0  0  0  0  0  3  0  0  0  0  0  0
  -28.8520  -13.2560   21.0980 C   0  0  0  0  0  2  0  0  0  0  0  0
  -30.2110  -13.5390   20.5980 N   0  0  0  0  0  0  0  0  0  0  0  0
  -31.9780  -14.9400   20.2160 O   0  0  0  0  0  0  0  0  0  0  0  0
  -30.1320  -15.7230   21.1890 N   0  0  0  0  0  0  0  0  0  0  0  0
  -29.2510  -15.4560   21.6030 H   0  0  0  0  0  0  0  0  0  0  0  0
  -25.4160  -14.0240   20.5220 C   0  0  0  0  0  0  0  0  0  0  0  0
  -24.3400  -13.2450   20.8490 C   0  0  0  0  0  0  0  0  0  0  0  0
  -24.8150  -11.8970   20.8410 C   0  0  0  0  0  0  0  0  0  0  0  0
  -26.4800  -13.1520   20.3440 N   0  0  0  0  0  0  0  0  0  0  0  0
  -26.1160  -11.8670   20.5910 N   0  0  0  0  0  0  0  0  0  0  0  0
  -24.0940  -10.6290   21.0070 C   0  0  0  0  0  0  0  0  0  0  0  0
  -24.5020   -9.6620   21.9540 C   0  0  0  0  0  3  0  0  0  0  0  0
  -23.7810   -8.4580   22.1100 C   0  0  0  0  0  3  0  0  0  0  0  0
  -22.6370   -8.2140   21.3160 C   0  0  0  0  0  0  0  0  0  0  0  0
  -22.2450   -9.1670   20.3600 C   0  0  0  0  0  3  0  0  0  0  0  0
  -22.9670  -10.3620   20.2060 C   0  0  0  0  0  3  0  0  0  0  0  0
  -21.8900   -7.0610   21.3760 O   0  0  0  0  0  0  0  0  0  0  0  0
  -21.8110   -6.3150   22.5250 C   0  0  0  0  0  0  0  0  0  0  0  0
  -21.3430   -6.8630   23.7400 C   0  0  0  0  0  3  0  0  0  0  0  0
  -21.2130   -6.0430   24.8780 C   0  0  0  0  0  3  0  0  0  0  0  0
  -21.5420   -4.6770   24.8020 C   0  0  0  0  0  0  0  0  0  0  0  0
  -22.0030   -4.1280   23.5920 C   0  0  0  0  0  3  0  0  0  0  0  0
  -22.1350   -4.9440   22.4570 C   0  0  0  0  0  0  0  0  0  0  0  0
  -22.5610   -4.4080   21.2880 F   0  0  0  0  0  0  0  0  0  0  0  0
  -21.4090   -3.8830   25.8930 F   0  0  0  0  0  0  0  0  0  0  0  0
  -22.9270  -13.7080   21.0610 C   0  0  0  0  0  0  0  0  0  0  0  0
  -22.1760  -13.0110   21.9040 N   0  0  0  0  0  0  0  0  0  0  0  0
  -22.4990  -14.7260   20.5200 O   0  0  0  0  0  0  0  0  0  0  0  0
  -22.5400  -12.1890   22.3620 H   0  0  0  0  0  0  0  0  0  0  0  0
  -21.2260  -13.2980   22.0940 H   0  0  0  0  0  0  0  0  0  0  0  0
  -25.5760  -15.3950   20.3420 N   0  0  0  0  0  0  0  0  0  0  0  0
  -24.7910  -16.0350   20.4090 H   0  0  0  0  0  0  0  0  0  0  0  0
  -26.4300  -15.8390   20.0300 H   0  0  0  0  0  0  0  0  0  0  0  0
  1  5  1  0
  1  3  2  0
  2 58  1  0
  2  1  1  0
  4  2  1  0
  5 57  1  0
  5  6  1  0
  6  9  1  0
  7  6  1  0
  8  6  1  0
  9 10  1  0
 11 12  1  0
 11 10  1  0
 13 14  1  0
 13 12  1  0
 14 16  1  0
 15 26  2  0
 16 21  1  0
 17 25  1  0
 17 27  1  0
 18 24  1  0
 18 20  1  0
 19 25  1  0
 20 19  1  0
 21 20  2  0
 22 23  1  0
 22 16  2  0
 23 18  2  0
 24 17  1  0
 25 15  1  0
 27 29  2  0
 28 27  1  0
 30 28  1  0
 31 40  2  0
 31 36  1  0
 32 28  1  0
 32 36  1  0
 33 32  1  0
 34 35  1  0
 34 33  1  0
 35 31  1  0
 36 37  2  0
 37 38  1  0
 39 38  2  0
 40 39  1  0
 41 15  1  0
 41 42  1  0
 41 51  1  0
 42 45  1  0
 43 47  1  0
 43 42  1  0
 44 43  2  0
 47 46  1  0
 49 47  1  0
 49 50  1  0
 49 48  1  0
 51 54  1  1
 51 52  1  0
 53 51  1  0
 56 57  1  0
 57 55  1  0
 59 58  1  0
 60 59  1  0
 61 62  1  0
 61 60  1  0
 62 63  1  0
 63 64  1  0
 64 65  1  0
 65 66  1  0
 66 67  1  0
 67 68  1  0
 68 77  1  0
 69 77  1  0
 70 75  1  0
 71 72  1  0
 71 70  1  0
 73 72  1  0
 73 82  1  0
 73 74  1  0
 75 69  1  0
 75 74  1  0
 76 69  2  0
 77 78  1  0
 79 80  2  0
 80 99  1  0
 81 80  1  0
 81 84  1  0
 82 79  1  0
 82 83  1  0
 83 81  2  0
 84 85  1  0
 85 86  2  0
 87 90  1  0
 87 86  1  0
 88 87  2  0
 89 88  1  0
 89 84  2  0
 90 91  1  0
 91 92  1  0
 92 93  2  0
 94 93  1  0
 94 98  1  0
 95 94  2  0
 96 91  2  0
 96 95  1  0
 97 96  1  0
 99100  1  0
100103  1  0
100102  1  0
101 99  2  0
104105  1  0
104 79  1  0
106104  1  0
M  ISO  4  13 101  14 101  69 100  77 100
M  END
>  <TORSDO>  (17) 
F 35

>  <SCORE>  (17) 
-9.875

>  <name>  (17) 
16

>  <ligand_id>  (17) 
16

>  <original_smiles>  (17) 
[H]c1c([H])c([H])c2c(c1[H])C([H])([H])C([H])([H])C([H])([H])C2([H])N([H])C(=O)C1([H])N(C(=O)C([H])(N([H])C(=O)C([H])(N([H])C([H])([H])[H])C([H])([H])[H])C(C([H])([H])[H])(C([H])([H])[H])C([H])([H])[H])C([H])([H])c2c([H])c(OC([H])([H])C([H])([H])OC([H])([H])C([H])([H])[N+]([H])([H])C([H])(C(=O)N([H])C([H])([H])C([H])([H])OC([H])([H])C([H])([H])OC([H])([H])C([H])([H])OC([H])([H])C([H])([H])N([H])C(=O)N3C([H])([H])C([H])([H])C([H])([H])C([H])(n4nc(-c5c([H])c([H])c(Oc6c([H])c([H])c(F)c([H])c6F)c([H])c5[H])c(C(=O)N([H])[H])c4N([H])[H])C3([H])[H])C([H])(C([H])([H])[H])C([H])([H])[H])c([H])c([H])c2C1([H])[H]

>  <smiles>  (17) 
[H]c1c([H])c([H])c2c(c1[H])C([H])([H])C([H])([H])C([H])([H])C2([H])N([H])C(=O)C1([H])N(C(=O)C([H])(N([H])C(=O)C([H])(N([H])C([H])([H])[H])C([H])([H])[H])C(C([H])([H])[H])(C([H])([H])[H])C([H])([H])[H])C([H])([H])c2c([H])c(OC([H])([H])C([H])([H])OC([H])([H])C([H])([H])[N+]([H])([H])C([H])(C(=O)N([H])C([H])([H])C([H])([H])OC([H])([H])C([H])([H])OC([H])([H])C([H])([H])OC([H])([H])C([H])([H])N([H])C(=O)N3C([H])([H])C([H])([H])C([H])([H])C([H])(n4nc(-c5c([H])c([H])c(Oc6c([H])c([H])c(F)c([H])c6F)c([H])c5[H])c(C(=O)N([H])[H])c4N([H])[H])C3([H])[H])C([H])(C([H])([H])[H])C([H])([H])[H])c([H])c([H])c2C1([H])[H]

$$$$
17:0:0
     RDKit          3D

101108  0  0  1  0  0  0  0  0999 V2000
  -25.7700  -24.3640   21.9060 C   0  0  0  0  0  0  0  0  0  0  0  0
  -26.3350  -25.0820   22.8830 N   0  0  0  0  0  0  0  0  0  0  0  0
  -25.4360  -23.1770   22.0030 O   0  0  0  0  0  0  0  0  0  0  0  0
  -26.5160  -26.0480   22.6340 H   0  0  0  0  0  0  0  0  0  0  0  0
  -25.6890  -25.1240   20.5440 C   0  0  0  0  0  0  0  0  0  0  0  0
  -25.3320  -24.3650   19.4960 N   0  0  0  0  0  0  0  0  0  0  0  0
  -26.0570  -26.2980   20.4740 O   0  0  0  0  0  0  0  0  0  0  0  0
  -25.0480  -23.4250   19.7440 H   0  0  0  0  0  0  0  0  0  0  0  0
  -25.7270  -24.5960   18.0990 C   0  0  0  0  0  2  0  0  0  0  0  0
  -26.4710  -25.9190   17.7960 C   0  0  0  0  0  2  0  0  0  0  0  0
  -25.6380  -26.9420   17.2800 O   0  0  0  0  0  0  0  0  0  0  0  0
  -25.0260  -30.1540   23.6410 C   0  0  0  0  0  0  0  0  0  0  0  0
  -24.8900  -27.6780   18.1610 C   0  0  0  0  0  0  0  0  0  0  0  0
  -23.0700  -30.3260   22.1360 C   0  0  0  0  0  3  0  0  0  0  0  0
  -23.4320  -29.4880   19.7550 C   0  0  0  0  0  0  0  0  0  0  0  0
  -25.4220  -29.9890   21.1870 C   0  0  0  0  0  2  0  0  0  0  0  0
  -24.7830  -29.2450   20.0340 C   0  0  0  0  0  0  0  0  0  0  0  0
  -25.5210  -28.3460   19.2340 C   0  0  0  0  0  3  0  0  0  0  0  0
  -23.5270  -27.9210   17.8960 C   0  0  0  0  0  3  0  0  0  0  0  0
  -22.7960  -28.8230   18.6900 C   0  0  0  0  0  3  0  0  0  0  0  0
  -22.7200  -30.4960   20.6350 C   0  0  0  0  0  2  0  0  0  0  0  0
  -24.5390  -30.1310   22.3690 N   0  0  0  0  0  0  0  0  0  0  0  0
  -24.2850  -30.3800   24.6070 O   0  0  0  0  0  0  0  0  0  0  0  0
  -22.2030  -29.1820   22.7090 C   0  0  0  0  0  0  0  0  0  0  0  0
  -20.8750  -29.3870   22.7070 N   0  0  0  0  0  0  0  0  0  0  0  0
  -22.7190  -28.1350   23.1060 O   0  0  0  0  0  0  0  0  0  0  0  0
  -20.5330  -30.2750   22.3670 H   0  0  0  0  0  0  0  0  0  0  0  0
  -17.3230  -28.7550   22.7980 C   0  0  0  0  0  0  0  0  0  0  0  0
  -19.8600  -28.4360   23.1590 C   0  0  0  0  0  3  0  0  0  0  0  0
  -19.7450  -27.2380   22.1890 C   0  0  0  0  0  2  0  0  0  0  0  0
  -18.6710  -27.4350   21.1140 C   0  0  0  0  0  2  0  0  0  0  0  0
  -17.2990  -27.6490   21.7570 C   0  0  0  0  0  2  0  0  0  0  0  0
  -18.5290  -29.1350   23.4430 C   0  0  0  0  0  0  0  0  0  0  0  0
  -18.5040  -30.1970   24.3740 C   0  0  0  0  0  3  0  0  0  0  0  0
  -17.3020  -30.8680   24.6680 C   0  0  0  0  0  3  0  0  0  0  0  0
  -16.1070  -30.4770   24.0390 C   0  0  0  0  0  3  0  0  0  0  0  0
  -16.1180  -29.4200   23.1110 C   0  0  0  0  0  3  0  0  0  0  0  0
  -26.5400  -29.9210   23.9400 C   0  0  0  0  0  3  0  0  0  0  0  0
  -26.8690  -28.4410   24.3790 C   0  0  1  0  0  0  0  0  0  0  0  0
  -25.9750  -27.9230   25.5280 C   0  0  0  0  0  1  0  0  0  0  0  0
  -26.7120  -27.4700   23.1840 C   0  0  0  0  0  1  0  0  0  0  0  0
  -28.3430  -28.3480   24.8370 C   0  0  0  0  0  1  0  0  0  0  0  0
  -26.9330  -30.8740   24.9870 N   0  0  0  0  0  0  0  0  0  0  0  0
  -27.6940  -31.9560   24.7790 C   0  0  0  0  0  0  0  0  0  0  0  0
  -28.2060  -32.2150   23.6860 O   0  0  0  0  0  0  0  0  0  0  0  0
  -26.4990  -30.7590   25.8910 H   0  0  0  0  0  0  0  0  0  0  0  0
  -27.0370  -34.1470   25.8290 C   0  0  0  0  0  1  0  0  0  0  0  0
  -27.9230  -32.8990   25.9750 C   0  0  0  0  0  3  0  0  0  0  0  0
  -30.2080  -32.2130   26.5490 C   0  0  0  0  0  1  0  0  0  0  0  0
  -29.3320  -33.3090   26.1390 N   0  0  0  0  0  0  0  0  0  0  0  0
  -29.4140  -34.0520   26.8270 H   0  0  0  0  0  0  0  0  0  0  0  0
  -26.7000  -24.6480   24.2300 C   0  0  0  0  0  2  0  0  0  0  0  0
  -28.1480  -24.1280   24.3890 C   0  0  0  0  0  2  0  0  0  0  0  0
  -29.2180  -24.8110   23.5020 C   0  0  0  0  0  2  0  0  0  0  0  0
  -29.5280  -24.1240   22.2900 O   0  0  0  0  0  0  0  0  0  0  0  0
  -28.7960  -24.5490   21.1460 C   0  0  0  0  0  2  0  0  0  0  0  0
  -27.6760  -23.5340   20.8610 C   0  0  0  0  0  2  0  0  0  0  0  0
  -28.1810  -22.4620   20.0900 O   0  0  0  0  0  0  0  0  0  0  0  0
  -27.1460  -21.5790   19.6790 C   0  0  0  0  0  2  0  0  0  0  0  0
  -27.7550  -20.3680   18.9670 C   0  0  0  0  0  2  0  0  0  0  0  0
  -28.1000  -19.4030   19.9510 O   0  0  0  0  0  0  0  0  0  0  0  0
  -29.4060  -19.5790   20.4930 C   0  0  0  0  0  2  0  0  0  0  0  0
  -29.5700  -18.7110   21.7560 C   0  0  0  0  0  2  0  0  0  0  0  0
  -30.1470  -16.4910   20.7930 C   0  0  0  0  0  0  0  0  0  0  0  0
  -30.4210  -14.2590   19.7930 C   0  0  0  0  0  2  0  0  0  0  0  0
  -29.6600  -14.1500   18.4610 C   0  0  0  0  0  2  0  0  0  0  0  0
  -28.1970  -13.7310   18.7020 C   0  0  0  0  0  2  0  0  0  0  0  0
  -27.5020  -14.5970   19.7850 C   0  0  0  0  0  3  0  0  0  0  0  0
  -28.3820  -14.7030   21.0500 C   0  0  0  0  0  2  0  0  0  0  0  0
  -29.7090  -15.2160   20.6510 N   0  0  0  0  0  0  0  0  0  0  0  0
  -31.2030  -16.9090   20.3100 O   0  0  0  0  0  0  0  0  0  0  0  0
  -29.3510  -17.2880   21.5090 N   0  0  0  0  0  0  0  0  0  0  0  0
  -28.4940  -16.8840   21.8590 H   0  0  0  0  0  0  0  0  0  0  0  0
  -24.9440  -14.7350   20.0610 C   0  0  0  0  0  0  0  0  0  0  0  0
  -24.0060  -13.7870   20.3680 C   0  0  0  0  0  0  0  0  0  0  0  0
  -24.7260  -12.5710   20.5720 C   0  0  0  0  0  0  0  0  0  0  0  0
  -26.1690  -14.0850   20.0960 N   0  0  0  0  0  0  0  0  0  0  0  0
  -26.0310  -12.7830   20.4570 N   0  0  0  0  0  0  0  0  0  0  0  0
  -24.2480  -11.2030   20.8120 C   0  0  0  0  0  0  0  0  0  0  0  0
  -24.6080  -10.4870   21.9740 C   0  0  0  0  0  3  0  0  0  0  0  0
  -24.1200   -9.1810   22.1920 C   0  0  0  0  0  3  0  0  0  0  0  0
  -23.2580   -8.5790   21.2440 C   0  0  0  0  0  0  0  0  0  0  0  0
  -22.9210   -9.2870   20.0770 C   0  0  0  0  0  3  0  0  0  0  0  0
  -23.4130  -10.5850   19.8600 C   0  0  0  0  0  3  0  0  0  0  0  0
  -22.7560   -7.3050   21.3600 O   0  0  0  0  0  0  0  0  0  0  0  0
  -22.3500   -6.7980   22.5680 C   0  0  0  0  0  0  0  0  0  0  0  0
  -21.3600   -7.4350   23.3480 C   0  0  0  0  0  3  0  0  0  0  0  0
  -20.9210   -6.8420   24.5500 C   0  0  0  0  0  3  0  0  0  0  0  0
  -21.4640   -5.6130   24.9680 C   0  0  0  0  0  0  0  0  0  0  0  0
  -22.4450   -4.9740   24.1880 C   0  0  0  0  0  3  0  0  0  0  0  0
  -22.8840   -5.5650   22.9910 C   0  0  0  0  0  0  0  0  0  0  0  0
  -23.8150   -4.9350   22.2340 F   0  0  0  0  0  0  0  0  0  0  0  0
  -21.0370   -5.0380   26.1170 F   0  0  0  0  0  0  0  0  0  0  0  0
  -22.5150  -13.9710   20.3820 C   0  0  0  0  0  0  0  0  0  0  0  0
  -21.8130  -13.2150   21.2180 N   0  0  0  0  0  0  0  0  0  0  0  0
  -21.9700  -14.8210   19.6830 O   0  0  0  0  0  0  0  0  0  0  0  0
  -22.2620  -12.5300   21.8070 H   0  0  0  0  0  0  0  0  0  0  0  0
  -20.8090  -13.3220   21.2700 H   0  0  0  0  0  0  0  0  0  0  0  0
  -24.8620  -16.0870   19.7380 N   0  0  0  0  0  0  0  0  0  0  0  0
  -23.9750  -16.5750   19.6550 H   0  0  0  0  0  0  0  0  0  0  0  0
  -25.6600  -16.6650   19.5050 H   0  0  0  0  0  0  0  0  0  0  0  0
  1  3  2  0
  1  2  1  0
  2 52  1  0
  4  2  1  0
  5  1  1  0
  6  8  1  0
  6  5  1  0
  7  5  2  0
  9  6  1  0
 10  9  1  0
 11 10  1  0
 11 13  1  0
 12 23  2  0
 13 18  1  0
 14 22  1  0
 14 24  1  0
 15 17  1  0
 15 21  1  0
 16 22  1  0
 17 16  1  0
 18 17  2  0
 19 13  2  0
 19 20  1  0
 20 15  2  0
 21 14  1  0
 22 12  1  0
 24 26  2  0
 25 24  1  0
 27 25  1  0
 28 37  2  0
 28 33  1  0
 29 25  1  0
 29 33  1  0
 30 29  1  0
 31 32  1  0
 31 30  1  0
 32 28  1  0
 33 34  2  0
 34 35  1  0
 36 35  2  0
 37 36  1  0
 38 12  1  0
 38 39  1  0
 38 43  1  0
 39 42  1  1
 39 40  1  0
 41 39  1  0
 43 46  1  0
 44 43  1  0
 44 48  1  0
 45 44  2  0
 48 47  1  0
 48 50  1  0
 50 49  1  0
 50 51  1  0
 52 53  1  0
 54 53  1  0
 55 54  1  0
 56 55  1  0
 57 56  1  0
 58 57  1  0
 59 58  1  0
 60 59  1  0
 60 61  1  0
 61 62  1  0
 62 63  1  0
 64 72  1  0
 65 70  1  0
 66 67  1  0
 66 65  1  0
 68 67  1  0
 68 77  1  0
 68 69  1  0
 70 64  1  0
 70 69  1  0
 71 64  2  0
 72 63  1  0
 72 73  1  0
 74 77  1  0
 74 75  2  0
 75 94  1  0
 75 76  1  0
 76 79  1  0
 77 78  1  0
 78 76  2  0
 79 80  1  0
 80 81  2  0
 82 85  1  0
 82 81  1  0
 83 82  2  0
 84 83  1  0
 84 79  2  0
 85 86  1  0
 86 91  2  0
 86 87  1  0
 87 88  2  0
 88 89  1  0
 89 93  1  0
 90 89  2  0
 91 90  1  0
 92 91  1  0
 94 95  1  0
 95 98  1  0
 95 97  1  0
 96 94  2  0
 99 74  1  0
100 99  1  0
101 99  1  0
M  ISO  4  10 101  11 101  64 100  72 100
M  END
>  <TORSDO>  (18) 
F 31

>  <SCORE>  (18) 
-2.000

>  <name>  (18) 
17

>  <ligand_id>  (18) 
17

>  <original_smiles>  (18) 
[H]c1c([H])c([H])c2c(c1[H])C([H])([H])C([H])([H])C([H])([H])C2([H])N([H])C(=O)C1([H])N(C(=O)C([H])(N([H])C(=O)C([H])(N([H])C([H])([H])[H])C([H])([H])[H])C(C([H])([H])[H])(C([H])([H])[H])C([H])([H])[H])C([H])([H])c2c([H])c(OC([H])([H])C([H])([H])N([H])C(=O)C(=O)N([H])C([H])([H])C([H])([H])C([H])([H])OC([H])([H])C([H])([H])OC([H])([H])C([H])([H])OC([H])([H])C([H])([H])N([H])C(=O)N3C([H])([H])C([H])([H])C([H])([H])C([H])(n4nc(-c5c([H])c([H])c(Oc6c([H])c([H])c(F)c([H])c6F)c([H])c5[H])c(C(=O)N([H])[H])c4N([H])[H])C3([H])[H])c([H])c([H])c2C1([H])[H]

>  <smiles>  (18) 
[H]c1c([H])c([H])c2c(c1[H])C([H])([H])C([H])([H])C([H])([H])C2([H])N([H])C(=O)C1([H])N(C(=O)C([H])(N([H])C(=O)C([H])(N([H])C([H])([H])[H])C([H])([H])[H])C(C([H])([H])[H])(C([H])([H])[H])C([H])([H])[H])C([H])([H])c2c([H])c(OC([H])([H])C([H])([H])N([H])C(=O)C(=O)N([H])C([H])([H])C([H])([H])C([H])([H])OC([H])([H])C([H])([H])OC([H])([H])C([H])([H])OC([H])([H])C([H])([H])N([H])C(=O)N3C([H])([H])C([H])([H])C([H])([H])C([H])(n4nc(-c5c([H])c([H])c(Oc6c([H])c([H])c(F)c([H])c6F)c([H])c5[H])c(C(=O)N([H])[H])c4N([H])[H])C3([H])[H])c([H])c([H])c2C1([H])[H]

$$$$
18:0:0
     RDKit          3D

100108  0  0  1  0  0  0  0  0999 V2000
  -31.5180  -17.2730   21.7890 C   0  0  0  0  0  0  0  0  0  0  0  0
  -32.1890  -18.3090   21.2780 N   0  0  0  0  0  0  0  0  0  0  0  0
  -31.9740  -16.6120   22.7260 O   0  0  0  0  0  0  0  0  0  0  0  0
  -31.6990  -18.8070   20.5410 H   0  0  0  0  0  0  0  0  0  0  0  0
  -29.3850  -17.9890   20.6780 C   0  0  0  0  0  3  0  0  0  0  0  0
  -30.2150  -17.0070   21.1480 C   0  0  0  0  0  0  0  0  0  0  0  0
  -30.5550  -14.6680   20.5560 C   0  0  0  0  0  0  0  0  0  0  0  0
  -30.2430  -12.6020   19.2650 C   0  0  0  0  0  2  0  0  0  0  0  0
  -29.2840  -12.9040   18.0950 C   0  0  0  0  0  2  0  0  0  0  0  0
  -27.8160  -12.7300   18.5320 C   0  0  0  0  0  2  0  0  0  0  0  0
  -27.4940  -13.4610   19.8610 C   0  0  0  0  0  3  0  0  0  0  0  0
  -28.5650  -13.1680   20.9340 C   0  0  0  0  0  2  0  0  0  0  0  0
  -29.8820  -13.5040   20.3670 N   0  0  0  0  0  0  0  0  0  0  0  0
  -31.6850  -14.8740   20.1030 O   0  0  0  0  0  0  0  0  0  0  0  0
  -29.8190  -15.6600   21.0850 N   0  0  0  0  0  4  0  0  0  0  0  0
  -28.8490  -15.4570   21.2680 H   0  0  0  0  0  0  0  0  0  0  0  0
  -25.0740  -14.0080   20.5580 C   0  0  0  0  0  0  0  0  0  0  0  0
  -24.0230  -13.2070   20.9170 C   0  0  0  0  0  0  0  0  0  0  0  0
  -24.5220  -11.8690   20.8880 C   0  0  0  0  0  0  0  0  0  0  0  0
  -26.1450  -13.1570   20.3280 N   0  0  0  0  0  0  0  0  0  0  0  0
  -25.8140  -11.8650   20.5860 N   0  0  0  0  0  0  0  0  0  0  0  0
  -23.8310  -10.5880   21.0790 C   0  0  0  0  0  0  0  0  0  0  0  0
  -24.2970   -9.6330   22.0100 C   0  0  0  0  0  3  0  0  0  0  0  0
  -23.6110   -8.4130   22.1860 C   0  0  0  0  0  3  0  0  0  0  0  0
  -22.4450   -8.1400   21.4330 C   0  0  0  0  0  0  0  0  0  0  0  0
  -21.9980   -9.0850   20.4920 C   0  0  0  0  0  3  0  0  0  0  0  0
  -22.6850  -10.2960   20.3130 C   0  0  0  0  0  3  0  0  0  0  0  0
  -21.7250   -6.9730   21.5220 O   0  0  0  0  0  0  0  0  0  0  0  0
  -21.7130   -6.2210   22.6680 C   0  0  0  0  0  0  0  0  0  0  0  0
  -21.3070   -6.7600   23.9070 C   0  0  0  0  0  3  0  0  0  0  0  0
  -21.2410   -5.9330   25.0460 C   0  0  0  0  0  3  0  0  0  0  0  0
  -21.5700   -4.5680   24.9460 C   0  0  0  0  0  0  0  0  0  0  0  0
  -21.9680   -4.0280   23.7120 C   0  0  0  0  0  3  0  0  0  0  0  0
  -22.0360   -4.8520   22.5730 C   0  0  0  0  0  0  0  0  0  0  0  0
  -22.4030   -4.3220   21.3810 F   0  0  0  0  0  0  0  0  0  0  0  0
  -21.4970   -3.7710   26.0390 F   0  0  0  0  0  0  0  0  0  0  0  0
  -22.6130  -13.6490   21.1790 C   0  0  0  0  0  0  0  0  0  0  0  0
  -21.9020  -12.9460   22.0560 N   0  0  0  0  0  0  0  0  0  0  0  0
  -22.1420  -14.6500   20.6380 O   0  0  0  0  0  0  0  0  0  0  0  0
  -22.2950  -12.1400   22.5200 H   0  0  0  0  0  0  0  0  0  0  0  0
  -20.9560  -13.2230   22.2740 H   0  0  0  0  0  0  0  0  0  0  0  0
  -25.1990  -15.3820   20.3960 N   0  0  0  0  0  0  0  0  0  0  0  0
  -24.4080  -16.0040   20.5100 H   0  0  0  0  0  0  0  0  0  0  0  0
  -26.0310  -15.8530   20.0660 H   0  0  0  0  0  0  0  0  0  0  0  0
  -26.9970  -18.5910   20.2880 C   0  0  0  0  0  3  0  0  0  0  0  0
  -26.6430  -16.9670   18.4920 C   0  0  0  0  0  3  0  0  0  0  0  0
  -28.0840  -17.8030   20.0130 C   0  0  0  0  0  0  0  0  0  0  0  0
  -27.8840  -16.8800   18.9840 N   0  0  0  0  0  0  0  0  0  0  0  0
  -25.6520  -18.2090   19.2490 S   0  0  0  0  0  0  0  0  0  0  0  0
  -29.6680  -19.3000   20.7240 O   0  0  0  0  0  0  0  0  0  0  0  0
  -28.9620  -19.7400   20.2660 H   0  0  0  0  0  0  0  0  0  0  0  0
  -33.3090  -19.0210   21.8820 C   0  0  0  0  0  2  0  0  0  0  0  0
  -32.8340  -20.4150   22.3310 C   0  0  0  0  0  2  0  0  0  0  0  0
  -32.2520  -21.1020   21.2260 O   0  0  0  0  0  0  0  0  0  0  0  0
  -31.4760  -22.2320   21.6140 C   0  0  0  0  0  2  0  0  0  0  0  0
  -31.0160  -22.9950   20.3580 C   0  0  0  0  0  2  0  0  0  0  0  0
  -30.0590  -24.0140   20.6570 O   0  0  0  0  0  0  0  0  0  0  0  0
  -29.8140  -24.8650   19.5330 C   0  0  0  0  0  2  0  0  0  0  0  0
  -28.4240  -25.5250   19.5760 C   0  0  0  0  0  2  0  0  0  0  0  0
  -28.4170  -26.8080   20.2110 O   0  0  0  0  0  0  0  0  0  0  0  0
  -24.5930  -31.9900   23.2590 C   0  0  0  0  0  0  0  0  0  0  0  0
  -27.2270  -27.5150   20.2040 C   0  0  0  0  0  0  0  0  0  0  0  0
  -23.3830  -30.5780   21.6300 C   0  0  0  0  0  3  0  0  0  0  0  0
  -24.8300  -29.0280   20.2190 C   0  0  0  0  0  0  0  0  0  0  0  0
  -25.9120  -30.9250   21.4320 C   0  0  0  0  0  2  0  0  0  0  0  0
  -25.9900  -29.5490   20.8030 C   0  0  0  0  0  0  0  0  0  0  0  0
  -27.1870  -28.7970   20.7980 C   0  0  0  0  0  3  0  0  0  0  0  0
  -26.0370  -27.0060   19.6250 C   0  0  0  0  0  3  0  0  0  0  0  0
  -24.8470  -27.7530   19.6320 C   0  0  0  0  0  3  0  0  0  0  0  0
  -23.5900  -29.8910   20.2560 C   0  0  0  0  0  2  0  0  0  0  0  0
  -24.6470  -31.1800   22.1640 N   0  0  0  0  0  0  0  0  0  0  0  0
  -23.5140  -32.2700   23.7950 O   0  0  0  0  0  0  0  0  0  0  0  0
  -22.7310  -29.5630   22.5960 C   0  0  0  0  0  0  0  0  0  0  0  0
  -21.4070  -29.3870   22.4730 N   0  0  0  0  0  0  0  0  0  0  0  0
  -23.4140  -28.9390   23.4140 O   0  0  0  0  0  0  0  0  0  0  0  0
  -20.9170  -29.9430   21.7840 H   0  0  0  0  0  0  0  0  0  0  0  0
  -18.0260  -28.2130   22.9810 C   0  0  0  0  0  0  0  0  0  0  0  0
  -20.5850  -28.4600   23.2500 C   0  0  0  0  0  3  0  0  0  0  0  0
  -20.6790  -27.0230   22.6840 C   0  0  0  0  0  2  0  0  0  0  0  0
  -19.5750  -26.6990   21.6730 C   0  0  0  0  0  2  0  0  0  0  0  0
  -18.1940  -26.8570   22.3160 C   0  0  0  0  0  2  0  0  0  0  0  0
  -19.1480  -28.9730   23.4060 C   0  0  0  0  0  0  0  0  0  0  0  0
  -18.9390  -30.2420   23.9850 C   0  0  0  0  0  3  0  0  0  0  0  0
  -17.6370  -30.7540   24.1460 C   0  0  0  0  0  3  0  0  0  0  0  0
  -16.5280  -29.9900   23.7390 C   0  0  0  0  0  3  0  0  0  0  0  0
  -16.7230  -28.7230   23.1630 C   0  0  0  0  0  3  0  0  0  0  0  0
  -25.8810  -32.6230   23.8720 C   0  0  0  0  0  3  0  0  0  0  0  0
  -25.5760  -34.0230   24.1920 N   0  0  0  0  0  0  0  0  0  0  0  0
  -25.9130  -35.0690   23.4270 C   0  0  0  0  0  0  0  0  0  0  0  0
  -26.5860  -34.9580   22.3980 O   0  0  0  0  0  0  0  0  0  0  0  0
  -24.9800  -34.1840   24.9920 H   0  0  0  0  0  0  0  0  0  0  0  0
  -24.1890  -36.8620   23.0530 C   0  0  0  0  0  1  0  0  0  0  0  0
  -25.4260  -36.4610   23.8730 C   0  0  0  0  0  3  0  0  0  0  0  0
  -27.5600  -37.3430   24.7060 C   0  0  0  0  0  1  0  0  0  0  0  0
  -26.4620  -37.5110   23.7580 N   0  0  0  0  0  0  0  0  0  0  0  0
  -26.0580  -38.4330   23.8970 H   0  0  0  0  0  0  0  0  0  0  0  0
  -26.4030  -31.8560   25.1500 C   0  0  1  0  0  0  0  0  0  0  0  0
  -25.3140  -31.6250   26.2230 C   0  0  0  0  0  1  0  0  0  0  0  0
  -26.9830  -30.4770   24.7600 C   0  0  0  0  0  1  0  0  0  0  0  0
  -27.5570  -32.6540   25.8040 C   0  0  0  0  0  1  0  0  0  0  0  0
  1  3  2  0
  2  1  1  0
  2 52  1  0
  4  2  1  0
  5 50  1  0
  5  6  1  0
  6  1  1  0
  7 15  1  0
  8 13  1  0
  9 10  1  0
  9  8  1  0
 11 10  1  0
 11 20  1  0
 11 12  1  0
 13  7  1  0
 13 12  1  0
 14  7  2  0
 15  6  2  0
 15 16  1  0
 17 18  2  0
 18 37  1  0
 19 18  1  0
 19 22  1  0
 20 17  1  0
 20 21  1  0
 21 19  2  0
 22 23  1  0
 23 24  2  0
 25 28  1  0
 25 24  1  0
 26 25  2  0
 27 26  1  0
 27 22  2  0
 28 29  1  0
 29 30  1  0
 30 31  2  0
 32 31  1  0
 32 36  1  0
 33 32  2  0
 34 29  2  0
 34 33  1  0
 35 34  1  0
 37 38  1  0
 38 41  1  0
 38 40  1  0
 39 37  2  0
 42 43  1  0
 42 17  1  0
 44 42  1  0
 46 48  2  0
 46 49  1  0
 47 45  2  0
 47  5  1  0
 48 47  1  0
 49 45  1  0
 51 50  1  0
 52 53  1  0
 54 55  1  0
 54 53  1  0
 56 57  1  0
 56 55  1  0
 58 59  1  0
 58 57  1  0
 59 60  1  0
 61 72  2  0
 62 60  1  0
 62 67  1  0
 63 71  1  0
 63 73  1  0
 64 70  1  0
 64 66  1  0
 65 71  1  0
 66 65  1  0
 67 66  2  0
 68 69  1  0
 68 62  2  0
 69 64  2  0
 70 63  1  0
 71 61  1  0
 73 75  2  0
 74 73  1  0
 76 74  1  0
 77 86  2  0
 77 82  1  0
 78 74  1  0
 78 82  1  0
 79 78  1  0
 80 81  1  0
 80 79  1  0
 81 77  1  0
 82 83  2  0
 83 84  1  0
 85 84  2  0
 86 85  1  0
 87 61  1  0
 87 88  1  0
 87 97  1  0
 88 91  1  0
 89 93  1  0
 89 88  1  0
 90 89  2  0
 93 92  1  0
 95 93  1  0
 95 96  1  0
 95 94  1  0
 97100  1  1
 97 98  1  0
 99 97  1  0
M  ISO  4   7 100  15 100  59 101  60 101
M  END
>  <TORSDO>  (19) 
F 27

>  <SCORE>  (19) 
-8.929

>  <name>  (19) 
18

>  <ligand_id>  (19) 
18

>  <original_smiles>  (19) 
[H]OC(=C(C(=O)N([H])C([H])([H])C([H])([H])OC([H])([H])C([H])([H])OC([H])([H])C([H])([H])Oc1c([H])c([H])c2c(c1[H])C([H])([H])N(C(=O)C([H])(N([H])C(=O)C([H])(N([H])C([H])([H])[H])C([H])([H])[H])C(C([H])([H])[H])(C([H])([H])[H])C([H])([H])[H])C([H])(C(=O)N([H])C1([H])c3c([H])c([H])c([H])c([H])c3C([H])([H])C([H])([H])C1([H])[H])C2([H])[H])N([H])C(=O)N1C([H])([H])C([H])([H])C([H])([H])C([H])(n2nc(-c3c([H])c([H])c(Oc4c([H])c([H])c(F)c([H])c4F)c([H])c3[H])c(C(=O)N([H])[H])c2N([H])[H])C1([H])[H])c1nc([H])sc1[H]

>  <smiles>  (19) 
[H]OC(=C(C(=O)N([H])C([H])([H])C([H])([H])OC([H])([H])C([H])([H])OC([H])([H])C([H])([H])Oc1c([H])c([H])c2c(c1[H])C([H])([H])N(C(=O)C([H])(N([H])C(=O)C([H])(N([H])C([H])([H])[H])C([H])([H])[H])C(C([H])([H])[H])(C([H])([H])[H])C([H])([H])[H])C([H])(C(=O)N([H])C1([H])c3c([H])c([H])c([H])c([H])c3C([H])([H])C([H])([H])C1([H])[H])C2([H])[H])N([H])C(=O)N1C([H])([H])C([H])([H])C([H])([H])C([H])(n2nc(-c3c([H])c([H])c(Oc4c([H])c([H])c(F)c([H])c4F)c([H])c3[H])c(C(=O)N([H])[H])c2N([H])[H])C1([H])[H])c1nc([H])sc1[H]

$$$$
19:0:0
     RDKit          3D

 99106  0  0  1  0  0  0  0  0999 V2000
  -32.3870  -18.2210   16.7330 C   0  0  0  0  0  1  0  0  0  0  0  0
  -32.2120  -19.0610   18.0130 C   0  0  0  0  0  3  0  0  0  0  0  0
  -31.0390  -17.3610   19.4620 C   0  0  0  0  0  0  0  0  0  0  0  0
  -31.9910  -18.2690   19.2230 N   0  0  0  0  0  0  0  0  0  0  0  0
  -30.3000  -16.9050   18.5870 O   0  0  0  0  0  0  0  0  0  0  0  0
  -32.5450  -18.5490   20.0220 H   0  0  0  0  0  0  0  0  0  0  0  0
  -30.8690  -16.9030   20.9260 C   0  0  0  0  0  3  0  0  0  0  0  0
  -31.3240  -14.4560   20.5490 C   0  0  0  0  0  0  0  0  0  0  0  0
  -30.9810  -12.2620   19.4850 C   0  0  0  0  0  2  0  0  0  0  0  0
  -30.0990  -12.4610   18.2360 C   0  0  0  0  0  2  0  0  0  0  0  0
  -28.5990  -12.4420   18.5980 C   0  0  0  0  0  2  0  0  0  0  0  0
  -28.2550  -13.3570   19.8060 C   0  0  0  0  0  3  0  0  0  0  0  0
  -29.2480  -13.0920   20.9650 C   0  0  0  0  0  2  0  0  0  0  0  0
  -30.6180  -13.3010   20.4510 N   0  0  0  0  0  0  0  0  0  0  0  0
  -32.4690  -14.6120   20.1130 O   0  0  0  0  0  0  0  0  0  0  0  0
  -30.5980  -15.4700   21.0130 N   0  0  0  0  0  0  0  0  0  0  0  0
  -29.6690  -15.2150   21.3050 H   0  0  0  0  0  0  0  0  0  0  0  0
  -25.8720  -14.1330   20.4350 C   0  0  0  0  0  0  0  0  0  0  0  0
  -24.7400  -13.4330   20.7600 C   0  0  0  0  0  0  0  0  0  0  0  0
  -25.1130  -12.0540   20.7380 C   0  0  0  0  0  0  0  0  0  0  0  0
  -26.8670  -13.1860   20.2360 N   0  0  0  0  0  0  0  0  0  0  0  0
  -26.4070  -11.9310   20.4790 N   0  0  0  0  0  0  0  0  0  0  0  0
  -24.2990  -10.8420   20.9010 C   0  0  0  0  0  0  0  0  0  0  0  0
  -24.6390   -9.8440   21.8370 C   0  0  0  0  0  3  0  0  0  0  0  0
  -23.8290   -8.6980   21.9880 C   0  0  0  0  0  3  0  0  0  0  0  0
  -22.6640   -8.5450   21.2000 C   0  0  0  0  0  0  0  0  0  0  0  0
  -22.3400   -9.5320   20.2500 C   0  0  0  0  0  3  0  0  0  0  0  0
  -23.1530  -10.6710   20.0990 C   0  0  0  0  0  3  0  0  0  0  0  0
  -21.8310   -7.4540   21.2600 O   0  0  0  0  0  0  0  0  0  0  0  0
  -21.7030   -6.7070   22.4030 C   0  0  0  0  0  0  0  0  0  0  0  0
  -21.2750   -7.2770   23.6210 C   0  0  0  0  0  3  0  0  0  0  0  0
  -21.0900   -6.4600   24.7550 C   0  0  0  0  0  3  0  0  0  0  0  0
  -21.3210   -5.0730   24.6700 C   0  0  0  0  0  0  0  0  0  0  0  0
  -21.7430   -4.5030   23.4560 C   0  0  0  0  0  3  0  0  0  0  0  0
  -21.9290   -5.3180   22.3250 C   0  0  0  0  0  0  0  0  0  0  0  0
  -22.3110   -4.7570   21.1510 F   0  0  0  0  0  0  0  0  0  0  0  0
  -21.1350   -4.2900   25.7550 F   0  0  0  0  0  0  0  0  0  0  0  0
  -23.3680  -13.9980   20.9930 C   0  0  0  0  0  0  0  0  0  0  0  0
  -22.5730  -13.3500   21.8420 N   0  0  0  0  0  0  0  0  0  0  0  0
  -23.0120  -15.0460   20.4610 O   0  0  0  0  0  0  0  0  0  0  0  0
  -22.8650  -12.4990   22.3020 H   0  0  0  0  0  0  0  0  0  0  0  0
  -21.6530  -13.7160   22.0410 H   0  0  0  0  0  0  0  0  0  0  0  0
  -26.1300  -15.4960   20.2930 N   0  0  0  0  0  0  0  0  0  0  0  0
  -25.4140  -16.1930   20.4750 H   0  0  0  0  0  0  0  0  0  0  0  0
  -27.0350  -15.9030   20.1020 H   0  0  0  0  0  0  0  0  0  0  0  0
  -29.6860  -17.6120   21.6280 C   0  0  0  0  0  2  0  0  0  0  0  0
  -29.6340  -19.1270   21.4300 C   0  0  0  0  0  0  0  0  0  0  0  0
  -28.5850  -19.6280   20.7890 N   0  0  0  0  0  0  0  0  0  0  0  0
  -30.5340  -19.8490   21.8570 O   0  0  0  0  0  0  0  0  0  0  0  0
  -27.8520  -19.0200   20.4430 H   0  0  0  0  0  0  0  0  0  0  0  0
  -28.4870  -20.6260   20.6810 H   0  0  0  0  0  0  0  0  0  0  0  0
  -31.1610  -20.1890   17.9040 C   0  0  0  0  0  2  0  0  0  0  0  0
  -31.4450  -21.1170   18.9440 O   0  0  0  0  0  0  0  0  0  0  0  0
  -30.4330  -22.0930   19.1560 C   0  0  0  0  0  2  0  0  0  0  0  0
  -30.9870  -23.2060   20.0620 C   0  0  0  0  0  2  0  0  0  0  0  0
  -29.9740  -24.1790   20.2950 O   0  0  0  0  0  0  0  0  0  0  0  0
  -30.5000  -25.4290   20.7390 C   0  0  0  0  0  2  0  0  0  0  0  0
  -29.3620  -26.4080   21.0790 C   0  0  0  0  0  2  0  0  0  0  0  0
  -28.5640  -26.5870   19.9160 O   0  0  0  0  0  0  0  0  0  0  0  0
  -24.6400  -31.6250   23.2010 C   0  0  0  0  0  0  0  0  0  0  0  0
  -27.4070  -27.3170   20.0390 C   0  0  0  0  0  0  0  0  0  0  0  0
  -23.4770  -30.2360   21.5200 C   0  0  0  0  0  3  0  0  0  0  0  0
  -24.9730  -28.7540   20.0850 C   0  0  0  0  0  0  0  0  0  0  0  0
  -25.9990  -30.6470   21.3570 C   0  0  0  0  0  2  0  0  0  0  0  0
  -26.1130  -29.2880   20.6990 C   0  0  0  0  0  0  0  0  0  0  0  0
  -27.3320  -28.5710   20.6920 C   0  0  0  0  0  3  0  0  0  0  0  0
  -26.2520  -26.7990   19.4180 C   0  0  0  0  0  3  0  0  0  0  0  0
  -25.0340  -27.5010   19.4490 C   0  0  0  0  0  3  0  0  0  0  0  0
  -23.7150  -29.5890   20.1290 C   0  0  0  0  0  2  0  0  0  0  0  0
  -24.7230  -30.8500   22.0850 N   0  0  0  0  0  0  0  0  0  0  0  0
  -23.5460  -31.8680   23.7330 O   0  0  0  0  0  0  0  0  0  0  0  0
  -22.8360  -29.1830   22.4500 C   0  0  0  0  0  0  0  0  0  0  0  0
  -21.5200  -28.9660   22.2890 N   0  0  0  0  0  0  0  0  0  0  0  0
  -23.5200  -28.5640   23.2700 O   0  0  0  0  0  0  0  0  0  0  0  0
  -21.0290  -29.5170   21.5980 H   0  0  0  0  0  0  0  0  0  0  0  0
  -18.1720  -27.6710   22.6820 C   0  0  0  0  0  0  0  0  0  0  0  0
  -20.7130  -27.9960   23.0280 C   0  0  0  0  0  3  0  0  0  0  0  0
  -20.8720  -26.5770   22.4350 C   0  0  0  0  0  2  0  0  0  0  0  0
  -19.8070  -26.2350   21.3880 C   0  0  0  0  0  2  0  0  0  0  0  0
  -18.4050  -26.3350   21.9950 C   0  0  0  0  0  2  0  0  0  0  0  0
  -19.2570  -28.4580   23.1520 C   0  0  0  0  0  0  0  0  0  0  0  0
  -18.9850  -29.7080   23.7490 C   0  0  0  0  0  3  0  0  0  0  0  0
  -17.6630  -30.1720   23.8840 C   0  0  0  0  0  3  0  0  0  0  0  0
  -16.5930  -29.3800   23.4320 C   0  0  0  0  0  3  0  0  0  0  0  0
  -16.8480  -28.1320   22.8370 C   0  0  0  0  0  3  0  0  0  0  0  0
  -25.9070  -32.2670   23.8500 C   0  0  0  0  0  3  0  0  0  0  0  0
  -25.5800  -33.6620   24.1710 N   0  0  0  0  0  0  0  0  0  0  0  0
  -25.9230  -34.7140   23.4150 C   0  0  0  0  0  0  0  0  0  0  0  0
  -26.6140  -34.6110   22.3990 O   0  0  0  0  0  0  0  0  0  0  0  0
  -24.9700  -33.8160   24.9590 H   0  0  0  0  0  0  0  0  0  0  0  0
  -24.1870  -36.4870   23.0230 C   0  0  0  0  0  1  0  0  0  0  0  0
  -25.4170  -36.0990   23.8590 C   0  0  0  0  0  3  0  0  0  0  0  0
  -27.5280  -37.0030   24.7270 C   0  0  0  0  0  1  0  0  0  0  0  0
  -26.4430  -37.1580   23.7620 N   0  0  0  0  0  0  0  0  0  0  0  0
  -26.0270  -38.0760   23.8950 H   0  0  0  0  0  0  0  0  0  0  0  0
  -26.4020  -31.5000   25.1370 C   0  0  1  0  0  0  0  0  0  0  0  0
  -25.2870  -31.2610   26.1830 C   0  0  0  0  0  1  0  0  0  0  0  0
  -26.9970  -30.1260   24.7520 C   0  0  0  0  0  1  0  0  0  0  0  0
  -27.5360  -32.3010   25.8190 C   0  0  0  0  0  1  0  0  0  0  0  0
  2  1  1  0
  2  4  1  0
  3  7  1  0
  4  3  1  0
  4  6  1  0
  5  3  2  0
  7 16  1  0
  7 46  1  0
  8 16  1  0
  9 14  1  0
 10 11  1  0
 10  9  1  0
 12 11  1  0
 12 21  1  0
 12 13  1  0
 14  8  1  0
 14 13  1  0
 15  8  2  0
 16 17  1  0
 18 19  2  0
 19 38  1  0
 20 19  1  0
 20 23  1  0
 21 18  1  0
 21 22  1  0
 22 20  2  0
 23 24  1  0
 24 25  2  0
 26 29  1  0
 26 25  1  0
 27 26  2  0
 28 27  1  0
 28 23  2  0
 29 30  1  0
 30 31  1  0
 31 32  2  0
 33 32  1  0
 33 37  1  0
 34 33  2  0
 35 30  2  0
 35 34  1  0
 36 35  1  0
 38 39  1  0
 39 42  1  0
 39 41  1  0
 40 38  2  0
 43 18  1  0
 43 44  1  0
 45 43  1  0
 47 46  1  0
 47 49  2  0
 48 47  1  0
 50 48  1  0
 51 48  1  0
 52  2  1  0
 52 53  1  0
 53 54  1  0
 54 55  1  0
 55 56  1  0
 56 57  1  0
 57 58  1  0
 59 61  1  0
 59 58  1  0
 60 71  2  0
 61 66  1  0
 62 70  1  0
 62 72  1  0
 63 69  1  0
 63 65  1  0
 64 70  1  0
 65 64  1  0
 66 65  2  0
 67 68  1  0
 67 61  2  0
 68 63  2  0
 69 62  1  0
 70 60  1  0
 72 74  2  0
 73 72  1  0
 75 73  1  0
 76 85  2  0
 76 81  1  0
 77 73  1  0
 77 81  1  0
 78 77  1  0
 79 80  1  0
 79 78  1  0
 80 76  1  0
 81 82  2  0
 82 83  1  0
 84 83  2  0
 85 84  1  0
 86 60  1  0
 86 87  1  0
 86 96  1  0
 87 90  1  0
 88 92  1  0
 88 87  1  0
 89 88  2  0
 92 91  1  0
 94 92  1  0
 94 95  1  0
 94 93  1  0
 96 99  1  1
 96 97  1  0
 98 96  1  0
M  ISO  4   8 100  16 100  58 101  59 101
M  END
>  <TORSDO>  (20) 
F 27

>  <SCORE>  (20) 
-10.850

>  <name>  (20) 
19

>  <ligand_id>  (20) 
19

>  <original_smiles>  (20) 
[H]c1c([H])c([H])c2c(c1[H])C([H])([H])C([H])([H])C([H])([H])C2([H])N([H])C(=O)C1([H])N(C(=O)C([H])(N([H])C(=O)C([H])(N([H])C([H])([H])[H])C([H])([H])[H])C(C([H])([H])[H])(C([H])([H])[H])C([H])([H])[H])C([H])([H])c2c([H])c(OC([H])([H])C([H])([H])OC([H])([H])C([H])([H])OC([H])([H])C([H])(N([H])C(=O)C([H])(N([H])C(=O)N3C([H])([H])C([H])([H])C([H])([H])C([H])(n4nc(-c5c([H])c([H])c(Oc6c([H])c([H])c(F)c([H])c6F)c([H])c5[H])c(C(=O)N([H])[H])c4N([H])[H])C3([H])[H])C([H])([H])C(=O)N([H])[H])C([H])([H])[H])c([H])c([H])c2C1([H])[H]

>  <smiles>  (20) 
[H]c1c([H])c([H])c2c(c1[H])C([H])([H])C([H])([H])C([H])([H])C2([H])N([H])C(=O)C1([H])N(C(=O)C([H])(N([H])C(=O)C([H])(N([H])C([H])([H])[H])C([H])([H])[H])C(C([H])([H])[H])(C([H])([H])[H])C([H])([H])[H])C([H])([H])c2c([H])c(OC([H])([H])C([H])([H])OC([H])([H])C([H])([H])OC([H])([H])C([H])(N([H])C(=O)C([H])(N([H])C(=O)N3C([H])([H])C([H])([H])C([H])([H])C([H])(n4nc(-c5c([H])c([H])c(Oc6c([H])c([H])c(F)c([H])c6F)c([H])c5[H])c(C(=O)N([H])[H])c4N([H])[H])C3([H])[H])C([H])([H])C(=O)N([H])[H])C([H])([H])[H])c([H])c([H])c2C1([H])[H]

$$$$
20:0:0
     RDKit          3D

 98105  0  0  1  0  0  0  0  0999 V2000
  -25.6330  -15.2500   17.9140 C   0  0  0  0  0  2  0  0  0  0  0  0
  -26.5260  -16.4590   18.4910 C   0  0  0  0  0  2  0  0  0  0  0  0
  -26.6150  -17.7980   17.8660 O   0  0  0  0  0  0  0  0  0  0  0  0
  -27.0630  -18.8990   18.7580 C   0  0  0  0  0  3  0  0  0  0  0  0
  -27.6060  -20.2850   18.1610 C   0  0  0  0  0  3  0  0  0  0  0  0
  -27.9530  -21.3790   19.1120 O   0  0  0  0  0  0  0  0  0  0  0  0
  -28.4950  -22.6600   18.5990 C   0  0  0  0  0  3  0  0  0  0  0  0
  -28.7940  -23.8590   19.6410 C   0  0  0  0  0  3  0  0  0  0  0  0
  -29.3480  -25.2790   19.1070 C   0  0  0  0  0  2  0  0  0  0  0  0
  -29.2930  -26.5530   19.9090 O   0  0  0  0  0  0  0  0  0  0  0  0
  -24.8280  -31.2840   23.2920 C   0  0  0  0  0  0  0  0  0  0  0  0
  -28.0880  -27.2630   20.0140 C   0  0  0  0  0  0  0  0  0  0  0  0
  -23.8720  -29.8090   21.5680 C   0  0  0  0  0  3  0  0  0  0  0  0
  -25.5430  -28.5500   20.1170 C   0  0  0  0  0  0  0  0  0  0  0  0
  -26.3560  -30.4700   21.4720 C   0  0  0  0  0  2  0  0  0  0  0  0
  -26.6350  -29.1510   20.7550 C   0  0  0  0  0  0  0  0  0  0  0  0
  -27.9170  -28.5110   20.7080 C   0  0  0  0  0  3  0  0  0  0  0  0
  -26.9430  -26.7060   19.4170 C   0  0  0  0  0  3  0  0  0  0  0  0
  -25.6920  -27.3290   19.4590 C   0  0  0  0  0  3  0  0  0  0  0  0
  -24.2040  -29.2490   20.1660 C   0  0  0  0  0  2  0  0  0  0  0  0
  -25.0340  -30.5400   22.1660 N   0  0  0  0  0  0  0  0  0  0  0  0
  -23.7030  -31.3790   23.8060 O   0  0  0  0  0  0  0  0  0  0  0  0
  -23.3540  -28.6540   22.4570 C   0  0  0  0  0  0  0  0  0  0  0  0
  -22.2110  -28.0610   22.0760 N   0  0  0  0  0  0  0  0  0  0  0  0
  -23.9890  -28.2970   23.4540 O   0  0  0  0  0  0  0  0  0  0  0  0
  -21.7390  -28.4180   21.2560 H   0  0  0  0  0  0  0  0  0  0  0  0
  -19.5310  -25.6530   21.8020 C   0  0  0  0  0  0  0  0  0  0  0  0
  -21.5650  -26.9360   22.7510 C   0  0  0  0  0  3  0  0  0  0  0  0
  -22.3590  -25.6280   22.5380 C   0  0  0  0  0  2  0  0  0  0  0  0
  -21.8730  -24.8130   21.3340 C   0  0  0  0  0  2  0  0  0  0  0  0
  -20.3970  -24.4410   21.5010 C   0  0  0  0  0  2  0  0  0  0  0  0
  -20.0820  -26.8290   22.3750 C   0  0  0  0  0  0  0  0  0  0  0  0
  -19.2410  -27.9390   22.6020 C   0  0  0  0  0  3  0  0  0  0  0  0
  -17.8750  -27.8890   22.2680 C   0  0  0  0  0  3  0  0  0  0  0  0
  -17.3310  -26.7170   21.7150 C   0  0  0  0  0  3  0  0  0  0  0  0
  -18.1560  -25.6010   21.4890 C   0  0  0  0  0  3  0  0  0  0  0  0
  -25.9920  -32.0700   23.9680 C   0  0  0  0  0  3  0  0  0  0  0  0
  -26.5000  -31.3980   25.3030 C   0  0  1  0  0  0  0  0  0  0  0  0
  -25.3670  -31.0630   26.2990 C   0  0  0  0  0  1  0  0  0  0  0  0
  -27.2670  -30.0890   25.0010 C   0  0  0  0  0  1  0  0  0  0  0  0
  -27.4890  -32.3420   26.0210 C   0  0  0  0  0  1  0  0  0  0  0  0
  -25.5090  -33.4340   24.2300 N   0  0  0  0  0  0  0  0  0  0  0  0
  -25.7950  -34.5030   23.4760 C   0  0  0  0  0  0  0  0  0  0  0  0
  -26.5670  -34.4550   22.5140 O   0  0  0  0  0  0  0  0  0  0  0  0
  -24.8330  -33.5370   24.9730 H   0  0  0  0  0  0  0  0  0  0  0  0
  -23.9440  -36.1050   22.9010 C   0  0  0  0  0  1  0  0  0  0  0  0
  -25.1220  -35.8370   23.8510 C   0  0  0  0  0  3  0  0  0  0  0  0
  -27.0510  -36.9460   24.8880 C   0  0  0  0  0  1  0  0  0  0  0  0
  -26.0460  -36.9900   23.8290 N   0  0  0  0  0  0  0  0  0  0  0  0
  -25.5320  -37.8620   23.9150 H   0  0  0  0  0  0  0  0  0  0  0  0
  -26.2050  -13.8210   17.4380 C   0  0  0  0  0  2  0  0  0  0  0  0
  -27.3340  -11.6190   18.2760 C   0  0  0  0  0  0  0  0  0  0  0  0
  -26.6980  -12.8340   18.4740 N   0  0  0  0  0  0  0  0  0  0  0  0
  -26.8150  -10.7380   17.5950 O   0  0  0  0  0  0  0  0  0  0  0  0
  -27.0620  -13.3060   19.2920 H   0  0  0  0  0  0  0  0  0  0  0  0
  -28.8620  -11.4960   18.6670 C   0  0  0  0  0  3  0  0  0  0  0  0
  -29.8410  -10.8320   19.7560 C   0  0  0  0  0  3  0  0  0  0  0  0
  -31.3510  -11.4770   19.8860 C   0  0  0  0  0  2  0  0  0  0  0  0
  -31.8270  -12.6880   20.8730 C   0  0  0  0  0  2  0  0  0  0  0  0
  -33.0920  -13.6610   20.4750 C   0  0  0  0  0  2  0  0  0  0  0  0
  -32.8280  -16.2830   20.2340 C   0  0  0  0  0  0  0  0  0  0  0  0
  -32.0230  -15.5290   18.3670 C   0  0  0  0  0  2  0  0  0  0  0  0
  -31.0190  -14.7220   17.6770 C   0  0  0  0  0  2  0  0  0  0  0  0
  -29.8190  -14.5220   18.5310 C   0  0  0  0  0  2  0  0  0  0  0  0
  -29.3580  -15.4510   19.6250 C   0  0  0  0  0  3  0  0  0  0  0  0
  -30.4980  -15.8390   20.5330 C   0  0  0  0  0  2  0  0  0  0  0  0
  -31.7210  -15.9150   19.7370 N   0  0  0  0  0  0  0  0  0  0  0  0
  -33.4250  -17.2960   19.8060 O   0  0  0  0  0  0  0  0  0  0  0  0
  -33.2960  -15.1550   20.8820 N   0  0  0  0  0  0  0  0  0  0  0  0
  -34.1650  -15.3340   21.3680 H   0  0  0  0  0  0  0  0  0  0  0  0
  -27.2800  -15.6220   21.0880 C   0  0  0  0  0  0  0  0  0  0  0  0
  -26.2940  -14.7560   21.4460 C   0  0  0  0  0  0  0  0  0  0  0  0
  -26.6720  -13.4780   20.9300 C   0  0  0  0  0  0  0  0  0  0  0  0
  -28.1900  -14.9100   20.3420 N   0  0  0  0  0  0  0  0  0  0  0  0
  -27.8490  -13.5870   20.3130 N   0  0  0  0  0  0  0  0  0  0  0  0
  -25.9480  -12.1950   20.9440 C   0  0  0  0  0  0  0  0  0  0  0  0
  -26.3720  -11.1140   21.7510 C   0  0  0  0  0  3  0  0  0  0  0  0
  -25.6430   -9.9010   21.7730 C   0  0  0  0  0  3  0  0  0  0  0  0
  -24.4640   -9.7690   21.0000 C   0  0  0  0  0  0  0  0  0  0  0  0
  -24.0550  -10.8380   20.1840 C   0  0  0  0  0  3  0  0  0  0  0  0
  -24.7900  -12.0370   20.1510 C   0  0  0  0  0  3  0  0  0  0  0  0
  -23.6910   -8.6320   20.9530 O   0  0  0  0  0  0  0  0  0  0  0  0
  -23.1860   -8.0590   22.0930 C   0  0  0  0  0  0  0  0  0  0  0  0
  -22.4310   -8.8040   23.0240 C   0  0  0  0  0  3  0  0  0  0  0  0
  -21.8780   -8.1680   24.1540 C   0  0  0  0  0  3  0  0  0  0  0  0
  -22.0580   -6.7820   24.3440 C   0  0  0  0  0  0  0  0  0  0  0  0
  -22.8040   -6.0380   23.4120 C   0  0  0  0  0  3  0  0  0  0  0  0
  -23.3640   -6.6740   22.2900 C   0  0  0  0  0  0  0  0  0  0  0  0
  -24.0640   -5.9500   21.3830 F   0  0  0  0  0  0  0  0  0  0  0  0
  -21.5220   -6.1640   25.4210 F   0  0  0  0  0  0  0  0  0  0  0  0
  -25.0340  -15.1020   22.1810 C   0  0  0  0  0  0  0  0  0  0  0  0
  -24.5410  -14.1980   23.0160 N   0  0  0  0  0  0  0  0  0  0  0  0
  -24.5160  -16.2140   22.0620 O   0  0  0  0  0  0  0  0  0  0  0  0
  -25.0210  -13.3290   23.2030 H   0  0  0  0  0  0  0  0  0  0  0  0
  -23.7160  -14.4210   23.5520 H   0  0  0  0  0  0  0  0  0  0  0  0
  -27.4990  -16.9670   21.3450 N   0  0  0  0  0  0  0  0  0  0  0  0
  -26.8980  -17.4580   21.9940 H   0  0  0  0  0  0  0  0  0  0  0  0
  -28.3840  -17.4410   21.2130 H   0  0  0  0  0  0  0  0  0  0  0  0
  1  2  1  0
  3  2  1  0
  3  4  1  0
  5  4  2  0
  5  6  1  0
  7  6  1  0
  7  8  2  0
  9  8  1  0
  9 10  1  0
 10 12  1  0
 11 22  2  0
 12 17  1  0
 13 21  1  0
 13 23  1  0
 14 20  1  0
 14 16  1  0
 15 21  1  0
 16 15  1  0
 17 16  2  0
 18 19  1  0
 18 12  2  0
 19 14  2  0
 20 13  1  0
 21 11  1  0
 23 25  2  0
 24 23  1  0
 26 24  1  0
 27 32  1  0
 28 24  1  0
 29 28  1  0
 30 31  1  0
 30 29  1  0
 31 27  1  0
 32 33  2  0
 32 28  1  0
 34 33  1  0
 35 34  2  0
 36 35  1  0
 36 27  2  0
 37 11  1  0
 37 42  1  0
 37 38  1  0
 38 41  1  1
 38 39  1  0
 40 38  1  0
 42 45  1  0
 43 47  1  0
 43 42  1  0
 44 43  2  0
 47 46  1  0
 49 47  1  0
 49 50  1  0
 49 48  1  0
 51  1  1  0
 51 53  1  0
 52 53  1  0
 52 56  1  0
 53 55  1  0
 54 52  2  0
 56 57  2  0
 57 58  1  0
 58 59  1  0
 60 59  1  0
 60 69  1  0
 61 69  1  0
 62 67  1  0
 63 62  1  0
 63 64  1  0
 65 64  1  0
 65 74  1  0
 65 66  1  0
 67 61  1  0
 67 66  1  0
 68 61  2  0
 69 70  1  0
 71 96  1  0
 71 72  2  0
 72 91  1  0
 73 76  1  0
 73 72  1  0
 74 71  1  0
 75 74  1  0
 75 73  2  0
 76 77  1  0
 77 78  2  0
 79 78  1  0
 80 79  2  0
 81 80  1  0
 81 76  2  0
 82 79  1  0
 82 83  1  0
 83 88  2  0
 83 84  1  0
 84 85  2  0
 85 86  1  0
 86 90  1  0
 87 86  2  0
 88 87  1  0
 89 88  1  0
 91 92  1  0
 92 94  1  0
 92 95  1  0
 93 91  2  0
 96 97  1  0
 98 96  1  0
M  ISO  4   9 101  10 101  61 100  69 100
M  END
>  <TORSDO>  (21) 
F 31

>  <SCORE>  (21) 
9.088

>  <name>  (21) 
20

>  <ligand_id>  (21) 
20

>  <original_smiles>  (21) 
[H]c1c([H])c([H])c2c(c1[H])C([H])([H])C([H])([H])C([H])([H])C2([H])N([H])C(=O)C1([H])N(C(=O)C([H])(N([H])C(=O)C([H])(N([H])C([H])([H])[H])C([H])([H])[H])C(C([H])([H])[H])(C([H])([H])[H])C([H])([H])[H])C([H])([H])c2c([H])c(OC([H])([H])C([H])([H])C([H])([H])OC([H])([H])C([H])([H])OC([H])([H])C([H])([H])C([H])([H])N([H])C(=O)C([H])([H])C([H])([H])C([H])([H])C([H])([H])C([H])([H])N([H])C(=O)N3C([H])([H])C([H])([H])C([H])([H])C([H])(n4nc(-c5c([H])c([H])c(Oc6c([H])c([H])c(F)c([H])c6F)c([H])c5[H])c(C(=O)N([H])[H])c4N([H])[H])C3([H])[H])c([H])c([H])c2C1([H])[H]

>  <smiles>  (21) 
[H]c1c([H])c([H])c2c(c1[H])C([H])([H])C([H])([H])C([H])([H])C2([H])N([H])C(=O)C1([H])N(C(=O)C([H])(N([H])C(=O)C([H])(N([H])C([H])([H])[H])C([H])([H])[H])C(C([H])([H])[H])(C([H])([H])[H])C([H])([H])[H])C([H])([H])c2c([H])c(OC([H])([H])C([H])([H])C([H])([H])OC([H])([H])C([H])([H])OC([H])([H])C([H])([H])C([H])([H])N([H])C(=O)C([H])([H])C([H])([H])C([H])([H])C([H])([H])C([H])([H])N([H])C(=O)N3C([H])([H])C([H])([H])C([H])([H])C([H])(n4nc(-c5c([H])c([H])c(Oc6c([H])c([H])c(F)c([H])c6F)c([H])c5[H])c(C(=O)N([H])[H])c4N([H])[H])C3([H])[H])c([H])c([H])c2C1([H])[H]

$$$$
21:0:0
     RDKit          3D

 99106  0  0  1  0  0  0  0  0999 V2000
  -34.5190  -20.5140   17.8690 C   0  0  0  0  0  2  0  0  0  0  0  0
  -33.1680  -20.0930   17.7100 O   0  0  0  0  0  0  0  0  0  0  0  0
  -33.0700  -18.8670   16.9910 C   0  0  0  0  0  2  0  0  0  0  0  0
  -31.6480  -18.3070   17.1170 C   0  0  0  0  0  2  0  0  0  0  0  0
  -30.5000  -17.0590   18.9330 C   0  0  0  0  0  0  0  0  0  0  0  0
  -31.3860  -17.9670   18.5110 N   0  0  0  0  0  0  0  0  0  0  0  0
  -29.7920  -16.4240   18.1470 O   0  0  0  0  0  0  0  0  0  0  0  0
  -31.9440  -18.4540   19.1980 H   0  0  0  0  0  0  0  0  0  0  0  0
  -30.4050  -16.8000   20.4570 C   0  0  0  0  0  3  0  0  0  0  0  0
  -30.8030  -14.3670   20.3220 C   0  0  0  0  0  0  0  0  0  0  0  0
  -30.4780  -12.2020   19.2280 C   0  0  0  0  0  2  0  0  0  0  0  0
  -29.5160  -12.3980   18.0370 C   0  0  0  0  0  2  0  0  0  0  0  0
  -28.0460  -12.2880   18.4940 C   0  0  0  0  0  2  0  0  0  0  0  0
  -27.7360  -13.1570   19.7430 C   0  0  0  0  0  3  0  0  0  0  0  0
  -28.8030  -12.9370   20.8390 C   0  0  0  0  0  2  0  0  0  0  0  0
  -30.1250  -13.1980   20.2450 N   0  0  0  0  0  0  0  0  0  0  0  0
  -31.9390  -14.5340   19.8680 O   0  0  0  0  0  0  0  0  0  0  0  0
  -30.0770  -15.4040   20.7390 N   0  0  0  0  0  0  0  0  0  0  0  0
  -29.1250  -15.2240   21.0200 H   0  0  0  0  0  0  0  0  0  0  0  0
  -25.3600  -13.8040   20.5050 C   0  0  0  0  0  0  0  0  0  0  0  0
  -24.2830  -13.0470   20.8850 C   0  0  0  0  0  0  0  0  0  0  0  0
  -24.7220  -11.6880   20.8360 C   0  0  0  0  0  0  0  0  0  0  0  0
  -26.3840  -12.9060   20.2460 N   0  0  0  0  0  0  0  0  0  0  0  0
  -26.0030  -11.6290   20.5000 N   0  0  0  0  0  0  0  0  0  0  0  0
  -23.9780  -10.4380   21.0330 C   0  0  0  0  0  0  0  0  0  0  0  0
  -24.4090   -9.4590   21.9550 C   0  0  0  0  0  3  0  0  0  0  0  0
  -23.6680   -8.2720   22.1380 C   0  0  0  0  0  3  0  0  0  0  0  0
  -22.4800   -8.0540   21.3990 C   0  0  0  0  0  0  0  0  0  0  0  0
  -22.0680   -9.0220   20.4660 C   0  0  0  0  0  3  0  0  0  0  0  0
  -22.8100  -10.2010   20.2810 C   0  0  0  0  0  3  0  0  0  0  0  0
  -21.7130   -6.9190   21.4900 O   0  0  0  0  0  0  0  0  0  0  0  0
  -21.6620   -6.1730   22.6410 C   0  0  0  0  0  0  0  0  0  0  0  0
  -21.2530   -6.7290   23.8730 C   0  0  0  0  0  3  0  0  0  0  0  0
  -21.1490   -5.9090   25.0130 C   0  0  0  0  0  3  0  0  0  0  0  0
  -21.4490   -4.5360   24.9260 C   0  0  0  0  0  0  0  0  0  0  0  0
  -21.8510   -3.9810   23.7000 C   0  0  0  0  0  3  0  0  0  0  0  0
  -21.9570   -4.7960   22.5590 C   0  0  0  0  0  0  0  0  0  0  0  0
  -22.3260   -4.2530   21.3760 F   0  0  0  0  0  0  0  0  0  0  0  0
  -21.3420   -3.7470   26.0210 F   0  0  0  0  0  0  0  0  0  0  0  0
  -22.9010  -13.5470   21.1900 C   0  0  0  0  0  0  0  0  0  0  0  0
  -22.1780  -12.8620   22.0680 N   0  0  0  0  0  0  0  0  0  0  0  0
  -22.4690  -14.5820   20.6840 O   0  0  0  0  0  0  0  0  0  0  0  0
  -22.5430  -12.0320   22.5120 H   0  0  0  0  0  0  0  0  0  0  0  0
  -21.2470  -13.1780   22.3060 H   0  0  0  0  0  0  0  0  0  0  0  0
  -25.5490  -15.1720   20.3450 N   0  0  0  0  0  0  0  0  0  0  0  0
  -24.8060  -15.8420   20.5070 H   0  0  0  0  0  0  0  0  0  0  0  0
  -26.4340  -15.6080   20.1110 H   0  0  0  0  0  0  0  0  0  0  0  0
  -29.3350  -17.6840   21.1330 C   0  0  0  0  0  2  0  0  0  0  0  0
  -27.4560  -18.3490   19.8390 C   0  0  0  0  0  1  0  0  0  0  0  0
  -28.0260  -17.3490   20.6740 O   0  0  0  0  0  0  0  0  0  0  0  0
  -34.6240  -22.0440   17.9840 C   0  0  0  0  0  2  0  0  0  0  0  0
  -34.1790  -22.5270   19.2490 O   0  0  0  0  0  0  0  0  0  0  0  0
  -34.6790  -23.8340   19.5310 C   0  0  0  0  0  2  0  0  0  0  0  0
  -33.7510  -24.5950   20.4890 C   0  0  0  0  0  2  0  0  0  0  0  0
  -32.5900  -24.9910   19.7680 O   0  0  0  0  0  0  0  0  0  0  0  0
  -31.8680  -26.0680   20.3570 C   0  0  0  0  0  2  0  0  0  0  0  0
  -30.4760  -26.0640   19.7140 C   0  0  0  0  0  2  0  0  0  0  0  0
  -29.5380  -27.2190   20.1110 C   0  0  0  0  0  2  0  0  0  0  0  0
  -28.3000  -26.8580   19.5200 O   0  0  0  0  0  0  0  0  0  0  0  0
  -24.4770  -31.7780   23.1000 C   0  0  0  0  0  0  0  0  0  0  0  0
  -27.1650  -27.6110   19.7060 C   0  0  0  0  0  0  0  0  0  0  0  0
  -23.2620  -30.4310   21.4180 C   0  0  0  0  0  3  0  0  0  0  0  0
  -24.7210  -29.0110   19.8830 C   0  0  0  0  0  0  0  0  0  0  0  0
  -25.7690  -30.8770   21.1720 C   0  0  0  0  0  2  0  0  0  0  0  0
  -25.8770  -29.5430   20.4690 C   0  0  0  0  0  0  0  0  0  0  0  0
  -27.1060  -28.8470   20.3910 C   0  0  0  0  0  3  0  0  0  0  0  0
  -25.9910  -27.0870   19.1310 C   0  0  0  0  0  3  0  0  0  0  0  0
  -24.7680  -27.7730   19.2200 C   0  0  0  0  0  3  0  0  0  0  0  0
  -23.4540  -29.8280   20.0000 C   0  0  0  0  0  2  0  0  0  0  0  0
  -24.5220  -31.0400   21.9550 N   0  0  0  0  0  0  0  0  0  0  0  0
  -23.4050  -31.9920   23.6830 O   0  0  0  0  0  0  0  0  0  0  0  0
  -22.6660  -29.3430   22.3390 C   0  0  0  0  0  0  0  0  0  0  0  0
  -21.3460  -29.1230   22.2270 N   0  0  0  0  0  0  0  0  0  0  0  0
  -23.3870  -28.7020   23.1080 O   0  0  0  0  0  0  0  0  0  0  0  0
  -20.8240  -29.6950   21.5780 H   0  0  0  0  0  0  0  0  0  0  0  0
  -18.0320  -27.7600   22.6900 C   0  0  0  0  0  0  0  0  0  0  0  0
  -20.5770  -28.1220   22.9650 C   0  0  0  0  0  3  0  0  0  0  0  0
  -20.7420  -26.7190   22.3390 C   0  0  0  0  0  2  0  0  0  0  0  0
  -19.6500  -26.3830   21.3160 C   0  0  0  0  0  2  0  0  0  0  0  0
  -18.2660  -26.4440   21.9680 C   0  0  0  0  0  2  0  0  0  0  0  0
  -19.1170  -28.5540   23.1450 C   0  0  0  0  0  0  0  0  0  0  0  0
  -18.8460  -29.7860   23.7810 C   0  0  0  0  0  3  0  0  0  0  0  0
  -17.5210  -30.2240   23.9660 C   0  0  0  0  0  3  0  0  0  0  0  0
  -16.4500  -29.4260   23.5280 C   0  0  0  0  0  3  0  0  0  0  0  0
  -16.7060  -28.1960   22.8960 C   0  0  0  0  0  3  0  0  0  0  0  0
  -25.7620  -32.4110   23.7170 C   0  0  0  0  0  3  0  0  0  0  0  0
  -26.3250  -31.6000   24.9490 C   0  0  1  0  0  0  0  0  0  0  0  0
  -25.2660  -31.3070   26.0370 C   0  0  0  0  0  1  0  0  0  0  0  0
  -26.9150  -30.2470   24.4870 C   0  0  0  0  0  1  0  0  0  0  0  0
  -27.4830  -32.3860   25.6090 C   0  0  0  0  0  1  0  0  0  0  0  0
  -25.4360  -33.7890   24.1050 N   0  0  0  0  0  0  0  0  0  0  0  0
  -25.7650  -34.8760   23.3950 C   0  0  0  0  0  0  0  0  0  0  0  0
  -26.4480  -34.8240   22.3670 O   0  0  0  0  0  0  0  0  0  0  0  0
  -24.8330  -33.9040   24.9070 H   0  0  0  0  0  0  0  0  0  0  0  0
  -24.0280  -36.6670   23.0880 C   0  0  0  0  0  1  0  0  0  0  0  0
  -25.2570  -36.2380   23.9040 C   0  0  0  0  0  3  0  0  0  0  0  0
  -27.3680  -37.1010   24.8160 C   0  0  0  0  0  1  0  0  0  0  0  0
  -26.2840  -37.3020   23.8580 N   0  0  0  0  0  0  0  0  0  0  0  0
  -25.8670  -38.2120   24.0390 H   0  0  0  0  0  0  0  0  0  0  0  0
  1 51  1  0
  2  1  1  0
  3  4  1  0
  3  2  1  0
  4  6  1  0
  5  9  1  0
  6  5  1  0
  6  8  1  0
  7  5  2  0
  9 18  1  0
  9 48  1  0
 10 18  1  0
 11 16  1  0
 12 13  1  0
 12 11  1  0
 14 13  1  0
 14 23  1  0
 14 15  1  0
 16 10  1  0
 16 15  1  0
 17 10  2  0
 18 19  1  0
 20 21  2  0
 21 40  1  0
 22 21  1  0
 22 25  1  0
 23 24  1  0
 23 20  1  0
 24 22  2  0
 25 26  1  0
 26 27  2  0
 28 31  1  0
 28 27  1  0
 29 28  2  0
 30 29  1  0
 30 25  2  0
 31 32  1  0
 32 33  1  0
 33 34  2  0
 35 34  1  0
 35 39  1  0
 36 35  2  0
 37 32  2  0
 37 36  1  0
 38 37  1  0
 40 41  1  0
 41 44  1  0
 41 43  1  0
 42 40  2  0
 45 20  1  0
 45 46  1  0
 47 45  1  0
 49 50  1  0
 50 48  1  0
 51 52  1  0
 52 53  1  0
 53 54  1  0
 55 56  1  0
 55 54  1  0
 57 58  1  0
 57 56  1  0
 59 61  1  0
 59 58  1  0
 60 71  2  0
 61 66  1  0
 62 70  1  0
 62 72  1  0
 63 69  1  0
 63 65  1  0
 64 70  1  0
 65 64  1  0
 66 65  2  0
 67 68  1  0
 67 61  2  0
 68 63  2  0
 69 62  1  0
 70 60  1  0
 72 74  2  0
 73 72  1  0
 75 73  1  0
 76 85  2  0
 76 81  1  0
 77 73  1  0
 77 81  1  0
 78 77  1  0
 79 80  1  0
 79 78  1  0
 80 76  1  0
 81 82  2  0
 82 83  1  0
 84 83  2  0
 85 84  1  0
 86 60  1  0
 86 91  1  0
 86 87  1  0
 87 90  1  1
 87 88  1  0
 89 87  1  0
 91 94  1  0
 92 96  1  0
 92 91  1  0
 93 92  2  0
 96 95  1  0
 98 96  1  0
 98 99  1  0
 98 97  1  0
M  ISO  4  10 100  18 100  58 101  59 101
M  END
>  <TORSDO>  (22) 
F 31

>  <SCORE>  (22) 
-9.858

>  <name>  (22) 
21

>  <ligand_id>  (22) 
21

>  <original_smiles>  (22) 
[H]c1c([H])c([H])c2c(c1[H])C([H])([H])C([H])([H])C([H])([H])C2([H])N([H])C(=O)C1([H])N(C(=O)C([H])(N([H])C(=O)C([H])(N([H])C([H])([H])[H])C([H])([H])[H])C(C([H])([H])[H])(C([H])([H])[H])C([H])([H])[H])C([H])([H])c2c([H])c(OC([H])([H])C([H])([H])C([H])([H])OC([H])([H])C([H])([H])OC([H])([H])C([H])([H])OC([H])([H])C([H])([H])N([H])C(=O)C([H])(N([H])C(=O)N3C([H])([H])C([H])([H])C([H])([H])C([H])(n4nc(-c5c([H])c([H])c(Oc6c([H])c([H])c(F)c([H])c6F)c([H])c5[H])c(C(=O)N([H])[H])c4N([H])[H])C3([H])[H])C([H])([H])OC([H])([H])[H])c([H])c([H])c2C1([H])[H]

>  <smiles>  (22) 
[H]c1c([H])c([H])c2c(c1[H])C([H])([H])C([H])([H])C([H])([H])C2([H])N([H])C(=O)C1([H])N(C(=O)C([H])(N([H])C(=O)C([H])(N([H])C([H])([H])[H])C([H])([H])[H])C(C([H])([H])[H])(C([H])([H])[H])C([H])([H])[H])C([H])([H])c2c([H])c(OC([H])([H])C([H])([H])C([H])([H])OC([H])([H])C([H])([H])OC([H])([H])C([H])([H])OC([H])([H])C([H])([H])N([H])C(=O)C([H])(N([H])C(=O)N3C([H])([H])C([H])([H])C([H])([H])C([H])(n4nc(-c5c([H])c([H])c(Oc6c([H])c([H])c(F)c([H])c6F)c([H])c5[H])c(C(=O)N([H])[H])c4N([H])[H])C3([H])[H])C([H])([H])OC([H])([H])[H])c([H])c([H])c2C1([H])[H]

$$$$
22:0:0
     RDKit          3D

103108  0  0  1  0  0  0  0  0999 V2000
  -20.4680  -29.8850   20.8070 C   0  0  0  0  0  3  0  0  0  0  0  0
  -20.9930  -30.5080   22.4860 C   0  0  0  0  0  0  0  0  0  0  0  0
  -21.7800  -29.9110   23.7390 N   0  0  0  0  0  0  0  0  0  0  0  0
  -20.6800  -31.6850   22.6530 O   0  0  0  0  0  0  0  0  0  0  0  0
  -21.8520  -30.7370   24.3250 H   0  0  0  0  0  0  0  0  0  0  0  0
  -22.7150  -28.5590   24.5350 C   0  0  0  0  0  1  0  0  0  0  0  0
  -23.3040  -26.6490   24.2880 C   0  0  0  0  0  1  0  0  0  0  0  0
  -24.2130  -25.4120   23.4160 O   0  0  0  0  0  0  0  0  0  0  0  0
  -25.2250  -23.9700   23.5990 C   0  0  0  0  0  1  0  0  0  0  0  0
  -25.8970  -22.3920   22.6270 C   0  0  0  0  0  1  0  0  0  0  0  0
  -27.0440  -21.0490   22.6700 O   0  0  0  0  0  0  0  0  0  0  0  0
  -27.4570  -19.5940   21.7760 C   0  0  0  0  0  3  0  0  0  0  0  0
  -28.7480  -18.1460   21.8180 C   0  0  0  0  0  3  0  0  0  0  0  0
  -30.0420  -15.4020   20.7690 C   0  0  0  0  0  0  0  0  0  0  0  0
  -30.4120  -12.9660   19.6400 C   0  0  0  0  0  2  0  0  0  0  0  0
  -29.5590  -12.6490   18.3630 C   0  0  0  0  0  2  0  0  0  0  0  0
  -28.1140  -12.2930   18.7600 C   0  0  0  0  0  2  0  0  0  0  0  0
  -27.5880  -13.2580   19.8460 C   0  0  0  0  0  3  0  0  0  0  0  0
  -28.5350  -13.3710   21.0410 C   0  0  0  0  0  2  0  0  0  0  0  0
  -29.7090  -14.0240   20.5120 N   0  0  0  0  0  0  0  0  0  0  0  0
  -31.2580  -15.5520   20.5340 O   0  0  0  0  0  0  0  0  0  0  0  0
  -29.0210  -16.5150   21.1510 N   0  0  0  0  0  0  0  0  0  0  0  0
  -28.1220  -16.0710   21.0800 H   0  0  0  0  0  0  0  0  0  0  0  0
  -25.2320  -13.8290   20.5510 C   0  0  0  0  0  0  0  0  0  0  0  0
  -24.1610  -13.0230   20.9260 C   0  0  0  0  0  0  0  0  0  0  0  0
  -24.6310  -11.6890   20.8620 C   0  0  0  0  0  0  0  0  0  0  0  0
  -26.2530  -12.9330   20.2970 N   0  0  0  0  0  0  0  0  0  0  0  0
  -25.9170  -11.6440   20.5440 N   0  0  0  0  0  0  0  0  0  0  0  0
  -23.9010  -10.4220   21.0370 C   0  0  0  0  0  0  0  0  0  0  0  0
  -24.3630   -9.4200   21.9110 C   0  0  0  0  0  3  0  0  0  0  0  0
  -23.6330   -8.2200   22.0760 C   0  0  0  0  0  3  0  0  0  0  0  0
  -22.4280   -8.0230   21.3500 C   0  0  0  0  0  0  0  0  0  0  0  0
  -21.9860   -9.0210   20.4630 C   0  0  0  0  0  3  0  0  0  0  0  0
  -22.7200  -10.2100   20.3000 C   0  0  0  0  0  3  0  0  0  0  0  0
  -21.6660   -6.8750   21.4180 O   0  0  0  0  0  0  0  0  0  0  0  0
  -21.6900   -6.0680   22.5290 C   0  0  0  0  0  0  0  0  0  0  0  0
  -21.3980   -6.5580   23.8200 C   0  0  0  0  0  3  0  0  0  0  0  0
  -21.3680   -5.6750   24.9150 C   0  0  0  0  0  3  0  0  0  0  0  0
  -21.6090   -4.3010   24.7220 C   0  0  0  0  0  0  0  0  0  0  0  0
  -21.8840   -3.8100   23.4330 C   0  0  0  0  0  3  0  0  0  0  0  0
  -21.9220   -4.6910   22.3390 C   0  0  0  0  0  0  0  0  0  0  0  0
  -22.1670   -4.2070   21.0980 F   0  0  0  0  0  0  0  0  0  0  0  0
  -21.5740   -3.4530   25.7780 F   0  0  0  0  0  0  0  0  0  0  0  0
  -22.7700  -13.5150   21.1890 C   0  0  0  0  0  0  0  0  0  0  0  0
  -22.0450  -12.7910   22.0590 N   0  0  0  0  0  0  0  0  0  0  0  0
  -22.3300  -14.5350   20.6930 O   0  0  0  0  0  0  0  0  0  0  0  0
  -22.4260  -11.9520   22.4550 H   0  0  0  0  0  0  0  0  0  0  0  0
  -21.1120  -13.0850   22.3000 H   0  0  0  0  0  0  0  0  0  0  0  0
  -25.3960  -15.1830   20.4000 N   0  0  0  0  0  0  0  0  0  0  0  0
  -24.6260  -15.8380   20.4960 H   0  0  0  0  0  0  0  0  0  0  0  0
  -26.2370  -15.6160   20.0470 H   0  0  0  0  0  0  0  0  0  0  0  0
  -17.5450  -29.5920   20.1860 C   0  0  0  0  0  1  0  0  0  0  0  0
  -19.3700  -27.7040   19.4400 C   0  0  0  0  0  1  0  0  0  0  0  0
  -19.0890  -29.1740   20.0960 C   0  0  0  0  0  3  0  0  0  0  0  0
  -21.3900  -29.9830   19.5410 N   0  0  0  0  0  4  0  0  0  0  0  0
  -20.7920  -30.6070   18.9920 H   0  0  0  0  0  0  0  0  0  0  0  0
  -22.1960  -30.5460   19.7610 H   0  0  0  0  0  0  0  0  0  0  0  0
  -21.9450  -28.7920   18.5500 C   0  0  0  0  0  2  0  0  0  0  0  0
  -22.7240  -27.2610   18.7950 C   0  0  0  0  0  2  0  0  0  0  0  0
  -23.4320  -26.8520   20.0600 O   0  0  0  0  0  0  0  0  0  0  0  0
  -24.2760  -25.6220   20.1950 C   0  0  0  0  0  2  0  0  0  0  0  0
  -25.8070  -25.5060   20.8680 C   0  0  0  0  0  2  0  0  0  0  0  0
  -27.2160  -26.0020   20.4740 O   0  0  0  0  0  0  0  0  0  0  0  0
  -24.5940  -31.7790   23.1950 C   0  0  0  0  0  0  0  0  0  0  0  0
  -27.0810  -27.2750   20.0840 C   0  0  0  0  0  0  0  0  0  0  0  0
  -23.6520  -30.2610   21.3660 C   0  0  0  0  0  3  0  0  0  0  0  0
  -25.2880  -29.2670   19.8300 C   0  0  0  0  0  0  0  0  0  0  0  0
  -26.1520  -30.6720   21.6380 C   0  0  0  0  0  2  0  0  0  0  0  0
  -26.2900  -29.4140   20.7810 C   0  0  0  0  0  0  0  0  0  0  0  0
  -27.2540  -28.3810   20.9580 C   0  0  0  0  0  3  0  0  0  0  0  0
  -26.2510  -27.2900   18.9640 C   0  0  0  0  0  3  0  0  0  0  0  0
  -25.3540  -28.3260   18.8100 C   0  0  0  0  0  3  0  0  0  0  0  0
  -24.1970  -30.2270   19.9330 C   0  0  0  0  0  2  0  0  0  0  0  0
  -24.7710  -30.9120   22.1510 N   0  0  0  0  0  0  0  0  0  0  0  0
  -23.4910  -32.0960   23.6490 O   0  0  0  0  0  0  0  0  0  0  0  0
  -23.2720  -28.7860   21.9270 C   0  0  0  0  0  0  0  0  0  0  0  0
  -22.0090  -28.0450   22.0360 N   0  0  0  0  0  0  0  0  0  0  0  0
  -24.2110  -28.3490   22.5440 O   0  0  0  0  0  0  0  0  0  0  0  0
  -22.2430  -27.1350   21.6450 H   0  0  0  0  0  0  0  0  0  0  0  0
  -18.0030  -27.9970   22.8230 C   0  0  0  0  0  0  0  0  0  0  0  0
  -20.6580  -27.7200   22.9640 C   0  0  0  0  0  0  0  0  0  0  0  0
  -20.5400  -26.2570   22.6430 C   0  0  0  0  0  3  0  0  0  0  0  0
  -19.1890  -25.7670   22.1920 C   0  0  0  0  0  3  0  0  0  0  0  0
  -17.8940  -26.5820   22.4180 C   0  0  0  0  0  3  0  0  0  0  0  0
  -19.2240  -28.5240   23.2920 C   0  0  0  0  0  0  0  0  0  0  0  0
  -18.9930  -29.6820   24.1660 C   0  0  0  0  0  3  0  0  0  0  0  0
  -17.7800  -30.4130   24.2060 C   0  0  0  0  0  3  0  0  0  0  0  0
  -16.6520  -29.8970   23.5560 C   0  0  0  0  0  3  0  0  0  0  0  0
  -16.7560  -28.6650   22.9200 C   0  0  0  0  0  3  0  0  0  0  0  0
  -25.8410  -32.4570   23.8370 C   0  0  0  0  0  3  0  0  0  0  0  0
  -26.3990  -31.6920   25.1000 C   0  0  1  0  0  0  0  0  0  0  0  0
  -25.2960  -31.4320   26.1500 C   0  0  0  0  0  1  0  0  0  0  0  0
  -27.0230  -30.3090   24.7910 C   0  0  0  0  0  1  0  0  0  0  0  0
  -27.5320  -32.5260   25.7540 C   0  0  0  0  0  1  0  0  0  0  0  0
  -25.4960  -33.8510   24.1820 N   0  0  0  0  0  0  0  0  0  0  0  0
  -25.8960  -34.9420   23.5070 C   0  0  0  0  0  0  0  0  0  0  0  0
  -26.6010  -34.8910   22.4950 O   0  0  0  0  0  0  0  0  0  0  0  0
  -24.8110  -33.9680   24.9110 H   0  0  0  0  0  0  0  0  0  0  0  0
  -24.1470  -36.7160   23.2800 C   0  0  0  0  0  1  0  0  0  0  0  0
  -25.4200  -36.3060   24.0340 C   0  0  0  0  0  3  0  0  0  0  0  0
  -27.5610  -37.1690   24.8520 C   0  0  0  0  0  1  0  0  0  0  0  0
  -26.4390  -37.3810   23.9440 N   0  0  0  0  0  0  0  0  0  0  0  0
  -26.0290  -38.2920   24.1250 H   0  0  0  0  0  0  0  0  0  0  0  0
  1 54  1  0
  1  2  1  0
  2  4  2  0
  2  3  1  0
  3  5  1  0
  3  6  1  0
  8  9  1  0
  8  7  1  0
 10 11  1  0
 12 13  2  0
 12 11  1  0
 14 22  1  0
 15 20  1  0
 16 17  1  0
 16 15  1  0
 18 17  1  0
 18 27  1  0
 18 19  1  0
 20 14  1  0
 20 19  1  0
 21 14  2  0
 22 13  1  0
 23 22  1  0
 24 25  2  0
 25 44  1  0
 26 25  1  0
 26 29  1  0
 27 28  1  0
 27 24  1  0
 28 26  2  0
 29 30  1  0
 30 31  2  0
 32 35  1  0
 32 31  1  0
 33 32  2  0
 34 33  1  0
 34 29  2  0
 35 36  1  0
 36 37  1  0
 37 38  2  0
 39 38  1  0
 39 43  1  0
 40 39  2  0
 41 36  2  0
 41 40  1  0
 42 41  1  0
 44 45  1  0
 45 48  1  0
 45 47  1  0
 46 44  2  0
 49 50  1  0
 49 24  1  0
 51 49  1  0
 53 54  1  0
 54 52  1  0
 55 57  1  0
 55  1  1  0
 56 55  1  0
 58 59  1  0
 58 55  1  0
 59 60  1  0
 60 61  1  0
 61 62  1  0
 63 62  1  0
 64 75  2  0
 65 63  1  0
 65 70  1  0
 66 76  1  0
 66 74  1  0
 67 73  1  0
 67 69  1  0
 68 74  1  0
 69 70  2  0
 69 68  1  0
 71 65  2  0
 72 71  1  0
 72 67  2  0
 73 66  1  0
 74 64  1  0
 76 77  1  0
 76 78  2  0
 77 81  1  0
 79 77  1  0
 80 89  2  0
 80 85  1  0
 81 85  1  0
 82 81  2  0
 83 84  2  0
 83 82  1  0
 84 80  1  0
 85 86  2  0
 86 87  1  0
 88 87  2  0
 89 88  1  0
 90 64  1  0
 90 95  1  0
 90 91  1  0
 91 94  1  1
 91 92  1  0
 93 91  1  0
 95 98  1  0
 96100  1  0
 96 95  1  0
 97 96  2  0
100 99  1  0
102100  1  0
102103  1  0
102101  1  0
M  ISO  4  14 100  22 100  62 101  63 101
M  END
>  <TORSDO>  (23) 
F 32

>  <SCORE>  (23) 
17.200

>  <name>  (23) 
22

>  <ligand_id>  (23) 
22

>  <original_smiles>  (23) 
[H]c1c([H])c([H])c2c(c1[H])C([H])([H])C([H])([H])C([H])([H])C2([H])N([H])C(=O)C1([H])N(C(=O)C([H])(N([H])C(=O)C([H])(N([H])C([H])([H])[H])C([H])([H])[H])C(C([H])([H])[H])(C([H])([H])[H])C([H])([H])[H])C([H])([H])c2c([H])c(OC([H])([H])C([H])([H])OC([H])([H])C([H])([H])[N+]([H])([H])C([H])(C(=O)N([H])C([H])([H])C([H])([H])OC([H])([H])C([H])([H])OC([H])([H])C([H])([H])N([H])C(=O)N3C([H])([H])C([H])([H])C([H])([H])C([H])(n4nc(-c5c([H])c([H])c(Oc6c([H])c([H])c(F)c([H])c6F)c([H])c5[H])c(C(=O)N([H])[H])c4N([H])[H])C3([H])[H])C([H])(C([H])([H])[H])C([H])([H])[H])c([H])c([H])c2C1([H])[H]

>  <smiles>  (23) 
[H]c1c([H])c([H])c2c(c1[H])C([H])([H])C([H])([H])C([H])([H])C2([H])N([H])C(=O)C1([H])N(C(=O)C([H])(N([H])C(=O)C([H])(N([H])C([H])([H])[H])C([H])([H])[H])C(C([H])([H])[H])(C([H])([H])[H])C([H])([H])[H])C([H])([H])c2c([H])c(OC([H])([H])C([H])([H])OC([H])([H])C([H])([H])[N+]([H])([H])C([H])(C(=O)N([H])C([H])([H])C([H])([H])OC([H])([H])C([H])([H])OC([H])([H])C([H])([H])N([H])C(=O)N3C([H])([H])C([H])([H])C([H])([H])C([H])(n4nc(-c5c([H])c([H])c(Oc6c([H])c([H])c(F)c([H])c6F)c([H])c5[H])c(C(=O)N([H])[H])c4N([H])[H])C3([H])[H])C([H])(C([H])([H])[H])C([H])([H])[H])c([H])c([H])c2C1([H])[H]

$$$$
23:0:0
     RDKit          3D

100107  0  0  1  0  0  0  0  0999 V2000
  -28.8970  -21.0680   15.3090 C   0  0  0  0  0  0  0  0  0  0  0  0
  -28.8640  -19.7470   15.5010 N   0  0  0  0  0  0  0  0  0  0  0  0
  -28.4170  -21.6080   14.3100 O   0  0  0  0  0  0  0  0  0  0  0  0
  -29.2600  -19.3850   16.3580 H   0  0  0  0  0  0  0  0  0  0  0  0
  -29.5430  -21.7490   16.4120 C   0  0  0  0  0  3  0  0  0  0  0  0
  -29.8540  -23.0560   16.3210 C   0  0  0  0  0  3  0  0  0  0  0  0
  -30.5240  -23.8610   17.4090 C   0  0  0  0  0  2  0  0  0  0  0  0
  -29.7390  -25.0060   17.7080 O   0  0  0  0  0  0  0  0  0  0  0  0
  -30.5120  -26.1550   18.0330 C   0  0  0  0  0  2  0  0  0  0  0  0
  -29.5710  -27.3150   18.3750 C   0  0  0  0  0  2  0  0  0  0  0  0
  -28.9220  -27.0440   19.6110 O   0  0  0  0  0  0  0  0  0  0  0  0
  -24.9980  -31.4590   23.5620 C   0  0  0  0  0  0  0  0  0  0  0  0
  -27.7380  -27.7110   19.7660 C   0  0  0  0  0  0  0  0  0  0  0  0
  -23.8140  -30.3230   21.7070 C   0  0  0  0  0  3  0  0  0  0  0  0
  -25.2970  -29.0850   20.0440 C   0  0  0  0  0  0  0  0  0  0  0  0
  -26.3230  -30.7870   21.5650 C   0  0  0  0  0  2  0  0  0  0  0  0
  -26.4410  -29.5430   20.7120 C   0  0  0  0  0  0  0  0  0  0  0  0
  -27.6640  -28.8560   20.5830 C   0  0  0  0  0  3  0  0  0  0  0  0
  -26.5840  -27.2440   19.1070 C   0  0  0  0  0  3  0  0  0  0  0  0
  -25.3600  -27.9280   19.2440 C   0  0  0  0  0  3  0  0  0  0  0  0
  -24.0310  -29.8880   20.2330 C   0  0  0  0  0  2  0  0  0  0  0  0
  -25.0630  -30.8610   22.3390 N   0  0  0  0  0  0  0  0  0  0  0  0
  -23.9150  -31.6070   24.1440 O   0  0  0  0  0  0  0  0  0  0  0  0
  -23.1960  -29.1390   22.4840 C   0  0  0  0  0  0  0  0  0  0  0  0
  -21.8930  -28.9010   22.2730 N   0  0  0  0  0  0  0  0  0  0  0  0
  -23.8900  -28.4410   23.2300 O   0  0  0  0  0  0  0  0  0  0  0  0
  -21.3930  -29.5240   21.6540 H   0  0  0  0  0  0  0  0  0  0  0  0
  -18.6110  -27.3930   22.3510 C   0  0  0  0  0  0  0  0  0  0  0  0
  -21.1090  -27.8180   22.8650 C   0  0  0  0  0  3  0  0  0  0  0  0
  -21.3810  -26.4780   22.1440 C   0  0  0  0  0  2  0  0  0  0  0  0
  -20.3910  -26.1890   21.0110 C   0  0  0  0  0  2  0  0  0  0  0  0
  -18.9560  -26.1480   21.5490 C   0  0  0  0  0  2  0  0  0  0  0  0
  -19.6230  -28.1840   22.9560 C   0  0  0  0  0  0  0  0  0  0  0  0
  -19.2520  -29.3500   23.6600 C   0  0  0  0  0  3  0  0  0  0  0  0
  -17.8990  -29.7260   23.7680 C   0  0  0  0  0  3  0  0  0  0  0  0
  -16.9010  -28.9290   23.1820 C   0  0  0  0  0  3  0  0  0  0  0  0
  -17.2570  -27.7640   22.4800 C   0  0  0  0  0  3  0  0  0  0  0  0
  -26.2750  -32.0060   24.2750 C   0  0  0  0  0  3  0  0  0  0  0  0
  -25.9750  -33.3690   24.7330 N   0  0  0  0  0  0  0  0  0  0  0  0
  -26.3760  -34.4860   24.1100 C   0  0  0  0  0  0  0  0  0  0  0  0
  -27.1080  -34.4720   23.1160 O   0  0  0  0  0  0  0  0  0  0  0  0
  -25.3350  -33.4560   25.5090 H   0  0  0  0  0  0  0  0  0  0  0  0
  -24.7190  -36.3550   23.8300 C   0  0  0  0  0  1  0  0  0  0  0  0
  -25.8870  -35.8300   24.6790 C   0  0  0  0  0  3  0  0  0  0  0  0
  -27.9790  -36.5510   25.7430 C   0  0  0  0  0  1  0  0  0  0  0  0
  -26.9490  -36.8570   24.7540 N   0  0  0  0  0  0  0  0  0  0  0  0
  -26.5550  -37.7680   24.9770 H   0  0  0  0  0  0  0  0  0  0  0  0
  -26.7520  -31.1030   25.4780 C   0  0  1  0  0  0  0  0  0  0  0  0
  -25.6310  -30.7800   26.4930 C   0  0  0  0  0  1  0  0  0  0  0  0
  -27.3230  -29.7630   24.9600 C   0  0  0  0  0  1  0  0  0  0  0  0
  -27.8990  -31.8070   26.2410 C   0  0  0  0  0  1  0  0  0  0  0  0
  -28.2180  -18.7750   14.6260 C   0  0  0  0  0  2  0  0  0  0  0  0
  -26.7740  -18.5010   15.0730 C   0  0  0  0  0  2  0  0  0  0  0  0
  -26.7670  -18.1760   16.4590 O   0  0  0  0  0  0  0  0  0  0  0  0
  -26.6040  -19.3000   17.3170 C   0  0  0  0  0  2  0  0  0  0  0  0
  -26.8110  -18.8530   18.7670 C   0  0  0  0  0  2  0  0  0  0  0  0
  -28.1930  -18.5850   18.9900 O   0  0  0  0  0  0  0  0  0  0  0  0
  -28.3990  -17.7380   20.1130 C   0  0  0  0  0  2  0  0  0  0  0  0
  -29.8620  -17.7850   20.5970 C   0  0  0  0  0  2  0  0  0  0  0  0
  -30.5110  -16.5250   20.4320 O   0  0  0  0  0  0  0  0  0  0  0  0
  -31.6650  -16.4090   21.2630 C   0  0  0  0  0  2  0  0  0  0  0  0
  -32.5650  -15.2530   20.7970 C   0  0  0  0  0  2  0  0  0  0  0  0
  -32.3090  -12.8430   20.2730 C   0  0  0  0  0  0  0  0  0  0  0  0
  -31.4930  -10.8530   19.0840 C   0  0  0  0  0  2  0  0  0  0  0  0
  -30.6350  -11.3240   17.8930 C   0  0  0  0  0  2  0  0  0  0  0  0
  -29.1730  -11.5460   18.3290 C   0  0  0  0  0  2  0  0  0  0  0  0
  -29.0570  -12.4190   19.6070 C   0  0  0  0  0  3  0  0  0  0  0  0
  -30.0150  -11.9070   20.7060 C   0  0  0  0  0  2  0  0  0  0  0  0
  -31.3740  -11.8700   20.1380 N   0  0  0  0  0  0  0  0  0  0  0  0
  -33.4410  -12.7780   19.7890 O   0  0  0  0  0  0  0  0  0  0  0  0
  -31.8580  -13.9760   20.8260 N   0  0  0  0  0  0  0  0  0  0  0  0
  -30.9040  -13.9800   21.1570 H   0  0  0  0  0  0  0  0  0  0  0  0
  -26.8870  -13.6020   20.3280 C   0  0  0  0  0  0  0  0  0  0  0  0
  -25.6580  -13.1210   20.6890 C   0  0  0  0  0  0  0  0  0  0  0  0
  -25.7680  -11.6980   20.6540 C   0  0  0  0  0  0  0  0  0  0  0  0
  -27.6780  -12.4900   20.0850 N   0  0  0  0  0  0  0  0  0  0  0  0
  -27.0070  -11.3390   20.3380 N   0  0  0  0  0  0  0  0  0  0  0  0
  -24.7550  -10.6550   20.8450 C   0  0  0  0  0  0  0  0  0  0  0  0
  -24.9430   -9.6030   21.7700 C   0  0  0  0  0  3  0  0  0  0  0  0
  -23.9440   -8.6220   21.9480 C   0  0  0  0  0  3  0  0  0  0  0  0
  -22.7430   -8.6880   21.2020 C   0  0  0  0  0  0  0  0  0  0  0  0
  -22.5710   -9.7270   20.2690 C   0  0  0  0  0  3  0  0  0  0  0  0
  -23.5670  -10.6990   20.0880 C   0  0  0  0  0  3  0  0  0  0  0  0
  -21.7290   -7.7650   21.2900 O   0  0  0  0  0  0  0  0  0  0  0  0
  -21.4740   -7.0870   22.4540 C   0  0  0  0  0  0  0  0  0  0  0  0
  -21.1990   -7.7610   23.6650 C   0  0  0  0  0  3  0  0  0  0  0  0
  -20.8740   -7.0250   24.8210 C   0  0  0  0  0  3  0  0  0  0  0  0
  -20.8110   -5.6190   24.7700 C   0  0  0  0  0  0  0  0  0  0  0  0
  -21.0830   -4.9480   23.5650 C   0  0  0  0  0  3  0  0  0  0  0  0
  -21.4100   -5.6800   22.4100 C   0  0  0  0  0  0  0  0  0  0  0  0
  -21.6470   -5.0270   21.2470 F   0  0  0  0  0  0  0  0  0  0  0  0
  -20.4920   -4.9140   25.8800 F   0  0  0  0  0  0  0  0  0  0  0  0
  -24.4260  -13.9330   20.9670 C   0  0  0  0  0  0  0  0  0  0  0  0
  -23.5520  -13.4460   21.8390 N   0  0  0  0  0  0  0  0  0  0  0  0
  -24.2540  -15.0320   20.4420 O   0  0  0  0  0  0  0  0  0  0  0  0
  -23.7040  -12.5560   22.2900 H   0  0  0  0  0  0  0  0  0  0  0  0
  -22.7230  -13.9780   22.0650 H   0  0  0  0  0  0  0  0  0  0  0  0
  -27.3940  -14.8860   20.1780 N   0  0  0  0  0  0  0  0  0  0  0  0
  -26.8260  -15.7100   20.3360 H   0  0  0  0  0  0  0  0  0  0  0  0
  -28.3570  -15.0930   19.9440 H   0  0  0  0  0  0  0  0  0  0  0  0
  1  2  1  0
  1  5  1  0
  2  4  1  0
  3  1  2  0
  6  5  2  0
  6  7  1  0
  7  8  1  0
  8  9  1  0
  9 10  1  0
 10 11  1  0
 11 13  1  0
 12 23  2  0
 13 18  1  0
 14 22  1  0
 14 24  1  0
 15 21  1  0
 15 17  1  0
 16 22  1  0
 17 16  1  0
 18 17  2  0
 19 20  1  0
 19 13  2  0
 20 15  2  0
 21 14  1  0
 22 12  1  0
 24 26  2  0
 25 24  1  0
 27 25  1  0
 28 37  2  0
 28 33  1  0
 29 25  1  0
 29 33  1  0
 30 29  1  0
 31 32  1  0
 31 30  1  0
 32 28  1  0
 33 34  2  0
 34 35  1  0
 36 35  2  0
 37 36  1  0
 38 12  1  0
 38 39  1  0
 38 48  1  0
 39 42  1  0
 40 44  1  0
 40 39  1  0
 41 40  2  0
 44 43  1  0
 44 46  1  0
 46 47  1  0
 46 45  1  0
 48 51  1  1
 48 49  1  0
 50 48  1  0
 52 53  1  0
 52  2  1  0
 53 54  1  0
 54 55  1  0
 55 56  1  0
 56 57  1  0
 57 58  1  0
 58 59  1  0
 60 59  1  0
 60 61  1  0
 62 71  1  0
 62 61  1  0
 63 71  1  0
 64 69  1  0
 65 66  1  0
 65 64  1  0
 67 66  1  0
 67 76  1  0
 67 68  1  0
 69 63  1  0
 69 68  1  0
 70 63  2  0
 71 72  1  0
 73 74  2  0
 74 93  1  0
 75 74  1  0
 75 78  1  0
 76 73  1  0
 76 77  1  0
 77 75  2  0
 78 79  1  0
 79 80  2  0
 81 84  1  0
 81 80  1  0
 82 81  2  0
 83 82  1  0
 83 78  2  0
 84 85  1  0
 85 86  1  0
 86 87  2  0
 88 87  1  0
 88 92  1  0
 89 88  2  0
 90 85  2  0
 90 89  1  0
 91 90  1  0
 93 94  1  0
 94 97  1  0
 94 96  1  0
 95 93  2  0
 98 73  1  0
 98 99  1  0
100 98  1  0
M  ISO  4  10 101  11 101  63 100  71 100
M  END
>  <TORSDO>  (24) 
F 32

>  <SCORE>  (24) 
-2.778

>  <name>  (24) 
23

>  <ligand_id>  (24) 
23

>  <original_smiles>  (24) 
[H]C(C(=O)N([H])C([H])([H])C([H])([H])OC([H])([H])C([H])([H])OC([H])([H])C([H])([H])OC([H])([H])C([H])([H])N([H])C(=O)N1C([H])([H])C([H])([H])C([H])([H])C([H])(n2nc(-c3c([H])c([H])c(Oc4c([H])c([H])c(F)c([H])c4F)c([H])c3[H])c(C(=O)N([H])[H])c2N([H])[H])C1([H])[H])=C([H])C([H])([H])OC([H])([H])C([H])([H])Oc1c([H])c([H])c2c(c1[H])C([H])([H])N(C(=O)C([H])(N([H])C(=O)C([H])(N([H])C([H])([H])[H])C([H])([H])[H])C(C([H])([H])[H])(C([H])([H])[H])C([H])([H])[H])C([H])(C(=O)N([H])C1([H])c3c([H])c([H])c([H])c([H])c3C([H])([H])C([H])([H])C1([H])[H])C2([H])[H]

>  <smiles>  (24) 
[H]C(C(=O)N([H])C([H])([H])C([H])([H])OC([H])([H])C([H])([H])OC([H])([H])C([H])([H])OC([H])([H])C([H])([H])N([H])C(=O)N1C([H])([H])C([H])([H])C([H])([H])C([H])(n2nc(-c3c([H])c([H])c(Oc4c([H])c([H])c(F)c([H])c4F)c([H])c3[H])c(C(=O)N([H])[H])c2N([H])[H])C1([H])[H])=C([H])C([H])([H])OC([H])([H])C([H])([H])Oc1c([H])c([H])c2c(c1[H])C([H])([H])N(C(=O)C([H])(N([H])C(=O)C([H])(N([H])C([H])([H])[H])C([H])([H])[H])C(C([H])([H])[H])(C([H])([H])[H])C([H])([H])[H])C([H])(C(=O)N([H])C1([H])c3c([H])c([H])c([H])c([H])c3C([H])([H])C([H])([H])C1([H])[H])C2([H])[H]

$$$$
24:0:0
     RDKit          3D

104111  0  0  1  0  0  0  0  0999 V2000
  -28.6480  -22.0770   18.6530 C   0  0  0  0  0  0  0  0  0  0  0  0
  -27.3170  -21.9610   18.5800 N   0  0  0  0  0  0  0  0  0  0  0  0
  -29.3950  -21.9710   17.6760 O   0  0  0  0  0  0  0  0  0  0  0  0
  -26.7910  -21.9760   19.4430 H   0  0  0  0  0  0  0  0  0  0  0  0
  -29.2200  -22.3820   20.0820 C   0  0  0  0  0  0  0  0  0  0  0  0
  -28.4460  -23.1590   20.8590 N   0  0  0  0  0  0  0  0  0  0  0  0
  -30.3340  -21.9720   20.4190 O   0  0  0  0  0  0  0  0  0  0  0  0
  -27.5880  -23.5010   20.4540 H   0  0  0  0  0  0  0  0  0  0  0  0
  -28.8190  -22.6910   23.2410 C   0  0  0  0  0  1  0  0  0  0  0  0
  -28.7940  -23.7610   22.1420 C   0  0  0  0  0  3  0  0  0  0  0  0
  -28.0750  -25.7680   23.6590 C   0  0  0  0  0  1  0  0  0  0  0  0
  -27.7720  -24.9000   22.4280 C   0  0  0  0  0  3  0  0  0  0  0  0
  -27.5480  -25.7400   21.3000 O   0  0  0  0  0  0  0  0  0  0  0  0
  -28.6760  -26.3560   20.6850 C   0  0  0  0  0  2  0  0  0  0  0  0
  -28.5260  -26.1540   19.1660 C   0  0  0  0  0  2  0  0  0  0  0  0
  -28.1400  -27.3500   18.5250 O   0  0  0  0  0  0  0  0  0  0  0  0
  -24.4350  -31.4670   22.9310 C   0  0  0  0  0  0  0  0  0  0  0  0
  -26.9020  -27.8450   18.8430 C   0  0  0  0  0  0  0  0  0  0  0  0
  -23.0950  -30.2370   21.2520 C   0  0  0  0  0  3  0  0  0  0  0  0
  -24.4250  -29.0500   19.4350 C   0  0  0  0  0  0  0  0  0  0  0  0
  -25.5350  -30.8410   20.7910 C   0  0  0  0  0  2  0  0  0  0  0  0
  -25.6110  -29.6020   19.9290 C   0  0  0  0  0  0  0  0  0  0  0  0
  -26.8510  -29.0130   19.6230 C   0  0  0  0  0  3  0  0  0  0  0  0
  -25.7010  -27.2660   18.3740 C   0  0  0  0  0  3  0  0  0  0  0  0
  -24.4600  -27.8720   18.6600 C   0  0  0  0  0  3  0  0  0  0  0  0
  -23.1470  -29.7800   19.7710 C   0  0  0  0  0  2  0  0  0  0  0  0
  -24.3800  -30.8560   21.7150 N   0  0  0  0  0  0  0  0  0  0  0  0
  -23.4260  -31.5710   23.6400 O   0  0  0  0  0  0  0  0  0  0  0  0
  -22.6430  -29.0370   22.1130 C   0  0  0  0  0  0  0  0  0  0  0  0
  -21.3390  -28.7220   22.0530 N   0  0  0  0  0  0  0  0  0  0  0  0
  -23.4550  -28.3980   22.7860 O   0  0  0  0  0  0  0  0  0  0  0  0
  -20.7400  -29.3000   21.4800 H   0  0  0  0  0  0  0  0  0  0  0  0
  -18.1870  -27.0190   22.4910 C   0  0  0  0  0  0  0  0  0  0  0  0
  -20.6900  -27.6090   22.7400 C   0  0  0  0  0  3  0  0  0  0  0  0
  -20.9740  -26.2710   22.0200 C   0  0  0  0  0  2  0  0  0  0  0  0
  -19.8960  -25.8930   21.0000 C   0  0  0  0  0  2  0  0  0  0  0  0
  -18.5310  -25.7780   21.6830 C   0  0  0  0  0  2  0  0  0  0  0  0
  -19.2010  -27.8870   22.9720 C   0  0  0  0  0  0  0  0  0  0  0  0
  -18.8290  -29.0470   23.6860 C   0  0  0  0  0  3  0  0  0  0  0  0
  -17.4730  -29.3400   23.9250 C   0  0  0  0  0  3  0  0  0  0  0  0
  -16.4730  -28.4660   23.4640 C   0  0  0  0  0  3  0  0  0  0  0  0
  -16.8310  -27.3070   22.7520 C   0  0  0  0  0  3  0  0  0  0  0  0
  -25.7590  -32.0900   23.4790 C   0  0  0  0  0  3  0  0  0  0  0  0
  -26.4460  -31.2110   24.5960 C   0  0  1  0  0  0  0  0  0  0  0  0
  -25.4870  -30.8130   25.7420 C   0  0  0  0  0  1  0  0  0  0  0  0
  -27.0290  -29.9140   23.9900 C   0  0  0  0  0  1  0  0  0  0  0  0
  -27.6380  -31.9820   25.2130 C   0  0  0  0  0  1  0  0  0  0  0  0
  -25.4350  -33.4270   23.9940 N   0  0  0  0  0  0  0  0  0  0  0  0
  -25.6830  -34.5720   23.3450 C   0  0  0  0  0  0  0  0  0  0  0  0
  -26.2860  -34.6150   22.2680 O   0  0  0  0  0  0  0  0  0  0  0  0
  -24.8860  -33.4650   24.8400 H   0  0  0  0  0  0  0  0  0  0  0  0
  -23.8900  -36.3340   23.3140 C   0  0  0  0  0  1  0  0  0  0  0  0
  -25.1890  -35.8780   23.9960 C   0  0  0  0  0  3  0  0  0  0  0  0
  -27.3470  -36.7230   24.8010 C   0  0  0  0  0  1  0  0  0  0  0  0
  -26.1850  -36.9690   23.9530 N   0  0  0  0  0  0  0  0  0  0  0  0
  -25.7670  -37.8520   24.2350 H   0  0  0  0  0  0  0  0  0  0  0  0
  -26.4970  -21.6690   17.4110 C   0  0  0  0  0  2  0  0  0  0  0  0
  -25.8040  -20.3160   17.6340 C   0  0  0  0  0  2  0  0  0  0  0  0
  -25.6520  -20.1260   19.0440 O   0  0  0  0  0  0  0  0  0  0  0  0
  -26.0070  -18.8380   19.5360 C   0  0  0  0  0  2  0  0  0  0  0  0
  -27.4600  -18.7970   20.0560 C   0  0  0  0  0  2  0  0  0  0  0  0
  -28.4780  -18.2770   19.0160 C   0  0  0  0  0  2  0  0  0  0  0  0
  -29.8400  -18.3820   19.4080 O   0  0  0  0  0  0  0  0  0  0  0  0
  -30.1250  -18.0720   20.7630 C   0  0  0  0  0  2  0  0  0  0  0  0
  -31.4790  -17.3380   20.8200 C   0  0  0  0  0  2  0  0  0  0  0  0
  -31.3400  -15.8450   20.4610 C   0  0  0  0  0  2  0  0  0  0  0  0
  -32.8020  -13.8670   20.4080 C   0  0  0  0  0  0  0  0  0  0  0  0
  -32.2230  -11.5530   19.7560 C   0  0  0  0  0  2  0  0  0  0  0  0
  -31.3150  -11.5470   18.5110 C   0  0  0  0  0  2  0  0  0  0  0  0
  -29.8330  -11.7060   18.9040 C   0  0  0  0  0  2  0  0  0  0  0  0
  -29.6020  -12.8890   19.8840 C   0  0  0  0  0  3  0  0  0  0  0  0
  -30.6040  -12.7980   21.0590 C   0  0  0  0  0  2  0  0  0  0  0  0
  -31.9650  -12.8010   20.4980 N   0  0  0  0  0  0  0  0  0  0  0  0
  -33.9070  -13.8100   19.8640 O   0  0  0  0  0  0  0  0  0  0  0  0
  -32.4160  -15.0070   21.0070 N   0  0  0  0  0  0  0  0  0  0  0  0
  -33.2180  -15.5520   21.2910 H   0  0  0  0  0  0  0  0  0  0  0  0
  -27.4320  -14.0390   20.6680 C   0  0  0  0  0  0  0  0  0  0  0  0
  -26.2010  -13.5400   20.9940 C   0  0  0  0  0  0  0  0  0  0  0  0
  -26.2980  -12.1220   20.8490 C   0  0  0  0  0  0  0  0  0  0  0  0
  -28.2200  -12.9400   20.3560 N   0  0  0  0  0  0  0  0  0  0  0  0
  -27.5360  -11.7790   20.5170 N   0  0  0  0  0  0  0  0  0  0  0  0
  -25.2720  -11.0780   20.9500 C   0  0  0  0  0  0  0  0  0  0  0  0
  -25.4420   -9.9520   21.7850 C   0  0  0  0  0  3  0  0  0  0  0  0
  -24.4310   -8.9710   21.8800 C   0  0  0  0  0  3  0  0  0  0  0  0
  -23.2340   -9.1110   21.1390 C   0  0  0  0  0  0  0  0  0  0  0  0
  -23.0780  -10.2240   20.2950 C   0  0  0  0  0  3  0  0  0  0  0  0
  -24.0850  -11.1980   20.1980 C   0  0  0  0  0  3  0  0  0  0  0  0
  -22.2130   -8.1930   21.1430 O   0  0  0  0  0  0  0  0  0  0  0  0
  -21.9810   -7.3830   22.2250 C   0  0  0  0  0  0  0  0  0  0  0  0
  -21.7090   -7.9120   23.5060 C   0  0  0  0  0  3  0  0  0  0  0  0
  -21.4140   -7.0440   24.5750 C   0  0  0  0  0  3  0  0  0  0  0  0
  -21.3750   -5.6540   24.3670 C   0  0  0  0  0  0  0  0  0  0  0  0
  -21.6360   -5.1250   23.0890 C   0  0  0  0  0  3  0  0  0  0  0  0
  -21.9360   -5.9880   22.0210 C   0  0  0  0  0  0  0  0  0  0  0  0
  -22.1700   -5.4770   20.7880 F   0  0  0  0  0  0  0  0  0  0  0  0
  -21.0810   -4.8210   25.3920 F   0  0  0  0  0  0  0  0  0  0  0  0
  -24.9700  -14.3350   21.3240 C   0  0  0  0  0  0  0  0  0  0  0  0
  -24.0900  -13.7980   22.1590 N   0  0  0  0  0  0  0  0  0  0  0  0
  -24.8050  -15.4710   20.8740 O   0  0  0  0  0  0  0  0  0  0  0  0
  -24.2230  -12.8730   22.5420 H   0  0  0  0  0  0  0  0  0  0  0  0
  -23.2650  -14.3180   22.4280 H   0  0  0  0  0  0  0  0  0  0  0  0
  -27.9360  -15.3330   20.5830 N   0  0  0  0  0  0  0  0  0  0  0  0
  -27.3140  -16.1270   20.6850 H   0  0  0  0  0  0  0  0  0  0  0  0
  -28.8260  -15.5640   20.1690 H   0  0  0  0  0  0  0  0  0  0  0  0
  1  5  1  0
  2  1  1  0
  2  4  1  0
  3  1  2  0
  5  7  2  0
  5  6  1  0
  6 10  1  0
  8  6  1  0
 10 12  1  0
 10  9  1  0
 12 11  1  0
 13 12  1  0
 14 13  1  0
 15 14  1  0
 16 18  1  0
 16 15  1  0
 17 28  2  0
 18 23  1  0
 19 27  1  0
 19 29  1  0
 20 26  1  0
 20 22  1  0
 21 27  1  0
 22 21  1  0
 23 22  2  0
 24 25  1  0
 24 18  2  0
 25 20  2  0
 26 19  1  0
 27 17  1  0
 29 31  2  0
 30 29  1  0
 32 30  1  0
 33 42  2  0
 33 38  1  0
 34 30  1  0
 34 38  1  0
 35 34  1  0
 36 37  1  0
 36 35  1  0
 37 33  1  0
 38 39  2  0
 39 40  1  0
 41 40  2  0
 42 41  1  0
 43 17  1  0
 43 48  1  0
 43 44  1  0
 44 47  1  1
 44 45  1  0
 46 44  1  0
 48 51  1  0
 49 48  1  0
 49 53  1  0
 50 49  2  0
 53 52  1  0
 55 53  1  0
 55 56  1  0
 55 54  1  0
 57 58  1  0
 57  2  1  0
 58 59  1  0
 59 60  1  0
 60 61  1  0
 62 63  1  0
 62 61  1  0
 63 64  1  0
 64 65  1  0
 66 65  1  0
 66 75  1  0
 67 73  1  0
 67 75  1  0
 68 73  1  0
 69 70  1  0
 69 68  1  0
 71 70  1  0
 71 80  1  0
 71 72  1  0
 73 72  1  0
 74 67  2  0
 75 76  1  0
 77 78  2  0
 78 97  1  0
 79 82  1  0
 79 78  1  0
 80 81  1  0
 80 77  1  0
 81 79  2  0
 82 83  1  0
 83 84  2  0
 85 88  1  0
 85 84  1  0
 86 85  2  0
 87 86  1  0
 87 82  2  0
 88 89  1  0
 89 90  1  0
 90 91  2  0
 92 91  1  0
 92 96  1  0
 93 92  2  0
 94 89  2  0
 94 93  1  0
 95 94  1  0
 97 98  1  0
 98101  1  0
 98100  1  0
 99 97  2  0
102 77  1  0
102103  1  0
104102  1  0
M  ISO  4  15 101  16 101  67 100  75 100
M  END
>  <TORSDO>  (25) 
F 32

>  <SCORE>  (25) 
-6.802

>  <name>  (25) 
24

>  <ligand_id>  (25) 
24

>  <original_smiles>  (25) 
[H]c1c([H])c([H])c2c(c1[H])C([H])([H])C([H])([H])C([H])([H])C2([H])N([H])C(=O)C1([H])N(C(=O)C([H])(N([H])C(=O)C([H])(N([H])C([H])([H])[H])C([H])([H])[H])C(C([H])([H])[H])(C([H])([H])[H])C([H])([H])[H])C([H])([H])c2c([H])c(OC([H])([H])C([H])([H])OC([H])(C([H])([H])[H])C([H])(N([H])C(=O)C(=O)N([H])C([H])([H])C([H])([H])OC([H])([H])C([H])([H])C([H])([H])OC([H])([H])C([H])([H])C([H])([H])N([H])C(=O)N3C([H])([H])C([H])([H])C([H])([H])C([H])(n4nc(-c5c([H])c([H])c(Oc6c([H])c([H])c(F)c([H])c6F)c([H])c5[H])c(C(=O)N([H])[H])c4N([H])[H])C3([H])[H])C([H])([H])[H])c([H])c([H])c2C1([H])[H]

>  <smiles>  (25) 
[H]c1c([H])c([H])c2c(c1[H])C([H])([H])C([H])([H])C([H])([H])C2([H])N([H])C(=O)C1([H])N(C(=O)C([H])(N([H])C(=O)C([H])(N([H])C([H])([H])[H])C([H])([H])[H])C(C([H])([H])[H])(C([H])([H])[H])C([H])([H])[H])C([H])([H])c2c([H])c(OC([H])([H])C([H])([H])OC([H])(C([H])([H])[H])C([H])(N([H])C(=O)C(=O)N([H])C([H])([H])C([H])([H])OC([H])([H])C([H])([H])C([H])([H])OC([H])([H])C([H])([H])C([H])([H])N([H])C(=O)N3C([H])([H])C([H])([H])C([H])([H])C([H])(n4nc(-c5c([H])c([H])c(Oc6c([H])c([H])c(F)c([H])c6F)c([H])c5[H])c(C(=O)N([H])[H])c4N([H])[H])C3([H])[H])C([H])([H])[H])c([H])c([H])c2C1([H])[H]

$$$$
25:0:0
     RDKit          3D

 99106  0  0  1  0  0  0  0  0999 V2000
  -32.5060  -24.8130   20.0700 C   0  0  0  0  0  0  0  0  0  0  0  0
  -31.2890  -24.8250   20.6320 N   0  0  0  0  0  0  0  0  0  0  0  0
  -33.4670  -24.2670   20.6140 O   0  0  0  0  0  0  0  0  0  0  0  0
  -30.5500  -25.3010   20.1330 H   0  0  0  0  0  0  0  0  0  0  0  0
  -30.9060  -24.1510   21.8710 C   0  0  0  0  0  2  0  0  0  0  0  0
  -30.1120  -22.8640   21.5740 C   0  0  0  0  0  2  0  0  0  0  0  0
  -30.8560  -21.9530   20.7670 O   0  0  0  0  0  0  0  0  0  0  0  0
  -31.8340  -21.1870   21.4700 C   0  0  0  0  0  2  0  0  0  0  0  0
  -31.2320  -19.9070   22.0800 C   0  0  0  0  0  2  0  0  0  0  0  0
  -30.9320  -18.9840   21.0410 O   0  0  0  0  0  0  0  0  0  0  0  0
  -30.6330  -17.6730   21.5030 C   0  0  0  0  0  2  0  0  0  0  0  0
  -30.1950  -16.8490   20.2850 C   0  0  0  0  0  2  0  0  0  0  0  0
  -30.6480  -14.4120   20.1530 C   0  0  0  0  0  0  0  0  0  0  0  0
  -30.2900  -12.2660   19.0150 C   0  0  0  0  0  2  0  0  0  0  0  0
  -29.3180  -12.5120   17.8420 C   0  0  0  0  0  2  0  0  0  0  0  0
  -27.8540  -12.3930   18.3140 C   0  0  0  0  0  2  0  0  0  0  0  0
  -27.5660  -13.2170   19.5990 C   0  0  0  0  0  3  0  0  0  0  0  0
  -28.6520  -12.9660   20.6720 C   0  0  0  0  0  2  0  0  0  0  0  0
  -29.9670  -13.2410   20.0660 N   0  0  0  0  0  0  0  0  0  0  0  0
  -31.7630  -14.5900   19.6610 O   0  0  0  0  0  0  0  0  0  0  0  0
  -29.9270  -15.4440   20.6050 N   0  0  0  0  0  0  0  0  0  0  0  0
  -29.0170  -15.2240   20.9820 H   0  0  0  0  0  0  0  0  0  0  0  0
  -25.1860  -13.8440   20.3610 C   0  0  0  0  0  0  0  0  0  0  0  0
  -24.1260  -13.0810   20.7710 C   0  0  0  0  0  0  0  0  0  0  0  0
  -24.5830  -11.7270   20.7480 C   0  0  0  0  0  0  0  0  0  0  0  0
  -26.2240  -12.9570   20.1170 N   0  0  0  0  0  0  0  0  0  0  0  0
  -25.8640  -11.6790   20.4040 N   0  0  0  0  0  0  0  0  0  0  0  0
  -23.8610  -10.4710   20.9810 C   0  0  0  0  0  0  0  0  0  0  0  0
  -24.3110   -9.5240   21.9280 C   0  0  0  0  0  3  0  0  0  0  0  0
  -23.5890   -8.3300   22.1450 C   0  0  0  0  0  3  0  0  0  0  0  0
  -22.4040   -8.0760   21.4170 C   0  0  0  0  0  0  0  0  0  0  0  0
  -21.9710   -9.0110   20.4590 C   0  0  0  0  0  3  0  0  0  0  0  0
  -22.6950  -10.1960   20.2400 C   0  0  0  0  0  3  0  0  0  0  0  0
  -21.6520   -6.9320   21.5430 O   0  0  0  0  0  0  0  0  0  0  0  0
  -21.6210   -6.2150   22.7120 C   0  0  0  0  0  0  0  0  0  0  0  0
  -21.2110   -6.7950   23.9320 C   0  0  0  0  0  3  0  0  0  0  0  0
  -21.1270   -6.0050   25.0950 C   0  0  0  0  0  3  0  0  0  0  0  0
  -21.4450   -4.6340   25.0400 C   0  0  0  0  0  0  0  0  0  0  0  0
  -21.8500   -4.0540   23.8270 C   0  0  0  0  0  3  0  0  0  0  0  0
  -21.9350   -4.8410   22.6650 C   0  0  0  0  0  0  0  0  0  0  0  0
  -22.3060   -4.2720   21.4940 F   0  0  0  0  0  0  0  0  0  0  0  0
  -21.3580   -3.8720   26.1560 F   0  0  0  0  0  0  0  0  0  0  0  0
  -22.7380  -13.5660   21.0730 C   0  0  0  0  0  0  0  0  0  0  0  0
  -22.0290  -12.8850   21.9670 N   0  0  0  0  0  0  0  0  0  0  0  0
  -22.2890  -14.5850   20.5490 O   0  0  0  0  0  0  0  0  0  0  0  0
  -22.4060  -12.0650   22.4180 H   0  0  0  0  0  0  0  0  0  0  0  0
  -21.0970  -13.1920   22.2060 H   0  0  0  0  0  0  0  0  0  0  0  0
  -25.3480  -15.2120   20.1600 N   0  0  0  0  0  0  0  0  0  0  0  0
  -24.5800  -15.8630   20.2760 H   0  0  0  0  0  0  0  0  0  0  0  0
  -26.1810  -15.6480   19.7850 H   0  0  0  0  0  0  0  0  0  0  0  0
  -32.6250  -25.4620   18.6720 C   0  0  0  0  0  3  0  0  0  0  0  0
  -33.9680  -25.1980   17.9290 C   0  0  0  0  0  2  0  0  0  0  0  0
  -35.6230  -26.2180   19.3570 C   0  0  0  0  0  1  0  0  0  0  0  0
  -34.9890  -26.1900   18.0860 O   0  0  0  0  0  0  0  0  0  0  0  0
  -32.1860  -26.9550   18.6330 C   0  0  0  0  0  2  0  0  0  0  0  0
  -31.1410  -27.2940   17.5410 C   0  0  0  0  0  2  0  0  0  0  0  0
  -29.7340  -27.6130   18.0870 C   0  0  0  0  0  2  0  0  0  0  0  0
  -28.9740  -26.3950   18.6450 C   0  0  0  0  0  2  0  0  0  0  0  0
  -28.4370  -26.7080   19.9260 O   0  0  0  0  0  0  0  0  0  0  0  0
  -24.5770  -31.7450   23.1200 C   0  0  0  0  0  0  0  0  0  0  0  0
  -27.2550  -27.4080   19.9380 C   0  0  0  0  0  0  0  0  0  0  0  0
  -23.3770  -30.3660   21.4490 C   0  0  0  0  0  3  0  0  0  0  0  0
  -24.8390  -28.8630   19.9980 C   0  0  0  0  0  0  0  0  0  0  0  0
  -25.8960  -30.7470   21.2610 C   0  0  0  0  0  2  0  0  0  0  0  0
  -25.9900  -29.3890   20.6000 C   0  0  0  0  0  0  0  0  0  0  0  0
  -27.1960  -28.6590   20.5840 C   0  0  0  0  0  3  0  0  0  0  0  0
  -26.0880  -26.8780   19.3470 C   0  0  0  0  0  3  0  0  0  0  0  0
  -24.8790  -27.6010   19.3780 C   0  0  0  0  0  3  0  0  0  0  0  0
  -23.5900  -29.7110   20.0590 C   0  0  0  0  0  2  0  0  0  0  0  0
  -24.6340  -30.9670   22.0020 N   0  0  0  0  0  0  0  0  0  0  0  0
  -23.4960  -32.0030   23.6660 O   0  0  0  0  0  0  0  0  0  0  0  0
  -22.7320  -29.3260   22.3920 C   0  0  0  0  0  0  0  0  0  0  0  0
  -21.4080  -29.1440   22.2630 N   0  0  0  0  0  0  0  0  0  0  0  0
  -23.4190  -28.6850   23.1920 O   0  0  0  0  0  0  0  0  0  0  0  0
  -20.9160  -29.7110   21.5880 H   0  0  0  0  0  0  0  0  0  0  0  0
  -18.0350  -27.9440   22.7460 C   0  0  0  0  0  0  0  0  0  0  0  0
  -20.5940  -28.1900   23.0160 C   0  0  0  0  0  3  0  0  0  0  0  0
  -20.6930  -26.7730   22.4070 C   0  0  0  0  0  2  0  0  0  0  0  0
  -19.5870  -26.4750   21.3880 C   0  0  0  0  0  2  0  0  0  0  0  0
  -18.2080  -26.6090   22.0400 C   0  0  0  0  0  2  0  0  0  0  0  0
  -19.1570  -28.6940   23.1900 C   0  0  0  0  0  0  0  0  0  0  0  0
  -18.9430  -29.9440   23.8080 C   0  0  0  0  0  3  0  0  0  0  0  0
  -17.6410  -30.4450   23.9880 C   0  0  0  0  0  3  0  0  0  0  0  0
  -16.5330  -29.6920   23.5620 C   0  0  0  0  0  3  0  0  0  0  0  0
  -16.7310  -28.4430   22.9470 C   0  0  0  0  0  3  0  0  0  0  0  0
  -25.8630  -32.3680   23.7490 C   0  0  0  0  0  3  0  0  0  0  0  0
  -26.3790  -31.5810   25.0150 C   0  0  1  0  0  0  0  0  0  0  0  0
  -25.2860  -31.3290   26.0790 C   0  0  0  0  0  1  0  0  0  0  0  0
  -26.9650  -30.2110   24.6030 C   0  0  0  0  0  1  0  0  0  0  0  0
  -27.5300  -32.3670   25.6880 C   0  0  0  0  0  1  0  0  0  0  0  0
  -25.5550  -33.7630   24.0940 N   0  0  0  0  0  0  0  0  0  0  0  0
  -25.8990  -34.8220   23.3500 C   0  0  0  0  0  0  0  0  0  0  0  0
  -26.5800  -34.7290   22.3260 O   0  0  0  0  0  0  0  0  0  0  0  0
  -24.9520  -33.9090   24.8910 H   0  0  0  0  0  0  0  0  0  0  0  0
  -24.1850  -36.6250   22.9860 C   0  0  0  0  0  1  0  0  0  0  0  0
  -25.4090  -36.2060   23.8160 C   0  0  0  0  0  3  0  0  0  0  0  0
  -27.5300  -37.0690   24.7010 C   0  0  0  0  0  1  0  0  0  0  0  0
  -26.4480  -37.2560   23.7380 N   0  0  0  0  0  0  0  0  0  0  0  0
  -26.0420  -38.1760   23.8920 H   0  0  0  0  0  0  0  0  0  0  0  0
  1  3  2  0
  1  2  1  0
  2  5  1  0
  4  2  1  0
  6  5  1  0
  7  8  1  0
  7  6  1  0
  8  9  1  0
 10 11  1  0
 10  9  1  0
 12 21  1  0
 12 11  1  0
 13 21  1  0
 14 19  1  0
 15 16  1  0
 15 14  1  0
 17 16  1  0
 17 26  1  0
 17 18  1  0
 19 13  1  0
 19 18  1  0
 20 13  2  0
 21 22  1  0
 23 24  2  0
 24 43  1  0
 25 24  1  0
 25 28  1  0
 26 23  1  0
 26 27  1  0
 27 25  2  0
 28 29  1  0
 29 30  2  0
 31 34  1  0
 31 30  1  0
 32 31  2  0
 33 32  1  0
 33 28  2  0
 34 35  1  0
 35 36  1  0
 36 37  2  0
 38 37  1  0
 38 42  1  0
 39 38  2  0
 40 35  2  0
 40 39  1  0
 41 40  1  0
 43 44  1  0
 44 47  1  0
 44 46  1  0
 45 43  2  0
 48 49  1  0
 48 23  1  0
 50 48  1  0
 51 52  1  0
 51  1  1  0
 52 54  1  0
 54 53  1  0
 55 51  1  0
 56 57  1  0
 56 55  1  0
 57 58  1  0
 58 59  1  0
 59 61  1  0
 60 71  2  0
 61 66  1  0
 62 70  1  0
 62 72  1  0
 63 69  1  0
 63 65  1  0
 64 70  1  0
 65 64  1  0
 66 65  2  0
 67 68  1  0
 67 61  2  0
 68 63  2  0
 69 62  1  0
 70 60  1  0
 72 74  2  0
 73 72  1  0
 75 73  1  0
 76 85  2  0
 76 81  1  0
 77 73  1  0
 77 81  1  0
 78 77  1  0
 79 80  1  0
 79 78  1  0
 80 76  1  0
 81 82  2  0
 82 83  1  0
 84 83  2  0
 85 84  1  0
 86 60  1  0
 86 91  1  0
 86 87  1  0
 87 90  1  1
 87 88  1  0
 89 87  1  0
 91 94  1  0
 92 96  1  0
 92 91  1  0
 93 92  2  0
 96 95  1  0
 98 96  1  0
 98 99  1  0
 98 97  1  0
M  ISO  4  13 100  21 100  58 101  59 101
M  END
>  <TORSDO>  (26) 
F 31

>  <SCORE>  (26) 
-10.064

>  <name>  (26) 
25

>  <ligand_id>  (26) 
25

>  <original_smiles>  (26) 
[H]c1c([H])c([H])c2c(c1[H])C([H])([H])C([H])([H])C([H])([H])C2([H])N([H])C(=O)C1([H])N(C(=O)C([H])(N([H])C(=O)C([H])(N([H])C([H])([H])[H])C([H])([H])[H])C(C([H])([H])[H])(C([H])([H])[H])C([H])([H])[H])C([H])([H])c2c([H])c(OC([H])([H])C([H])([H])C([H])([H])C([H])([H])C([H])(C(=O)N([H])C([H])([H])C([H])([H])OC([H])([H])C([H])([H])OC([H])([H])C([H])([H])N([H])C(=O)N3C([H])([H])C([H])([H])C([H])([H])C([H])(n4nc(-c5c([H])c([H])c(Oc6c([H])c([H])c(F)c([H])c6F)c([H])c5[H])c(C(=O)N([H])[H])c4N([H])[H])C3([H])[H])C([H])([H])OC([H])([H])[H])c([H])c([H])c2C1([H])[H]

>  <smiles>  (26) 
[H]c1c([H])c([H])c2c(c1[H])C([H])([H])C([H])([H])C([H])([H])C2([H])N([H])C(=O)C1([H])N(C(=O)C([H])(N([H])C(=O)C([H])(N([H])C([H])([H])[H])C([H])([H])[H])C(C([H])([H])[H])(C([H])([H])[H])C([H])([H])[H])C([H])([H])c2c([H])c(OC([H])([H])C([H])([H])C([H])([H])C([H])([H])C([H])(C(=O)N([H])C([H])([H])C([H])([H])OC([H])([H])C([H])([H])OC([H])([H])C([H])([H])N([H])C(=O)N3C([H])([H])C([H])([H])C([H])([H])C([H])(n4nc(-c5c([H])c([H])c(Oc6c([H])c([H])c(F)c([H])c6F)c([H])c5[H])c(C(=O)N([H])[H])c4N([H])[H])C3([H])[H])C([H])([H])OC([H])([H])[H])c([H])c([H])c2C1([H])[H]

$$$$
26:0:0
     RDKit          3D

101108  0  0  1  0  0  0  0  0999 V2000
  -28.9320  -23.7520   22.6510 C   0  0  0  0  0  0  0  0  0  0  0  0
  -28.7980  -22.4540   22.9460 N   0  0  0  0  0  0  0  0  0  0  0  0
  -30.0280  -24.2850   22.4600 O   0  0  0  0  0  0  0  0  0  0  0  0
  -27.8550  -22.1080   23.0700 H   0  0  0  0  0  0  0  0  0  0  0  0
  -29.5580  -20.4230   24.0450 C   0  0  0  0  0  1  0  0  0  0  0  0
  -29.8540  -21.4510   22.9410 C   0  0  0  0  0  3  0  0  0  0  0  0
  -29.8390  -20.7770   21.5600 C   0  0  0  0  0  0  0  0  0  0  0  0
  -30.6240  -21.3430   20.6360 N   0  0  0  0  0  0  0  0  0  0  0  0
  -29.1100  -19.8120   21.3210 O   0  0  0  0  0  0  0  0  0  0  0  0
  -31.1540  -22.1530   20.9330 H   0  0  0  0  0  0  0  0  0  0  0  0
  -30.9560  -22.0960   18.3280 C   0  0  0  0  0  1  0  0  0  0  0  0
  -30.8020  -20.8920   19.2680 C   0  0  0  0  0  3  0  0  0  0  0  0
  -31.9690  -18.6950   19.5880 C   0  0  0  0  0  3  0  0  0  0  0  0
  -32.0090  -19.9890   19.2280 C   0  0  0  0  0  3  0  0  0  0  0  0
  -33.4790  -15.4540   19.5890 C   0  0  0  0  0  0  0  0  0  0  0  0
  -32.9430  -13.0880   19.1650 C   0  0  0  0  0  2  0  0  0  0  0  0
  -32.0070  -13.0040   17.9390 C   0  0  0  0  0  2  0  0  0  0  0  0
  -30.5300  -13.2120   18.3320 C   0  0  0  0  0  2  0  0  0  0  0  0
  -30.3230  -14.4490   19.2400 C   0  0  0  0  0  3  0  0  0  0  0  0
  -31.3370  -14.4250   20.4080 C   0  0  0  0  0  2  0  0  0  0  0  0
  -32.6940  -14.3730   19.8290 N   0  0  0  0  0  0  0  0  0  0  0  0
  -34.6070  -15.3710   19.0920 O   0  0  0  0  0  0  0  0  0  0  0  0
  -33.1520  -17.8640   19.5060 C   0  0  0  0  0  0  0  0  0  0  0  0
  -32.8180  -16.6040   19.8070 N   0  0  0  0  0  0  0  0  0  0  0  0
  -34.2790  -18.2560   19.1870 O   0  0  0  0  0  0  0  0  0  0  0  0
  -31.8770  -16.4750   20.1410 H   0  0  0  0  0  0  0  0  0  0  0  0
  -28.2040  -15.6680   20.0460 C   0  0  0  0  0  0  0  0  0  0  0  0
  -26.9530  -15.2140   20.3640 C   0  0  0  0  0  0  0  0  0  0  0  0
  -26.9940  -13.7970   20.1900 C   0  0  0  0  0  0  0  0  0  0  0  0
  -28.9450  -14.5430   19.7130 N   0  0  0  0  0  0  0  0  0  0  0  0
  -28.2170  -13.4070   19.8530 N   0  0  0  0  0  0  0  0  0  0  0  0
  -25.9230  -12.7970   20.2680 C   0  0  0  0  0  0  0  0  0  0  0  0
  -26.0630  -11.6240   21.0420 C   0  0  0  0  0  3  0  0  0  0  0  0
  -25.0100  -10.6860   21.1150 C   0  0  0  0  0  3  0  0  0  0  0  0
  -23.8020  -10.9160   20.4130 C   0  0  0  0  0  0  0  0  0  0  0  0
  -23.6790  -12.0740   19.6250 C   0  0  0  0  0  3  0  0  0  0  0  0
  -24.7300  -13.0050   19.5490 C   0  0  0  0  0  3  0  0  0  0  0  0
  -22.7360  -10.0500   20.4050 O   0  0  0  0  0  0  0  0  0  0  0  0
  -22.4560   -9.2460   21.4810 C   0  0  0  0  0  0  0  0  0  0  0  0
  -22.2190   -9.7780   22.7670 C   0  0  0  0  0  3  0  0  0  0  0  0
  -21.8680   -8.9210   23.8290 C   0  0  0  0  0  3  0  0  0  0  0  0
  -21.7420   -7.5360   23.6060 C   0  0  0  0  0  0  0  0  0  0  0  0
  -21.9710   -7.0070   22.3230 C   0  0  0  0  0  3  0  0  0  0  0  0
  -22.3230   -7.8590   21.2640 C   0  0  0  0  0  0  0  0  0  0  0  0
  -22.5230   -7.3470   20.0250 F   0  0  0  0  0  0  0  0  0  0  0  0
  -21.3980   -6.7120   24.6230 F   0  0  0  0  0  0  0  0  0  0  0  0
  -25.7610  -16.0570   20.7050 C   0  0  0  0  0  0  0  0  0  0  0  0
  -24.8380  -15.5170   21.4930 N   0  0  0  0  0  0  0  0  0  0  0  0
  -25.6650  -17.2210   20.3190 O   0  0  0  0  0  0  0  0  0  0  0  0
  -24.9290  -14.5710   21.8330 H   0  0  0  0  0  0  0  0  0  0  0  0
  -24.0310  -16.0630   21.7600 H   0  0  0  0  0  0  0  0  0  0  0  0
  -28.7610  -16.9400   19.9880 N   0  0  0  0  0  0  0  0  0  0  0  0
  -28.1710  -17.7570   20.1010 H   0  0  0  0  0  0  0  0  0  0  0  0
  -29.6590  -17.1560   19.5770 H   0  0  0  0  0  0  0  0  0  0  0  0
  -27.6170  -24.5460   22.5350 C   0  0  0  0  0  3  0  0  0  0  0  0
  -27.3630  -25.0550   21.0950 C   0  0  0  0  0  2  0  0  0  0  0  0
  -28.1590  -26.3070   20.6340 C   0  0  0  0  0  2  0  0  0  0  0  0
  -27.6720  -26.8040   19.3810 O   0  0  0  0  0  0  0  0  0  0  0  0
  -24.5110  -31.8710   23.2140 C   0  0  0  0  0  0  0  0  0  0  0  0
  -26.5710  -27.6070   19.5310 C   0  0  0  0  0  0  0  0  0  0  0  0
  -23.0470  -30.6070   21.6670 C   0  0  0  0  0  3  0  0  0  0  0  0
  -24.2440  -29.1330   19.9670 C   0  0  0  0  0  0  0  0  0  0  0  0
  -25.5280  -30.9230   21.1530 C   0  0  0  0  0  2  0  0  0  0  0  0
  -25.4840  -29.5960   20.4270 C   0  0  0  0  0  0  0  0  0  0  0  0
  -26.6530  -28.8360   20.2180 C   0  0  0  0  0  3  0  0  0  0  0  0
  -25.3250  -27.1710   19.0380 C   0  0  0  0  0  3  0  0  0  0  0  0
  -24.1570  -27.9130   19.2760 C   0  0  0  0  0  3  0  0  0  0  0  0
  -23.0470  -30.0130   20.2320 C   0  0  0  0  0  2  0  0  0  0  0  0
  -24.3870  -31.1420   22.0680 N   0  0  0  0  0  0  0  0  0  0  0  0
  -23.5210  -32.1380   23.9080 O   0  0  0  0  0  0  0  0  0  0  0  0
  -22.4970  -29.5460   22.6470 C   0  0  0  0  0  0  0  0  0  0  0  0
  -21.1890  -29.2590   22.5450 N   0  0  0  0  0  0  0  0  0  0  0  0
  -23.2400  -28.9870   23.4580 O   0  0  0  0  0  0  0  0  0  0  0  0
  -20.6420  -29.7650   21.8640 H   0  0  0  0  0  0  0  0  0  0  0  0
  -17.9970  -27.6060   22.9420 C   0  0  0  0  0  0  0  0  0  0  0  0
  -20.4680  -28.2610   23.3310 C   0  0  0  0  0  3  0  0  0  0  0  0
  -20.8160  -26.8280   22.8610 C   0  0  0  0  0  2  0  0  0  0  0  0
  -19.8330  -26.2800   21.8220 C   0  0  0  0  0  2  0  0  0  0  0  0
  -18.4110  -26.2540   22.3880 C   0  0  0  0  0  2  0  0  0  0  0  0
  -18.9630  -28.5570   23.3670 C   0  0  0  0  0  0  0  0  0  0  0  0
  -18.5230  -29.8170   23.8320 C   0  0  0  0  0  3  0  0  0  0  0  0
  -17.1490  -30.1300   23.8650 C   0  0  0  0  0  3  0  0  0  0  0  0
  -16.1990  -29.1800   23.4530 C   0  0  0  0  0  3  0  0  0  0  0  0
  -16.6250  -27.9180   23.0030 C   0  0  0  0  0  3  0  0  0  0  0  0
  -25.8900  -32.4260   23.6840 C   0  0  0  0  0  3  0  0  0  0  0  0
  -26.5390  -31.5790   24.8450 C   0  0  1  0  0  0  0  0  0  0  0  0
  -25.5750  -31.2910   26.0180 C   0  0  0  0  0  1  0  0  0  0  0  0
  -27.0460  -30.2210   24.3040 C   0  0  0  0  0  1  0  0  0  0  0  0
  -27.7720  -32.3200   25.4110 C   0  0  0  0  0  1  0  0  0  0  0  0
  -25.6910  -33.8200   24.1040 N   0  0  0  0  0  0  0  0  0  0  0  0
  -26.0060  -34.8900   23.3630 C   0  0  0  0  0  0  0  0  0  0  0  0
  -26.5700  -34.8070   22.2690 O   0  0  0  0  0  0  0  0  0  0  0  0
  -25.1900  -33.9620   24.9680 H   0  0  0  0  0  0  0  0  0  0  0  0
  -24.3560  -36.7800   23.2350 C   0  0  0  0  0  1  0  0  0  0  0  0
  -25.6330  -36.2740   23.9240 C   0  0  0  0  0  3  0  0  0  0  0  0
  -27.8780  -37.0000   24.6120 C   0  0  0  0  0  1  0  0  0  0  0  0
  -26.7100  -37.2780   23.7770 N   0  0  0  0  0  0  0  0  0  0  0  0
  -26.3670  -38.2070   24.0080 H   0  0  0  0  0  0  0  0  0  0  0  0
  -27.5180  -25.5930   23.5190 O   0  0  0  0  0  0  0  0  0  0  0  0
  -27.3860  -26.3600   25.8370 C   0  0  0  0  0  1  0  0  0  0  0  0
  -27.6060  -25.1830   24.8860 C   0  0  0  0  0  2  0  0  0  0  0  0
  1  2  1  0
  2  4  1  0
  3  1  2  0
  6  2  1  0
  6  5  1  0
  7  6  1  0
  8 10  1  0
  8  7  1  0
  9  7  2  0
 12 11  1  0
 12  8  1  0
 14 12  1  0
 14 13  2  0
 15 24  1  0
 15 21  1  0
 16 21  1  0
 17 18  1  0
 17 16  1  0
 19 18  1  0
 19 30  1  0
 19 20  1  0
 21 20  1  0
 22 15  2  0
 23 13  1  0
 23 24  1  0
 24 26  1  0
 25 23  2  0
 27 28  2  0
 28 47  1  0
 29 32  1  0
 29 28  1  0
 30 31  1  0
 30 27  1  0
 31 29  2  0
 32 33  1  0
 33 34  2  0
 35 34  1  0
 36 35  2  0
 37 36  1  0
 37 32  2  0
 38 35  1  0
 38 39  1  0
 39 40  1  0
 40 41  2  0
 42 41  1  0
 42 46  1  0
 43 42  2  0
 44 39  2  0
 44 43  1  0
 45 44  1  0
 47 48  1  0
 48 51  1  0
 48 50  1  0
 49 47  2  0
 52 27  1  0
 52 53  1  0
 54 52  1  0
 55 56  1  0
 55  1  1  0
 55 99  1  0
 57 56  1  0
 58 60  1  0
 58 57  1  0
 59 70  2  0
 60 65  1  0
 61 69  1  0
 61 71  1  0
 62 68  1  0
 62 64  1  0
 63 69  1  0
 64 63  1  0
 65 64  2  0
 66 67  1  0
 66 60  2  0
 67 62  2  0
 68 61  1  0
 69 59  1  0
 71 73  2  0
 72 71  1  0
 74 72  1  0
 75 84  2  0
 75 80  1  0
 76 72  1  0
 76 80  1  0
 77 76  1  0
 78 79  1  0
 78 77  1  0
 79 75  1  0
 80 81  2  0
 81 82  1  0
 83 82  2  0
 84 83  1  0
 85 59  1  0
 85 90  1  0
 85 86  1  0
 86 89  1  1
 86 87  1  0
 88 86  1  0
 90 93  1  0
 91 95  1  0
 91 90  1  0
 92 91  2  0
 95 94  1  0
 97 95  1  0
 97 98  1  0
 97 96  1  0
 99101  1  0
101100  1  0
M  ISO  4  15 100  24 100  57 101  58 101
M  END
>  <TORSDO>  (27) 
F 25

>  <SCORE>  (27) 
-5.386

>  <name>  (27) 
26

>  <ligand_id>  (27) 
26

>  <original_smiles>  (27) 
[H]C(C(=O)N([H])C(=O)N1C([H])([H])C([H])([H])C([H])([H])C([H])(n2nc(-c3c([H])c([H])c(Oc4c([H])c([H])c(F)c([H])c4F)c([H])c3[H])c(C(=O)N([H])[H])c2N([H])[H])C1([H])[H])=C([H])C([H])(N([H])C(=O)C([H])(N([H])C(=O)C([H])(OC([H])([H])C([H])([H])[H])C([H])([H])C([H])([H])Oc1c([H])c([H])c2c(c1[H])C([H])([H])N(C(=O)C([H])(N([H])C(=O)C([H])(N([H])C([H])([H])[H])C([H])([H])[H])C(C([H])([H])[H])(C([H])([H])[H])C([H])([H])[H])C([H])(C(=O)N([H])C1([H])c3c([H])c([H])c([H])c([H])c3C([H])([H])C([H])([H])C1([H])[H])C2([H])[H])C([H])([H])[H])C([H])([H])[H]

>  <smiles>  (27) 
[H]C(C(=O)N([H])C(=O)N1C([H])([H])C([H])([H])C([H])([H])C([H])(n2nc(-c3c([H])c([H])c(Oc4c([H])c([H])c(F)c([H])c4F)c([H])c3[H])c(C(=O)N([H])[H])c2N([H])[H])C1([H])[H])=C([H])C([H])(N([H])C(=O)C([H])(N([H])C(=O)C([H])(OC([H])([H])C([H])([H])[H])C([H])([H])C([H])([H])Oc1c([H])c([H])c2c(c1[H])C([H])([H])N(C(=O)C([H])(N([H])C(=O)C([H])(N([H])C([H])([H])[H])C([H])([H])[H])C(C([H])([H])[H])(C([H])([H])[H])C([H])([H])[H])C([H])(C(=O)N([H])C1([H])c3c([H])c([H])c([H])c([H])c3C([H])([H])C([H])([H])C1([H])[H])C2([H])[H])C([H])([H])[H])C([H])([H])[H]

$$$$
27:0:0
     RDKit          3D

105112  0  0  1  0  0  0  0  0999 V2000
  -28.9150  -25.7240   24.8120 C   0  0  0  0  0  3  0  0  0  0  0  0
  -27.4750  -26.2920   24.6870 C   0  0  0  0  0  0  0  0  0  0  0  0
  -26.7450  -25.9250   23.6400 N   0  0  0  0  0  0  0  0  0  0  0  0
  -27.0080  -27.0730   25.5150 O   0  0  0  0  0  0  0  0  0  0  0  0
  -27.1590  -25.2900   22.9620 H   0  0  0  0  0  0  0  0  0  0  0  0
  -25.7990  -26.2540   23.5200 H   0  0  0  0  0  0  0  0  0  0  0  0
  -29.3040  -25.8500   22.2980 C   0  0  0  0  0  0  0  0  0  0  0  0
  -29.6930  -25.8480   23.5760 N   0  0  0  0  0  0  0  0  0  0  0  0
  -28.1380  -25.6640   21.9470 O   0  0  0  0  0  0  0  0  0  0  0  0
  -30.6710  -26.0320   23.7600 H   0  0  0  0  0  0  0  0  0  0  0  0
  -30.3980  -26.1380   21.2730 C   0  0  0  0  0  2  0  0  0  0  0  0
  -30.4090  -27.5860   20.7310 C   0  0  0  0  0  2  0  0  0  0  0  0
  -31.4580  -28.4150   21.2410 O   0  0  0  0  0  0  0  0  0  0  0  0
  -31.0900  -29.2470   22.3350 C   0  0  0  0  0  2  0  0  0  0  0  0
  -32.0230  -30.4710   22.4460 C   0  0  0  0  0  2  0  0  0  0  0  0
  -31.7590  -31.2330   23.6290 O   0  0  0  0  0  0  0  0  0  0  0  0
  -26.8210  -31.5040   28.7210 C   0  0  0  0  0  0  0  0  0  0  0  0
  -30.4520  -31.5520   23.9290 C   0  0  0  0  0  0  0  0  0  0  0  0
  -25.9990  -31.8350   26.4130 C   0  0  0  0  0  3  0  0  0  0  0  0
  -27.7910  -32.1900   24.6370 C   0  0  0  0  0  0  0  0  0  0  0  0
  -28.3930  -32.4660   27.0490 C   0  0  0  0  0  2  0  0  0  0  0  0
  -28.7890  -32.1580   25.6200 C   0  0  0  0  0  0  0  0  0  0  0  0
  -30.1180  -31.8400   25.2690 C   0  0  0  0  0  3  0  0  0  0  0  0
  -29.4340  -31.6050   22.9470 C   0  0  0  0  0  3  0  0  0  0  0  0
  -28.1070  -31.9080   23.3000 C   0  0  0  0  0  3  0  0  0  0  0  0
  -26.3940  -32.5400   25.0900 C   0  0  0  0  0  2  0  0  0  0  0  0
  -27.0840  -31.8980   27.4440 N   0  0  0  0  0  0  0  0  0  0  0  0
  -25.6870  -31.1300   29.0530 O   0  0  0  0  0  0  0  0  0  0  0  0
  -25.5520  -30.3920   26.0890 C   0  0  0  0  0  0  0  0  0  0  0  0
  -24.5590  -30.2620   25.1950 N   0  0  0  0  0  0  0  0  0  0  0  0
  -26.1080  -29.4260   26.6160 O   0  0  0  0  0  0  0  0  0  0  0  0
  -24.1500  -31.1050   24.8120 H   0  0  0  0  0  0  0  0  0  0  0  0
  -22.3220  -28.8240   22.7510 C   0  0  0  0  0  0  0  0  0  0  0  0
  -23.9980  -29.0020   24.7090 C   0  0  0  0  0  3  0  0  0  0  0  0
  -24.9990  -28.2680   23.7890 C   0  0  0  0  0  2  0  0  0  0  0  0
  -24.8020  -28.5920   22.3050 C   0  0  0  0  0  2  0  0  0  0  0  0
  -23.3870  -28.2160   21.8550 C   0  0  0  0  0  2  0  0  0  0  0  0
  -22.6120  -29.2070   24.0870 C   0  0  0  0  0  0  0  0  0  0  0  0
  -21.5960  -29.7980   24.8680 C   0  0  0  0  0  3  0  0  0  0  0  0
  -20.3090  -30.0050   24.3360 C   0  0  0  0  0  3  0  0  0  0  0  0
  -20.0220  -29.6120   23.0180 C   0  0  0  0  0  3  0  0  0  0  0  0
  -21.0250  -29.0170   22.2310 C   0  0  0  0  0  3  0  0  0  0  0  0
  -27.9200  -31.5300   29.8290 C   0  0  0  0  0  3  0  0  0  0  0  0
  -27.4350  -32.3950   30.9120 N   0  0  0  0  0  0  0  0  0  0  0  0
  -27.7940  -33.6730   31.0790 C   0  0  0  0  0  0  0  0  0  0  0  0
  -28.6290  -34.2350   30.3650 O   0  0  0  0  0  0  0  0  0  0  0  0
  -26.7020  -32.0210   31.4970 H   0  0  0  0  0  0  0  0  0  0  0  0
  -25.9750  -35.3110   31.6480 C   0  0  0  0  0  1  0  0  0  0  0  0
  -27.1160  -34.4550   32.2210 C   0  0  0  0  0  3  0  0  0  0  0  0
  -29.0290  -34.5520   33.7560 C   0  0  0  0  0  1  0  0  0  0  0  0
  -28.0490  -35.3130   32.9810 N   0  0  0  0  0  0  0  0  0  0  0  0
  -27.5420  -35.9210   33.6200 H   0  0  0  0  0  0  0  0  0  0  0  0
  -28.2860  -30.0980   30.3790 C   0  0  1  0  0  0  0  0  0  0  0  0
  -27.0580  -29.2670   30.8170 C   0  0  0  0  0  1  0  0  0  0  0  0
  -29.0480  -29.2840   29.3110 C   0  0  0  0  0  1  0  0  0  0  0  0
  -29.2300  -30.2310   31.5950 C   0  0  0  0  0  1  0  0  0  0  0  0
  -29.7550  -26.4120   25.9290 C   0  0  0  0  0  2  0  0  0  0  0  0
  -29.9520  -27.8130   25.7110 O   0  0  0  0  0  0  0  0  0  0  0  0
  -28.8130  -28.6340   25.9480 C   0  0  0  0  0  2  0  0  0  0  0  0
  -28.5370  -29.4360   24.6700 C   0  0  0  0  0  2  0  0  0  0  0  0
  -28.3310  -28.5050   23.6190 O   0  0  0  0  0  0  0  0  0  0  0  0
  -27.5720  -29.0300   22.5390 C   0  0  0  0  0  2  0  0  0  0  0  0
  -27.6470  -27.9920   21.4180 C   0  0  0  0  0  2  0  0  0  0  0  0
  -26.5460  -28.0440   20.5230 O   0  0  0  0  0  0  0  0  0  0  0  0
  -26.6860  -27.0430   19.5210 C   0  0  0  0  0  2  0  0  0  0  0  0
  -25.5340  -27.0840   18.5120 C   0  0  0  0  0  2  0  0  0  0  0  0
  -25.1440  -28.5160   18.0920 C   0  0  0  0  0  2  0  0  0  0  0  0
  -24.1040  -27.9290   15.8930 C   0  0  0  0  0  0  0  0  0  0  0  0
  -23.7280  -26.9930   13.6470 C   0  0  0  0  0  2  0  0  0  0  0  0
  -24.6180  -25.7490   13.4570 C   0  0  0  0  0  2  0  0  0  0  0  0
  -26.0220  -26.1440   12.9570 C   0  0  0  0  0  2  0  0  0  0  0  0
  -26.6530  -27.2830   13.8030 C   0  0  0  0  0  3  0  0  0  0  0  0
  -25.6490  -28.4440   13.9700 C   0  0  0  0  0  2  0  0  0  0  0  0
  -24.4140  -27.9040   14.5720 N   0  0  0  0  0  0  0  0  0  0  0  0
  -23.1450  -27.3290   16.3870 O   0  0  0  0  0  0  0  0  0  0  0  0
  -24.9820  -28.6020   16.6440 N   0  0  0  0  0  0  0  0  0  0  0  0
  -25.6940  -29.1080   16.1390 H   0  0  0  0  0  0  0  0  0  0  0  0
  -29.1940  -27.7150   13.7610 C   0  0  0  0  0  0  0  0  0  0  0  0
  -30.0220  -28.2030   12.7860 C   0  0  0  0  0  0  0  0  0  0  0  0
  -29.1840  -28.5030   11.6690 C   0  0  0  0  0  0  0  0  0  0  0  0
  -27.9150  -27.7410   13.2240 N   0  0  0  0  0  0  0  0  0  0  0  0
  -27.9130  -28.2670   11.9720 N   0  0  0  0  0  0  0  0  0  0  0  0
  -29.5200  -28.9490   10.3120 C   0  0  0  0  0  0  0  0  0  0  0  0
  -28.9110  -30.0870    9.7370 C   0  0  0  0  0  3  0  0  0  0  0  0
  -29.2620  -30.5050    8.4360 C   0  0  0  0  0  3  0  0  0  0  0  0
  -30.2300  -29.7860    7.6960 C   0  0  0  0  0  0  0  0  0  0  0  0
  -30.8140  -28.6400    8.2640 C   0  0  0  0  0  3  0  0  0  0  0  0
  -30.4620  -28.2220    9.5570 C   0  0  0  0  0  3  0  0  0  0  0  0
  -30.6160  -30.1030    6.4160 O   0  0  0  0  0  0  0  0  0  0  0  0
  -30.5630  -31.3920    5.9460 C   0  0  0  0  0  0  0  0  0  0  0  0
  -31.1670  -32.4620    6.6400 C   0  0  0  0  0  3  0  0  0  0  0  0
  -31.1500  -33.7580    6.0880 C   0  0  0  0  0  3  0  0  0  0  0  0
  -30.5390  -33.9850    4.8400 C   0  0  0  0  0  0  0  0  0  0  0  0
  -29.9430  -32.9190    4.1430 C   0  0  0  0  0  3  0  0  0  0  0  0
  -29.9580  -31.6250    4.6950 C   0  0  0  0  0  0  0  0  0  0  0  0
  -29.4000  -30.5970    4.0110 F   0  0  0  0  0  0  0  0  0  0  0  0
  -30.5290  -35.2280    4.3050 F   0  0  0  0  0  0  0  0  0  0  0  0
  -31.5200  -28.3010   12.8470 C   0  0  0  0  0  0  0  0  0  0  0  0
  -32.1000  -29.2850   12.1680 N   0  0  0  0  0  0  0  0  0  0  0  0
  -32.1840  -27.5290   13.5390 O   0  0  0  0  0  0  0  0  0  0  0  0
  -31.5520  -29.9330   11.6220 H   0  0  0  0  0  0  0  0  0  0  0  0
  -33.1040  -29.3920   12.1950 H   0  0  0  0  0  0  0  0  0  0  0  0
  -29.4210  -27.2340   15.0470 N   0  0  0  0  0  0  0  0  0  0  0  0
  -30.3530  -27.1500   15.4400 H   0  0  0  0  0  0  0  0  0  0  0  0
  -28.7000  -26.8560   15.6490 H   0  0  0  0  0  0  0  0  0  0  0  0
  1 57  1  0
  2  1  1  0
  2  4  2  0
  3  2  1  0
  5  3  1  0
  6  3  1  0
  7  8  1  0
  8 10  1  0
  8  1  1  0
  9  7  2  0
 11  7  1  0
 12 13  1  0
 12 11  1  0
 13 14  1  0
 14 15  1  0
 15 16  1  0
 16 18  1  0
 17 28  2  0
 18 23  1  0
 19 29  1  0
 19 27  1  0
 20 26  1  0
 20 22  1  0
 21 27  1  0
 22 21  1  0
 23 22  2  0
 24 25  1  0
 24 18  2  0
 25 20  2  0
 26 19  1  0
 27 17  1  0
 29 31  2  0
 30 29  1  0
 32 30  1  0
 33 38  1  0
 34 30  1  0
 35 34  1  0
 36 35  1  0
 37 36  1  0
 37 33  1  0
 38 34  1  0
 38 39  2  0
 40 39  1  0
 41 40  2  0
 42 33  2  0
 42 41  1  0
 43 17  1  0
 43 53  1  0
 43 44  1  0
 44 45  1  0
 44 47  1  0
 45 49  1  0
 46 45  2  0
 49 48  1  0
 49 51  1  0
 51 52  1  0
 51 50  1  0
 53 54  1  1
 53 56  1  0
 55 53  1  0
 58 57  1  0
 58 59  1  0
 60 59  1  0
 61 60  1  0
 62 61  1  0
 63 62  1  0
 64 63  1  0
 65 64  1  0
 66 65  1  0
 67 66  1  0
 68 75  2  0
 68 76  1  0
 69 74  1  0
 70 69  1  0
 71 70  1  0
 72 71  1  0
 72 73  1  0
 73 74  1  0
 74 68  1  0
 76 67  1  0
 77 76  1  0
 78103  1  0
 79 98  1  0
 79 78  2  0
 80 82  2  0
 80 79  1  0
 81 78  1  0
 81 72  1  0
 82 81  1  0
 83 80  1  0
 84 83  1  0
 85 84  2  0
 86 87  2  0
 86 85  1  0
 87 88  1  0
 88 83  2  0
 89 86  1  0
 90 89  1  0
 90 91  1  0
 92 91  2  0
 93 92  1  0
 94 95  1  0
 94 93  2  0
 95 90  2  0
 96 95  1  0
 97 93  1  0
 98100  2  0
 99102  1  0
 99 98  1  0
101 99  1  0
103104  1  0
103105  1  0
M  ISO  4  15 101  16 101  68 100  76 100
M  END
>  <TORSDO>  (28) 
F 34

>  <SCORE>  (28) 
1.396

>  <name>  (28) 
27

>  <ligand_id>  (28) 
27

>  <original_smiles>  (28) 
[H]c1c([H])c([H])c2c(c1[H])C([H])([H])C([H])([H])C([H])([H])C2([H])N([H])C(=O)C1([H])N(C(=O)C([H])(N([H])C(=O)C([H])(N([H])C([H])([H])[H])C([H])([H])[H])C(C([H])([H])[H])(C([H])([H])[H])C([H])([H])[H])C([H])([H])c2c([H])c(OC([H])([H])C([H])([H])OC([H])([H])C([H])([H])C(=O)N([H])C([H])(C(=O)N([H])[H])C([H])([H])OC([H])([H])C([H])([H])OC([H])([H])C([H])([H])OC([H])([H])C([H])([H])C([H])([H])N([H])C(=O)N3C([H])([H])C([H])([H])C([H])([H])C([H])(n4nc(-c5c([H])c([H])c(Oc6c([H])c([H])c(F)c([H])c6F)c([H])c5[H])c(C(=O)N([H])[H])c4N([H])[H])C3([H])[H])c([H])c([H])c2C1([H])[H]

>  <smiles>  (28) 
[H]c1c([H])c([H])c2c(c1[H])C([H])([H])C([H])([H])C([H])([H])C2([H])N([H])C(=O)C1([H])N(C(=O)C([H])(N([H])C(=O)C([H])(N([H])C([H])([H])[H])C([H])([H])[H])C(C([H])([H])[H])(C([H])([H])[H])C([H])([H])[H])C([H])([H])c2c([H])c(OC([H])([H])C([H])([H])OC([H])([H])C([H])([H])C(=O)N([H])C([H])(C(=O)N([H])[H])C([H])([H])OC([H])([H])C([H])([H])OC([H])([H])C([H])([H])OC([H])([H])C([H])([H])C([H])([H])N([H])C(=O)N3C([H])([H])C([H])([H])C([H])([H])C([H])(n4nc(-c5c([H])c([H])c(Oc6c([H])c([H])c(F)c([H])c6F)c([H])c5[H])c(C(=O)N([H])[H])c4N([H])[H])C3([H])[H])c([H])c([H])c2C1([H])[H]

$$$$
28:0:0
     RDKit          3D

 98105  0  0  1  0  0  0  0  0999 V2000
  -31.3130  -19.8400   19.0430 C   0  0  0  0  0  3  0  0  0  0  0  0
  -31.3110  -17.5750   20.1130 C   0  0  0  0  0  0  0  0  0  0  0  0
  -30.7630  -18.7810   19.8930 N   0  0  0  0  0  0  0  0  0  0  0  0
  -32.3330  -17.2370   19.5160 O   0  0  0  0  0  0  0  0  0  0  0  0
  -29.9420  -19.0240   20.4270 H   0  0  0  0  0  0  0  0  0  0  0  0
  -30.6870  -16.6730   21.2210 C   0  0  0  0  0  3  0  0  0  0  0  0
  -30.9280  -14.3400   20.1850 C   0  0  0  0  0  0  0  0  0  0  0  0
  -30.4470  -12.3230   18.8730 C   0  0  0  0  0  2  0  0  0  0  0  0
  -29.4510  -12.6650   17.7490 C   0  0  0  0  0  2  0  0  0  0  0  0
  -27.9960  -12.5640   18.2510 C   0  0  0  0  0  2  0  0  0  0  0  0
  -27.7640  -13.2990   19.5990 C   0  0  0  0  0  3  0  0  0  0  0  0
  -28.8690  -12.9400   20.6170 C   0  0  0  0  0  2  0  0  0  0  0  0
  -30.1730  -13.2300   19.9910 N   0  0  0  0  0  0  0  0  0  0  0  0
  -32.0380  -14.4870   19.6810 O   0  0  0  0  0  0  0  0  0  0  0  0
  -30.3180  -15.2940   20.8840 N   0  0  0  0  0  0  0  0  0  0  0  0
  -29.3730  -15.0720   21.1590 H   0  0  0  0  0  0  0  0  0  0  0  0
  -25.3980  -13.9230   20.4060 C   0  0  0  0  0  0  0  0  0  0  0  0
  -24.3360  -13.1550   20.8000 C   0  0  0  0  0  0  0  0  0  0  0  0
  -24.7820  -11.8010   20.7360 C   0  0  0  0  0  0  0  0  0  0  0  0
  -26.4270  -13.0350   20.1280 N   0  0  0  0  0  0  0  0  0  0  0  0
  -26.0610  -11.7530   20.3860 N   0  0  0  0  0  0  0  0  0  0  0  0
  -24.0510  -10.5430   20.9440 C   0  0  0  0  0  0  0  0  0  0  0  0
  -24.5000   -9.5720   21.8680 C   0  0  0  0  0  3  0  0  0  0  0  0
  -23.7720   -8.3790   22.0640 C   0  0  0  0  0  3  0  0  0  0  0  0
  -22.5790   -8.1480   21.3370 C   0  0  0  0  0  0  0  0  0  0  0  0
  -22.1490   -9.1080   20.4040 C   0  0  0  0  0  3  0  0  0  0  0  0
  -22.8780  -10.2940   20.2060 C   0  0  0  0  0  3  0  0  0  0  0  0
  -21.8200   -7.0090   21.4460 O   0  0  0  0  0  0  0  0  0  0  0  0
  -21.7790   -6.2760   22.6030 C   0  0  0  0  0  0  0  0  0  0  0  0
  -21.3700   -6.8420   23.8310 C   0  0  0  0  0  3  0  0  0  0  0  0
  -21.2770   -6.0340   24.9830 C   0  0  0  0  0  3  0  0  0  0  0  0
  -21.5800   -4.6620   24.9070 C   0  0  0  0  0  0  0  0  0  0  0  0
  -21.9840   -4.0950   23.6850 C   0  0  0  0  0  3  0  0  0  0  0  0
  -22.0790   -4.9000   22.5360 C   0  0  0  0  0  0  0  0  0  0  0  0
  -22.4440   -4.3450   21.3560 F   0  0  0  0  0  0  0  0  0  0  0  0
  -21.4850   -3.8840   26.0110 F   0  0  0  0  0  0  0  0  0  0  0  0
  -22.9540  -13.6420   21.1350 C   0  0  0  0  0  0  0  0  0  0  0  0
  -22.2580  -12.9440   22.0250 N   0  0  0  0  0  0  0  0  0  0  0  0
  -22.5040  -14.6770   20.6470 O   0  0  0  0  0  0  0  0  0  0  0  0
  -22.6340  -12.1060   22.4460 H   0  0  0  0  0  0  0  0  0  0  0  0
  -21.3320  -13.2500   22.2910 H   0  0  0  0  0  0  0  0  0  0  0  0
  -25.5690  -15.2970   20.2530 N   0  0  0  0  0  0  0  0  0  0  0  0
  -24.8330  -15.9460   20.5070 H   0  0  0  0  0  0  0  0  0  0  0  0
  -26.4720  -15.7530   20.1720 H   0  0  0  0  0  0  0  0  0  0  0  0
  -29.4520  -17.2340   21.9640 C   0  0  0  0  0  2  0  0  0  0  0  0
  -28.2790  -17.0880   21.1670 O   0  0  0  0  0  0  0  0  0  0  0  0
  -28.4160  -17.5440   20.3430 H   0  0  0  0  0  0  0  0  0  0  0  0
  -31.2060  -18.7400   16.7260 C   0  0  0  0  0  1  0  0  0  0  0  0
  -29.1140  -19.7910   17.6840 C   0  0  0  0  0  1  0  0  0  0  0  0
  -30.6530  -19.8470   17.6380 C   0  0  0  0  0  3  0  0  0  0  0  0
  -31.1960  -21.1950   19.7680 C   0  0  0  0  0  2  0  0  0  0  0  0
  -31.9600  -22.1910   19.0880 O   0  0  0  0  0  0  0  0  0  0  0  0
  -31.2020  -23.2740   18.5520 C   0  0  0  0  0  2  0  0  0  0  0  0
  -31.0000  -24.3900   19.5900 C   0  0  0  0  0  2  0  0  0  0  0  0
  -30.0660  -23.9440   20.5600 O   0  0  0  0  0  0  0  0  0  0  0  0
  -29.7010  -24.9300   21.5150 C   0  0  0  0  0  2  0  0  0  0  0  0
  -28.3540  -25.5740   21.1520 C   0  0  0  0  0  2  0  0  0  0  0  0
  -28.4950  -26.7090   20.2960 O   0  0  0  0  0  0  0  0  0  0  0  0
  -24.5690  -31.8270   23.2300 C   0  0  0  0  0  0  0  0  0  0  0  0
  -27.3310  -27.4330   20.2240 C   0  0  0  0  0  0  0  0  0  0  0  0
  -23.4100  -30.4070   21.5670 C   0  0  0  0  0  3  0  0  0  0  0  0
  -24.9120  -28.8820   20.1770 C   0  0  0  0  0  0  0  0  0  0  0  0
  -25.9320  -30.8030   21.4170 C   0  0  0  0  0  2  0  0  0  0  0  0
  -26.0500  -29.4340   20.7830 C   0  0  0  0  0  0  0  0  0  0  0  0
  -27.2640  -28.7180   20.8040 C   0  0  0  0  0  3  0  0  0  0  0  0
  -26.1830  -26.8860   19.6150 C   0  0  0  0  0  3  0  0  0  0  0  0
  -24.9730  -27.6050   19.5910 C   0  0  0  0  0  3  0  0  0  0  0  0
  -23.6560  -29.7220   20.1940 C   0  0  0  0  0  2  0  0  0  0  0  0
  -24.6540  -31.0270   22.1290 N   0  0  0  0  0  0  0  0  0  0  0  0
  -23.4770  -32.0900   23.7480 O   0  0  0  0  0  0  0  0  0  0  0  0
  -22.7510  -29.3830   22.5190 C   0  0  0  0  0  0  0  0  0  0  0  0
  -21.4340  -29.1790   22.3580 N   0  0  0  0  0  0  0  0  0  0  0  0
  -23.4240  -28.7730   23.3540 O   0  0  0  0  0  0  0  0  0  0  0  0
  -20.9520  -29.7260   21.6580 H   0  0  0  0  0  0  0  0  0  0  0  0
  -18.0680  -27.9310   22.7650 C   0  0  0  0  0  0  0  0  0  0  0  0
  -20.6120  -28.2360   23.1150 C   0  0  0  0  0  3  0  0  0  0  0  0
  -20.7570  -26.8010   22.5580 C   0  0  0  0  0  2  0  0  0  0  0  0
  -19.6940  -26.4490   21.5120 C   0  0  0  0  0  2  0  0  0  0  0  0
  -18.2890  -26.5780   22.1110 C   0  0  0  0  0  2  0  0  0  0  0  0
  -19.1590  -28.7160   23.2230 C   0  0  0  0  0  0  0  0  0  0  0  0
  -18.9020  -29.9830   23.7900 C   0  0  0  0  0  3  0  0  0  0  0  0
  -17.5850  -30.4650   23.9060 C   0  0  0  0  0  3  0  0  0  0  0  0
  -16.5070  -29.6780   23.4660 C   0  0  0  0  0  3  0  0  0  0  0  0
  -16.7490  -28.4130   22.9000 C   0  0  0  0  0  3  0  0  0  0  0  0
  -25.8390  -32.4730   23.8710 C   0  0  0  0  0  3  0  0  0  0  0  0
  -25.5120  -33.8680   24.1880 N   0  0  0  0  0  0  0  0  0  0  0  0
  -25.8560  -34.9190   23.4320 C   0  0  0  0  0  0  0  0  0  0  0  0
  -26.5520  -34.8160   22.4180 O   0  0  0  0  0  0  0  0  0  0  0  0
  -24.8970  -34.0220   24.9750 H   0  0  0  0  0  0  0  0  0  0  0  0
  -24.1260  -36.6940   23.0250 C   0  0  0  0  0  1  0  0  0  0  0  0
  -25.3470  -36.3040   23.8710 C   0  0  0  0  0  3  0  0  0  0  0  0
  -27.4520  -37.2070   24.7550 C   0  0  0  0  0  1  0  0  0  0  0  0
  -26.3750  -37.3640   23.7810 N   0  0  0  0  0  0  0  0  0  0  0  0
  -25.9600  -38.2820   23.9140 H   0  0  0  0  0  0  0  0  0  0  0  0
  -26.3400  -31.7080   25.1570 C   0  0  1  0  0  0  0  0  0  0  0  0
  -25.2280  -31.4660   26.2050 C   0  0  0  0  0  1  0  0  0  0  0  0
  -26.9430  -30.3360   24.7770 C   0  0  0  0  0  1  0  0  0  0  0  0
  -27.4730  -32.5140   25.8370 C   0  0  0  0  0  1  0  0  0  0  0  0
  1 51  1  0
  1  3  1  0
  2  6  1  0
  3  2  1  0
  3  5  1  0
  4  2  2  0
  6 45  1  0
  7 15  1  0
  8 13  1  0
  9 10  1  0
  9  8  1  0
 11 10  1  0
 11 20  1  0
 11 12  1  0
 13  7  1  0
 13 12  1  0
 14  7  2  0
 15 16  1  0
 15  6  1  0
 17 18  2  0
 18 37  1  0
 19 18  1  0
 19 22  1  0
 20 21  1  0
 20 17  1  0
 21 19  2  0
 22 23  1  0
 23 24  2  0
 25 28  1  0
 25 24  1  0
 26 25  2  0
 27 26  1  0
 27 22  2  0
 28 29  1  0
 29 30  1  0
 30 31  2  0
 32 31  1  0
 32 36  1  0
 33 32  2  0
 34 29  2  0
 34 33  1  0
 35 34  1  0
 37 38  1  0
 38 41  1  0
 38 40  1  0
 39 37  2  0
 42 17  1  0
 42 43  1  0
 44 42  1  0
 46 45  1  0
 47 46  1  0
 48 50  1  0
 50 49  1  0
 50  1  1  0
 52 51  1  0
 53 52  1  0
 53 54  1  0
 54 55  1  0
 55 56  1  0
 57 56  1  0
 58 57  1  0
 59 70  2  0
 60 58  1  0
 60 65  1  0
 61 69  1  0
 61 71  1  0
 62 68  1  0
 62 64  1  0
 63 69  1  0
 64 65  2  0
 64 63  1  0
 66 60  2  0
 67 66  1  0
 67 62  2  0
 68 61  1  0
 69 59  1  0
 71 73  2  0
 72 71  1  0
 74 72  1  0
 75 84  2  0
 75 80  1  0
 76 72  1  0
 76 80  1  0
 77 76  1  0
 78 79  1  0
 78 77  1  0
 79 75  1  0
 80 81  2  0
 81 82  1  0
 83 82  2  0
 84 83  1  0
 85 59  1  0
 85 86  1  0
 85 95  1  0
 86 89  1  0
 87 91  1  0
 87 86  1  0
 88 87  2  0
 91 90  1  0
 93 91  1  0
 93 94  1  0
 93 92  1  0
 95 98  1  1
 95 96  1  0
 97 95  1  0
M  ISO  4   7 100  15 100  57 101  58 101
M  END
>  <TORSDO>  (29) 
F 28

>  <SCORE>  (29) 
-11.066

>  <name>  (29) 
28

>  <ligand_id>  (29) 
28

>  <original_smiles>  (29) 
[H]OC([H])([H])C([H])(C(=O)N([H])C([H])(C([H])([H])OC([H])([H])C([H])([H])OC([H])([H])C([H])([H])Oc1c([H])c([H])c2c(c1[H])C([H])([H])N(C(=O)C([H])(N([H])C(=O)C([H])(N([H])C([H])([H])[H])C([H])([H])[H])C(C([H])([H])[H])(C([H])([H])[H])C([H])([H])[H])C([H])(C(=O)N([H])C1([H])c3c([H])c([H])c([H])c([H])c3C([H])([H])C([H])([H])C1([H])[H])C2([H])[H])C([H])(C([H])([H])[H])C([H])([H])[H])N([H])C(=O)N1C([H])([H])C([H])([H])C([H])([H])C([H])(n2nc(-c3c([H])c([H])c(Oc4c([H])c([H])c(F)c([H])c4F)c([H])c3[H])c(C(=O)N([H])[H])c2N([H])[H])C1([H])[H]

>  <smiles>  (29) 
[H]OC([H])([H])C([H])(C(=O)N([H])C([H])(C([H])([H])OC([H])([H])C([H])([H])OC([H])([H])C([H])([H])Oc1c([H])c([H])c2c(c1[H])C([H])([H])N(C(=O)C([H])(N([H])C(=O)C([H])(N([H])C([H])([H])[H])C([H])([H])[H])C(C([H])([H])[H])(C([H])([H])[H])C([H])([H])[H])C([H])(C(=O)N([H])C1([H])c3c([H])c([H])c([H])c([H])c3C([H])([H])C([H])([H])C1([H])[H])C2([H])[H])C([H])(C([H])([H])[H])C([H])([H])[H])N([H])C(=O)N1C([H])([H])C([H])([H])C([H])([H])C([H])(n2nc(-c3c([H])c([H])c(Oc4c([H])c([H])c(F)c([H])c4F)c([H])c3[H])c(C(=O)N([H])[H])c2N([H])[H])C1([H])[H]

$$$$
29:0:0
     RDKit          3D

103110  0  0  1  0  0  0  0  0999 V2000
  -33.5580  -20.7220   16.2850 C   0  0  0  0  0  2  0  0  0  0  0  0
  -32.1940  -20.9550   15.9670 O   0  0  0  0  0  0  0  0  0  0  0  0
  -31.5710  -19.8750   15.2880 C   0  0  0  0  0  2  0  0  0  0  0  0
  -30.0550  -20.0910   15.3640 C   0  0  0  0  0  2  0  0  0  0  0  0
  -29.6970  -20.1130   16.7370 O   0  0  0  0  0  0  0  0  0  0  0  0
  -28.3050  -20.2700   16.9680 C   0  0  0  0  0  2  0  0  0  0  0  0
  -28.1410  -20.8670   18.3680 C   0  0  0  0  0  2  0  0  0  0  0  0
  -28.5410  -22.2320   18.3240 O   0  0  0  0  0  0  0  0  0  0  0  0
  -28.5480  -22.8440   19.6030 C   0  0  0  0  0  2  0  0  0  0  0  0
  -28.8200  -24.3450   19.4430 C   0  0  0  0  0  2  0  0  0  0  0  0
  -28.7550  -25.0880   20.7880 C   0  0  0  0  0  2  0  0  0  0  0  0
  -28.7380  -26.5070   20.6210 O   0  0  0  0  0  0  0  0  0  0  0  0
  -24.5050  -31.6050   23.1710 C   0  0  0  0  0  0  0  0  0  0  0  0
  -27.5120  -27.1290   20.5130 C   0  0  0  0  0  0  0  0  0  0  0  0
  -23.4470  -30.0380   21.5740 C   0  0  0  0  0  3  0  0  0  0  0  0
  -25.0400  -28.4910   20.3250 C   0  0  0  0  0  0  0  0  0  0  0  0
  -25.9570  -30.5190   21.4630 C   0  0  0  0  0  2  0  0  0  0  0  0
  -26.1410  -29.1170   20.9200 C   0  0  0  0  0  0  0  0  0  0  0  0
  -27.3780  -28.4450   21.0080 C   0  0  0  0  0  3  0  0  0  0  0  0
  -26.3860  -26.5090   19.9200 C   0  0  0  0  0  3  0  0  0  0  0  0
  -25.1560  -27.1830   19.8220 C   0  0  0  0  0  3  0  0  0  0  0  0
  -23.7540  -29.2800   20.2550 C   0  0  0  0  0  2  0  0  0  0  0  0
  -24.6520  -30.7390   22.1290 N   0  0  0  0  0  0  0  0  0  0  0  0
  -23.3880  -31.8550   23.6440 O   0  0  0  0  0  0  0  0  0  0  0  0
  -22.8030  -29.0490   22.5710 C   0  0  0  0  0  0  0  0  0  0  0  0
  -21.4910  -28.8120   22.4130 N   0  0  0  0  0  0  0  0  0  0  0  0
  -23.4810  -28.4950   23.4390 O   0  0  0  0  0  0  0  0  0  0  0  0
  -21.0040  -29.3120   21.6820 H   0  0  0  0  0  0  0  0  0  0  0  0
  -18.1380  -27.5530   22.8900 C   0  0  0  0  0  0  0  0  0  0  0  0
  -20.6800  -27.8920   23.2090 C   0  0  0  0  0  3  0  0  0  0  0  0
  -20.8340  -26.4380   22.7060 C   0  0  0  0  0  2  0  0  0  0  0  0
  -19.7660  -26.0380   21.6840 C   0  0  0  0  0  2  0  0  0  0  0  0
  -18.3650  -26.1770   22.2860 C   0  0  0  0  0  2  0  0  0  0  0  0
  -19.2260  -28.3640   23.3080 C   0  0  0  0  0  0  0  0  0  0  0  0
  -18.9610  -29.6500   23.8290 C   0  0  0  0  0  3  0  0  0  0  0  0
  -17.6420  -30.1260   23.9370 C   0  0  0  0  0  3  0  0  0  0  0  0
  -16.5670  -29.3120   23.5360 C   0  0  0  0  0  3  0  0  0  0  0  0
  -16.8160  -28.0280   23.0180 C   0  0  0  0  0  3  0  0  0  0  0  0
  -25.7290  -32.3390   23.8030 C   0  0  0  0  0  3  0  0  0  0  0  0
  -26.2950  -31.6140   25.0860 C   0  0  1  0  0  0  0  0  0  0  0  0
  -25.2140  -31.2800   26.1390 C   0  0  0  0  0  1  0  0  0  0  0  0
  -27.0010  -30.2940   24.6970 C   0  0  0  0  0  1  0  0  0  0  0  0
  -27.3640  -32.5030   25.7610 C   0  0  0  0  0  1  0  0  0  0  0  0
  -25.3050  -33.7080   24.1240 N   0  0  0  0  0  0  0  0  0  0  0  0
  -25.5650  -34.7810   23.3640 C   0  0  0  0  0  0  0  0  0  0  0  0
  -26.2560  -34.7280   22.3430 O   0  0  0  0  0  0  0  0  0  0  0  0
  -24.6890  -33.8170   24.9160 H   0  0  0  0  0  0  0  0  0  0  0  0
  -23.7040  -36.4250   22.9730 C   0  0  0  0  0  1  0  0  0  0  0  0
  -24.9600  -36.1270   23.8070 C   0  0  0  0  0  3  0  0  0  0  0  0
  -27.0030  -37.1810   24.6650 C   0  0  0  0  0  1  0  0  0  0  0  0
  -25.9060  -37.2600   23.7060 N   0  0  0  0  0  0  0  0  0  0  0  0
  -25.4250  -38.1430   23.8490 H   0  0  0  0  0  0  0  0  0  0  0  0
  -33.9800  -21.7760   17.3200 C   0  0  0  0  0  2  0  0  0  0  0  0
  -33.1700  -21.7390   18.4960 O   0  0  0  0  0  0  0  0  0  0  0  0
  -33.3600  -20.6230   19.3600 C   0  0  0  0  0  2  0  0  0  0  0  0
  -32.5110  -19.4040   18.9480 C   0  0  0  0  0  2  0  0  0  0  0  0
  -31.6550  -17.3720   20.0970 C   0  0  0  0  0  0  0  0  0  0  0  0
  -32.4910  -18.4130   20.0200 N   0  0  0  0  0  0  0  0  0  0  0  0
  -30.8440  -17.1100   19.2050 O   0  0  0  0  0  0  0  0  0  0  0  0
  -33.1410  -18.5460   20.7830 H   0  0  0  0  0  0  0  0  0  0  0  0
  -31.7340  -16.5010   21.3800 C   0  0  0  0  0  3  0  0  0  0  0  0
  -31.7420  -14.2200   20.3210 C   0  0  0  0  0  0  0  0  0  0  0  0
  -31.2480  -12.1330   19.1030 C   0  0  0  0  0  2  0  0  0  0  0  0
  -30.3480  -12.4320   17.8880 C   0  0  0  0  0  2  0  0  0  0  0  0
  -28.8600  -12.4360   18.2900 C   0  0  0  0  0  2  0  0  0  0  0  0
  -28.5830  -13.2960   19.5520 C   0  0  0  0  0  3  0  0  0  0  0  0
  -29.5880  -12.9550   20.6730 C   0  0  0  0  0  2  0  0  0  0  0  0
  -30.9520  -13.1310   20.1400 N   0  0  0  0  0  0  0  0  0  0  0  0
  -32.8300  -14.3730   19.7610 O   0  0  0  0  0  0  0  0  0  0  0  0
  -31.2290  -15.1470   21.1370 N   0  0  0  0  0  0  0  0  0  0  0  0
  -30.3310  -14.9350   21.5380 H   0  0  0  0  0  0  0  0  0  0  0  0
  -26.2140  -14.1190   20.1380 C   0  0  0  0  0  0  0  0  0  0  0  0
  -25.0850  -13.4510   20.5310 C   0  0  0  0  0  0  0  0  0  0  0  0
  -25.4510  -12.0730   20.6140 C   0  0  0  0  0  0  0  0  0  0  0  0
  -27.2010  -13.1540   20.0050 N   0  0  0  0  0  0  0  0  0  0  0  0
  -26.7430  -11.9220   20.3480 N   0  0  0  0  0  0  0  0  0  0  0  0
  -24.6330  -10.8810   20.8770 C   0  0  0  0  0  0  0  0  0  0  0  0
  -24.9780   -9.9600   21.8910 C   0  0  0  0  0  3  0  0  0  0  0  0
  -24.1690   -8.8300   22.1390 C   0  0  0  0  0  3  0  0  0  0  0  0
  -22.9980   -8.6150   21.3710 C   0  0  0  0  0  0  0  0  0  0  0  0
  -22.6720   -9.5220   20.3480 C   0  0  0  0  0  3  0  0  0  0  0  0
  -23.4820  -10.6440   20.1000 C   0  0  0  0  0  3  0  0  0  0  0  0
  -22.1660   -7.5330   21.5230 O   0  0  0  0  0  0  0  0  0  0  0  0
  -22.0370   -6.8850   22.7250 C   0  0  0  0  0  0  0  0  0  0  0  0
  -21.6330   -7.5610   23.8970 C   0  0  0  0  0  3  0  0  0  0  0  0
  -21.4480   -6.8430   25.0950 C   0  0  0  0  0  3  0  0  0  0  0  0
  -21.6560   -5.4510   25.1210 C   0  0  0  0  0  0  0  0  0  0  0  0
  -22.0510   -4.7750   23.9540 C   0  0  0  0  0  3  0  0  0  0  0  0
  -22.2390   -5.4910   22.7580 C   0  0  0  0  0  0  0  0  0  0  0  0
  -22.6000   -4.8310   21.6300 F   0  0  0  0  0  0  0  0  0  0  0  0
  -21.4700   -4.7590   26.2710 F   0  0  0  0  0  0  0  0  0  0  0  0
  -23.7170  -14.0410   20.7250 C   0  0  0  0  0  0  0  0  0  0  0  0
  -22.9320  -13.4760   21.6370 N   0  0  0  0  0  0  0  0  0  0  0  0
  -23.3540  -15.0360   20.1010 O   0  0  0  0  0  0  0  0  0  0  0  0
  -23.2380  -12.6730   22.1640 H   0  0  0  0  0  0  0  0  0  0  0  0
  -22.0100  -13.8540   21.8090 H   0  0  0  0  0  0  0  0  0  0  0  0
  -26.4800  -15.4590   19.8670 N   0  0  0  0  0  0  0  0  0  0  0  0
  -25.7620  -16.1740   19.9130 H   0  0  0  0  0  0  0  0  0  0  0  0
  -27.3750  -15.8130   19.5540 H   0  0  0  0  0  0  0  0  0  0  0  0
  -31.4290  -18.5580   22.8990 C   0  0  0  0  0  1  0  0  0  0  0  0
  -31.3160  -16.2840   23.8820 C   0  0  0  0  0  1  0  0  0  0  0  0
  -29.4430  -17.1060   22.4240 C   0  0  0  0  0  1  0  0  0  0  0  0
  -30.9790  -17.1070   22.6190 C   0  0  2  0  0  0  0  0  0  0  0  0
  1 53  1  0
  2  1  1  0
  3  4  1  0
  3  2  1  0
  4  5  1  0
  5  6  1  0
  6  7  1  0
  8  7  1  0
  8  9  1  0
 10  9  1  0
 10 11  1  0
 12 11  1  0
 13 24  2  0
 14 12  1  0
 14 19  1  0
 15 23  1  0
 15 25  1  0
 16 18  1  0
 17 23  1  0
 18 19  2  0
 18 17  1  0
 20 14  2  0
 21 20  1  0
 21 16  2  0
 22 16  1  0
 22 15  1  0
 23 13  1  0
 25 27  2  0
 26 25  1  0
 28 26  1  0
 29 38  2  0
 29 34  1  0
 30 26  1  0
 30 34  1  0
 31 30  1  0
 32 33  1  0
 32 31  1  0
 33 29  1  0
 34 35  2  0
 35 36  1  0
 37 36  2  0
 38 37  1  0
 39 13  1  0
 39 44  1  0
 39 40  1  0
 40 43  1  1
 40 41  1  0
 42 40  1  0
 44 47  1  0
 45 49  1  0
 45 44  1  0
 46 45  2  0
 49 48  1  0
 51 49  1  0
 51 52  1  0
 51 50  1  0
 53 54  1  0
 54 55  1  0
 56 55  1  0
 56 58  1  0
 58 57  1  0
 58 60  1  0
 59 57  2  0
 61 57  1  0
 61103  1  0
 62 70  1  0
 63 68  1  0
 64 65  1  0
 64 63  1  0
 66 65  1  0
 66 75  1  0
 66 67  1  0
 68 62  1  0
 68 67  1  0
 69 62  2  0
 70 61  1  0
 70 71  1  0
 72 73  2  0
 73 74  1  0
 73 92  1  0
 74 77  1  0
 75 72  1  0
 75 76  1  0
 76 74  2  0
 77 78  1  0
 78 79  2  0
 80 83  1  0
 80 79  1  0
 81 80  2  0
 82 81  1  0
 82 77  2  0
 83 84  1  0
 84 89  2  0
 84 85  1  0
 85 86  2  0
 86 87  1  0
 87 91  1  0
 88 87  2  0
 89 88  1  0
 90 89  1  0
 92 93  1  0
 93 96  1  0
 93 95  1  0
 94 92  2  0
 97 98  1  0
 97 72  1  0
 99 97  1  0
103102  1  6
103100  1  0
103101  1  0
M  ISO  4  11 101  12 101  62 100  70 100
M  END
>  <TORSDO>  (30) 
F 33

>  <SCORE>  (30) 
-5.832

>  <name>  (30) 
29

>  <ligand_id>  (30) 
29

>  <original_smiles>  (30) 
[H]c1c([H])c([H])c2c(c1[H])C([H])([H])C([H])([H])C([H])([H])C2([H])N([H])C(=O)C1([H])N(C(=O)C([H])(N([H])C(=O)C([H])(N([H])C([H])([H])[H])C([H])([H])[H])C(C([H])([H])[H])(C([H])([H])[H])C([H])([H])[H])C([H])([H])c2c([H])c(OC([H])([H])C([H])([H])C([H])([H])OC([H])([H])C([H])([H])OC([H])([H])C([H])([H])OC([H])([H])C([H])([H])OC([H])([H])C([H])([H])N([H])C(=O)C([H])(N([H])C(=O)N3C([H])([H])C([H])([H])C([H])([H])C([H])(n4nc(-c5c([H])c([H])c(Oc6c([H])c([H])c(F)c([H])c6F)c([H])c5[H])c(C(=O)N([H])[H])c4N([H])[H])C3([H])[H])C(C([H])([H])[H])(C([H])([H])[H])C([H])([H])[H])c([H])c([H])c2C1([H])[H]

>  <smiles>  (30) 
[H]c1c([H])c([H])c2c(c1[H])C([H])([H])C([H])([H])C([H])([H])C2([H])N([H])C(=O)C1([H])N(C(=O)C([H])(N([H])C(=O)C([H])(N([H])C([H])([H])[H])C([H])([H])[H])C(C([H])([H])[H])(C([H])([H])[H])C([H])([H])[H])C([H])([H])c2c([H])c(OC([H])([H])C([H])([H])C([H])([H])OC([H])([H])C([H])([H])OC([H])([H])C([H])([H])OC([H])([H])C([H])([H])OC([H])([H])C([H])([H])N([H])C(=O)C([H])(N([H])C(=O)N3C([H])([H])C([H])([H])C([H])([H])C([H])(n4nc(-c5c([H])c([H])c(Oc6c([H])c([H])c(F)c([H])c6F)c([H])c5[H])c(C(=O)N([H])[H])c4N([H])[H])C3([H])[H])C(C([H])([H])[H])(C([H])([H])[H])C([H])([H])[H])c([H])c([H])c2C1([H])[H]

$$$$
30:0:0
     RDKit          3D

100107  0  0  1  0  0  0  0  0999 V2000
  -31.0050  -20.3580   15.4200 C   0  0  0  0  0  0  0  0  0  0  0  0
  -32.0470  -21.1980   15.4830 N   0  0  0  0  0  0  0  0  0  0  0  0
  -29.9350  -20.6090   15.9780 O   0  0  0  0  0  0  0  0  0  0  0  0
  -32.9020  -20.8910   15.0410 H   0  0  0  0  0  0  0  0  0  0  0  0
  -32.0350  -22.5330   16.0600 C   0  0  0  0  0  2  0  0  0  0  0  0
  -31.2310  -23.5160   15.1830 C   0  0  0  0  0  2  0  0  0  0  0  0
  -31.5970  -24.8660   15.4440 O   0  0  0  0  0  0  0  0  0  0  0  0
  -32.2680  -25.0450   16.6830 C   0  0  0  0  0  2  0  0  0  0  0  0
  -31.2250  -25.3630   17.7680 C   0  0  0  0  0  2  0  0  0  0  0  0
  -31.8380  -25.6280   19.0260 O   0  0  0  0  0  0  0  0  0  0  0  0
  -38.5940  -26.5500   20.9240 C   0  0  0  0  0  0  0  0  0  0  0  0
  -33.0110  -24.9880   19.3590 C   0  0  0  0  0  0  0  0  0  0  0  0
  -37.9550  -24.2160   20.4000 C   0  0  0  0  0  3  0  0  0  0  0  0
  -35.4540  -23.7920   20.1320 C   0  0  0  0  0  0  0  0  0  0  0  0
  -36.2230  -25.8780   21.2790 C   0  0  0  0  0  2  0  0  0  0  0  0
  -35.1800  -25.1180   20.4860 C   0  0  0  0  0  0  0  0  0  0  0  0
  -33.9610  -25.7150   20.1050 C   0  0  0  0  0  3  0  0  0  0  0  0
  -33.3020  -23.6470   19.0080 C   0  0  0  0  0  3  0  0  0  0  0  0
  -34.5210  -23.0530   19.3850 C   0  0  0  0  0  3  0  0  0  0  0  0
  -36.7780  -23.2200   20.5860 C   0  0  0  0  0  2  0  0  0  0  0  0
  -37.6150  -25.6050   20.8520 N   0  0  0  0  0  0  0  0  0  0  0  0
  -39.7730  -26.2680   20.6660 O   0  0  0  0  0  0  0  0  0  0  0  0
  -38.4180  -24.1490   18.9290 C   0  0  0  0  0  0  0  0  0  0  0  0
  -39.1420  -23.0730   18.5800 N   0  0  0  0  0  0  0  0  0  0  0  0
  -38.1050  -25.0310   18.1260 O   0  0  0  0  0  0  0  0  0  0  0  0
  -39.3610  -22.3990   19.2990 H   0  0  0  0  0  0  0  0  0  0  0  0
  -40.9070  -20.6020   16.6250 C   0  0  0  0  0  0  0  0  0  0  0  0
  -39.6510  -22.7760   17.2430 C   0  0  0  0  0  3  0  0  0  0  0  0
  -38.5220  -22.2660   16.3170 C   0  0  0  0  0  2  0  0  0  0  0  0
  -38.4010  -20.7390   16.2980 C   0  0  0  0  0  2  0  0  0  0  0  0
  -39.7120  -20.1030   15.8300 C   0  0  0  0  0  2  0  0  0  0  0  0
  -40.8710  -21.8510   17.3010 C   0  0  0  0  0  0  0  0  0  0  0  0
  -41.9950  -22.2530   18.0570 C   0  0  0  0  0  3  0  0  0  0  0  0
  -43.1380  -21.4360   18.1370 C   0  0  0  0  0  3  0  0  0  0  0  0
  -43.1730  -20.2090   17.4510 C   0  0  0  0  0  3  0  0  0  0  0  0
  -42.0630  -19.7970   16.6950 C   0  0  0  0  0  3  0  0  0  0  0  0
  -38.2890  -28.0180   21.3590 C   0  0  0  0  0  3  0  0  0  0  0  0
  -39.1980  -28.3510   22.4630 N   0  0  0  0  0  0  0  0  0  0  0  0
  -38.8950  -28.2200   23.7610 C   0  0  0  0  0  0  0  0  0  0  0  0
  -37.7810  -27.8660   24.1570 O   0  0  0  0  0  0  0  0  0  0  0  0
  -40.1450  -28.5930   22.2130 H   0  0  0  0  0  0  0  0  0  0  0  0
  -40.5410  -27.2140   25.3730 C   0  0  0  0  0  1  0  0  0  0  0  0
  -40.0060  -28.5270   24.7820 C   0  0  0  0  0  3  0  0  0  0  0  0
  -39.3760  -30.8060   25.4420 C   0  0  0  0  0  1  0  0  0  0  0  0
  -39.5710  -29.4240   25.8730 N   0  0  0  0  0  0  0  0  0  0  0  0
  -40.2460  -29.4230   26.6310 H   0  0  0  0  0  0  0  0  0  0  0  0
  -38.4360  -29.0590   20.1820 C   0  0  1  0  0  0  0  0  0  0  0  0
  -39.9010  -29.4400   19.8670 C   0  0  0  0  0  1  0  0  0  0  0  0
  -37.8030  -28.5030   18.8840 C   0  0  0  0  0  1  0  0  0  0  0  0
  -37.6710  -30.3580   20.5310 C   0  0  0  0  0  1  0  0  0  0  0  0
  -31.2000  -19.0760   14.5770 C   0  0  0  0  0  3  0  0  0  0  0  0
  -32.6150  -17.1230   15.3170 C   0  0  0  0  0  0  0  0  0  0  0  0
  -32.4430  -18.4010   14.9650 N   0  0  0  0  0  0  0  0  0  0  0  0
  -31.6710  -16.3430   15.4570 O   0  0  0  0  0  0  0  0  0  0  0  0
  -33.2850  -18.9530   14.8690 H   0  0  0  0  0  0  0  0  0  0  0  0
  -34.0700  -16.6280   15.4890 C   0  0  0  0  0  3  0  0  0  0  0  0
  -35.0600  -17.9890   17.3950 C   0  0  0  0  0  0  0  0  0  0  0  0
  -36.8440  -18.4870   19.0310 C   0  0  0  0  0  2  0  0  0  0  0  0
  -38.1700  -17.9070   18.4790 C   0  0  0  0  0  2  0  0  0  0  0  0
  -38.3270  -16.4140   18.8460 C   0  0  0  0  0  2  0  0  0  0  0  0
  -37.0580  -15.5910   18.5060 C   0  0  0  0  0  3  0  0  0  0  0  0
  -35.8120  -16.2980   19.0880 C   0  0  0  0  0  2  0  0  0  0  0  0
  -35.7450  -17.6600   18.5200 N   0  0  0  0  0  0  0  0  0  0  0  0
  -35.1290  -19.0960   16.8470 O   0  0  0  0  0  0  0  0  0  0  0  0
  -34.4180  -16.9410   16.8700 N   0  0  0  0  0  0  0  0  0  0  0  0
  -34.2980  -16.1610   17.4980 H   0  0  0  0  0  0  0  0  0  0  0  0
  -36.8880  -13.0270   18.3080 C   0  0  0  0  0  0  0  0  0  0  0  0
  -37.1920  -12.0240   19.1890 C   0  0  0  0  0  0  0  0  0  0  0  0
  -37.6460  -12.6700   20.3780 C   0  0  0  0  0  0  0  0  0  0  0  0
  -37.1570  -14.2120   18.9770 N   0  0  0  0  0  0  0  0  0  0  0  0
  -37.5640  -13.9890   20.2520 N   0  0  0  0  0  0  0  0  0  0  0  0
  -38.2060  -12.1110   21.6140 C   0  0  0  0  0  0  0  0  0  0  0  0
  -37.3880  -11.8300   22.7300 C   0  0  0  0  0  3  0  0  0  0  0  0
  -37.9490  -11.2810   23.9050 C   0  0  0  0  0  3  0  0  0  0  0  0
  -39.3350  -11.0060   23.9700 C   0  0  0  0  0  0  0  0  0  0  0  0
  -40.1470  -11.3090   22.8600 C   0  0  0  0  0  3  0  0  0  0  0  0
  -39.5920  -11.8610   21.6950 C   0  0  0  0  0  3  0  0  0  0  0  0
  -39.9670  -10.4960   25.0760 O   0  0  0  0  0  0  0  0  0  0  0  0
  -39.6930   -9.2370   25.5460 C   0  0  0  0  0  0  0  0  0  0  0  0
  -39.8910   -8.0860   24.7520 C   0  0  0  0  0  3  0  0  0  0  0  0
  -39.6650   -6.8070   25.2990 C   0  0  0  0  0  3  0  0  0  0  0  0
  -39.2540   -6.6750   26.6380 C   0  0  0  0  0  0  0  0  0  0  0  0
  -39.0600   -7.8190   27.4310 C   0  0  0  0  0  3  0  0  0  0  0  0
  -39.2840   -9.0960   26.8890 C   0  0  0  0  0  0  0  0  0  0  0  0
  -39.1190  -10.1950   27.6640 F   0  0  0  0  0  0  0  0  0  0  0  0
  -39.0440   -5.4460   27.1660 F   0  0  0  0  0  0  0  0  0  0  0  0
  -37.1660  -10.5470   18.9080 C   0  0  0  0  0  0  0  0  0  0  0  0
  -36.5480   -9.7670   19.7870 N   0  0  0  0  0  0  0  0  0  0  0  0
  -37.6630  -10.0830   17.8830 O   0  0  0  0  0  0  0  0  0  0  0  0
  -36.1240  -10.1520   20.6180 H   0  0  0  0  0  0  0  0  0  0  0  0
  -36.5110   -8.7680   19.6310 H   0  0  0  0  0  0  0  0  0  0  0  0
  -36.4240  -13.0280   16.9980 N   0  0  0  0  0  0  0  0  0  0  0  0
  -36.1470  -12.1740   16.5300 H   0  0  0  0  0  0  0  0  0  0  0  0
  -36.3500  -13.8480   16.4130 H   0  0  0  0  0  0  0  0  0  0  0  0
  -34.2510  -15.0960   15.2560 C   0  0  0  0  0  2  0  0  0  0  0  0
  -34.2140  -13.2080   13.5230 C   0  0  0  0  0  1  0  0  0  0  0  0
  -34.5450  -14.6820   13.7950 C   0  0  0  0  0  2  0  0  0  0  0  0
  -30.1880  -20.3280   12.5560 C   0  0  0  0  0  1  0  0  0  0  0  0
  -32.5600  -19.4640   12.3930 C   0  0  0  0  0  1  0  0  0  0  0  0
  -31.1700  -19.2430   13.0280 C   0  0  0  0  0  3  0  0  0  0  0  0
  1  2  1  0
  1  3  2  0
  2  5  1  0
  4  2  1  0
  6  7  1  0
  6  5  1  0
  7  8  1  0
  8  9  1  0
  9 10  1  0
 10 12  1  0
 12 17  1  0
 13 23  1  0
 13 20  1  0
 13 21  1  0
 14 16  1  0
 14 20  1  0
 16 15  1  0
 17 16  2  0
 18 12  2  0
 18 19  1  0
 19 14  2  0
 21 11  1  0
 21 15  1  0
 22 11  2  0
 24 23  1  0
 24 26  1  0
 25 23  2  0
 27 36  2  0
 27 32  1  0
 28 32  1  0
 28 24  1  0
 29 28  1  0
 30 29  1  0
 31 30  1  0
 31 27  1  0
 32 33  2  0
 33 34  1  0
 35 34  2  0
 36 35  1  0
 37 11  1  0
 37 38  1  0
 38 39  1  0
 39 40  2  0
 39 43  1  0
 41 38  1  0
 43 42  1  0
 43 45  1  0
 44 45  1  0
 45 46  1  0
 47 50  1  1
 47 37  1  0
 48 47  1  0
 49 47  1  0
 51100  1  0
 51 53  1  0
 51  1  1  0
 52 54  2  0
 52 56  1  0
 53 52  1  0
 55 53  1  0
 56 95  1  0
 56 65  1  0
 57 63  1  0
 59 60  1  0
 59 58  1  0
 61 60  1  0
 61 70  1  0
 61 62  1  0
 63 58  1  0
 63 62  1  0
 64 57  2  0
 65 57  1  0
 65 66  1  0
 67 70  1  0
 67 68  2  0
 68 69  1  0
 69 72  1  0
 70 71  1  0
 71 69  2  0
 72 77  2  0
 72 73  1  0
 73 74  2  0
 74 75  1  0
 75 78  1  0
 76 75  2  0
 77 76  1  0
 78 79  1  0
 79 84  1  0
 80 81  1  0
 80 79  2  0
 81 82  2  0
 82 86  1  0
 82 83  1  0
 84 83  2  0
 84 85  1  0
 87 68  1  0
 87 88  1  0
 88 90  1  0
 89 87  2  0
 91 88  1  0
 92 67  1  0
 93 92  1  0
 94 92  1  0
 96 97  1  0
 97 95  1  0
 98100  1  0
 99100  1  0
M  ISO  4   9 101  10 101  57 100  65 100
M  END
>  <TORSDO>  (31) 
F 27

>  <SCORE>  (31) 
-2.439

>  <name>  (31) 
30

>  <ligand_id>  (31) 
30

>  <original_smiles>  (31) 
[H]c1c([H])c([H])c2c(c1[H])C([H])([H])C([H])([H])C([H])([H])C2([H])N([H])C(=O)C1([H])N(C(=O)C([H])(N([H])C(=O)C([H])(N([H])C([H])([H])[H])C([H])([H])[H])C(C([H])([H])[H])(C([H])([H])[H])C([H])([H])[H])C([H])([H])c2c([H])c(OC([H])([H])C([H])([H])OC([H])([H])C([H])([H])N([H])C(=O)C([H])(N([H])C(=O)C([H])(N([H])C(=O)N3C([H])([H])C([H])([H])C([H])([H])C([H])(n4nc(-c5c([H])c([H])c(Oc6c([H])c([H])c(F)c([H])c6F)c([H])c5[H])c(C(=O)N([H])[H])c4N([H])[H])C3([H])[H])C([H])([H])C([H])([H])C([H])([H])[H])C([H])(C([H])([H])[H])C([H])([H])[H])c([H])c([H])c2C1([H])[H]

>  <smiles>  (31) 
[H]c1c([H])c([H])c2c(c1[H])C([H])([H])C([H])([H])C([H])([H])C2([H])N([H])C(=O)C1([H])N(C(=O)C([H])(N([H])C(=O)C([H])(N([H])C([H])([H])[H])C([H])([H])[H])C(C([H])([H])[H])(C([H])([H])[H])C([H])([H])[H])C([H])([H])c2c([H])c(OC([H])([H])C([H])([H])OC([H])([H])C([H])([H])N([H])C(=O)C([H])(N([H])C(=O)C([H])(N([H])C(=O)N3C([H])([H])C([H])([H])C([H])([H])C([H])(n4nc(-c5c([H])c([H])c(Oc6c([H])c([H])c(F)c([H])c6F)c([H])c5[H])c(C(=O)N([H])[H])c4N([H])[H])C3([H])[H])C([H])([H])C([H])([H])C([H])([H])[H])C([H])(C([H])([H])[H])C([H])([H])[H])c([H])c([H])c2C1([H])[H]

$$$$
31:0:0
     RDKit          3D

103109  0  0  1  0  0  0  0  0999 V2000
  -18.9900  -28.1930   19.8960 C   0  0  0  0  0  3  0  0  0  0  0  0
  -18.9770  -28.1710   22.5430 C   0  0  0  0  0  2  0  0  0  0  0  0
  -18.3670  -28.0640   21.2800 N   0  0  0  0  0  0  0  0  0  0  0  0
  -18.6810  -29.2870   23.0160 O   0  0  0  0  0  1  0  0  0  0  0  0
  -17.6200  -27.3970   21.2860 H   0  0  0  0  0  0  0  0  0  0  0  0
  -20.9250  -25.9170   23.9020 C   0  0  0  0  0  1  0  0  0  0  0  0
  -22.2490  -25.2000   22.9060 O   0  0  0  0  0  0  0  0  0  0  0  0
  -23.7120  -24.2910   22.6350 C   0  0  0  0  0  2  0  0  0  0  0  0
  -24.9770  -23.9690   21.1900 C   0  0  0  0  0  3  0  0  0  0  0  0
  -26.8090  -23.4780   20.8300 C   0  0  0  0  0  3  0  0  0  0  0  0
  -27.9770  -23.4240   19.5350 O   0  0  0  0  0  0  0  0  0  0  0  0
  -29.7000  -23.3260   19.2990 C   0  0  0  0  0  3  0  0  0  0  0  0
  -31.0160  -23.0800   17.9020 C   0  0  0  0  0  3  0  0  0  0  0  0
  -32.9160  -23.2980   17.5490 C   0  0  0  0  0  2  0  0  0  0  0  0
  -35.5400  -23.2250   15.6830 C   0  0  0  0  0  0  0  0  0  0  0  0
  -37.1530  -22.3460   13.7360 C   0  0  0  0  0  2  0  0  0  0  0  0
  -36.3900  -21.8810   12.4630 C   0  0  0  0  0  2  0  0  0  0  0  0
  -35.6170  -20.5620   12.6950 C   0  0  0  0  0  2  0  0  0  0  0  0
  -34.9830  -20.5420   14.1050 C   0  0  0  0  0  3  0  0  0  0  0  0
  -35.9930  -20.8570   15.1950 C   0  0  0  0  0  2  0  0  0  0  0  0
  -36.2400  -22.2440   14.9550 N   0  0  0  0  0  0  0  0  0  0  0  0
  -36.1720  -24.3100   15.5790 O   0  0  0  0  0  0  0  0  0  0  0  0
  -34.1620  -22.8920   16.3610 N   0  0  0  0  0  0  0  0  0  0  0  0
  -34.0100  -21.9320   16.0660 H   0  0  0  0  0  0  0  0  0  0  0  0
  -33.0880  -19.2150   15.1170 C   0  0  0  0  0  0  0  0  0  0  0  0
  -32.8750  -17.8700   15.2030 C   0  0  0  0  0  0  0  0  0  0  0  0
  -34.0340  -17.2490   14.6420 C   0  0  0  0  0  0  0  0  0  0  0  0
  -34.3060  -19.3350   14.4730 N   0  0  0  0  0  0  0  0  0  0  0  0
  -34.9160  -18.1530   14.2640 N   0  0  0  0  0  0  0  0  0  0  0  0
  -34.3180  -15.8400   14.3720 C   0  0  0  0  0  0  0  0  0  0  0  0
  -35.5090  -15.2250   14.8160 C   0  0  0  0  0  3  0  0  0  0  0  0
  -35.7450  -13.8630   14.5450 C   0  0  0  0  0  3  0  0  0  0  0  0
  -34.7850  -13.1080   13.8300 C   0  0  0  0  0  0  0  0  0  0  0  0
  -33.6170  -13.7340   13.3670 C   0  0  0  0  0  3  0  0  0  0  0  0
  -33.3850  -15.0900   13.6320 C   0  0  0  0  0  3  0  0  0  0  0  0
  -34.9370  -11.7830   13.5000 O   0  0  0  0  0  0  0  0  0  0  0  0
  -35.7550  -10.9550   14.2220 C   0  0  0  0  0  0  0  0  0  0  0  0
  -35.5880  -10.7710   15.6120 C   0  0  0  0  0  3  0  0  0  0  0  0
  -36.4120   -9.8610   16.3060 C   0  0  0  0  0  3  0  0  0  0  0  0
  -37.3900   -9.1240   15.6070 C   0  0  0  0  0  0  0  0  0  0  0  0
  -37.5570   -9.3070   14.2220 C   0  0  0  0  0  3  0  0  0  0  0  0
  -36.7370  -10.2190   13.5330 C   0  0  0  0  0  0  0  0  0  0  0  0
  -36.8850  -10.3770   12.1940 F   0  0  0  0  0  0  0  0  0  0  0  0
  -38.1740   -8.2420   16.2680 F   0  0  0  0  0  0  0  0  0  0  0  0
  -31.6240  -17.2140   15.6960 C   0  0  0  0  0  0  0  0  0  0  0  0
  -31.7440  -16.0390   16.3050 N   0  0  0  0  0  0  0  0  0  0  0  0
  -30.5300  -17.7600   15.5760 O   0  0  0  0  0  0  0  0  0  0  0  0
  -32.6410  -15.5950   16.4330 H   0  0  0  0  0  0  0  0  0  0  0  0
  -30.9190  -15.5760   16.6640 H   0  0  0  0  0  0  0  0  0  0  0  0
  -32.3420  -20.3230   15.5300 N   0  0  0  0  0  0  0  0  0  0  0  0
  -31.4300  -20.1610   15.9500 H   0  0  0  0  0  0  0  0  0  0  0  0
  -32.5710  -21.2970   15.4670 H   0  0  0  0  0  0  0  0  0  0  0  0
  -18.3480  -27.2710   18.7640 C   0  0  0  0  0  3  0  0  0  0  0  0
  -18.8820  -27.2860   17.2440 C   0  0  0  0  0  2  0  0  0  0  0  0
  -19.7340  -26.1940   16.7840 O   0  0  0  0  0  0  0  0  0  0  0  0
  -20.4530  -26.2600   15.5140 C   0  0  0  0  0  2  0  0  0  0  0  0
  -21.6280  -25.2060   15.4000 C   0  0  0  0  0  2  0  0  0  0  0  0
  -22.6730  -25.3910   14.4030 O   0  0  0  0  0  0  0  0  0  0  0  0
  -23.9630  -24.7800   14.7490 C   0  0  0  0  0  2  0  0  0  0  0  0
  -25.1700  -25.2270   13.8380 C   0  0  0  0  0  0  0  0  0  0  0  0
  -25.0860  -25.1320   12.6100 O   0  0  0  0  0  0  0  0  0  0  0  0
  -26.4800  -25.8260   14.5090 C   0  0  0  0  0  2  0  0  0  0  0  0
  -26.7320  -27.2940   14.3880 O   0  0  0  0  0  0  0  0  0  0  0  0
  -25.2690  -28.5400   21.2100 C   0  0  0  0  0  0  0  0  0  0  0  0
  -25.8730  -27.9220   15.2450 C   0  0  0  0  0  0  0  0  0  0  0  0
  -23.4630  -27.9440   19.6800 C   0  0  0  0  0  3  0  0  0  0  0  0
  -23.9080  -28.1780   17.2010 C   0  0  0  0  0  0  0  0  0  0  0  0
  -25.4540  -29.2580   18.8270 C   0  0  0  0  0  2  0  0  0  0  0  0
  -25.2070  -28.6250   17.4700 C   0  0  0  0  0  0  0  0  0  0  0  0
  -26.2280  -28.4580   16.5050 C   0  0  0  0  0  3  0  0  0  0  0  0
  -24.5190  -27.7650   14.9310 C   0  0  0  0  0  3  0  0  0  0  0  0
  -23.5590  -27.7310   15.9320 C   0  0  0  0  0  3  0  0  0  0  0  0
  -22.8700  -28.2630   18.2870 C   0  0  0  0  0  2  0  0  0  0  0  0
  -24.7710  -28.5810   19.9440 N   0  0  0  0  0  0  0  0  0  0  0  0
  -24.6420  -28.0100   22.1390 O   0  0  0  0  0  0  0  0  0  0  0  0
  -23.5840  -26.4270   19.7870 C   0  0  0  0  0  0  0  0  0  0  0  0
  -22.4440  -25.8140   19.6130 N   0  0  0  0  0  0  0  0  0  0  0  0
  -24.6540  -25.8390   19.9510 O   0  0  0  0  0  0  0  0  0  0  0  0
  -21.5960  -26.3550   19.5130 H   0  0  0  0  0  0  0  0  0  0  0  0
  -20.2720  -23.1270   18.0320 C   0  0  0  0  0  0  0  0  0  0  0  0
  -22.3640  -24.4170   19.4410 C   0  0  0  0  0  3  0  0  0  0  0  0
  -23.1270  -23.9010   18.2570 C   0  0  0  0  0  2  0  0  0  0  0  0
  -22.3630  -23.4050   16.9910 C   0  0  0  0  0  2  0  0  0  0  0  0
  -21.0900  -22.5860   16.9670 C   0  0  0  0  0  2  0  0  0  0  0  0
  -20.9800  -24.1770   19.2960 C   0  0  0  0  0  0  0  0  0  0  0  0
  -20.1690  -24.3810   20.7820 C   0  0  0  0  0  3  0  0  0  0  0  0
  -18.7210  -23.5860   21.0510 C   0  0  0  0  0  3  0  0  0  0  0  0
  -18.0320  -22.6190   19.8820 C   0  0  0  0  0  3  0  0  0  0  0  0
  -18.7590  -22.3630   18.3810 C   0  0  0  0  0  3  0  0  0  0  0  0
  -26.6370  -29.1890   21.5500 C   0  0  0  0  0  3  0  0  0  0  0  0
  -26.4660  -29.9050   22.8160 N   0  0  0  0  0  0  0  0  0  0  0  0
  -26.2140  -31.2150   22.9090 C   0  0  0  0  0  0  0  0  0  0  0  0
  -26.1870  -31.9670   21.9320 O   0  0  0  0  0  0  0  0  0  0  0  0
  -26.4070  -29.3390   23.6550 H   0  0  0  0  0  0  0  0  0  0  0  0
  -24.4610  -31.9470   24.5550 C   0  0  0  0  0  1  0  0  0  0  0  0
  -25.9690  -31.7840   24.3230 C   0  0  0  0  0  3  0  0  0  0  0  0
  -28.1110  -32.9440   24.6250 C   0  0  0  0  0  1  0  0  0  0  0  0
  -26.6570  -33.0710   24.5640 N   0  0  0  0  0  0  0  0  0  0  0  0
  -26.3490  -33.5020   25.4320 H   0  0  0  0  0  0  0  0  0  0  0  0
  -27.8110  -28.1460   21.6330 C   0  0  1  0  0  0  0  0  0  0  0  0
  -27.5700  -27.0030   22.6520 C   0  0  0  0  0  1  0  0  0  0  0  0
  -28.0870  -27.5040   20.2500 C   0  0  0  0  0  1  0  0  0  0  0  0
  -29.1140  -28.8690   22.0430 C   0  0  0  0  0  1  0  0  0  0  0  0
  1  3  1  0
  2  4  1  0
  3  5  1  0
  3  2  1  0
  7  6  1  0
  8  7  1  0
  9  8  1  0
 10  9  2  0
 11 10  1  0
 12 11  1  0
 13 12  2  0
 14 13  1  0
 15 23  1  0
 16 21  1  0
 17 18  1  0
 17 16  1  0
 19 18  1  0
 19 28  1  0
 19 20  1  0
 21 20  1  0
 21 15  1  0
 22 15  2  0
 23 14  1  0
 24 23  1  0
 25 26  2  0
 25 50  1  0
 26 45  1  0
 27 26  1  0
 28 25  1  0
 29 28  1  0
 29 27  2  0
 30 27  1  0
 30 31  1  0
 32 31  2  0
 33 32  1  0
 34 35  1  0
 34 33  2  0
 35 30  2  0
 36 33  1  0
 36 37  1  0
 37 38  1  0
 38 39  2  0
 40 44  1  0
 40 39  1  0
 41 40  2  0
 42 41  1  0
 42 37  2  0
 43 42  1  0
 45 46  1  0
 46 48  1  0
 46 49  1  0
 47 45  2  0
 50 51  1  0
 52 50  1  0
 53  1  2  0
 54 53  1  0
 55 54  1  0
 56 55  1  0
 57 56  1  0
 58 59  1  0
 58 57  1  0
 60 62  1  0
 60 59  1  0
 61 60  2  0
 63 62  1  0
 63 65  1  0
 64 75  2  0
 65 70  1  0
 66 76  1  0
 66 74  1  0
 67 69  1  0
 67 73  1  0
 68 74  1  0
 69 68  1  0
 70 69  2  0
 71 65  2  0
 71 72  1  0
 72 67  2  0
 73 66  1  0
 74 64  1  0
 76 78  2  0
 77 76  1  0
 79 77  1  0
 80 89  2  0
 80 85  1  0
 81 77  1  0
 82 81  1  0
 83 82  1  0
 84 83  1  0
 84 80  1  0
 85 81  1  0
 85 86  2  0
 86 87  1  0
 88 87  2  0
 89 88  1  0
 90 64  1  0
 90100  1  0
 90 91  1  0
 91 92  1  0
 91 94  1  0
 92 96  1  0
 93 92  2  0
 96 95  1  0
 96 98  1  0
 98 97  1  0
 98 99  1  0
100103  1  1
100101  1  0
102100  1  0
M  ISO  4  15 100  23 100  62 101  63 101
M  END
>  <TORSDO>  (32) 
F 35

>  <SCORE>  (32) 
-2.766

>  <name>  (32) 
31

>  <ligand_id>  (32) 
31

>  <original_smiles>  (32) 
[H]c1c([H])c([H])c2c(c1[H])C([H])([H])C([H])([H])C([H])([H])C2([H])N([H])C(=O)C1([H])N(C(=O)C([H])(N([H])C(=O)C([H])(N([H])C([H])([H])[H])C([H])([H])[H])C(C([H])([H])[H])(C([H])([H])[H])C([H])([H])[H])C([H])([H])c2c([H])c(OC([H])([H])C(=O)C([H])([H])OC([H])([H])C([H])([H])OC([H])([H])C([H])([H])C([H])([H])N([H])C(=O)C([H])([H])OC([H])([H])C([H])([H])C([H])([H])OC([H])([H])C([H])([H])C([H])([H])N([H])C(=O)N3C([H])([H])C([H])([H])C([H])([H])C([H])(n4nc(-c5c([H])c([H])c(Oc6c([H])c([H])c(F)c([H])c6F)c([H])c5[H])c(C(=O)N([H])[H])c4N([H])[H])C3([H])[H])c([H])c([H])c2C1([H])[H]

>  <smiles>  (32) 
[H]c1c([H])c([H])c2c(c1[H])C([H])([H])C([H])([H])C([H])([H])C2([H])N([H])C(=O)C1([H])N(C(=O)C([H])(N([H])C(=O)C([H])(N([H])C([H])([H])[H])C([H])([H])[H])C(C([H])([H])[H])(C([H])([H])[H])C([H])([H])[H])C([H])([H])c2c([H])c(OC([H])([H])C(=O)C([H])([H])OC([H])([H])C([H])([H])OC([H])([H])C([H])([H])C([H])([H])N([H])C(=O)C([H])([H])OC([H])([H])C([H])([H])C([H])([H])OC([H])([H])C([H])([H])C([H])([H])N([H])C(=O)N3C([H])([H])C([H])([H])C([H])([H])C([H])(n4nc(-c5c([H])c([H])c(Oc6c([H])c([H])c(F)c([H])c6F)c([H])c5[H])c(C(=O)N([H])[H])c4N([H])[H])C3([H])[H])c([H])c([H])c2C1([H])[H]

$$$$
32:0:0
     RDKit          3D

109116  0  0  1  0  0  0  0  0999 V2000
  -33.4770  -21.0050   21.5160 C   0  0  0  0  0  3  0  0  0  0  0  0
  -34.1130  -19.6130   21.6720 C   0  0  0  0  0  0  0  0  0  0  0  0
  -35.4160  -19.4760   21.4630 N   0  0  0  0  0  0  0  0  0  0  0  0
  -33.4180  -18.6340   21.9450 O   0  0  0  0  0  0  0  0  0  0  0  0
  -35.9980  -20.2700   21.2360 H   0  0  0  0  0  0  0  0  0  0  0  0
  -35.8320  -18.5560   21.5060 H   0  0  0  0  0  0  0  0  0  0  0  0
  -31.4280  -21.5430   20.2030 C   0  0  0  0  0  0  0  0  0  0  0  0
  -32.0860  -20.8290   21.1180 N   0  0  0  0  0  0  0  0  0  0  0  0
  -31.9410  -22.4900   19.6080 O   0  0  0  0  0  0  0  0  0  0  0  0
  -31.6530  -20.0070   21.5190 H   0  0  0  0  0  0  0  0  0  0  0  0
  -30.0070  -21.0930   19.8500 C   0  0  0  0  0  3  0  0  0  0  0  0
  -29.9290  -20.8930   18.3950 N   0  0  0  0  0  4  0  0  0  0  0  0
  -30.1060  -21.7830   17.9560 H   0  0  0  0  0  0  0  0  0  0  0  0
  -29.0280  -20.5520   18.1110 H   0  0  0  0  0  0  0  0  0  0  0  0
  -30.6410  -20.2490   18.1000 H   0  0  0  0  0  0  0  0  0  0  0  0
  -28.9360  -22.1050   20.3110 C   0  0  0  0  0  2  0  0  0  0  0  0
  -29.0390  -23.2900   19.5240 O   0  0  0  0  0  0  0  0  0  0  0  0
  -28.2560  -24.3680   20.0210 C   0  0  0  0  0  2  0  0  0  0  0  0
  -28.6270  -25.6410   19.2450 C   0  0  0  0  0  2  0  0  0  0  0  0
  -28.4600  -26.8100   20.0450 O   0  0  0  0  0  0  0  0  0  0  0  0
  -24.6110  -31.8720   23.2090 C   0  0  0  0  0  0  0  0  0  0  0  0
  -27.2460  -27.4630   20.0700 C   0  0  0  0  0  0  0  0  0  0  0  0
  -23.4000  -30.4930   21.5490 C   0  0  0  0  0  3  0  0  0  0  0  0
  -24.8460  -28.9500   20.1240 C   0  0  0  0  0  0  0  0  0  0  0  0
  -25.9250  -30.8390   21.3600 C   0  0  0  0  0  2  0  0  0  0  0  0
  -26.0020  -29.4680   20.7190 C   0  0  0  0  0  0  0  0  0  0  0  0
  -27.2000  -28.7260   20.6980 C   0  0  0  0  0  3  0  0  0  0  0  0
  -26.0650  -26.9450   19.4900 C   0  0  0  0  0  3  0  0  0  0  0  0
  -24.8670  -27.6830   19.5160 C   0  0  0  0  0  3  0  0  0  0  0  0
  -23.6110  -29.8190   20.1660 C   0  0  0  0  0  2  0  0  0  0  0  0
  -24.6640  -31.0810   22.0980 N   0  0  0  0  0  0  0  0  0  0  0  0
  -23.5310  -32.1470   23.7480 O   0  0  0  0  0  0  0  0  0  0  0  0
  -22.7380  -29.4690   22.5000 C   0  0  0  0  0  0  0  0  0  0  0  0
  -21.4110  -29.3050   22.3750 N   0  0  0  0  0  0  0  0  0  0  0  0
  -23.4160  -28.8250   23.3040 O   0  0  0  0  0  0  0  0  0  0  0  0
  -20.9230  -29.8840   21.7050 H   0  0  0  0  0  0  0  0  0  0  0  0
  -18.0280  -28.1370   22.8520 C   0  0  0  0  0  0  0  0  0  0  0  0
  -20.5860  -28.3650   23.1340 C   0  0  0  0  0  3  0  0  0  0  0  0
  -20.6750  -26.9390   22.5420 C   0  0  0  0  0  2  0  0  0  0  0  0
  -19.5730  -26.6390   21.5210 C   0  0  0  0  0  2  0  0  0  0  0  0
  -18.1920  -26.7930   22.1640 C   0  0  0  0  0  2  0  0  0  0  0  0
  -19.1520  -28.8830   23.2940 C   0  0  0  0  0  0  0  0  0  0  0  0
  -18.9460  -30.1450   23.8920 C   0  0  0  0  0  3  0  0  0  0  0  0
  -17.6460  -30.6580   24.0590 C   0  0  0  0  0  3  0  0  0  0  0  0
  -16.5350  -29.9100   23.6330 C   0  0  0  0  0  3  0  0  0  0  0  0
  -16.7280  -28.6520   23.0360 C   0  0  0  0  0  3  0  0  0  0  0  0
  -25.9000  -32.4860   23.8390 C   0  0  0  0  0  3  0  0  0  0  0  0
  -25.5890  -33.8650   24.2320 N   0  0  0  0  0  0  0  0  0  0  0  0
  -25.9040  -34.9500   23.5130 C   0  0  0  0  0  0  0  0  0  0  0  0
  -26.5580  -34.8960   22.4670 O   0  0  0  0  0  0  0  0  0  0  0  0
  -25.0130  -33.9860   25.0530 H   0  0  0  0  0  0  0  0  0  0  0  0
  -24.1490  -36.7310   23.2640 C   0  0  0  0  0  1  0  0  0  0  0  0
  -25.4110  -36.3120   24.0350 C   0  0  0  0  0  3  0  0  0  0  0  0
  -27.5570  -37.1800   24.8460 C   0  0  0  0  0  1  0  0  0  0  0  0
  -26.4280  -37.3820   23.9420 N   0  0  0  0  0  0  0  0  0  0  0  0
  -26.0160  -38.2890   24.1440 H   0  0  0  0  0  0  0  0  0  0  0  0
  -26.4440  -31.6650   25.0730 C   0  0  1  0  0  0  0  0  0  0  0  0
  -25.3720  -31.3790   26.1490 C   0  0  0  0  0  1  0  0  0  0  0  0
  -27.0240  -30.3100   24.6070 C   0  0  0  0  0  1  0  0  0  0  0  0
  -27.6010  -32.4370   25.7500 C   0  0  0  0  0  1  0  0  0  0  0  0
  -33.6000  -21.9510   22.7350 C   0  0  0  0  0  2  0  0  0  0  0  0
  -32.9260  -21.4550   23.8940 O   0  0  0  0  0  0  0  0  0  0  0  0
  -31.6740  -22.0760   24.1660 C   0  0  0  0  0  2  0  0  0  0  0  0
  -31.0040  -21.3950   25.3690 C   0  0  0  0  0  2  0  0  0  0  0  0
  -30.6080  -20.0750   25.0120 O   0  0  0  0  0  0  0  0  0  0  0  0
  -29.8250  -19.4400   26.0180 C   0  0  0  0  0  2  0  0  0  0  0  0
  -29.4830  -18.0120   25.5670 C   0  0  0  0  0  2  0  0  0  0  0  0
  -30.5900  -17.1600   25.8440 O   0  0  0  0  0  0  0  0  0  0  0  0
  -30.7080  -16.0380   24.9780 C   0  0  0  0  0  2  0  0  0  0  0  0
  -31.3600  -16.4840   23.6590 C   0  0  0  0  0  2  0  0  0  0  0  0
  -31.8640  -15.3480   22.7560 C   0  0  0  0  0  2  0  0  0  0  0  0
  -30.8550  -14.2570   20.7680 C   0  0  0  0  0  0  0  0  0  0  0  0
  -30.4010  -12.2830   19.3730 C   0  0  0  0  0  2  0  0  0  0  0  0
  -29.4670  -12.5410   18.1820 C   0  0  0  0  0  2  0  0  0  0  0  0
  -28.0020  -12.3770   18.6120 C   0  0  0  0  0  2  0  0  0  0  0  0
  -27.6650  -13.2060   19.8780 C   0  0  0  0  0  3  0  0  0  0  0  0
  -28.7050  -12.9720   20.9980 C   0  0  0  0  0  2  0  0  0  0  0  0
  -30.0580  -13.2050   20.4630 N   0  0  0  0  0  0  0  0  0  0  0  0
  -31.7390  -14.6790   20.0160 O   0  0  0  0  0  0  0  0  0  0  0  0
  -30.7930  -14.6310   22.0540 N   0  0  0  0  0  0  0  0  0  0  0  0
  -30.0790  -14.1840   22.6120 H   0  0  0  0  0  0  0  0  0  0  0  0
  -25.2590  -13.8180   20.5680 C   0  0  0  0  0  0  0  0  0  0  0  0
  -24.1840  -13.0450   20.9170 C   0  0  0  0  0  0  0  0  0  0  0  0
  -24.6390  -11.6910   20.8720 C   0  0  0  0  0  0  0  0  0  0  0  0
  -26.3040  -12.9340   20.3380 N   0  0  0  0  0  0  0  0  0  0  0  0
  -25.9320  -11.6500   20.5770 N   0  0  0  0  0  0  0  0  0  0  0  0
  -23.9050  -10.4290   21.0400 C   0  0  0  0  0  0  0  0  0  0  0  0
  -24.3600   -9.4210   21.9170 C   0  0  0  0  0  3  0  0  0  0  0  0
  -23.6290   -8.2250   22.0750 C   0  0  0  0  0  3  0  0  0  0  0  0
  -22.4270   -8.0280   21.3540 C   0  0  0  0  0  0  0  0  0  0  0  0
  -21.9900   -9.0240   20.4650 C   0  0  0  0  0  3  0  0  0  0  0  0
  -22.7220  -10.2130   20.3050 C   0  0  0  0  0  3  0  0  0  0  0  0
  -21.6640   -6.8870   21.4240 O   0  0  0  0  0  0  0  0  0  0  0  0
  -21.6850   -6.0730   22.5280 C   0  0  0  0  0  0  0  0  0  0  0  0
  -21.4010   -6.5630   23.8210 C   0  0  0  0  0  3  0  0  0  0  0  0
  -21.3660   -5.6790   24.9170 C   0  0  0  0  0  3  0  0  0  0  0  0
  -21.6050   -4.3060   24.7230 C   0  0  0  0  0  0  0  0  0  0  0  0
  -21.8820   -3.8140   23.4350 C   0  0  0  0  0  3  0  0  0  0  0  0
  -21.9190   -4.6960   22.3400 C   0  0  0  0  0  0  0  0  0  0  0  0
  -22.1660   -4.2150   21.0980 F   0  0  0  0  0  0  0  0  0  0  0  0
  -21.5630   -3.4540   25.7740 F   0  0  0  0  0  0  0  0  0  0  0  0
  -22.7870  -13.5240   21.1840 C   0  0  0  0  0  0  0  0  0  0  0  0
  -22.0500  -12.8220   22.0390 N   0  0  0  0  0  0  0  0  0  0  0  0
  -22.3540  -14.5540   20.6690 O   0  0  0  0  0  0  0  0  0  0  0  0
  -22.4130  -11.9880   22.4770 H   0  0  0  0  0  0  0  0  0  0  0  0
  -21.1130  -13.1250   22.2620 H   0  0  0  0  0  0  0  0  0  0  0  0
  -25.4340  -15.1880   20.4100 N   0  0  0  0  0  0  0  0  0  0  0  0
  -24.6730  -15.8510   20.5200 H   0  0  0  0  0  0  0  0  0  0  0  0
  -26.3000  -15.6230   20.1150 H   0  0  0  0  0  0  0  0  0  0  0  0
  1  2  1  0
  1 61  1  0
  2  4  2  0
  3  6  1  0
  3  2  1  0
  5  3  1  0
  7  8  1  0
  8  1  1  0
  8 10  1  0
  9  7  2  0
 11  7  1  0
 11 16  1  0
 12 11  1  0
 13 12  1  0
 14 12  1  0
 15 12  1  0
 17 18  1  0
 17 16  1  0
 19 18  1  0
 19 20  1  0
 20 22  1  0
 21 32  2  0
 22 27  1  0
 23 31  1  0
 23 33  1  0
 24 30  1  0
 24 26  1  0
 25 31  1  0
 26 25  1  0
 27 26  2  0
 28 29  1  0
 28 22  2  0
 29 24  2  0
 30 23  1  0
 31 21  1  0
 33 35  2  0
 34 33  1  0
 36 34  1  0
 37 46  2  0
 37 42  1  0
 38 34  1  0
 38 42  1  0
 39 38  1  0
 40 41  1  0
 40 39  1  0
 41 37  1  0
 42 43  2  0
 43 44  1  0
 45 44  2  0
 46 45  1  0
 47 21  1  0
 47 48  1  0
 47 57  1  0
 48 51  1  0
 49 53  1  0
 49 48  1  0
 50 49  2  0
 53 52  1  0
 55 53  1  0
 55 56  1  0
 55 54  1  0
 57 60  1  1
 57 58  1  0
 59 57  1  0
 61 62  1  0
 62 63  1  0
 63 64  1  0
 65 64  1  0
 65 66  1  0
 67 68  1  0
 67 66  1  0
 69 68  1  0
 70 69  1  0
 71 70  1  0
 72 80  1  0
 73 78  1  0
 74 75  1  0
 74 73  1  0
 76 75  1  0
 76 85  1  0
 76 77  1  0
 78 72  1  0
 78 77  1  0
 79 72  2  0
 80 81  1  0
 80 71  1  0
 82 83  2  0
 83102  1  0
 84 83  1  0
 84 87  1  0
 85 82  1  0
 85 86  1  0
 86 84  2  0
 87 88  1  0
 88 89  2  0
 90 93  1  0
 90 89  1  0
 91 90  2  0
 92 91  1  0
 92 87  2  0
 93 94  1  0
 94 95  1  0
 95 96  2  0
 97 96  1  0
 97101  1  0
 98 97  2  0
 99 94  2  0
 99 98  1  0
100 99  1  0
102103  1  0
103106  1  0
103105  1  0
104102  2  0
107108  1  0
107 82  1  0
109107  1  0
M  ISO  4  19 101  20 101  72 100  80 100
M  END
>  <TORSDO>  (33) 
F 35

>  <SCORE>  (33) 
5.938

>  <name>  (33) 
32

>  <ligand_id>  (33) 
32

>  <original_smiles>  (33) 
[H]c1c([H])c([H])c2c(c1[H])C([H])([H])C([H])([H])C([H])([H])C2([H])N([H])C(=O)C1([H])N(C(=O)C([H])(N([H])C(=O)C([H])(N([H])C([H])([H])[H])C([H])([H])[H])C(C([H])([H])[H])(C([H])([H])[H])C([H])([H])[H])C([H])([H])c2c([H])c(OC([H])([H])C([H])([H])OC([H])([H])C([H])(C(=O)N([H])C([H])(C(=O)N([H])[H])C([H])([H])OC([H])([H])C([H])([H])OC([H])([H])C([H])([H])OC([H])([H])C([H])([H])C([H])([H])N([H])C(=O)N3C([H])([H])C([H])([H])C([H])([H])C([H])(n4nc(-c5c([H])c([H])c(Oc6c([H])c([H])c(F)c([H])c6F)c([H])c5[H])c(C(=O)N([H])[H])c4N([H])[H])C3([H])[H])[N+]([H])([H])[H])c([H])c([H])c2C1([H])[H]

>  <smiles>  (33) 
[H]c1c([H])c([H])c2c(c1[H])C([H])([H])C([H])([H])C([H])([H])C2([H])N([H])C(=O)C1([H])N(C(=O)C([H])(N([H])C(=O)C([H])(N([H])C([H])([H])[H])C([H])([H])[H])C(C([H])([H])[H])(C([H])([H])[H])C([H])([H])[H])C([H])([H])c2c([H])c(OC([H])([H])C([H])([H])OC([H])([H])C([H])(C(=O)N([H])C([H])(C(=O)N([H])[H])C([H])([H])OC([H])([H])C([H])([H])OC([H])([H])C([H])([H])OC([H])([H])C([H])([H])C([H])([H])N([H])C(=O)N3C([H])([H])C([H])([H])C([H])([H])C([H])(n4nc(-c5c([H])c([H])c(Oc6c([H])c([H])c(F)c([H])c6F)c([H])c5[H])c(C(=O)N([H])[H])c4N([H])[H])C3([H])[H])[N+]([H])([H])[H])c([H])c([H])c2C1([H])[H]

$$$$
33:0:0
     RDKit          3D

 96103  0  0  1  0  0  0  0  0999 V2000
  -29.7470  -20.7380   22.4320 C   0  0  0  0  0  2  0  0  0  0  0  0
  -29.2130  -22.0460   22.5140 O   0  0  0  0  0  0  0  0  0  0  0  0
  -29.6730  -22.7420   23.6620 C   0  0  0  0  0  2  0  0  0  0  0  0
  -28.9560  -24.0910   23.7450 C   0  0  0  0  0  2  0  0  0  0  0  0
  -29.5820  -25.0200   22.8650 O   0  0  0  0  0  0  0  0  0  0  0  0
  -28.8740  -26.2480   22.8210 C   0  0  0  0  0  2  0  0  0  0  0  0
  -29.7430  -27.3700   22.2330 C   0  0  0  0  0  2  0  0  0  0  0  0
  -30.0020  -27.3170   20.7060 C   0  0  0  0  0  2  0  0  0  0  0  0
  -28.8870  -26.9570   19.8810 O   0  0  0  0  0  0  0  0  0  0  0  0
  -24.9650  -31.8560   23.2440 C   0  0  0  0  0  0  0  0  0  0  0  0
  -27.7320  -27.7040   19.9330 C   0  0  0  0  0  0  0  0  0  0  0  0
  -23.7740  -30.4740   21.5690 C   0  0  0  0  0  3  0  0  0  0  0  0
  -25.2580  -29.0630   20.0480 C   0  0  0  0  0  0  0  0  0  0  0  0
  -26.2690  -30.9690   21.3200 C   0  0  0  0  0  2  0  0  0  0  0  0
  -26.4000  -29.6350   20.6210 C   0  0  0  0  0  0  0  0  0  0  0  0
  -27.6400  -28.9740   20.5470 C   0  0  0  0  0  3  0  0  0  0  0  0
  -26.5780  -27.1430   19.3500 C   0  0  0  0  0  3  0  0  0  0  0  0
  -25.3400  -27.8160   19.4030 C   0  0  0  0  0  3  0  0  0  0  0  0
  -23.9750  -29.8530   20.1590 C   0  0  0  0  0  2  0  0  0  0  0  0
  -25.0220  -31.1110   22.1040 N   0  0  0  0  0  0  0  0  0  0  0  0
  -23.8880  -32.0600   23.8210 O   0  0  0  0  0  0  0  0  0  0  0  0
  -23.1910  -29.3890   22.5000 C   0  0  0  0  0  0  0  0  0  0  0  0
  -21.8760  -29.1470   22.3790 N   0  0  0  0  0  0  0  0  0  0  0  0
  -23.9150  -28.7690   23.2840 O   0  0  0  0  0  0  0  0  0  0  0  0
  -21.3530  -29.7030   21.7190 H   0  0  0  0  0  0  0  0  0  0  0  0
  -18.5760  -27.7520   22.8310 C   0  0  0  0  0  0  0  0  0  0  0  0
  -21.1140  -28.1440   23.1210 C   0  0  0  0  0  3  0  0  0  0  0  0
  -21.2990  -26.7390   22.5050 C   0  0  0  0  0  2  0  0  0  0  0  0
  -20.2190  -26.3820   21.4790 C   0  0  0  0  0  2  0  0  0  0  0  0
  -18.8300  -26.4330   22.1210 C   0  0  0  0  0  2  0  0  0  0  0  0
  -19.6490  -28.5630   23.2850 C   0  0  0  0  0  0  0  0  0  0  0  0
  -19.3600  -29.7970   23.9080 C   0  0  0  0  0  3  0  0  0  0  0  0
  -18.0300  -30.2220   24.0800 C   0  0  0  0  0  3  0  0  0  0  0  0
  -16.9710  -29.4080   23.6430 C   0  0  0  0  0  3  0  0  0  0  0  0
  -17.2430  -28.1750   23.0260 C   0  0  0  0  0  3  0  0  0  0  0  0
  -26.2430  -32.5080   23.8620 C   0  0  0  0  0  3  0  0  0  0  0  0
  -26.8490  -31.6770   25.0590 C   0  0  1  0  0  0  0  0  0  0  0  0
  -25.8130  -31.3090   26.1460 C   0  0  0  0  0  1  0  0  0  0  0  0
  -27.4810  -30.3630   24.5440 C   0  0  0  0  0  1  0  0  0  0  0  0
  -27.9840  -32.4820   25.7350 C   0  0  0  0  0  1  0  0  0  0  0  0
  -25.8800  -33.8640   24.2980 N   0  0  0  0  0  0  0  0  0  0  0  0
  -26.1300  -34.9780   23.5970 C   0  0  0  0  0  0  0  0  0  0  0  0
  -26.7610  -34.9760   22.5370 O   0  0  0  0  0  0  0  0  0  0  0  0
  -25.3120  -33.9360   25.1290 H   0  0  0  0  0  0  0  0  0  0  0  0
  -24.2920  -36.6860   23.4320 C   0  0  0  0  0  1  0  0  0  0  0  0
  -25.5910  -36.3060   24.1610 C   0  0  0  0  0  3  0  0  0  0  0  0
  -27.7100  -37.2570   24.9530 C   0  0  0  0  0  1  0  0  0  0  0  0
  -26.5580  -37.4210   24.0700 N   0  0  0  0  0  0  0  0  0  0  0  0
  -26.1110  -38.3060   24.2920 H   0  0  0  0  0  0  0  0  0  0  0  0
  -29.4710  -20.1820   21.0280 C   0  0  0  0  0  2  0  0  0  0  0  0
  -30.1770  -17.8020   21.1350 C   0  0  0  0  0  0  0  0  0  0  0  0
  -30.3480  -19.0610   20.7190 N   0  0  0  0  0  0  0  0  0  0  0  0
  -29.2190  -17.4510   21.8270 O   0  0  0  0  0  0  0  0  0  0  0  0
  -31.1530  -19.2580   20.1380 H   0  0  0  0  0  0  0  0  0  0  0  0
  -31.2350  -16.7770   20.7040 C   0  0  0  0  0  3  0  0  0  0  0  0
  -30.9360  -14.6030   19.5410 C   0  0  0  0  0  0  0  0  0  0  0  0
  -30.4800  -12.3810   18.5790 C   0  0  0  0  0  2  0  0  0  0  0  0
  -29.4330  -12.4570   17.4520 C   0  0  0  0  0  2  0  0  0  0  0  0
  -28.0070  -12.3740   18.0270 C   0  0  0  0  0  2  0  0  0  0  0  0
  -27.7800  -13.3610   19.2030 C   0  0  0  0  0  3  0  0  0  0  0  0
  -28.9220  -13.2520   20.2370 C   0  0  0  0  0  2  0  0  0  0  0  0
  -30.2050  -13.4600   19.5380 N   0  0  0  0  0  0  0  0  0  0  0  0
  -31.8850  -14.8080   18.7800 O   0  0  0  0  0  0  0  0  0  0  0  0
  -30.5790  -15.4990   20.4570 N   0  0  0  0  0  0  0  0  0  0  0  0
  -29.8000  -15.2810   21.0600 H   0  0  0  0  0  0  0  0  0  0  0  0
  -25.5100  -14.0890   20.1820 C   0  0  0  0  0  0  0  0  0  0  0  0
  -24.4470  -13.3710   20.6560 C   0  0  0  0  0  0  0  0  0  0  0  0
  -24.8200  -11.9960   20.5500 C   0  0  0  0  0  0  0  0  0  0  0  0
  -26.4710  -13.1570   19.8220 N   0  0  0  0  0  0  0  0  0  0  0  0
  -26.0620  -11.8910   20.0960 N   0  0  0  0  0  0  0  0  0  0  0  0
  -24.0470  -10.7720   20.8000 C   0  0  0  0  0  0  0  0  0  0  0  0
  -24.4760   -9.8070   21.7370 C   0  0  0  0  0  3  0  0  0  0  0  0
  -23.7070   -8.6470   21.9730 C   0  0  0  0  0  3  0  0  0  0  0  0
  -22.4950   -8.4450   21.2700 C   0  0  0  0  0  0  0  0  0  0  0  0
  -22.0840   -9.3980   20.3220 C   0  0  0  0  0  3  0  0  0  0  0  0
  -22.8540  -10.5490   20.0850 C   0  0  0  0  0  3  0  0  0  0  0  0
  -21.6960   -7.3360   21.4140 O   0  0  0  0  0  0  0  0  0  0  0  0
  -21.5960   -6.6710   22.6100 C   0  0  0  0  0  0  0  0  0  0  0  0
  -21.1740   -7.3210   23.7910 C   0  0  0  0  0  3  0  0  0  0  0  0
  -21.0190   -6.5840   24.9820 C   0  0  0  0  0  3  0  0  0  0  0  0
  -21.2760   -5.1990   24.9940 C   0  0  0  0  0  0  0  0  0  0  0  0
  -21.6910   -4.5500   23.8180 C   0  0  0  0  0  3  0  0  0  0  0  0
  -21.8470   -5.2840   22.6280 C   0  0  0  0  0  0  0  0  0  0  0  0
  -22.2270   -4.6500   21.4930 F   0  0  0  0  0  0  0  0  0  0  0  0
  -21.1190   -4.4900   26.1360 F   0  0  0  0  0  0  0  0  0  0  0  0
  -23.1190  -13.9190   21.0950 C   0  0  0  0  0  0  0  0  0  0  0  0
  -22.4680  -13.2590   22.0460 N   0  0  0  0  0  0  0  0  0  0  0  0
  -22.6730  -14.9660   20.6280 O   0  0  0  0  0  0  0  0  0  0  0  0
  -22.8420  -12.4110   22.4450 H   0  0  0  0  0  0  0  0  0  0  0  0
  -21.5810  -13.6090   22.3840 H   0  0  0  0  0  0  0  0  0  0  0  0
  -25.7350  -15.4520   20.0110 N   0  0  0  0  0  0  0  0  0  0  0  0
  -25.0340  -16.1500   20.2320 H   0  0  0  0  0  0  0  0  0  0  0  0
  -26.5830  -15.8510   19.6270 H   0  0  0  0  0  0  0  0  0  0  0  0
  -32.4020  -16.5620   21.6950 C   0  0  0  0  0  2  0  0  0  0  0  0
  -31.9810  -15.9290   22.8990 O   0  0  0  0  0  0  0  0  0  0  0  0
  -31.2960  -16.4680   23.2860 H   0  0  0  0  0  0  0  0  0  0  0  0
  1  2  1  0
  2  3  1  0
  3  4  1  0
  5  4  1  0
  6  5  1  0
  7  6  1  0
  8  7  1  0
  9 11  1  0
  9  8  1  0
 10 21  2  0
 11 16  1  0
 12 20  1  0
 12 22  1  0
 13 19  1  0
 13 15  1  0
 14 20  1  0
 15 14  1  0
 16 15  2  0
 17 18  1  0
 17 11  2  0
 18 13  2  0
 19 12  1  0
 20 10  1  0
 22 24  2  0
 23 22  1  0
 25 23  1  0
 26 35  2  0
 26 31  1  0
 27 23  1  0
 27 31  1  0
 28 27  1  0
 29 30  1  0
 29 28  1  0
 30 26  1  0
 31 32  2  0
 32 33  1  0
 34 33  2  0
 35 34  1  0
 36 10  1  0
 36 41  1  0
 36 37  1  0
 37 40  1  1
 37 38  1  0
 39 37  1  0
 41 44  1  0
 42 46  1  0
 42 41  1  0
 43 42  2  0
 46 45  1  0
 48 46  1  0
 48 49  1  0
 48 47  1  0
 50  1  1  0
 51 53  2  0
 52 50  1  0
 52 51  1  0
 54 52  1  0
 55 51  1  0
 55 94  1  0
 56 64  1  0
 57 62  1  0
 58 59  1  0
 58 57  1  0
 60 59  1  0
 60 69  1  0
 60 61  1  0
 62 56  1  0
 62 61  1  0
 63 56  2  0
 64 55  1  0
 64 65  1  0
 66 67  2  0
 67 86  1  0
 68 67  1  0
 68 71  1  0
 69 70  1  0
 69 66  1  0
 70 68  2  0
 71 72  1  0
 72 73  2  0
 74 77  1  0
 74 73  1  0
 75 74  2  0
 76 75  1  0
 76 71  2  0
 77 78  1  0
 78 83  2  0
 78 79  1  0
 79 80  2  0
 80 81  1  0
 81 85  1  0
 82 81  2  0
 83 82  1  0
 84 83  1  0
 86 87  1  0
 87 90  1  0
 87 89  1  0
 88 86  2  0
 91 66  1  0
 91 92  1  0
 93 91  1  0
 94 95  1  0
 95 96  1  0
M  ISO  4   8 101   9 101  56 100  64 100
M  END
>  <TORSDO>  (34) 
F 28

>  <SCORE>  (34) 
-6.932

>  <name>  (34) 
33

>  <ligand_id>  (34) 
33

>  <original_smiles>  (34) 
[H]OC([H])([H])C([H])(C(=O)N([H])C([H])([H])C([H])([H])OC([H])([H])C([H])([H])OC([H])([H])C([H])([H])C([H])([H])Oc1c([H])c([H])c2c(c1[H])C([H])([H])N(C(=O)C([H])(N([H])C(=O)C([H])(N([H])C([H])([H])[H])C([H])([H])[H])C(C([H])([H])[H])(C([H])([H])[H])C([H])([H])[H])C([H])(C(=O)N([H])C1([H])c3c([H])c([H])c([H])c([H])c3C([H])([H])C([H])([H])C1([H])[H])C2([H])[H])N([H])C(=O)N1C([H])([H])C([H])([H])C([H])([H])C([H])(n2nc(-c3c([H])c([H])c(Oc4c([H])c([H])c(F)c([H])c4F)c([H])c3[H])c(C(=O)N([H])[H])c2N([H])[H])C1([H])[H]

>  <smiles>  (34) 
[H]OC([H])([H])C([H])(C(=O)N([H])C([H])([H])C([H])([H])OC([H])([H])C([H])([H])OC([H])([H])C([H])([H])C([H])([H])Oc1c([H])c([H])c2c(c1[H])C([H])([H])N(C(=O)C([H])(N([H])C(=O)C([H])(N([H])C([H])([H])[H])C([H])([H])[H])C(C([H])([H])[H])(C([H])([H])[H])C([H])([H])[H])C([H])(C(=O)N([H])C1([H])c3c([H])c([H])c([H])c([H])c3C([H])([H])C([H])([H])C1([H])[H])C2([H])[H])N([H])C(=O)N1C([H])([H])C([H])([H])C([H])([H])C([H])(n2nc(-c3c([H])c([H])c(Oc4c([H])c([H])c(F)c([H])c4F)c([H])c3[H])c(C(=O)N([H])[H])c2N([H])[H])C1([H])[H]

$$$$
34:0:0
     RDKit          3D

122129  0  0  1  0  0  0  0  0999 V2000
  -32.6130  -20.7360   20.7430 C   0  0  0  0  0  3  0  0  0  0  0  0
  -30.5440  -22.0440   21.4240 C   0  0  0  0  0  0  0  0  0  0  0  0
  -31.7220  -21.8950   20.7980 N   0  0  0  0  0  0  0  0  0  0  0  0
  -29.9530  -21.1090   21.9610 O   0  0  0  0  0  0  0  0  0  0  0  0
  -32.1230  -22.7230   20.3800 H   0  0  0  0  0  0  0  0  0  0  0  0
  -29.9530  -23.4750   21.3190 C   0  0  0  0  0  3  0  0  0  0  0  0
  -29.7320  -24.1510   23.8270 C   0  0  0  0  0  0  0  0  0  0  0  0
  -28.5180  -24.9420   25.8190 C   0  0  0  0  0  2  0  0  0  0  0  0
  -27.0060  -24.8480   25.5240 C   0  0  0  0  0  2  0  0  0  0  0  0
  -26.4930  -26.1220   24.8150 C   0  0  0  0  0  2  0  0  0  0  0  0
  -27.3810  -26.5500   23.6180 C   0  0  0  0  0  3  0  0  0  0  0  0
  -28.8760  -26.5230   24.0120 C   0  0  0  0  0  2  0  0  0  0  0  0
  -29.1900  -25.1780   24.5340 N   0  0  0  0  0  0  0  0  0  0  0  0
  -30.1260  -23.1100   24.3530 O   0  0  0  0  0  0  0  0  0  0  0  0
  -29.5970  -24.2920   22.4990 N   0  0  0  0  0  0  0  0  0  0  0  0
  -29.1860  -25.1770   22.2500 H   0  0  0  0  0  0  0  0  0  0  0  0
  -25.9200  -28.1470   22.2190 C   0  0  0  0  0  0  0  0  0  0  0  0
  -25.9330  -29.5070   22.0780 C   0  0  0  0  0  0  0  0  0  0  0  0
  -27.0010  -29.9810   22.8970 C   0  0  0  0  0  0  0  0  0  0  0  0
  -26.9700  -27.8450   23.0760 N   0  0  0  0  0  0  0  0  0  0  0  0
  -27.6520  -28.9600   23.4420 N   0  0  0  0  0  0  0  0  0  0  0  0
  -27.4040  -31.3490   23.2390 C   0  0  0  0  0  0  0  0  0  0  0  0
  -28.7000  -31.8250   22.9440 C   0  0  0  0  0  3  0  0  0  0  0  0
  -29.0640  -33.1510   23.2600 C   0  0  0  0  0  3  0  0  0  0  0  0
  -28.1290  -34.0170   23.8790 C   0  0  0  0  0  0  0  0  0  0  0  0
  -26.8500  -33.5290   24.1920 C   0  0  0  0  0  3  0  0  0  0  0  0
  -26.4890  -32.2080   23.8780 C   0  0  0  0  0  3  0  0  0  0  0  0
  -28.4030  -35.3090   24.2560 O   0  0  0  0  0  0  0  0  0  0  0  0
  -29.2770  -36.0930   23.5460 C   0  0  0  0  0  0  0  0  0  0  0  0
  -29.0620  -36.4060   22.1880 C   0  0  0  0  0  3  0  0  0  0  0  0
  -29.9520  -37.2690   21.5150 C   0  0  0  0  0  3  0  0  0  0  0  0
  -31.0450  -37.8260   22.2030 C   0  0  0  0  0  0  0  0  0  0  0  0
  -31.2560  -37.5230   23.5580 C   0  0  0  0  0  3  0  0  0  0  0  0
  -30.3720  -36.6600   24.2280 C   0  0  0  0  0  0  0  0  0  0  0  0
  -30.5650  -36.3860   25.5400 F   0  0  0  0  0  0  0  0  0  0  0  0
  -31.8940  -38.6620   21.5580 F   0  0  0  0  0  0  0  0  0  0  0  0
  -24.9360  -30.3300   21.3150 C   0  0  0  0  0  0  0  0  0  0  0  0
  -25.4010  -31.3580   20.6100 N   0  0  0  0  0  0  0  0  0  0  0  0
  -23.7420  -30.0430   21.3060 O   0  0  0  0  0  0  0  0  0  0  0  0
  -26.3850  -31.5880   20.6010 H   0  0  0  0  0  0  0  0  0  0  0  0
  -24.7600  -31.9250   20.0770 H   0  0  0  0  0  0  0  0  0  0  0  0
  -25.0850  -27.1560   21.7180 N   0  0  0  0  0  0  0  0  0  0  0  0
  -24.2370  -27.4050   21.2220 H   0  0  0  0  0  0  0  0  0  0  0  0
  -25.0900  -26.1950   22.0310 H   0  0  0  0  0  0  0  0  0  0  0  0
  -27.4580  -23.0400   20.8840 C   0  0  0  0  0  1  0  0  0  0  0  0
  -28.6380  -24.9260   19.6640 C   0  0  0  0  0  1  0  0  0  0  0  0
  -28.7920  -23.5350   20.2910 C   0  0  0  0  0  3  0  0  0  0  0  0
  -34.0040  -21.2520   21.1620 C   0  0  0  0  0  2  0  0  0  0  0  0
  -34.8270  -21.1370   20.0030 O   0  0  0  0  0  0  0  0  0  0  0  0
  -36.2260  -21.2490   20.2120 C   0  0  0  0  0  2  0  0  0  0  0  0
  -36.8760  -19.9290   19.7640 C   0  0  0  0  0  2  0  0  0  0  0  0
  -37.5050  -20.0570   18.4900 O   0  0  0  0  0  0  0  0  0  0  0  0
  -37.2040  -18.9450   17.6470 C   0  0  0  0  0  2  0  0  0  0  0  0
  -38.4700  -18.4330   16.9440 C   0  0  0  0  0  0  0  0  0  0  0  0
  -38.4320  -17.1730   16.4940 N   0  0  0  0  0  0  0  0  0  0  0  0
  -39.4480  -19.1680   16.7920 O   0  0  0  0  0  0  0  0  0  0  0  0
  -37.5770  -16.6590   16.6500 H   0  0  0  0  0  0  0  0  0  0  0  0
  -39.4440  -16.5010   15.6840 C   0  0  0  0  0  2  0  0  0  0  0  0
  -39.4740  -17.0810   14.2610 C   0  0  0  0  0  2  0  0  0  0  0  0
  -38.1820  -17.5850   13.9390 O   0  0  0  0  0  0  0  0  0  0  0  0
  -37.8520  -17.4130   12.5650 C   0  0  0  0  0  2  0  0  0  0  0  0
  -37.0960  -18.6470   12.0600 C   0  0  0  0  0  2  0  0  0  0  0  0
  -37.9490  -19.4150   11.2230 O   0  0  0  0  0  0  0  0  0  0  0  0
  -37.2330  -20.3890   10.4760 C   0  0  0  0  0  2  0  0  0  0  0  0
  -37.9800  -20.7020    9.1740 C   0  0  0  0  0  2  0  0  0  0  0  0
  -39.0180  -21.6440    9.4190 O   0  0  0  0  0  0  0  0  0  0  0  0
  -39.6990  -21.9920    8.2230 C   0  0  0  0  0  2  0  0  0  0  0  0
  -40.8130  -23.0030    8.5320 C   0  0  0  0  0  2  0  0  0  0  0  0
  -41.5590  -23.4580    7.2610 C   0  0  0  0  0  2  0  0  0  0  0  0
  -42.6080  -24.4560    7.5400 N   0  0  0  0  0  4  0  0  0  0  0  0
  -42.2250  -25.2840    7.9570 H   0  0  0  0  0  0  0  0  0  0  0  0
  -43.0540  -24.7250    6.6810 H   0  0  0  0  0  0  0  0  0  0  0  0
  -43.3110  -24.0800    8.1500 H   0  0  0  0  0  0  0  0  0  0  0  0
  -32.7380  -20.0960   19.3290 C   0  0  0  0  0  2  0  0  0  0  0  0
  -31.5120  -20.1110   18.4030 C   0  0  0  0  0  2  0  0  0  0  0  0
  -31.9240  -19.7150   17.0920 O   0  0  0  0  0  0  0  0  0  0  0  0
  -31.0320  -20.1660   16.0750 C   0  0  0  0  0  2  0  0  0  0  0  0
  -31.5090  -19.7820   14.6570 C   0  0  0  0  0  2  0  0  0  0  0  0
  -32.5320  -20.6310   14.1380 O   0  0  0  0  0  0  0  0  0  0  0  0
  -33.8480  -20.0800   14.1640 C   0  0  0  0  0  2  0  0  0  0  0  0
  -34.8640  -21.1480   13.7110 C   0  0  0  0  0  2  0  0  0  0  0  0
  -35.1420  -21.9950   14.8170 O   0  0  0  0  0  0  0  0  0  0  0  0
  -40.6040  -26.4370   13.6760 C   0  0  0  0  0  0  0  0  0  0  0  0
  -35.5720  -23.2610   14.5120 C   0  0  0  0  0  0  0  0  0  0  0  0
  -38.3930  -27.4900   14.0400 C   0  0  0  0  0  3  0  0  0  0  0  0
  -36.3920  -25.9100   13.9930 C   0  0  0  0  0  0  0  0  0  0  0  0
  -38.5710  -25.1510   13.0260 C   0  0  0  0  0  2  0  0  0  0  0  0
  -37.2310  -24.8380   13.6560 C   0  0  0  0  0  0  0  0  0  0  0  0
  -36.8200  -23.5080   13.9000 C   0  0  0  0  0  3  0  0  0  0  0  0
  -34.7500  -24.3470   14.8720 C   0  0  0  0  0  3  0  0  0  0  0  0
  -35.1490  -25.6720   14.6060 C   0  0  0  0  0  3  0  0  0  0  0  0
  -36.8960  -27.3000   13.6760 C   0  0  0  0  0  2  0  0  0  0  0  0
  -39.2450  -26.3380   13.6020 N   0  0  0  0  0  0  0  0  0  0  0  0
  -41.1490  -27.4810   14.0600 O   0  0  0  0  0  0  0  0  0  0  0  0
  -38.4960  -27.7930   15.5540 C   0  0  0  0  0  0  0  0  0  0  0  0
  -38.2400  -29.0570   15.9290 N   0  0  0  0  0  0  0  0  0  0  0  0
  -38.7710  -26.8990   16.3560 O   0  0  0  0  0  0  0  0  0  0  0  0
  -38.0260  -29.7300   15.2080 H   0  0  0  0  0  0  0  0  0  0  0  0
  -37.8410  -32.0350   17.9330 C   0  0  0  0  0  0  0  0  0  0  0  0
  -38.2400  -29.5610   17.3020 C   0  0  0  0  0  3  0  0  0  0  0  0
  -36.8900  -29.2720   17.9980 C   0  0  0  0  0  2  0  0  0  0  0  0
  -35.8880  -30.4260   17.8810 C   0  0  0  0  0  2  0  0  0  0  0  0
  -36.4680  -31.7030   18.4920 C   0  0  0  0  0  2  0  0  0  0  0  0
  -38.6660  -31.0310   17.3590 C   0  0  0  0  0  0  0  0  0  0  0  0
  -39.9200  -31.4000   16.8230 C   0  0  0  0  0  3  0  0  0  0  0  0
  -40.3520  -32.7390   16.8580 C   0  0  0  0  0  3  0  0  0  0  0  0
  -39.5370  -33.7250   17.4400 C   0  0  0  0  0  3  0  0  0  0  0  0
  -38.2870  -33.3720   17.9790 C   0  0  0  0  0  3  0  0  0  0  0  0
  -41.5360  -25.2500   13.2680 C   0  0  0  0  0  3  0  0  0  0  0  0
  -42.0970  -24.4470   14.5070 C   0  0  1  0  0  0  0  0  0  0  0  0
  -42.7870  -25.3440   15.5630 C   0  0  0  0  0  1  0  0  0  0  0  0
  -40.9580  -23.6630   15.2030 C   0  0  0  0  0  1  0  0  0  0  0  0
  -43.1190  -23.3890   14.0330 C   0  0  0  0  0  1  0  0  0  0  0  0
  -42.6390  -25.8010   12.4680 N   0  0  0  0  0  0  0  0  0  0  0  0
  -42.6680  -25.8150   11.1270 C   0  0  0  0  0  0  0  0  0  0  0  0
  -41.7950  -25.2870   10.4320 O   0  0  0  0  0  0  0  0  0  0  0  0
  -43.3790  -26.2680   12.9700 H   0  0  0  0  0  0  0  0  0  0  0  0
  -43.3990  -27.9220    9.9650 C   0  0  0  0  0  1  0  0  0  0  0  0
  -43.8530  -26.5320   10.4490 C   0  0  0  0  0  3  0  0  0  0  0  0
  -45.1300  -24.5580    9.7440 C   0  0  0  0  0  1  0  0  0  0  0  0
  -44.4330  -25.7710    9.3190 N   0  0  0  0  0  0  0  0  0  0  0  0
  -45.0880  -26.3470    8.7980 H   0  0  0  0  0  0  0  0  0  0  0  0
  1 74  1  0
  1  3  1  0
  1 48  1  0
  2  4  2  0
  3  2  1  0
  5  3  1  0
  6 47  1  0
  6  2  1  0
  6 15  1  0
  7 14  2  0
  7 13  1  0
  9  8  1  0
 10  9  1  0
 11 20  1  0
 11 12  1  0
 11 10  1  0
 12 13  1  0
 13  8  1  0
 15  7  1  0
 16 15  1  0
 17 20  1  0
 18 17  2  0
 18 19  1  0
 19 22  1  0
 19 21  2  0
 20 21  1  0
 22 27  1  0
 23 22  2  0
 23 24  1  0
 24 25  2  0
 25 26  1  0
 25 28  1  0
 27 26  2  0
 29 34  1  0
 29 28  1  0
 30 29  2  0
 31 30  1  0
 31 32  2  0
 32 33  1  0
 33 34  2  0
 34 35  1  0
 36 32  1  0
 37 18  1  0
 38 37  1  0
 39 37  2  0
 40 38  1  0
 41 38  1  0
 42 44  1  0
 42 17  1  0
 43 42  1  0
 46 47  1  0
 47 45  1  0
 49 50  1  0
 49 48  1  0
 51 50  1  0
 52 51  1  0
 53 52  1  0
 54 53  1  0
 55 57  1  0
 55 54  1  0
 56 54  2  0
 58 55  1  0
 59 58  1  0
 60 59  1  0
 61 60  1  0
 62 61  1  0
 63 62  1  0
 64 63  1  0
 65 66  1  0
 65 64  1  0
 67 68  1  0
 67 66  1  0
 69 70  1  0
 69 68  1  0
 70 71  1  0
 70 73  1  0
 72 70  1  0
 75 74  1  0
 76 75  1  0
 77 76  1  0
 78 77  1  0
 79 80  1  0
 79 78  1  0
 81 80  1  0
 81 82  1  0
 83 94  2  0
 84 82  1  0
 84 90  1  0
 85 95  1  0
 86 91  1  0
 87 93  1  0
 87 88  1  0
 88 89  1  0
 88 86  2  0
 89 84  2  0
 91 90  2  0
 92 86  1  0
 92 85  1  0
 93 83  1  0
 93 85  1  0
 95 96  1  0
 95 97  2  0
 98 96  1  0
 99108  1  0
 99103  1  0
100 96  1  0
100104  1  0
100101  1  0
102101  1  0
102103  1  0
104 99  2  0
105106  2  0
105104  1  0
106107  1  0
107108  2  0
109 83  1  0
109110  1  0
110112  1  1
110111  1  0
113110  1  0
114117  1  0
114109  1  0
115114  1  0
116115  2  0
119118  1  0
119115  1  0
121120  1  0
121119  1  0
122121  1  0
M  ISO  4   7 100  15 100  81 101  82 101
M  END
>  <TORSDO>  (35) 
F 47

>  <SCORE>  (35) 
0.764

>  <name>  (35) 
34

>  <ligand_id>  (35) 
34

>  <original_smiles>  (35) 
[H]c1c([H])c([H])c2c(c1[H])C([H])([H])C([H])([H])C([H])([H])C2([H])N([H])C(=O)C1([H])N(C(=O)C([H])(N([H])C(=O)C([H])(N([H])C([H])([H])[H])C([H])([H])[H])C(C([H])([H])[H])(C([H])([H])[H])C([H])([H])[H])C([H])([H])c2c([H])c(OC([H])([H])C([H])([H])OC([H])([H])C([H])([H])OC([H])([H])C([H])([H])C([H])(N([H])C(=O)C([H])(N([H])C(=O)N3C([H])([H])C([H])([H])C([H])([H])C([H])(n4nc(-c5c([H])c([H])c(Oc6c([H])c([H])c(F)c([H])c6F)c([H])c5[H])c(C(=O)N([H])[H])c4N([H])[H])C3([H])[H])C([H])(C([H])([H])[H])C([H])([H])[H])C([H])([H])OC([H])([H])C([H])([H])OC([H])([H])C(=O)N([H])C([H])([H])C([H])([H])OC([H])([H])C([H])([H])OC([H])([H])C([H])([H])OC([H])([H])C([H])([H])C([H])([H])[N+]([H])([H])[H])c([H])c([H])c2C1([H])[H]

>  <smiles>  (35) 
[H]c1c([H])c([H])c2c(c1[H])C([H])([H])C([H])([H])C([H])([H])C2([H])N([H])C(=O)C1([H])N(C(=O)C([H])(N([H])C(=O)C([H])(N([H])C([H])([H])[H])C([H])([H])[H])C(C([H])([H])[H])(C([H])([H])[H])C([H])([H])[H])C([H])([H])c2c([H])c(OC([H])([H])C([H])([H])OC([H])([H])C([H])([H])OC([H])([H])C([H])([H])C([H])(N([H])C(=O)C([H])(N([H])C(=O)N3C([H])([H])C([H])([H])C([H])([H])C([H])(n4nc(-c5c([H])c([H])c(Oc6c([H])c([H])c(F)c([H])c6F)c([H])c5[H])c(C(=O)N([H])[H])c4N([H])[H])C3([H])[H])C([H])(C([H])([H])[H])C([H])([H])[H])C([H])([H])OC([H])([H])C([H])([H])OC([H])([H])C(=O)N([H])C([H])([H])C([H])([H])OC([H])([H])C([H])([H])OC([H])([H])C([H])([H])OC([H])([H])C([H])([H])C([H])([H])[N+]([H])([H])[H])c([H])c([H])c2C1([H])[H]

$$$$
35:0:0
     RDKit          3D

106113  0  0  1  0  0  0  0  0999 V2000
  -30.5390  -20.4300   16.1020 C   0  0  0  0  0  2  0  0  0  0  0  0
  -31.5020  -20.0580   18.3800 C   0  0  0  0  0  0  0  0  0  0  0  0
  -30.5390  -20.4770   17.5590 N   0  0  0  0  0  0  0  0  0  0  0  0
  -32.5660  -19.5790   17.9790 O   0  0  0  0  0  0  0  0  0  0  0  0
  -29.6920  -20.8400   17.9770 H   0  0  0  0  0  0  0  0  0  0  0  0
  -32.0730  -21.4130   20.3930 C   0  0  0  0  0  1  0  0  0  0  0  0
  -31.2260  -20.2330   19.8850 C   0  0  0  0  0  3  0  0  0  0  0  0
  -30.9860  -17.8610   20.5760 C   0  0  0  0  0  0  0  0  0  0  0  0
  -31.6200  -19.0360   20.6230 N   0  0  0  0  0  0  0  0  0  0  0  0
  -29.9720  -17.6820   19.8950 O   0  0  0  0  0  0  0  0  0  0  0  0
  -32.4750  -19.0890   21.1590 H   0  0  0  0  0  0  0  0  0  0  0  0
  -31.5760  -16.7230   21.4350 C   0  0  0  0  0  3  0  0  0  0  0  0
  -31.2780  -14.7680   19.9230 C   0  0  0  0  0  0  0  0  0  0  0  0
  -30.7200  -12.7760   18.5780 C   0  0  0  0  0  2  0  0  0  0  0  0
  -29.7140  -13.1040   17.4600 C   0  0  0  0  0  2  0  0  0  0  0  0
  -28.2680  -13.0150   17.9840 C   0  0  0  0  0  2  0  0  0  0  0  0
  -28.0660  -13.8080   19.3000 C   0  0  0  0  0  3  0  0  0  0  0  0
  -29.1660  -13.4520   20.3240 C   0  0  0  0  0  2  0  0  0  0  0  0
  -30.4840  -13.6890   19.7040 N   0  0  0  0  0  0  0  0  0  0  0  0
  -32.2310  -15.0770   19.2000 O   0  0  0  0  0  0  0  0  0  0  0  0
  -30.9950  -15.4430   21.0390 N   0  0  0  0  0  0  0  0  0  0  0  0
  -30.2150  -15.1170   21.5830 H   0  0  0  0  0  0  0  0  0  0  0  0
  -25.7400  -14.5180   20.1520 C   0  0  0  0  0  0  0  0  0  0  0  0
  -24.6590  -13.7890   20.5720 C   0  0  0  0  0  0  0  0  0  0  0  0
  -25.0530  -12.4180   20.4950 C   0  0  0  0  0  0  0  0  0  0  0  0
  -26.7280  -13.5930   19.8510 N   0  0  0  0  0  0  0  0  0  0  0  0
  -26.3200  -12.3250   20.1110 N   0  0  0  0  0  0  0  0  0  0  0  0
  -24.2820  -11.1870   20.7130 C   0  0  0  0  0  0  0  0  0  0  0  0
  -24.7210  -10.1890   21.6100 C   0  0  0  0  0  3  0  0  0  0  0  0
  -23.9540   -9.0230   21.8140 C   0  0  0  0  0  3  0  0  0  0  0  0
  -22.7330   -8.8460   21.1210 C   0  0  0  0  0  0  0  0  0  0  0  0
  -22.3110   -9.8320   20.2120 C   0  0  0  0  0  3  0  0  0  0  0  0
  -23.0780  -10.9900   20.0060 C   0  0  0  0  0  3  0  0  0  0  0  0
  -21.9350   -7.7340   21.2370 O   0  0  0  0  0  0  0  0  0  0  0  0
  -21.8920   -6.9950   22.3930 C   0  0  0  0  0  0  0  0  0  0  0  0
  -21.5510   -7.5740   23.6350 C   0  0  0  0  0  3  0  0  0  0  0  0
  -21.4520   -6.7640   24.7840 C   0  0  0  0  0  3  0  0  0  0  0  0
  -21.6830   -5.3790   24.6930 C   0  0  0  0  0  0  0  0  0  0  0  0
  -22.0160   -4.8000   23.4560 C   0  0  0  0  0  3  0  0  0  0  0  0
  -22.1170   -5.6060   22.3080 C   0  0  0  0  0  0  0  0  0  0  0  0
  -22.4180   -5.0400   21.1150 F   0  0  0  0  0  0  0  0  0  0  0  0
  -21.5800   -4.6000   25.7950 F   0  0  0  0  0  0  0  0  0  0  0  0
  -23.3040  -14.3240   20.9360 C   0  0  0  0  0  0  0  0  0  0  0  0
  -22.6130  -13.6670   21.8590 N   0  0  0  0  0  0  0  0  0  0  0  0
  -22.8710  -15.3620   20.4360 O   0  0  0  0  0  0  0  0  0  0  0  0
  -22.9790  -12.8270   22.2850 H   0  0  0  0  0  0  0  0  0  0  0  0
  -21.7060  -14.0060   22.1460 H   0  0  0  0  0  0  0  0  0  0  0  0
  -25.9610  -15.8820   19.9870 N   0  0  0  0  0  0  0  0  0  0  0  0
  -25.2430  -16.5750   20.1660 H   0  0  0  0  0  0  0  0  0  0  0  0
  -26.8330  -16.2860   19.6700 H   0  0  0  0  0  0  0  0  0  0  0  0
  -29.8240  -17.3470   23.2630 C   0  0  0  0  0  1  0  0  0  0  0  0
  -31.6940  -15.7300   23.7800 C   0  0  0  0  0  1  0  0  0  0  0  0
  -31.2840  -16.9550   22.9450 C   0  0  0  0  0  3  0  0  0  0  0  0
  -29.1390  -20.0670   15.5840 C   0  0  0  0  0  2  0  0  0  0  0  0
  -28.1580  -20.8400   16.2730 O   0  0  0  0  0  0  0  0  0  0  0  0
  -27.3540  -20.0710   17.1620 C   0  0  0  0  0  2  0  0  0  0  0  0
  -26.4600  -21.0130   17.9730 C   0  0  0  0  0  2  0  0  0  0  0  0
  -27.2580  -21.7100   18.9240 O   0  0  0  0  0  0  0  0  0  0  0  0
  -26.4760  -22.5980   19.7150 C   0  0  0  0  0  2  0  0  0  0  0  0
  -27.3940  -23.2420   20.7610 C   0  0  0  0  0  2  0  0  0  0  0  0
  -28.5050  -23.9760   20.1120 N   0  0  0  0  0  4  0  0  0  0  0  0
  -29.0570  -23.3000   19.6060 H   0  0  0  0  0  0  0  0  0  0  0  0
  -28.1390  -24.6240   19.4300 H   0  0  0  0  0  0  0  0  0  0  0  0
  -29.3880  -24.7390   21.0250 C   0  0  0  0  0  2  0  0  0  0  0  0
  -28.7760  -26.0990   21.3940 C   0  0  0  0  0  2  0  0  0  0  0  0
  -28.4710  -26.7660   20.1720 O   0  0  0  0  0  0  0  0  0  0  0  0
  -24.5690  -31.8660   23.2580 C   0  0  0  0  0  0  0  0  0  0  0  0
  -27.3080  -27.4880   20.2040 C   0  0  0  0  0  0  0  0  0  0  0  0
  -23.4080  -30.4800   21.5670 C   0  0  0  0  0  3  0  0  0  0  0  0
  -24.9050  -28.9550   20.1740 C   0  0  0  0  0  0  0  0  0  0  0  0
  -25.9340  -30.8500   21.4410 C   0  0  0  0  0  2  0  0  0  0  0  0
  -26.0410  -29.4820   20.8030 C   0  0  0  0  0  0  0  0  0  0  0  0
  -27.2460  -28.7510   20.8300 C   0  0  0  0  0  3  0  0  0  0  0  0
  -26.1660  -26.9670   19.5670 C   0  0  0  0  0  3  0  0  0  0  0  0
  -24.9590  -27.6910   19.5590 C   0  0  0  0  0  3  0  0  0  0  0  0
  -23.6580  -29.8070   20.1900 C   0  0  0  0  0  2  0  0  0  0  0  0
  -24.6530  -31.0790   22.1480 N   0  0  0  0  0  0  0  0  0  0  0  0
  -23.4740  -32.1310   23.7740 O   0  0  0  0  0  0  0  0  0  0  0  0
  -22.7330  -29.4490   22.5000 C   0  0  0  0  0  0  0  0  0  0  0  0
  -21.4030  -29.3100   22.3700 N   0  0  0  0  0  0  0  0  0  0  0  0
  -23.4010  -28.7790   23.2900 O   0  0  0  0  0  0  0  0  0  0  0  0
  -20.9280  -29.9030   21.7060 H   0  0  0  0  0  0  0  0  0  0  0  0
  -17.9900  -28.2520   22.8940 C   0  0  0  0  0  0  0  0  0  0  0  0
  -20.5630  -28.3730   23.1140 C   0  0  0  0  0  3  0  0  0  0  0  0
  -20.5830  -26.9700   22.4640 C   0  0  0  0  0  2  0  0  0  0  0  0
  -19.4430  -26.7530   21.4640 C   0  0  0  0  0  2  0  0  0  0  0  0
  -18.0850  -26.9320   22.1490 C   0  0  0  0  0  2  0  0  0  0  0  0
  -19.1550  -28.9360   23.3340 C   0  0  0  0  0  0  0  0  0  0  0  0
  -19.0130  -30.1780   23.9900 C   0  0  0  0  0  3  0  0  0  0  0  0
  -17.7390  -30.7350   24.2120 C   0  0  0  0  0  3  0  0  0  0  0  0
  -16.5890  -30.0470   23.7890 C   0  0  0  0  0  3  0  0  0  0  0  0
  -16.7160  -28.8070   23.1370 C   0  0  0  0  0  3  0  0  0  0  0  0
  -25.8380  -32.4870   23.9200 C   0  0  0  0  0  3  0  0  0  0  0  0
  -26.3090  -31.7140   25.2130 C   0  0  1  0  0  0  0  0  0  0  0  0
  -25.1830  -31.4900   26.2480 C   0  0  0  0  0  1  0  0  0  0  0  0
  -26.8880  -30.3300   24.8390 C   0  0  0  0  0  1  0  0  0  0  0  0
  -27.4500  -32.4950   25.9070 C   0  0  0  0  0  1  0  0  0  0  0  0
  -25.5330  -33.8890   24.2320 N   0  0  0  0  0  0  0  0  0  0  0  0
  -25.9000  -34.9320   23.4750 C   0  0  0  0  0  0  0  0  0  0  0  0
  -26.6030  -34.8140   22.4670 O   0  0  0  0  0  0  0  0  0  0  0  0
  -24.9130  -34.0550   25.0110 H   0  0  0  0  0  0  0  0  0  0  0  0
  -24.1950  -36.7300   23.0540 C   0  0  0  0  0  1  0  0  0  0  0  0
  -25.4100  -36.3260   23.9050 C   0  0  0  0  0  3  0  0  0  0  0  0
  -27.5250  -37.2060   24.7880 C   0  0  0  0  0  1  0  0  0  0  0  0
  -26.4520  -37.3720   23.8120 N   0  0  0  0  0  0  0  0  0  0  0  0
  -26.0490  -38.2960   23.9360 H   0  0  0  0  0  0  0  0  0  0  0  0
  1  3  1  0
  2  7  1  0
  3  5  1  0
  3  2  1  0
  4  2  2  0
  7  6  1  0
  7  9  1  0
  8  9  1  0
  9 11  1  0
 10  8  2  0
 12  8  1  0
 12 53  1  0
 13 21  1  0
 14 19  1  0
 15 16  1  0
 15 14  1  0
 17 16  1  0
 17 26  1  0
 17 18  1  0
 19 13  1  0
 19 18  1  0
 20 13  2  0
 21 12  1  0
 21 22  1  0
 23 24  2  0
 24 43  1  0
 25 24  1  0
 25 28  1  0
 26 27  1  0
 26 23  1  0
 27 25  2  0
 28 29  1  0
 29 30  2  0
 31 34  1  0
 31 30  1  0
 32 31  2  0
 33 32  1  0
 33 28  2  0
 34 35  1  0
 35 36  1  0
 36 37  2  0
 38 37  1  0
 38 42  1  0
 39 38  2  0
 40 35  2  0
 40 39  1  0
 41 40  1  0
 43 44  1  0
 44 47  1  0
 44 46  1  0
 45 43  2  0
 48 23  1  0
 48 49  1  0
 50 48  1  0
 53 51  1  0
 53 52  1  0
 54  1  1  0
 54 55  1  0
 55 56  1  0
 56 57  1  0
 57 58  1  0
 58 59  1  0
 59 60  1  0
 61 60  1  0
 61 64  1  0
 62 61  1  0
 63 61  1  0
 64 65  1  0
 66 68  1  0
 66 65  1  0
 67 78  2  0
 68 73  1  0
 69 77  1  0
 69 79  1  0
 70 76  1  0
 70 72  1  0
 71 77  1  0
 72 73  2  0
 72 71  1  0
 74 68  2  0
 75 74  1  0
 75 70  2  0
 76 69  1  0
 77 67  1  0
 79 81  2  0
 80 79  1  0
 82 80  1  0
 83 92  2  0
 83 88  1  0
 84 80  1  0
 84 88  1  0
 85 84  1  0
 86 87  1  0
 86 85  1  0
 87 83  1  0
 88 89  2  0
 89 90  1  0
 91 90  2  0
 92 91  1  0
 93 67  1  0
 93 98  1  0
 93 94  1  0
 94 97  1  1
 94 95  1  0
 96 94  1  0
 98101  1  0
 99103  1  0
 99 98  1  0
100 99  2  0
103102  1  0
105103  1  0
105106  1  0
105104  1  0
M  ISO  4  13 100  21 100  65 101  66 101
M  END
>  <TORSDO>  (36) 
F 31

>  <SCORE>  (36) 
-5.206

>  <name>  (36) 
35

>  <ligand_id>  (36) 
35

>  <original_smiles>  (36) 
[H]c1c([H])c([H])c2c(c1[H])C([H])([H])C([H])([H])C([H])([H])C2([H])N([H])C(=O)C1([H])N(C(=O)C([H])(N([H])C(=O)C([H])(N([H])C([H])([H])[H])C([H])([H])[H])C(C([H])([H])[H])(C([H])([H])[H])C([H])([H])[H])C([H])([H])c2c([H])c(OC([H])([H])C([H])([H])[N+]([H])([H])C([H])([H])C([H])([H])OC([H])([H])C([H])([H])OC([H])([H])C([H])([H])N([H])C(=O)C([H])(N([H])C(=O)C([H])(N([H])C(=O)N3C([H])([H])C([H])([H])C([H])([H])C([H])(n4nc(-c5c([H])c([H])c(Oc6c([H])c([H])c(F)c([H])c6F)c([H])c5[H])c(C(=O)N([H])[H])c4N([H])[H])C3([H])[H])C([H])(C([H])([H])[H])C([H])([H])[H])C([H])([H])[H])c([H])c([H])c2C1([H])[H]

>  <smiles>  (36) 
[H]c1c([H])c([H])c2c(c1[H])C([H])([H])C([H])([H])C([H])([H])C2([H])N([H])C(=O)C1([H])N(C(=O)C([H])(N([H])C(=O)C([H])(N([H])C([H])([H])[H])C([H])([H])[H])C(C([H])([H])[H])(C([H])([H])[H])C([H])([H])[H])C([H])([H])c2c([H])c(OC([H])([H])C([H])([H])[N+]([H])([H])C([H])([H])C([H])([H])OC([H])([H])C([H])([H])OC([H])([H])C([H])([H])N([H])C(=O)C([H])(N([H])C(=O)C([H])(N([H])C(=O)N3C([H])([H])C([H])([H])C([H])([H])C([H])(n4nc(-c5c([H])c([H])c(Oc6c([H])c([H])c(F)c([H])c6F)c([H])c5[H])c(C(=O)N([H])[H])c4N([H])[H])C3([H])[H])C([H])(C([H])([H])[H])C([H])([H])[H])C([H])([H])[H])c([H])c([H])c2C1([H])[H]

$$$$
36:0:0
     RDKit          3D

 93100  0  0  1  0  0  0  0  0999 V2000
  -29.9990  -18.1840   21.3010 C   0  0  0  0  0  0  0  0  0  0  0  0
  -30.1820  -19.4710   20.9290 N   0  0  0  0  0  0  0  0  0  0  0  0
  -29.6060  -17.8760   22.4290 O   0  0  0  0  0  0  0  0  0  0  0  0
  -30.5670  -19.6320   20.0080 H   0  0  0  0  0  0  0  0  0  0  0  0
  -29.7450  -20.6740   21.6620 C   0  0  0  0  0  2  0  0  0  0  0  0
  -30.0380  -21.9990   20.8900 C   0  0  0  0  0  2  0  0  0  0  0  0
  -29.2300  -23.0970   21.3480 O   0  0  0  0  0  0  0  0  0  0  0  0
  -29.5940  -24.4000   20.8410 C   0  0  0  0  0  2  0  0  0  0  0  0
  -28.3350  -25.2520   20.5270 C   0  0  0  0  0  2  0  0  0  0  0  0
  -28.5310  -26.6870   20.4390 O   0  0  0  0  0  0  0  0  0  0  0  0
  -24.5960  -31.9290   23.2750 C   0  0  0  0  0  0  0  0  0  0  0  0
  -27.3740  -27.4500   20.3440 C   0  0  0  0  0  0  0  0  0  0  0  0
  -23.4600  -30.5050   21.6060 C   0  0  0  0  0  3  0  0  0  0  0  0
  -24.9740  -28.9690   20.2460 C   0  0  0  0  0  0  0  0  0  0  0  0
  -25.9930  -30.8740   21.4960 C   0  0  0  0  0  2  0  0  0  0  0  0
  -26.1120  -29.4980   20.8680 C   0  0  0  0  0  0  0  0  0  0  0  0
  -27.3160  -28.7510   20.9070 C   0  0  0  0  0  3  0  0  0  0  0  0
  -26.2130  -26.9510   19.7050 C   0  0  0  0  0  3  0  0  0  0  0  0
  -25.0230  -27.6960   19.6580 C   0  0  0  0  0  3  0  0  0  0  0  0
  -23.7240  -29.8180   20.2410 C   0  0  0  0  0  2  0  0  0  0  0  0
  -24.7000  -31.1190   22.1840 N   0  0  0  0  0  0  0  0  0  0  0  0
  -23.4940  -32.1990   23.7730 O   0  0  0  0  0  0  0  0  0  0  0  0
  -22.7820  -29.4860   22.5520 C   0  0  0  0  0  0  0  0  0  0  0  0
  -21.4670  -29.2810   22.3700 N   0  0  0  0  0  0  0  0  0  0  0  0
  -23.4370  -28.8830   23.4060 O   0  0  0  0  0  0  0  0  0  0  0  0
  -20.9980  -29.8200   21.6550 H   0  0  0  0  0  0  0  0  0  0  0  0
  -18.0910  -28.0420   22.7400 C   0  0  0  0  0  0  0  0  0  0  0  0
  -20.6310  -28.3410   23.1190 C   0  0  0  0  0  3  0  0  0  0  0  0
  -20.7780  -26.9050   22.5680 C   0  0  0  0  0  2  0  0  0  0  0  0
  -19.7260  -26.5510   21.5120 C   0  0  0  0  0  2  0  0  0  0  0  0
  -18.3150  -26.6860   22.0940 C   0  0  0  0  0  2  0  0  0  0  0  0
  -19.1790  -28.8270   23.2070 C   0  0  0  0  0  0  0  0  0  0  0  0
  -18.9170  -30.0950   23.7670 C   0  0  0  0  0  3  0  0  0  0  0  0
  -17.6000  -30.5800   23.8680 C   0  0  0  0  0  3  0  0  0  0  0  0
  -16.5260  -29.7930   23.4180 C   0  0  0  0  0  3  0  0  0  0  0  0
  -16.7710  -28.5270   22.8600 C   0  0  0  0  0  3  0  0  0  0  0  0
  -25.8540  -32.5770   23.9340 C   0  0  0  0  0  3  0  0  0  0  0  0
  -25.5300  -33.9810   24.2210 N   0  0  0  0  0  0  0  0  0  0  0  0
  -25.8930  -35.0170   23.4540 C   0  0  0  0  0  0  0  0  0  0  0  0
  -26.6060  -34.8940   22.4550 O   0  0  0  0  0  0  0  0  0  0  0  0
  -24.9010  -34.1510   24.9930 H   0  0  0  0  0  0  0  0  0  0  0  0
  -24.1850  -36.8020   22.9800 C   0  0  0  0  0  1  0  0  0  0  0  0
  -25.3840  -36.4140   23.8600 C   0  0  0  0  0  3  0  0  0  0  0  0
  -27.4710  -37.3180   24.7820 C   0  0  0  0  0  1  0  0  0  0  0  0
  -26.4210  -37.4650   23.7790 N   0  0  0  0  0  0  0  0  0  0  0  0
  -26.0080  -38.3880   23.8850 H   0  0  0  0  0  0  0  0  0  0  0  0
  -26.3220  -31.8330   25.2440 C   0  0  1  0  0  0  0  0  0  0  0  0
  -25.1860  -31.6020   26.2680 C   0  0  0  0  0  1  0  0  0  0  0  0
  -26.9350  -30.4550   24.9000 C   0  0  0  0  0  1  0  0  0  0  0  0
  -27.4350  -32.6510   25.9410 C   0  0  0  0  0  1  0  0  0  0  0  0
  -30.2190  -17.0870   20.2190 C   0  0  0  0  0  3  0  0  0  0  0  0
  -30.8070  -14.6280   20.3350 C   0  0  0  0  0  0  0  0  0  0  0  0
  -30.5350  -12.4490   19.2020 C   0  0  0  0  0  2  0  0  0  0  0  0
  -29.5900  -12.5990   17.9900 C   0  0  0  0  0  2  0  0  0  0  0  0
  -28.1050  -12.5400   18.4130 C   0  0  0  0  0  2  0  0  0  0  0  0
  -27.7770  -13.3570   19.6920 C   0  0  0  0  0  3  0  0  0  0  0  0
  -28.8340  -13.1270   20.7950 C   0  0  0  0  0  2  0  0  0  0  0  0
  -30.1520  -13.4400   20.2230 N   0  0  0  0  0  0  0  0  0  0  0  0
  -31.9570  -14.7920   19.9220 O   0  0  0  0  0  0  0  0  0  0  0  0
  -30.0430  -15.6860   20.6850 N   0  0  0  0  0  0  0  0  0  0  0  0
  -29.1110  -15.4760   21.0080 H   0  0  0  0  0  0  0  0  0  0  0  0
  -25.3750  -13.9610   20.3940 C   0  0  0  0  0  0  0  0  0  0  0  0
  -24.3110  -13.1870   20.7710 C   0  0  0  0  0  0  0  0  0  0  0  0
  -24.7810  -11.8380   20.7600 C   0  0  0  0  0  0  0  0  0  0  0  0
  -26.4260  -13.0830   20.1740 N   0  0  0  0  0  0  0  0  0  0  0  0
  -26.0720  -11.8030   20.4590 N   0  0  0  0  0  0  0  0  0  0  0  0
  -24.0630  -10.5730   20.9620 C   0  0  0  0  0  0  0  0  0  0  0  0
  -24.4830   -9.6330   21.9290 C   0  0  0  0  0  3  0  0  0  0  0  0
  -23.7660   -8.4310   22.1190 C   0  0  0  0  0  3  0  0  0  0  0  0
  -22.6170   -8.1600   21.3390 C   0  0  0  0  0  0  0  0  0  0  0  0
  -22.2160   -9.0880   20.3620 C   0  0  0  0  0  3  0  0  0  0  0  0
  -22.9330  -10.2810   20.1710 C   0  0  0  0  0  3  0  0  0  0  0  0
  -21.8730   -7.0090   21.4370 O   0  0  0  0  0  0  0  0  0  0  0  0
  -21.7840   -6.3060   22.6110 C   0  0  0  0  0  0  0  0  0  0  0  0
  -21.2780   -6.8910   23.7940 C   0  0  0  0  0  3  0  0  0  0  0  0
  -21.1400   -6.1120   24.9600 C   0  0  0  0  0  3  0  0  0  0  0  0
  -21.4980   -4.7490   24.9440 C   0  0  0  0  0  0  0  0  0  0  0  0
  -21.9950   -4.1650   23.7670 C   0  0  0  0  0  3  0  0  0  0  0  0
  -22.1350   -4.9410   22.6030 C   0  0  0  0  0  0  0  0  0  0  0  0
  -22.5960   -4.3670   21.4660 F   0  0  0  0  0  0  0  0  0  0  0  0
  -21.3570   -4.0000   26.0620 F   0  0  0  0  0  0  0  0  0  0  0  0
  -22.9080  -13.6570   21.0300 C   0  0  0  0  0  0  0  0  0  0  0  0
  -22.1820  -12.9640   21.9000 N   0  0  0  0  0  0  0  0  0  0  0  0
  -22.4650  -14.6730   20.4970 O   0  0  0  0  0  0  0  0  0  0  0  0
  -22.5530  -12.1430   22.3540 H   0  0  0  0  0  0  0  0  0  0  0  0
  -21.2400  -13.2600   22.1160 H   0  0  0  0  0  0  0  0  0  0  0  0
  -25.5340  -15.3290   20.1920 N   0  0  0  0  0  0  0  0  0  0  0  0
  -24.7610  -15.9800   20.2710 H   0  0  0  0  0  0  0  0  0  0  0  0
  -26.3650  -15.7490   19.7800 H   0  0  0  0  0  0  0  0  0  0  0  0
  -29.7160  -16.5740   17.7110 C   0  0  0  0  0  1  0  0  0  0  0  0
  -29.3010  -17.3180   18.9790 C   0  0  0  0  0  3  0  0  0  0  0  0
  -27.9550  -16.9640   19.2720 O   0  0  0  0  0  0  0  0  0  0  0  0
  -27.6120  -17.6020   19.8920 H   0  0  0  0  0  0  0  0  0  0  0  0
  1  3  2  0
  2  1  1  0
  2  5  1  0
  4  2  1  0
  6  7  1  0
  6  5  1  0
  8  7  1  0
  9  8  1  0
 10  9  1  0
 11 22  2  0
 12 10  1  0
 12 17  1  0
 13 21  1  0
 13 23  1  0
 14 16  1  0
 15 21  1  0
 16 17  2  0
 16 15  1  0
 18 12  2  0
 19 18  1  0
 19 14  2  0
 20 14  1  0
 20 13  1  0
 21 11  1  0
 23 25  2  0
 24 23  1  0
 26 24  1  0
 27 36  2  0
 27 32  1  0
 28 24  1  0
 28 32  1  0
 29 28  1  0
 30 31  1  0
 30 29  1  0
 31 27  1  0
 32 33  2  0
 33 34  1  0
 35 34  2  0
 36 35  1  0
 37 11  1  0
 37 38  1  0
 37 47  1  0
 38 41  1  0
 39 43  1  0
 39 38  1  0
 40 39  2  0
 43 42  1  0
 45 43  1  0
 45 46  1  0
 45 44  1  0
 47 50  1  1
 47 48  1  0
 49 47  1  0
 51 60  1  0
 51  1  1  0
 52 60  1  0
 53 58  1  0
 54 55  1  0
 54 53  1  0
 56 55  1  0
 56 65  1  0
 56 57  1  0
 58 52  1  0
 58 57  1  0
 59 52  2  0
 60 61  1  0
 62 63  2  0
 63 82  1  0
 64 63  1  0
 64 67  1  0
 65 62  1  0
 65 66  1  0
 66 64  2  0
 67 68  1  0
 68 69  2  0
 70 73  1  0
 70 69  1  0
 71 70  2  0
 72 71  1  0
 72 67  2  0
 73 74  1  0
 74 75  1  0
 75 76  2  0
 77 76  1  0
 77 81  1  0
 78 77  2  0
 79 74  2  0
 79 78  1  0
 80 79  1  0
 82 83  1  0
 83 86  1  0
 83 85  1  0
 84 82  2  0
 87 88  1  0
 87 62  1  0
 89 87  1  0
 91 90  1  0
 91 92  1  0
 91 51  1  0
 92 93  1  0
M  ISO  4   9 101  10 101  52 100  60 100
M  END
>  <TORSDO>  (37) 
F 24

>  <SCORE>  (37) 
-10.999

>  <name>  (37) 
36

>  <ligand_id>  (37) 
36

>  <original_smiles>  (37) 
[H]OC([H])(C([H])([H])[H])C([H])(C(=O)N([H])C([H])([H])C([H])([H])OC([H])([H])C([H])([H])Oc1c([H])c([H])c2c(c1[H])C([H])([H])N(C(=O)C([H])(N([H])C(=O)C([H])(N([H])C([H])([H])[H])C([H])([H])[H])C(C([H])([H])[H])(C([H])([H])[H])C([H])([H])[H])C([H])(C(=O)N([H])C1([H])c3c([H])c([H])c([H])c([H])c3C([H])([H])C([H])([H])C1([H])[H])C2([H])[H])N([H])C(=O)N1C([H])([H])C([H])([H])C([H])([H])C([H])(n2nc(-c3c([H])c([H])c(Oc4c([H])c([H])c(F)c([H])c4F)c([H])c3[H])c(C(=O)N([H])[H])c2N([H])[H])C1([H])[H]

>  <smiles>  (37) 
[H]OC([H])(C([H])([H])[H])C([H])(C(=O)N([H])C([H])([H])C([H])([H])OC([H])([H])C([H])([H])Oc1c([H])c([H])c2c(c1[H])C([H])([H])N(C(=O)C([H])(N([H])C(=O)C([H])(N([H])C([H])([H])[H])C([H])([H])[H])C(C([H])([H])[H])(C([H])([H])[H])C([H])([H])[H])C([H])(C(=O)N([H])C1([H])c3c([H])c([H])c([H])c([H])c3C([H])([H])C([H])([H])C1([H])[H])C2([H])[H])N([H])C(=O)N1C([H])([H])C([H])([H])C([H])([H])C([H])(n2nc(-c3c([H])c([H])c(Oc4c([H])c([H])c(F)c([H])c4F)c([H])c3[H])c(C(=O)N([H])[H])c2N([H])[H])C1([H])[H]

$$$$
37:0:0
     RDKit          3D

103111  0  0  1  0  0  0  0  0999 V2000
  -30.6530  -21.1200   22.7780 C   0  0  0  0  0  2  0  0  0  0  0  0
  -31.8180  -21.5810   21.8850 C   0  0  0  0  0  2  0  0  0  0  0  0
  -31.4060  -22.7020   21.1190 O   0  0  0  0  0  0  0  0  0  0  0  0
  -32.4160  -23.1550   20.2220 C   0  0  0  0  0  2  0  0  0  0  0  0
  -31.9230  -24.4480   19.5670 C   0  0  0  0  0  2  0  0  0  0  0  0
  -31.8050  -25.4180   20.5980 O   0  0  0  0  0  0  0  0  0  0  0  0
  -31.0360  -26.5560   20.2380 C   0  0  0  0  0  2  0  0  0  0  0  0
  -30.4640  -27.1500   21.5360 C   0  0  0  0  0  2  0  0  0  0  0  0
  -29.8590  -26.1290   22.3290 O   0  0  0  0  0  0  0  0  0  0  0  0
  -28.4460  -25.9870   22.2130 C   0  0  0  0  0  2  0  0  0  0  0  0
  -27.9840  -25.4560   20.8390 C   0  0  0  0  0  2  0  0  0  0  0  0
  -27.9390  -26.5060   19.8700 O   0  0  0  0  0  0  0  0  0  0  0  0
  -24.5080  -31.7660   23.1810 C   0  0  0  0  0  0  0  0  0  0  0  0
  -26.8100  -27.2770   19.9410 C   0  0  0  0  0  0  0  0  0  0  0  0
  -23.1640  -30.4380   21.5820 C   0  0  0  0  0  3  0  0  0  0  0  0
  -24.4800  -28.8540   20.0780 C   0  0  0  0  0  0  0  0  0  0  0  0
  -25.6870  -30.6980   21.2650 C   0  0  0  0  0  2  0  0  0  0  0  0
  -25.6840  -29.3330   20.6100 C   0  0  0  0  0  0  0  0  0  0  0  0
  -26.8560  -28.5540   20.5350 C   0  0  0  0  0  3  0  0  0  0  0  0
  -25.5950  -26.8010   19.4040 C   0  0  0  0  0  3  0  0  0  0  0  0
  -24.4280  -27.5840   19.4740 C   0  0  0  0  0  3  0  0  0  0  0  0
  -23.2780  -29.7630   20.1880 C   0  0  0  0  0  2  0  0  0  0  0  0
  -24.4750  -30.9790   22.0680 N   0  0  0  0  0  0  0  0  0  0  0  0
  -23.4680  -32.0790   23.7740 O   0  0  0  0  0  0  0  0  0  0  0  0
  -22.5130  -29.4360   22.5610 C   0  0  0  0  0  0  0  0  0  0  0  0
  -21.1880  -29.2520   22.4340 N   0  0  0  0  0  0  0  0  0  0  0  0
  -23.1950  -28.8240   23.3880 O   0  0  0  0  0  0  0  0  0  0  0  0
  -20.7010  -29.7980   21.7360 H   0  0  0  0  0  0  0  0  0  0  0  0
  -17.8320  -27.9920   22.8640 C   0  0  0  0  0  0  0  0  0  0  0  0
  -20.3680  -28.3310   23.2180 C   0  0  0  0  0  3  0  0  0  0  0  0
  -20.5290  -26.8770   22.7170 C   0  0  0  0  0  2  0  0  0  0  0  0
  -19.4760  -26.4760   21.6800 C   0  0  0  0  0  2  0  0  0  0  0  0
  -18.0670  -26.6170   22.2630 C   0  0  0  0  0  2  0  0  0  0  0  0
  -18.9130  -28.8040   23.2980 C   0  0  0  0  0  0  0  0  0  0  0  0
  -18.6410  -30.0890   23.8160 C   0  0  0  0  0  3  0  0  0  0  0  0
  -17.3200  -30.5640   23.9060 C   0  0  0  0  0  3  0  0  0  0  0  0
  -16.2520  -29.7500   23.4900 C   0  0  0  0  0  3  0  0  0  0  0  0
  -16.5080  -28.4660   22.9760 C   0  0  0  0  0  3  0  0  0  0  0  0
  -25.8500  -32.3280   23.7460 C   0  0  0  0  0  3  0  0  0  0  0  0
  -25.6150  -33.7230   24.1370 N   0  0  0  0  0  0  0  0  0  0  0  0
  -25.9580  -34.7870   23.3980 C   0  0  0  0  0  0  0  0  0  0  0  0
  -26.5790  -34.6930   22.3360 O   0  0  0  0  0  0  0  0  0  0  0  0
  -25.0620  -33.8750   24.9690 H   0  0  0  0  0  0  0  0  0  0  0  0
  -24.2860  -36.6510   23.1770 C   0  0  0  0  0  1  0  0  0  0  0  0
  -25.5470  -36.1760   23.9190 C   0  0  0  0  0  3  0  0  0  0  0  0
  -27.7510  -36.9490   24.6760 C   0  0  0  0  0  1  0  0  0  0  0  0
  -26.6140  -37.1940   23.7920 N   0  0  0  0  0  0  0  0  0  0  0  0
  -26.2520  -38.1220   23.9940 H   0  0  0  0  0  0  0  0  0  0  0  0
  -26.4110  -31.4920   24.9640 C   0  0  1  0  0  0  0  0  0  0  0  0
  -25.3730  -31.2580   26.0860 C   0  0  0  0  0  1  0  0  0  0  0  0
  -26.9140  -30.1090   24.4900 C   0  0  0  0  0  1  0  0  0  0  0  0
  -27.6310  -32.2170   25.5820 C   0  0  0  0  0  1  0  0  0  0  0  0
  -30.9650  -19.8530   23.5980 C   0  0  0  0  0  2  0  0  0  0  0  0
  -30.7110  -17.6520   22.4220 C   0  0  0  0  0  0  0  0  0  0  0  0
  -31.3850  -18.7680   22.7200 N   0  0  0  0  0  0  0  0  0  0  0  0
  -29.6800  -17.2970   22.9970 O   0  0  0  0  0  0  0  0  0  0  0  0
  -32.2540  -18.9080   22.2210 H   0  0  0  0  0  0  0  0  0  0  0  0
  -31.2830  -16.8460   21.2560 C   0  0  0  0  0  3  0  0  0  0  0  0
  -31.2680  -14.5040   20.4810 C   0  0  0  0  0  0  0  0  0  0  0  0
  -30.8030  -12.4840   19.1660 C   0  0  0  0  0  2  0  0  0  0  0  0
  -29.8800  -12.8490   17.9870 C   0  0  0  0  0  2  0  0  0  0  0  0
  -28.4010  -12.7730   18.4140 C   0  0  0  0  0  2  0  0  0  0  0  0
  -28.1170  -13.5250   19.7430 C   0  0  0  0  0  3  0  0  0  0  0  0
  -29.1590  -13.1600   20.8240 C   0  0  0  0  0  2  0  0  0  0  0  0
  -30.5000  -13.4050   20.2700 N   0  0  0  0  0  0  0  0  0  0  0  0
  -32.3830  -14.6510   19.9770 O   0  0  0  0  0  0  0  0  0  0  0  0
  -30.6900  -15.5100   21.1460 N   0  0  0  0  0  0  0  0  0  0  0  0
  -29.7720  -15.3820   21.5460 H   0  0  0  0  0  0  0  0  0  0  0  0
  -25.7350  -14.2020   20.4450 C   0  0  0  0  0  0  0  0  0  0  0  0
  -24.6390  -13.4580   20.7900 C   0  0  0  0  0  0  0  0  0  0  0  0
  -25.0530  -12.0930   20.7340 C   0  0  0  0  0  0  0  0  0  0  0  0
  -26.7520  -13.2890   20.2040 N   0  0  0  0  0  0  0  0  0  0  0  0
  -26.3430  -12.0150   20.4340 N   0  0  0  0  0  0  0  0  0  0  0  0
  -24.2820  -10.8530   20.8930 C   0  0  0  0  0  0  0  0  0  0  0  0
  -24.6810   -9.8460   21.8010 C   0  0  0  0  0  3  0  0  0  0  0  0
  -23.9130   -8.6710   21.9480 C   0  0  0  0  0  3  0  0  0  0  0  0
  -22.7330   -8.4940   21.1880 C   0  0  0  0  0  0  0  0  0  0  0  0
  -22.3540   -9.4890   20.2690 C   0  0  0  0  0  3  0  0  0  0  0  0
  -23.1220  -10.6550   20.1190 C   0  0  0  0  0  3  0  0  0  0  0  0
  -21.9390   -7.3740   21.2460 O   0  0  0  0  0  0  0  0  0  0  0  0
  -21.8470   -6.6160   22.3850 C   0  0  0  0  0  0  0  0  0  0  0  0
  -21.4500   -7.1710   23.6210 C   0  0  0  0  0  3  0  0  0  0  0  0
  -21.3030   -6.3410   24.7510 C   0  0  0  0  0  3  0  0  0  0  0  0
  -21.5420   -4.9580   24.6460 C   0  0  0  0  0  0  0  0  0  0  0  0
  -21.9320   -4.4030   23.4150 C   0  0  0  0  0  3  0  0  0  0  0  0
  -22.0810   -5.2290   22.2870 C   0  0  0  0  0  0  0  0  0  0  0  0
  -22.4370   -4.6850   21.0980 F   0  0  0  0  0  0  0  0  0  0  0  0
  -21.3930   -4.1590   25.7280 F   0  0  0  0  0  0  0  0  0  0  0  0
  -23.2570  -13.9780   21.0650 C   0  0  0  0  0  0  0  0  0  0  0  0
  -22.5090  -13.3000   21.9280 N   0  0  0  0  0  0  0  0  0  0  0  0
  -22.8490  -15.0190   20.5510 O   0  0  0  0  0  0  0  0  0  0  0  0
  -22.8500  -12.4560   22.3650 H   0  0  0  0  0  0  0  0  0  0  0  0
  -21.5810  -13.6290   22.1560 H   0  0  0  0  0  0  0  0  0  0  0  0
  -25.9460  -15.5690   20.2960 N   0  0  0  0  0  0  0  0  0  0  0  0
  -25.1950  -16.2410   20.4050 H   0  0  0  0  0  0  0  0  0  0  0  0
  -26.8010  -15.9890   19.9500 H   0  0  0  0  0  0  0  0  0  0  0  0
  -31.2580  -17.6040   19.9030 C   0  0  0  0  0  2  0  0  0  0  0  0
  -27.4710  -19.3700   18.7110 C   0  0  0  0  0  3  0  0  0  0  0  0
  -27.7780  -18.0460   18.3470 C   0  0  0  0  0  3  0  0  0  0  0  0
  -28.3940  -20.1240   19.4630 C   0  0  0  0  0  3  0  0  0  0  0  0
  -29.0070  -17.4760   18.7340 C   0  0  0  0  0  3  0  0  0  0  0  0
  -29.6210  -19.5540   19.8510 C   0  0  0  0  0  3  0  0  0  0  0  0
  -29.9300  -18.2240   19.4940 C   0  0  0  0  0  0  0  0  0  0  0  0
  1 53  1  0
  2  1  1  0
  3  2  1  0
  4  3  1  0
  5  4  1  0
  5  6  1  0
  7  6  1  0
  7  8  1  0
  8  9  1  0
 10  9  1  0
 11 10  1  0
 12 14  1  0
 12 11  1  0
 13 24  2  0
 14 19  1  0
 15 23  1  0
 15 25  1  0
 16 22  1  0
 16 18  1  0
 17 23  1  0
 18 17  1  0
 19 18  2  0
 20 21  1  0
 20 14  2  0
 21 16  2  0
 22 15  1  0
 23 13  1  0
 25 27  2  0
 26 25  1  0
 28 26  1  0
 29 38  2  0
 29 34  1  0
 30 26  1  0
 30 34  1  0
 31 30  1  0
 32 33  1  0
 32 31  1  0
 33 29  1  0
 34 35  2  0
 35 36  1  0
 37 36  2  0
 38 37  1  0
 39 13  1  0
 39 40  1  0
 39 49  1  0
 40 43  1  0
 41 45  1  0
 41 40  1  0
 42 41  2  0
 45 44  1  0
 47 45  1  0
 47 48  1  0
 47 46  1  0
 49 52  1  1
 49 50  1  0
 51 49  1  0
 54 55  1  0
 54 56  2  0
 55 53  1  0
 57 55  1  0
 58 97  1  0
 58 54  1  0
 59 67  1  0
 60 65  1  0
 61 62  1  0
 61 60  1  0
 63 62  1  0
 63 72  1  0
 63 64  1  0
 65 59  1  0
 65 64  1  0
 66 59  2  0
 67 58  1  0
 67 68  1  0
 69 70  2  0
 70 89  1  0
 71 70  1  0
 71 74  1  0
 72 73  1  0
 72 69  1  0
 73 71  2  0
 74 75  1  0
 75 76  2  0
 77 80  1  0
 77 76  1  0
 78 77  2  0
 79 78  1  0
 79 74  2  0
 80 81  1  0
 81 82  1  0
 82 83  2  0
 84 83  1  0
 84 88  1  0
 85 84  2  0
 86 81  2  0
 86 85  1  0
 87 86  1  0
 89 90  1  0
 90 93  1  0
 90 92  1  0
 91 89  2  0
 94 95  1  0
 94 69  1  0
 96 94  1  0
 98100  1  0
 99 98  2  0
 99101  1  0
100102  2  0
101103  2  0
103102  1  0
103 97  1  0
M  ISO  4  11 101  12 101  59 100  67 100
M  END
>  <TORSDO>  (38) 
F 31

>  <SCORE>  (38) 
-10.184

>  <name>  (38) 
37

>  <ligand_id>  (38) 
37

>  <original_smiles>  (38) 
[H]c1c([H])c([H])c(C([H])([H])C([H])(C(=O)N([H])C([H])([H])C([H])([H])C([H])([H])OC([H])([H])C([H])([H])OC([H])([H])C([H])([H])OC([H])([H])C([H])([H])Oc2c([H])c([H])c3c(c2[H])C([H])([H])N(C(=O)C([H])(N([H])C(=O)C([H])(N([H])C([H])([H])[H])C([H])([H])[H])C(C([H])([H])[H])(C([H])([H])[H])C([H])([H])[H])C([H])(C(=O)N([H])C2([H])c4c([H])c([H])c([H])c([H])c4C([H])([H])C([H])([H])C2([H])[H])C3([H])[H])N([H])C(=O)N2C([H])([H])C([H])([H])C([H])([H])C([H])(n3nc(-c4c([H])c([H])c(Oc5c([H])c([H])c(F)c([H])c5F)c([H])c4[H])c(C(=O)N([H])[H])c3N([H])[H])C2([H])[H])c([H])c1[H]

>  <smiles>  (38) 
[H]c1c([H])c([H])c(C([H])([H])C([H])(C(=O)N([H])C([H])([H])C([H])([H])C([H])([H])OC([H])([H])C([H])([H])OC([H])([H])C([H])([H])OC([H])([H])C([H])([H])Oc2c([H])c([H])c3c(c2[H])C([H])([H])N(C(=O)C([H])(N([H])C(=O)C([H])(N([H])C([H])([H])[H])C([H])([H])[H])C(C([H])([H])[H])(C([H])([H])[H])C([H])([H])[H])C([H])(C(=O)N([H])C2([H])c4c([H])c([H])c([H])c([H])c4C([H])([H])C([H])([H])C2([H])[H])C3([H])[H])N([H])C(=O)N2C([H])([H])C([H])([H])C([H])([H])C([H])(n3nc(-c4c([H])c([H])c(Oc5c([H])c([H])c(F)c([H])c5F)c([H])c4[H])c(C(=O)N([H])[H])c3N([H])[H])C2([H])[H])c([H])c1[H]

$$$$
38:0:0
     RDKit          3D

102109  0  0  1  0  0  0  0  0999 V2000
  -22.5360  -29.0960   26.0890 C   0  0  0  0  0  2  0  0  0  0  0  0
  -22.6260  -30.3040   25.1450 N   0  0  0  0  0  4  0  0  0  0  0  0
  -23.0820  -31.0690   25.6210 H   0  0  0  0  0  0  0  0  0  0  0  0
  -23.2510  -29.9910   24.4060 H   0  0  0  0  0  0  0  0  0  0  0  0
  -21.3750  -30.8490   24.4250 C   0  0  0  0  0  2  0  0  0  0  0  0
  -21.0090  -31.0990   22.7420 C   0  0  0  0  0  2  0  0  0  0  0  0
  -20.7470  -30.0820   21.3200 C   0  0  0  0  0  2  0  0  0  0  0  0
  -21.5930  -29.0040   20.4860 O   0  0  0  0  0  0  0  0  0  0  0  0
  -22.4030  -27.6070   20.4340 C   0  0  0  0  0  2  0  0  0  0  0  0
  -23.7090  -26.7180   21.1950 C   0  0  0  0  0  2  0  0  0  0  0  0
  -25.3930  -26.7330   21.5590 C   0  0  0  0  0  2  0  0  0  0  0  0
  -26.7680  -26.4760   20.8470 O   0  0  0  0  0  0  0  0  0  0  0  0
  -24.7250  -31.9310   23.1770 C   0  0  0  0  0  0  0  0  0  0  0  0
  -27.0710  -27.4640   20.0090 C   0  0  0  0  0  3  0  0  0  0  0  0
  -23.5670  -30.4370   21.5580 C   0  0  0  0  0  3  0  0  0  0  0  0
  -25.0150  -29.2180   19.8640 C   0  0  0  0  0  3  0  0  0  0  0  0
  -26.0800  -30.8460   21.4210 C   0  0  0  0  0  2  0  0  0  0  0  0
  -26.1300  -29.5710   20.6180 C   0  0  0  0  0  0  0  0  0  0  0  0
  -27.2310  -28.7050   20.6530 C   0  0  0  0  0  3  0  0  0  0  0  0
  -26.1450  -27.2650   18.9920 C   0  0  0  0  0  3  0  0  0  0  0  0
  -25.0400  -28.1160   18.9830 C   0  0  0  0  0  3  0  0  0  0  0  0
  -23.8630  -30.1230   20.0440 C   0  0  0  0  0  2  0  0  0  0  0  0
  -24.7900  -31.1010   22.1010 N   0  0  0  0  0  0  0  0  0  0  0  0
  -23.6510  -32.2650   23.6760 O   0  0  0  0  0  0  0  0  0  0  0  0
  -23.1370  -29.2600   22.6090 C   0  0  0  0  0  0  0  0  0  0  0  0
  -21.9890  -28.5800   23.0700 N   0  0  0  0  0  0  0  0  0  0  0  0
  -24.0160  -28.8910   23.3420 O   0  0  0  0  0  0  0  0  0  0  0  0
  -22.4500  -27.9070   23.6690 H   0  0  0  0  0  0  0  0  0  0  0  0
  -17.9570  -28.1200   22.7830 C   0  0  0  0  0  0  0  0  0  0  0  0
  -20.5210  -28.1180   23.2120 C   0  0  0  0  0  3  0  0  0  0  0  0
  -20.4390  -26.6880   22.6860 C   0  0  0  0  0  2  0  0  0  0  0  0
  -19.4600  -26.5370   21.5310 C   0  0  0  0  0  2  0  0  0  0  0  0
  -18.0810  -26.7780   22.0820 C   0  0  0  0  0  2  0  0  0  0  0  0
  -19.0700  -28.8190   23.3380 C   0  0  0  0  0  0  0  0  0  0  0  0
  -18.6600  -30.0000   24.0590 C   0  0  0  0  0  3  0  0  0  0  0  0
  -17.3870  -30.5470   24.0780 C   0  0  0  0  0  3  0  0  0  0  0  0
  -16.3550  -29.8560   23.4700 C   0  0  0  0  0  3  0  0  0  0  0  0
  -16.6410  -28.6220   22.8810 C   0  0  0  0  0  3  0  0  0  0  0  0
  -26.0050  -32.5170   23.8250 C   0  0  0  0  0  3  0  0  0  0  0  0
  -25.6570  -33.8830   24.2250 N   0  0  0  0  0  0  0  0  0  0  0  0
  -25.9260  -34.9730   23.4950 C   0  0  0  0  0  0  0  0  0  0  0  0
  -26.5560  -34.9190   22.4330 O   0  0  0  0  0  0  0  0  0  0  0  0
  -25.0690  -33.9780   25.0400 H   0  0  0  0  0  0  0  0  0  0  0  0
  -24.1490  -36.7490   23.2600 C   0  0  0  0  0  1  0  0  0  0  0  0
  -25.4200  -36.3320   24.0210 C   0  0  0  0  0  3  0  0  0  0  0  0
  -27.5640  -37.1980   24.8400 C   0  0  0  0  0  1  0  0  0  0  0  0
  -26.4340  -37.4080   23.9390 N   0  0  0  0  0  0  0  0  0  0  0  0
  -26.0280  -38.3220   24.1340 H   0  0  0  0  0  0  0  0  0  0  0  0
  -26.5440  -31.7000   25.0630 C   0  0  1  0  0  0  0  0  0  0  0  0
  -25.5210  -31.4360   26.1700 C   0  0  0  0  0  1  0  0  0  0  0  0
  -27.1070  -30.3230   24.6310 C   0  0  0  0  0  1  0  0  0  0  0  0
  -27.6990  -32.4770   25.7240 C   0  0  0  0  0  1  0  0  0  0  0  0
  -23.8370  -28.3630   26.6500 C   0  0  0  0  0  2  0  0  0  0  0  0
  -24.8360  -27.4120   25.8550 C   0  0  0  0  0  2  0  0  0  0  0  0
  -24.4390  -26.0910   25.3780 O   0  0  0  0  0  0  0  0  0  0  0  0
  -25.4380  -25.0180   25.4860 C   0  0  0  0  0  2  0  0  0  0  0  0
  -25.7530  -24.1490   24.2080 C   0  0  0  0  0  2  0  0  0  0  0  0
  -26.0200  -22.7330   24.4290 O   0  0  0  0  0  0  0  0  0  0  0  0
  -26.9160  -22.1000   23.4700 C   0  0  0  0  0  2  0  0  0  0  0  0
  -26.9190  -20.5170   23.4130 C   0  0  0  0  0  2  0  0  0  0  0  0
  -27.9130  -19.9550   22.5070 O   0  0  0  0  0  0  0  0  0  0  0  0
  -28.0310  -18.5020   22.4240 C   0  0  0  0  0  2  0  0  0  0  0  0
  -29.2220  -18.0480   21.4930 C   0  0  0  0  0  2  0  0  0  0  0  0
  -30.1220  -16.8000   21.8680 C   0  0  0  0  0  2  0  0  0  0  0  0
  -30.5820  -14.5490   20.6670 C   0  0  0  0  0  0  0  0  0  0  0  0
  -30.4390  -12.3850   19.4350 C   0  0  0  0  0  2  0  0  0  0  0  0
  -29.5010  -12.5350   18.2170 C   0  0  0  0  0  2  0  0  0  0  0  0
  -28.0210  -12.3650   18.6200 C   0  0  0  0  0  2  0  0  0  0  0  0
  -27.6510  -13.1980   19.8740 C   0  0  0  0  0  3  0  0  0  0  0  0
  -28.6760  -12.9560   20.9980 C   0  0  0  0  0  2  0  0  0  0  0  0
  -29.9940  -13.3370   20.4690 N   0  0  0  0  0  0  0  0  0  0  0  0
  -31.7100  -14.8090   20.2280 O   0  0  0  0  0  0  0  0  0  0  0  0
  -29.7910  -15.4640   21.3040 N   0  0  0  0  0  0  0  0  0  0  0  0
  -28.8800  -15.1050   21.5540 H   0  0  0  0  0  0  0  0  0  0  0  0
  -25.2550  -13.8160   20.5640 C   0  0  0  0  0  0  0  0  0  0  0  0
  -24.1780  -13.0410   20.9170 C   0  0  0  0  0  0  0  0  0  0  0  0
  -24.6340  -11.6900   20.8730 C   0  0  0  0  0  0  0  0  0  0  0  0
  -26.2930  -12.9270   20.3280 N   0  0  0  0  0  0  0  0  0  0  0  0
  -25.9240  -11.6450   20.5710 N   0  0  0  0  0  0  0  0  0  0  0  0
  -23.9020  -10.4280   21.0410 C   0  0  0  0  0  0  0  0  0  0  0  0
  -24.3600   -9.4200   21.9180 C   0  0  0  0  0  3  0  0  0  0  0  0
  -23.6280   -8.2240   22.0750 C   0  0  0  0  0  3  0  0  0  0  0  0
  -22.4260   -8.0270   21.3550 C   0  0  0  0  0  0  0  0  0  0  0  0
  -21.9890   -9.0240   20.4650 C   0  0  0  0  0  3  0  0  0  0  0  0
  -22.7200  -10.2120   20.3050 C   0  0  0  0  0  3  0  0  0  0  0  0
  -21.6630   -6.8870   21.4240 O   0  0  0  0  0  0  0  0  0  0  0  0
  -21.6850   -6.0730   22.5280 C   0  0  0  0  0  0  0  0  0  0  0  0
  -21.4010   -6.5640   23.8210 C   0  0  0  0  0  3  0  0  0  0  0  0
  -21.3660   -5.6790   24.9180 C   0  0  0  0  0  3  0  0  0  0  0  0
  -21.6050   -4.3060   24.7230 C   0  0  0  0  0  0  0  0  0  0  0  0
  -21.8820   -3.8140   23.4350 C   0  0  0  0  0  3  0  0  0  0  0  0
  -21.9190   -4.6960   22.3400 C   0  0  0  0  0  0  0  0  0  0  0  0
  -22.1660   -4.2150   21.0980 F   0  0  0  0  0  0  0  0  0  0  0  0
  -21.5630   -3.4540   25.7740 F   0  0  0  0  0  0  0  0  0  0  0  0
  -22.7840  -13.5250   21.1840 C   0  0  0  0  0  0  0  0  0  0  0  0
  -22.0470  -12.8230   22.0420 N   0  0  0  0  0  0  0  0  0  0  0  0
  -22.3530  -14.5550   20.6710 O   0  0  0  0  0  0  0  0  0  0  0  0
  -22.4090  -11.9890   22.4790 H   0  0  0  0  0  0  0  0  0  0  0  0
  -21.1110  -13.1280   22.2640 H   0  0  0  0  0  0  0  0  0  0  0  0
  -25.4290  -15.1850   20.4070 N   0  0  0  0  0  0  0  0  0  0  0  0
  -24.6610  -15.8420   20.5040 H   0  0  0  0  0  0  0  0  0  0  0  0
  -26.2780  -15.6180   20.0620 H   0  0  0  0  0  0  0  0  0  0  0  0
  1 53  1  0
  2  3  1  0
  2  1  1  0
  4  2  1  0
  5  2  1  0
  6  5  1  0
  7  6  1  0
  8  7  1  0
  9  8  1  0
  9 10  1  0
 10 11  1  0
 12 11  1  0
 13 24  2  0
 14 19  1  0
 14 12  1  0
 15 23  1  0
 15 25  1  0
 16 21  1  0
 16 22  1  0
 16 18  1  0
 17 23  1  0
 18 19  2  0
 18 17  1  0
 20 14  1  0
 21 20  2  0
 22 15  1  0
 23 13  1  0
 25 26  1  0
 25 27  2  0
 26 28  1  0
 29 38  2  0
 29 34  1  0
 30 26  1  0
 30 34  1  0
 31 30  1  0
 32 33  1  0
 32 31  1  0
 33 29  1  0
 34 35  2  0
 35 36  1  0
 37 36  2  0
 38 37  1  0
 39 13  1  0
 39 40  1  0
 39 49  1  0
 40 43  1  0
 41 45  1  0
 41 40  1  0
 42 41  2  0
 45 44  1  0
 47 45  1  0
 47 48  1  0
 47 46  1  0
 49 52  1  1
 49 50  1  0
 51 49  1  0
 54 53  1  0
 55 56  1  0
 55 54  1  0
 57 58  1  0
 57 56  1  0
 59 58  1  0
 60 59  1  0
 61 60  1  0
 62 61  1  0
 63 64  1  0
 63 62  1  0
 65 73  1  0
 66 71  1  0
 67 68  1  0
 67 66  1  0
 69 68  1  0
 69 78  1  0
 69 70  1  0
 71 65  1  0
 71 70  1  0
 72 65  2  0
 73 74  1  0
 73 64  1  0
 75 76  2  0
 76 95  1  0
 77 76  1  0
 77 80  1  0
 78 75  1  0
 78 79  1  0
 79 77  2  0
 80 81  1  0
 81 82  2  0
 83 86  1  0
 83 82  1  0
 84 83  2  0
 85 84  1  0
 85 80  2  0
 86 87  1  0
 87 88  1  0
 88 89  2  0
 90 89  1  0
 90 94  1  0
 91 90  2  0
 92 87  2  0
 92 91  1  0
 93 92  1  0
 95 96  1  0
 96 99  1  0
 96 98  1  0
 97 95  2  0
100101  1  0
100 75  1  0
102100  1  0
M  ISO  4  11 101  12 101  65 100  73 100
M  END
>  <TORSDO>  (39) 
F 36

>  <SCORE>  (39) 
23.642

>  <name>  (39) 
38

>  <ligand_id>  (39) 
38

>  <original_smiles>  (39) 
[H]c1c([H])c([H])c2c(c1[H])C([H])([H])C([H])([H])C([H])([H])C2([H])N([H])C(=O)C1([H])N(C(=O)C([H])(N([H])C(=O)C([H])(N([H])C([H])([H])[H])C([H])([H])[H])C(C([H])([H])[H])(C([H])([H])[H])C([H])([H])[H])C([H])([H])c2c([H])c(OC([H])([H])C([H])([H])C([H])([H])OC([H])([H])C([H])([H])C([H])([H])[N+]([H])([H])C([H])([H])C([H])([H])C([H])([H])OC([H])([H])C([H])([H])OC([H])([H])C([H])([H])OC([H])([H])C([H])([H])C([H])([H])N([H])C(=O)N3C([H])([H])C([H])([H])C([H])([H])C([H])(n4nc(-c5c([H])c([H])c(Oc6c([H])c([H])c(F)c([H])c6F)c([H])c5[H])c(C(=O)N([H])[H])c4N([H])[H])C3([H])[H])c([H])c([H])c2C1([H])[H]

>  <smiles>  (39) 
[H]c1c([H])c([H])c2c(c1[H])C([H])([H])C([H])([H])C([H])([H])C2([H])N([H])C(=O)C1([H])N(C(=O)C([H])(N([H])C(=O)C([H])(N([H])C([H])([H])[H])C([H])([H])[H])C(C([H])([H])[H])(C([H])([H])[H])C([H])([H])[H])C([H])([H])c2c([H])c(OC([H])([H])C([H])([H])C([H])([H])OC([H])([H])C([H])([H])C([H])([H])[N+]([H])([H])C([H])([H])C([H])([H])C([H])([H])OC([H])([H])C([H])([H])OC([H])([H])C([H])([H])OC([H])([H])C([H])([H])C([H])([H])N([H])C(=O)N3C([H])([H])C([H])([H])C([H])([H])C([H])(n4nc(-c5c([H])c([H])c(Oc6c([H])c([H])c(F)c([H])c6F)c([H])c5[H])c(C(=O)N([H])[H])c4N([H])[H])C3([H])[H])c([H])c([H])c2C1([H])[H]

$$$$
39:0:0
     RDKit          3D

 97104  0  0  1  0  0  0  0  0999 V2000
  -32.6440  -21.4220   21.9120 C   0  0  0  0  0  0  0  0  0  0  0  0
  -31.5810  -21.5370   21.0970 N   0  0  0  0  0  0  0  0  0  0  0  0
  -33.5620  -22.2450   21.8460 O   0  0  0  0  0  0  0  0  0  0  0  0
  -30.8400  -20.8540   21.1650 H   0  0  0  0  0  0  0  0  0  0  0  0
  -34.1510  -19.5530   22.8200 C   0  0  0  0  0  1  0  0  0  0  0  0
  -32.7790  -20.2580   22.9390 C   0  0  0  0  0  3  0  0  0  0  0  0
  -31.5950  -19.2570   22.8990 C   0  0  0  0  0  0  0  0  0  0  0  0
  -31.4850  -18.4310   21.8510 N   0  0  0  0  0  0  0  0  0  0  0  0
  -30.8060  -19.2010   23.8450 O   0  0  0  0  0  0  0  0  0  0  0  0
  -32.1540  -18.4930   21.0930 H   0  0  0  0  0  0  0  0  0  0  0  0
  -30.5460  -17.3150   21.7160 C   0  0  0  0  0  2  0  0  0  0  0  0
  -31.2830  -13.9970   20.1380 C   0  0  0  0  0  0  0  0  0  0  0  0
  -30.8470  -11.8570   19.0190 C   0  0  0  0  0  2  0  0  0  0  0  0
  -29.9410  -12.1130   17.7980 C   0  0  0  0  0  2  0  0  0  0  0  0
  -28.4600  -12.0380   18.2080 C   0  0  0  0  0  2  0  0  0  0  0  0
  -28.1410  -12.9000   19.4580 C   0  0  0  0  0  3  0  0  0  0  0  0
  -29.1730  -12.6690   20.5870 C   0  0  0  0  0  2  0  0  0  0  0  0
  -30.5230  -12.8730   20.0350 N   0  0  0  0  0  0  0  0  0  0  0  0
  -32.4020  -14.0660   19.6250 O   0  0  0  0  0  0  0  0  0  0  0  0
  -31.1550  -16.3200   20.7310 C   0  0  0  0  0  0  0  0  0  0  0  0
  -30.7120  -15.0480   20.7570 N   0  0  0  0  0  0  0  0  0  0  0  0
  -32.0370  -16.7460   19.9710 O   0  0  0  0  0  0  0  0  0  0  0  0
  -29.8710  -14.8580   21.2790 H   0  0  0  0  0  0  0  0  0  0  0  0
  -25.7300  -13.5800   20.0490 C   0  0  0  0  0  0  0  0  0  0  0  0
  -24.6410  -12.8450   20.4370 C   0  0  0  0  0  0  0  0  0  0  0  0
  -25.0860  -11.4900   20.5140 C   0  0  0  0  0  0  0  0  0  0  0  0
  -26.7710  -12.6750   19.9140 N   0  0  0  0  0  0  0  0  0  0  0  0
  -26.3830  -11.4160   20.2500 N   0  0  0  0  0  0  0  0  0  0  0  0
  -24.3390  -10.2490   20.7670 C   0  0  0  0  0  0  0  0  0  0  0  0
  -24.6420   -9.4190   21.8700 C   0  0  0  0  0  3  0  0  0  0  0  0
  -23.8980   -8.2420   22.1020 C   0  0  0  0  0  3  0  0  0  0  0  0
  -22.8380   -7.8880   21.2330 C   0  0  0  0  0  0  0  0  0  0  0  0
  -22.5600   -8.7050   20.1240 C   0  0  0  0  0  3  0  0  0  0  0  0
  -23.3060   -9.8730   19.8900 C   0  0  0  0  0  3  0  0  0  0  0  0
  -22.0770   -6.7520   21.3680 O   0  0  0  0  0  0  0  0  0  0  0  0
  -21.7740   -6.2310   22.6000 C   0  0  0  0  0  0  0  0  0  0  0  0
  -21.0190   -6.9520   23.5520 C   0  0  0  0  0  3  0  0  0  0  0  0
  -20.6740   -6.3500   24.7790 C   0  0  0  0  0  3  0  0  0  0  0  0
  -21.0710   -5.0280   25.0530 C   0  0  0  0  0  0  0  0  0  0  0  0
  -21.8170   -4.3060   24.1030 C   0  0  0  0  0  3  0  0  0  0  0  0
  -22.1630   -4.9050   22.8800 C   0  0  0  0  0  0  0  0  0  0  0  0
  -22.8650   -4.1970   21.9620 F   0  0  0  0  0  0  0  0  0  0  0  0
  -20.7320   -4.4470   26.2270 F   0  0  0  0  0  0  0  0  0  0  0  0
  -23.2440  -13.3520   20.6400 C   0  0  0  0  0  0  0  0  0  0  0  0
  -22.4810  -12.7160   21.5240 N   0  0  0  0  0  0  0  0  0  0  0  0
  -22.8350  -14.3480   20.0430 O   0  0  0  0  0  0  0  0  0  0  0  0
  -22.8240  -11.9100   22.0250 H   0  0  0  0  0  0  0  0  0  0  0  0
  -21.5430  -13.0450   21.7080 H   0  0  0  0  0  0  0  0  0  0  0  0
  -25.9190  -14.9330   19.7810 N   0  0  0  0  0  0  0  0  0  0  0  0
  -25.1570  -15.6000   19.8040 H   0  0  0  0  0  0  0  0  0  0  0  0
  -26.7850  -15.3320   19.4400 H   0  0  0  0  0  0  0  0  0  0  0  0
  -31.4750  -22.5480   20.0450 C   0  0  0  0  0  2  0  0  0  0  0  0
  -30.1620  -22.4380   19.2530 C   0  0  0  0  0  2  0  0  0  0  0  0
  -29.0990  -23.1320   19.9090 O   0  0  0  0  0  0  0  0  0  0  0  0
  -29.0430  -24.5260   19.5890 C   0  0  0  0  0  2  0  0  0  0  0  0
  -27.8490  -25.2140   20.2810 C   0  0  0  0  0  2  0  0  0  0  0  0
  -27.9440  -26.6480   20.1600 O   0  0  0  0  0  0  0  0  0  0  0  0
  -24.3810  -31.9180   23.4190 C   0  0  0  0  0  0  0  0  0  0  0  0
  -26.7860  -27.4010   20.2200 C   0  0  0  0  0  0  0  0  0  0  0  0
  -23.0950  -30.5870   21.7820 C   0  0  0  0  0  3  0  0  0  0  0  0
  -24.4560  -29.0160   20.3090 C   0  0  0  0  0  0  0  0  0  0  0  0
  -25.6330  -30.8440   21.5440 C   0  0  0  0  0  2  0  0  0  0  0  0
  -25.6470  -29.4790   20.8820 C   0  0  0  0  0  0  0  0  0  0  0  0
  -26.8150  -28.6820   20.8280 C   0  0  0  0  0  3  0  0  0  0  0  0
  -25.5700  -26.9600   19.6430 C   0  0  0  0  0  3  0  0  0  0  0  0
  -24.4120  -27.7580   19.6870 C   0  0  0  0  0  3  0  0  0  0  0  0
  -23.2520  -29.9260   20.3870 C   0  0  0  0  0  2  0  0  0  0  0  0
  -24.3900  -31.1330   22.3040 N   0  0  0  0  0  0  0  0  0  0  0  0
  -23.3190  -32.2240   23.9810 O   0  0  0  0  0  0  0  0  0  0  0  0
  -22.4260  -29.5740   22.7380 C   0  0  0  0  0  0  0  0  0  0  0  0
  -21.1080  -29.3740   22.5710 N   0  0  0  0  0  0  0  0  0  0  0  0
  -23.0880  -28.9740   23.5870 O   0  0  0  0  0  0  0  0  0  0  0  0
  -20.6360  -29.9120   21.8570 H   0  0  0  0  0  0  0  0  0  0  0  0
  -17.7420  -28.0990   22.9320 C   0  0  0  0  0  0  0  0  0  0  0  0
  -20.2740  -28.4400   23.3290 C   0  0  0  0  0  3  0  0  0  0  0  0
  -20.4430  -26.9910   22.8140 C   0  0  0  0  0  2  0  0  0  0  0  0
  -19.4060  -26.6020   21.7570 C   0  0  0  0  0  2  0  0  0  0  0  0
  -17.9900  -26.7310   22.3200 C   0  0  0  0  0  2  0  0  0  0  0  0
  -18.8140  -28.9090   23.3920 C   0  0  0  0  0  0  0  0  0  0  0  0
  -18.5300  -30.1860   23.9200 C   0  0  0  0  0  3  0  0  0  0  0  0
  -17.2040  -30.6540   23.9970 C   0  0  0  0  0  3  0  0  0  0  0  0
  -16.1460  -29.8420   23.5520 C   0  0  0  0  0  3  0  0  0  0  0  0
  -16.4160  -28.5680   23.0250 C   0  0  0  0  0  3  0  0  0  0  0  0
  -25.6990  -32.4920   24.0260 C   0  0  0  0  0  3  0  0  0  0  0  0
  -25.4880  -33.9260   24.2640 N   0  0  0  0  0  0  0  0  0  0  0  0
  -25.9250  -34.9030   23.4590 C   0  0  0  0  0  0  0  0  0  0  0  0
  -26.6180  -34.6880   22.4600 O   0  0  0  0  0  0  0  0  0  0  0  0
  -24.8770  -34.1750   25.0290 H   0  0  0  0  0  0  0  0  0  0  0  0
  -24.3780  -36.8110   22.9110 C   0  0  0  0  0  1  0  0  0  0  0  0
  -25.5310  -36.3490   23.8160 C   0  0  0  0  0  3  0  0  0  0  0  0
  -27.6700  -37.1120   24.7470 C   0  0  0  0  0  1  0  0  0  0  0  0
  -26.6550  -37.3040   23.7150 N   0  0  0  0  0  0  0  0  0  0  0  0
  -26.3210  -38.2630   23.7700 H   0  0  0  0  0  0  0  0  0  0  0  0
  -26.1410  -31.7630   25.3530 C   0  0  1  0  0  0  0  0  0  0  0  0
  -25.0120  -31.6390   26.4020 C   0  0  0  0  0  1  0  0  0  0  0  0
  -26.6570  -30.3370   25.0460 C   0  0  0  0  0  1  0  0  0  0  0  0
  -27.3170  -32.5320   26.0030 C   0  0  0  0  0  1  0  0  0  0  0  0
  1  6  1  0
  2  4  1  0
  2  1  1  0
  3  1  2  0
  6  5  1  0
  7  6  1  0
  7  9  2  0
  8  7  1  0
 10  8  1  0
 11  8  1  0
 12 21  1  0
 13 18  1  0
 14 15  1  0
 14 13  1  0
 16 15  1  0
 16 27  1  0
 16 17  1  0
 18 12  1  0
 18 17  1  0
 19 12  2  0
 20 21  1  0
 20 11  1  0
 21 23  1  0
 22 20  2  0
 24 25  2  0
 25 26  1  0
 25 44  1  0
 26 29  1  0
 27 24  1  0
 27 28  1  0
 28 26  2  0
 29 30  1  0
 30 31  2  0
 32 35  1  0
 32 31  1  0
 33 32  2  0
 34 33  1  0
 34 29  2  0
 35 36  1  0
 36 41  2  0
 36 37  1  0
 37 38  2  0
 38 39  1  0
 39 43  1  0
 40 39  2  0
 41 40  1  0
 42 41  1  0
 44 45  1  0
 45 48  1  0
 45 47  1  0
 46 44  2  0
 49 50  1  0
 49 24  1  0
 51 49  1  0
 52  2  1  0
 53 54  1  0
 53 52  1  0
 55 54  1  0
 55 56  1  0
 57 59  1  0
 57 56  1  0
 58 69  2  0
 59 64  1  0
 60 68  1  0
 60 70  1  0
 61 67  1  0
 61 63  1  0
 62 68  1  0
 63 62  1  0
 64 63  2  0
 65 66  1  0
 65 59  2  0
 66 61  2  0
 67 60  1  0
 68 58  1  0
 70 72  2  0
 71 70  1  0
 73 71  1  0
 74 83  2  0
 74 79  1  0
 75 71  1  0
 75 79  1  0
 76 75  1  0
 77 78  1  0
 77 76  1  0
 78 74  1  0
 79 80  2  0
 80 81  1  0
 82 81  2  0
 83 82  1  0
 84 58  1  0
 84 85  1  0
 84 94  1  0
 85 88  1  0
 86 90  1  0
 86 85  1  0
 87 86  2  0
 90 89  1  0
 92 93  1  0
 92 90  1  0
 92 91  1  0
 94 97  1  1
 94 95  1  0
 96 94  1  0
M  ISO  4  12 100  21 100  56 101  57 101
M  END
>  <TORSDO>  (40) 
F 24

>  <SCORE>  (40) 
-9.371

>  <name>  (40) 
39

>  <ligand_id>  (40) 
39

>  <original_smiles>  (40) 
[H]c1c([H])c([H])c2c(c1[H])C([H])([H])C([H])([H])C([H])([H])C2([H])N([H])C(=O)C1([H])N(C(=O)C([H])(N([H])C(=O)C([H])(N([H])C([H])([H])[H])C([H])([H])[H])C(C([H])([H])[H])(C([H])([H])[H])C([H])([H])[H])C([H])([H])c2c([H])c(OC([H])([H])C([H])([H])OC([H])([H])C([H])([H])N([H])C(=O)C([H])(C(=O)N([H])C([H])([H])C(=O)N([H])C(=O)N3C([H])([H])C([H])([H])C([H])([H])C([H])(n4nc(-c5c([H])c([H])c(Oc6c([H])c([H])c(F)c([H])c6F)c([H])c5[H])c(C(=O)N([H])[H])c4N([H])[H])C3([H])[H])C([H])([H])[H])c([H])c([H])c2C1([H])[H]

>  <smiles>  (40) 
[H]c1c([H])c([H])c2c(c1[H])C([H])([H])C([H])([H])C([H])([H])C2([H])N([H])C(=O)C1([H])N(C(=O)C([H])(N([H])C(=O)C([H])(N([H])C([H])([H])[H])C([H])([H])[H])C(C([H])([H])[H])(C([H])([H])[H])C([H])([H])[H])C([H])([H])c2c([H])c(OC([H])([H])C([H])([H])OC([H])([H])C([H])([H])N([H])C(=O)C([H])(C(=O)N([H])C([H])([H])C(=O)N([H])C(=O)N3C([H])([H])C([H])([H])C([H])([H])C([H])(n4nc(-c5c([H])c([H])c(Oc6c([H])c([H])c(F)c([H])c6F)c([H])c5[H])c(C(=O)N([H])[H])c4N([H])[H])C3([H])[H])C([H])([H])[H])c([H])c([H])c2C1([H])[H]

$$$$
40:0:0
     RDKit          3D

 99106  0  0  1  0  0  0  0  0999 V2000
  -29.7470  -23.0430   20.2430 O   0  0  0  0  0  0  0  0  0  0  0  0
  -30.2210  -22.9570   18.9000 C   0  0  0  0  0  2  0  0  0  0  0  0
  -30.0920  -24.3310   18.2250 C   0  0  0  0  0  2  0  0  0  0  0  0
  -31.0770  -25.1990   18.7640 O   0  0  0  0  0  0  0  0  0  0  0  0
  -31.0110  -26.5250   18.2590 C   0  0  0  0  0  2  0  0  0  0  0  0
  -32.0280  -27.3520   19.0580 C   0  0  0  0  0  2  0  0  0  0  0  0
  -31.7160  -27.4130   20.4500 O   0  0  0  0  0  0  0  0  0  0  0  0
  -30.4830  -28.0450   20.7890 C   0  0  0  0  0  2  0  0  0  0  0  0
  -29.4360  -27.0130   21.2620 C   0  0  0  0  0  2  0  0  0  0  0  0
  -28.4360  -26.7270   20.2780 O   0  0  0  0  0  0  0  0  0  0  0  0
  -24.5560  -31.9000   23.2570 C   0  0  0  0  0  0  0  0  0  0  0  0
  -27.2900  -27.4880   20.2750 C   0  0  0  0  0  0  0  0  0  0  0  0
  -23.3720  -30.4710   21.6140 C   0  0  0  0  0  3  0  0  0  0  0  0
  -24.8590  -28.9330   20.2210 C   0  0  0  0  0  0  0  0  0  0  0  0
  -25.8850  -30.8710   21.4250 C   0  0  0  0  0  2  0  0  0  0  0  0
  -25.9940  -29.4930   20.8140 C   0  0  0  0  0  0  0  0  0  0  0  0
  -27.2070  -28.7810   20.8430 C   0  0  0  0  0  3  0  0  0  0  0  0
  -26.1420  -26.9410   19.6650 C   0  0  0  0  0  3  0  0  0  0  0  0
  -24.9240  -27.6520   19.6410 C   0  0  0  0  0  3  0  0  0  0  0  0
  -23.6000  -29.7700   20.2440 C   0  0  0  0  0  2  0  0  0  0  0  0
  -24.6230  -31.0940   22.1590 N   0  0  0  0  0  0  0  0  0  0  0  0
  -23.4710  -32.1680   23.7890 O   0  0  0  0  0  0  0  0  0  0  0  0
  -22.7240  -29.4580   22.5830 C   0  0  0  0  0  0  0  0  0  0  0  0
  -21.4040  -29.2590   22.4420 N   0  0  0  0  0  0  0  0  0  0  0  0
  -23.4060  -28.8530   23.4160 O   0  0  0  0  0  0  0  0  0  0  0  0
  -20.9160  -29.8040   21.7430 H   0  0  0  0  0  0  0  0  0  0  0  0
  -18.0340  -28.0520   22.9090 C   0  0  0  0  0  0  0  0  0  0  0  0
  -20.5860  -28.3240   23.2140 C   0  0  0  0  0  3  0  0  0  0  0  0
  -20.7060  -26.8880   22.6540 C   0  0  0  0  0  2  0  0  0  0  0  0
  -19.6190  -26.5490   21.6290 C   0  0  0  0  0  2  0  0  0  0  0  0
  -18.2270  -26.6960   22.2510 C   0  0  0  0  0  2  0  0  0  0  0  0
  -19.1420  -28.8230   23.3470 C   0  0  0  0  0  0  0  0  0  0  0  0
  -18.9100  -30.0930   23.9180 C   0  0  0  0  0  3  0  0  0  0  0  0
  -17.6010  -30.5910   24.0590 C   0  0  0  0  0  3  0  0  0  0  0  0
  -16.5060  -29.8150   23.6390 C   0  0  0  0  0  3  0  0  0  0  0  0
  -16.7230  -28.5490   23.0670 C   0  0  0  0  0  3  0  0  0  0  0  0
  -25.8360  -32.5430   23.8790 C   0  0  0  0  0  3  0  0  0  0  0  0
  -25.5230  -33.9420   24.1850 N   0  0  0  0  0  0  0  0  0  0  0  0
  -25.8720  -34.9850   23.4190 C   0  0  0  0  0  0  0  0  0  0  0  0
  -26.5620  -34.8680   22.4030 O   0  0  0  0  0  0  0  0  0  0  0  0
  -24.9090  -34.1070   24.9710 H   0  0  0  0  0  0  0  0  0  0  0  0
  -24.1600  -36.7750   22.9940 C   0  0  0  0  0  1  0  0  0  0  0  0
  -25.3750  -36.3780   23.8470 C   0  0  0  0  0  3  0  0  0  0  0  0
  -27.4850  -37.2700   24.7290 C   0  0  0  0  0  1  0  0  0  0  0  0
  -26.4110  -37.4270   23.7530 N   0  0  0  0  0  0  0  0  0  0  0  0
  -26.0020  -38.3490   23.8760 H   0  0  0  0  0  0  0  0  0  0  0  0
  -26.3470  -31.7870   25.1670 C   0  0  1  0  0  0  0  0  0  0  0  0
  -25.2470  -31.5640   26.2310 C   0  0  0  0  0  1  0  0  0  0  0  0
  -26.9360  -30.4090   24.7860 C   0  0  0  0  0  1  0  0  0  0  0  0
  -27.4870  -32.5960   25.8290 C   0  0  0  0  0  1  0  0  0  0  0  0
  -29.7270  -21.8030   20.9400 C   0  0  0  0  0  2  0  0  0  0  0  0
  -31.1040  -21.4300   21.5360 C   0  0  0  0  0  2  0  0  0  0  0  0
  -31.0620  -20.2060   22.4760 C   0  0  0  0  0  2  0  0  0  0  0  0
  -30.7110  -17.8460   21.6530 C   0  0  0  0  0  0  0  0  0  0  0  0
  -30.3390  -19.1150   21.8410 N   0  0  0  0  0  0  0  0  0  0  0  0
  -31.7410  -17.3480   22.1130 O   0  0  0  0  0  0  0  0  0  0  0  0
  -29.4510  -19.3650   21.4310 H   0  0  0  0  0  0  0  0  0  0  0  0
  -29.7500  -17.0640   20.7530 C   0  0  0  0  0  0  0  0  0  0  0  0
  -30.5040  -14.6510   20.4210 C   0  0  0  0  0  0  0  0  0  0  0  0
  -30.2390  -12.5420   19.1820 C   0  0  0  0  0  2  0  0  0  0  0  0
  -29.2680  -12.7810   18.0070 C   0  0  0  0  0  2  0  0  0  0  0  0
  -27.7980  -12.6350   18.4490 C   0  0  0  0  0  2  0  0  0  0  0  0
  -27.4750  -13.3750   19.7770 C   0  0  0  0  0  3  0  0  0  0  0  0
  -28.5610  -13.0960   20.8410 C   0  0  0  0  0  2  0  0  0  0  0  0
  -29.8700  -13.4600   20.2660 N   0  0  0  0  0  0  0  0  0  0  0  0
  -31.6220  -14.8880   19.9570 O   0  0  0  0  0  0  0  0  0  0  0  0
  -29.7290  -15.6060   20.9440 N   0  0  0  0  0  4  0  0  0  0  0  0
  -28.8740  -15.2570   21.3520 H   0  0  0  0  0  0  0  0  0  0  0  0
  -25.0520  -13.8720   20.5040 C   0  0  0  0  0  0  0  0  0  0  0  0
  -24.0260  -13.0470   20.8860 C   0  0  0  0  0  0  0  0  0  0  0  0
  -24.5480  -11.7180   20.8430 C   0  0  0  0  0  0  0  0  0  0  0  0
  -26.1390  -13.0410   20.2660 N   0  0  0  0  0  0  0  0  0  0  0  0
  -25.8360  -11.7420   20.5240 N   0  0  0  0  0  0  0  0  0  0  0  0
  -23.8850  -10.4240   21.0380 C   0  0  0  0  0  0  0  0  0  0  0  0
  -24.3450   -9.5020   22.0020 C   0  0  0  0  0  3  0  0  0  0  0  0
  -23.6830   -8.2670   22.1840 C   0  0  0  0  0  3  0  0  0  0  0  0
  -22.5470   -7.9480   21.4060 C   0  0  0  0  0  0  0  0  0  0  0  0
  -22.1030   -8.8620   20.4340 C   0  0  0  0  0  3  0  0  0  0  0  0
  -22.7660  -10.0890   20.2490 C   0  0  0  0  0  3  0  0  0  0  0  0
  -21.8560   -6.7620   21.4940 O   0  0  0  0  0  0  0  0  0  0  0  0
  -21.7920   -6.0550   22.6660 C   0  0  0  0  0  0  0  0  0  0  0  0
  -21.2650   -6.6150   23.8490 C   0  0  0  0  0  3  0  0  0  0  0  0
  -21.1560   -5.8300   25.0130 C   0  0  0  0  0  3  0  0  0  0  0  0
  -21.5640   -4.4830   24.9960 C   0  0  0  0  0  0  0  0  0  0  0  0
  -22.0830   -3.9200   23.8170 C   0  0  0  0  0  3  0  0  0  0  0  0
  -22.1940   -4.7050   22.6550 C   0  0  0  0  0  0  0  0  0  0  0  0
  -22.6770   -4.1530   21.5150 F   0  0  0  0  0  0  0  0  0  0  0  0
  -21.4510   -3.7260   26.1130 F   0  0  0  0  0  0  0  0  0  0  0  0
  -22.6110  -13.4580   21.1770 C   0  0  0  0  0  0  0  0  0  0  0  0
  -21.9220  -12.7270   22.0460 N   0  0  0  0  0  0  0  0  0  0  0  0
  -22.1240  -14.4670   20.6700 O   0  0  0  0  0  0  0  0  0  0  0  0
  -22.3190  -11.9120   22.4910 H   0  0  0  0  0  0  0  0  0  0  0  0
  -20.9750  -12.9930   22.2790 H   0  0  0  0  0  0  0  0  0  0  0  0
  -25.1490  -15.2460   20.3240 N   0  0  0  0  0  0  0  0  0  0  0  0
  -24.3500  -15.8650   20.4270 H   0  0  0  0  0  0  0  0  0  0  0  0
  -25.9780  -15.7260   20.0050 H   0  0  0  0  0  0  0  0  0  0  0  0
  -30.9620  -17.7110   18.4890 C   0  0  0  0  0  1  0  0  0  0  0  0
  -28.5080  -16.9520   18.4830 C   0  0  0  0  0  1  0  0  0  0  0  0
  -29.6450  -17.6010   19.2870 C   0  0  0  0  0  3  0  0  0  0  0  0
  1 51  1  0
  2  1  1  0
  3  4  1  0
  3  2  1  0
  5  4  1  0
  5  6  1  0
  6  7  1  0
  7  8  1  0
  8  9  1  0
 10  9  1  0
 11 22  2  0
 12 10  1  0
 12 17  1  0
 13 21  1  0
 13 23  1  0
 14 20  1  0
 14 16  1  0
 15 21  1  0
 16 17  2  0
 16 15  1  0
 18 12  2  0
 19 18  1  0
 19 14  2  0
 20 13  1  0
 21 11  1  0
 23 25  2  0
 24 23  1  0
 26 24  1  0
 27 36  2  0
 27 32  1  0
 28 24  1  0
 28 32  1  0
 29 28  1  0
 30 31  1  0
 30 29  1  0
 31 27  1  0
 32 33  2  0
 33 34  1  0
 35 34  2  0
 36 35  1  0
 37 11  1  0
 37 38  1  0
 37 47  1  0
 38 41  1  0
 39 43  1  0
 39 38  1  0
 40 39  2  0
 43 42  1  0
 45 43  1  0
 45 46  1  0
 45 44  1  0
 47 50  1  1
 47 48  1  0
 49 47  1  0
 51 52  1  0
 52 53  1  0
 54 55  1  0
 54 56  2  0
 55 53  1  0
 57 55  1  0
 58 67  2  3
 58 54  1  0
 59 67  1  0
 60 65  1  0
 61 62  1  0
 61 60  1  0
 63 62  1  0
 63 72  1  0
 63 64  1  0
 65 59  1  0
 65 64  1  0
 66 59  2  0
 67 68  1  0
 69 70  2  0
 70 89  1  0
 71 70  1  0
 71 74  1  0
 72 69  1  0
 72 73  1  0
 73 71  2  0
 74 75  1  0
 75 76  2  0
 77 80  1  0
 77 76  1  0
 78 77  2  0
 79 78  1  0
 79 74  2  0
 80 81  1  0
 81 82  1  0
 82 83  2  0
 84 83  1  0
 84 88  1  0
 85 84  2  0
 86 81  2  0
 86 85  1  0
 87 86  1  0
 89 90  1  0
 90 93  1  0
 90 92  1  0
 91 89  2  0
 94 95  1  0
 94 69  1  0
 96 94  1  0
 97 99  1  0
 98 99  1  0
 99 58  1  0
M  ISO  4   9 101  10 101  59 100  67 100
M  END
>  <TORSDO>  (41) 
F 30

>  <SCORE>  (41) 
-11.015

>  <name>  (41) 
40

>  <ligand_id>  (41) 
40

>  <original_smiles>  (41) 
[H]c1c([H])c([H])c2c(c1[H])C([H])([H])C([H])([H])C([H])([H])C2([H])N([H])C(=O)C1([H])N(C(=O)C([H])(N([H])C(=O)C([H])(N([H])C([H])([H])[H])C([H])([H])[H])C(C([H])([H])[H])(C([H])([H])[H])C([H])([H])[H])C([H])([H])c2c([H])c(OC([H])([H])C([H])([H])OC([H])([H])C([H])([H])OC([H])([H])C([H])([H])OC([H])([H])C([H])([H])C([H])([H])N([H])C(=O)C([H])(N([H])C(=O)N3C([H])([H])C([H])([H])C([H])([H])C([H])(n4nc(-c5c([H])c([H])c(Oc6c([H])c([H])c(F)c([H])c6F)c([H])c5[H])c(C(=O)N([H])[H])c4N([H])[H])C3([H])[H])C([H])(C([H])([H])[H])C([H])([H])[H])c([H])c([H])c2C1([H])[H]

>  <smiles>  (41) 
[H]c1c([H])c([H])c2c(c1[H])C([H])([H])C([H])([H])C([H])([H])C2([H])N([H])C(=O)C1([H])N(C(=O)C([H])(N([H])C(=O)C([H])(N([H])C([H])([H])[H])C([H])([H])[H])C(C([H])([H])[H])(C([H])([H])[H])C([H])([H])[H])C([H])([H])c2c([H])c(OC([H])([H])C([H])([H])OC([H])([H])C([H])([H])OC([H])([H])C([H])([H])OC([H])([H])C([H])([H])C([H])([H])N([H])C(=O)C([H])(N([H])C(=O)N3C([H])([H])C([H])([H])C([H])([H])C([H])(n4nc(-c5c([H])c([H])c(Oc6c([H])c([H])c(F)c([H])c6F)c([H])c5[H])c(C(=O)N([H])[H])c4N([H])[H])C3([H])[H])C([H])(C([H])([H])[H])C([H])([H])[H])c([H])c([H])c2C1([H])[H]

$$$$
41:0:0
     RDKit          3D

 92 99  0  0  1  0  0  0  0  0999 V2000
  -29.2140  -20.4690   19.8700 C   0  0  0  0  0  2  0  0  0  0  0  0
  -29.7520  -18.0110   19.9250 C   0  0  0  0  0  0  0  0  0  0  0  0
  -30.0810  -19.3050   20.1340 N   0  0  0  0  0  0  0  0  0  0  0  0
  -28.6620  -17.6830   19.4510 O   0  0  0  0  0  0  0  0  0  0  0  0
  -30.9980  -19.4950   20.5190 H   0  0  0  0  0  0  0  0  0  0  0  0
  -30.7850  -16.9150   20.3140 C   0  0  0  0  0  3  0  0  0  0  0  0
  -30.8840  -14.4860   19.5900 C   0  0  0  0  0  0  0  0  0  0  0  0
  -30.4400  -12.3000   18.5230 C   0  0  0  0  0  2  0  0  0  0  0  0
  -29.4130  -12.4960   17.3890 C   0  0  0  0  0  2  0  0  0  0  0  0
  -27.9740  -12.4100   17.9380 C   0  0  0  0  0  2  0  0  0  0  0  0
  -27.7580  -13.2920   19.1970 C   0  0  0  0  0  3  0  0  0  0  0  0
  -28.8900  -13.0730   20.2240 C   0  0  0  0  0  2  0  0  0  0  0  0
  -30.1700  -13.3270   19.5420 N   0  0  0  0  0  0  0  0  0  0  0  0
  -31.9850  -14.6080   19.0480 O   0  0  0  0  0  0  0  0  0  0  0  0
  -30.2570  -15.5410   20.1460 N   0  0  0  0  0  0  0  0  0  0  0  0
  -29.3160  -15.3910   20.4720 H   0  0  0  0  0  0  0  0  0  0  0  0
  -25.4570  -13.9960   20.1100 C   0  0  0  0  0  0  0  0  0  0  0  0
  -24.3900  -13.2660   20.5600 C   0  0  0  0  0  0  0  0  0  0  0  0
  -24.7850  -11.8960   20.4790 C   0  0  0  0  0  0  0  0  0  0  0  0
  -26.4390  -13.0710   19.7860 N   0  0  0  0  0  0  0  0  0  0  0  0
  -26.0430  -11.8030   20.0660 N   0  0  0  0  0  0  0  0  0  0  0  0
  -24.0200  -10.6660   20.7200 C   0  0  0  0  0  0  0  0  0  0  0  0
  -24.4570   -9.6920   21.6460 C   0  0  0  0  0  3  0  0  0  0  0  0
  -23.6950   -8.5250   21.8720 C   0  0  0  0  0  3  0  0  0  0  0  0
  -22.4810   -8.3250   21.1730 C   0  0  0  0  0  0  0  0  0  0  0  0
  -22.0630   -9.2860   20.2360 C   0  0  0  0  0  3  0  0  0  0  0  0
  -22.8250  -10.4430   20.0080 C   0  0  0  0  0  3  0  0  0  0  0  0
  -21.6880   -7.2100   21.3080 O   0  0  0  0  0  0  0  0  0  0  0  0
  -21.6220   -6.5150   22.4890 C   0  0  0  0  0  0  0  0  0  0  0  0
  -21.2290   -7.1320   23.6960 C   0  0  0  0  0  3  0  0  0  0  0  0
  -21.1070   -6.3640   24.8730 C   0  0  0  0  0  3  0  0  0  0  0  0
  -21.3690   -4.9820   24.8420 C   0  0  0  0  0  0  0  0  0  0  0  0
  -21.7550   -4.3640   23.6390 C   0  0  0  0  0  3  0  0  0  0  0  0
  -21.8780   -5.1290   22.4660 C   0  0  0  0  0  0  0  0  0  0  0  0
  -22.2310   -4.5250   21.3040 F   0  0  0  0  0  0  0  0  0  0  0  0
  -21.2430   -4.2420   25.9680 F   0  0  0  0  0  0  0  0  0  0  0  0
  -23.0430  -13.8030   20.9520 C   0  0  0  0  0  0  0  0  0  0  0  0
  -22.3620  -13.1340   21.8770 N   0  0  0  0  0  0  0  0  0  0  0  0
  -22.6080  -14.8490   20.4740 O   0  0  0  0  0  0  0  0  0  0  0  0
  -22.7290  -12.2860   22.2830 H   0  0  0  0  0  0  0  0  0  0  0  0
  -21.4630  -13.4750   22.1830 H   0  0  0  0  0  0  0  0  0  0  0  0
  -25.6720  -15.3600   19.9290 N   0  0  0  0  0  0  0  0  0  0  0  0
  -24.9510  -16.0490   20.1120 H   0  0  0  0  0  0  0  0  0  0  0  0
  -26.5180  -15.7670   19.5490 H   0  0  0  0  0  0  0  0  0  0  0  0
  -30.2170  -17.0250   22.8400 C   0  0  0  0  0  1  0  0  0  0  0  0
  -32.4340  -16.0660   22.0910 C   0  0  0  0  0  1  0  0  0  0  0  0
  -31.3230  -17.0800   21.7650 C   0  0  0  0  0  3  0  0  0  0  0  0
  -29.7520  -21.8160   20.4400 C   0  0  0  0  0  2  0  0  0  0  0  0
  -28.8810  -22.9040   20.0840 O   0  0  0  0  0  0  0  0  0  0  0  0
  -29.2700  -24.2190   20.5300 C   0  0  0  0  0  2  0  0  0  0  0  0
  -28.1780  -25.2430   20.1150 C   0  0  0  0  0  2  0  0  0  0  0  0
  -28.3620  -26.6290   20.5130 O   0  0  0  0  0  0  0  0  0  0  0  0
  -24.7160  -32.0070   23.5240 C   0  0  0  0  0  0  0  0  0  0  0  0
  -27.2380  -27.4500   20.4580 C   0  0  0  0  0  0  0  0  0  0  0  0
  -23.4890  -30.6620   21.8540 C   0  0  0  0  0  3  0  0  0  0  0  0
  -24.9090  -29.0860   20.4400 C   0  0  0  0  0  0  0  0  0  0  0  0
  -26.0360  -30.9150   21.7070 C   0  0  0  0  0  2  0  0  0  0  0  0
  -26.0800  -29.5450   21.0560 C   0  0  0  0  0  0  0  0  0  0  0  0
  -27.2460  -28.7350   21.0620 C   0  0  0  0  0  3  0  0  0  0  0  0
  -26.0430  -27.0310   19.8220 C   0  0  0  0  0  3  0  0  0  0  0  0
  -24.8870  -27.8290   19.8200 C   0  0  0  0  0  3  0  0  0  0  0  0
  -23.6990  -29.9920   20.4730 C   0  0  0  0  0  2  0  0  0  0  0  0
  -24.7650  -31.2090   22.4200 N   0  0  0  0  0  0  0  0  0  0  0  0
  -23.6350  -32.3160   24.0460 O   0  0  0  0  0  0  0  0  0  0  0  0
  -22.7850  -29.6560   22.7940 C   0  0  0  0  0  0  0  0  0  0  0  0
  -21.4640  -29.4890   22.6130 N   0  0  0  0  0  0  0  0  0  0  0  0
  -23.4240  -29.0310   23.6450 O   0  0  0  0  0  0  0  0  0  0  0  0
  -21.0100  -30.0470   21.9030 H   0  0  0  0  0  0  0  0  0  0  0  0
  -18.0660  -28.3030   22.9410 C   0  0  0  0  0  0  0  0  0  0  0  0
  -20.6030  -28.5690   23.3580 C   0  0  0  0  0  3  0  0  0  0  0  0
  -20.7390  -27.1240   22.8240 C   0  0  0  0  0  2  0  0  0  0  0  0
  -19.6990  -26.7760   21.7550 C   0  0  0  0  0  2  0  0  0  0  0  0
  -18.2810  -26.9370   22.3120 C   0  0  0  0  0  2  0  0  0  0  0  0
  -19.1580  -29.0760   23.4180 C   0  0  0  0  0  0  0  0  0  0  0  0
  -18.9060  -30.3550   23.9600 C   0  0  0  0  0  3  0  0  0  0  0  0
  -17.5950  -30.8600   24.0360 C   0  0  0  0  0  3  0  0  0  0  0  0
  -16.5150  -30.0830   23.5790 C   0  0  0  0  0  3  0  0  0  0  0  0
  -16.7520  -28.8090   23.0340 C   0  0  0  0  0  3  0  0  0  0  0  0
  -26.0110  -32.5900   24.1690 C   0  0  0  0  0  3  0  0  0  0  0  0
  -25.7540  -34.0020   24.4780 N   0  0  0  0  0  0  0  0  0  0  0  0
  -26.1340  -35.0310   23.7090 C   0  0  0  0  0  0  0  0  0  0  0  0
  -26.8080  -34.8880   22.6850 O   0  0  0  0  0  0  0  0  0  0  0  0
  -25.1560  -34.1900   25.2690 H   0  0  0  0  0  0  0  0  0  0  0  0
  -24.4690  -36.8780   23.3290 C   0  0  0  0  0  1  0  0  0  0  0  0
  -25.6960  -36.4430   24.1450 C   0  0  0  0  0  3  0  0  0  0  0  0
  -27.8620  -37.2640   24.9590 C   0  0  0  0  0  1  0  0  0  0  0  0
  -26.7650  -37.4570   24.0150 N   0  0  0  0  0  0  0  0  0  0  0  0
  -26.3910  -38.3930   24.1500 H   0  0  0  0  0  0  0  0  0  0  0  0
  -26.4650  -31.8090   25.4640 C   0  0  1  0  0  0  0  0  0  0  0  0
  -25.3370  -31.6210   26.5040 C   0  0  0  0  0  1  0  0  0  0  0  0
  -27.0060  -30.4080   25.0940 C   0  0  0  0  0  1  0  0  0  0  0  0
  -27.6250  -32.5660   26.1520 C   0  0  0  0  0  1  0  0  0  0  0  0
  1  3  1  0
  1 48  1  0
  2  3  1  0
  3  5  1  0
  4  2  2  0
  6  2  1  0
  6 47  1  0
  7 15  1  0
  8 13  1  0
  9 10  1  0
  9  8  1  0
 11 10  1  0
 11 20  1  0
 11 12  1  0
 13  7  1  0
 13 12  1  0
 14  7  2  0
 15  6  1  0
 15 16  1  0
 17 18  2  0
 18 37  1  0
 19 18  1  0
 19 22  1  0
 20 21  1  0
 20 17  1  0
 21 19  2  0
 22 23  1  0
 23 24  2  0
 25 28  1  0
 25 24  1  0
 26 25  2  0
 27 26  1  0
 27 22  2  0
 28 29  1  0
 29 30  1  0
 30 31  2  0
 32 31  1  0
 32 36  1  0
 33 32  2  0
 34 29  2  0
 34 33  1  0
 35 34  1  0
 37 38  1  0
 38 41  1  0
 38 40  1  0
 39 37  2  0
 42 17  1  0
 42 43  1  0
 44 42  1  0
 47 46  1  0
 47 45  1  0
 49 48  1  0
 49 50  1  0
 51 52  1  0
 51 50  1  0
 53 64  2  0
 54 52  1  0
 54 59  1  0
 55 63  1  0
 55 65  1  0
 56 62  1  0
 56 58  1  0
 57 63  1  0
 58 59  2  0
 58 57  1  0
 60 54  2  0
 61 60  1  0
 61 56  2  0
 62 55  1  0
 63 53  1  0
 65 67  2  0
 66 65  1  0
 68 66  1  0
 69 78  2  0
 69 74  1  0
 70 66  1  0
 70 74  1  0
 71 70  1  0
 72 73  1  0
 72 71  1  0
 73 69  1  0
 74 75  2  0
 75 76  1  0
 77 76  2  0
 78 77  1  0
 79 53  1  0
 79 80  1  0
 79 89  1  0
 80 83  1  0
 81 85  1  0
 81 80  1  0
 82 81  2  0
 85 84  1  0
 87 85  1  0
 87 88  1  0
 87 86  1  0
 89 92  1  1
 89 90  1  0
 91 89  1  0
M  ISO  4   7 100  15 100  51 101  52 101
M  END
>  <TORSDO>  (42) 
F 23

>  <SCORE>  (42) 
-8.987

>  <name>  (42) 
41

>  <ligand_id>  (42) 
41

>  <original_smiles>  (42) 
[H]c1c([H])c([H])c2c(c1[H])C([H])([H])C([H])([H])C([H])([H])C2([H])N([H])C(=O)C1([H])N(C(=O)C([H])(N([H])C(=O)C([H])(N([H])C([H])([H])[H])C([H])([H])[H])C(C([H])([H])[H])(C([H])([H])[H])C([H])([H])[H])C([H])([H])c2c([H])c(OC([H])([H])C([H])([H])OC([H])([H])C([H])([H])N([H])C(=O)C([H])(N([H])C(=O)N3C([H])([H])C([H])([H])C([H])([H])C([H])(n4nc(-c5c([H])c([H])c(Oc6c([H])c([H])c(F)c([H])c6F)c([H])c5[H])c(C(=O)N([H])[H])c4N([H])[H])C3([H])[H])C([H])(C([H])([H])[H])C([H])([H])[H])c([H])c([H])c2C1([H])[H]

>  <smiles>  (42) 
[H]c1c([H])c([H])c2c(c1[H])C([H])([H])C([H])([H])C([H])([H])C2([H])N([H])C(=O)C1([H])N(C(=O)C([H])(N([H])C(=O)C([H])(N([H])C([H])([H])[H])C([H])([H])[H])C(C([H])([H])[H])(C([H])([H])[H])C([H])([H])[H])C([H])([H])c2c([H])c(OC([H])([H])C([H])([H])OC([H])([H])C([H])([H])N([H])C(=O)C([H])(N([H])C(=O)N3C([H])([H])C([H])([H])C([H])([H])C([H])(n4nc(-c5c([H])c([H])c(Oc6c([H])c([H])c(F)c([H])c6F)c([H])c5[H])c(C(=O)N([H])[H])c4N([H])[H])C3([H])[H])C([H])(C([H])([H])[H])C([H])([H])[H])c([H])c([H])c2C1([H])[H]

$$$$
42:0:0
     RDKit          3D

 92 99  0  0  1  0  0  0  0  0999 V2000
  -29.2140  -20.4690   19.8700 C   0  0  0  0  0  2  0  0  0  0  0  0
  -29.7520  -18.0110   19.9250 C   0  0  0  0  0  0  0  0  0  0  0  0
  -30.0810  -19.3050   20.1340 N   0  0  0  0  0  0  0  0  0  0  0  0
  -28.6620  -17.6830   19.4510 O   0  0  0  0  0  0  0  0  0  0  0  0
  -30.9980  -19.4950   20.5190 H   0  0  0  0  0  0  0  0  0  0  0  0
  -30.7850  -16.9150   20.3140 C   0  0  0  0  0  3  0  0  0  0  0  0
  -30.8840  -14.4860   19.5900 C   0  0  0  0  0  0  0  0  0  0  0  0
  -30.4400  -12.3000   18.5230 C   0  0  0  0  0  2  0  0  0  0  0  0
  -29.4130  -12.4960   17.3890 C   0  0  0  0  0  2  0  0  0  0  0  0
  -27.9740  -12.4100   17.9380 C   0  0  0  0  0  2  0  0  0  0  0  0
  -27.7580  -13.2920   19.1970 C   0  0  0  0  0  3  0  0  0  0  0  0
  -28.8900  -13.0730   20.2240 C   0  0  0  0  0  2  0  0  0  0  0  0
  -30.1700  -13.3270   19.5420 N   0  0  0  0  0  0  0  0  0  0  0  0
  -31.9850  -14.6080   19.0480 O   0  0  0  0  0  0  0  0  0  0  0  0
  -30.2570  -15.5410   20.1460 N   0  0  0  0  0  0  0  0  0  0  0  0
  -29.3160  -15.3910   20.4720 H   0  0  0  0  0  0  0  0  0  0  0  0
  -25.4570  -13.9960   20.1100 C   0  0  0  0  0  0  0  0  0  0  0  0
  -24.3900  -13.2660   20.5600 C   0  0  0  0  0  0  0  0  0  0  0  0
  -24.7850  -11.8960   20.4790 C   0  0  0  0  0  0  0  0  0  0  0  0
  -26.4390  -13.0710   19.7860 N   0  0  0  0  0  0  0  0  0  0  0  0
  -26.0430  -11.8030   20.0660 N   0  0  0  0  0  0  0  0  0  0  0  0
  -24.0200  -10.6660   20.7200 C   0  0  0  0  0  0  0  0  0  0  0  0
  -24.4570   -9.6920   21.6460 C   0  0  0  0  0  3  0  0  0  0  0  0
  -23.6950   -8.5250   21.8720 C   0  0  0  0  0  3  0  0  0  0  0  0
  -22.4810   -8.3250   21.1730 C   0  0  0  0  0  0  0  0  0  0  0  0
  -22.0630   -9.2860   20.2360 C   0  0  0  0  0  3  0  0  0  0  0  0
  -22.8250  -10.4430   20.0080 C   0  0  0  0  0  3  0  0  0  0  0  0
  -21.6880   -7.2100   21.3080 O   0  0  0  0  0  0  0  0  0  0  0  0
  -21.6220   -6.5150   22.4890 C   0  0  0  0  0  0  0  0  0  0  0  0
  -21.2290   -7.1320   23.6960 C   0  0  0  0  0  3  0  0  0  0  0  0
  -21.1070   -6.3640   24.8730 C   0  0  0  0  0  3  0  0  0  0  0  0
  -21.3690   -4.9820   24.8420 C   0  0  0  0  0  0  0  0  0  0  0  0
  -21.7550   -4.3640   23.6390 C   0  0  0  0  0  3  0  0  0  0  0  0
  -21.8780   -5.1290   22.4660 C   0  0  0  0  0  0  0  0  0  0  0  0
  -22.2310   -4.5250   21.3040 F   0  0  0  0  0  0  0  0  0  0  0  0
  -21.2430   -4.2420   25.9680 F   0  0  0  0  0  0  0  0  0  0  0  0
  -23.0430  -13.8030   20.9520 C   0  0  0  0  0  0  0  0  0  0  0  0
  -22.3620  -13.1340   21.8770 N   0  0  0  0  0  0  0  0  0  0  0  0
  -22.6080  -14.8490   20.4740 O   0  0  0  0  0  0  0  0  0  0  0  0
  -22.7290  -12.2860   22.2830 H   0  0  0  0  0  0  0  0  0  0  0  0
  -21.4630  -13.4750   22.1830 H   0  0  0  0  0  0  0  0  0  0  0  0
  -25.6720  -15.3600   19.9290 N   0  0  0  0  0  0  0  0  0  0  0  0
  -24.9510  -16.0490   20.1120 H   0  0  0  0  0  0  0  0  0  0  0  0
  -26.5180  -15.7670   19.5490 H   0  0  0  0  0  0  0  0  0  0  0  0
  -30.2170  -17.0250   22.8400 C   0  0  0  0  0  1  0  0  0  0  0  0
  -32.4340  -16.0660   22.0910 C   0  0  0  0  0  1  0  0  0  0  0  0
  -31.3230  -17.0800   21.7650 C   0  0  0  0  0  3  0  0  0  0  0  0
  -29.7520  -21.8160   20.4400 C   0  0  0  0  0  2  0  0  0  0  0  0
  -28.8810  -22.9040   20.0840 O   0  0  0  0  0  0  0  0  0  0  0  0
  -29.2700  -24.2190   20.5300 C   0  0  0  0  0  2  0  0  0  0  0  0
  -28.1780  -25.2430   20.1150 C   0  0  0  0  0  2  0  0  0  0  0  0
  -28.3620  -26.6290   20.5130 O   0  0  0  0  0  0  0  0  0  0  0  0
  -24.7160  -32.0070   23.5240 C   0  0  0  0  0  0  0  0  0  0  0  0
  -27.2380  -27.4500   20.4580 C   0  0  0  0  0  0  0  0  0  0  0  0
  -23.4890  -30.6620   21.8540 C   0  0  0  0  0  3  0  0  0  0  0  0
  -24.9090  -29.0860   20.4400 C   0  0  0  0  0  0  0  0  0  0  0  0
  -26.0360  -30.9150   21.7070 C   0  0  0  0  0  2  0  0  0  0  0  0
  -26.0800  -29.5450   21.0560 C   0  0  0  0  0  0  0  0  0  0  0  0
  -27.2460  -28.7350   21.0620 C   0  0  0  0  0  3  0  0  0  0  0  0
  -26.0430  -27.0310   19.8220 C   0  0  0  0  0  3  0  0  0  0  0  0
  -24.8870  -27.8290   19.8200 C   0  0  0  0  0  3  0  0  0  0  0  0
  -23.6990  -29.9920   20.4730 C   0  0  0  0  0  2  0  0  0  0  0  0
  -24.7650  -31.2090   22.4200 N   0  0  0  0  0  0  0  0  0  0  0  0
  -23.6350  -32.3160   24.0460 O   0  0  0  0  0  0  0  0  0  0  0  0
  -22.7850  -29.6560   22.7940 C   0  0  0  0  0  0  0  0  0  0  0  0
  -21.4640  -29.4890   22.6130 N   0  0  0  0  0  0  0  0  0  0  0  0
  -23.4240  -29.0310   23.6450 O   0  0  0  0  0  0  0  0  0  0  0  0
  -21.0100  -30.0470   21.9030 H   0  0  0  0  0  0  0  0  0  0  0  0
  -18.0660  -28.3030   22.9410 C   0  0  0  0  0  0  0  0  0  0  0  0
  -20.6030  -28.5690   23.3580 C   0  0  0  0  0  3  0  0  0  0  0  0
  -20.7390  -27.1240   22.8240 C   0  0  0  0  0  2  0  0  0  0  0  0
  -19.6990  -26.7760   21.7550 C   0  0  0  0  0  2  0  0  0  0  0  0
  -18.2810  -26.9370   22.3120 C   0  0  0  0  0  2  0  0  0  0  0  0
  -19.1580  -29.0760   23.4180 C   0  0  0  0  0  0  0  0  0  0  0  0
  -18.9060  -30.3550   23.9600 C   0  0  0  0  0  3  0  0  0  0  0  0
  -17.5950  -30.8600   24.0360 C   0  0  0  0  0  3  0  0  0  0  0  0
  -16.5150  -30.0830   23.5790 C   0  0  0  0  0  3  0  0  0  0  0  0
  -16.7520  -28.8090   23.0340 C   0  0  0  0  0  3  0  0  0  0  0  0
  -26.0110  -32.5900   24.1690 C   0  0  0  0  0  3  0  0  0  0  0  0
  -25.7540  -34.0020   24.4780 N   0  0  0  0  0  0  0  0  0  0  0  0
  -26.1340  -35.0310   23.7090 C   0  0  0  0  0  0  0  0  0  0  0  0
  -26.8080  -34.8880   22.6850 O   0  0  0  0  0  0  0  0  0  0  0  0
  -25.1560  -34.1900   25.2690 H   0  0  0  0  0  0  0  0  0  0  0  0
  -24.4690  -36.8780   23.3290 C   0  0  0  0  0  1  0  0  0  0  0  0
  -25.6960  -36.4430   24.1450 C   0  0  0  0  0  3  0  0  0  0  0  0
  -27.8620  -37.2640   24.9590 C   0  0  0  0  0  1  0  0  0  0  0  0
  -26.7650  -37.4570   24.0150 N   0  0  0  0  0  0  0  0  0  0  0  0
  -26.3910  -38.3930   24.1500 H   0  0  0  0  0  0  0  0  0  0  0  0
  -26.4650  -31.8090   25.4640 C   0  0  1  0  0  0  0  0  0  0  0  0
  -25.3370  -31.6210   26.5040 C   0  0  0  0  0  1  0  0  0  0  0  0
  -27.0060  -30.4080   25.0940 C   0  0  0  0  0  1  0  0  0  0  0  0
  -27.6250  -32.5660   26.1520 C   0  0  0  0  0  1  0  0  0  0  0  0
  1  3  1  0
  1 48  1  0
  2  3  1  0
  3  5  1  0
  4  2  2  0
  6  2  1  0
  6 47  1  0
  7 15  1  0
  8 13  1  0
  9 10  1  0
  9  8  1  0
 11 10  1  0
 11 20  1  0
 11 12  1  0
 13  7  1  0
 13 12  1  0
 14  7  2  0
 15  6  1  0
 15 16  1  0
 17 18  2  0
 18 37  1  0
 19 18  1  0
 19 22  1  0
 20 21  1  0
 20 17  1  0
 21 19  2  0
 22 23  1  0
 23 24  2  0
 25 28  1  0
 25 24  1  0
 26 25  2  0
 27 26  1  0
 27 22  2  0
 28 29  1  0
 29 30  1  0
 30 31  2  0
 32 31  1  0
 32 36  1  0
 33 32  2  0
 34 29  2  0
 34 33  1  0
 35 34  1  0
 37 38  1  0
 38 41  1  0
 38 40  1  0
 39 37  2  0
 42 17  1  0
 42 43  1  0
 44 42  1  0
 47 46  1  0
 47 45  1  0
 49 48  1  0
 49 50  1  0
 51 52  1  0
 51 50  1  0
 53 64  2  0
 54 52  1  0
 54 59  1  0
 55 63  1  0
 55 65  1  0
 56 62  1  0
 56 58  1  0
 57 63  1  0
 58 59  2  0
 58 57  1  0
 60 54  2  0
 61 60  1  0
 61 56  2  0
 62 55  1  0
 63 53  1  0
 65 67  2  0
 66 65  1  0
 68 66  1  0
 69 78  2  0
 69 74  1  0
 70 66  1  0
 70 74  1  0
 71 70  1  0
 72 73  1  0
 72 71  1  0
 73 69  1  0
 74 75  2  0
 75 76  1  0
 77 76  2  0
 78 77  1  0
 79 53  1  0
 79 80  1  0
 79 89  1  0
 80 83  1  0
 81 85  1  0
 81 80  1  0
 82 81  2  0
 85 84  1  0
 87 85  1  0
 87 88  1  0
 87 86  1  0
 89 92  1  1
 89 90  1  0
 91 89  1  0
M  ISO  4   7 100  15 100  51 101  52 101
M  END
>  <TORSDO>  (43) 
F 23

>  <SCORE>  (43) 
-8.987

>  <name>  (43) 
42

>  <ligand_id>  (43) 
42

>  <original_smiles>  (43) 
[H]c1c([H])c([H])c2c(c1[H])C([H])([H])C([H])([H])C([H])([H])C2([H])N([H])C(=O)C1([H])N(C(=O)C([H])(N([H])C(=O)C([H])(N([H])C([H])([H])[H])C([H])([H])[H])C(C([H])([H])[H])(C([H])([H])[H])C([H])([H])[H])C([H])([H])c2c([H])c(OC([H])([H])C([H])([H])OC([H])([H])C([H])([H])N([H])C(=O)C([H])(N([H])C(=O)N3C([H])([H])C([H])([H])C([H])([H])C([H])(n4nc(-c5c([H])c([H])c(Oc6c([H])c([H])c(F)c([H])c6F)c([H])c5[H])c(C(=O)N([H])[H])c4N([H])[H])C3([H])[H])C([H])(C([H])([H])[H])C([H])([H])[H])c([H])c([H])c2C1([H])[H]

>  <smiles>  (43) 
[H]c1c([H])c([H])c2c(c1[H])C([H])([H])C([H])([H])C([H])([H])C2([H])N([H])C(=O)C1([H])N(C(=O)C([H])(N([H])C(=O)C([H])(N([H])C([H])([H])[H])C([H])([H])[H])C(C([H])([H])[H])(C([H])([H])[H])C([H])([H])[H])C([H])([H])c2c([H])c(OC([H])([H])C([H])([H])OC([H])([H])C([H])([H])N([H])C(=O)C([H])(N([H])C(=O)N3C([H])([H])C([H])([H])C([H])([H])C([H])(n4nc(-c5c([H])c([H])c(Oc6c([H])c([H])c(F)c([H])c6F)c([H])c5[H])c(C(=O)N([H])[H])c4N([H])[H])C3([H])[H])C([H])(C([H])([H])[H])C([H])([H])[H])c([H])c([H])c2C1([H])[H]

$$$$
43:0:0
     RDKit          3D

 99106  0  0  1  0  0  0  0  0999 V2000
  -31.5940  -21.3070   16.2690 O   0  0  0  0  0  0  0  0  0  0  0  0
  -32.2310  -22.5600   16.0610 C   0  0  0  0  0  2  0  0  0  0  0  0
  -31.7240  -23.1770   14.7520 C   0  0  0  0  0  2  0  0  0  0  0  0
  -30.4430  -23.7580   14.9750 O   0  0  0  0  0  0  0  0  0  0  0  0
  -30.4070  -25.1600   14.7430 C   0  0  0  0  0  2  0  0  0  0  0  0
  -29.2100  -25.7590   15.4850 C   0  0  0  0  0  2  0  0  0  0  0  0
  -29.3740  -25.4460   16.8610 O   0  0  0  0  0  0  0  0  0  0  0  0
  -28.7630  -26.3780   17.7350 C   0  0  0  0  0  2  0  0  0  0  0  0
  -28.6700  -25.7550   19.1380 C   0  0  0  0  0  2  0  0  0  0  0  0
  -28.4410  -26.7560   20.1220 O   0  0  0  0  0  0  0  0  0  0  0  0
  -24.6330  -31.8490   23.2300 C   0  0  0  0  0  0  0  0  0  0  0  0
  -27.2340  -27.4180   20.1320 C   0  0  0  0  0  0  0  0  0  0  0  0
  -23.4090  -30.4570   21.5920 C   0  0  0  0  0  3  0  0  0  0  0  0
  -24.8400  -28.9110   20.1610 C   0  0  0  0  0  0  0  0  0  0  0  0
  -25.9280  -30.8080   21.3730 C   0  0  0  0  0  2  0  0  0  0  0  0
  -26.0000  -29.4350   20.7460 C   0  0  0  0  0  0  0  0  0  0  0  0
  -27.1940  -28.6880   20.7420 C   0  0  0  0  0  3  0  0  0  0  0  0
  -26.0520  -26.8910   19.5650 C   0  0  0  0  0  3  0  0  0  0  0  0
  -24.8560  -27.6340   19.5790 C   0  0  0  0  0  3  0  0  0  0  0  0
  -23.6040  -29.7800   20.2090 C   0  0  0  0  0  2  0  0  0  0  0  0
  -24.6770  -31.0510   22.1240 N   0  0  0  0  0  0  0  0  0  0  0  0
  -23.5580  -32.1230   23.7780 O   0  0  0  0  0  0  0  0  0  0  0  0
  -22.7590  -29.4330   22.5530 C   0  0  0  0  0  0  0  0  0  0  0  0
  -21.4340  -29.2560   22.4300 N   0  0  0  0  0  0  0  0  0  0  0  0
  -23.4450  -28.8030   23.3650 O   0  0  0  0  0  0  0  0  0  0  0  0
  -20.9430  -29.8180   21.7470 H   0  0  0  0  0  0  0  0  0  0  0  0
  -18.0600  -28.0770   22.9390 C   0  0  0  0  0  0  0  0  0  0  0  0
  -20.6180  -28.3220   23.2020 C   0  0  0  0  0  3  0  0  0  0  0  0
  -20.7140  -26.8890   22.6260 C   0  0  0  0  0  2  0  0  0  0  0  0
  -19.6080  -26.5720   21.6160 C   0  0  0  0  0  2  0  0  0  0  0  0
  -18.2290  -26.7260   22.2630 C   0  0  0  0  0  2  0  0  0  0  0  0
  -19.1830  -28.8350   23.3660 C   0  0  0  0  0  0  0  0  0  0  0  0
  -18.9750  -30.1000   23.9540 C   0  0  0  0  0  3  0  0  0  0  0  0
  -17.6720  -30.6090   24.1220 C   0  0  0  0  0  3  0  0  0  0  0  0
  -16.5630  -29.8500   23.7110 C   0  0  0  0  0  3  0  0  0  0  0  0
  -16.7590  -28.5860   23.1270 C   0  0  0  0  0  3  0  0  0  0  0  0
  -25.9310  -32.4660   23.8420 C   0  0  0  0  0  3  0  0  0  0  0  0
  -26.4610  -31.6800   25.1040 C   0  0  1  0  0  0  0  0  0  0  0  0
  -25.3780  -31.4260   26.1800 C   0  0  0  0  0  1  0  0  0  0  0  0
  -27.0440  -30.3100   24.6860 C   0  0  0  0  0  1  0  0  0  0  0  0
  -27.6210  -32.4640   25.7610 C   0  0  0  0  0  1  0  0  0  0  0  0
  -25.6320  -33.8620   24.1820 N   0  0  0  0  0  0  0  0  0  0  0  0
  -25.9590  -34.9140   23.4230 C   0  0  0  0  0  0  0  0  0  0  0  0
  -26.6170  -34.8130   22.3820 O   0  0  0  0  0  0  0  0  0  0  0  0
  -25.0610  -34.0190   24.9990 H   0  0  0  0  0  0  0  0  0  0  0  0
  -24.2340  -36.7110   23.0840 C   0  0  0  0  0  1  0  0  0  0  0  0
  -25.4790  -36.3020   23.8860 C   0  0  0  0  0  3  0  0  0  0  0  0
  -27.6260  -37.1730   24.7000 C   0  0  0  0  0  1  0  0  0  0  0  0
  -26.5150  -37.3530   23.7700 N   0  0  0  0  0  0  0  0  0  0  0  0
  -26.1140  -38.2730   23.9380 H   0  0  0  0  0  0  0  0  0  0  0  0
  -32.1260  -20.6060   17.3810 C   0  0  0  0  0  2  0  0  0  0  0  0
  -31.4510  -19.2320   17.4820 C   0  0  0  0  0  2  0  0  0  0  0  0
  -30.0340  -19.2870   18.0840 C   0  0  0  0  0  2  0  0  0  0  0  0
  -29.5900  -17.6410   19.8970 C   0  0  0  0  0  0  0  0  0  0  0  0
  -30.0580  -18.8200   19.4720 N   0  0  0  0  0  0  0  0  0  0  0  0
  -28.9050  -16.9170   19.1680 O   0  0  0  0  0  0  0  0  0  0  0  0
  -30.5840  -19.3580   20.1560 H   0  0  0  0  0  0  0  0  0  0  0  0
  -29.9210  -17.1900   21.3470 C   0  0  0  0  0  3  0  0  0  0  0  0
  -30.4550  -14.7970   20.8460 C   0  0  0  0  0  0  0  0  0  0  0  0
  -30.3010  -12.6040   19.7450 C   0  0  0  0  0  2  0  0  0  0  0  0
  -29.4210  -12.7300   18.4870 C   0  0  0  0  0  2  0  0  0  0  0  0
  -27.9330  -12.5310   18.8400 C   0  0  0  0  0  2  0  0  0  0  0  0
  -27.4850  -13.3900   20.0550 C   0  0  0  0  0  3  0  0  0  0  0  0
  -28.4890  -13.2600   21.2230 C   0  0  0  0  0  2  0  0  0  0  0  0
  -29.8340  -13.5980   20.7220 N   0  0  0  0  0  0  0  0  0  0  0  0
  -31.5440  -15.0600   20.3370 O   0  0  0  0  0  0  0  0  0  0  0  0
  -29.7290  -15.7380   21.4550 N   0  0  0  0  0  0  0  0  0  0  0  0
  -28.8240  -15.4450   21.7780 H   0  0  0  0  0  0  0  0  0  0  0  0
  -25.0330  -13.8950   20.6550 C   0  0  0  0  0  0  0  0  0  0  0  0
  -23.9850  -13.0770   20.9850 C   0  0  0  0  0  0  0  0  0  0  0  0
  -24.5050  -11.7460   20.9760 C   0  0  0  0  0  0  0  0  0  0  0  0
  -26.1240  -13.0590   20.4760 N   0  0  0  0  0  0  0  0  0  0  0  0
  -25.8060  -11.7620   20.7200 N   0  0  0  0  0  0  0  0  0  0  0  0
  -23.8300  -10.4510   21.1410 C   0  0  0  0  0  0  0  0  0  0  0  0
  -24.2820   -9.4980   22.0800 C   0  0  0  0  0  3  0  0  0  0  0  0
  -23.6040   -8.2700   22.2370 C   0  0  0  0  0  3  0  0  0  0  0  0
  -22.4660   -7.9820   21.4490 C   0  0  0  0  0  0  0  0  0  0  0  0
  -22.0280   -8.9270   20.5030 C   0  0  0  0  0  3  0  0  0  0  0  0
  -22.7070  -10.1480   20.3450 C   0  0  0  0  0  3  0  0  0  0  0  0
  -21.7620   -6.8030   21.5100 O   0  0  0  0  0  0  0  0  0  0  0  0
  -21.7290   -6.0400   22.6500 C   0  0  0  0  0  0  0  0  0  0  0  0
  -21.2680   -6.5590   23.8790 C   0  0  0  0  0  3  0  0  0  0  0  0
  -21.1850   -5.7230   25.0090 C   0  0  0  0  0  3  0  0  0  0  0  0
  -21.5540   -4.3680   24.9120 C   0  0  0  0  0  0  0  0  0  0  0  0
  -22.0060   -3.8480   23.6880 C   0  0  0  0  0  3  0  0  0  0  0  0
  -22.0920   -4.6820   22.5590 C   0  0  0  0  0  0  0  0  0  0  0  0
  -22.5080   -4.1700   21.3740 F   0  0  0  0  0  0  0  0  0  0  0  0
  -21.4660   -3.5600   25.9960 F   0  0  0  0  0  0  0  0  0  0  0  0
  -22.5580  -13.4920   21.1990 C   0  0  0  0  0  0  0  0  0  0  0  0
  -21.8290  -12.7710   22.0430 N   0  0  0  0  0  0  0  0  0  0  0  0
  -22.0900  -14.4880   20.6510 O   0  0  0  0  0  0  0  0  0  0  0  0
  -22.2170  -11.9650   22.5120 H   0  0  0  0  0  0  0  0  0  0  0  0
  -20.8670  -13.0280   22.2230 H   0  0  0  0  0  0  0  0  0  0  0  0
  -25.1510  -15.2710   20.4780 N   0  0  0  0  0  0  0  0  0  0  0  0
  -24.3610  -15.9030   20.5440 H   0  0  0  0  0  0  0  0  0  0  0  0
  -26.0040  -15.7330   20.1800 H   0  0  0  0  0  0  0  0  0  0  0  0
  -31.2990  -17.6600   21.9020 C   0  0  0  0  0  2  0  0  0  0  0  0
  -31.2920  -19.0660   22.1020 O   0  0  0  0  0  0  0  0  0  0  0  0
  -31.8490  -19.2680   22.8520 H   0  0  0  0  0  0  0  0  0  0  0  0
  1 51  1  0
  2  1  1  0
  3  4  1  0
  3  2  1  0
  5  4  1  0
  5  6  1  0
  6  7  1  0
  7  8  1  0
  8  9  1  0
  9 10  1  0
 10 12  1  0
 11 22  2  0
 12 17  1  0
 13 21  1  0
 13 23  1  0
 14 20  1  0
 14 16  1  0
 15 21  1  0
 16 15  1  0
 17 16  2  0
 18 19  1  0
 18 12  2  0
 19 14  2  0
 20 13  1  0
 21 11  1  0
 23 25  2  0
 24 23  1  0
 26 24  1  0
 27 36  2  0
 27 32  1  0
 28 24  1  0
 28 32  1  0
 29 28  1  0
 30 31  1  0
 30 29  1  0
 31 27  1  0
 32 33  2  0
 33 34  1  0
 35 34  2  0
 36 35  1  0
 37 11  1  0
 37 42  1  0
 37 38  1  0
 38 41  1  1
 38 39  1  0
 40 38  1  0
 42 45  1  0
 43 47  1  0
 43 42  1  0
 44 43  2  0
 47 46  1  0
 49 47  1  0
 49 50  1  0
 49 48  1  0
 51 52  1  0
 52 53  1  0
 53 55  1  0
 54 58  1  0
 55 54  1  0
 55 57  1  0
 56 54  2  0
 58 67  1  0
 58 97  1  0
 59 67  1  0
 60 65  1  0
 61 62  1  0
 61 60  1  0
 63 62  1  0
 63 72  1  0
 63 64  1  0
 65 59  1  0
 65 64  1  0
 66 59  2  0
 67 68  1  0
 69 70  2  0
 70 89  1  0
 71 70  1  0
 71 74  1  0
 72 69  1  0
 72 73  1  0
 73 71  2  0
 74 75  1  0
 75 76  2  0
 77 80  1  0
 77 76  1  0
 78 77  2  0
 79 78  1  0
 79 74  2  0
 80 81  1  0
 81 82  1  0
 82 83  2  0
 84 83  1  0
 84 88  1  0
 85 84  2  0
 86 81  2  0
 86 85  1  0
 87 86  1  0
 89 90  1  0
 90 93  1  0
 90 92  1  0
 91 89  2  0
 94 95  1  0
 94 69  1  0
 96 94  1  0
 97 98  1  0
 98 99  1  0
M  ISO  4   9 101  10 101  59 100  67 100
M  END
>  <TORSDO>  (44) 
F 31

>  <SCORE>  (44) 
-10.657

>  <name>  (44) 
43

>  <ligand_id>  (44) 
43

>  <original_smiles>  (44) 
[H]OC([H])([H])C([H])(C(=O)N([H])C([H])([H])C([H])([H])C([H])([H])OC([H])([H])C([H])([H])OC([H])([H])C([H])([H])OC([H])([H])C([H])([H])Oc1c([H])c([H])c2c(c1[H])C([H])([H])N(C(=O)C([H])(N([H])C(=O)C([H])(N([H])C([H])([H])[H])C([H])([H])[H])C(C([H])([H])[H])(C([H])([H])[H])C([H])([H])[H])C([H])(C(=O)N([H])C1([H])c3c([H])c([H])c([H])c([H])c3C([H])([H])C([H])([H])C1([H])[H])C2([H])[H])N([H])C(=O)N1C([H])([H])C([H])([H])C([H])([H])C([H])(n2nc(-c3c([H])c([H])c(Oc4c([H])c([H])c(F)c([H])c4F)c([H])c3[H])c(C(=O)N([H])[H])c2N([H])[H])C1([H])[H]

>  <smiles>  (44) 
[H]OC([H])([H])C([H])(C(=O)N([H])C([H])([H])C([H])([H])C([H])([H])OC([H])([H])C([H])([H])OC([H])([H])C([H])([H])OC([H])([H])C([H])([H])Oc1c([H])c([H])c2c(c1[H])C([H])([H])N(C(=O)C([H])(N([H])C(=O)C([H])(N([H])C([H])([H])[H])C([H])([H])[H])C(C([H])([H])[H])(C([H])([H])[H])C([H])([H])[H])C([H])(C(=O)N([H])C1([H])c3c([H])c([H])c([H])c([H])c3C([H])([H])C([H])([H])C1([H])[H])C2([H])[H])N([H])C(=O)N1C([H])([H])C([H])([H])C([H])([H])C([H])(n2nc(-c3c([H])c([H])c(Oc4c([H])c([H])c(F)c([H])c4F)c([H])c3[H])c(C(=O)N([H])[H])c2N([H])[H])C1([H])[H]

$$$$
44:0:0
     RDKit          3D

 96103  0  0  1  0  0  0  0  0999 V2000
  -30.0120  -20.7130   21.3060 C   0  0  0  0  0  3  0  0  0  0  0  0
  -30.1640  -18.1710   21.1650 C   0  0  0  0  0  0  0  0  0  0  0  0
  -30.1760  -19.4130   20.6320 N   0  0  0  0  0  0  0  0  0  0  0  0
  -29.8250  -17.9380   22.3250 O   0  0  0  0  0  0  0  0  0  0  0  0
  -30.4340  -19.4640   19.6590 H   0  0  0  0  0  0  0  0  0  0  0  0
  -30.6460  -17.0260   20.2440 C   0  0  0  0  0  3  0  0  0  0  0  0
  -30.9920  -14.5680   20.3460 C   0  0  0  0  0  0  0  0  0  0  0  0
  -30.6260  -12.4470   19.1720 C   0  0  0  0  0  2  0  0  0  0  0  0
  -29.6590  -12.7190   18.0010 C   0  0  0  0  0  2  0  0  0  0  0  0
  -28.1940  -12.5960   18.4640 C   0  0  0  0  0  2  0  0  0  0  0  0
  -27.9030  -13.3750   19.7720 C   0  0  0  0  0  3  0  0  0  0  0  0
  -28.9890  -13.1150   20.8430 C   0  0  0  0  0  2  0  0  0  0  0  0
  -30.3000  -13.4040   20.2400 N   0  0  0  0  0  0  0  0  0  0  0  0
  -32.1430  -14.6970   19.9240 O   0  0  0  0  0  0  0  0  0  0  0  0
  -30.2680  -15.6550   20.6620 N   0  0  0  0  0  0  0  0  0  0  0  0
  -29.3300  -15.5280   21.0100 H   0  0  0  0  0  0  0  0  0  0  0  0
  -25.5270  -13.9810   20.5480 C   0  0  0  0  0  0  0  0  0  0  0  0
  -24.4600  -13.2110   20.9280 C   0  0  0  0  0  0  0  0  0  0  0  0
  -24.9090  -11.8570   20.8510 C   0  0  0  0  0  0  0  0  0  0  0  0
  -26.5590  -13.0980   20.2730 N   0  0  0  0  0  0  0  0  0  0  0  0
  -26.1910  -11.8130   20.5090 N   0  0  0  0  0  0  0  0  0  0  0  0
  -24.1750  -10.5970   21.0250 C   0  0  0  0  0  0  0  0  0  0  0  0
  -24.5740   -9.6340   21.9750 C   0  0  0  0  0  3  0  0  0  0  0  0
  -23.8370   -8.4400   22.1350 C   0  0  0  0  0  3  0  0  0  0  0  0
  -22.6880   -8.2020   21.3430 C   0  0  0  0  0  0  0  0  0  0  0  0
  -22.3060   -9.1560   20.3830 C   0  0  0  0  0  3  0  0  0  0  0  0
  -23.0460  -10.3400   20.2220 C   0  0  0  0  0  3  0  0  0  0  0  0
  -21.9320   -7.0550   21.4110 O   0  0  0  0  0  0  0  0  0  0  0  0
  -21.7870   -6.3580   22.5820 C   0  0  0  0  0  0  0  0  0  0  0  0
  -21.1890   -6.9310   23.7270 C   0  0  0  0  0  3  0  0  0  0  0  0
  -20.9930   -6.1540   24.8840 C   0  0  0  0  0  3  0  0  0  0  0  0
  -21.3910   -4.8020   24.9030 C   0  0  0  0  0  0  0  0  0  0  0  0
  -21.9870   -4.2290   23.7650 C   0  0  0  0  0  3  0  0  0  0  0  0
  -22.1780   -5.0020   22.6080 C   0  0  0  0  0  0  0  0  0  0  0  0
  -22.7300   -4.4400   21.5070 F   0  0  0  0  0  0  0  0  0  0  0  0
  -21.1980   -4.0550   26.0120 F   0  0  0  0  0  0  0  0  0  0  0  0
  -23.0760  -13.6960   21.2490 C   0  0  0  0  0  0  0  0  0  0  0  0
  -22.3570  -12.9810   22.1070 N   0  0  0  0  0  0  0  0  0  0  0  0
  -22.6430  -14.7480   20.7760 O   0  0  0  0  0  0  0  0  0  0  0  0
  -22.7190  -12.1340   22.5200 H   0  0  0  0  0  0  0  0  0  0  0  0
  -21.4300  -13.2920   22.3610 H   0  0  0  0  0  0  0  0  0  0  0  0
  -25.7010  -15.3520   20.3970 N   0  0  0  0  0  0  0  0  0  0  0  0
  -24.9410  -16.0080   20.5340 H   0  0  0  0  0  0  0  0  0  0  0  0
  -26.5250  -15.7770   19.9910 H   0  0  0  0  0  0  0  0  0  0  0  0
  -30.3690  -17.2390   18.7310 C   0  0  0  0  0  2  0  0  0  0  0  0
  -28.1390  -19.0030   18.5810 C   0  0  0  0  0  1  0  0  0  0  0  0
  -28.5820  -17.2550   18.3360 S   0  0  0  0  0  0  0  0  0  0  0  0
  -31.4220  -21.2180   21.6980 C   0  0  0  0  0  2  0  0  0  0  0  0
  -32.3270  -21.5640   20.4950 C   0  0  0  0  0  2  0  0  0  0  0  0
  -34.2910  -19.5980   20.6690 C   0  0  0  0  0  1  0  0  0  0  0  0
  -34.0990  -21.3950   20.8610 S   0  0  0  0  0  0  0  0  0  0  0  0
  -29.2420  -21.7400   20.4120 C   0  0  0  0  0  2  0  0  0  0  0  0
  -29.0370  -22.9980   21.0790 O   0  0  0  0  0  0  0  0  0  0  0  0
  -28.7340  -24.1160   20.2180 C   0  0  0  0  0  2  0  0  0  0  0  0
  -28.3790  -25.3890   21.0460 C   0  0  0  0  0  2  0  0  0  0  0  0
  -28.5010  -26.6530   20.3450 O   0  0  0  0  0  0  0  0  0  0  0  0
  -24.5870  -31.8930   23.2280 C   0  0  0  0  0  0  0  0  0  0  0  0
  -27.3500  -27.4140   20.2920 C   0  0  0  0  0  0  0  0  0  0  0  0
  -23.4400  -30.4520   21.5760 C   0  0  0  0  0  3  0  0  0  0  0  0
  -24.9500  -28.9160   20.2040 C   0  0  0  0  0  0  0  0  0  0  0  0
  -25.9660  -30.8380   21.4360 C   0  0  0  0  0  2  0  0  0  0  0  0
  -26.0880  -29.4570   20.8160 C   0  0  0  0  0  0  0  0  0  0  0  0
  -27.2950  -28.7170   20.8490 C   0  0  0  0  0  3  0  0  0  0  0  0
  -26.1980  -26.8960   19.6620 C   0  0  0  0  0  3  0  0  0  0  0  0
  -25.0040  -27.6400   19.6140 C   0  0  0  0  0  3  0  0  0  0  0  0
  -23.6930  -29.7600   20.2090 C   0  0  0  0  0  2  0  0  0  0  0  0
  -24.6810  -31.0780   22.1370 N   0  0  0  0  0  0  0  0  0  0  0  0
  -23.4910  -32.1560   23.7400 O   0  0  0  0  0  0  0  0  0  0  0  0
  -22.7810  -29.4360   22.5350 C   0  0  0  0  0  0  0  0  0  0  0  0
  -21.4660  -29.2140   22.3650 N   0  0  0  0  0  0  0  0  0  0  0  0
  -23.4490  -28.8460   23.3890 O   0  0  0  0  0  0  0  0  0  0  0  0
  -20.9880  -29.7410   21.6470 H   0  0  0  0  0  0  0  0  0  0  0  0
  -18.1070  -27.9440   22.7640 C   0  0  0  0  0  0  0  0  0  0  0  0
  -20.6450  -28.2740   23.1260 C   0  0  0  0  0  3  0  0  0  0  0  0
  -20.8060  -26.8330   22.5860 C   0  0  0  0  0  2  0  0  0  0  0  0
  -19.7520  -26.4610   21.5390 C   0  0  0  0  0  2  0  0  0  0  0  0
  -18.3430  -26.5850   22.1280 C   0  0  0  0  0  2  0  0  0  0  0  0
  -19.1880  -28.7440   23.2190 C   0  0  0  0  0  0  0  0  0  0  0  0
  -18.9160  -30.0140   23.7730 C   0  0  0  0  0  3  0  0  0  0  0  0
  -17.5950  -30.4850   23.8770 C   0  0  0  0  0  3  0  0  0  0  0  0
  -16.5260  -29.6830   23.4410 C   0  0  0  0  0  3  0  0  0  0  0  0
  -16.7820  -28.4150   22.8910 C   0  0  0  0  0  3  0  0  0  0  0  0
  -25.8480  -32.5530   23.8660 C   0  0  0  0  0  3  0  0  0  0  0  0
  -26.3600  -31.7990   25.1540 C   0  0  1  0  0  0  0  0  0  0  0  0
  -25.2510  -31.5190   26.1930 C   0  0  0  0  0  1  0  0  0  0  0  0
  -27.0010  -30.4430   24.7750 C   0  0  0  0  0  1  0  0  0  0  0  0
  -27.4600  -32.6350   25.8500 C   0  0  0  0  0  1  0  0  0  0  0  0
  -25.5080  -33.9470   24.1790 N   0  0  0  0  0  0  0  0  0  0  0  0
  -25.8260  -34.9990   23.4120 C   0  0  0  0  0  0  0  0  0  0  0  0
  -26.5080  -34.8990   22.3880 O   0  0  0  0  0  0  0  0  0  0  0  0
  -24.9000  -34.0960   24.9710 H   0  0  0  0  0  0  0  0  0  0  0  0
  -24.0680  -36.7560   23.0220 C   0  0  0  0  0  1  0  0  0  0  0  0
  -25.3050  -36.3790   23.8530 C   0  0  0  0  0  3  0  0  0  0  0  0
  -27.4000  -37.3230   24.7170 C   0  0  0  0  0  1  0  0  0  0  0  0
  -26.3160  -37.4530   23.7480 N   0  0  0  0  0  0  0  0  0  0  0  0
  -25.8850  -38.3640   23.8770 H   0  0  0  0  0  0  0  0  0  0  0  0
  1 52  1  0
  1 48  1  0
  2  4  2  0
  3  2  1  0
  3  1  1  0
  5  3  1  0
  6 45  1  0
  6 15  1  0
  6  2  1  0
  7 15  1  0
  8 13  1  0
  9 10  1  0
  9  8  1  0
 11 10  1  0
 11 20  1  0
 11 12  1  0
 13  7  1  0
 13 12  1  0
 14  7  2  0
 15 16  1  0
 17 18  2  0
 18 37  1  0
 19 18  1  0
 19 22  1  0
 20 21  1  0
 20 17  1  0
 21 19  2  0
 22 23  1  0
 23 24  2  0
 25 28  1  0
 25 24  1  0
 26 25  2  0
 27 26  1  0
 27 22  2  0
 28 29  1  0
 29 34  2  0
 29 30  1  0
 30 31  2  0
 31 32  1  0
 32 36  1  0
 33 32  2  0
 34 33  1  0
 35 34  1  0
 37 38  1  0
 38 41  1  0
 38 40  1  0
 39 37  2  0
 42 43  1  0
 42 17  1  0
 44 42  1  0
 47 46  1  0
 47 45  1  0
 49 51  1  0
 49 48  1  0
 50 51  1  0
 52 53  1  0
 54 55  1  0
 54 53  1  0
 56 55  1  0
 57 68  2  0
 58 56  1  0
 58 63  1  0
 59 67  1  0
 59 69  1  0
 60 66  1  0
 60 62  1  0
 61 67  1  0
 62 63  2  0
 62 61  1  0
 64 58  2  0
 65 64  1  0
 65 60  2  0
 66 59  1  0
 67 57  1  0
 69 71  2  0
 70 69  1  0
 72 70  1  0
 73 82  2  0
 73 78  1  0
 74 70  1  0
 74 78  1  0
 75 74  1  0
 76 77  1  0
 76 75  1  0
 77 73  1  0
 78 79  2  0
 79 80  1  0
 81 80  2  0
 82 81  1  0
 83 57  1  0
 83 88  1  0
 83 84  1  0
 84 87  1  1
 84 85  1  0
 86 84  1  0
 88 91  1  0
 89 93  1  0
 89 88  1  0
 90 89  2  0
 93 92  1  0
 95 93  1  0
 95 96  1  0
 95 94  1  0
M  ISO  4   7 100  15 100  55 101  56 101
M  END
>  <TORSDO>  (45) 
F 27

>  <SCORE>  (45) 
-11.208

>  <name>  (45) 
44

>  <ligand_id>  (45) 
44

>  <original_smiles>  (45) 
[H]c1c([H])c([H])c2c(c1[H])C([H])([H])C([H])([H])C([H])([H])C2([H])N([H])C(=O)C1([H])N(C(=O)C([H])(N([H])C(=O)C([H])(N([H])C([H])([H])[H])C([H])([H])[H])C(C([H])([H])[H])(C([H])([H])[H])C([H])([H])[H])C([H])([H])c2c([H])c(OC([H])([H])C([H])([H])OC([H])([H])C([H])(N([H])C(=O)C([H])(N([H])C(=O)N3C([H])([H])C([H])([H])C([H])([H])C([H])(n4nc(-c5c([H])c([H])c(Oc6c([H])c([H])c(F)c([H])c6F)c([H])c5[H])c(C(=O)N([H])[H])c4N([H])[H])C3([H])[H])C([H])([H])SC([H])([H])[H])C([H])([H])C([H])([H])SC([H])([H])[H])c([H])c([H])c2C1([H])[H]

>  <smiles>  (45) 
[H]c1c([H])c([H])c2c(c1[H])C([H])([H])C([H])([H])C([H])([H])C2([H])N([H])C(=O)C1([H])N(C(=O)C([H])(N([H])C(=O)C([H])(N([H])C([H])([H])[H])C([H])([H])[H])C(C([H])([H])[H])(C([H])([H])[H])C([H])([H])[H])C([H])([H])c2c([H])c(OC([H])([H])C([H])([H])OC([H])([H])C([H])(N([H])C(=O)C([H])(N([H])C(=O)N3C([H])([H])C([H])([H])C([H])([H])C([H])(n4nc(-c5c([H])c([H])c(Oc6c([H])c([H])c(F)c([H])c6F)c([H])c5[H])c(C(=O)N([H])[H])c4N([H])[H])C3([H])[H])C([H])([H])SC([H])([H])[H])C([H])([H])C([H])([H])SC([H])([H])[H])c([H])c([H])c2C1([H])[H]

$$$$
45:0:0
     RDKit          3D

102109  0  0  1  0  0  0  0  0999 V2000
  -29.8310  -22.1030   18.1800 C   0  0  0  0  0  2  0  0  0  0  0  0
  -30.8810  -22.8100   18.8270 O   0  0  0  0  0  0  0  0  0  0  0  0
  -30.7880  -22.8350   20.2430 C   0  0  0  0  0  2  0  0  0  0  0  0
  -32.0450  -23.5230   20.7860 C   0  0  0  0  0  2  0  0  0  0  0  0
  -31.9160  -24.9200   20.5800 O   0  0  0  0  0  0  0  0  0  0  0  0
  -33.1310  -25.5750   20.2350 C   0  0  0  0  0  2  0  0  0  0  0  0
  -32.7790  -27.0460   19.9900 C   0  0  0  0  0  2  0  0  0  0  0  0
  -31.8090  -27.0630   18.9480 O   0  0  0  0  0  0  0  0  0  0  0  0
  -30.8470  -28.1010   19.0570 C   0  0  0  0  0  2  0  0  0  0  0  0
  -29.6150  -27.7040   18.2290 C   0  0  0  0  0  2  0  0  0  0  0  0
  -28.8880  -26.4620   18.7810 C   0  0  0  0  0  2  0  0  0  0  0  0
  -28.3670  -26.7210   20.0820 O   0  0  0  0  0  0  0  0  0  0  0  0
  -24.6040  -31.8410   23.2580 C   0  0  0  0  0  0  0  0  0  0  0  0
  -27.1960  -27.4330   20.1130 C   0  0  0  0  0  0  0  0  0  0  0  0
  -23.3740  -30.4660   21.6070 C   0  0  0  0  0  3  0  0  0  0  0  0
  -24.8070  -28.9240   20.1660 C   0  0  0  0  0  0  0  0  0  0  0  0
  -25.8990  -30.8050   21.4040 C   0  0  0  0  0  2  0  0  0  0  0  0
  -25.9670  -29.4390   20.7590 C   0  0  0  0  0  0  0  0  0  0  0  0
  -27.1620  -28.6920   20.7490 C   0  0  0  0  0  3  0  0  0  0  0  0
  -26.0200  -26.9160   19.5320 C   0  0  0  0  0  3  0  0  0  0  0  0
  -24.8240  -27.6580   19.5580 C   0  0  0  0  0  3  0  0  0  0  0  0
  -23.5710  -29.7940   20.2200 C   0  0  0  0  0  2  0  0  0  0  0  0
  -24.6440  -31.0520   22.1480 N   0  0  0  0  0  0  0  0  0  0  0  0
  -23.5280  -32.1200   23.8060 O   0  0  0  0  0  0  0  0  0  0  0  0
  -22.7200  -29.4430   22.5620 C   0  0  0  0  0  0  0  0  0  0  0  0
  -21.3930  -29.2790   22.4400 N   0  0  0  0  0  0  0  0  0  0  0  0
  -23.4020  -28.8000   23.3640 O   0  0  0  0  0  0  0  0  0  0  0  0
  -20.9050  -29.8470   21.7620 H   0  0  0  0  0  0  0  0  0  0  0  0
  -18.0080  -28.1240   22.9400 C   0  0  0  0  0  0  0  0  0  0  0  0
  -20.5690  -28.3430   23.2040 C   0  0  0  0  0  3  0  0  0  0  0  0
  -20.6500  -26.9160   22.6110 C   0  0  0  0  0  2  0  0  0  0  0  0
  -19.5390  -26.6210   21.5990 C   0  0  0  0  0  2  0  0  0  0  0  0
  -18.1630  -26.7790   22.2500 C   0  0  0  0  0  2  0  0  0  0  0  0
  -19.1390  -28.8660   23.3730 C   0  0  0  0  0  0  0  0  0  0  0  0
  -18.9400  -30.1280   23.9740 C   0  0  0  0  0  3  0  0  0  0  0  0
  -17.6440  -30.6470   24.1490 C   0  0  0  0  0  3  0  0  0  0  0  0
  -16.5280  -29.9020   23.7340 C   0  0  0  0  0  3  0  0  0  0  0  0
  -16.7100  -28.6420   23.1340 C   0  0  0  0  0  3  0  0  0  0  0  0
  -25.9020  -32.4500   23.8770 C   0  0  0  0  0  3  0  0  0  0  0  0
  -25.5990  -33.8370   24.2560 N   0  0  0  0  0  0  0  0  0  0  0  0
  -25.9240  -34.9110   23.5260 C   0  0  0  0  0  0  0  0  0  0  0  0
  -26.5820  -34.8400   22.4830 O   0  0  0  0  0  0  0  0  0  0  0  0
  -25.0150  -33.9670   25.0680 H   0  0  0  0  0  0  0  0  0  0  0  0
  -24.1940  -36.7130   23.2450 C   0  0  0  0  0  1  0  0  0  0  0  0
  -25.4420  -36.2840   24.0300 C   0  0  0  0  0  3  0  0  0  0  0  0
  -27.5890  -37.1380   24.8620 C   0  0  0  0  0  1  0  0  0  0  0  0
  -26.4750  -37.3390   23.9400 N   0  0  0  0  0  0  0  0  0  0  0  0
  -26.0720  -38.2540   24.1250 H   0  0  0  0  0  0  0  0  0  0  0  0
  -26.4420  -31.6360   25.1160 C   0  0  1  0  0  0  0  0  0  0  0  0
  -25.3680  -31.3620   26.1960 C   0  0  0  0  0  1  0  0  0  0  0  0
  -27.0150  -30.2720   24.6650 C   0  0  0  0  0  1  0  0  0  0  0  0
  -27.6040  -32.4080   25.7840 C   0  0  0  0  0  1  0  0  0  0  0  0
  -30.3530  -21.6900   16.8010 C   0  0  0  0  0  2  0  0  0  0  0  0
  -31.3590  -20.7080   17.0320 O   0  0  0  0  0  0  0  0  0  0  0  0
  -31.1060  -19.4500   16.4240 C   0  0  0  0  0  2  0  0  0  0  0  0
  -32.0980  -18.4350   17.0130 C   0  0  0  0  0  2  0  0  0  0  0  0
  -30.8980  -17.3160   18.8780 C   0  0  0  0  0  0  0  0  0  0  0  0
  -31.8310  -18.1650   18.4290 N   0  0  0  0  0  0  0  0  0  0  0  0
  -30.1060  -16.7620   18.1130 O   0  0  0  0  0  0  0  0  0  0  0  0
  -32.4280  -18.6240   19.1030 H   0  0  0  0  0  0  0  0  0  0  0  0
  -30.8520  -16.9990   20.3990 C   0  0  0  0  0  3  0  0  0  0  0  0
  -31.1440  -14.5240   20.1780 C   0  0  0  0  0  0  0  0  0  0  0  0
  -30.7110  -12.4030   19.0190 C   0  0  0  0  0  2  0  0  0  0  0  0
  -29.7650  -12.6890   17.8340 C   0  0  0  0  0  2  0  0  0  0  0  0
  -28.2910  -12.6320   18.2860 C   0  0  0  0  0  2  0  0  0  0  0  0
  -28.0180  -13.4510   19.5790 C   0  0  0  0  0  3  0  0  0  0  0  0
  -29.0840  -13.1490   20.6610 C   0  0  0  0  0  2  0  0  0  0  0  0
  -30.4110  -13.3860   20.0680 N   0  0  0  0  0  0  0  0  0  0  0  0
  -32.2850  -14.6430   19.7290 O   0  0  0  0  0  0  0  0  0  0  0  0
  -30.4660  -15.5940   20.6250 N   0  0  0  0  0  0  0  0  0  0  0  0
  -29.5210  -15.4320   20.9250 H   0  0  0  0  0  0  0  0  0  0  0  0
  -25.6490  -14.1450   20.3080 C   0  0  0  0  0  0  0  0  0  0  0  0
  -24.5630  -13.4150   20.7020 C   0  0  0  0  0  0  0  0  0  0  0  0
  -24.9730  -12.0480   20.6710 C   0  0  0  0  0  0  0  0  0  0  0  0
  -26.6630  -13.2280   20.0750 N   0  0  0  0  0  0  0  0  0  0  0  0
  -26.2560  -11.9610   20.3470 N   0  0  0  0  0  0  0  0  0  0  0  0
  -24.2020  -10.8190   20.8760 C   0  0  0  0  0  0  0  0  0  0  0  0
  -24.6160   -9.8330   21.7980 C   0  0  0  0  0  3  0  0  0  0  0  0
  -23.8500   -8.6640   21.9880 C   0  0  0  0  0  3  0  0  0  0  0  0
  -22.6540   -8.4720   21.2530 C   0  0  0  0  0  0  0  0  0  0  0  0
  -22.2580   -9.4460   20.3190 C   0  0  0  0  0  3  0  0  0  0  0  0
  -23.0260  -10.6070   20.1290 C   0  0  0  0  0  3  0  0  0  0  0  0
  -21.8550   -7.3600   21.3600 O   0  0  0  0  0  0  0  0  0  0  0  0
  -21.7970   -6.6180   22.5130 C   0  0  0  0  0  0  0  0  0  0  0  0
  -21.4390   -7.1930   23.7510 C   0  0  0  0  0  3  0  0  0  0  0  0
  -21.3280   -6.3820   24.9000 C   0  0  0  0  0  3  0  0  0  0  0  0
  -21.5620   -4.9970   24.8080 C   0  0  0  0  0  0  0  0  0  0  0  0
  -21.9090   -4.4210   23.5730 C   0  0  0  0  0  3  0  0  0  0  0  0
  -22.0210   -5.2290   22.4280 C   0  0  0  0  0  0  0  0  0  0  0  0
  -22.3370   -4.6660   21.2370 F   0  0  0  0  0  0  0  0  0  0  0  0
  -21.4460   -4.2180   25.9080 F   0  0  0  0  0  0  0  0  0  0  0  0
  -23.1900  -13.9460   20.9920 C   0  0  0  0  0  0  0  0  0  0  0  0
  -22.4560  -13.2850   21.8830 N   0  0  0  0  0  0  0  0  0  0  0  0
  -22.7790  -14.9830   20.4730 O   0  0  0  0  0  0  0  0  0  0  0  0
  -22.8020  -12.4500   22.3310 H   0  0  0  0  0  0  0  0  0  0  0  0
  -21.5330  -13.6240   22.1220 H   0  0  0  0  0  0  0  0  0  0  0  0
  -25.8500  -15.5050   20.0980 N   0  0  0  0  0  0  0  0  0  0  0  0
  -25.0660  -16.1500   20.1410 H   0  0  0  0  0  0  0  0  0  0  0  0
  -26.6500  -15.8930   19.6160 H   0  0  0  0  0  0  0  0  0  0  0  0
  -30.4930  -19.3020   21.4950 C   0  0  0  0  0  1  0  0  0  0  0  0
  -28.4820  -18.0750   20.6040 C   0  0  0  0  0  1  0  0  0  0  0  0
  -29.8880  -17.9180   21.2140 C   0  0  0  0  0  3  0  0  0  0  0  0
  1  2  1  0
  2  3  1  0
  3  4  1  0
  5  4  1  0
  6  5  1  0
  7  6  1  0
  8  9  1  0
  8  7  1  0
 10 11  1  0
 10  9  1  0
 11 12  1  0
 12 14  1  0
 13 24  2  0
 14 19  1  0
 15 23  1  0
 15 25  1  0
 16 22  1  0
 16 18  1  0
 17 23  1  0
 18 17  1  0
 19 18  2  0
 20 21  1  0
 20 14  2  0
 21 16  2  0
 22 15  1  0
 23 13  1  0
 25 27  2  0
 26 25  1  0
 28 26  1  0
 29 38  2  0
 29 34  1  0
 30 26  1  0
 30 34  1  0
 31 30  1  0
 32 33  1  0
 32 31  1  0
 33 29  1  0
 34 35  2  0
 35 36  1  0
 37 36  2  0
 38 37  1  0
 39 13  1  0
 39 40  1  0
 39 49  1  0
 40 43  1  0
 41 45  1  0
 41 40  1  0
 42 41  2  0
 45 44  1  0
 47 45  1  0
 47 48  1  0
 47 46  1  0
 49 52  1  1
 49 50  1  0
 51 49  1  0
 53 54  1  0
 53  1  1  0
 55 56  1  0
 55 54  1  0
 56 58  1  0
 58 57  1  0
 58 60  1  0
 59 57  2  0
 61 57  1  0
 61 70  1  0
 61102  1  0
 62 70  1  0
 63 68  1  0
 64 65  1  0
 64 63  1  0
 66 65  1  0
 66 75  1  0
 66 67  1  0
 68 62  1  0
 68 67  1  0
 69 62  2  0
 70 71  1  0
 72 73  2  0
 73 92  1  0
 74 73  1  0
 74 77  1  0
 75 72  1  0
 75 76  1  0
 76 74  2  0
 77 78  1  0
 78 79  2  0
 80 83  1  0
 80 79  1  0
 81 80  2  0
 82 81  1  0
 82 77  2  0
 83 84  1  0
 84 85  1  0
 85 86  2  0
 87 86  1  0
 87 91  1  0
 88 87  2  0
 89 84  2  0
 89 88  1  0
 90 89  1  0
 92 93  1  0
 93 96  1  0
 93 95  1  0
 94 92  2  0
 97 98  1  0
 97 72  1  0
 99 97  1  0
101102  1  0
102100  1  0
M  ISO  4  11 101  12 101  62 100  70 100
M  END
>  <TORSDO>  (46) 
F 33

>  <SCORE>  (46) 
-9.671

>  <name>  (46) 
45

>  <ligand_id>  (46) 
45

>  <original_smiles>  (46) 
[H]c1c([H])c([H])c2c(c1[H])C([H])([H])C([H])([H])C([H])([H])C2([H])N([H])C(=O)C1([H])N(C(=O)C([H])(N([H])C(=O)C([H])(N([H])C([H])([H])[H])C([H])([H])[H])C(C([H])([H])[H])(C([H])([H])[H])C([H])([H])[H])C([H])([H])c2c([H])c(OC([H])([H])C([H])([H])C([H])([H])OC([H])([H])C([H])([H])OC([H])([H])C([H])([H])OC([H])([H])C([H])([H])OC([H])([H])C([H])([H])N([H])C(=O)C([H])(N([H])C(=O)N3C([H])([H])C([H])([H])C([H])([H])C([H])(n4nc(-c5c([H])c([H])c(Oc6c([H])c([H])c(F)c([H])c6F)c([H])c5[H])c(C(=O)N([H])[H])c4N([H])[H])C3([H])[H])C([H])(C([H])([H])[H])C([H])([H])[H])c([H])c([H])c2C1([H])[H]

>  <smiles>  (46) 
[H]c1c([H])c([H])c2c(c1[H])C([H])([H])C([H])([H])C([H])([H])C2([H])N([H])C(=O)C1([H])N(C(=O)C([H])(N([H])C(=O)C([H])(N([H])C([H])([H])[H])C([H])([H])[H])C(C([H])([H])[H])(C([H])([H])[H])C([H])([H])[H])C([H])([H])c2c([H])c(OC([H])([H])C([H])([H])C([H])([H])OC([H])([H])C([H])([H])OC([H])([H])C([H])([H])OC([H])([H])C([H])([H])OC([H])([H])C([H])([H])N([H])C(=O)C([H])(N([H])C(=O)N3C([H])([H])C([H])([H])C([H])([H])C([H])(n4nc(-c5c([H])c([H])c(Oc6c([H])c([H])c(F)c([H])c6F)c([H])c5[H])c(C(=O)N([H])[H])c4N([H])[H])C3([H])[H])C([H])(C([H])([H])[H])C([H])([H])[H])c([H])c([H])c2C1([H])[H]

$$$$
46:0:0
     RDKit          3D

100107  0  0  1  0  0  0  0  0999 V2000
  -29.0030  -21.7130   14.9590 C   0  0  0  0  0  2  0  0  0  0  0  0
  -30.3000  -22.2860   14.8810 O   0  0  0  0  0  0  0  0  0  0  0  0
  -30.2770  -23.7080   14.8660 C   0  0  0  0  0  2  0  0  0  0  0  0
  -31.5210  -24.2370   15.5880 C   0  0  0  0  0  2  0  0  0  0  0  0
  -31.2790  -24.2170   16.9890 O   0  0  0  0  0  0  0  0  0  0  0  0
  -32.3900  -24.6750   17.7460 C   0  0  0  0  0  2  0  0  0  0  0  0
  -31.9780  -24.8200   19.2170 C   0  0  0  0  0  2  0  0  0  0  0  0
  -31.1050  -25.9360   19.3410 O   0  0  0  0  0  0  0  0  0  0  0  0
  -30.6450  -26.1280   20.6730 C   0  0  0  0  0  2  0  0  0  0  0  0
  -29.6160  -27.2640   20.7020 C   0  0  0  0  0  2  0  0  0  0  0  0
  -28.4580  -26.8290   19.9980 O   0  0  0  0  0  0  0  0  0  0  0  0
  -24.6080  -31.9280   23.2110 C   0  0  0  0  0  0  0  0  0  0  0  0
  -27.3110  -27.5880   20.0750 C   0  0  0  0  0  0  0  0  0  0  0  0
  -23.4040  -30.5110   21.5760 C   0  0  0  0  0  3  0  0  0  0  0  0
  -24.8690  -29.0080   20.1270 C   0  0  0  0  0  0  0  0  0  0  0  0
  -25.9110  -30.9330   21.3400 C   0  0  0  0  0  2  0  0  0  0  0  0
  -26.0180  -29.5670   20.7010 C   0  0  0  0  0  0  0  0  0  0  0  0
  -27.2400  -28.8660   20.6780 C   0  0  0  0  0  3  0  0  0  0  0  0
  -26.1480  -27.0370   19.5030 C   0  0  0  0  0  3  0  0  0  0  0  0
  -24.9260  -27.7390   19.5270 C   0  0  0  0  0  3  0  0  0  0  0  0
  -23.6060  -29.8360   20.1920 C   0  0  0  0  0  2  0  0  0  0  0  0
  -24.6600  -31.1380   22.1020 N   0  0  0  0  0  0  0  0  0  0  0  0
  -23.5310  -32.1760   23.7700 O   0  0  0  0  0  0  0  0  0  0  0  0
  -22.7870  -29.4740   22.5420 C   0  0  0  0  0  0  0  0  0  0  0  0
  -21.4650  -29.2670   22.4280 N   0  0  0  0  0  0  0  0  0  0  0  0
  -23.4930  -28.8570   23.3440 O   0  0  0  0  0  0  0  0  0  0  0  0
  -20.9570  -29.8180   21.7510 H   0  0  0  0  0  0  0  0  0  0  0  0
  -18.1220  -28.0030   22.9440 C   0  0  0  0  0  0  0  0  0  0  0  0
  -20.6740  -28.3100   23.2020 C   0  0  0  0  0  3  0  0  0  0  0  0
  -20.8030  -26.8840   22.6230 C   0  0  0  0  0  2  0  0  0  0  0  0
  -19.7020  -26.5400   21.6150 C   0  0  0  0  0  2  0  0  0  0  0  0
  -18.3210  -26.6580   22.2660 C   0  0  0  0  0  2  0  0  0  0  0  0
  -19.2270  -28.7860   23.3690 C   0  0  0  0  0  0  0  0  0  0  0  0
  -18.9870  -30.0460   23.9600 C   0  0  0  0  0  3  0  0  0  0  0  0
  -17.6750  -30.5220   24.1320 C   0  0  0  0  0  3  0  0  0  0  0  0
  -16.5830  -29.7340   23.7260 C   0  0  0  0  0  3  0  0  0  0  0  0
  -16.8080  -28.4780   23.1370 C   0  0  0  0  0  3  0  0  0  0  0  0
  -25.8940  -32.5760   23.8170 C   0  0  0  0  0  3  0  0  0  0  0  0
  -25.5670  -33.9650   24.1600 N   0  0  0  0  0  0  0  0  0  0  0  0
  -25.8810  -35.0270   23.4050 C   0  0  0  0  0  0  0  0  0  0  0  0
  -26.5460  -34.9400   22.3700 O   0  0  0  0  0  0  0  0  0  0  0  0
  -24.9750  -34.1070   24.9650 H   0  0  0  0  0  0  0  0  0  0  0  0
  -24.1270  -36.7970   23.0650 C   0  0  0  0  0  1  0  0  0  0  0  0
  -25.3750  -36.4040   23.8730 C   0  0  0  0  0  3  0  0  0  0  0  0
  -27.4990  -37.3090   24.7090 C   0  0  0  0  0  1  0  0  0  0  0  0
  -26.3930  -37.4730   23.7690 N   0  0  0  0  0  0  0  0  0  0  0  0
  -25.9750  -38.3850   23.9250 H   0  0  0  0  0  0  0  0  0  0  0  0
  -26.4470  -31.8030   25.0760 C   0  0  1  0  0  0  0  0  0  0  0  0
  -25.3780  -31.5360   26.1610 C   0  0  0  0  0  1  0  0  0  0  0  0
  -27.0460  -30.4400   24.6570 C   0  0  0  0  0  1  0  0  0  0  0  0
  -27.5960  -32.6100   25.7250 C   0  0  0  0  0  1  0  0  0  0  0  0
  -29.1230  -20.1880   14.8070 C   0  0  0  0  0  2  0  0  0  0  0  0
  -27.9620  -19.4100   15.4560 C   0  0  0  0  0  2  0  0  0  0  0  0
  -28.5450  -18.8160   17.8060 C   0  0  0  0  0  0  0  0  0  0  0  0
  -27.9390  -19.6030   16.9070 N   0  0  0  0  0  0  0  0  0  0  0  0
  -29.0590  -17.7400   17.4990 O   0  0  0  0  0  0  0  0  0  0  0  0
  -27.5130  -20.4550   17.2480 H   0  0  0  0  0  0  0  0  0  0  0  0
  -28.6130  -19.3350   19.2490 C   0  0  0  0  0  2  0  0  0  0  0  0
  -29.8570  -18.8370   20.0220 C   0  0  0  0  0  2  0  0  0  0  0  0
  -29.6670  -17.4550   20.6720 C   0  0  0  0  0  2  0  0  0  0  0  0
  -30.9880  -16.7430   21.0080 C   0  0  0  0  0  2  0  0  0  0  0  0
  -30.7550  -15.5080   21.9100 C   0  0  0  0  0  2  0  0  0  0  0  0
  -31.8630  -13.8320   20.4570 C   0  0  0  0  0  0  0  0  0  0  0  0
  -31.1450  -12.0720   18.8810 C   0  0  0  0  0  2  0  0  0  0  0  0
  -30.2250  -12.6260   17.7780 C   0  0  0  0  0  2  0  0  0  0  0  0
  -28.7590  -12.6480   18.2470 C   0  0  0  0  0  2  0  0  0  0  0  0
  -28.5930  -13.3040   19.6440 C   0  0  0  0  0  3  0  0  0  0  0  0
  -29.6050  -12.7050   20.6440 C   0  0  0  0  0  2  0  0  0  0  0  0
  -30.9570  -12.8860   20.0920 N   0  0  0  0  0  0  0  0  0  0  0  0
  -32.9040  -14.0440   19.8320 O   0  0  0  0  0  0  0  0  0  0  0  0
  -31.6820  -14.4020   21.6580 N   0  0  0  0  0  0  0  0  0  0  0  0
  -32.5560  -14.5260   22.1490 H   0  0  0  0  0  0  0  0  0  0  0  0
  -26.3050  -14.1900   20.4360 C   0  0  0  0  0  0  0  0  0  0  0  0
  -25.1480  -13.5470   20.7860 C   0  0  0  0  0  0  0  0  0  0  0  0
  -25.4230  -12.1500   20.6690 C   0  0  0  0  0  0  0  0  0  0  0  0
  -27.2190  -13.1910   20.1350 N   0  0  0  0  0  0  0  0  0  0  0  0
  -26.6900  -11.9560   20.3250 N   0  0  0  0  0  0  0  0  0  0  0  0
  -24.5390  -10.9870   20.8100 C   0  0  0  0  0  0  0  0  0  0  0  0
  -24.8340   -9.9390   21.7100 C   0  0  0  0  0  3  0  0  0  0  0  0
  -23.9580   -8.8390   21.8380 C   0  0  0  0  0  3  0  0  0  0  0  0
  -22.7760   -8.7800   21.0640 C   0  0  0  0  0  0  0  0  0  0  0  0
  -22.4970   -9.8160   20.1560 C   0  0  0  0  0  3  0  0  0  0  0  0
  -23.3710  -10.9090   20.0260 C   0  0  0  0  0  3  0  0  0  0  0  0
  -21.8800   -7.7390   21.1020 O   0  0  0  0  0  0  0  0  0  0  0  0
  -21.6850   -6.9990   22.2410 C   0  0  0  0  0  0  0  0  0  0  0  0
  -21.2920   -7.5960   23.4570 C   0  0  0  0  0  3  0  0  0  0  0  0
  -21.0370   -6.7930   24.5870 C   0  0  0  0  0  3  0  0  0  0  0  0
  -21.1650   -5.3960   24.4990 C   0  0  0  0  0  0  0  0  0  0  0  0
  -21.5480   -4.7970   23.2860 C   0  0  0  0  0  3  0  0  0  0  0  0
  -21.8080   -5.5970   22.1600 C   0  0  0  0  0  0  0  0  0  0  0  0
  -22.1580   -5.0150   20.9870 F   0  0  0  0  0  0  0  0  0  0  0  0
  -20.9120   -4.6210   25.5810 F   0  0  0  0  0  0  0  0  0  0  0  0
  -23.8340  -14.1890   21.1220 C   0  0  0  0  0  0  0  0  0  0  0  0
  -23.0460  -13.5560   21.9830 N   0  0  0  0  0  0  0  0  0  0  0  0
  -23.5170  -15.2830   20.6590 O   0  0  0  0  0  0  0  0  0  0  0  0
  -23.3080  -12.6620   22.3710 H   0  0  0  0  0  0  0  0  0  0  0  0
  -22.1670  -13.9720   22.2550 H   0  0  0  0  0  0  0  0  0  0  0  0
  -26.6480  -15.5350   20.3370 N   0  0  0  0  0  0  0  0  0  0  0  0
  -25.9800  -16.2780   20.5190 H   0  0  0  0  0  0  0  0  0  0  0  0
  -27.5580  -15.8810   20.0600 H   0  0  0  0  0  0  0  0  0  0  0  0
  2  1  1  0
  3  2  1  0
  3  4  1  0
  4  5  1  0
  5  6  1  0
  6  7  1  0
  7  8  1  0
  8  9  1  0
  9 10  1  0
 11 13  1  0
 11 10  1  0
 12 23  2  0
 13 18  1  0
 14 22  1  0
 14 24  1  0
 15 21  1  0
 15 17  1  0
 16 22  1  0
 17 16  1  0
 18 17  2  0
 19 20  1  0
 19 13  2  0
 20 15  2  0
 21 14  1  0
 22 12  1  0
 24 26  2  0
 25 24  1  0
 27 25  1  0
 28 37  2  0
 28 33  1  0
 29 25  1  0
 29 33  1  0
 30 29  1  0
 31 32  1  0
 31 30  1  0
 32 28  1  0
 33 34  2  0
 34 35  1  0
 36 35  2  0
 37 36  1  0
 38 12  1  0
 38 39  1  0
 38 48  1  0
 39 42  1  0
 40 44  1  0
 40 39  1  0
 41 40  2  0
 44 43  1  0
 46 44  1  0
 46 47  1  0
 46 45  1  0
 48 51  1  1
 48 49  1  0
 50 48  1  0
 52  1  1  0
 52 53  1  0
 53 55  1  0
 54 58  1  0
 55 57  1  0
 55 54  1  0
 56 54  2  0
 58 59  1  0
 59 60  1  0
 60 61  1  0
 61 62  1  0
 63 71  1  0
 64 69  1  0
 65 66  1  0
 65 64  1  0
 67 66  1  0
 67 76  1  0
 67 68  1  0
 69 63  1  0
 69 68  1  0
 70 63  2  0
 71 62  1  0
 71 72  1  0
 73 74  2  0
 74 93  1  0
 75 74  1  0
 75 78  1  0
 76 77  1  0
 76 73  1  0
 77 75  2  0
 78 79  1  0
 79 80  2  0
 81 84  1  0
 81 80  1  0
 82 81  2  0
 83 82  1  0
 83 78  2  0
 84 85  1  0
 85 86  1  0
 86 87  2  0
 88 87  1  0
 88 92  1  0
 89 88  2  0
 90 85  2  0
 90 89  1  0
 91 90  1  0
 93 94  1  0
 94 97  1  0
 94 96  1  0
 95 93  2  0
 98 73  1  0
 98 99  1  0
100 98  1  0
M  ISO  4  10 101  11 101  63 100  71 100
M  END
>  <TORSDO>  (47) 
F 33

>  <SCORE>  (47) 
-8.062

>  <name>  (47) 
46

>  <ligand_id>  (47) 
46

>  <original_smiles>  (47) 
[H]c1c([H])c([H])c2c(c1[H])C([H])([H])C([H])([H])C([H])([H])C2([H])N([H])C(=O)C1([H])N(C(=O)C([H])(N([H])C(=O)C([H])(N([H])C([H])([H])[H])C([H])([H])[H])C(C([H])([H])[H])(C([H])([H])[H])C([H])([H])[H])C([H])([H])c2c([H])c(OC([H])([H])C([H])([H])OC([H])([H])C([H])([H])OC([H])([H])C([H])([H])OC([H])([H])C([H])([H])C([H])([H])N([H])C(=O)C([H])([H])C([H])([H])C([H])([H])C([H])([H])C([H])([H])N([H])C(=O)N3C([H])([H])C([H])([H])C([H])([H])C([H])(n4nc(-c5c([H])c([H])c(Oc6c([H])c([H])c(F)c([H])c6F)c([H])c5[H])c(C(=O)N([H])[H])c4N([H])[H])C3([H])[H])c([H])c([H])c2C1([H])[H]

>  <smiles>  (47) 
[H]c1c([H])c([H])c2c(c1[H])C([H])([H])C([H])([H])C([H])([H])C2([H])N([H])C(=O)C1([H])N(C(=O)C([H])(N([H])C(=O)C([H])(N([H])C([H])([H])[H])C([H])([H])[H])C(C([H])([H])[H])(C([H])([H])[H])C([H])([H])[H])C([H])([H])c2c([H])c(OC([H])([H])C([H])([H])OC([H])([H])C([H])([H])OC([H])([H])C([H])([H])OC([H])([H])C([H])([H])C([H])([H])N([H])C(=O)C([H])([H])C([H])([H])C([H])([H])C([H])([H])C([H])([H])N([H])C(=O)N3C([H])([H])C([H])([H])C([H])([H])C([H])(n4nc(-c5c([H])c([H])c(Oc6c([H])c([H])c(F)c([H])c6F)c([H])c5[H])c(C(=O)N([H])[H])c4N([H])[H])C3([H])[H])c([H])c([H])c2C1([H])[H]

$$$$
47:0:0
     RDKit          3D

 93100  0  0  1  0  0  0  0  0999 V2000
  -30.2160  -21.4400   16.2240 C   0  0  0  0  0  2  0  0  0  0  0  0
  -29.5890  -22.8310   16.3960 C   0  0  0  0  0  2  0  0  0  0  0  0
  -30.5940  -23.7040   16.9050 O   0  0  0  0  0  0  0  0  0  0  0  0
  -30.1560  -25.0350   17.1590 C   0  0  0  0  0  2  0  0  0  0  0  0
  -29.4800  -25.1880   18.5360 C   0  0  0  0  0  2  0  0  0  0  0  0
  -28.9800  -26.6250   18.7430 C   0  0  0  0  0  2  0  0  0  0  0  0
  -28.4440  -26.7780   20.0560 O   0  0  0  0  0  0  0  0  0  0  0  0
  -24.6170  -31.8760   23.2210 C   0  0  0  0  0  0  0  0  0  0  0  0
  -27.2640  -27.4740   20.1040 C   0  0  0  0  0  0  0  0  0  0  0  0
  -23.4050  -30.4740   21.5800 C   0  0  0  0  0  3  0  0  0  0  0  0
  -24.8570  -28.9360   20.1510 C   0  0  0  0  0  0  0  0  0  0  0  0
  -25.9240  -30.8420   21.3700 C   0  0  0  0  0  2  0  0  0  0  0  0
  -26.0120  -29.4690   20.7420 C   0  0  0  0  0  0  0  0  0  0  0  0
  -27.2140  -28.7350   20.7350 C   0  0  0  0  0  3  0  0  0  0  0  0
  -26.0960  -26.9430   19.5210 C   0  0  0  0  0  3  0  0  0  0  0  0
  -24.8890  -27.6700   19.5440 C   0  0  0  0  0  3  0  0  0  0  0  0
  -23.6110  -29.7930   20.2000 C   0  0  0  0  0  2  0  0  0  0  0  0
  -24.6700  -31.0780   22.1180 N   0  0  0  0  0  0  0  0  0  0  0  0
  -23.5400  -32.1490   23.7660 O   0  0  0  0  0  0  0  0  0  0  0  0
  -22.7600  -29.4530   22.5400 C   0  0  0  0  0  0  0  0  0  0  0  0
  -21.4320  -29.2790   22.4200 N   0  0  0  0  0  0  0  0  0  0  0  0
  -23.4440  -28.8180   23.3460 O   0  0  0  0  0  0  0  0  0  0  0  0
  -20.9430  -29.8450   21.7400 H   0  0  0  0  0  0  0  0  0  0  0  0
  -18.0540  -28.1110   22.9250 C   0  0  0  0  0  0  0  0  0  0  0  0
  -20.6140  -28.3450   23.1890 C   0  0  0  0  0  3  0  0  0  0  0  0
  -20.7020  -26.9170   22.6020 C   0  0  0  0  0  2  0  0  0  0  0  0
  -19.5930  -26.6090   21.5900 C   0  0  0  0  0  2  0  0  0  0  0  0
  -18.2160  -26.7630   22.2420 C   0  0  0  0  0  2  0  0  0  0  0  0
  -19.1800  -28.8600   23.3530 C   0  0  0  0  0  0  0  0  0  0  0  0
  -18.9770  -30.1250   23.9490 C   0  0  0  0  0  3  0  0  0  0  0  0
  -17.6780  -30.6360   24.1260 C   0  0  0  0  0  3  0  0  0  0  0  0
  -16.5640  -29.8820   23.7120 C   0  0  0  0  0  3  0  0  0  0  0  0
  -16.7540  -28.6220   23.1160 C   0  0  0  0  0  3  0  0  0  0  0  0
  -25.9080  -32.5030   23.8360 C   0  0  0  0  0  3  0  0  0  0  0  0
  -26.4330  -31.7230   25.1020 C   0  0  1  0  0  0  0  0  0  0  0  0
  -25.3490  -31.4790   26.1760 C   0  0  0  0  0  1  0  0  0  0  0  0
  -27.0060  -30.3470   24.6870 C   0  0  0  0  0  1  0  0  0  0  0  0
  -27.5910  -32.5060   25.7620 C   0  0  0  0  0  1  0  0  0  0  0  0
  -25.6030  -33.9020   24.1740 N   0  0  0  0  0  0  0  0  0  0  0  0
  -25.9340  -34.9550   23.4160 C   0  0  0  0  0  0  0  0  0  0  0  0
  -26.6030  -34.8550   22.3820 O   0  0  0  0  0  0  0  0  0  0  0  0
  -25.0110  -34.0560   24.9760 H   0  0  0  0  0  0  0  0  0  0  0  0
  -24.2050  -36.7480   23.0710 C   0  0  0  0  0  1  0  0  0  0  0  0
  -25.4480  -36.3410   23.8800 C   0  0  0  0  0  3  0  0  0  0  0  0
  -27.5880  -37.2180   24.7040 C   0  0  0  0  0  1  0  0  0  0  0  0
  -26.4780  -37.3950   23.7700 N   0  0  0  0  0  0  0  0  0  0  0  0
  -26.0720  -38.3120   23.9320 H   0  0  0  0  0  0  0  0  0  0  0  0
  -30.4730  -20.8840   17.5100 O   0  0  0  0  0  0  0  0  0  0  0  0
  -31.3420  -19.7580   17.4430 C   0  0  0  0  0  2  0  0  0  0  0  0
  -31.4670  -19.1320   18.8430 C   0  0  0  0  0  2  0  0  0  0  0  0
  -30.1400  -18.6920   19.3370 N   0  0  0  0  0  4  0  0  0  0  0  0
  -29.9310  -19.1590   20.2040 H   0  0  0  0  0  0  0  0  0  0  0  0
  -29.4500  -19.0050   18.6730 H   0  0  0  0  0  0  0  0  0  0  0  0
  -29.9630  -17.2370   19.5230 C   0  0  0  0  0  2  0  0  0  0  0  0
  -30.2000  -16.8000   20.9880 C   0  0  0  0  0  2  0  0  0  0  0  0
  -30.6790  -14.4050   20.5840 C   0  0  0  0  0  0  0  0  0  0  0  0
  -30.3790  -12.3090   19.3380 C   0  0  0  0  0  2  0  0  0  0  0  0
  -29.4380  -12.5800   18.1450 C   0  0  0  0  0  2  0  0  0  0  0  0
  -27.9540  -12.4720   18.5540 C   0  0  0  0  0  2  0  0  0  0  0  0
  -27.6310  -13.2440   19.8610 C   0  0  0  0  0  3  0  0  0  0  0  0
  -28.6760  -12.9270   20.9570 C   0  0  0  0  0  2  0  0  0  0  0  0
  -30.0130  -13.2350   20.4170 N   0  0  0  0  0  0  0  0  0  0  0  0
  -31.7790  -14.6470   20.0830 O   0  0  0  0  0  0  0  0  0  0  0  0
  -29.9550  -15.3690   21.1610 N   0  0  0  0  0  0  0  0  0  0  0  0
  -29.0740  -15.0890   21.5720 H   0  0  0  0  0  0  0  0  0  0  0  0
  -25.2190  -13.8610   20.5150 C   0  0  0  0  0  0  0  0  0  0  0  0
  -24.1460  -13.0910   20.8830 C   0  0  0  0  0  0  0  0  0  0  0  0
  -24.6060  -11.7400   20.8700 C   0  0  0  0  0  0  0  0  0  0  0  0
  -26.2680  -12.9780   20.3170 N   0  0  0  0  0  0  0  0  0  0  0  0
  -25.9010  -11.6980   20.5810 N   0  0  0  0  0  0  0  0  0  0  0  0
  -23.8740  -10.4790   21.0590 C   0  0  0  0  0  0  0  0  0  0  0  0
  -24.3110   -9.5100   21.9910 C   0  0  0  0  0  3  0  0  0  0  0  0
  -23.5850   -8.3130   22.1700 C   0  0  0  0  0  3  0  0  0  0  0  0
  -22.4110   -8.0760   21.4180 C   0  0  0  0  0  0  0  0  0  0  0  0
  -21.9940   -9.0310   20.4760 C   0  0  0  0  0  3  0  0  0  0  0  0
  -22.7180  -10.2210   20.2920 C   0  0  0  0  0  3  0  0  0  0  0  0
  -21.6580   -6.9290   21.5080 O   0  0  0  0  0  0  0  0  0  0  0  0
  -21.6270   -6.1760   22.6550 C   0  0  0  0  0  0  0  0  0  0  0  0
  -21.2350   -6.7230   23.8960 C   0  0  0  0  0  3  0  0  0  0  0  0
  -21.1470   -5.8960   25.0340 C   0  0  0  0  0  3  0  0  0  0  0  0
  -21.4400   -4.5220   24.9330 C   0  0  0  0  0  0  0  0  0  0  0  0
  -21.8300   -3.9760   23.6960 C   0  0  0  0  0  3  0  0  0  0  0  0
  -21.9170   -4.8000   22.5610 C   0  0  0  0  0  0  0  0  0  0  0  0
  -22.2670   -4.2620   21.3670 F   0  0  0  0  0  0  0  0  0  0  0  0
  -21.3520   -3.7260   26.0230 F   0  0  0  0  0  0  0  0  0  0  0  0
  -22.7430  -13.5670   21.1340 C   0  0  0  0  0  0  0  0  0  0  0  0
  -22.0060  -12.8830   22.0000 N   0  0  0  0  0  0  0  0  0  0  0  0
  -22.3070  -14.5820   20.5900 O   0  0  0  0  0  0  0  0  0  0  0  0
  -22.3730  -12.0690   22.4720 H   0  0  0  0  0  0  0  0  0  0  0  0
  -21.0560  -13.1740   22.1900 H   0  0  0  0  0  0  0  0  0  0  0  0
  -25.3900  -15.2280   20.3200 N   0  0  0  0  0  0  0  0  0  0  0  0
  -24.6240  -15.8890   20.3770 H   0  0  0  0  0  0  0  0  0  0  0  0
  -26.2430  -15.6460   19.9670 H   0  0  0  0  0  0  0  0  0  0  0  0
  1  2  1  0
  1 48  1  0
  2  3  1  0
  3  4  1  0
  4  5  1  0
  5  6  1  0
  6  7  1  0
  7  9  1  0
  8 19  2  0
  9 14  1  0
 10 18  1  0
 10 20  1  0
 11 17  1  0
 11 13  1  0
 12 18  1  0
 13 12  1  0
 14 13  2  0
 15 16  1  0
 15  9  2  0
 16 11  2  0
 17 10  1  0
 18  8  1  0
 20 22  2  0
 21 20  1  0
 23 21  1  0
 24 33  2  0
 24 29  1  0
 25 21  1  0
 25 29  1  0
 26 25  1  0
 27 28  1  0
 27 26  1  0
 28 24  1  0
 29 30  2  0
 30 31  1  0
 32 31  2  0
 33 32  1  0
 34  8  1  0
 34 39  1  0
 34 35  1  0
 35 38  1  1
 35 36  1  0
 37 35  1  0
 39 42  1  0
 40 44  1  0
 40 39  1  0
 41 40  2  0
 44 43  1  0
 46 44  1  0
 46 47  1  0
 46 45  1  0
 49 48  1  0
 49 50  1  0
 50 51  1  0
 51 54  1  0
 51 52  1  0
 53 51  1  0
 54 55  1  0
 55 64  1  0
 56 64  1  0
 57 62  1  0
 58 59  1  0
 58 57  1  0
 60 59  1  0
 60 69  1  0
 60 61  1  0
 62 56  1  0
 62 61  1  0
 63 56  2  0
 64 65  1  0
 66 67  2  0
 67 86  1  0
 68 67  1  0
 68 71  1  0
 69 66  1  0
 69 70  1  0
 70 68  2  0
 71 72  1  0
 72 73  2  0
 74 77  1  0
 74 73  1  0
 75 74  2  0
 76 75  1  0
 76 71  2  0
 77 78  1  0
 78 79  1  0
 79 80  2  0
 81 80  1  0
 81 85  1  0
 82 81  2  0
 83 78  2  0
 83 82  1  0
 84 83  1  0
 86 87  1  0
 87 90  1  0
 87 89  1  0
 88 86  2  0
 91 92  1  0
 91 66  1  0
 93 91  1  0
M  ISO  4   6 101   7 101  56 100  64 100
M  END
>  <TORSDO>  (48) 
F 27

>  <SCORE>  (48) 
-11.410

>  <name>  (48) 
47

>  <ligand_id>  (48) 
47

>  <original_smiles>  (48) 
[H]c1c([H])c([H])c2c(c1[H])C([H])([H])C([H])([H])C([H])([H])C2([H])N([H])C(=O)C1([H])N(C(=O)C([H])(N([H])C(=O)C([H])(N([H])C([H])([H])[H])C([H])([H])[H])C(C([H])([H])[H])(C([H])([H])[H])C([H])([H])[H])C([H])([H])c2c([H])c(OC([H])([H])C([H])([H])C([H])([H])OC([H])([H])C([H])([H])OC([H])([H])C([H])([H])[N+]([H])([H])C([H])([H])C([H])([H])N([H])C(=O)N3C([H])([H])C([H])([H])C([H])([H])C([H])(n4nc(-c5c([H])c([H])c(Oc6c([H])c([H])c(F)c([H])c6F)c([H])c5[H])c(C(=O)N([H])[H])c4N([H])[H])C3([H])[H])c([H])c([H])c2C1([H])[H]

>  <smiles>  (48) 
[H]c1c([H])c([H])c2c(c1[H])C([H])([H])C([H])([H])C([H])([H])C2([H])N([H])C(=O)C1([H])N(C(=O)C([H])(N([H])C(=O)C([H])(N([H])C([H])([H])[H])C([H])([H])[H])C(C([H])([H])[H])(C([H])([H])[H])C([H])([H])[H])C([H])([H])c2c([H])c(OC([H])([H])C([H])([H])C([H])([H])OC([H])([H])C([H])([H])OC([H])([H])C([H])([H])[N+]([H])([H])C([H])([H])C([H])([H])N([H])C(=O)N3C([H])([H])C([H])([H])C([H])([H])C([H])(n4nc(-c5c([H])c([H])c(Oc6c([H])c([H])c(F)c([H])c6F)c([H])c5[H])c(C(=O)N([H])[H])c4N([H])[H])C3([H])[H])c([H])c([H])c2C1([H])[H]

$$$$
48:0:0
     RDKit          3D

102109  0  0  1  0  0  0  0  0999 V2000
  -28.7930  -19.3430   17.6420 C   0  0  0  0  0  0  0  0  0  0  0  0
  -27.5860  -19.5290   17.0990 N   0  0  0  0  0  0  0  0  0  0  0  0
  -29.3930  -20.2290   18.2580 O   0  0  0  0  0  0  0  0  0  0  0  0
  -27.1710  -18.7430   16.6160 H   0  0  0  0  0  0  0  0  0  0  0  0
  -29.4480  -17.9630   17.4220 C   0  0  0  0  0  3  0  0  0  0  0  0
  -29.6740  -17.0500   19.7200 C   0  0  0  0  0  0  0  0  0  0  0  0
  -30.2010  -17.5410   18.5980 N   0  0  0  0  0  0  0  0  0  0  0  0
  -28.4640  -16.8430   19.8300 O   0  0  0  0  0  0  0  0  0  0  0  0
  -31.2010  -17.6800   18.5470 H   0  0  0  0  0  0  0  0  0  0  0  0
  -30.0450  -17.2030   22.2000 C   0  0  0  0  0  1  0  0  0  0  0  0
  -32.0550  -17.2470   20.7180 C   0  0  0  0  0  1  0  0  0  0  0  0
  -30.6300  -16.6610   20.8760 C   0  0  2  0  0  0  0  0  0  0  0  0
  -31.2050  -14.2890   20.1720 C   0  0  0  0  0  0  0  0  0  0  0  0
  -30.7720  -12.1920   18.9470 C   0  0  0  0  0  2  0  0  0  0  0  0
  -29.8150  -12.4890   17.7730 C   0  0  0  0  0  2  0  0  0  0  0  0
  -28.3450  -12.4290   18.2320 C   0  0  0  0  0  2  0  0  0  0  0  0
  -28.0920  -13.2600   19.5180 C   0  0  0  0  0  3  0  0  0  0  0  0
  -29.1440  -12.9110   20.5950 C   0  0  0  0  0  2  0  0  0  0  0  0
  -30.4840  -13.1480   20.0240 N   0  0  0  0  0  0  0  0  0  0  0  0
  -32.2520  -14.5120   19.5560 O   0  0  0  0  0  0  0  0  0  0  0  0
  -30.6190  -15.1960   20.9690 N   0  0  0  0  0  0  0  0  0  0  0  0
  -29.8050  -14.8300   21.4380 H   0  0  0  0  0  0  0  0  0  0  0  0
  -25.7420  -14.0240   20.2470 C   0  0  0  0  0  0  0  0  0  0  0  0
  -24.6370  -13.3180   20.6450 C   0  0  0  0  0  0  0  0  0  0  0  0
  -25.0190  -11.9410   20.6260 C   0  0  0  0  0  0  0  0  0  0  0  0
  -26.7300  -13.0790   20.0150 N   0  0  0  0  0  0  0  0  0  0  0  0
  -26.2980  -11.8230   20.2960 N   0  0  0  0  0  0  0  0  0  0  0  0
  -24.2280  -10.7240   20.8470 C   0  0  0  0  0  0  0  0  0  0  0  0
  -24.6170   -9.7540   21.7960 C   0  0  0  0  0  3  0  0  0  0  0  0
  -23.8310   -8.6010   22.0040 C   0  0  0  0  0  3  0  0  0  0  0  0
  -22.6410   -8.4110   21.2640 C   0  0  0  0  0  0  0  0  0  0  0  0
  -22.2700   -9.3670   20.3020 C   0  0  0  0  0  3  0  0  0  0  0  0
  -23.0570  -10.5120   20.0930 C   0  0  0  0  0  3  0  0  0  0  0  0
  -21.8300   -7.3080   21.3800 O   0  0  0  0  0  0  0  0  0  0  0  0
  -21.7340   -6.6040   22.5540 C   0  0  0  0  0  0  0  0  0  0  0  0
  -21.3400   -7.2190   23.7620 C   0  0  0  0  0  3  0  0  0  0  0  0
  -21.1880   -6.4450   24.9290 C   0  0  0  0  0  3  0  0  0  0  0  0
  -21.4210   -5.0560   24.8890 C   0  0  0  0  0  0  0  0  0  0  0  0
  -21.8060   -4.4420   23.6850 C   0  0  0  0  0  3  0  0  0  0  0  0
  -21.9590   -5.2140   22.5200 C   0  0  0  0  0  0  0  0  0  0  0  0
  -22.3110   -4.6120   21.3590 F   0  0  0  0  0  0  0  0  0  0  0  0
  -21.2660   -4.3110   26.0090 F   0  0  0  0  0  0  0  0  0  0  0  0
  -23.2730  -13.8760   20.9370 C   0  0  0  0  0  0  0  0  0  0  0  0
  -22.5300  -13.2380   21.8340 N   0  0  0  0  0  0  0  0  0  0  0  0
  -22.8760  -14.9100   20.4020 O   0  0  0  0  0  0  0  0  0  0  0  0
  -22.8640  -12.4010   22.2890 H   0  0  0  0  0  0  0  0  0  0  0  0
  -21.6140  -13.5910   22.0710 H   0  0  0  0  0  0  0  0  0  0  0  0
  -25.9850  -15.3810   20.0490 N   0  0  0  0  0  0  0  0  0  0  0  0
  -25.2630  -16.0830   20.1690 H   0  0  0  0  0  0  0  0  0  0  0  0
  -26.8780  -15.7830   19.7680 H   0  0  0  0  0  0  0  0  0  0  0  0
  -30.4560  -18.0250   16.2500 C   0  0  0  0  0  2  0  0  0  0  0  0
  -31.6430  -18.7380   16.5910 O   0  0  0  0  0  0  0  0  0  0  0  0
  -31.3840  -19.6120   16.8700 H   0  0  0  0  0  0  0  0  0  0  0  0
  -26.8160  -20.7700   17.1150 C   0  0  0  0  0  2  0  0  0  0  0  0
  -25.9010  -20.8680   18.3480 C   0  0  0  0  0  2  0  0  0  0  0  0
  -26.6100  -21.1340   19.5560 O   0  0  0  0  0  0  0  0  0  0  0  0
  -27.0140  -22.4900   19.7060 C   0  0  0  0  0  2  0  0  0  0  0  0
  -27.4470  -22.7300   21.1600 C   0  0  0  0  0  2  0  0  0  0  0  0
  -27.6030  -24.1220   21.4240 O   0  0  0  0  0  0  0  0  0  0  0  0
  -28.9240  -24.6110   21.2150 C   0  0  0  0  0  2  0  0  0  0  0  0
  -28.9420  -26.1380   21.4020 C   0  0  0  0  0  2  0  0  0  0  0  0
  -28.5800  -26.7730   20.1810 O   0  0  0  0  0  0  0  0  0  0  0  0
  -24.5870  -31.8680   23.1750 C   0  0  0  0  0  0  0  0  0  0  0  0
  -27.3980  -27.4650   20.2150 C   0  0  0  0  0  0  0  0  0  0  0  0
  -23.4510  -30.4210   21.5190 C   0  0  0  0  0  3  0  0  0  0  0  0
  -24.9720  -28.8940   20.1550 C   0  0  0  0  0  0  0  0  0  0  0  0
  -25.9680  -30.8360   21.3760 C   0  0  0  0  0  2  0  0  0  0  0  0
  -26.0990  -29.4560   20.7710 C   0  0  0  0  0  0  0  0  0  0  0  0
  -27.3170  -28.7430   20.8070 C   0  0  0  0  0  3  0  0  0  0  0  0
  -26.2640  -26.9100   19.5960 C   0  0  0  0  0  3  0  0  0  0  0  0
  -25.0470  -27.6170   19.5700 C   0  0  0  0  0  3  0  0  0  0  0  0
  -23.7090  -29.7250   20.1550 C   0  0  0  0  0  2  0  0  0  0  0  0
  -24.6850  -31.0570   22.0840 N   0  0  0  0  0  0  0  0  0  0  0  0
  -23.4880  -32.1250   23.6840 O   0  0  0  0  0  0  0  0  0  0  0  0
  -22.7950  -29.4010   22.4760 C   0  0  0  0  0  0  0  0  0  0  0  0
  -21.4750  -29.2010   22.3250 N   0  0  0  0  0  0  0  0  0  0  0  0
  -23.4700  -28.7890   23.3090 O   0  0  0  0  0  0  0  0  0  0  0  0
  -20.9940  -29.7480   21.6240 H   0  0  0  0  0  0  0  0  0  0  0  0
  -18.1050  -27.9750   22.7560 C   0  0  0  0  0  0  0  0  0  0  0  0
  -20.6530  -28.2610   23.0840 C   0  0  0  0  0  3  0  0  0  0  0  0
  -20.7850  -26.8280   22.5210 C   0  0  0  0  0  2  0  0  0  0  0  0
  -19.7090  -26.4860   21.4870 C   0  0  0  0  0  2  0  0  0  0  0  0
  -18.3110  -26.6220   22.0980 C   0  0  0  0  0  2  0  0  0  0  0  0
  -19.2060  -28.7510   23.2060 C   0  0  0  0  0  0  0  0  0  0  0  0
  -18.9620  -30.0180   23.7820 C   0  0  0  0  0  3  0  0  0  0  0  0
  -17.6500  -30.5080   23.9120 C   0  0  0  0  0  3  0  0  0  0  0  0
  -16.5620  -29.7270   23.4820 C   0  0  0  0  0  3  0  0  0  0  0  0
  -16.7910  -28.4630   22.9100 C   0  0  0  0  0  3  0  0  0  0  0  0
  -25.8460  -32.5300   23.8190 C   0  0  0  0  0  3  0  0  0  0  0  0
  -25.4930  -33.9150   24.1580 N   0  0  0  0  0  0  0  0  0  0  0  0
  -25.8070  -34.9820   23.4130 C   0  0  0  0  0  0  0  0  0  0  0  0
  -26.4940  -34.9070   22.3920 O   0  0  0  0  0  0  0  0  0  0  0  0
  -24.8840  -34.0450   24.9530 H   0  0  0  0  0  0  0  0  0  0  0  0
  -24.0290  -36.7230   23.0510 C   0  0  0  0  0  1  0  0  0  0  0  0
  -25.2730  -36.3520   23.8740 C   0  0  0  0  0  3  0  0  0  0  0  0
  -27.3700  -37.2920   24.7350 C   0  0  0  0  0  1  0  0  0  0  0  0
  -26.2730  -37.4350   23.7800 N   0  0  0  0  0  0  0  0  0  0  0  0
  -25.8400  -38.3410   23.9320 H   0  0  0  0  0  0  0  0  0  0  0  0
  -26.3690  -31.7590   25.0920 C   0  0  1  0  0  0  0  0  0  0  0  0
  -25.2710  -31.4750   26.1430 C   0  0  0  0  0  1  0  0  0  0  0  0
  -26.9950  -30.4060   24.6830 C   0  0  0  0  0  1  0  0  0  0  0  0
  -27.4900  -32.5760   25.7780 C   0  0  0  0  0  1  0  0  0  0  0  0
  1  3  2  0
  2 54  1  0
  2  1  1  0
  4  2  1  0
  5 51  1  0
  5  1  1  0
  5  7  1  0
  6  8  2  0
  6 12  1  0
  7  6  1  0
  9  7  1  0
 12 11  1  6
 12 21  1  0
 12 10  1  0
 13 21  1  0
 14 19  1  0
 15 16  1  0
 15 14  1  0
 17 16  1  0
 17 26  1  0
 17 18  1  0
 19 13  1  0
 19 18  1  0
 20 13  2  0
 21 22  1  0
 23 24  2  0
 24 43  1  0
 25 24  1  0
 25 28  1  0
 26 23  1  0
 26 27  1  0
 27 25  2  0
 28 29  1  0
 29 30  2  0
 31 34  1  0
 31 30  1  0
 32 31  2  0
 33 32  1  0
 33 28  2  0
 34 35  1  0
 35 36  1  0
 36 37  2  0
 38 37  1  0
 38 42  1  0
 39 38  2  0
 40 35  2  0
 40 39  1  0
 41 40  1  0
 43 44  1  0
 44 47  1  0
 44 46  1  0
 45 43  2  0
 48 49  1  0
 48 23  1  0
 50 48  1  0
 51 52  1  0
 52 53  1  0
 54 55  1  0
 55 56  1  0
 56 57  1  0
 57 58  1  0
 58 59  1  0
 60 61  1  0
 60 59  1  0
 62 64  1  0
 62 61  1  0
 63 74  2  0
 64 69  1  0
 65 73  1  0
 65 75  1  0
 66 68  1  0
 67 73  1  0
 68 69  2  0
 68 67  1  0
 70 64  2  0
 71 70  1  0
 71 66  2  0
 72 66  1  0
 72 65  1  0
 73 63  1  0
 75 77  2  0
 76 75  1  0
 78 76  1  0
 79 88  2  0
 79 84  1  0
 80 76  1  0
 80 84  1  0
 81 80  1  0
 82 83  1  0
 82 81  1  0
 83 79  1  0
 84 85  2  0
 85 86  1  0
 87 86  2  0
 88 87  1  0
 89 63  1  0
 89 90  1  0
 89 99  1  0
 90 93  1  0
 91 95  1  0
 91 90  1  0
 92 91  2  0
 95 94  1  0
 97 95  1  0
 97 98  1  0
 97 96  1  0
 99102  1  1
 99100  1  0
101 99  1  0
M  ISO  4  13 100  21 100  61 101  62 101
M  END
>  <TORSDO>  (49) 
F 29

>  <SCORE>  (49) 
-10.630

>  <name>  (49) 
48

>  <ligand_id>  (49) 
48

>  <original_smiles>  (49) 
[H]OC([H])([H])C([H])(C(=O)N([H])C([H])([H])C([H])([H])OC([H])([H])C([H])([H])OC([H])([H])C([H])([H])Oc1c([H])c([H])c2c(c1[H])C([H])([H])N(C(=O)C([H])(N([H])C(=O)C([H])(N([H])C([H])([H])[H])C([H])([H])[H])C(C([H])([H])[H])(C([H])([H])[H])C([H])([H])[H])C([H])(C(=O)N([H])C1([H])c3c([H])c([H])c([H])c([H])c3C([H])([H])C([H])([H])C1([H])[H])C2([H])[H])N([H])C(=O)C(N([H])C(=O)N1C([H])([H])C([H])([H])C([H])([H])C([H])(n2nc(-c3c([H])c([H])c(Oc4c([H])c([H])c(F)c([H])c4F)c([H])c3[H])c(C(=O)N([H])[H])c2N([H])[H])C1([H])[H])(C([H])([H])[H])C([H])([H])[H]

>  <smiles>  (49) 
[H]OC([H])([H])C([H])(C(=O)N([H])C([H])([H])C([H])([H])OC([H])([H])C([H])([H])OC([H])([H])C([H])([H])Oc1c([H])c([H])c2c(c1[H])C([H])([H])N(C(=O)C([H])(N([H])C(=O)C([H])(N([H])C([H])([H])[H])C([H])([H])[H])C(C([H])([H])[H])(C([H])([H])[H])C([H])([H])[H])C([H])(C(=O)N([H])C1([H])c3c([H])c([H])c([H])c([H])c3C([H])([H])C([H])([H])C1([H])[H])C2([H])[H])N([H])C(=O)C(N([H])C(=O)N1C([H])([H])C([H])([H])C([H])([H])C([H])(n2nc(-c3c([H])c([H])c(Oc4c([H])c([H])c(F)c([H])c4F)c([H])c3[H])c(C(=O)N([H])[H])c2N([H])[H])C1([H])[H])(C([H])([H])[H])C([H])([H])[H]

$$$$
49:0:0
     RDKit          3D

102109  0  0  1  0  0  0  0  0999 V2000
  -23.9300  -19.1210   21.5880 C   0  0  0  0  0  2  0  0  0  0  0  0
  -24.8070  -20.0990   20.9090 N   0  0  0  0  0  4  0  0  0  0  0  0
  -25.1910  -19.6170   20.1100 H   0  0  0  0  0  0  0  0  0  0  0  0
  -24.2390  -20.8560   20.5610 H   0  0  0  0  0  0  0  0  0  0  0  0
  -25.9130  -20.6470   21.7190 C   0  0  0  0  0  2  0  0  0  0  0  0
  -26.7550  -21.6360   20.8950 C   0  0  0  0  0  2  0  0  0  0  0  0
  -27.8750  -22.3000   21.7100 C   0  0  0  0  0  2  0  0  0  0  0  0
  -28.5230  -23.2740   20.9070 O   0  0  0  0  0  0  0  0  0  0  0  0
  -27.9200  -24.5630   20.9630 C   0  0  0  0  0  2  0  0  0  0  0  0
  -28.4610  -25.3930   19.7890 C   0  0  0  0  0  2  0  0  0  0  0  0
  -28.4360  -26.7900   20.0730 O   0  0  0  0  0  0  0  0  0  0  0  0
  -24.6140  -31.8690   23.2120 C   0  0  0  0  0  0  0  0  0  0  0  0
  -27.2330  -27.4600   20.0780 C   0  0  0  0  0  0  0  0  0  0  0  0
  -23.3980  -30.4950   21.5530 C   0  0  0  0  0  3  0  0  0  0  0  0
  -24.8390  -28.9620   20.1180 C   0  0  0  0  0  0  0  0  0  0  0  0
  -25.9270  -30.8390   21.3630 C   0  0  0  0  0  2  0  0  0  0  0  0
  -26.0000  -29.4780   20.7050 C   0  0  0  0  0  0  0  0  0  0  0  0
  -27.1980  -28.7360   20.6770 C   0  0  0  0  0  3  0  0  0  0  0  0
  -26.0470  -26.9460   19.4990 C   0  0  0  0  0  3  0  0  0  0  0  0
  -24.8560  -27.6930   19.5160 C   0  0  0  0  0  3  0  0  0  0  0  0
  -23.6040  -29.8280   20.1670 C   0  0  0  0  0  2  0  0  0  0  0  0
  -24.6650  -31.0820   22.1010 N   0  0  0  0  0  0  0  0  0  0  0  0
  -23.5350  -32.1420   23.7540 O   0  0  0  0  0  0  0  0  0  0  0  0
  -22.7390  -29.4670   22.5000 C   0  0  0  0  0  0  0  0  0  0  0  0
  -21.4120  -29.3030   22.3730 N   0  0  0  0  0  0  0  0  0  0  0  0
  -23.4180  -28.8200   23.3030 O   0  0  0  0  0  0  0  0  0  0  0  0
  -20.9270  -29.8770   21.6980 H   0  0  0  0  0  0  0  0  0  0  0  0
  -18.0260  -28.1370   22.8480 C   0  0  0  0  0  0  0  0  0  0  0  0
  -20.5860  -28.3660   23.1310 C   0  0  0  0  0  3  0  0  0  0  0  0
  -20.6750  -26.9390   22.5420 C   0  0  0  0  0  2  0  0  0  0  0  0
  -19.5730  -26.6380   21.5200 C   0  0  0  0  0  2  0  0  0  0  0  0
  -18.1910  -26.7920   22.1610 C   0  0  0  0  0  2  0  0  0  0  0  0
  -19.1520  -28.8830   23.2900 C   0  0  0  0  0  0  0  0  0  0  0  0
  -18.9450  -30.1430   23.8910 C   0  0  0  0  0  3  0  0  0  0  0  0
  -17.6450  -30.6580   24.0560 C   0  0  0  0  0  3  0  0  0  0  0  0
  -16.5340  -29.9080   23.6340 C   0  0  0  0  0  3  0  0  0  0  0  0
  -16.7250  -28.6500   23.0350 C   0  0  0  0  0  3  0  0  0  0  0  0
  -25.9060  -32.4810   23.8390 C   0  0  0  0  0  3  0  0  0  0  0  0
  -25.5920  -33.8610   24.2340 N   0  0  0  0  0  0  0  0  0  0  0  0
  -25.9040  -34.9470   23.5130 C   0  0  0  0  0  0  0  0  0  0  0  0
  -26.5590  -34.8930   22.4680 O   0  0  0  0  0  0  0  0  0  0  0  0
  -25.0110  -33.9760   25.0510 H   0  0  0  0  0  0  0  0  0  0  0  0
  -24.1480  -36.7290   23.2630 C   0  0  0  0  0  1  0  0  0  0  0  0
  -25.4100  -36.3090   24.0340 C   0  0  0  0  0  3  0  0  0  0  0  0
  -27.5580  -37.1780   24.8460 C   0  0  0  0  0  1  0  0  0  0  0  0
  -26.4270  -37.3790   23.9440 N   0  0  0  0  0  0  0  0  0  0  0  0
  -26.0150  -38.2850   24.1500 H   0  0  0  0  0  0  0  0  0  0  0  0
  -26.4500  -31.6580   25.0720 C   0  0  1  0  0  0  0  0  0  0  0  0
  -25.3770  -31.3700   26.1480 C   0  0  0  0  0  1  0  0  0  0  0  0
  -27.0320  -30.3010   24.6110 C   0  0  0  0  0  1  0  0  0  0  0  0
  -27.6070  -32.4310   25.7490 C   0  0  0  0  0  1  0  0  0  0  0  0
  -22.9960  -18.4900   20.5510 C   0  0  0  0  0  2  0  0  0  0  0  0
  -23.8490  -17.9840   19.5300 O   0  0  0  0  0  0  0  0  0  0  0  0
  -23.1550  -17.5470   18.3710 C   0  0  0  0  0  2  0  0  0  0  0  0
  -24.1770  -16.9870   17.3720 C   0  0  0  0  0  2  0  0  0  0  0  0
  -25.0890  -18.0630   16.7710 C   0  0  0  0  0  2  0  0  0  0  0  0
  -26.1320  -17.4080   16.0690 O   0  0  0  0  0  0  0  0  0  0  0  0
  -27.1580  -18.2950   15.6490 C   0  0  0  0  0  2  0  0  0  0  0  0
  -28.4120  -17.4770   15.3180 C   0  0  0  0  0  2  0  0  0  0  0  0
  -28.9110  -16.6490   16.5120 C   0  0  0  0  0  2  0  0  0  0  0  0
  -29.2860  -17.5060   17.5900 O   0  0  0  0  0  0  0  0  0  0  0  0
  -29.1450  -16.8830   18.8600 C   0  0  0  0  0  2  0  0  0  0  0  0
  -30.2230  -17.3920   19.8360 C   0  0  0  0  0  2  0  0  0  0  0  0
  -30.1670  -16.7690   21.2550 C   0  0  0  0  0  2  0  0  0  0  0  0
  -30.7100  -14.3850   20.6370 C   0  0  0  0  0  0  0  0  0  0  0  0
  -30.4190  -12.2790   19.3960 C   0  0  0  0  0  2  0  0  0  0  0  0
  -29.4980  -12.5690   18.1940 C   0  0  0  0  0  2  0  0  0  0  0  0
  -28.0080  -12.4610   18.5830 C   0  0  0  0  0  2  0  0  0  0  0  0
  -27.6700  -13.2140   19.8990 C   0  0  0  0  0  3  0  0  0  0  0  0
  -28.7100  -12.8990   21.0000 C   0  0  0  0  0  2  0  0  0  0  0  0
  -30.0500  -13.2120   20.4670 N   0  0  0  0  0  0  0  0  0  0  0  0
  -31.8010  -14.6430   20.1200 O   0  0  0  0  0  0  0  0  0  0  0  0
  -29.9870  -15.3150   21.2750 N   0  0  0  0  0  0  0  0  0  0  0  0
  -29.1320  -14.9730   21.6910 H   0  0  0  0  0  0  0  0  0  0  0  0
  -25.2590  -13.8190   20.5750 C   0  0  0  0  0  0  0  0  0  0  0  0
  -24.1820  -13.0430   20.9120 C   0  0  0  0  0  0  0  0  0  0  0  0
  -24.6380  -11.6910   20.8680 C   0  0  0  0  0  0  0  0  0  0  0  0
  -26.3050  -12.9360   20.3460 N   0  0  0  0  0  0  0  0  0  0  0  0
  -25.9310  -11.6500   20.5730 N   0  0  0  0  0  0  0  0  0  0  0  0
  -23.9040  -10.4300   21.0350 C   0  0  0  0  0  0  0  0  0  0  0  0
  -24.3610   -9.4230   21.9150 C   0  0  0  0  0  3  0  0  0  0  0  0
  -23.6300   -8.2260   22.0740 C   0  0  0  0  0  3  0  0  0  0  0  0
  -22.4280   -8.0280   21.3540 C   0  0  0  0  0  0  0  0  0  0  0  0
  -21.9890   -9.0240   20.4650 C   0  0  0  0  0  3  0  0  0  0  0  0
  -22.7200  -10.2130   20.3030 C   0  0  0  0  0  3  0  0  0  0  0  0
  -21.6650   -6.8890   21.4240 O   0  0  0  0  0  0  0  0  0  0  0  0
  -21.6850   -6.0760   22.5280 C   0  0  0  0  0  0  0  0  0  0  0  0
  -21.4010   -6.5660   23.8210 C   0  0  0  0  0  3  0  0  0  0  0  0
  -21.3660   -5.6810   24.9170 C   0  0  0  0  0  3  0  0  0  0  0  0
  -21.6040   -4.3070   24.7230 C   0  0  0  0  0  0  0  0  0  0  0  0
  -21.8800   -3.8170   23.4340 C   0  0  0  0  0  3  0  0  0  0  0  0
  -21.9170   -4.6990   22.3400 C   0  0  0  0  0  0  0  0  0  0  0  0
  -22.1640   -4.2180   21.0980 F   0  0  0  0  0  0  0  0  0  0  0  0
  -21.5640   -3.4540   25.7750 F   0  0  0  0  0  0  0  0  0  0  0  0
  -22.7840  -13.5260   21.1740 C   0  0  0  0  0  0  0  0  0  0  0  0
  -22.0450  -12.8230   22.0250 N   0  0  0  0  0  0  0  0  0  0  0  0
  -22.3590  -14.5600   20.6610 O   0  0  0  0  0  0  0  0  0  0  0  0
  -22.3990  -11.9770   22.4490 H   0  0  0  0  0  0  0  0  0  0  0  0
  -21.1050  -13.1240   22.2420 H   0  0  0  0  0  0  0  0  0  0  0  0
  -25.4290  -15.1900   20.4350 N   0  0  0  0  0  0  0  0  0  0  0  0
  -24.6480  -15.8350   20.4940 H   0  0  0  0  0  0  0  0  0  0  0  0
  -26.2990  -15.6440   20.1950 H   0  0  0  0  0  0  0  0  0  0  0  0
  2  1  1  0
  2  5  1  0
  3  2  1  0
  4  2  1  0
  6  7  1  0
  6  5  1  0
  8  9  1  0
  8  7  1  0
 10 11  1  0
 10  9  1  0
 11 13  1  0
 12 23  2  0
 13 18  1  0
 14 22  1  0
 14 24  1  0
 15 21  1  0
 15 17  1  0
 16 22  1  0
 17 16  1  0
 18 17  2  0
 19 20  1  0
 19 13  2  0
 20 15  2  0
 21 14  1  0
 22 12  1  0
 24 26  2  0
 25 24  1  0
 27 25  1  0
 28 37  2  0
 28 33  1  0
 29 25  1  0
 29 33  1  0
 30 29  1  0
 31 32  1  0
 31 30  1  0
 32 28  1  0
 33 34  2  0
 34 35  1  0
 36 35  2  0
 37 36  1  0
 38 12  1  0
 38 39  1  0
 38 48  1  0
 39 42  1  0
 40 44  1  0
 40 39  1  0
 41 40  2  0
 44 43  1  0
 46 44  1  0
 46 47  1  0
 46 45  1  0
 48 51  1  1
 48 49  1  0
 50 48  1  0
 52  1  1  0
 53 52  1  0
 54 53  1  0
 55 54  1  0
 56 55  1  0
 57 56  1  0
 58 57  1  0
 59 58  1  0
 59 60  1  0
 60 61  1  0
 61 62  1  0
 62 63  1  0
 63 64  1  0
 64 73  1  0
 65 73  1  0
 66 71  1  0
 67 68  1  0
 67 66  1  0
 69 68  1  0
 69 78  1  0
 69 70  1  0
 71 65  1  0
 71 70  1  0
 72 65  2  0
 73 74  1  0
 75 76  2  0
 76 95  1  0
 77 76  1  0
 77 80  1  0
 78 79  1  0
 78 75  1  0
 79 77  2  0
 80 81  1  0
 81 82  2  0
 83 86  1  0
 83 82  1  0
 84 83  2  0
 85 84  1  0
 85 80  2  0
 86 87  1  0
 87 88  1  0
 88 89  2  0
 90 89  1  0
 90 94  1  0
 91 90  2  0
 92 87  2  0
 92 91  1  0
 93 92  1  0
 95 96  1  0
 96 99  1  0
 96 98  1  0
 97 95  2  0
100101  1  0
100 75  1  0
102100  1  0
M  ISO  4  10 101  11 101  65 100  73 100
M  END
>  <TORSDO>  (50) 
F 36

>  <SCORE>  (50) 
28.293

>  <name>  (50) 
49

>  <ligand_id>  (50) 
49

>  <original_smiles>  (50) 
[H]c1c([H])c([H])c2c(c1[H])C([H])([H])C([H])([H])C([H])([H])C2([H])N([H])C(=O)C1([H])N(C(=O)C([H])(N([H])C(=O)C([H])(N([H])C([H])([H])[H])C([H])([H])[H])C(C([H])([H])[H])(C([H])([H])[H])C([H])([H])[H])C([H])([H])c2c([H])c(OC([H])([H])C([H])([H])OC([H])([H])C([H])([H])C([H])([H])[N+]([H])([H])C([H])([H])C([H])([H])OC([H])([H])C([H])([H])C([H])([H])OC([H])([H])C([H])([H])C([H])([H])OC([H])([H])C([H])([H])C([H])([H])N([H])C(=O)N3C([H])([H])C([H])([H])C([H])([H])C([H])(n4nc(-c5c([H])c([H])c(Oc6c([H])c([H])c(F)c([H])c6F)c([H])c5[H])c(C(=O)N([H])[H])c4N([H])[H])C3([H])[H])c([H])c([H])c2C1([H])[H]

>  <smiles>  (50) 
[H]c1c([H])c([H])c2c(c1[H])C([H])([H])C([H])([H])C([H])([H])C2([H])N([H])C(=O)C1([H])N(C(=O)C([H])(N([H])C(=O)C([H])(N([H])C([H])([H])[H])C([H])([H])[H])C(C([H])([H])[H])(C([H])([H])[H])C([H])([H])[H])C([H])([H])c2c([H])c(OC([H])([H])C([H])([H])OC([H])([H])C([H])([H])C([H])([H])[N+]([H])([H])C([H])([H])C([H])([H])OC([H])([H])C([H])([H])C([H])([H])OC([H])([H])C([H])([H])C([H])([H])OC([H])([H])C([H])([H])C([H])([H])N([H])C(=O)N3C([H])([H])C([H])([H])C([H])([H])C([H])(n4nc(-c5c([H])c([H])c(Oc6c([H])c([H])c(F)c([H])c6F)c([H])c5[H])c(C(=O)N([H])[H])c4N([H])[H])C3([H])[H])c([H])c([H])c2C1([H])[H]

$$$$
50:0:0
     RDKit          3D

100107  0  0  1  0  0  0  0  0999 V2000
  -26.1880  -24.5100   15.4870 C   0  0  0  0  0  2  0  0  0  0  0  0
  -25.8540  -23.6500   16.7110 C   0  0  0  0  0  2  0  0  0  0  0  0
  -27.0100  -22.8890   17.0310 O   0  0  0  0  0  0  0  0  0  0  0  0
  -26.8290  -22.0270   18.1430 C   0  0  0  0  0  2  0  0  0  0  0  0
  -28.1780  -21.3650   18.4570 C   0  0  0  0  0  2  0  0  0  0  0  0
  -28.0740  -20.2710   19.5370 C   0  0  0  0  0  2  0  0  0  0  0  0
  -29.3920  -19.6710   19.8440 N   0  0  0  0  0  4  0  0  0  0  0  0
  -29.8110  -19.3460   18.9870 H   0  0  0  0  0  0  0  0  0  0  0  0
  -29.9850  -20.3930   20.2210 H   0  0  0  0  0  0  0  0  0  0  0  0
  -29.3510  -18.5490   20.8090 C   0  0  0  0  0  2  0  0  0  0  0  0
  -30.7660  -18.0440   21.1540 C   0  0  0  0  0  2  0  0  0  0  0  0
  -30.8110  -16.8620   22.1490 C   0  0  0  0  0  2  0  0  0  0  0  0
  -30.8640  -14.7790   20.7650 C   0  0  0  0  0  0  0  0  0  0  0  0
  -30.5510  -12.7850   19.3500 C   0  0  0  0  0  2  0  0  0  0  0  0
  -29.6370  -13.1240   18.1550 C   0  0  0  0  0  2  0  0  0  0  0  0
  -28.1520  -12.9590   18.5390 C   0  0  0  0  0  2  0  0  0  0  0  0
  -27.7960  -13.6760   19.8680 C   0  0  0  0  0  3  0  0  0  0  0  0
  -28.8180  -13.3170   20.9690 C   0  0  0  0  0  2  0  0  0  0  0  0
  -30.1650  -13.6530   20.4710 N   0  0  0  0  0  0  0  0  0  0  0  0
  -31.9530  -15.0570   20.2570 O   0  0  0  0  0  0  0  0  0  0  0  0
  -30.2590  -15.6140   21.6210 N   0  0  0  0  0  0  0  0  0  0  0  0
  -29.3690  -15.3080   21.9880 H   0  0  0  0  0  0  0  0  0  0  0  0
  -25.3510  -14.2390   20.4510 C   0  0  0  0  0  0  0  0  0  0  0  0
  -24.2850  -13.4470   20.7850 C   0  0  0  0  0  0  0  0  0  0  0  0
  -24.7790  -12.1070   20.7970 C   0  0  0  0  0  0  0  0  0  0  0  0
  -26.4270  -13.3790   20.2850 N   0  0  0  0  0  0  0  0  0  0  0  0
  -26.0820  -12.0930   20.5470 N   0  0  0  0  0  0  0  0  0  0  0  0
  -24.0760  -10.8290   20.9750 C   0  0  0  0  0  0  0  0  0  0  0  0
  -24.4790   -9.8950   21.9530 C   0  0  0  0  0  3  0  0  0  0  0  0
  -23.7760   -8.6810   22.1160 C   0  0  0  0  0  3  0  0  0  0  0  0
  -22.6560   -8.3940   21.3000 C   0  0  0  0  0  0  0  0  0  0  0  0
  -22.2740   -9.3190   20.3110 C   0  0  0  0  0  3  0  0  0  0  0  0
  -22.9790  -10.5230   20.1460 C   0  0  0  0  0  3  0  0  0  0  0  0
  -21.9290   -7.2310   21.3700 O   0  0  0  0  0  0  0  0  0  0  0  0
  -21.8120   -6.5240   22.5390 C   0  0  0  0  0  0  0  0  0  0  0  0
  -21.2670   -7.1020   23.7070 C   0  0  0  0  0  3  0  0  0  0  0  0
  -21.1010   -6.3190   24.8680 C   0  0  0  0  0  3  0  0  0  0  0  0
  -21.4700   -4.9610   24.8600 C   0  0  0  0  0  0  0  0  0  0  0  0
  -22.0070   -4.3820   23.6960 C   0  0  0  0  0  3  0  0  0  0  0  0
  -22.1750   -5.1620   22.5380 C   0  0  0  0  0  0  0  0  0  0  0  0
  -22.6730   -4.5960   21.4130 F   0  0  0  0  0  0  0  0  0  0  0  0
  -21.3030   -4.2060   25.9710 F   0  0  0  0  0  0  0  0  0  0  0  0
  -22.8660  -13.8930   20.9870 C   0  0  0  0  0  0  0  0  0  0  0  0
  -22.1160  -13.1930   21.8320 N   0  0  0  0  0  0  0  0  0  0  0  0
  -22.4280  -14.8980   20.4300 O   0  0  0  0  0  0  0  0  0  0  0  0
  -22.4820  -12.3790   22.3040 H   0  0  0  0  0  0  0  0  0  0  0  0
  -21.1630  -13.4750   22.0090 H   0  0  0  0  0  0  0  0  0  0  0  0
  -25.4920  -15.6090   20.2590 N   0  0  0  0  0  0  0  0  0  0  0  0
  -24.7060  -16.2470   20.3160 H   0  0  0  0  0  0  0  0  0  0  0  0
  -26.3450  -16.0580   19.9530 H   0  0  0  0  0  0  0  0  0  0  0  0
  -27.3700  -25.4550   15.7520 C   0  0  0  0  0  2  0  0  0  0  0  0
  -27.9900  -26.0170   14.4640 C   0  0  0  0  0  2  0  0  0  0  0  0
  -29.1660  -26.7530   14.7800 O   0  0  0  0  0  0  0  0  0  0  0  0
  -28.9000  -28.1170   15.0900 C   0  0  0  0  0  2  0  0  0  0  0  0
  -30.1180  -28.7530   15.7730 C   0  0  0  0  0  2  0  0  0  0  0  0
  -29.9840  -28.7110   17.1880 O   0  0  0  0  0  0  0  0  0  0  0  0
  -30.7460  -27.7080   17.8460 C   0  0  0  0  0  2  0  0  0  0  0  0
  -30.6920  -28.0190   19.3510 C   0  0  0  0  0  2  0  0  0  0  0  0
  -29.7420  -27.1450   20.1970 C   0  0  0  0  0  2  0  0  0  0  0  0
  -28.5340  -26.7390   19.5490 O   0  0  0  0  0  0  0  0  0  0  0  0
  -24.5710  -31.6510   22.9630 C   0  0  0  0  0  0  0  0  0  0  0  0
  -27.3760  -27.4780   19.6740 C   0  0  0  0  0  0  0  0  0  0  0  0
  -23.4180  -30.3320   21.2100 C   0  0  0  0  0  3  0  0  0  0  0  0
  -24.9290  -28.8960   19.7390 C   0  0  0  0  0  0  0  0  0  0  0  0
  -25.9370  -30.7370   21.1030 C   0  0  0  0  0  2  0  0  0  0  0  0
  -26.0570  -29.4110   20.3860 C   0  0  0  0  0  0  0  0  0  0  0  0
  -27.2780  -28.7070   20.3650 C   0  0  0  0  0  3  0  0  0  0  0  0
  -26.2250  -26.9590   19.0470 C   0  0  0  0  0  3  0  0  0  0  0  0
  -25.0010  -27.6580   19.0750 C   0  0  0  0  0  3  0  0  0  0  0  0
  -23.6720  -29.7310   19.7990 C   0  0  0  0  0  2  0  0  0  0  0  0
  -24.6560  -30.9210   21.8160 N   0  0  0  0  0  0  0  0  0  0  0  0
  -23.4770  -31.8810   23.4940 O   0  0  0  0  0  0  0  0  0  0  0  0
  -22.7660  -29.2490   22.0970 C   0  0  0  0  0  0  0  0  0  0  0  0
  -21.4310  -29.1300   22.0140 N   0  0  0  0  0  0  0  0  0  0  0  0
  -23.4560  -28.5200   22.8140 O   0  0  0  0  0  0  0  0  0  0  0  0
  -20.9330  -29.7730   21.4140 H   0  0  0  0  0  0  0  0  0  0  0  0
  -18.0250  -28.1040   22.6320 C   0  0  0  0  0  0  0  0  0  0  0  0
  -20.6070  -28.1540   22.7250 C   0  0  0  0  0  3  0  0  0  0  0  0
  -20.5590  -26.8100   21.9620 C   0  0  0  0  0  2  0  0  0  0  0  0
  -19.3630  -26.6970   21.0100 C   0  0  0  0  0  2  0  0  0  0  0  0
  -18.0470  -26.8470   21.7800 C   0  0  0  0  0  2  0  0  0  0  0  0
  -19.2260  -28.7260   23.0640 C   0  0  0  0  0  0  0  0  0  0  0  0
  -19.1500  -29.9110   23.8230 C   0  0  0  0  0  3  0  0  0  0  0  0
  -17.9030  -30.4720   24.1600 C   0  0  0  0  0  3  0  0  0  0  0  0
  -16.7160  -29.8420   23.7470 C   0  0  0  0  0  3  0  0  0  0  0  0
  -16.7780  -28.6620   22.9850 C   0  0  0  0  0  3  0  0  0  0  0  0
  -25.8380  -32.2580   23.6470 C   0  0  0  0  0  3  0  0  0  0  0  0
  -25.4950  -33.6200   24.0780 N   0  0  0  0  0  0  0  0  0  0  0  0
  -25.7820  -34.7300   23.3860 C   0  0  0  0  0  0  0  0  0  0  0  0
  -26.4330  -34.7180   22.3390 O   0  0  0  0  0  0  0  0  0  0  0  0
  -24.8970  -33.6990   24.8890 H   0  0  0  0  0  0  0  0  0  0  0  0
  -23.9740  -36.4740   23.2130 C   0  0  0  0  0  1  0  0  0  0  0  0
  -25.2620  -36.0690   23.9480 C   0  0  0  0  0  3  0  0  0  0  0  0
  -27.3980  -36.9880   24.7450 C   0  0  0  0  0  1  0  0  0  0  0  0
  -26.2520  -37.1650   23.8570 N   0  0  0  0  0  0  0  0  0  0  0  0
  -25.8190  -38.0600   24.0700 H   0  0  0  0  0  0  0  0  0  0  0  0
  -26.3560  -31.4000   24.8670 C   0  0  1  0  0  0  0  0  0  0  0  0
  -25.2540  -31.0710   25.9000 C   0  0  0  0  0  1  0  0  0  0  0  0
  -26.9580  -30.0590   24.3830 C   0  0  0  0  0  1  0  0  0  0  0  0
  -27.4920  -32.1540   25.6010 C   0  0  0  0  0  1  0  0  0  0  0  0
  1 51  1  0
  1  2  1  0
  2  3  1  0
  3  4  1  0
  4  5  1  0
  5  6  1  0
  6  7  1  0
  7  9  1  0
  7 10  1  0
  8  7  1  0
 10 11  1  0
 11 12  1  0
 13 21  1  0
 14 19  1  0
 15 16  1  0
 15 14  1  0
 17 16  1  0
 17 26  1  0
 17 18  1  0
 19 13  1  0
 19 18  1  0
 20 13  2  0
 21 22  1  0
 21 12  1  0
 23 24  2  0
 24 25  1  0
 24 43  1  0
 25 28  1  0
 26 23  1  0
 26 27  1  0
 27 25  2  0
 28 29  1  0
 29 30  2  0
 31 34  1  0
 31 30  1  0
 32 31  2  0
 33 32  1  0
 33 28  2  0
 34 35  1  0
 35 36  1  0
 36 37  2  0
 38 37  1  0
 38 42  1  0
 39 38  2  0
 40 35  2  0
 40 39  1  0
 41 40  1  0
 43 44  1  0
 44 47  1  0
 44 46  1  0
 45 43  2  0
 48 49  1  0
 48 23  1  0
 50 48  1  0
 52 53  1  0
 52 51  1  0
 53 54  1  0
 54 55  1  0
 55 56  1  0
 56 57  1  0
 57 58  1  0
 58 59  1  0
 60 62  1  0
 60 59  1  0
 61 72  2  0
 62 67  1  0
 63 71  1  0
 63 73  1  0
 64 70  1  0
 64 66  1  0
 65 71  1  0
 66 65  1  0
 67 66  2  0
 68 69  1  0
 68 62  2  0
 69 64  2  0
 70 63  1  0
 71 61  1  0
 73 75  2  0
 74 73  1  0
 76 74  1  0
 77 86  2  0
 77 82  1  0
 78 74  1  0
 78 82  1  0
 79 78  1  0
 80 81  1  0
 80 79  1  0
 81 77  1  0
 82 83  2  0
 83 84  1  0
 85 84  2  0
 86 85  1  0
 87 61  1  0
 87 88  1  0
 87 97  1  0
 88 91  1  0
 89 93  1  0
 89 88  1  0
 90 89  2  0
 93 92  1  0
 95 93  1  0
 95 96  1  0
 95 94  1  0
 97100  1  1
 97 98  1  0
 99 97  1  0
M  ISO  4  13 100  21 100  59 101  60 101
M  END
>  <TORSDO>  (51) 
F 34

>  <SCORE>  (51) 
-8.750

>  <name>  (51) 
50

>  <ligand_id>  (51) 
50

>  <original_smiles>  (51) 
[H]c1c([H])c([H])c2c(c1[H])C([H])([H])C([H])([H])C([H])([H])C2([H])N([H])C(=O)C1([H])N(C(=O)C([H])(N([H])C(=O)C([H])(N([H])C([H])([H])[H])C([H])([H])[H])C(C([H])([H])[H])(C([H])([H])[H])C([H])([H])[H])C([H])([H])c2c([H])c(OC([H])([H])C([H])([H])C([H])([H])OC([H])([H])C([H])([H])OC([H])([H])C([H])([H])C([H])([H])C([H])([H])OC([H])([H])C([H])([H])C([H])([H])[N+]([H])([H])C([H])([H])C([H])([H])C([H])([H])N([H])C(=O)N3C([H])([H])C([H])([H])C([H])([H])C([H])(n4nc(-c5c([H])c([H])c(Oc6c([H])c([H])c(F)c([H])c6F)c([H])c5[H])c(C(=O)N([H])[H])c4N([H])[H])C3([H])[H])c([H])c([H])c2C1([H])[H]

>  <smiles>  (51) 
[H]c1c([H])c([H])c2c(c1[H])C([H])([H])C([H])([H])C([H])([H])C2([H])N([H])C(=O)C1([H])N(C(=O)C([H])(N([H])C(=O)C([H])(N([H])C([H])([H])[H])C([H])([H])[H])C(C([H])([H])[H])(C([H])([H])[H])C([H])([H])[H])C([H])([H])c2c([H])c(OC([H])([H])C([H])([H])C([H])([H])OC([H])([H])C([H])([H])OC([H])([H])C([H])([H])C([H])([H])C([H])([H])OC([H])([H])C([H])([H])C([H])([H])[N+]([H])([H])C([H])([H])C([H])([H])C([H])([H])N([H])C(=O)N3C([H])([H])C([H])([H])C([H])([H])C([H])(n4nc(-c5c([H])c([H])c(Oc6c([H])c([H])c(F)c([H])c6F)c([H])c5[H])c(C(=O)N([H])[H])c4N([H])[H])C3([H])[H])c([H])c([H])c2C1([H])[H]

$$$$
51:0:0
     RDKit          3D

 97104  0  0  1  0  0  0  0  0999 V2000
  -25.0140  -23.6950   22.0780 C   0  0  0  0  0  0  0  0  0  0  0  0
  -25.3840  -24.9770   22.1900 N   0  0  0  0  0  0  0  0  0  0  0  0
  -23.9040  -23.3490   21.6700 O   0  0  0  0  0  0  0  0  0  0  0  0
  -26.3290  -25.1520   22.5060 H   0  0  0  0  0  0  0  0  0  0  0  0
  -24.6540  -26.1130   21.6400 C   0  0  0  0  0  2  0  0  0  0  0  0
  -25.4440  -26.6900   20.4550 C   0  0  0  0  0  2  0  0  0  0  0  0
  -24.6010  -26.9080   19.3360 O   0  0  0  0  0  0  0  0  0  0  0  0
  -25.3460  -26.8720   18.1270 C   0  0  0  0  0  2  0  0  0  0  0  0
  -24.9710  -28.0260   17.1920 C   0  0  0  0  0  2  0  0  0  0  0  0
  -25.3640  -29.2730   17.7690 O   0  0  0  0  0  0  0  0  0  0  0  0
  -25.6630  -29.9050   24.8360 C   0  0  0  0  0  0  0  0  0  0  0  0
  -24.7260  -29.7490   18.8960 C   0  0  0  0  0  0  0  0  0  0  0  0
  -23.5490  -30.6540   23.7910 C   0  0  0  0  0  3  0  0  0  0  0  0
  -23.5740  -30.8230   21.2480 C   0  0  0  0  0  0  0  0  0  0  0  0
  -25.7460  -30.7270   22.4810 C   0  0  0  0  0  2  0  0  0  0  0  0
  -24.9340  -30.4910   21.2240 C   0  0  0  0  0  0  0  0  0  0  0  0
  -25.5120  -29.9610   20.0510 C   0  0  0  0  0  3  0  0  0  0  0  0
  -23.3500  -30.0770   18.9440 C   0  0  0  0  0  3  0  0  0  0  0  0
  -22.7750  -30.6130   20.1130 C   0  0  0  0  0  3  0  0  0  0  0  0
  -23.0330  -31.4040   22.5340 C   0  0  0  0  0  2  0  0  0  0  0  0
  -25.0240  -30.3810   23.7300 N   0  0  0  0  0  0  0  0  0  0  0  0
  -25.0550  -29.7270   25.9010 O   0  0  0  0  0  0  0  0  0  0  0  0
  -22.6990  -29.3780   23.9820 C   0  0  0  0  0  0  0  0  0  0  0  0
  -21.3890  -29.4880   23.7090 N   0  0  0  0  0  0  0  0  0  0  0  0
  -23.2210  -28.3180   24.3380 O   0  0  0  0  0  0  0  0  0  0  0  0
  -21.0410  -30.3930   23.4220 H   0  0  0  0  0  0  0  0  0  0  0  0
  -18.1910  -28.3930   22.4410 C   0  0  0  0  0  0  0  0  0  0  0  0
  -20.4010  -28.4140   23.7800 C   0  0  0  0  0  3  0  0  0  0  0  0
  -20.8240  -27.2070   22.9100 C   0  0  0  0  0  2  0  0  0  0  0  0
  -20.2430  -27.2560   21.4930 C   0  0  0  0  0  2  0  0  0  0  0  0
  -18.7130  -27.2880   21.5390 C   0  0  0  0  0  2  0  0  0  0  0  0
  -18.9890  -28.9320   23.4840 C   0  0  0  0  0  0  0  0  0  0  0  0
  -18.4690  -29.9830   24.2710 C   0  0  0  0  0  3  0  0  0  0  0  0
  -17.1760  -30.4910   24.0340 C   0  0  0  0  0  3  0  0  0  0  0  0
  -16.3830  -29.9410   23.0110 C   0  0  0  0  0  3  0  0  0  0  0  0
  -16.8910  -28.8950   22.2190 C   0  0  0  0  0  3  0  0  0  0  0  0
  -27.1880  -29.5800   24.8200 C   0  0  0  0  0  3  0  0  0  0  0  0
  -27.8120  -30.3380   25.9110 N   0  0  0  0  0  0  0  0  0  0  0  0
  -28.5750  -31.4260   25.7400 C   0  0  0  0  0  0  0  0  0  0  0  0
  -28.8890  -31.8560   24.6260 O   0  0  0  0  0  0  0  0  0  0  0  0
  -27.5550  -30.0710   26.8500 H   0  0  0  0  0  0  0  0  0  0  0  0
  -28.2420  -33.4270   27.2220 C   0  0  0  0  0  1  0  0  0  0  0  0
  -29.0680  -32.1500   27.0050 C   0  0  0  0  0  3  0  0  0  0  0  0
  -31.3800  -31.3210   27.0300 C   0  0  0  0  0  1  0  0  0  0  0  0
  -30.5070  -32.4890   26.9640 N   0  0  0  0  0  0  0  0  0  0  0  0
  -30.7510  -33.1080   27.7320 H   0  0  0  0  0  0  0  0  0  0  0  0
  -27.4920  -28.0390   24.9630 C   0  0  1  0  0  0  0  0  0  0  0  0
  -26.7670  -27.3690   26.1520 C   0  0  0  0  0  1  0  0  0  0  0  0
  -27.0770  -27.2920   23.6740 C   0  0  0  0  0  1  0  0  0  0  0  0
  -29.0120  -27.8150   25.1400 C   0  0  0  0  0  1  0  0  0  0  0  0
  -26.0750  -22.6380   22.4190 C   0  0  0  0  0  2  0  0  0  0  0  0
  -26.5180  -21.9440   21.2450 O   0  0  0  0  0  0  0  0  0  0  0  0
  -26.8010  -22.7570   20.1060 C   0  0  0  0  0  2  0  0  0  0  0  0
  -26.2390  -22.1180   18.8240 C   0  0  0  0  0  2  0  0  0  0  0  0
  -26.9730  -20.8410   18.4010 C   0  0  0  0  0  2  0  0  0  0  0  0
  -28.3680  -21.0370   18.5950 O   0  0  0  0  0  0  0  0  0  0  0  0
  -29.1580  -19.9860   18.0620 C   0  0  0  0  0  2  0  0  0  0  0  0
  -30.5570  -20.0330   18.6950 C   0  0  0  0  0  2  0  0  0  0  0  0
  -30.6190  -19.5830   20.1710 C   0  0  0  0  0  2  0  0  0  0  0  0
  -31.2150  -17.1450   20.1480 C   0  0  0  0  0  0  0  0  0  0  0  0
  -31.6240  -14.7250   20.3960 C   0  0  0  0  0  2  0  0  0  0  0  0
  -31.0390  -13.9180   19.2250 C   0  0  0  0  0  2  0  0  0  0  0  0
  -29.5600  -13.5750   19.4840 C   0  0  0  0  0  2  0  0  0  0  0  0
  -28.7280  -14.8110   19.9130 C   0  0  0  0  0  3  0  0  0  0  0  0
  -29.4390  -15.5880   21.0410 C   0  0  0  0  0  2  0  0  0  0  0  0
  -30.8020  -15.9290   20.5850 N   0  0  0  0  0  0  0  0  0  0  0  0
  -32.3100  -17.3340   19.6060 O   0  0  0  0  0  0  0  0  0  0  0  0
  -30.3690  -18.1550   20.3820 N   0  0  0  0  0  0  0  0  0  0  0  0
  -29.4960  -17.9050   20.8260 H   0  0  0  0  0  0  0  0  0  0  0  0
  -26.2510  -15.2260   20.4850 C   0  0  0  0  0  0  0  0  0  0  0  0
  -25.2210  -14.3700   20.7650 C   0  0  0  0  0  0  0  0  0  0  0  0
  -25.7790  -13.0550   20.7180 C   0  0  0  0  0  0  0  0  0  0  0  0
  -27.3700  -14.4280   20.2940 N   0  0  0  0  0  0  0  0  0  0  0  0
  -27.0830  -13.1150   20.4880 N   0  0  0  0  0  0  0  0  0  0  0  0
  -25.1330  -11.7400   20.8220 C   0  0  0  0  0  0  0  0  0  0  0  0
  -25.3510  -10.8960   21.9330 C   0  0  0  0  0  3  0  0  0  0  0  0
  -24.7060   -9.6430   22.0180 C   0  0  0  0  0  3  0  0  0  0  0  0
  -23.8300   -9.2260   20.9870 C   0  0  0  0  0  0  0  0  0  0  0  0
  -23.6340  -10.0600   19.8720 C   0  0  0  0  0  3  0  0  0  0  0  0
  -24.2810  -11.3040   19.7880 C   0  0  0  0  0  3  0  0  0  0  0  0
  -23.1790   -8.0160   20.9720 O   0  0  0  0  0  0  0  0  0  0  0  0
  -22.5900   -7.5020   22.1000 C   0  0  0  0  0  0  0  0  0  0  0  0
  -21.5540   -8.1830   22.7750 C   0  0  0  0  0  3  0  0  0  0  0  0
  -20.9280   -7.5860   23.8880 C   0  0  0  0  0  3  0  0  0  0  0  0
  -21.3270   -6.3080   24.3200 C   0  0  0  0  0  0  0  0  0  0  0  0
  -22.3550   -5.6260   23.6450 C   0  0  0  0  0  3  0  0  0  0  0  0
  -22.9820   -6.2210   22.5370 C   0  0  0  0  0  0  0  0  0  0  0  0
  -23.9580   -5.5490   21.8780 F   0  0  0  0  0  0  0  0  0  0  0  0
  -20.7210   -5.7320   25.3850 F   0  0  0  0  0  0  0  0  0  0  0  0
  -23.7810  -14.7400   20.9730 C   0  0  0  0  0  0  0  0  0  0  0  0
  -23.0610  -13.9760   21.7870 N   0  0  0  0  0  0  0  0  0  0  0  0
  -23.2960  -15.7440   20.4490 O   0  0  0  0  0  0  0  0  0  0  0  0
  -23.4640  -13.1630   22.2300 H   0  0  0  0  0  0  0  0  0  0  0  0
  -22.0930  -14.2030   21.9660 H   0  0  0  0  0  0  0  0  0  0  0  0
  -26.3300  -16.6090   20.3580 N   0  0  0  0  0  0  0  0  0  0  0  0
  -25.5170  -17.2080   20.4410 H   0  0  0  0  0  0  0  0  0  0  0  0
  -27.1710  -17.1100   20.1010 H   0  0  0  0  0  0  0  0  0  0  0  0
  1  2  1  0
  1 51  1  0
  2  4  1  0
  3  1  2  0
  5  2  1  0
  6  5  1  0
  7  6  1  0
  8  7  1  0
  9 10  1  0
  9  8  1  0
 10 12  1  0
 11 22  2  0
 12 18  2  0
 12 17  1  0
 13 23  1  0
 14 20  1  0
 15 21  1  0
 16 14  1  0
 16 15  1  0
 17 16  2  0
 18 19  1  0
 19 14  2  0
 20 13  1  0
 21 13  1  0
 21 11  1  0
 23 25  2  0
 24 23  1  0
 26 24  1  0
 27 32  1  0
 28 24  1  0
 29 28  1  0
 30 31  1  0
 30 29  1  0
 31 27  1  0
 32 28  1  0
 32 33  2  0
 34 33  1  0
 35 34  2  0
 36 27  2  0
 36 35  1  0
 37 11  1  0
 37 47  1  0
 37 38  1  0
 38 41  1  0
 39 38  1  0
 39 43  1  0
 40 39  2  0
 43 42  1  0
 45 43  1  0
 45 44  1  0
 45 46  1  0
 47 50  1  1
 47 48  1  0
 49 47  1  0
 52 51  1  0
 53 52  1  0
 54 53  1  0
 55 56  1  0
 55 54  1  0
 57 56  1  0
 57 58  1  0
 58 59  1  0
 59 68  1  0
 60 68  1  0
 60 66  1  0
 61 66  1  0
 62 63  1  0
 62 61  1  0
 64 63  1  0
 64 73  1  0
 64 65  1  0
 66 65  1  0
 67 60  2  0
 68 69  1  0
 70 71  2  0
 71 90  1  0
 72 71  1  0
 72 75  1  0
 73 70  1  0
 73 74  1  0
 74 72  2  0
 75 76  1  0
 76 77  2  0
 78 77  1  0
 79 78  2  0
 80 79  1  0
 80 75  2  0
 81 78  1  0
 81 82  1  0
 82 87  2  0
 82 83  1  0
 83 84  2  0
 84 85  1  0
 85 89  1  0
 86 85  2  0
 87 86  1  0
 88 87  1  0
 90 91  1  0
 91 94  1  0
 91 93  1  0
 92 90  2  0
 95 96  1  0
 95 70  1  0
 97 95  1  0
M  ISO  4   9 101  10 101  60 100  68 100
M  END
>  <TORSDO>  (52) 
F 30

>  <SCORE>  (52) 
-3.444

>  <name>  (52) 
51

>  <ligand_id>  (52) 
51

>  <original_smiles>  (52) 
[H]c1c([H])c([H])c2c(c1[H])C([H])([H])C([H])([H])C([H])([H])C2([H])N([H])C(=O)C1([H])N(C(=O)C([H])(N([H])C(=O)C([H])(N([H])C([H])([H])[H])C([H])([H])[H])C(C([H])([H])[H])(C([H])([H])[H])C([H])([H])[H])C([H])([H])c2c([H])c(OC([H])([H])C([H])([H])OC([H])([H])C([H])([H])N([H])C(=O)C([H])([H])OC([H])([H])C([H])([H])C([H])([H])OC([H])([H])C([H])([H])C([H])([H])N([H])C(=O)N3C([H])([H])C([H])([H])C([H])([H])C([H])(n4nc(-c5c([H])c([H])c(Oc6c([H])c([H])c(F)c([H])c6F)c([H])c5[H])c(C(=O)N([H])[H])c4N([H])[H])C3([H])[H])c([H])c([H])c2C1([H])[H]

>  <smiles>  (52) 
[H]c1c([H])c([H])c2c(c1[H])C([H])([H])C([H])([H])C([H])([H])C2([H])N([H])C(=O)C1([H])N(C(=O)C([H])(N([H])C(=O)C([H])(N([H])C([H])([H])[H])C([H])([H])[H])C(C([H])([H])[H])(C([H])([H])[H])C([H])([H])[H])C([H])([H])c2c([H])c(OC([H])([H])C([H])([H])OC([H])([H])C([H])([H])N([H])C(=O)C([H])([H])OC([H])([H])C([H])([H])C([H])([H])OC([H])([H])C([H])([H])C([H])([H])N([H])C(=O)N3C([H])([H])C([H])([H])C([H])([H])C([H])(n4nc(-c5c([H])c([H])c(Oc6c([H])c([H])c(F)c([H])c6F)c([H])c5[H])c(C(=O)N([H])[H])c4N([H])[H])C3([H])[H])c([H])c([H])c2C1([H])[H]

$$$$
52:0:0
     RDKit          3D

 95102  0  0  1  0  0  0  0  0999 V2000
  -28.2600  -20.3210   21.3570 C   0  0  0  0  0  2  0  0  0  0  0  0
  -29.1790  -19.3910   20.5500 C   0  0  0  0  0  2  0  0  0  0  0  0
  -29.7810  -18.4250   21.4040 O   0  0  0  0  0  0  0  0  0  0  0  0
  -31.0760  -17.9790   20.9900 C   0  0  0  0  0  2  0  0  0  0  0  0
  -31.0880  -16.8740   19.9010 C   0  0  0  0  0  3  0  0  0  0  0  0
  -32.4230  -14.8480   19.4950 C   0  0  0  0  0  0  0  0  0  0  0  0
  -31.9730  -12.5210   18.8320 C   0  0  0  0  0  2  0  0  0  0  0  0
  -30.9530  -12.4460   17.6850 C   0  0  0  0  0  2  0  0  0  0  0  0
  -29.5160  -12.4310   18.2380 C   0  0  0  0  0  2  0  0  0  0  0  0
  -29.2630  -13.5640   19.2650 C   0  0  0  0  0  3  0  0  0  0  0  0
  -30.3830  -13.6070   20.3270 C   0  0  0  0  0  2  0  0  0  0  0  0
  -31.6780  -13.7220   19.6310 N   0  0  0  0  0  0  0  0  0  0  0  0
  -33.4200  -14.9240   18.7810 O   0  0  0  0  0  0  0  0  0  0  0  0
  -32.0950  -15.8780   20.2830 N   0  0  0  0  0  0  0  0  0  0  0  0
  -32.9350  -16.3690   20.5470 H   0  0  0  0  0  0  0  0  0  0  0  0
  -27.0670  -14.4330   20.2900 C   0  0  0  0  0  0  0  0  0  0  0  0
  -25.9430  -13.7850   20.7280 C   0  0  0  0  0  0  0  0  0  0  0  0
  -26.2010  -12.3920   20.5550 C   0  0  0  0  0  0  0  0  0  0  0  0
  -27.9440  -13.4400   19.8800 N   0  0  0  0  0  0  0  0  0  0  0  0
  -27.4310  -12.2040   20.0930 N   0  0  0  0  0  0  0  0  0  0  0  0
  -25.3270  -11.2280   20.7480 C   0  0  0  0  0  0  0  0  0  0  0  0
  -25.6280  -10.2310   21.7020 C   0  0  0  0  0  3  0  0  0  0  0  0
  -24.7640   -9.1290   21.8840 C   0  0  0  0  0  3  0  0  0  0  0  0
  -23.5820   -9.0200   21.1120 C   0  0  0  0  0  0  0  0  0  0  0  0
  -23.2990  -10.0030   20.1470 C   0  0  0  0  0  3  0  0  0  0  0  0
  -24.1630  -11.0960   19.9640 C   0  0  0  0  0  3  0  0  0  0  0  0
  -22.6960   -7.9740   21.2020 O   0  0  0  0  0  0  0  0  0  0  0  0
  -22.3670   -7.4110   22.4090 C   0  0  0  0  0  0  0  0  0  0  0  0
  -21.7860   -8.1670   23.4510 C   0  0  0  0  0  3  0  0  0  0  0  0
  -21.3990   -7.5320   24.6490 C   0  0  0  0  0  3  0  0  0  0  0  0
  -21.5840   -6.1450   24.8030 C   0  0  0  0  0  0  0  0  0  0  0  0
  -22.1570   -5.3910   23.7650 C   0  0  0  0  0  3  0  0  0  0  0  0
  -22.5460   -6.0220   22.5700 C   0  0  0  0  0  0  0  0  0  0  0  0
  -23.0770   -5.2870   21.5650 F   0  0  0  0  0  0  0  0  0  0  0  0
  -21.2060   -5.5350   25.9510 F   0  0  0  0  0  0  0  0  0  0  0  0
  -24.6660  -14.4230   21.1940 C   0  0  0  0  0  0  0  0  0  0  0  0
  -23.9590  -13.7790   22.1160 N   0  0  0  0  0  0  0  0  0  0  0  0
  -24.3130  -15.5250   20.7760 O   0  0  0  0  0  0  0  0  0  0  0  0
  -24.2660  -12.8910   22.4850 H   0  0  0  0  0  0  0  0  0  0  0  0
  -23.1010  -14.1820   22.4630 H   0  0  0  0  0  0  0  0  0  0  0  0
  -27.4070  -15.7780   20.1930 N   0  0  0  0  0  0  0  0  0  0  0  0
  -26.7620  -16.5140   20.4600 H   0  0  0  0  0  0  0  0  0  0  0  0
  -28.2900  -16.1310   19.8530 H   0  0  0  0  0  0  0  0  0  0  0  0
  -31.4250  -17.4200   18.4930 C   0  0  0  0  0  0  0  0  0  0  0  0
  -30.6010  -17.1200   17.4960 N   0  0  0  0  0  0  0  0  0  0  0  0
  -32.4470  -18.0760   18.3030 O   0  0  0  0  0  0  0  0  0  0  0  0
  -30.7960  -17.4450   16.5590 H   0  0  0  0  0  0  0  0  0  0  0  0
  -29.7720  -16.5660   17.6480 H   0  0  0  0  0  0  0  0  0  0  0  0
  -28.4260  -21.6460   20.8730 O   0  0  0  0  0  0  0  0  0  0  0  0
  -27.3150  -22.4860   21.1490 C   0  0  0  0  0  2  0  0  0  0  0  0
  -27.7410  -23.9450   20.9530 C   0  0  0  0  0  2  0  0  0  0  0  0
  -27.8170  -24.2160   19.5590 O   0  0  0  0  0  0  0  0  0  0  0  0
  -28.0940  -25.5790   19.2830 C   0  0  0  0  0  2  0  0  0  0  0  0
  -27.9600  -25.8350   17.7710 C   0  0  0  0  0  2  0  0  0  0  0  0
  -27.7720  -27.2250   17.5120 O   0  0  0  0  0  0  0  0  0  0  0  0
  -24.6700  -30.9990   22.6590 C   0  0  0  0  0  0  0  0  0  0  0  0
  -26.6050  -27.8000   17.9600 C   0  0  0  0  0  0  0  0  0  0  0  0
  -23.1440  -30.0610   20.9550 C   0  0  0  0  0  3  0  0  0  0  0  0
  -24.2640  -29.0760   18.8880 C   0  0  0  0  0  0  0  0  0  0  0  0
  -25.5730  -30.6080   20.3720 C   0  0  0  0  0  2  0  0  0  0  0  0
  -25.5190  -29.4850   19.3600 C   0  0  0  0  0  0  0  0  0  0  0  0
  -26.6900  -28.8550   18.8920 C   0  0  0  0  0  3  0  0  0  0  0  0
  -25.3330  -27.3950   17.4920 C   0  0  0  0  0  3  0  0  0  0  0  0
  -24.1660  -28.0300   17.9540 C   0  0  0  0  0  3  0  0  0  0  0  0
  -23.0600  -29.8160   19.4240 C   0  0  0  0  0  2  0  0  0  0  0  0
  -24.4920  -30.5530   21.3830 N   0  0  0  0  0  0  0  0  0  0  0  0
  -23.7260  -31.0490   23.4580 O   0  0  0  0  0  0  0  0  0  0  0  0
  -22.6990  -28.7750   21.6850 C   0  0  0  0  0  0  0  0  0  0  0  0
  -21.3860  -28.4960   21.6510 N   0  0  0  0  0  0  0  0  0  0  0  0
  -23.5230  -28.0450   22.2400 O   0  0  0  0  0  0  0  0  0  0  0  0
  -20.7740  -29.1470   21.1790 H   0  0  0  0  0  0  0  0  0  0  0  0
  -18.2230  -26.7970   22.0340 C   0  0  0  0  0  0  0  0  0  0  0  0
  -20.7450  -27.3220   22.2380 C   0  0  0  0  0  3  0  0  0  0  0  0
  -20.9770  -26.0690   21.3630 C   0  0  0  0  0  2  0  0  0  0  0  0
  -19.8500  -25.8240   20.3560 C   0  0  0  0  0  2  0  0  0  0  0  0
  -18.5110  -25.6500   21.0790 C   0  0  0  0  0  2  0  0  0  0  0  0
  -19.2720  -27.5900   22.5670 C   0  0  0  0  0  0  0  0  0  0  0  0
  -18.9500  -28.6650   23.4250 C   0  0  0  0  0  3  0  0  0  0  0  0
  -17.6110  -28.9470   23.7540 C   0  0  0  0  0  3  0  0  0  0  0  0
  -16.5780  -28.1500   23.2340 C   0  0  0  0  0  3  0  0  0  0  0  0
  -16.8850  -27.0770   22.3780 C   0  0  0  0  0  3  0  0  0  0  0  0
  -26.0610  -31.4940   23.1680 C   0  0  0  0  0  3  0  0  0  0  0  0
  -26.7910  -30.4490   24.0960 C   0  0  1  0  0  0  0  0  0  0  0  0
  -25.9160  -29.9280   25.2590 C   0  0  0  0  0  1  0  0  0  0  0  0
  -27.2610  -29.2270   23.2710 C   0  0  0  0  0  1  0  0  0  0  0  0
  -28.0630  -31.0870   24.7020 C   0  0  0  0  0  1  0  0  0  0  0  0
  -25.8450  -32.7620   23.8770 N   0  0  0  0  0  0  0  0  0  0  0  0
  -26.1250  -33.9710   23.3720 C   0  0  0  0  0  0  0  0  0  0  0  0
  -26.6670  -34.1290   22.2740 O   0  0  0  0  0  0  0  0  0  0  0  0
  -25.3500  -32.7110   24.7550 H   0  0  0  0  0  0  0  0  0  0  0  0
  -24.4570  -35.8300   23.6660 C   0  0  0  0  0  1  0  0  0  0  0  0
  -25.7440  -35.1990   24.2220 C   0  0  0  0  0  3  0  0  0  0  0  0
  -27.9790  -35.7840   25.0510 C   0  0  0  0  0  1  0  0  0  0  0  0
  -26.8110  -36.2210   24.2900 N   0  0  0  0  0  0  0  0  0  0  0  0
  -26.4610  -37.0800   24.7070 H   0  0  0  0  0  0  0  0  0  0  0  0
  2  1  1  0
  2  3  1  0
  4  3  1  0
  5 14  1  0
  5  4  1  0
  6 12  1  0
  6 14  1  0
  7 12  1  0
  8  9  1  0
  8  7  1  0
 10  9  1  0
 10 19  1  0
 10 11  1  0
 12 11  1  0
 13  6  2  0
 14 15  1  0
 16 17  2  0
 17 36  1  0
 18 17  1  0
 18 21  1  0
 19 20  1  0
 19 16  1  0
 20 18  2  0
 21 22  1  0
 22 23  2  0
 24 27  1  0
 24 23  1  0
 25 24  2  0
 26 25  1  0
 26 21  2  0
 27 28  1  0
 28 33  2  0
 28 29  1  0
 29 30  2  0
 30 31  1  0
 31 35  1  0
 32 31  2  0
 33 32  1  0
 34 33  1  0
 36 37  1  0
 37 40  1  0
 37 39  1  0
 38 36  2  0
 41 16  1  0
 41 42  1  0
 43 41  1  0
 44  5  1  0
 45 48  1  0
 45 44  1  0
 46 44  2  0
 47 45  1  0
 49 50  1  0
 49  1  1  0
 51 50  1  0
 52 51  1  0
 53 52  1  0
 54 53  1  0
 55 54  1  0
 55 57  1  0
 56 67  2  0
 57 62  1  0
 58 66  1  0
 58 68  1  0
 59 61  1  0
 59 65  1  0
 60 66  1  0
 61 60  1  0
 62 61  2  0
 63 64  1  0
 63 57  2  0
 64 59  2  0
 65 58  1  0
 66 56  1  0
 68 70  2  0
 69 68  1  0
 71 69  1  0
 72 81  2  0
 72 77  1  0
 73 69  1  0
 73 77  1  0
 74 73  1  0
 75 76  1  0
 75 74  1  0
 76 72  1  0
 77 78  2  0
 78 79  1  0
 80 79  2  0
 81 80  1  0
 82 56  1  0
 82 87  1  0
 82 83  1  0
 83 86  1  1
 83 84  1  0
 85 83  1  0
 87 90  1  0
 88 87  1  0
 88 92  1  0
 89 88  2  0
 92 91  1  0
 92 94  1  0
 94 95  1  0
 94 93  1  0
M  ISO  4   6 100  14 100  54 101  55 101
M  END
>  <TORSDO>  (53) 
F 27

>  <SCORE>  (53) 
-6.637

>  <name>  (53) 
52

>  <ligand_id>  (53) 
52

>  <original_smiles>  (53) 
[H]c1c([H])c([H])c2c(c1[H])C([H])([H])C([H])([H])C([H])([H])C2([H])N([H])C(=O)C1([H])N(C(=O)C([H])(N([H])C(=O)C([H])(N([H])C([H])([H])[H])C([H])([H])[H])C(C([H])([H])[H])(C([H])([H])[H])C([H])([H])[H])C([H])([H])c2c([H])c(OC([H])([H])C([H])([H])OC([H])([H])C([H])([H])OC([H])([H])C([H])([H])OC([H])([H])C([H])(C(=O)N([H])[H])N([H])C(=O)N3C([H])([H])C([H])([H])C([H])([H])C([H])(n4nc(-c5c([H])c([H])c(Oc6c([H])c([H])c(F)c([H])c6F)c([H])c5[H])c(C(=O)N([H])[H])c4N([H])[H])C3([H])[H])c([H])c([H])c2C1([H])[H]

>  <smiles>  (53) 
[H]c1c([H])c([H])c2c(c1[H])C([H])([H])C([H])([H])C([H])([H])C2([H])N([H])C(=O)C1([H])N(C(=O)C([H])(N([H])C(=O)C([H])(N([H])C([H])([H])[H])C([H])([H])[H])C(C([H])([H])[H])(C([H])([H])[H])C([H])([H])[H])C([H])([H])c2c([H])c(OC([H])([H])C([H])([H])OC([H])([H])C([H])([H])OC([H])([H])C([H])([H])OC([H])([H])C([H])(C(=O)N([H])[H])N([H])C(=O)N3C([H])([H])C([H])([H])C([H])([H])C([H])(n4nc(-c5c([H])c([H])c(Oc6c([H])c([H])c(F)c([H])c6F)c([H])c5[H])c(C(=O)N([H])[H])c4N([H])[H])C3([H])[H])c([H])c([H])c2C1([H])[H]

$$$$
53:0:0
     RDKit          3D

101108  0  0  1  0  0  0  0  0999 V2000
  -27.5620  -20.5540   25.9710 C   0  0  0  0  0  2  0  0  0  0  0  0
  -27.4090  -20.9280   27.3360 O   0  0  0  0  0  0  0  0  0  0  0  0
  -26.0700  -20.8910   27.8270 C   0  0  0  0  0  2  0  0  0  0  0  0
  -25.7180  -22.2780   28.3940 C   0  0  0  0  0  2  0  0  0  0  0  0
  -25.5560  -23.1790   27.3050 O   0  0  0  0  0  0  0  0  0  0  0  0
  -25.3410  -24.5260   27.7050 C   0  0  0  0  0  2  0  0  0  0  0  0
  -25.9120  -25.4600   26.6300 C   0  0  0  0  0  2  0  0  0  0  0  0
  -27.2750  -25.1380   26.3660 O   0  0  0  0  0  0  0  0  0  0  0  0
  -27.7320  -25.8040   25.1960 C   0  0  0  0  0  2  0  0  0  0  0  0
  -28.9260  -25.0960   24.5100 C   0  0  0  0  0  2  0  0  0  0  0  0
  -29.2930  -25.7310   23.2790 O   0  0  0  0  0  0  0  0  0  0  0  0
  -24.9830  -31.3420   23.4870 C   0  0  0  0  0  0  0  0  0  0  0  0
  -28.2410  -26.3670   22.6780 C   0  0  0  0  0  0  0  0  0  0  0  0
  -24.2360  -29.4610   22.0700 C   0  0  0  0  0  3  0  0  0  0  0  0
  -25.9780  -27.6530   21.6150 C   0  0  0  0  0  0  0  0  0  0  0  0
  -26.7270  -29.8870   22.4650 C   0  0  0  0  0  2  0  0  0  0  0  0
  -26.9480  -28.3990   22.2940 C   0  0  0  0  0  0  0  0  0  0  0  0
  -28.0920  -27.7620   22.8130 C   0  0  0  0  0  3  0  0  0  0  0  0
  -27.2640  -25.6210   21.9870 C   0  0  0  0  0  3  0  0  0  0  0  0
  -26.1260  -26.2640   21.4600 C   0  0  0  0  0  3  0  0  0  0  0  0
  -24.7940  -28.4170   21.0700 C   0  0  0  0  0  2  0  0  0  0  0  0
  -25.3170  -30.2610   22.7270 N   0  0  0  0  0  0  0  0  0  0  0  0
  -23.8030  -31.7020   23.6020 O   0  0  0  0  0  0  0  0  0  0  0  0
  -23.3120  -28.7310   23.0700 C   0  0  0  0  0  0  0  0  0  0  0  0
  -22.0350  -28.5600   22.6900 N   0  0  0  0  0  0  0  0  0  0  0  0
  -23.7490  -28.3090   24.1450 O   0  0  0  0  0  0  0  0  0  0  0  0
  -21.7530  -28.9380   21.7950 H   0  0  0  0  0  0  0  0  0  0  0  0
  -18.4650  -28.1430   23.0020 C   0  0  0  0  0  0  0  0  0  0  0  0
  -20.9940  -27.8760   23.4540 C   0  0  0  0  0  3  0  0  0  0  0  0
  -20.8230  -26.4150   22.9740 C   0  0  0  0  0  2  0  0  0  0  0  0
  -19.7470  -26.2600   21.8940 C   0  0  0  0  0  2  0  0  0  0  0  0
  -18.3900  -26.7400   22.4180 C   0  0  0  0  0  2  0  0  0  0  0  0
  -19.6900  -28.6800   23.4730 C   0  0  0  0  0  0  0  0  0  0  0  0
  -19.7090  -30.0030   23.9680 C   0  0  0  0  0  3  0  0  0  0  0  0
  -18.5350  -30.7790   24.0000 C   0  0  0  0  0  3  0  0  0  0  0  0
  -17.3210  -30.2300   23.5490 C   0  0  0  0  0  3  0  0  0  0  0  0
  -17.2860  -28.9150   23.0570 C   0  0  0  0  0  3  0  0  0  0  0  0
  -26.0650  -32.1910   24.2230 C   0  0  0  0  0  3  0  0  0  0  0  0
  -25.4790  -33.5090   24.4950 N   0  0  0  0  0  0  0  0  0  0  0  0
  -25.7220  -34.6090   23.7690 C   0  0  0  0  0  0  0  0  0  0  0  0
  -26.5260  -34.6290   22.8340 O   0  0  0  0  0  0  0  0  0  0  0  0
  -24.7570  -33.5470   25.2010 H   0  0  0  0  0  0  0  0  0  0  0  0
  -23.7440  -36.0560   23.2000 C   0  0  0  0  0  1  0  0  0  0  0  0
  -24.9490  -35.8900   24.1400 C   0  0  0  0  0  3  0  0  0  0  0  0
  -26.8190  -37.1370   25.1270 C   0  0  0  0  0  1  0  0  0  0  0  0
  -25.7810  -37.1110   24.0990 N   0  0  0  0  0  0  0  0  0  0  0  0
  -25.2090  -37.9450   24.2050 H   0  0  0  0  0  0  0  0  0  0  0  0
  -26.5780  -31.5180   25.5570 C   0  0  1  0  0  0  0  0  0  0  0  0
  -25.4540  -30.8560   26.3910 C   0  0  0  0  0  1  0  0  0  0  0  0
  -27.6400  -30.4350   25.2480 C   0  0  0  0  0  1  0  0  0  0  0  0
  -27.2800  -32.5790   26.4380 C   0  0  0  0  0  1  0  0  0  0  0  0
  -28.3130  -21.6460   25.1820 C   0  0  0  0  0  2  0  0  0  0  0  0
  -28.7500  -21.1260   23.9310 O   0  0  0  0  0  0  0  0  0  0  0  0
  -29.3670  -22.1080   23.1080 C   0  0  0  0  0  2  0  0  0  0  0  0
  -28.9850  -21.8380   21.6490 C   0  0  0  0  0  2  0  0  0  0  0  0
  -29.1170  -19.7420   20.2960 C   0  0  0  0  0  0  0  0  0  0  0  0
  -29.6410  -20.6270   21.1570 N   0  0  0  0  0  0  0  0  0  0  0  0
  -27.9900  -19.8380   19.7990 O   0  0  0  0  0  0  0  0  0  0  0  0
  -30.5810  -20.4550   21.4850 H   0  0  0  0  0  0  0  0  0  0  0  0
  -30.0870  -18.5730   19.9460 C   0  0  0  0  0  0  0  0  0  0  0  0
  -30.3330  -18.3270   18.7610 O   0  0  0  0  0  0  0  0  0  0  0  0
  -30.4650  -18.4360   22.4430 C   0  0  0  0  0  1  0  0  0  0  0  0
  -30.7490  -17.7470   21.0920 C   0  0  0  0  0  3  0  0  0  0  0  0
  -30.7680  -15.3480   20.3940 C   0  0  0  0  0  0  0  0  0  0  0  0
  -30.9750  -12.8960   20.3140 C   0  0  0  0  0  2  0  0  0  0  0  0
  -30.1860  -12.2350   19.1730 C   0  0  0  0  0  2  0  0  0  0  0  0
  -28.7410  -11.9530   19.6130 C   0  0  0  0  0  2  0  0  0  0  0  0
  -28.0530  -13.2050   20.2130 C   0  0  0  0  0  3  0  0  0  0  0  0
  -28.9460  -13.8640   21.2910 C   0  0  0  0  0  2  0  0  0  0  0  0
  -30.2870  -14.1270   20.7260 N   0  0  0  0  0  0  0  0  0  0  0  0
  -31.6700  -15.5340   19.5720 O   0  0  0  0  0  0  0  0  0  0  0  0
  -30.3140  -16.3450   21.1670 N   0  0  0  0  0  0  0  0  0  0  0  0
  -29.6550  -16.0960   21.8910 H   0  0  0  0  0  0  0  0  0  0  0  0
  -25.6800  -13.7220   21.0770 C   0  0  0  0  0  0  0  0  0  0  0  0
  -24.6480  -12.9070   21.4620 C   0  0  0  0  0  0  0  0  0  0  0  0
  -25.1310  -11.5690   21.3290 C   0  0  0  0  0  0  0  0  0  0  0  0
  -26.7290  -12.8770   20.7430 N   0  0  0  0  0  0  0  0  0  0  0  0
  -26.4030  -11.5760   20.9490 N   0  0  0  0  0  0  0  0  0  0  0  0
  -24.4400  -10.2820   21.4880 C   0  0  0  0  0  0  0  0  0  0  0  0
  -24.6510   -9.4630   22.6190 C   0  0  0  0  0  3  0  0  0  0  0  0
  -23.9600   -8.2390   22.7550 C   0  0  0  0  0  3  0  0  0  0  0  0
  -23.0460   -7.8250   21.7570 C   0  0  0  0  0  0  0  0  0  0  0  0
  -22.8580   -8.6330   20.6220 C   0  0  0  0  0  3  0  0  0  0  0  0
  -23.5490   -9.8490   20.4850 C   0  0  0  0  0  3  0  0  0  0  0  0
  -22.3520   -6.6400   21.7910 O   0  0  0  0  0  0  0  0  0  0  0  0
  -21.5060   -6.3330   22.8270 C   0  0  0  0  0  0  0  0  0  0  0  0
  -20.4010   -7.1480   23.1540 C   0  0  0  0  0  3  0  0  0  0  0  0
  -19.5170   -6.7580   24.1800 C   0  0  0  0  0  3  0  0  0  0  0  0
  -19.7300   -5.5540   24.8740 C   0  0  0  0  0  0  0  0  0  0  0  0
  -20.8290   -4.7360   24.5480 C   0  0  0  0  0  3  0  0  0  0  0  0
  -21.7120   -5.1250   23.5250 C   0  0  0  0  0  0  0  0  0  0  0  0
  -22.7550   -4.3250   23.1990 F   0  0  0  0  0  0  0  0  0  0  0  0
  -18.8780   -5.1740   25.8550 F   0  0  0  0  0  0  0  0  0  0  0  0
  -23.2600  -13.3390   21.8360 C   0  0  0  0  0  0  0  0  0  0  0  0
  -22.6350  -12.6450   22.7840 N   0  0  0  0  0  0  0  0  0  0  0  0
  -22.7360  -14.3260   21.3200 O   0  0  0  0  0  0  0  0  0  0  0  0
  -23.0690  -11.8470   23.2210 H   0  0  0  0  0  0  0  0  0  0  0  0
  -21.7080  -12.9220   23.0760 H   0  0  0  0  0  0  0  0  0  0  0  0
  -25.8110  -15.0990   20.9670 N   0  0  0  0  0  0  0  0  0  0  0  0
  -25.0470  -15.7380   21.1620 H   0  0  0  0  0  0  0  0  0  0  0  0
  -26.6340  -15.5590   20.6000 H   0  0  0  0  0  0  0  0  0  0  0  0
  1  2  1  0
  2  3  1  0
  3  4  1  0
  5  6  1  0
  5  4  1  0
  7  6  1  0
  8  7  1  0
  9  8  1  0
 10  9  1  0
 11 10  1  0
 12 23  2  0
 13 18  1  0
 13 11  1  0
 14 22  1  0
 14 24  1  0
 15 17  1  0
 16 22  1  0
 17 16  1  0
 17 18  2  0
 19 13  2  0
 20 15  2  0
 20 19  1  0
 21 15  1  0
 21 14  1  0
 22 12  1  0
 24 26  2  0
 25 24  1  0
 27 25  1  0
 28 37  2  0
 28 33  1  0
 29 25  1  0
 29 33  1  0
 30 29  1  0
 31 32  1  0
 31 30  1  0
 32 28  1  0
 33 34  2  0
 34 35  1  0
 36 35  2  0
 37 36  1  0
 38 12  1  0
 38 39  1  0
 38 48  1  0
 39 42  1  0
 40 44  1  0
 40 39  1  0
 41 40  2  0
 44 43  1  0
 46 44  1  0
 46 47  1  0
 46 45  1  0
 48 49  1  1
 48 51  1  0
 50 48  1  0
 52  1  1  0
 53 52  1  0
 54 53  1  0
 55 54  1  0
 56 57  1  0
 57 59  1  0
 57 55  1  0
 58 56  2  0
 60 56  1  0
 60 63  1  0
 61 60  2  0
 63 72  1  0
 63 62  1  0
 64 70  1  0
 64 72  1  0
 65 70  1  0
 66 67  1  0
 66 65  1  0
 68 67  1  0
 68 77  1  0
 68 69  1  0
 70 69  1  0
 71 64  2  0
 72 73  1  0
 74 75  2  0
 75 94  1  0
 76 75  1  0
 76 79  1  0
 77 78  1  0
 77 74  1  0
 78 76  2  0
 79 80  1  0
 80 81  2  0
 82 85  1  0
 82 81  1  0
 83 82  2  0
 84 83  1  0
 84 79  2  0
 85 86  1  0
 86 87  2  0
 86 91  1  0
 87 88  1  0
 88 89  2  0
 89 93  1  0
 90 89  1  0
 91 90  2  0
 92 91  1  0
 94 95  1  0
 95 98  1  0
 95 97  1  0
 96 94  2  0
 99 74  1  0
 99100  1  0
101 99  1  0
M  ISO  4  10 101  11 101  64 100  72 100
M  END
>  <TORSDO>  (54) 
F 32

>  <SCORE>  (54) 
12.730

>  <name>  (54) 
53

>  <ligand_id>  (54) 
53

>  <original_smiles>  (54) 
[H]c1c([H])c([H])c2c(c1[H])C([H])([H])C([H])([H])C([H])([H])C2([H])N([H])C(=O)C1([H])N(C(=O)C([H])(N([H])C(=O)C([H])(N([H])C([H])([H])[H])C([H])([H])[H])C(C([H])([H])[H])(C([H])([H])[H])C([H])([H])[H])C([H])([H])c2c([H])c(OC([H])([H])C([H])([H])OC([H])([H])C([H])([H])OC([H])([H])C([H])([H])OC([H])([H])C([H])([H])OC([H])([H])C([H])([H])N([H])C(=O)C(=O)C([H])(N([H])C(=O)N3C([H])([H])C([H])([H])C([H])([H])C([H])(n4nc(-c5c([H])c([H])c(Oc6c([H])c([H])c(F)c([H])c6F)c([H])c5[H])c(C(=O)N([H])[H])c4N([H])[H])C3([H])[H])C([H])([H])[H])c([H])c([H])c2C1([H])[H]

>  <smiles>  (54) 
[H]c1c([H])c([H])c2c(c1[H])C([H])([H])C([H])([H])C([H])([H])C2([H])N([H])C(=O)C1([H])N(C(=O)C([H])(N([H])C(=O)C([H])(N([H])C([H])([H])[H])C([H])([H])[H])C(C([H])([H])[H])(C([H])([H])[H])C([H])([H])[H])C([H])([H])c2c([H])c(OC([H])([H])C([H])([H])OC([H])([H])C([H])([H])OC([H])([H])C([H])([H])OC([H])([H])C([H])([H])OC([H])([H])C([H])([H])N([H])C(=O)C(=O)C([H])(N([H])C(=O)N3C([H])([H])C([H])([H])C([H])([H])C([H])(n4nc(-c5c([H])c([H])c(Oc6c([H])c([H])c(F)c([H])c6F)c([H])c5[H])c(C(=O)N([H])[H])c4N([H])[H])C3([H])[H])C([H])([H])[H])c([H])c([H])c2C1([H])[H]

$$$$
54:0:0
     RDKit          3D

 95102  0  0  1  0  0  0  0  0999 V2000
  -30.6810  -20.9130   18.5770 C   0  0  0  0  0  2  0  0  0  0  0  0
  -30.7340  -22.3350   18.5780 O   0  0  0  0  0  0  0  0  0  0  0  0
  -31.6330  -22.8240   19.5680 C   0  0  0  0  0  2  0  0  0  0  0  0
  -31.8240  -24.3420   19.4240 C   0  0  0  0  0  2  0  0  0  0  0  0
  -30.7550  -25.0550   20.0390 O   0  0  0  0  0  0  0  0  0  0  0  0
  -30.7980  -26.4490   19.7440 C   0  0  0  0  0  2  0  0  0  0  0  0
  -29.6880  -27.2110   20.4870 C   0  0  0  0  0  2  0  0  0  0  0  0
  -28.4300  -26.6640   20.1050 O   0  0  0  0  0  0  0  0  0  0  0  0
  -24.6020  -31.8690   23.2350 C   0  0  0  0  0  0  0  0  0  0  0  0
  -27.2930  -27.4360   20.1980 C   0  0  0  0  0  0  0  0  0  0  0  0
  -23.4070  -30.4500   21.5950 C   0  0  0  0  0  3  0  0  0  0  0  0
  -24.8740  -28.8990   20.2020 C   0  0  0  0  0  0  0  0  0  0  0  0
  -25.9290  -30.8160   21.4130 C   0  0  0  0  0  2  0  0  0  0  0  0
  -26.0220  -29.4400   20.7940 C   0  0  0  0  0  0  0  0  0  0  0  0
  -27.2320  -28.7140   20.8030 C   0  0  0  0  0  3  0  0  0  0  0  0
  -26.1250  -26.8960   19.6250 C   0  0  0  0  0  3  0  0  0  0  0  0
  -24.9160  -27.6190   19.6220 C   0  0  0  0  0  3  0  0  0  0  0  0
  -23.6260  -29.7520   20.2270 C   0  0  0  0  0  2  0  0  0  0  0  0
  -24.6620  -31.0600   22.1400 N   0  0  0  0  0  0  0  0  0  0  0  0
  -23.5180  -32.1470   23.7650 O   0  0  0  0  0  0  0  0  0  0  0  0
  -22.7490  -29.4410   22.5620 C   0  0  0  0  0  0  0  0  0  0  0  0
  -21.4240  -29.2640   22.4270 N   0  0  0  0  0  0  0  0  0  0  0  0
  -23.4250  -28.8190   23.3850 O   0  0  0  0  0  0  0  0  0  0  0  0
  -20.9430  -29.8170   21.7310 H   0  0  0  0  0  0  0  0  0  0  0  0
  -18.0390  -28.0940   22.9120 C   0  0  0  0  0  0  0  0  0  0  0  0
  -20.5970  -28.3350   23.1970 C   0  0  0  0  0  3  0  0  0  0  0  0
  -20.6930  -26.9000   22.6280 C   0  0  0  0  0  2  0  0  0  0  0  0
  -19.5950  -26.5810   21.6110 C   0  0  0  0  0  2  0  0  0  0  0  0
  -18.2100  -26.7390   22.2470 C   0  0  0  0  0  2  0  0  0  0  0  0
  -19.1610  -28.8510   23.3440 C   0  0  0  0  0  0  0  0  0  0  0  0
  -18.9480  -30.1200   23.9240 C   0  0  0  0  0  3  0  0  0  0  0  0
  -17.6460  -30.6320   24.0790 C   0  0  0  0  0  3  0  0  0  0  0  0
  -16.5400  -29.8720   23.6640 C   0  0  0  0  0  3  0  0  0  0  0  0
  -16.7370  -28.6050   23.0870 C   0  0  0  0  0  3  0  0  0  0  0  0
  -25.8860  -32.5000   23.8590 C   0  0  0  0  0  3  0  0  0  0  0  0
  -26.4030  -31.7290   25.1360 C   0  0  1  0  0  0  0  0  0  0  0  0
  -25.3090  -31.4930   26.2030 C   0  0  0  0  0  1  0  0  0  0  0  0
  -26.9870  -30.3520   24.7420 C   0  0  0  0  0  1  0  0  0  0  0  0
  -27.5520  -32.5260   25.7970 C   0  0  0  0  0  1  0  0  0  0  0  0
  -25.5780  -33.8990   24.1840 N   0  0  0  0  0  0  0  0  0  0  0  0
  -25.9170  -34.9480   23.4220 C   0  0  0  0  0  0  0  0  0  0  0  0
  -26.5940  -34.8400   22.3960 O   0  0  0  0  0  0  0  0  0  0  0  0
  -24.9770  -34.0560   24.9800 H   0  0  0  0  0  0  0  0  0  0  0  0
  -24.1920  -36.7390   23.0460 C   0  0  0  0  0  1  0  0  0  0  0  0
  -25.4260  -36.3380   23.8700 C   0  0  0  0  0  3  0  0  0  0  0  0
  -27.5550  -37.2220   24.7140 C   0  0  0  0  0  1  0  0  0  0  0  0
  -26.4620  -37.3890   23.7590 N   0  0  0  0  0  0  0  0  0  0  0  0
  -26.0570  -38.3110   23.8970 H   0  0  0  0  0  0  0  0  0  0  0  0
  -29.7740  -20.4080   17.4430 C   0  0  0  0  0  2  0  0  0  0  0  0
  -28.3850  -20.6440   17.6930 O   0  0  0  0  0  0  0  0  0  0  0  0
  -27.6420  -19.5460   18.2400 C   0  0  0  0  0  2  0  0  0  0  0  0
  -28.1030  -19.2000   19.6660 C   0  0  0  0  0  0  0  0  0  0  0  0
  -28.6670  -17.9990   19.8520 N   0  0  0  0  0  0  0  0  0  0  0  0
  -27.9860  -20.0300   20.5700 O   0  0  0  0  0  0  0  0  0  0  0  0
  -28.7140  -17.3830   19.0510 H   0  0  0  0  0  0  0  0  0  0  0  0
  -29.2450  -17.5190   21.1060 C   0  0  0  0  0  2  0  0  0  0  0  0
  -30.4830  -16.6400   20.8450 C   0  0  0  0  0  2  0  0  0  0  0  0
  -30.8090  -14.2530   20.1650 C   0  0  0  0  0  0  0  0  0  0  0  0
  -30.4190  -12.1600   18.9310 C   0  0  0  0  0  2  0  0  0  0  0  0
  -29.4150  -12.4310   17.7910 C   0  0  0  0  0  2  0  0  0  0  0  0
  -27.9580  -12.3330   18.2850 C   0  0  0  0  0  2  0  0  0  0  0  0
  -27.7170  -13.1290   19.5940 C   0  0  0  0  0  3  0  0  0  0  0  0
  -28.8110  -12.7990   20.6340 C   0  0  0  0  0  2  0  0  0  0  0  0
  -30.1170  -13.0940   20.0210 N   0  0  0  0  0  0  0  0  0  0  0  0
  -31.9150  -14.4570   19.6580 O   0  0  0  0  0  0  0  0  0  0  0  0
  -30.1140  -15.2310   20.7620 N   0  0  0  0  0  0  0  0  0  0  0  0
  -29.1970  -14.9820   21.1070 H   0  0  0  0  0  0  0  0  0  0  0  0
  -25.3620  -13.8060   20.3780 C   0  0  0  0  0  0  0  0  0  0  0  0
  -24.2880  -13.0630   20.7860 C   0  0  0  0  0  0  0  0  0  0  0  0
  -24.7100  -11.6980   20.7370 C   0  0  0  0  0  0  0  0  0  0  0  0
  -26.3750  -12.8970   20.1200 N   0  0  0  0  0  0  0  0  0  0  0  0
  -25.9860  -11.6240   20.3870 N   0  0  0  0  0  0  0  0  0  0  0  0
  -23.9610  -10.4540   20.9540 C   0  0  0  0  0  0  0  0  0  0  0  0
  -24.4080   -9.4720   21.8640 C   0  0  0  0  0  3  0  0  0  0  0  0
  -23.6610   -8.2920   22.0690 C   0  0  0  0  0  3  0  0  0  0  0  0
  -22.4540   -8.0860   21.3610 C   0  0  0  0  0  0  0  0  0  0  0  0
  -22.0220   -9.0580   20.4400 C   0  0  0  0  0  3  0  0  0  0  0  0
  -22.7690  -10.2290   20.2350 C   0  0  0  0  0  3  0  0  0  0  0  0
  -21.6740   -6.9590   21.4760 O   0  0  0  0  0  0  0  0  0  0  0  0
  -21.6600   -6.2090   22.6240 C   0  0  0  0  0  0  0  0  0  0  0  0
  -21.3210   -6.7670   23.8760 C   0  0  0  0  0  3  0  0  0  0  0  0
  -21.2530   -5.9440   25.0170 C   0  0  0  0  0  3  0  0  0  0  0  0
  -21.5170   -4.5650   24.9090 C   0  0  0  0  0  0  0  0  0  0  0  0
  -21.8520   -4.0080   23.6620 C   0  0  0  0  0  3  0  0  0  0  0  0
  -21.9210   -4.8280   22.5230 C   0  0  0  0  0  0  0  0  0  0  0  0
  -22.2220   -4.2820   21.3190 F   0  0  0  0  0  0  0  0  0  0  0  0
  -21.4440   -3.7730   26.0030 F   0  0  0  0  0  0  0  0  0  0  0  0
  -22.9150  -13.5720   21.1110 C   0  0  0  0  0  0  0  0  0  0  0  0
  -22.2080  -12.8970   22.0090 N   0  0  0  0  0  0  0  0  0  0  0  0
  -22.4800  -14.6050   20.6020 O   0  0  0  0  0  0  0  0  0  0  0  0
  -22.5690  -12.0580   22.4410 H   0  0  0  0  0  0  0  0  0  0  0  0
  -21.2890  -13.2240   22.2700 H   0  0  0  0  0  0  0  0  0  0  0  0
  -25.5590  -15.1740   20.1900 N   0  0  0  0  0  0  0  0  0  0  0  0
  -24.8270  -15.8550   20.3540 H   0  0  0  0  0  0  0  0  0  0  0  0
  -26.4140  -15.5840   19.8350 H   0  0  0  0  0  0  0  0  0  0  0  0
  1  2  1  0
  2  3  1  0
  4  3  1  0
  4  5  1  0
  6  5  1  0
  6  7  1  0
  8 10  1  0
  8  7  1  0
  9 20  2  0
 10 15  1  0
 11 19  1  0
 11 21  1  0
 12 18  1  0
 12 14  1  0
 13 19  1  0
 14 15  2  0
 14 13  1  0
 16 10  2  0
 17 16  1  0
 17 12  2  0
 18 11  1  0
 19  9  1  0
 21 23  2  0
 22 21  1  0
 24 22  1  0
 25 34  2  0
 25 30  1  0
 26 22  1  0
 26 30  1  0
 27 26  1  0
 28 29  1  0
 28 27  1  0
 29 25  1  0
 30 31  2  0
 31 32  1  0
 33 32  2  0
 34 33  1  0
 35  9  1  0
 35 40  1  0
 35 36  1  0
 36 39  1  1
 36 37  1  0
 38 36  1  0
 40 43  1  0
 41 45  1  0
 41 40  1  0
 42 41  2  0
 45 44  1  0
 47 45  1  0
 47 48  1  0
 47 46  1  0
 49 50  1  0
 49  1  1  0
 50 51  1  0
 51 52  1  0
 52 53  1  0
 52 54  2  0
 53 56  1  0
 55 53  1  0
 57 56  1  0
 58 66  1  0
 59 64  1  0
 60 61  1  0
 60 59  1  0
 62 61  1  0
 62 71  1  0
 62 63  1  0
 64 58  1  0
 64 63  1  0
 65 58  2  0
 66 57  1  0
 66 67  1  0
 68 69  2  0
 69 88  1  0
 70 69  1  0
 70 73  1  0
 71 68  1  0
 71 72  1  0
 72 70  2  0
 73 74  1  0
 74 75  2  0
 76 79  1  0
 76 75  1  0
 77 76  2  0
 78 77  1  0
 78 73  2  0
 79 80  1  0
 80 81  1  0
 81 82  2  0
 83 82  1  0
 83 87  1  0
 84 83  2  0
 85 80  2  0
 85 84  1  0
 86 85  1  0
 88 89  1  0
 89 92  1  0
 89 91  1  0
 90 88  2  0
 93 94  1  0
 93 68  1  0
 95 93  1  0
M  ISO  4   7 101   8 101  58 100  66 100
M  END
>  <TORSDO>  (55) 
F 28

>  <SCORE>  (55) 
-11.351

>  <name>  (55) 
54

>  <ligand_id>  (55) 
54

>  <original_smiles>  (55) 
[H]c1c([H])c([H])c2c(c1[H])C([H])([H])C([H])([H])C([H])([H])C2([H])N([H])C(=O)C1([H])N(C(=O)C([H])(N([H])C(=O)C([H])(N([H])C([H])([H])[H])C([H])([H])[H])C(C([H])([H])[H])(C([H])([H])[H])C([H])([H])[H])C([H])([H])c2c([H])c(OC([H])([H])C([H])([H])OC([H])([H])C([H])([H])OC([H])([H])C([H])([H])OC([H])([H])C(=O)N([H])C([H])([H])C([H])([H])N([H])C(=O)N3C([H])([H])C([H])([H])C([H])([H])C([H])(n4nc(-c5c([H])c([H])c(Oc6c([H])c([H])c(F)c([H])c6F)c([H])c5[H])c(C(=O)N([H])[H])c4N([H])[H])C3([H])[H])c([H])c([H])c2C1([H])[H]

>  <smiles>  (55) 
[H]c1c([H])c([H])c2c(c1[H])C([H])([H])C([H])([H])C([H])([H])C2([H])N([H])C(=O)C1([H])N(C(=O)C([H])(N([H])C(=O)C([H])(N([H])C([H])([H])[H])C([H])([H])[H])C(C([H])([H])[H])(C([H])([H])[H])C([H])([H])[H])C([H])([H])c2c([H])c(OC([H])([H])C([H])([H])OC([H])([H])C([H])([H])OC([H])([H])C([H])([H])OC([H])([H])C(=O)N([H])C([H])([H])C([H])([H])N([H])C(=O)N3C([H])([H])C([H])([H])C([H])([H])C([H])(n4nc(-c5c([H])c([H])c(Oc6c([H])c([H])c(F)c([H])c6F)c([H])c5[H])c(C(=O)N([H])[H])c4N([H])[H])C3([H])[H])c([H])c([H])c2C1([H])[H]

$$$$
55:0:0
     RDKit          3D

 94101  0  0  1  0  0  0  0  0999 V2000
  -32.0410  -21.3030   23.5100 C   0  0  0  0  0  2  0  0  0  0  0  0
  -30.6280  -21.3850   23.6780 O   0  0  0  0  0  0  0  0  0  0  0  0
  -30.0580  -22.5880   23.1610 C   0  0  0  0  0  2  0  0  0  0  0  0
  -29.9430  -22.5940   21.6180 C   0  0  0  0  0  2  0  0  0  0  0  0
  -28.9860  -23.5520   21.1670 O   0  0  0  0  0  0  0  0  0  0  0  0
  -29.4570  -24.9000   21.1600 C   0  0  0  0  0  2  0  0  0  0  0  0
  -28.2840  -25.8560   20.8360 C   0  0  0  0  0  2  0  0  0  0  0  0
  -28.2310  -26.9050   19.8760 O   0  0  0  0  0  0  0  0  0  0  0  0
  -24.5360  -31.9270   23.2740 C   0  0  0  0  0  0  0  0  0  0  0  0
  -27.0590  -27.6170   19.9540 C   0  0  0  0  0  0  0  0  0  0  0  0
  -23.2600  -30.5680   21.6470 C   0  0  0  0  0  3  0  0  0  0  0  0
  -24.6550  -29.0760   20.1200 C   0  0  0  0  0  0  0  0  0  0  0  0
  -25.7710  -30.9530   21.3440 C   0  0  0  0  0  2  0  0  0  0  0  0
  -25.8340  -29.6050   20.6620 C   0  0  0  0  0  0  0  0  0  0  0  0
  -27.0410  -28.8820   20.5710 C   0  0  0  0  0  3  0  0  0  0  0  0
  -25.8670  -27.0830   19.4200 C   0  0  0  0  0  3  0  0  0  0  0  0
  -24.6650  -27.8140   19.4990 C   0  0  0  0  0  3  0  0  0  0  0  0
  -23.4080  -29.9220   20.2440 C   0  0  0  0  0  2  0  0  0  0  0  0
  -24.5430  -31.1640   22.1460 N   0  0  0  0  0  0  0  0  0  0  0  0
  -23.4790  -32.1820   23.8700 O   0  0  0  0  0  0  0  0  0  0  0  0
  -22.6560  -29.5190   22.6070 C   0  0  0  0  0  0  0  0  0  0  0  0
  -21.3410  -29.2840   22.4780 N   0  0  0  0  0  0  0  0  0  0  0  0
  -23.3660  -28.9180   23.4170 O   0  0  0  0  0  0  0  0  0  0  0  0
  -20.8280  -29.8240   21.7960 H   0  0  0  0  0  0  0  0  0  0  0  0
  -18.0300  -27.9070   22.9140 C   0  0  0  0  0  0  0  0  0  0  0  0
  -20.5610  -28.3120   23.2460 C   0  0  0  0  0  3  0  0  0  0  0  0
  -20.7590  -26.8790   22.7000 C   0  0  0  0  0  2  0  0  0  0  0  0
  -19.7050  -26.4790   21.6650 C   0  0  0  0  0  2  0  0  0  0  0  0
  -18.3000  -26.5590   22.2710 C   0  0  0  0  0  2  0  0  0  0  0  0
  -19.0930  -28.7370   23.3580 C   0  0  0  0  0  0  0  0  0  0  0  0
  -18.7910  -29.9980   23.9180 C   0  0  0  0  0  3  0  0  0  0  0  0
  -17.4560  -30.4280   24.0440 C   0  0  0  0  0  3  0  0  0  0  0  0
  -16.4070  -29.5920   23.6210 C   0  0  0  0  0  3  0  0  0  0  0  0
  -16.6950  -28.3370   23.0580 C   0  0  0  0  0  3  0  0  0  0  0  0
  -25.8490  -32.5420   23.8550 C   0  0  0  0  0  3  0  0  0  0  0  0
  -26.3890  -31.7740   25.1210 C   0  0  1  0  0  0  0  0  0  0  0  0
  -25.3180  -31.5510   26.2140 C   0  0  0  0  0  1  0  0  0  0  0  0
  -26.9560  -30.3940   24.7160 C   0  0  0  0  0  1  0  0  0  0  0  0
  -27.5560  -32.5660   25.7570 C   0  0  0  0  0  1  0  0  0  0  0  0
  -25.5730  -33.9480   24.1780 N   0  0  0  0  0  0  0  0  0  0  0  0
  -25.9240  -34.9880   23.4130 C   0  0  0  0  0  0  0  0  0  0  0  0
  -26.5890  -34.8680   22.3790 O   0  0  0  0  0  0  0  0  0  0  0  0
  -24.9830  -34.1160   24.9770 H   0  0  0  0  0  0  0  0  0  0  0  0
  -24.2410  -36.8190   23.0490 C   0  0  0  0  0  1  0  0  0  0  0  0
  -25.4670  -36.3870   23.8670 C   0  0  0  0  0  3  0  0  0  0  0  0
  -27.6160  -37.2280   24.7070 C   0  0  0  0  0  1  0  0  0  0  0  0
  -26.5240  -37.4160   23.7570 N   0  0  0  0  0  0  0  0  0  0  0  0
  -26.1360  -38.3450   23.9000 H   0  0  0  0  0  0  0  0  0  0  0  0
  -32.5790  -19.9390   23.9710 C   0  0  0  0  0  2  0  0  0  0  0  0
  -32.1480  -18.9190   23.0810 O   0  0  0  0  0  0  0  0  0  0  0  0
  -30.9230  -18.3770   23.2240 C   0  0  0  0  0  0  0  0  0  0  0  0
  -30.1040  -18.6690   24.1040 O   0  0  0  0  0  0  0  0  0  0  0  0
  -30.5930  -17.3170   22.1350 C   0  0  0  0  0  0  0  0  0  0  0  0
  -29.4040  -17.1010   21.8560 O   0  0  0  0  0  0  0  0  0  0  0  0
  -32.3590  -17.3940   20.2650 C   0  0  0  0  0  1  0  0  0  0  0  0
  -31.7350  -16.5650   21.4100 C   0  0  0  0  0  3  0  0  0  0  0  0
  -31.6740  -14.4010   20.0770 C   0  0  0  0  0  0  0  0  0  0  0  0
  -31.1560  -12.2850   18.9180 C   0  0  0  0  0  2  0  0  0  0  0  0
  -30.1950  -12.5380   17.7410 C   0  0  0  0  0  2  0  0  0  0  0  0
  -28.7250  -12.5300   18.2130 C   0  0  0  0  0  2  0  0  0  0  0  0
  -28.4930  -13.4220   19.4590 C   0  0  0  0  0  3  0  0  0  0  0  0
  -29.5500  -13.1180   20.5400 C   0  0  0  0  0  2  0  0  0  0  0  0
  -30.8890  -13.3020   19.9410 N   0  0  0  0  0  0  0  0  0  0  0  0
  -32.7460  -14.5620   19.4860 O   0  0  0  0  0  0  0  0  0  0  0  0
  -31.1640  -15.3220   20.8970 N   0  0  0  0  0  0  0  0  0  0  0  0
  -30.2670  -15.0950   21.3020 H   0  0  0  0  0  0  0  0  0  0  0  0
  -26.1810  -14.2450   20.2440 C   0  0  0  0  0  0  0  0  0  0  0  0
  -25.0580  -13.5720   20.6450 C   0  0  0  0  0  0  0  0  0  0  0  0
  -25.3870  -12.1830   20.5820 C   0  0  0  0  0  0  0  0  0  0  0  0
  -27.1320  -13.2720   19.9760 N   0  0  0  0  0  0  0  0  0  0  0  0
  -26.6560  -12.0260   20.2300 N   0  0  0  0  0  0  0  0  0  0  0  0
  -24.5510  -10.9920   20.7800 C   0  0  0  0  0  0  0  0  0  0  0  0
  -24.9150   -9.9770   21.6930 C   0  0  0  0  0  3  0  0  0  0  0  0
  -24.0850   -8.8510   21.8790 C   0  0  0  0  0  3  0  0  0  0  0  0
  -22.8770   -8.7310   21.1530 C   0  0  0  0  0  0  0  0  0  0  0  0
  -22.5290   -9.7340   20.2320 C   0  0  0  0  0  3  0  0  0  0  0  0
  -23.3590  -10.8520   20.0430 C   0  0  0  0  0  3  0  0  0  0  0  0
  -22.0220   -7.6600   21.2480 O   0  0  0  0  0  0  0  0  0  0  0  0
  -21.8860   -6.9510   22.4140 C   0  0  0  0  0  0  0  0  0  0  0  0
  -21.4980   -7.5700   23.6230 C   0  0  0  0  0  3  0  0  0  0  0  0
  -21.3040   -6.7940   24.7820 C   0  0  0  0  0  3  0  0  0  0  0  0
  -21.4850   -5.3980   24.7330 C   0  0  0  0  0  0  0  0  0  0  0  0
  -21.8670   -4.7780   23.5300 C   0  0  0  0  0  3  0  0  0  0  0  0
  -22.0630   -5.5530   22.3730 C   0  0  0  0  0  0  0  0  0  0  0  0
  -22.4100   -4.9490   21.2110 F   0  0  0  0  0  0  0  0  0  0  0  0
  -21.2910   -4.6500   25.8440 F   0  0  0  0  0  0  0  0  0  0  0  0
  -23.7230  -14.1760   20.9730 C   0  0  0  0  0  0  0  0  0  0  0  0
  -22.9760  -13.5510   21.8770 N   0  0  0  0  0  0  0  0  0  0  0  0
  -23.3570  -15.2340   20.4640 O   0  0  0  0  0  0  0  0  0  0  0  0
  -23.2880  -12.6950   22.3100 H   0  0  0  0  0  0  0  0  0  0  0  0
  -22.0820  -13.9390   22.1430 H   0  0  0  0  0  0  0  0  0  0  0  0
  -26.4660  -15.5930   20.0620 N   0  0  0  0  0  0  0  0  0  0  0  0
  -25.7460  -16.3050   20.1220 H   0  0  0  0  0  0  0  0  0  0  0  0
  -27.3240  -15.9360   19.6460 H   0  0  0  0  0  0  0  0  0  0  0  0
  1  2  1  0
  1 49  1  0
  3  2  1  0
  4  3  1  0
  5  4  1  0
  6  5  1  0
  7  6  1  0
  8 10  1  0
  8  7  1  0
  9 20  2  0
 10 15  1  0
 11 19  1  0
 11 21  1  0
 12 18  1  0
 12 14  1  0
 13 19  1  0
 14 13  1  0
 15 14  2  0
 16 17  1  0
 16 10  2  0
 17 12  2  0
 18 11  1  0
 19  9  1  0
 21 23  2  0
 22 21  1  0
 24 22  1  0
 25 34  2  0
 25 30  1  0
 26 22  1  0
 26 30  1  0
 27 26  1  0
 28 29  1  0
 28 27  1  0
 29 25  1  0
 30 31  2  0
 31 32  1  0
 33 32  2  0
 34 33  1  0
 35  9  1  0
 35 40  1  0
 35 36  1  0
 36 39  1  1
 36 37  1  0
 38 36  1  0
 40 43  1  0
 41 45  1  0
 41 40  1  0
 42 41  2  0
 45 44  1  0
 47 45  1  0
 47 48  1  0
 47 46  1  0
 50 51  1  0
 50 49  1  0
 51 52  2  0
 53 51  1  0
 54 53  2  0
 56 55  1  0
 56 53  1  0
 57 65  1  0
 58 63  1  0
 59 60  1  0
 59 58  1  0
 61 60  1  0
 61 70  1  0
 61 62  1  0
 63 57  1  0
 63 62  1  0
 64 57  2  0
 65 66  1  0
 65 56  1  0
 67 68  2  0
 68 87  1  0
 69 68  1  0
 69 72  1  0
 70 71  1  0
 70 67  1  0
 71 69  2  0
 72 73  1  0
 73 74  2  0
 75 78  1  0
 75 74  1  0
 76 75  2  0
 77 76  1  0
 77 72  2  0
 78 79  1  0
 79 80  1  0
 80 81  2  0
 82 81  1  0
 82 86  1  0
 83 82  2  0
 84 79  2  0
 84 83  1  0
 85 84  1  0
 87 88  1  0
 88 91  1  0
 88 90  1  0
 89 87  2  0
 92 93  1  0
 92 67  1  0
 94 92  1  0
M  ISO  4   7 101   8 101  57 100  65 100
M  END
>  <TORSDO>  (56) 
F 27

>  <SCORE>  (56) 
-8.619

>  <name>  (56) 
55

>  <ligand_id>  (56) 
55

>  <original_smiles>  (56) 
[H]c1c([H])c([H])c2c(c1[H])C([H])([H])C([H])([H])C([H])([H])C2([H])N([H])C(=O)C1([H])N(C(=O)C([H])(N([H])C(=O)C([H])(N([H])C([H])([H])[H])C([H])([H])[H])C(C([H])([H])[H])(C([H])([H])[H])C([H])([H])[H])C([H])([H])c2c([H])c(OC([H])([H])C([H])([H])OC([H])([H])C([H])([H])OC([H])([H])C([H])([H])OC(=O)C(=O)C([H])(N([H])C(=O)N3C([H])([H])C([H])([H])C([H])([H])C([H])(n4nc(-c5c([H])c([H])c(Oc6c([H])c([H])c(F)c([H])c6F)c([H])c5[H])c(C(=O)N([H])[H])c4N([H])[H])C3([H])[H])C([H])([H])[H])c([H])c([H])c2C1([H])[H]

>  <smiles>  (56) 
[H]c1c([H])c([H])c2c(c1[H])C([H])([H])C([H])([H])C([H])([H])C2([H])N([H])C(=O)C1([H])N(C(=O)C([H])(N([H])C(=O)C([H])(N([H])C([H])([H])[H])C([H])([H])[H])C(C([H])([H])[H])(C([H])([H])[H])C([H])([H])[H])C([H])([H])c2c([H])c(OC([H])([H])C([H])([H])OC([H])([H])C([H])([H])OC([H])([H])C([H])([H])OC(=O)C(=O)C([H])(N([H])C(=O)N3C([H])([H])C([H])([H])C([H])([H])C([H])(n4nc(-c5c([H])c([H])c(Oc6c([H])c([H])c(F)c([H])c6F)c([H])c5[H])c(C(=O)N([H])[H])c4N([H])[H])C3([H])[H])C([H])([H])[H])c([H])c([H])c2C1([H])[H]

$$$$
56:0:0
     RDKit          3D

101108  0  0  1  0  0  0  0  0999 V2000
  -31.5120  -22.3110   23.5430 C   0  0  0  0  0  2  0  0  0  0  0  0
  -30.3510  -22.6120   22.7720 O   0  0  0  0  0  0  0  0  0  0  0  0
  -29.3280  -21.6260   22.7940 C   0  0  0  0  0  2  0  0  0  0  0  0
  -28.2820  -21.9210   21.7040 C   0  0  0  0  0  2  0  0  0  0  0  0
  -28.6330  -21.3780   20.4300 O   0  0  0  0  0  0  0  0  0  0  0  0
  -29.5490  -22.1480   19.6540 C   0  0  0  0  0  2  0  0  0  0  0  0
  -28.9130  -23.4150   19.0500 C   0  0  0  0  0  2  0  0  0  0  0  0
  -29.8030  -24.5260   19.1160 O   0  0  0  0  0  0  0  0  0  0  0  0
  -29.9720  -25.0890   20.4150 C   0  0  0  0  0  2  0  0  0  0  0  0
  -28.7610  -25.9370   20.8150 C   0  0  0  0  0  2  0  0  0  0  0  0
  -28.7370  -27.1210   20.0260 O   0  0  0  0  0  0  0  0  0  0  0  0
  -24.6800  -31.9130   23.3330 C   0  0  0  0  0  0  0  0  0  0  0  0
  -27.5340  -27.7740   20.0690 C   0  0  0  0  0  0  0  0  0  0  0  0
  -23.5390  -30.5190   21.6340 C   0  0  0  0  0  3  0  0  0  0  0  0
  -25.0630  -29.1180   20.1480 C   0  0  0  0  0  0  0  0  0  0  0  0
  -26.0380  -31.0260   21.4440 C   0  0  0  0  0  2  0  0  0  0  0  0
  -26.1920  -29.6890   20.7510 C   0  0  0  0  0  0  0  0  0  0  0  0
  -27.4340  -29.0230   20.7100 C   0  0  0  0  0  3  0  0  0  0  0  0
  -26.3970  -27.2060   19.4590 C   0  0  0  0  0  3  0  0  0  0  0  0
  -25.1590  -27.8720   19.4990 C   0  0  0  0  0  3  0  0  0  0  0  0
  -23.7760  -29.9050   20.2290 C   0  0  0  0  0  2  0  0  0  0  0  0
  -24.7690  -31.1650   22.1960 N   0  0  0  0  0  0  0  0  0  0  0  0
  -23.5900  -32.1060   23.8880 O   0  0  0  0  0  0  0  0  0  0  0  0
  -22.9470  -29.4270   22.5550 C   0  0  0  0  0  0  0  0  0  0  0  0
  -21.6480  -29.1380   22.3800 N   0  0  0  0  0  0  0  0  0  0  0  0
  -23.6550  -28.8440   23.3800 O   0  0  0  0  0  0  0  0  0  0  0  0
  -21.1330  -29.6690   21.6900 H   0  0  0  0  0  0  0  0  0  0  0  0
  -18.3870  -27.6180   22.6890 C   0  0  0  0  0  0  0  0  0  0  0  0
  -20.8870  -28.1210   23.1040 C   0  0  0  0  0  3  0  0  0  0  0  0
  -21.1600  -26.7100   22.5330 C   0  0  0  0  0  2  0  0  0  0  0  0
  -20.1530  -26.2880   21.4590 C   0  0  0  0  0  2  0  0  0  0  0  0
  -18.7300  -26.2960   22.0260 C   0  0  0  0  0  2  0  0  0  0  0  0
  -19.4000  -28.4820   23.1810 C   0  0  0  0  0  0  0  0  0  0  0  0
  -19.0280  -29.7180   23.7570 C   0  0  0  0  0  3  0  0  0  0  0  0
  -17.6730  -30.0900   23.8490 C   0  0  0  0  0  3  0  0  0  0  0  0
  -16.6730  -29.2230   23.3750 C   0  0  0  0  0  3  0  0  0  0  0  0
  -17.0300  -27.9900   22.8010 C   0  0  0  0  0  3  0  0  0  0  0  0
  -25.9370  -32.5810   23.9730 C   0  0  0  0  0  3  0  0  0  0  0  0
  -26.4390  -31.8450   25.2760 C   0  0  1  0  0  0  0  0  0  0  0  0
  -25.3220  -31.5910   26.3140 C   0  0  0  0  0  1  0  0  0  0  0  0
  -27.0750  -30.4800   24.9210 C   0  0  0  0  0  1  0  0  0  0  0  0
  -27.5440  -32.6840   25.9600 C   0  0  0  0  0  1  0  0  0  0  0  0
  -25.5960  -33.9790   24.2640 N   0  0  0  0  0  0  0  0  0  0  0  0
  -25.9270  -35.0190   23.4870 C   0  0  0  0  0  0  0  0  0  0  0  0
  -26.6240  -34.9040   22.4750 O   0  0  0  0  0  0  0  0  0  0  0  0
  -24.9800  -34.1410   25.0480 H   0  0  0  0  0  0  0  0  0  0  0  0
  -24.1670  -36.7600   23.0540 C   0  0  0  0  0  1  0  0  0  0  0  0
  -25.4010  -36.4070   23.8980 C   0  0  0  0  0  3  0  0  0  0  0  0
  -27.5000  -37.3630   24.7420 C   0  0  0  0  0  1  0  0  0  0  0  0
  -26.4120  -37.4790   23.7740 N   0  0  0  0  0  0  0  0  0  0  0  0
  -25.9830  -38.3940   23.8860 H   0  0  0  0  0  0  0  0  0  0  0  0
  -32.2970  -21.0910   23.0240 C   0  0  0  0  0  2  0  0  0  0  0  0
  -32.3170  -21.1140   21.6010 O   0  0  0  0  0  0  0  0  0  0  0  0
  -33.2550  -20.2250   21.0010 C   0  0  0  0  0  2  0  0  0  0  0  0
  -33.0400  -18.7410   21.3770 C   0  0  0  0  0  2  0  0  0  0  0  0
  -31.1640  -17.9730   19.9020 C   0  0  0  0  0  0  0  0  0  0  0  0
  -31.6890  -18.2500   21.1020 N   0  0  0  0  0  0  0  0  0  0  0  0
  -31.7910  -18.1520   18.8570 O   0  0  0  0  0  0  0  0  0  0  0  0
  -31.1080  -18.0460   21.9040 H   0  0  0  0  0  0  0  0  0  0  0  0
  -29.7470  -17.3390   19.9140 C   0  0  0  0  0  3  0  0  0  0  0  0
  -30.4310  -14.9650   19.9390 C   0  0  0  0  0  0  0  0  0  0  0  0
  -30.2270  -12.6810   19.0740 C   0  0  0  0  0  2  0  0  0  0  0  0
  -29.2410  -12.6810   17.8910 C   0  0  0  0  0  2  0  0  0  0  0  0
  -27.8030  -12.4670   18.3980 C   0  0  0  0  0  2  0  0  0  0  0  0
  -27.4320  -13.4270   19.5600 C   0  0  0  0  0  3  0  0  0  0  0  0
  -28.5380  -13.4500   20.6440 C   0  0  0  0  0  2  0  0  0  0  0  0
  -29.8250  -13.7520   19.9980 N   0  0  0  0  0  0  0  0  0  0  0  0
  -31.4570  -15.1600   19.2880 O   0  0  0  0  0  0  0  0  0  0  0  0
  -29.7600  -15.9840   20.4870 N   0  0  0  0  0  0  0  0  0  0  0  0
  -28.9730  -15.7350   21.0680 H   0  0  0  0  0  0  0  0  0  0  0  0
  -25.0790  -13.9290   20.4870 C   0  0  0  0  0  0  0  0  0  0  0  0
  -24.0670  -13.1080   20.9080 C   0  0  0  0  0  0  0  0  0  0  0  0
  -24.5600  -11.7760   20.7680 C   0  0  0  0  0  0  0  0  0  0  0  0
  -26.1280  -13.0940   20.1300 N   0  0  0  0  0  0  0  0  0  0  0  0
  -25.8200  -11.7900   20.3510 N   0  0  0  0  0  0  0  0  0  0  0  0
  -23.8850  -10.4850   20.9530 C   0  0  0  0  0  0  0  0  0  0  0  0
  -24.3630   -9.5280   21.8760 C   0  0  0  0  0  3  0  0  0  0  0  0
  -23.6880   -8.3010   22.0490 C   0  0  0  0  0  3  0  0  0  0  0  0
  -22.5200   -8.0220   21.2990 C   0  0  0  0  0  0  0  0  0  0  0  0
  -22.0630   -8.9680   20.3650 C   0  0  0  0  0  3  0  0  0  0  0  0
  -22.7380  -10.1860   20.1910 C   0  0  0  0  0  3  0  0  0  0  0  0
  -21.8130   -6.8470   21.3810 O   0  0  0  0  0  0  0  0  0  0  0  0
  -21.7330   -6.1370   22.5520 C   0  0  0  0  0  0  0  0  0  0  0  0
  -21.2110   -6.7030   23.7350 C   0  0  0  0  0  3  0  0  0  0  0  0
  -21.0830   -5.9160   24.8960 C   0  0  0  0  0  3  0  0  0  0  0  0
  -21.4670   -4.5610   24.8750 C   0  0  0  0  0  0  0  0  0  0  0  0
  -21.9830   -3.9940   23.6970 C   0  0  0  0  0  3  0  0  0  0  0  0
  -22.1130   -4.7790   22.5380 C   0  0  0  0  0  0  0  0  0  0  0  0
  -22.5910   -4.2220   21.3990 F   0  0  0  0  0  0  0  0  0  0  0  0
  -21.3380   -3.8020   25.9880 F   0  0  0  0  0  0  0  0  0  0  0  0
  -22.6860  -13.5320   21.3190 C   0  0  0  0  0  0  0  0  0  0  0  0
  -22.0560  -12.7800   22.2140 N   0  0  0  0  0  0  0  0  0  0  0  0
  -22.1760  -14.5620   20.8840 O   0  0  0  0  0  0  0  0  0  0  0  0
  -22.4850  -11.9490   22.5920 H   0  0  0  0  0  0  0  0  0  0  0  0
  -21.1320  -13.0410   22.5290 H   0  0  0  0  0  0  0  0  0  0  0  0
  -25.1840  -15.3090   20.3660 N   0  0  0  0  0  0  0  0  0  0  0  0
  -24.3980  -15.9220   20.5540 H   0  0  0  0  0  0  0  0  0  0  0  0
  -25.9760  -15.7880   19.9600 H   0  0  0  0  0  0  0  0  0  0  0  0
  -27.3930  -17.3750   18.9650 C   0  0  0  0  0  1  0  0  0  0  0  0
  -29.1970  -18.3920   17.5420 C   0  0  0  0  0  1  0  0  0  0  0  0
  -28.8870  -17.3260   18.5970 C   0  0  0  0  0  3  0  0  0  0  0  0
  2  3  1  0
  2  1  1  0
  4  3  1  0
  5  4  1  0
  6  5  1  0
  7  8  1  0
  7  6  1  0
  8  9  1  0
  9 10  1  0
 11 13  1  0
 11 10  1  0
 12 23  2  0
 13 18  1  0
 14 22  1  0
 14 24  1  0
 15 21  1  0
 15 17  1  0
 16 22  1  0
 17 16  1  0
 18 17  2  0
 19 20  1  0
 19 13  2  0
 20 15  2  0
 21 14  1  0
 22 12  1  0
 24 26  2  0
 25 24  1  0
 27 25  1  0
 28 37  2  0
 28 33  1  0
 29 25  1  0
 29 33  1  0
 30 29  1  0
 31 32  1  0
 31 30  1  0
 32 28  1  0
 33 34  2  0
 34 35  1  0
 36 35  2  0
 37 36  1  0
 38 12  1  0
 38 43  1  0
 38 39  1  0
 39 42  1  1
 39 40  1  0
 41 39  1  0
 43 46  1  0
 44 48  1  0
 44 43  1  0
 45 44  2  0
 48 47  1  0
 50 51  1  0
 50 48  1  0
 50 49  1  0
 52  1  1  0
 53 52  1  0
 54 55  1  0
 54 53  1  0
 56 60  1  0
 56 57  1  0
 57 55  1  0
 57 59  1  0
 58 56  2  0
 60101  1  0
 60 69  1  0
 61 67  1  0
 61 69  1  0
 62 67  1  0
 63 64  1  0
 63 62  1  0
 65 64  1  0
 65 74  1  0
 65 66  1  0
 67 66  1  0
 68 61  2  0
 69 70  1  0
 71 72  2  0
 72 91  1  0
 73 72  1  0
 73 76  1  0
 74 75  1  0
 74 71  1  0
 75 73  2  0
 76 77  1  0
 77 78  2  0
 79 82  1  0
 79 78  1  0
 80 79  2  0
 81 80  1  0
 81 76  2  0
 82 83  1  0
 83 84  1  0
 84 85  2  0
 86 85  1  0
 86 90  1  0
 87 86  2  0
 88 83  2  0
 88 87  1  0
 89 88  1  0
 91 92  1  0
 92 95  1  0
 92 94  1  0
 93 91  2  0
 96 71  1  0
 96 97  1  0
 98 96  1  0
100101  1  0
101 99  1  0
M  ISO  4  10 101  11 101  61 100  69 100
M  END
>  <TORSDO>  (57) 
F 32

>  <SCORE>  (57) 
-9.930

>  <name>  (57) 
56

>  <ligand_id>  (57) 
56

>  <original_smiles>  (57) 
[H]c1c([H])c([H])c2c(c1[H])C([H])([H])C([H])([H])C([H])([H])C2([H])N([H])C(=O)C1([H])N(C(=O)C([H])(N([H])C(=O)C([H])(N([H])C([H])([H])[H])C([H])([H])[H])C(C([H])([H])[H])(C([H])([H])[H])C([H])([H])[H])C([H])([H])c2c([H])c(OC([H])([H])C([H])([H])OC([H])([H])C([H])([H])OC([H])([H])C([H])([H])OC([H])([H])C([H])([H])OC([H])([H])C([H])([H])N([H])C(=O)C([H])(N([H])C(=O)N3C([H])([H])C([H])([H])C([H])([H])C([H])(n4nc(-c5c([H])c([H])c(Oc6c([H])c([H])c(F)c([H])c6F)c([H])c5[H])c(C(=O)N([H])[H])c4N([H])[H])C3([H])[H])C([H])(C([H])([H])[H])C([H])([H])[H])c([H])c([H])c2C1([H])[H]

>  <smiles>  (57) 
[H]c1c([H])c([H])c2c(c1[H])C([H])([H])C([H])([H])C([H])([H])C2([H])N([H])C(=O)C1([H])N(C(=O)C([H])(N([H])C(=O)C([H])(N([H])C([H])([H])[H])C([H])([H])[H])C(C([H])([H])[H])(C([H])([H])[H])C([H])([H])[H])C([H])([H])c2c([H])c(OC([H])([H])C([H])([H])OC([H])([H])C([H])([H])OC([H])([H])C([H])([H])OC([H])([H])C([H])([H])OC([H])([H])C([H])([H])N([H])C(=O)C([H])(N([H])C(=O)N3C([H])([H])C([H])([H])C([H])([H])C([H])(n4nc(-c5c([H])c([H])c(Oc6c([H])c([H])c(F)c([H])c6F)c([H])c5[H])c(C(=O)N([H])[H])c4N([H])[H])C3([H])[H])C([H])(C([H])([H])[H])C([H])([H])[H])c([H])c([H])c2C1([H])[H]

$$$$
57:0:0
     RDKit          3D

 97104  0  0  1  0  0  0  0  0999 V2000
  -30.8150  -24.9350   22.8930 N   0  0  0  0  0  4  0  0  0  0  0  0
  -30.1060  -24.2180   22.8310 H   0  0  0  0  0  0  0  0  0  0  0  0
  -31.5840  -24.5640   23.4300 H   0  0  0  0  0  0  0  0  0  0  0  0
  -31.2530  -25.1820   21.5000 C   0  0  0  0  0  2  0  0  0  0  0  0
  -30.7710  -24.0320   20.6060 C   0  0  0  0  0  2  0  0  0  0  0  0
  -29.5410  -24.4730   20.0410 O   0  0  0  0  0  0  0  0  0  0  0  0
  -28.9840  -23.6160   19.0520 C   0  0  0  0  0  2  0  0  0  0  0  0
  -27.5320  -23.2560   19.4020 C   0  0  0  0  0  2  0  0  0  0  0  0
  -26.7150  -23.4760   18.2600 O   0  0  0  0  0  0  0  0  0  0  0  0
  -25.3350  -23.5590   18.5810 C   0  0  0  0  0  2  0  0  0  0  0  0
  -24.5430  -23.8890   17.3100 C   0  0  0  0  0  2  0  0  0  0  0  0
  -23.0260  -23.7830   17.5300 C   0  0  0  0  0  2  0  0  0  0  0  0
  -22.4710  -22.5840   15.4250 C   0  0  0  0  0  0  0  0  0  0  0  0
  -21.6230  -21.4800   13.3920 C   0  0  0  0  0  2  0  0  0  0  0  0
  -22.3490  -21.9670   12.1250 C   0  0  0  0  0  2  0  0  0  0  0  0
  -21.6890  -23.2430   11.5710 C   0  0  0  0  0  2  0  0  0  0  0  0
  -21.4700  -24.3230   12.6620 C   0  0  0  0  0  3  0  0  0  0  0  0
  -20.7990  -23.7110   13.9110 C   0  0  0  0  0  2  0  0  0  0  0  0
  -21.6140  -22.5730   14.3730 N   0  0  0  0  0  0  0  0  0  0  0  0
  -23.3100  -21.7030   15.6340 O   0  0  0  0  0  0  0  0  0  0  0  0
  -22.3000  -23.6000   16.2780 N   0  0  0  0  0  0  0  0  0  0  0  0
  -21.5610  -24.2550   16.0620 H   0  0  0  0  0  0  0  0  0  0  0  0
  -20.4810  -26.7010   12.7180 C   0  0  0  0  0  0  0  0  0  0  0  0
  -19.7750  -27.4200   11.7890 C   0  0  0  0  0  0  0  0  0  0  0  0
  -19.6190  -26.5590   10.6600 C   0  0  0  0  0  0  0  0  0  0  0  0
  -20.7120  -25.4620   12.1430 N   0  0  0  0  0  0  0  0  0  0  0  0
  -20.1430  -25.3670   10.9130 N   0  0  0  0  0  0  0  0  0  0  0  0
  -19.0510  -26.8190    9.3310 C   0  0  0  0  0  0  0  0  0  0  0  0
  -18.0180  -26.0160    8.8010 C   0  0  0  0  0  3  0  0  0  0  0  0
  -17.4730  -26.2970    7.5290 C   0  0  0  0  0  3  0  0  0  0  0  0
  -17.9620  -27.3900    6.7750 C   0  0  0  0  0  0  0  0  0  0  0  0
  -19.0050  -28.1740    7.2980 C   0  0  0  0  0  3  0  0  0  0  0  0
  -19.5490  -27.8910    8.5620 C   0  0  0  0  0  3  0  0  0  0  0  0
  -17.5140  -27.7190    5.5180 O   0  0  0  0  0  0  0  0  0  0  0  0
  -16.2880  -27.3110    5.0600 C   0  0  0  0  0  0  0  0  0  0  0  0
  -15.0950  -27.6100    5.7550 C   0  0  0  0  0  3  0  0  0  0  0  0
  -13.8520  -27.2320    5.2120 C   0  0  0  0  0  3  0  0  0  0  0  0
  -13.7960  -26.5610    3.9750 C   0  0  0  0  0  0  0  0  0  0  0  0
  -14.9820  -26.2680    3.2790 C   0  0  0  0  0  3  0  0  0  0  0  0
  -16.2250  -26.6440    3.8190 C   0  0  0  0  0  0  0  0  0  0  0  0
  -17.3640  -26.3780    3.1340 F   0  0  0  0  0  0  0  0  0  0  0  0
  -12.6010  -26.2050    3.4500 F   0  0  0  0  0  0  0  0  0  0  0  0
  -19.3530  -28.8560   11.9020 C   0  0  0  0  0  0  0  0  0  0  0  0
  -18.1940  -29.1990   11.3500 N   0  0  0  0  0  0  0  0  0  0  0  0
  -20.0290  -29.6770   12.5220 O   0  0  0  0  0  0  0  0  0  0  0  0
  -17.6290  -28.5200   10.8600 H   0  0  0  0  0  0  0  0  0  0  0  0
  -17.8660  -30.1520   11.4230 H   0  0  0  0  0  0  0  0  0  0  0  0
  -20.9540  -26.9990   13.9930 N   0  0  0  0  0  0  0  0  0  0  0  0
  -20.8410  -27.9110   14.4190 H   0  0  0  0  0  0  0  0  0  0  0  0
  -21.4810  -26.3560   14.5730 H   0  0  0  0  0  0  0  0  0  0  0  0
  -30.2240  -26.0820   23.6150 C   0  0  0  0  0  2  0  0  0  0  0  0
  -28.9210  -25.6840   24.3410 C   0  0  0  0  0  2  0  0  0  0  0  0
  -27.6180  -25.9580   23.5700 C   0  0  0  0  0  2  0  0  0  0  0  0
  -27.4950  -25.1230   22.4260 O   0  0  0  0  0  0  0  0  0  0  0  0
  -26.1500  -25.0010   21.9710 C   0  0  0  0  0  2  0  0  0  0  0  0
  -26.0990  -24.8990   20.4300 C   0  0  0  0  0  2  0  0  0  0  0  0
  -26.2410  -26.1830   19.8160 O   0  0  0  0  0  0  0  0  0  0  0  0
  -24.1720  -31.6000   23.8880 C   0  0  0  0  0  0  0  0  0  0  0  0
  -25.2550  -27.1200   20.0410 C   0  0  0  0  0  0  0  0  0  0  0  0
  -22.4660  -30.7430   22.3160 C   0  0  0  0  0  3  0  0  0  0  0  0
  -23.3110  -29.1050   20.5550 C   0  0  0  0  0  0  0  0  0  0  0  0
  -24.9560  -30.5340   21.7790 C   0  0  0  0  0  2  0  0  0  0  0  0
  -24.6230  -29.2750   21.0080 C   0  0  0  0  0  0  0  0  0  0  0  0
  -25.5990  -28.2900   20.7470 C   0  0  0  0  0  3  0  0  0  0  0  0
  -23.9250  -26.9590   19.5870 C   0  0  0  0  0  3  0  0  0  0  0  0
  -22.9550  -27.9470   19.8420 C   0  0  0  0  0  3  0  0  0  0  0  0
  -22.3290  -30.2120   20.8630 C   0  0  0  0  0  2  0  0  0  0  0  0
  -23.8930  -30.9610   22.7180 N   0  0  0  0  0  0  0  0  0  0  0  0
  -23.2660  -32.0460   24.6060 O   0  0  0  0  0  0  0  0  0  0  0  0
  -21.7030  -29.7870   23.2600 C   0  0  0  0  0  0  0  0  0  0  0  0
  -20.3900  -29.6310   23.0180 N   0  0  0  0  0  0  0  0  0  0  0  0
  -22.2900  -29.1860   24.1620 O   0  0  0  0  0  0  0  0  0  0  0  0
  -19.9840  -30.1690   22.2640 H   0  0  0  0  0  0  0  0  0  0  0  0
  -17.0700  -28.2140   22.9820 C   0  0  0  0  0  0  0  0  0  0  0  0
  -19.4770  -28.7550   23.7500 C   0  0  0  0  0  3  0  0  0  0  0  0
  -19.7930  -27.2670   23.4720 C   0  0  0  0  0  2  0  0  0  0  0  0
  -18.9720  -26.6820   22.3180 C   0  0  0  0  0  2  0  0  0  0  0  0
  -17.4730  -26.7960   22.6140 C   0  0  0  0  0  2  0  0  0  0  0  0
  -18.0150  -29.1380   23.5010 C   0  0  0  0  0  0  0  0  0  0  0  0
  -17.5970  -30.4540   23.7960 C   0  0  0  0  0  3  0  0  0  0  0  0
  -16.2620  -30.8490   23.5840 C   0  0  0  0  0  3  0  0  0  0  0  0
  -15.3270  -29.9250   23.0870 C   0  0  0  0  0  3  0  0  0  0  0  0
  -15.7300  -28.6110   22.7920 C   0  0  0  0  0  3  0  0  0  0  0  0
  -25.6410  -31.8260   24.3680 C   0  0  0  0  0  3  0  0  0  0  0  0
  -25.8260  -33.2700   24.5620 N   0  0  0  0  0  0  0  0  0  0  0  0
  -26.4490  -34.0780   23.6950 C   0  0  0  0  0  0  0  0  0  0  0  0
  -26.9960  -33.6660   22.6680 O   0  0  0  0  0  0  0  0  0  0  0  0
  -25.3540  -33.6840   25.3520 H   0  0  0  0  0  0  0  0  0  0  0  0
  -25.3960  -36.3030   23.1790 C   0  0  0  0  0  1  0  0  0  0  0  0
  -26.4660  -35.5850   24.0160 C   0  0  0  0  0  3  0  0  0  0  0  0
  -28.8120  -35.7580   24.7210 C   0  0  0  0  0  1  0  0  0  0  0  0
  -27.7840  -36.2200   23.7920 N   0  0  0  0  0  0  0  0  0  0  0  0
  -27.7150  -37.2320   23.8730 H   0  0  0  0  0  0  0  0  0  0  0  0
  -25.9910  -31.0350   25.6890 C   0  0  1  0  0  0  0  0  0  0  0  0
  -24.9410  -31.2030   26.8120 C   0  0  0  0  0  1  0  0  0  0  0  0
  -26.1310  -29.5230   25.3950 C   0  0  0  0  0  1  0  0  0  0  0  0
  -27.3560  -31.5100   26.2390 C   0  0  0  0  0  1  0  0  0  0  0  0
  1  3  1  0
  1 51  1  0
  2  1  1  0
  4  1  1  0
  5  4  1  0
  6  5  1  0
  7  8  1  0
  7  6  1  0
  9 10  1  0
  9  8  1  0
 11 12  1  0
 11 10  1  0
 13 20  2  0
 13 21  1  0
 14 19  1  0
 15 14  1  0
 16 15  1  0
 17 16  1  0
 17 18  1  0
 18 19  1  0
 19 13  1  0
 21 12  1  0
 22 21  1  0
 23 48  1  0
 24 43  1  0
 24 23  2  0
 25 27  2  0
 25 24  1  0
 26 17  1  0
 26 23  1  0
 27 26  1  0
 28 25  1  0
 29 28  1  0
 30 29  2  0
 31 32  2  0
 31 30  1  0
 32 33  1  0
 33 28  2  0
 34 31  1  0
 35 34  1  0
 35 36  1  0
 37 36  2  0
 38 37  1  0
 39 40  1  0
 39 38  2  0
 40 35  2  0
 41 40  1  0
 42 38  1  0
 43 45  2  0
 44 47  1  0
 44 43  1  0
 46 44  1  0
 48 49  1  0
 48 50  1  0
 51 52  1  0
 53 52  1  0
 54 53  1  0
 55 54  1  0
 56 55  1  0
 57 59  1  0
 57 56  1  0
 58 69  2  0
 59 64  1  0
 60 68  1  0
 60 70  1  0
 61 67  1  0
 61 63  1  0
 62 68  1  0
 63 62  1  0
 64 63  2  0
 65 66  1  0
 65 59  2  0
 66 61  2  0
 67 60  1  0
 68 58  1  0
 70 72  2  0
 71 70  1  0
 73 71  1  0
 74 79  1  0
 75 71  1  0
 76 75  1  0
 77 78  1  0
 77 76  1  0
 78 74  1  0
 79 75  1  0
 79 80  2  0
 81 80  1  0
 82 81  2  0
 83 74  2  0
 83 82  1  0
 84 58  1  0
 84 85  1  0
 84 94  1  0
 85 88  1  0
 86 90  1  0
 86 85  1  0
 87 86  2  0
 90 89  1  0
 92 93  1  0
 92 90  1  0
 92 91  1  0
 94 97  1  1
 94 95  1  0
 96 94  1  0
M  ISO  4  13 100  21 100  56 101  57 101
M  END
>  <TORSDO>  (58) 
F 31

>  <SCORE>  (58) 
-1.813

>  <name>  (58) 
57

>  <ligand_id>  (58) 
57

>  <original_smiles>  (58) 
[H]c1c([H])c([H])c2c(c1[H])C([H])([H])C([H])([H])C([H])([H])C2([H])N([H])C(=O)C1([H])N(C(=O)C([H])(N([H])C(=O)C([H])(N([H])C([H])([H])[H])C([H])([H])[H])C(C([H])([H])[H])(C([H])([H])[H])C([H])([H])[H])C([H])([H])c2c([H])c(OC([H])([H])C([H])([H])OC([H])([H])C([H])([H])C([H])([H])[N+]([H])([H])C([H])([H])C([H])([H])OC([H])([H])C([H])([H])OC([H])([H])C([H])([H])C([H])([H])N([H])C(=O)N3C([H])([H])C([H])([H])C([H])([H])C([H])(n4nc(-c5c([H])c([H])c(Oc6c([H])c([H])c(F)c([H])c6F)c([H])c5[H])c(C(=O)N([H])[H])c4N([H])[H])C3([H])[H])c([H])c([H])c2C1([H])[H]

>  <smiles>  (58) 
[H]c1c([H])c([H])c2c(c1[H])C([H])([H])C([H])([H])C([H])([H])C2([H])N([H])C(=O)C1([H])N(C(=O)C([H])(N([H])C(=O)C([H])(N([H])C([H])([H])[H])C([H])([H])[H])C(C([H])([H])[H])(C([H])([H])[H])C([H])([H])[H])C([H])([H])c2c([H])c(OC([H])([H])C([H])([H])OC([H])([H])C([H])([H])C([H])([H])[N+]([H])([H])C([H])([H])C([H])([H])OC([H])([H])C([H])([H])OC([H])([H])C([H])([H])C([H])([H])N([H])C(=O)N3C([H])([H])C([H])([H])C([H])([H])C([H])(n4nc(-c5c([H])c([H])c(Oc6c([H])c([H])c(F)c([H])c6F)c([H])c5[H])c(C(=O)N([H])[H])c4N([H])[H])C3([H])[H])c([H])c([H])c2C1([H])[H]

$$$$
58:0:0
     RDKit          3D

 98105  0  0  1  0  0  0  0  0999 V2000
  -24.4670  -20.6110   21.9170 C   0  0  0  0  0  2  0  0  0  0  0  0
  -24.0350  -19.4900   22.7810 N   0  0  0  0  0  4  0  0  0  0  0  0
  -23.2050  -19.0810   22.3760 H   0  0  0  0  0  0  0  0  0  0  0  0
  -23.7760  -19.8520   23.6850 H   0  0  0  0  0  0  0  0  0  0  0  0
  -25.0480  -18.4260   22.9700 C   0  0  0  0  0  2  0  0  0  0  0  0
  -24.4070  -17.0310   22.9570 C   0  0  0  0  0  2  0  0  0  0  0  0
  -24.3160  -16.5130   21.6270 O   0  0  0  0  0  0  0  0  0  0  0  0
  -25.2410  -15.4710   21.3020 C   0  0  0  0  0  2  0  0  0  0  0  0
  -26.2040  -15.8750   20.1720 C   0  0  0  0  0  2  0  0  0  0  0  0
  -27.5520  -15.6930   20.5920 O   0  0  0  0  0  0  0  0  0  0  0  0
  -28.4540  -15.7430   19.5000 C   0  0  0  0  0  2  0  0  0  0  0  0
  -29.9030  -15.5380   19.9680 C   0  0  0  0  0  2  0  0  0  0  0  0
  -31.2930  -13.5220   19.3380 C   0  0  0  0  0  0  0  0  0  0  0  0
  -31.1960  -11.1080   19.8220 C   0  0  0  0  0  2  0  0  0  0  0  0
  -30.3830  -10.3740   18.7330 C   0  0  0  0  0  2  0  0  0  0  0  0
  -28.8770  -10.3900   19.0630 C   0  0  0  0  0  2  0  0  0  0  0  0
  -28.3680  -11.8030   19.4490 C   0  0  0  0  0  3  0  0  0  0  0  0
  -29.3030  -12.4270   20.5060 C   0  0  0  0  0  2  0  0  0  0  0  0
  -30.6630  -12.4750   19.9440 N   0  0  0  0  0  0  0  0  0  0  0  0
  -32.4030  -13.4190   18.8140 O   0  0  0  0  0  0  0  0  0  0  0  0
  -30.5900  -14.6260   19.0550 N   0  0  0  0  0  0  0  0  0  0  0  0
  -31.0210  -15.1280   18.2930 H   0  0  0  0  0  0  0  0  0  0  0  0
  -26.0420  -12.7880   19.9680 C   0  0  0  0  0  0  0  0  0  0  0  0
  -24.8850  -12.2120   20.4160 C   0  0  0  0  0  0  0  0  0  0  0  0
  -25.1760  -10.8240   20.5870 C   0  0  0  0  0  0  0  0  0  0  0  0
  -26.9790  -11.7670   19.9070 N   0  0  0  0  0  0  0  0  0  0  0  0
  -26.4560  -10.5870   20.3290 N   0  0  0  0  0  0  0  0  0  0  0  0
  -24.2980   -9.6960   20.9260 C   0  0  0  0  0  0  0  0  0  0  0  0
  -24.6540   -8.7540   21.9150 C   0  0  0  0  0  3  0  0  0  0  0  0
  -23.7850   -7.6900   22.2350 C   0  0  0  0  0  3  0  0  0  0  0  0
  -22.5440   -7.5610   21.5690 C   0  0  0  0  0  0  0  0  0  0  0  0
  -22.2030   -8.4900   20.5700 C   0  0  0  0  0  3  0  0  0  0  0  0
  -23.0730   -9.5460   20.2480 C   0  0  0  0  0  3  0  0  0  0  0  0
  -21.6480   -6.5440   21.7970 O   0  0  0  0  0  0  0  0  0  0  0  0
  -21.6390   -5.8460   22.9780 C   0  0  0  0  0  0  0  0  0  0  0  0
  -21.3870   -6.4780   24.2160 C   0  0  0  0  0  3  0  0  0  0  0  0
  -21.3160   -5.7110   25.3950 C   0  0  0  0  0  3  0  0  0  0  0  0
  -21.4880   -4.3150   25.3410 C   0  0  0  0  0  0  0  0  0  0  0  0
  -21.7320   -3.6840   24.1080 C   0  0  0  0  0  3  0  0  0  0  0  0
  -21.8060   -4.4470   22.9300 C   0  0  0  0  0  0  0  0  0  0  0  0
  -22.0220   -3.8320   21.7420 F   0  0  0  0  0  0  0  0  0  0  0  0
  -21.4130   -3.5760   26.4720 F   0  0  0  0  0  0  0  0  0  0  0  0
  -23.5540  -12.8880   20.5750 C   0  0  0  0  0  0  0  0  0  0  0  0
  -22.7400  -12.4250   21.5160 N   0  0  0  0  0  0  0  0  0  0  0  0
  -23.2480  -13.8660   19.8940 O   0  0  0  0  0  0  0  0  0  0  0  0
  -22.9970  -11.6330   22.0850 H   0  0  0  0  0  0  0  0  0  0  0  0
  -21.8450  -12.8680   21.6650 H   0  0  0  0  0  0  0  0  0  0  0  0
  -26.3600  -14.0860   19.5820 N   0  0  0  0  0  0  0  0  0  0  0  0
  -25.6320  -14.7830   19.4720 H   0  0  0  0  0  0  0  0  0  0  0  0
  -27.2170  -14.3270   19.1020 H   0  0  0  0  0  0  0  0  0  0  0  0
  -23.7390  -21.9270   22.2620 C   0  0  0  0  0  2  0  0  0  0  0  0
  -24.6800  -23.0600   22.7240 C   0  0  0  0  0  2  0  0  0  0  0  0
  -25.4370  -23.7340   21.5590 C   0  0  0  0  0  2  0  0  0  0  0  0
  -26.9520  -23.8620   21.7570 C   0  0  0  0  0  2  0  0  0  0  0  0
  -27.4990  -24.2090   20.4910 O   0  0  0  0  0  0  0  0  0  0  0  0
  -28.8750  -24.5760   20.5030 C   0  0  0  0  0  2  0  0  0  0  0  0
  -29.0920  -26.0630   20.8320 C   0  0  0  0  0  2  0  0  0  0  0  0
  -28.7990  -26.8670   19.6920 O   0  0  0  0  0  0  0  0  0  0  0  0
  -24.6760  -31.5440   23.1180 C   0  0  0  0  0  0  0  0  0  0  0  0
  -27.5930  -27.5140   19.7600 C   0  0  0  0  0  0  0  0  0  0  0  0
  -23.5670  -30.2090   21.3530 C   0  0  0  0  0  3  0  0  0  0  0  0
  -25.1190  -28.8580   19.8470 C   0  0  0  0  0  0  0  0  0  0  0  0
  -26.0690  -30.7160   21.2300 C   0  0  0  0  0  2  0  0  0  0  0  0
  -26.2360  -29.4040   20.4950 C   0  0  0  0  0  0  0  0  0  0  0  0
  -27.4780  -28.7370   20.4530 C   0  0  0  0  0  3  0  0  0  0  0  0
  -26.4670  -26.9670   19.1180 C   0  0  0  0  0  3  0  0  0  0  0  0
  -25.2270  -27.6340   19.1610 C   0  0  0  0  0  3  0  0  0  0  0  0
  -23.8300  -29.6440   19.9320 C   0  0  0  0  0  2  0  0  0  0  0  0
  -24.7870  -30.8330   21.9610 N   0  0  0  0  0  0  0  0  0  0  0  0
  -23.5740  -31.7240   23.6540 O   0  0  0  0  0  0  0  0  0  0  0  0
  -22.9560  -29.0880   22.2220 C   0  0  0  0  0  0  0  0  0  0  0  0
  -21.6470  -28.8410   22.0450 N   0  0  0  0  0  0  0  0  0  0  0  0
  -23.6570  -28.4430   23.0080 O   0  0  0  0  0  0  0  0  0  0  0  0
  -21.1450  -29.4160   21.3820 H   0  0  0  0  0  0  0  0  0  0  0  0
  -18.3290  -27.4560   22.3890 C   0  0  0  0  0  0  0  0  0  0  0  0
  -20.8670  -27.8100   22.7260 C   0  0  0  0  0  3  0  0  0  0  0  0
  -21.0470  -26.4350   22.0460 C   0  0  0  0  0  2  0  0  0  0  0  0
  -19.9790  -26.1410   20.9890 C   0  0  0  0  0  2  0  0  0  0  0  0
  -18.5810  -26.1720   21.6160 C   0  0  0  0  0  2  0  0  0  0  0  0
  -19.4030  -28.2330   22.8960 C   0  0  0  0  0  0  0  0  0  0  0  0
  -19.1190  -29.4360   23.5770 C   0  0  0  0  0  3  0  0  0  0  0  0
  -17.7900  -29.8630   23.7570 C   0  0  0  0  0  3  0  0  0  0  0  0
  -16.7290  -29.0820   23.2670 C   0  0  0  0  0  3  0  0  0  0  0  0
  -16.9980  -27.8800   22.5890 C   0  0  0  0  0  3  0  0  0  0  0  0
  -25.9200  -32.1870   23.8070 C   0  0  0  0  0  3  0  0  0  0  0  0
  -25.5410  -33.5410   24.2290 N   0  0  0  0  0  0  0  0  0  0  0  0
  -25.8270  -34.6580   23.5450 C   0  0  0  0  0  0  0  0  0  0  0  0
  -26.5110  -34.6580   22.5190 O   0  0  0  0  0  0  0  0  0  0  0  0
  -24.9310  -33.6110   25.0310 H   0  0  0  0  0  0  0  0  0  0  0  0
  -24.0060  -36.3730   23.2970 C   0  0  0  0  0  1  0  0  0  0  0  0
  -25.2650  -35.9850   24.0890 C   0  0  0  0  0  3  0  0  0  0  0  0
  -27.3510  -36.9220   24.9830 C   0  0  0  0  0  1  0  0  0  0  0  0
  -26.2400  -37.0960   24.0510 N   0  0  0  0  0  0  0  0  0  0  0  0
  -25.7870  -37.9810   24.2620 H   0  0  0  0  0  0  0  0  0  0  0  0
  -26.4550  -31.3500   25.0320 C   0  0  1  0  0  0  0  0  0  0  0  0
  -25.3510  -30.9540   26.0420 C   0  0  0  0  0  1  0  0  0  0  0  0
  -27.1430  -30.0520   24.5470 C   0  0  0  0  0  1  0  0  0  0  0  0
  -27.5290  -32.1630   25.7930 C   0  0  0  0  0  1  0  0  0  0  0  0
  1 51  1  0
  1  2  1  0
  2  5  1  0
  2  4  1  0
  3  2  1  0
  6  5  1  0
  7  6  1  0
  8  7  1  0
  9 10  1  0
  9  8  1  0
 11 12  1  0
 11 10  1  0
 13 19  1  0
 14 19  1  0
 15 16  1  0
 15 14  1  0
 17 16  1  0
 17 26  1  0
 17 18  1  0
 19 18  1  0
 20 13  2  0
 21 13  1  0
 21 12  1  0
 22 21  1  0
 23 24  2  0
 24 43  1  0
 24 25  1  0
 25 28  1  0
 26 23  1  0
 26 27  1  0
 27 25  2  0
 28 29  1  0
 29 30  2  0
 31 34  1  0
 31 30  1  0
 32 31  2  0
 33 32  1  0
 33 28  2  0
 34 35  1  0
 35 36  1  0
 36 37  2  0
 38 37  1  0
 38 42  1  0
 39 38  2  0
 40 35  2  0
 40 39  1  0
 41 40  1  0
 43 44  1  0
 44 47  1  0
 44 46  1  0
 45 43  2  0
 48 23  1  0
 49 48  1  0
 50 48  1  0
 51 52  1  0
 53 54  1  0
 53 52  1  0
 55 56  1  0
 55 54  1  0
 56 57  1  0
 58 60  1  0
 58 57  1  0
 59 70  2  0
 60 65  1  0
 61 69  1  0
 61 71  1  0
 62 68  1  0
 62 64  1  0
 63 69  1  0
 64 63  1  0
 65 64  2  0
 66 67  1  0
 66 60  2  0
 67 62  2  0
 68 61  1  0
 69 59  1  0
 71 73  2  0
 72 71  1  0
 74 72  1  0
 75 84  2  0
 75 80  1  0
 76 72  1  0
 76 80  1  0
 77 76  1  0
 78 79  1  0
 78 77  1  0
 79 75  1  0
 80 81  2  0
 81 82  1  0
 83 82  2  0
 84 83  1  0
 85 59  1  0
 85 86  1  0
 85 95  1  0
 86 89  1  0
 87 91  1  0
 87 86  1  0
 88 87  2  0
 91 90  1  0
 93 91  1  0
 93 94  1  0
 93 92  1  0
 95 98  1  1
 95 96  1  0
 97 95  1  0
M  ISO  4  13 100  21 100  57 101  58 101
M  END
>  <TORSDO>  (59) 
F 32

>  <SCORE>  (59) 
26.171

>  <name>  (59) 
58

>  <ligand_id>  (59) 
58

>  <original_smiles>  (59) 
[H]c1c([H])c([H])c2c(c1[H])C([H])([H])C([H])([H])C([H])([H])C2([H])N([H])C(=O)C1([H])N(C(=O)C([H])(N([H])C(=O)C([H])(N([H])C([H])([H])[H])C([H])([H])[H])C(C([H])([H])[H])(C([H])([H])[H])C([H])([H])[H])C([H])([H])c2c([H])c(OC([H])([H])C([H])([H])OC([H])([H])C([H])([H])C([H])([H])C([H])([H])C([H])([H])[N+]([H])([H])C([H])([H])C([H])([H])OC([H])([H])C([H])([H])OC([H])([H])C([H])([H])N([H])C(=O)N3C([H])([H])C([H])([H])C([H])([H])C([H])(n4nc(-c5c([H])c([H])c(Oc6c([H])c([H])c(F)c([H])c6F)c([H])c5[H])c(C(=O)N([H])[H])c4N([H])[H])C3([H])[H])c([H])c([H])c2C1([H])[H]

>  <smiles>  (59) 
[H]c1c([H])c([H])c2c(c1[H])C([H])([H])C([H])([H])C([H])([H])C2([H])N([H])C(=O)C1([H])N(C(=O)C([H])(N([H])C(=O)C([H])(N([H])C([H])([H])[H])C([H])([H])[H])C(C([H])([H])[H])(C([H])([H])[H])C([H])([H])[H])C([H])([H])c2c([H])c(OC([H])([H])C([H])([H])OC([H])([H])C([H])([H])C([H])([H])C([H])([H])C([H])([H])[N+]([H])([H])C([H])([H])C([H])([H])OC([H])([H])C([H])([H])OC([H])([H])C([H])([H])N([H])C(=O)N3C([H])([H])C([H])([H])C([H])([H])C([H])(n4nc(-c5c([H])c([H])c(Oc6c([H])c([H])c(F)c([H])c6F)c([H])c5[H])c(C(=O)N([H])[H])c4N([H])[H])C3([H])[H])c([H])c([H])c2C1([H])[H]

$$$$
59:0:0
     RDKit          3D

106113  0  0  1  0  0  0  0  0999 V2000
  -25.8970  -23.1250   16.6300 C   0  0  0  0  0  2  0  0  0  0  0  0
  -24.9300  -23.9270   17.3170 O   0  0  0  0  0  0  0  0  0  0  0  0
  -23.5980  -23.5350   17.0060 C   0  0  0  0  0  2  0  0  0  0  0  0
  -22.5600  -24.3710   17.7740 C   0  0  0  0  0  2  0  0  0  0  0  0
  -22.2520  -23.7980   19.0400 O   0  0  0  0  0  0  0  0  0  0  0  0
  -23.0460  -24.2850   20.1120 C   0  0  0  0  0  2  0  0  0  0  0  0
  -22.7070  -23.4700   21.3740 C   0  0  0  0  0  2  0  0  0  0  0  0
  -23.0250  -22.0860   21.2280 O   0  0  0  0  0  0  0  0  0  0  0  0
  -24.4080  -21.7840   21.3670 C   0  0  0  0  0  2  0  0  0  0  0  0
  -24.6500  -20.2790   21.1750 C   0  0  0  0  0  2  0  0  0  0  0  0
  -26.0460  -20.0790   21.0030 O   0  0  0  0  0  0  0  0  0  0  0  0
  -26.4340  -18.7120   20.9380 C   0  0  0  0  0  2  0  0  0  0  0  0
  -27.9380  -18.6630   20.6210 C   0  0  0  0  0  2  0  0  0  0  0  0
  -28.5710  -17.5410   21.2270 O   0  0  0  0  0  0  0  0  0  0  0  0
  -29.9810  -17.5500   21.0200 C   0  0  0  0  0  2  0  0  0  0  0  0
  -30.6400  -16.5140   21.9400 C   0  0  0  0  0  2  0  0  0  0  0  0
  -30.7350  -14.3670   20.6770 C   0  0  0  0  0  0  0  0  0  0  0  0
  -30.4210  -12.2850   19.3920 C   0  0  0  0  0  2  0  0  0  0  0  0
  -29.4910  -12.5380   18.1920 C   0  0  0  0  0  2  0  0  0  0  0  0
  -28.0120  -12.3920   18.6030 C   0  0  0  0  0  2  0  0  0  0  0  0
  -27.6690  -13.2000   19.8830 C   0  0  0  0  0  3  0  0  0  0  0  0
  -28.7040  -12.9120   20.9920 C   0  0  0  0  0  2  0  0  0  0  0  0
  -30.0460  -13.2190   20.4620 N   0  0  0  0  0  0  0  0  0  0  0  0
  -31.7670  -14.6730   20.0750 O   0  0  0  0  0  0  0  0  0  0  0  0
  -30.1990  -15.1670   21.6030 N   0  0  0  0  0  0  0  0  0  0  0  0
  -29.3450  -14.8480   22.0360 H   0  0  0  0  0  0  0  0  0  0  0  0
  -25.2620  -13.8130   20.5650 C   0  0  0  0  0  0  0  0  0  0  0  0
  -24.1850  -13.0420   20.9140 C   0  0  0  0  0  0  0  0  0  0  0  0
  -24.6400  -11.6880   20.8700 C   0  0  0  0  0  0  0  0  0  0  0  0
  -26.3060  -12.9300   20.3390 N   0  0  0  0  0  0  0  0  0  0  0  0
  -25.9330  -11.6460   20.5730 N   0  0  0  0  0  0  0  0  0  0  0  0
  -23.9060  -10.4280   21.0380 C   0  0  0  0  0  0  0  0  0  0  0  0
  -24.3610   -9.4200   21.9160 C   0  0  0  0  0  3  0  0  0  0  0  0
  -23.6290   -8.2240   22.0750 C   0  0  0  0  0  3  0  0  0  0  0  0
  -22.4270   -8.0270   21.3540 C   0  0  0  0  0  0  0  0  0  0  0  0
  -21.9900   -9.0250   20.4650 C   0  0  0  0  0  3  0  0  0  0  0  0
  -22.7230  -10.2130   20.3050 C   0  0  0  0  0  3  0  0  0  0  0  0
  -21.6640   -6.8870   21.4240 O   0  0  0  0  0  0  0  0  0  0  0  0
  -21.6860   -6.0730   22.5280 C   0  0  0  0  0  0  0  0  0  0  0  0
  -21.4020   -6.5630   23.8210 C   0  0  0  0  0  3  0  0  0  0  0  0
  -21.3660   -5.6780   24.9180 C   0  0  0  0  0  3  0  0  0  0  0  0
  -21.6040   -4.3050   24.7220 C   0  0  0  0  0  0  0  0  0  0  0  0
  -21.8820   -3.8140   23.4340 C   0  0  0  0  0  3  0  0  0  0  0  0
  -21.9200   -4.6960   22.3400 C   0  0  0  0  0  0  0  0  0  0  0  0
  -22.1660   -4.2140   21.0980 F   0  0  0  0  0  0  0  0  0  0  0  0
  -21.5630   -3.4530   25.7730 F   0  0  0  0  0  0  0  0  0  0  0  0
  -22.7880  -13.5240   21.1810 C   0  0  0  0  0  0  0  0  0  0  0  0
  -22.0510  -12.8260   22.0380 N   0  0  0  0  0  0  0  0  0  0  0  0
  -22.3570  -14.5550   20.6670 O   0  0  0  0  0  0  0  0  0  0  0  0
  -22.4120  -11.9920   22.4780 H   0  0  0  0  0  0  0  0  0  0  0  0
  -21.1150  -13.1310   22.2600 H   0  0  0  0  0  0  0  0  0  0  0  0
  -25.4350  -15.1840   20.4070 N   0  0  0  0  0  0  0  0  0  0  0  0
  -24.6670  -15.8380   20.5030 H   0  0  0  0  0  0  0  0  0  0  0  0
  -26.3070  -15.6200   20.1330 H   0  0  0  0  0  0  0  0  0  0  0  0
  -27.3090  -23.7470   16.7120 C   0  0  0  0  0  3  0  0  0  0  0  0
  -27.4980  -24.8630   15.6610 C   0  0  0  0  0  0  0  0  0  0  0  0
  -28.1630  -24.5570   14.5520 N   0  0  0  0  0  0  0  0  0  0  0  0
  -27.0520  -25.9960   15.8390 O   0  0  0  0  0  0  0  0  0  0  0  0
  -28.5320  -23.6270   14.4190 H   0  0  0  0  0  0  0  0  0  0  0  0
  -28.3240  -25.2560   13.8420 H   0  0  0  0  0  0  0  0  0  0  0  0
  -28.5630  -24.8080   18.6160 C   0  0  0  0  0  0  0  0  0  0  0  0
  -27.4850  -24.2330   18.0740 N   0  0  0  0  0  0  0  0  0  0  0  0
  -29.6380  -24.9180   18.0210 O   0  0  0  0  0  0  0  0  0  0  0  0
  -26.6340  -24.2120   18.6170 H   0  0  0  0  0  0  0  0  0  0  0  0
  -28.4060  -25.3390   20.0470 C   0  0  0  0  0  2  0  0  0  0  0  0
  -28.4270  -26.7700   20.0710 O   0  0  0  0  0  0  0  0  0  0  0  0
  -24.6120  -31.8710   23.2120 C   0  0  0  0  0  0  0  0  0  0  0  0
  -27.2300  -27.4560   20.0830 C   0  0  0  0  0  0  0  0  0  0  0  0
  -23.3960  -30.4970   21.5550 C   0  0  0  0  0  3  0  0  0  0  0  0
  -24.8390  -28.9680   20.1190 C   0  0  0  0  0  0  0  0  0  0  0  0
  -25.9250  -30.8430   21.3630 C   0  0  0  0  0  2  0  0  0  0  0  0
  -26.0000  -29.4820   20.7060 C   0  0  0  0  0  0  0  0  0  0  0  0
  -27.1990  -28.7360   20.6790 C   0  0  0  0  0  3  0  0  0  0  0  0
  -26.0390  -26.9480   19.5120 C   0  0  0  0  0  3  0  0  0  0  0  0
  -24.8510  -27.6990   19.5210 C   0  0  0  0  0  3  0  0  0  0  0  0
  -23.6010  -29.8320   20.1680 C   0  0  0  0  0  2  0  0  0  0  0  0
  -24.6630  -31.0840   22.1020 N   0  0  0  0  0  0  0  0  0  0  0  0
  -23.5320  -32.1460   23.7530 O   0  0  0  0  0  0  0  0  0  0  0  0
  -22.7390  -29.4680   22.5020 C   0  0  0  0  0  0  0  0  0  0  0  0
  -21.4140  -29.2990   22.3730 N   0  0  0  0  0  0  0  0  0  0  0  0
  -23.4200  -28.8240   23.3060 O   0  0  0  0  0  0  0  0  0  0  0  0
  -20.9280  -29.8660   21.6910 H   0  0  0  0  0  0  0  0  0  0  0  0
  -18.0300  -28.1380   22.8410 C   0  0  0  0  0  0  0  0  0  0  0  0
  -20.5880  -28.3650   23.1350 C   0  0  0  0  0  3  0  0  0  0  0  0
  -20.6780  -26.9360   22.5510 C   0  0  0  0  0  2  0  0  0  0  0  0
  -19.5860  -26.6360   21.5190 C   0  0  0  0  0  2  0  0  0  0  0  0
  -18.1960  -26.7980   22.1420 C   0  0  0  0  0  2  0  0  0  0  0  0
  -19.1530  -28.8820   23.2900 C   0  0  0  0  0  0  0  0  0  0  0  0
  -18.9450  -30.1410   23.8940 C   0  0  0  0  0  3  0  0  0  0  0  0
  -17.6440  -30.6540   24.0580 C   0  0  0  0  0  3  0  0  0  0  0  0
  -16.5340  -29.9050   23.6290 C   0  0  0  0  0  3  0  0  0  0  0  0
  -16.7280  -28.6490   23.0270 C   0  0  0  0  0  3  0  0  0  0  0  0
  -25.9020  -32.4840   23.8410 C   0  0  0  0  0  3  0  0  0  0  0  0
  -25.5890  -33.8640   24.2340 N   0  0  0  0  0  0  0  0  0  0  0  0
  -25.9020  -34.9490   23.5140 C   0  0  0  0  0  0  0  0  0  0  0  0
  -26.5580  -34.8930   22.4700 O   0  0  0  0  0  0  0  0  0  0  0  0
  -25.0060  -33.9820   25.0500 H   0  0  0  0  0  0  0  0  0  0  0  0
  -24.1490  -36.7310   23.2640 C   0  0  0  0  0  1  0  0  0  0  0  0
  -25.4100  -36.3120   24.0350 C   0  0  0  0  0  3  0  0  0  0  0  0
  -27.5580  -37.1810   24.8460 C   0  0  0  0  0  1  0  0  0  0  0  0
  -26.4290  -37.3800   23.9420 N   0  0  0  0  0  0  0  0  0  0  0  0
  -26.0190  -38.2880   24.1430 H   0  0  0  0  0  0  0  0  0  0  0  0
  -26.4470  -31.6610   25.0730 C   0  0  1  0  0  0  0  0  0  0  0  0
  -25.3750  -31.3720   26.1490 C   0  0  0  0  0  1  0  0  0  0  0  0
  -27.0260  -30.3040   24.6100 C   0  0  0  0  0  1  0  0  0  0  0  0
  -27.6050  -32.4350   25.7470 C   0  0  0  0  0  1  0  0  0  0  0  0
  1  2  1  0
  3  2  1  0
  3  4  1  0
  4  5  1  0
  5  6  1  0
  6  7  1  0
  8  9  1  0
  8  7  1  0
 10  9  1  0
 11 10  1  0
 12 11  1  0
 13 12  1  0
 13 14  1  0
 15 14  1  0
 15 16  1  0
 17 25  1  0
 18 23  1  0
 19 20  1  0
 19 18  1  0
 21 20  1  0
 21 30  1  0
 21 22  1  0
 23 17  1  0
 23 22  1  0
 24 17  2  0
 25 16  1  0
 25 26  1  0
 27 28  2  0
 28 47  1  0
 29 28  1  0
 29 32  1  0
 30 27  1  0
 30 31  1  0
 31 29  2  0
 32 33  1  0
 33 34  2  0
 35 38  1  0
 35 34  1  0
 36 35  2  0
 37 36  1  0
 37 32  2  0
 38 39  1  0
 39 40  1  0
 40 41  2  0
 42 41  1  0
 42 46  1  0
 43 42  2  0
 44 39  2  0
 44 43  1  0
 45 44  1  0
 47 48  1  0
 48 51  1  0
 48 50  1  0
 49 47  2  0
 52 53  1  0
 52 27  1  0
 54 52  1  0
 55  1  1  0
 55 62  1  0
 56 58  2  0
 56 55  1  0
 57 56  1  0
 59 57  1  0
 60 57  1  0
 61 65  1  0
 62 61  1  0
 62 64  1  0
 63 61  2  0
 65 66  1  0
 66 68  1  0
 67 78  2  0
 68 73  1  0
 69 77  1  0
 69 79  1  0
 70 76  1  0
 70 72  1  0
 71 77  1  0
 72 71  1  0
 73 72  2  0
 74 75  1  0
 74 68  2  0
 75 70  2  0
 76 69  1  0
 77 67  1  0
 79 81  2  0
 80 79  1  0
 82 80  1  0
 83 92  2  0
 83 88  1  0
 84 80  1  0
 84 88  1  0
 85 84  1  0
 86 87  1  0
 86 85  1  0
 87 83  1  0
 88 89  2  0
 89 90  1  0
 91 90  2  0
 92 91  1  0
 93 67  1  0
 93 94  1  0
 93103  1  0
 94 97  1  0
 95 99  1  0
 95 94  1  0
 96 95  2  0
 99 98  1  0
101 99  1  0
101102  1  0
101100  1  0
103106  1  1
103104  1  0
105103  1  0
M  ISO  4  17 100  25 100  65 101  66 101
M  END
>  <TORSDO>  (60) 
F 35

>  <SCORE>  (60) 
6.551

>  <name>  (60) 
59

>  <ligand_id>  (60) 
59

>  <original_smiles>  (60) 
[H]c1c([H])c([H])c2c(c1[H])C([H])([H])C([H])([H])C([H])([H])C2([H])N([H])C(=O)C1([H])N(C(=O)C([H])(N([H])C(=O)C([H])(N([H])C([H])([H])[H])C([H])([H])[H])C(C([H])([H])[H])(C([H])([H])[H])C([H])([H])[H])C([H])([H])c2c([H])c(OC([H])([H])C(=O)N([H])C([H])(C(=O)N([H])[H])C([H])([H])OC([H])([H])C([H])([H])OC([H])([H])C([H])([H])OC([H])([H])C([H])([H])OC([H])([H])C([H])([H])OC([H])([H])C([H])([H])N([H])C(=O)N3C([H])([H])C([H])([H])C([H])([H])C([H])(n4nc(-c5c([H])c([H])c(Oc6c([H])c([H])c(F)c([H])c6F)c([H])c5[H])c(C(=O)N([H])[H])c4N([H])[H])C3([H])[H])c([H])c([H])c2C1([H])[H]

>  <smiles>  (60) 
[H]c1c([H])c([H])c2c(c1[H])C([H])([H])C([H])([H])C([H])([H])C2([H])N([H])C(=O)C1([H])N(C(=O)C([H])(N([H])C(=O)C([H])(N([H])C([H])([H])[H])C([H])([H])[H])C(C([H])([H])[H])(C([H])([H])[H])C([H])([H])[H])C([H])([H])c2c([H])c(OC([H])([H])C(=O)N([H])C([H])(C(=O)N([H])[H])C([H])([H])OC([H])([H])C([H])([H])OC([H])([H])C([H])([H])OC([H])([H])C([H])([H])OC([H])([H])C([H])([H])OC([H])([H])C([H])([H])N([H])C(=O)N3C([H])([H])C([H])([H])C([H])([H])C([H])(n4nc(-c5c([H])c([H])c(Oc6c([H])c([H])c(F)c([H])c6F)c([H])c5[H])c(C(=O)N([H])[H])c4N([H])[H])C3([H])[H])c([H])c([H])c2C1([H])[H]

$$$$
60:0:0
     RDKit          3D

104113  0  0  1  0  0  0  0  0999 V2000
  -29.1120  -23.2690   19.3280 C   0  0  0  0  0  2  0  0  0  0  0  0
  -28.8150  -21.7620   19.2180 C   0  0  0  0  0  2  0  0  0  0  0  0
  -31.3220  -21.4310   18.6560 C   0  0  0  0  0  2  0  0  0  0  0  0
  -29.4730  -23.9220   17.9780 C   0  0  0  0  0  2  0  0  0  0  0  0
  -31.0860  -22.1370   17.3070 C   0  0  0  0  0  2  0  0  0  0  0  0
  -30.0600  -20.8500   19.3370 C   0  0  0  0  0  3  0  0  0  0  0  0
  -30.8340  -23.5970   17.4570 N   0  0  1  0  0  4  0  0  0  0  0  0
  -31.5100  -23.9430   18.1250 H   0  0  0  0  0  0  0  0  0  0  0  0
  -29.7620  -19.4240   18.8300 C   0  0  0  0  0  0  0  0  0  0  0  0
  -29.6730  -17.1220   19.6320 C   0  0  0  0  0  0  0  0  0  0  0  0
  -29.8610  -18.4490   19.7510 N   0  0  0  0  0  0  0  0  0  0  0  0
  -29.4650  -19.2540   17.6430 O   0  0  0  0  0  0  0  0  0  0  0  0
  -29.3740  -16.5480   18.5810 O   0  0  0  0  0  0  0  0  0  0  0  0
  -30.1000  -18.7570   20.6800 H   0  0  0  0  0  0  0  0  0  0  0  0
  -30.9310  -14.3570   19.7870 C   0  0  0  0  0  0  0  0  0  0  0  0
  -30.3700  -12.3640   18.4420 C   0  0  0  0  0  2  0  0  0  0  0  0
  -29.3070  -12.7110   17.3820 C   0  0  0  0  0  2  0  0  0  0  0  0
  -27.8880  -12.5780   17.9720 C   0  0  0  0  0  2  0  0  0  0  0  0
  -27.7360  -13.3140   19.3290 C   0  0  0  0  0  3  0  0  0  0  0  0
  -28.8940  -12.9510   20.2810 C   0  0  0  0  0  2  0  0  0  0  0  0
  -30.1650  -13.2500   19.5950 N   0  0  0  0  0  0  0  0  0  0  0  0
  -31.9030  -14.6470   19.0820 O   0  0  0  0  0  0  0  0  0  0  0  0
  -30.9400  -16.0130   23.0460 C   0  0  0  0  0  2  0  0  0  0  0  0
  -30.3180  -17.0810   22.1630 C   0  0  0  0  0  2  0  0  0  0  0  0
  -31.5500  -15.0500   22.0330 C   0  0  0  0  0  2  0  0  0  0  0  0
  -29.7930  -16.2900   20.9420 C   0  0  0  0  0  3  0  0  0  0  0  0
  -30.6390  -15.0730   20.8890 N   0  0  0  0  0  0  0  0  0  0  0  0
  -25.4420  -13.9320   20.3230 C   0  0  0  0  0  0  0  0  0  0  0  0
  -24.4060  -13.1630   20.7750 C   0  0  0  0  0  0  0  0  0  0  0  0
  -24.8290  -11.8060   20.6340 C   0  0  0  0  0  0  0  0  0  0  0  0
  -26.4360  -13.0440   19.9400 N   0  0  0  0  0  0  0  0  0  0  0  0
  -26.0740  -11.7580   20.1790 N   0  0  0  0  0  0  0  0  0  0  0  0
  -24.1000  -10.5500   20.8490 C   0  0  0  0  0  0  0  0  0  0  0  0
  -24.5400   -9.5930   21.7900 C   0  0  0  0  0  3  0  0  0  0  0  0
  -23.8110   -8.4010   21.9910 C   0  0  0  0  0  3  0  0  0  0  0  0
  -22.6290   -8.1580   21.2520 C   0  0  0  0  0  0  0  0  0  0  0  0
  -22.2090   -9.1030   20.2990 C   0  0  0  0  0  3  0  0  0  0  0  0
  -22.9400  -10.2870   20.0960 C   0  0  0  0  0  3  0  0  0  0  0  0
  -21.8700   -7.0180   21.3640 O   0  0  0  0  0  0  0  0  0  0  0  0
  -21.7590   -6.3400   22.5520 C   0  0  0  0  0  0  0  0  0  0  0  0
  -21.2600   -6.9570   23.7200 C   0  0  0  0  0  3  0  0  0  0  0  0
  -21.0970   -6.2040   24.9000 C   0  0  0  0  0  3  0  0  0  0  0  0
  -21.4250   -4.8340   24.9130 C   0  0  0  0  0  0  0  0  0  0  0  0
  -21.9170   -4.2170   23.7490 C   0  0  0  0  0  3  0  0  0  0  0  0
  -22.0810   -4.9680   22.5720 C   0  0  0  0  0  0  0  0  0  0  0  0
  -22.5360   -4.3620   21.4480 F   0  0  0  0  0  0  0  0  0  0  0  0
  -21.2610   -4.1090   26.0430 F   0  0  0  0  0  0  0  0  0  0  0  0
  -23.0590  -13.6510   21.2250 C   0  0  0  0  0  0  0  0  0  0  0  0
  -22.4390  -12.9560   22.1730 N   0  0  0  0  0  0  0  0  0  0  0  0
  -22.5680  -14.6830   20.7700 O   0  0  0  0  0  0  0  0  0  0  0  0
  -22.8520  -12.1220   22.5640 H   0  0  0  0  0  0  0  0  0  0  0  0
  -21.5390  -13.2640   22.5150 H   0  0  0  0  0  0  0  0  0  0  0  0
  -25.6140  -15.3080   20.1860 N   0  0  0  0  0  0  0  0  0  0  0  0
  -24.8570  -15.9560   20.3820 H   0  0  0  0  0  0  0  0  0  0  0  0
  -26.3950  -15.7470   19.7170 H   0  0  0  0  0  0  0  0  0  0  0  0
  -31.1470  -24.3300   16.1960 C   0  0  0  0  0  2  0  0  0  0  0  0
  -31.4160  -25.8230   16.4220 C   0  0  0  0  0  2  0  0  0  0  0  0
  -32.5230  -25.9540   17.3050 O   0  0  0  0  0  0  0  0  0  0  0  0
  -32.7770  -27.3130   17.6520 C   0  0  0  0  0  2  0  0  0  0  0  0
  -32.4220  -27.5570   19.1230 C   0  0  0  0  0  2  0  0  0  0  0  0
  -31.0810  -27.1520   19.3660 O   0  0  0  0  0  0  0  0  0  0  0  0
  -30.5570  -27.6750   20.5820 C   0  0  0  0  0  2  0  0  0  0  0  0
  -29.4000  -26.7810   21.0490 C   0  0  0  0  0  2  0  0  0  0  0  0
  -28.4170  -26.6180   20.0280 O   0  0  0  0  0  0  0  0  0  0  0  0
  -24.5360  -31.7370   23.1750 C   0  0  0  0  0  0  0  0  0  0  0  0
  -27.2770  -27.3860   20.0810 C   0  0  0  0  0  0  0  0  0  0  0  0
  -23.3660  -30.3520   21.4890 C   0  0  0  0  0  3  0  0  0  0  0  0
  -24.8560  -28.8440   20.0720 C   0  0  0  0  0  0  0  0  0  0  0  0
  -25.8880  -30.7380   21.3400 C   0  0  0  0  0  2  0  0  0  0  0  0
  -25.9940  -29.3770   20.6890 C   0  0  0  0  0  0  0  0  0  0  0  0
  -27.2040  -28.6550   20.7000 C   0  0  0  0  0  3  0  0  0  0  0  0
  -26.1260  -26.8640   19.4580 C   0  0  0  0  0  3  0  0  0  0  0  0
  -24.9130  -27.5790   19.4590 C   0  0  0  0  0  3  0  0  0  0  0  0
  -23.6050  -29.6910   20.1030 C   0  0  0  0  0  2  0  0  0  0  0  0
  -24.6130  -30.9570   22.0610 N   0  0  0  0  0  0  0  0  0  0  0  0
  -23.4440  -31.9950   23.7010 O   0  0  0  0  0  0  0  0  0  0  0  0
  -22.7050  -29.3140   22.4220 C   0  0  0  0  0  0  0  0  0  0  0  0
  -21.3850  -29.1280   22.2630 N   0  0  0  0  0  0  0  0  0  0  0  0
  -23.3750  -28.6810   23.2400 O   0  0  0  0  0  0  0  0  0  0  0  0
  -20.9070  -29.6930   21.5760 H   0  0  0  0  0  0  0  0  0  0  0  0
  -18.0010  -27.9450   22.7010 C   0  0  0  0  0  0  0  0  0  0  0  0
  -20.5560  -28.1760   23.0010 C   0  0  0  0  0  3  0  0  0  0  0  0
  -20.6540  -26.7600   22.3870 C   0  0  0  0  0  2  0  0  0  0  0  0
  -19.5600  -26.4720   21.3560 C   0  0  0  0  0  2  0  0  0  0  0  0
  -18.1740  -26.6110   21.9920 C   0  0  0  0  0  2  0  0  0  0  0  0
  -19.1200  -28.6860   23.1600 C   0  0  0  0  0  0  0  0  0  0  0  0
  -18.9070  -29.9360   23.7810 C   0  0  0  0  0  3  0  0  0  0  0  0
  -17.6050  -30.4440   23.9450 C   0  0  0  0  0  3  0  0  0  0  0  0
  -16.4980  -29.6990   23.5030 C   0  0  0  0  0  3  0  0  0  0  0  0
  -16.6970  -28.4500   22.8880 C   0  0  0  0  0  3  0  0  0  0  0  0
  -25.8100  -32.3610   23.8290 C   0  0  0  0  0  3  0  0  0  0  0  0
  -26.3080  -31.5730   25.1020 C   0  0  1  0  0  0  0  0  0  0  0  0
  -25.1960  -31.3090   26.1430 C   0  0  0  0  0  1  0  0  0  0  0  0
  -26.9080  -30.2070   24.6940 C   0  0  0  0  0  1  0  0  0  0  0  0
  -27.4380  -32.3650   25.8020 C   0  0  0  0  0  1  0  0  0  0  0  0
  -25.4940  -33.7550   24.1690 N   0  0  0  0  0  0  0  0  0  0  0  0
  -25.8590  -34.8160   23.4370 C   0  0  0  0  0  0  0  0  0  0  0  0
  -26.5680  -34.7260   22.4310 O   0  0  0  0  0  0  0  0  0  0  0  0
  -24.8710  -33.9010   24.9480 H   0  0  0  0  0  0  0  0  0  0  0  0
  -24.1720  -36.6330   23.0180 C   0  0  0  0  0  1  0  0  0  0  0  0
  -25.3570  -36.1990   23.8950 C   0  0  0  0  0  3  0  0  0  0  0  0
  -27.4430  -37.0420   24.8770 C   0  0  0  0  0  1  0  0  0  0  0  0
  -26.4040  -37.2430   23.8700 N   0  0  0  0  0  0  0  0  0  0  0  0
  -25.9990  -38.1640   24.0130 H   0  0  0  0  0  0  0  0  0  0  0  0
  2  1  1  0
  2  6  1  0
  3  6  1  0
  4  1  1  0
  5  7  1  0
  5  3  1  0
  6  9  1  0
  7  4  1  0
  7  8  1  1
  9 11  1  0
 10 11  1  0
 11 14  1  0
 12  9  2  0
 13 10  2  0
 15 27  1  0
 16 21  1  0
 17 18  1  0
 17 16  1  0
 19 18  1  0
 19 31  1  0
 19 20  1  0
 21 15  1  0
 21 20  1  0
 22 15  2  0
 24 23  1  0
 25 23  1  0
 26 10  1  0
 26 24  1  0
 27 26  1  0
 27 25  1  0
 28 29  2  0
 29 48  1  0
 30 29  1  0
 30 33  1  0
 31 32  1  0
 31 28  1  0
 32 30  2  0
 33 34  1  0
 34 35  2  0
 36 39  1  0
 36 35  1  0
 37 36  2  0
 38 37  1  0
 38 33  2  0
 39 40  1  0
 40 45  2  0
 40 41  1  0
 41 42  2  0
 42 43  1  0
 43 47  1  0
 44 43  2  0
 45 44  1  0
 46 45  1  0
 48 49  1  0
 49 52  1  0
 49 51  1  0
 50 48  2  0
 53 28  1  0
 53 54  1  0
 55 53  1  0
 56 57  1  0
 56  7  1  0
 57 58  1  0
 58 59  1  0
 59 60  1  0
 60 61  1  0
 61 62  1  0
 62 63  1  0
 64 66  1  0
 64 63  1  0
 65 76  2  0
 66 71  1  0
 67 75  1  0
 67 77  1  0
 68 74  1  0
 68 70  1  0
 69 75  1  0
 70 71  2  0
 70 69  1  0
 72 73  1  0
 72 66  2  0
 73 68  2  0
 74 67  1  0
 75 65  1  0
 77 79  2  0
 78 77  1  0
 80 78  1  0
 81 90  2  0
 81 86  1  0
 82 78  1  0
 82 86  1  0
 83 82  1  0
 84 85  1  0
 84 83  1  0
 85 81  1  0
 86 87  2  0
 87 88  1  0
 89 88  2  0
 90 89  1  0
 91 65  1  0
 91 96  1  0
 91 92  1  0
 92 95  1  1
 92 93  1  0
 94 92  1  0
 96 99  1  0
 97101  1  0
 97 96  1  0
 98 97  2  0
101100  1  0
103101  1  0
103104  1  0
103102  1  0
M  ISO  4  15 100  27 100  63 101  64 101
M  END
>  <TORSDO>  (61) 
F 25

>  <SCORE>  (61) 
-10.164

>  <name>  (61) 
60

>  <ligand_id>  (61) 
60

>  <original_smiles>  (61) 
[H]c1c([H])c([H])c2c(c1[H])C([H])([H])C([H])([H])C([H])([H])C2([H])N([H])C(=O)C1([H])N(C(=O)C([H])(N([H])C(=O)C([H])(N([H])C([H])([H])[H])C([H])([H])[H])C(C([H])([H])[H])(C([H])([H])[H])C([H])([H])[H])C([H])([H])c2c([H])c(OC([H])([H])C([H])([H])OC([H])([H])C([H])([H])OC([H])([H])C([H])([H])[N+]3([H])C([H])([H])C([H])([H])C([H])([H])C([H])(C(=O)N([H])C(=O)C4([H])N(C(=O)N5C([H])([H])C([H])([H])C([H])([H])C([H])(n6nc(-c7c([H])c([H])c(Oc8c([H])c([H])c(F)c([H])c8F)c([H])c7[H])c(C(=O)N([H])[H])c6N([H])[H])C5([H])[H])C([H])([H])C([H])([H])C4([H])[H])C([H])([H])C3([H])[H])c([H])c([H])c2C1([H])[H]

>  <smiles>  (61) 
[H]c1c([H])c([H])c2c(c1[H])C([H])([H])C([H])([H])C([H])([H])C2([H])N([H])C(=O)C1([H])N(C(=O)C([H])(N([H])C(=O)C([H])(N([H])C([H])([H])[H])C([H])([H])[H])C(C([H])([H])[H])(C([H])([H])[H])C([H])([H])[H])C([H])([H])c2c([H])c(OC([H])([H])C([H])([H])OC([H])([H])C([H])([H])OC([H])([H])C([H])([H])[N+]3([H])C([H])([H])C([H])([H])C([H])([H])C([H])(C(=O)N([H])C(=O)C4([H])N(C(=O)N5C([H])([H])C([H])([H])C([H])([H])C([H])(n6nc(-c7c([H])c([H])c(Oc8c([H])c([H])c(F)c([H])c8F)c([H])c7[H])c(C(=O)N([H])[H])c6N([H])[H])C5([H])[H])C([H])([H])C([H])([H])C4([H])[H])C([H])([H])C3([H])[H])c([H])c([H])c2C1([H])[H]

$$$$
61:0:0
     RDKit          3D

 98105  0  0  1  0  0  0  0  0999 V2000
  -30.8900  -20.2800   18.7800 C   0  0  0  0  0  2  0  0  0  0  0  0
  -32.1770  -19.7540   19.0840 O   0  0  0  0  0  0  0  0  0  0  0  0
  -32.1620  -18.8510   20.1820 C   0  0  0  0  0  2  0  0  0  0  0  0
  -33.5880  -18.3700   20.4920 C   0  0  0  0  0  2  0  0  0  0  0  0
  -34.0550  -17.1580   19.6670 C   0  0  0  0  0  2  0  0  0  0  0  0
  -34.7970  -16.2970   20.5250 O   0  0  0  0  0  0  0  0  0  0  0  0
  -35.0680  -15.0100   19.9770 C   0  0  0  0  0  2  0  0  0  0  0  0
  -35.1330  -13.9910   21.1260 C   0  0  0  0  0  2  0  0  0  0  0  0
  -33.8070  -13.7720   21.5880 O   0  0  0  0  0  0  0  0  0  0  0  0
  -33.7040  -13.1050   22.8350 C   0  0  0  0  0  2  0  0  0  0  0  0
  -32.2580  -12.6090   23.0410 C   0  0  0  0  0  2  0  0  0  0  0  0
  -31.1500  -13.6870   23.1800 C   0  0  0  0  0  2  0  0  0  0  0  0
  -30.8810  -14.2320   20.7480 C   0  0  0  0  0  0  0  0  0  0  0  0
  -30.4130  -12.2890   19.3370 C   0  0  0  0  0  2  0  0  0  0  0  0
  -29.4600  -12.5690   18.1680 C   0  0  0  0  0  2  0  0  0  0  0  0
  -28.0030  -12.3800   18.6110 C   0  0  0  0  0  2  0  0  0  0  0  0
  -27.6740  -13.2100   19.8790 C   0  0  0  0  0  3  0  0  0  0  0  0
  -28.7230  -12.9680   20.9930 C   0  0  0  0  0  2  0  0  0  0  0  0
  -30.0860  -13.1720   20.4640 N   0  0  0  0  0  0  0  0  0  0  0  0
  -31.6150  -14.7690   19.9240 O   0  0  0  0  0  0  0  0  0  0  0  0
  -30.9820  -14.5890   22.0330 N   0  0  0  0  0  0  0  0  0  0  0  0
  -31.4850  -15.4600   22.1350 H   0  0  0  0  0  0  0  0  0  0  0  0
  -25.2630  -13.8150   20.5680 C   0  0  0  0  0  0  0  0  0  0  0  0
  -24.1870  -13.0410   20.9160 C   0  0  0  0  0  0  0  0  0  0  0  0
  -24.6450  -11.6900   20.8720 C   0  0  0  0  0  0  0  0  0  0  0  0
  -26.3120  -12.9350   20.3430 N   0  0  0  0  0  0  0  0  0  0  0  0
  -25.9390  -11.6490   20.5790 N   0  0  0  0  0  0  0  0  0  0  0  0
  -23.9120  -10.4280   21.0380 C   0  0  0  0  0  0  0  0  0  0  0  0
  -24.3650   -9.4180   21.9140 C   0  0  0  0  0  3  0  0  0  0  0  0
  -23.6290   -8.2250   22.0760 C   0  0  0  0  0  3  0  0  0  0  0  0
  -22.4280   -8.0300   21.3540 C   0  0  0  0  0  0  0  0  0  0  0  0
  -21.9920   -9.0290   20.4650 C   0  0  0  0  0  3  0  0  0  0  0  0
  -22.7290  -10.2140   20.3020 C   0  0  0  0  0  3  0  0  0  0  0  0
  -21.6610   -6.8900   21.4250 O   0  0  0  0  0  0  0  0  0  0  0  0
  -21.6830   -6.0740   22.5280 C   0  0  0  0  0  0  0  0  0  0  0  0
  -21.4020   -6.5640   23.8220 C   0  0  0  0  0  3  0  0  0  0  0  0
  -21.3630   -5.6780   24.9170 C   0  0  0  0  0  3  0  0  0  0  0  0
  -21.6030   -4.3040   24.7210 C   0  0  0  0  0  0  0  0  0  0  0  0
  -21.8820   -3.8140   23.4330 C   0  0  0  0  0  3  0  0  0  0  0  0
  -21.9190   -4.6970   22.3400 C   0  0  0  0  0  0  0  0  0  0  0  0
  -22.1640   -4.2160   21.0970 F   0  0  0  0  0  0  0  0  0  0  0  0
  -21.5630   -3.4510   25.7720 F   0  0  0  0  0  0  0  0  0  0  0  0
  -22.7880  -13.5220   21.1790 C   0  0  0  0  0  0  0  0  0  0  0  0
  -22.0500  -12.8230   22.0370 N   0  0  0  0  0  0  0  0  0  0  0  0
  -22.3540  -14.5480   20.6600 O   0  0  0  0  0  0  0  0  0  0  0  0
  -22.4090  -11.9950   22.4890 H   0  0  0  0  0  0  0  0  0  0  0  0
  -21.1110  -13.1270   22.2490 H   0  0  0  0  0  0  0  0  0  0  0  0
  -25.4310  -15.1860   20.4100 N   0  0  0  0  0  0  0  0  0  0  0  0
  -24.6650  -15.8430   20.5000 H   0  0  0  0  0  0  0  0  0  0  0  0
  -26.3000  -15.6280   20.1340 H   0  0  0  0  0  0  0  0  0  0  0  0
  -30.5270  -21.4950   19.6490 C   0  0  0  0  0  2  0  0  0  0  0  0
  -29.1290  -22.0220   19.2990 C   0  0  0  0  0  2  0  0  0  0  0  0
  -28.5720  -24.4250   19.6150 C   0  0  0  0  0  0  0  0  0  0  0  0
  -28.7910  -23.1960   20.0930 N   0  0  0  0  0  0  0  0  0  0  0  0
  -28.5300  -24.6810   18.4080 O   0  0  0  0  0  0  0  0  0  0  0  0
  -28.7450  -23.0820   21.0970 H   0  0  0  0  0  0  0  0  0  0  0  0
  -28.3920  -25.5210   20.6670 C   0  0  0  0  0  2  0  0  0  0  0  0
  -28.4280  -26.8080   20.0580 O   0  0  0  0  0  0  0  0  0  0  0  0
  -24.6090  -31.8700   23.2090 C   0  0  0  0  0  0  0  0  0  0  0  0
  -27.2420  -27.4910   20.0810 C   0  0  0  0  0  0  0  0  0  0  0  0
  -23.3950  -30.4930   21.5460 C   0  0  0  0  0  3  0  0  0  0  0  0
  -24.8430  -28.9600   20.1150 C   0  0  0  0  0  0  0  0  0  0  0  0
  -25.9160  -30.8560   21.3490 C   0  0  0  0  0  2  0  0  0  0  0  0
  -25.9970  -29.4920   20.7010 C   0  0  0  0  0  0  0  0  0  0  0  0
  -27.2040  -28.7660   20.6770 C   0  0  0  0  0  3  0  0  0  0  0  0
  -26.0700  -26.9540   19.5020 C   0  0  0  0  0  3  0  0  0  0  0  0
  -24.8700  -27.6880   19.5130 C   0  0  0  0  0  3  0  0  0  0  0  0
  -23.6010  -29.8170   20.1620 C   0  0  0  0  0  2  0  0  0  0  0  0
  -24.6590  -31.0860   22.0960 N   0  0  0  0  0  0  0  0  0  0  0  0
  -23.5300  -32.1410   23.7540 O   0  0  0  0  0  0  0  0  0  0  0  0
  -22.7380  -29.4690   22.4970 C   0  0  0  0  0  0  0  0  0  0  0  0
  -21.4120  -29.3040   22.3720 N   0  0  0  0  0  0  0  0  0  0  0  0
  -23.4170  -28.8220   23.3010 O   0  0  0  0  0  0  0  0  0  0  0  0
  -20.9270  -29.8760   21.6940 H   0  0  0  0  0  0  0  0  0  0  0  0
  -18.0290  -28.1420   22.8490 C   0  0  0  0  0  0  0  0  0  0  0  0
  -20.5860  -28.3690   23.1330 C   0  0  0  0  0  3  0  0  0  0  0  0
  -20.6770  -26.9420   22.5420 C   0  0  0  0  0  2  0  0  0  0  0  0
  -19.5750  -26.6410   21.5210 C   0  0  0  0  0  2  0  0  0  0  0  0
  -18.1930  -26.7970   22.1620 C   0  0  0  0  0  2  0  0  0  0  0  0
  -19.1520  -28.8870   23.2910 C   0  0  0  0  0  0  0  0  0  0  0  0
  -18.9460  -30.1480   23.8920 C   0  0  0  0  0  3  0  0  0  0  0  0
  -17.6460  -30.6610   24.0580 C   0  0  0  0  0  3  0  0  0  0  0  0
  -16.5350  -29.9120   23.6330 C   0  0  0  0  0  3  0  0  0  0  0  0
  -16.7280  -28.6540   23.0330 C   0  0  0  0  0  3  0  0  0  0  0  0
  -25.9010  -32.4830   23.8380 C   0  0  0  0  0  3  0  0  0  0  0  0
  -26.4460  -31.6600   25.0690 C   0  0  1  0  0  0  0  0  0  0  0  0
  -25.3760  -31.3730   26.1470 C   0  0  0  0  0  1  0  0  0  0  0  0
  -27.0230  -30.3030   24.6010 C   0  0  0  0  0  1  0  0  0  0  0  0
  -27.6050  -32.4300   25.7450 C   0  0  0  0  0  1  0  0  0  0  0  0
  -25.5880  -33.8620   24.2320 N   0  0  0  0  0  0  0  0  0  0  0  0
  -25.9030  -34.9470   23.5120 C   0  0  0  0  0  0  0  0  0  0  0  0
  -26.5570  -34.8930   22.4670 O   0  0  0  0  0  0  0  0  0  0  0  0
  -25.0090  -33.9790   25.0500 H   0  0  0  0  0  0  0  0  0  0  0  0
  -24.1490  -36.7310   23.2630 C   0  0  0  0  0  1  0  0  0  0  0  0
  -25.4100  -36.3100   24.0340 C   0  0  0  0  0  3  0  0  0  0  0  0
  -27.5580  -37.1800   24.8470 C   0  0  0  0  0  1  0  0  0  0  0  0
  -26.4280  -37.3780   23.9420 N   0  0  0  0  0  0  0  0  0  0  0  0
  -26.0180  -38.2850   24.1410 H   0  0  0  0  0  0  0  0  0  0  0  0
  1  2  1  0
  1 51  1  0
  2  3  1  0
  3  4  1  0
  5  4  1  0
  5  6  1  0
  7  6  1  0
  7  8  1  0
  8  9  1  0
  9 10  1  0
 10 11  1  0
 11 12  1  0
 13 21  1  0
 14 19  1  0
 15 16  1  0
 15 14  1  0
 17 16  1  0
 17 26  1  0
 17 18  1  0
 19 13  1  0
 19 18  1  0
 20 13  2  0
 21 22  1  0
 21 12  1  0
 23 24  2  0
 24 43  1  0
 25 24  1  0
 25 28  1  0
 26 23  1  0
 26 27  1  0
 27 25  2  0
 28 29  1  0
 29 30  2  0
 31 34  1  0
 31 30  1  0
 32 31  2  0
 33 32  1  0
 33 28  2  0
 34 35  1  0
 35 36  1  0
 36 37  2  0
 38 37  1  0
 38 42  1  0
 39 38  2  0
 40 35  2  0
 40 39  1  0
 41 40  1  0
 43 44  1  0
 44 47  1  0
 44 46  1  0
 45 43  2  0
 48 49  1  0
 48 23  1  0
 50 48  1  0
 52 51  1  0
 52 54  1  0
 53 54  1  0
 53 57  1  0
 54 56  1  0
 55 53  2  0
 58 60  1  0
 58 57  1  0
 59 70  2  0
 60 65  1  0
 61 69  1  0
 61 71  1  0
 62 68  1  0
 62 64  1  0
 63 69  1  0
 64 63  1  0
 65 64  2  0
 66 67  1  0
 66 60  2  0
 67 62  2  0
 68 61  1  0
 69 59  1  0
 71 73  2  0
 72 71  1  0
 74 72  1  0
 75 84  2  0
 75 80  1  0
 76 72  1  0
 76 80  1  0
 77 76  1  0
 78 79  1  0
 78 77  1  0
 79 75  1  0
 80 81  2  0
 81 82  1  0
 83 82  2  0
 84 83  1  0
 85 59  1  0
 85 90  1  0
 85 86  1  0
 86 89  1  1
 86 87  1  0
 88 86  1  0
 90 93  1  0
 91 95  1  0
 91 90  1  0
 92 91  2  0
 95 94  1  0
 97 95  1  0
 97 98  1  0
 97 96  1  0
M  ISO  4  13 100  21 100  57 101  58 101
M  END
>  <TORSDO>  (62) 
F 31

>  <SCORE>  (62) 
-3.537

>  <name>  (62) 
61

>  <ligand_id>  (62) 
61

>  <original_smiles>  (62) 
[H]c1c([H])c([H])c2c(c1[H])C([H])([H])C([H])([H])C([H])([H])C2([H])N([H])C(=O)C1([H])N(C(=O)C([H])(N([H])C(=O)C([H])(N([H])C([H])([H])[H])C([H])([H])[H])C(C([H])([H])[H])(C([H])([H])[H])C([H])([H])[H])C([H])([H])c2c([H])c(OC([H])([H])C(=O)N([H])C([H])([H])C([H])([H])C([H])([H])OC([H])([H])C([H])([H])C([H])([H])OC([H])([H])C([H])([H])OC([H])([H])C([H])([H])C([H])([H])N([H])C(=O)N3C([H])([H])C([H])([H])C([H])([H])C([H])(n4nc(-c5c([H])c([H])c(Oc6c([H])c([H])c(F)c([H])c6F)c([H])c5[H])c(C(=O)N([H])[H])c4N([H])[H])C3([H])[H])c([H])c([H])c2C1([H])[H]

>  <smiles>  (62) 
[H]c1c([H])c([H])c2c(c1[H])C([H])([H])C([H])([H])C([H])([H])C2([H])N([H])C(=O)C1([H])N(C(=O)C([H])(N([H])C(=O)C([H])(N([H])C([H])([H])[H])C([H])([H])[H])C(C([H])([H])[H])(C([H])([H])[H])C([H])([H])[H])C([H])([H])c2c([H])c(OC([H])([H])C(=O)N([H])C([H])([H])C([H])([H])C([H])([H])OC([H])([H])C([H])([H])C([H])([H])OC([H])([H])C([H])([H])OC([H])([H])C([H])([H])C([H])([H])N([H])C(=O)N3C([H])([H])C([H])([H])C([H])([H])C([H])(n4nc(-c5c([H])c([H])c(Oc6c([H])c([H])c(F)c([H])c6F)c([H])c5[H])c(C(=O)N([H])[H])c4N([H])[H])C3([H])[H])c([H])c([H])c2C1([H])[H]

$$$$
62:0:0
     RDKit          3D

101108  0  0  1  0  0  0  0  0999 V2000
  -24.6820  -15.4720   23.4730 C   0  0  0  0  0  2  0  0  0  0  0  0
  -24.4320  -16.8990   22.8550 N   0  0  0  0  0  4  0  0  0  0  0  0
  -23.6250  -17.2850   23.3200 H   0  0  0  0  0  0  0  0  0  0  0  0
  -24.1550  -16.7280   21.9000 H   0  0  0  0  0  0  0  0  0  0  0  0
  -25.5450  -18.0200   22.8340 C   0  0  0  0  0  3  0  0  0  0  0  0
  -25.3440  -19.5070   22.1000 C   0  0  0  0  0  3  0  0  0  0  0  0
  -26.4160  -20.6080   22.0860 O   0  0  0  0  0  0  0  0  0  0  0  0
  -26.2350  -21.9650   21.4020 C   0  0  0  0  0  3  0  0  0  0  0  0
  -27.3450  -23.2200   21.3930 C   0  0  0  0  0  3  0  0  0  0  0  0
  -27.0540  -24.6660   20.6200 C   0  0  0  0  0  2  0  0  0  0  0  0
  -27.8540  -26.0050   20.5080 O   0  0  0  0  0  0  0  0  0  0  0  0
  -24.6340  -31.8590   23.2060 C   0  0  0  0  0  0  0  0  0  0  0  0
  -27.0560  -27.1450   20.2180 C   0  0  0  0  0  0  0  0  0  0  0  0
  -23.4300  -30.4940   21.5490 C   0  0  0  0  0  3  0  0  0  0  0  0
  -24.8600  -28.9700   20.0820 C   0  0  0  0  0  0  0  0  0  0  0  0
  -25.9850  -30.7410   21.4120 C   0  0  0  0  0  2  0  0  0  0  0  0
  -26.0320  -29.3640   20.7430 C   0  0  0  0  0  0  0  0  0  0  0  0
  -27.1440  -28.4550   20.8130 C   0  0  0  0  0  3  0  0  0  0  0  0
  -25.9400  -26.9130   19.3930 C   0  0  0  0  0  3  0  0  0  0  0  0
  -24.8320  -27.7630   19.3830 C   0  0  0  0  0  3  0  0  0  0  0  0
  -23.6460  -29.8700   20.1490 C   0  0  0  0  0  2  0  0  0  0  0  0
  -24.7010  -31.0520   22.1090 N   0  0  0  0  0  0  0  0  0  0  0  0
  -23.5480  -32.1440   23.7310 O   0  0  0  0  0  0  0  0  0  0  0  0
  -22.7500  -29.4630   22.4840 C   0  0  0  0  0  0  0  0  0  0  0  0
  -21.4200  -29.3060   22.3570 N   0  0  0  0  0  0  0  0  0  0  0  0
  -23.4190  -28.8160   23.2920 O   0  0  0  0  0  0  0  0  0  0  0  0
  -20.9340  -29.8800   21.6830 H   0  0  0  0  0  0  0  0  0  0  0  0
  -18.0280  -28.1400   22.8450 C   0  0  0  0  0  0  0  0  0  0  0  0
  -20.5900  -28.3710   23.1220 C   0  0  0  0  0  3  0  0  0  0  0  0
  -20.6790  -26.9420   22.5380 C   0  0  0  0  0  2  0  0  0  0  0  0
  -19.5770  -26.6380   21.5200 C   0  0  0  0  0  2  0  0  0  0  0  0
  -18.1940  -26.7940   22.1600 C   0  0  0  0  0  2  0  0  0  0  0  0
  -19.1550  -28.8860   23.2840 C   0  0  0  0  0  0  0  0  0  0  0  0
  -18.9470  -30.1450   23.8880 C   0  0  0  0  0  3  0  0  0  0  0  0
  -17.6480  -30.6590   24.0540 C   0  0  0  0  0  3  0  0  0  0  0  0
  -16.5360  -29.9090   23.6330 C   0  0  0  0  0  3  0  0  0  0  0  0
  -16.7270  -28.6510   23.0350 C   0  0  0  0  0  3  0  0  0  0  0  0
  -25.9170  -32.4760   23.8390 C   0  0  0  0  0  3  0  0  0  0  0  0
  -25.5960  -33.8570   24.2300 N   0  0  0  0  0  0  0  0  0  0  0  0
  -25.9070  -34.9440   23.5120 C   0  0  0  0  0  0  0  0  0  0  0  0
  -26.5610  -34.8920   22.4680 O   0  0  0  0  0  0  0  0  0  0  0  0
  -25.0150  -33.9740   25.0470 H   0  0  0  0  0  0  0  0  0  0  0  0
  -24.1480  -36.7250   23.2630 C   0  0  0  0  0  1  0  0  0  0  0  0
  -25.4120  -36.3080   24.0340 C   0  0  0  0  0  3  0  0  0  0  0  0
  -27.5600  -37.1800   24.8470 C   0  0  0  0  0  1  0  0  0  0  0  0
  -26.4310  -37.3770   23.9410 N   0  0  0  0  0  0  0  0  0  0  0  0
  -26.0200  -38.2860   24.1380 H   0  0  0  0  0  0  0  0  0  0  0  0
  -26.4520  -31.6590   25.0790 C   0  0  1  0  0  0  0  0  0  0  0  0
  -25.3690  -31.3770   26.1460 C   0  0  0  0  0  1  0  0  0  0  0  0
  -27.0400  -30.3000   24.6340 C   0  0  0  0  0  1  0  0  0  0  0  0
  -27.6100  -32.4310   25.7550 C   0  0  0  0  0  1  0  0  0  0  0  0
  -23.4680  -14.3870   23.8740 C   0  0  0  0  0  2  0  0  0  0  0  0
  -23.3260  -12.7220   23.5180 C   0  0  0  0  0  2  0  0  0  0  0  0
  -22.2790  -11.8260   22.7070 O   0  0  0  0  0  0  0  0  0  0  0  0
  -21.5940  -11.5310   21.2710 C   0  0  0  0  0  2  0  0  0  0  0  0
  -21.9600  -11.8070   19.5700 C   0  0  0  0  0  2  0  0  0  0  0  0
  -23.3410  -12.0150   18.8200 O   0  0  0  0  0  0  0  0  0  0  0  0
  -24.5250  -11.2230   18.1410 C   0  0  0  0  0  2  0  0  0  0  0  0
  -25.7280  -10.1150   18.6440 C   0  0  0  0  0  2  0  0  0  0  0  0
  -27.1680  -10.3640   19.0600 O   0  0  0  0  0  0  0  0  0  0  0  0
  -27.9050   -9.7840   20.2320 C   0  0  0  0  0  2  0  0  0  0  0  0
  -29.5170  -10.0180   20.4830 C   0  0  0  0  0  2  0  0  0  0  0  0
  -30.3080  -10.8800   21.6680 C   0  0  0  0  0  2  0  0  0  0  0  0
  -31.0000  -13.3830   20.9190 C   0  0  0  0  0  0  0  0  0  0  0  0
  -30.3480  -12.6340   18.9230 C   0  0  0  0  0  2  0  0  0  0  0  0
  -29.2690  -12.6140   17.8900 C   0  0  0  0  0  3  0  0  0  0  0  0
  -27.8430  -12.8780   18.3680 C   0  0  0  0  0  3  0  0  0  0  0  0
  -27.5940  -13.3620   19.8170 C   0  0  0  0  0  3  0  0  0  0  0  0
  -28.6440  -13.1240   20.8390 C   0  0  0  0  0  2  0  0  0  0  0  0
  -29.9470  -13.2360   20.1970 N   0  0  0  0  0  0  0  0  0  0  0  0
  -31.8310  -14.2830   20.6690 O   0  0  0  0  0  0  0  0  0  0  0  0
  -31.2240  -12.1280   21.4700 N   0  0  0  0  0  0  0  0  0  0  0  0
  -32.1560  -12.0210   21.8470 H   0  0  0  0  0  0  0  0  0  0  0  0
  -25.2710  -13.9390   20.5310 C   0  0  0  0  0  3  0  0  0  0  0  0
  -24.1770  -13.2460   20.9240 C   0  0  0  0  0  0  0  0  0  0  0  0
  -24.6190  -11.8050   21.0170 C   0  0  0  0  0  0  0  0  0  0  0  0
  -26.2810  -13.0570   20.3620 N   0  0  0  0  0  0  0  0  0  0  0  0
  -25.9290  -11.8410   20.8380 N   0  0  0  0  0  2  0  0  0  0  0  0
  -24.0450  -10.3480   21.1250 C   0  0  0  0  0  0  0  0  0  0  0  0
  -24.3340   -9.4690   22.1900 C   0  0  0  0  0  3  0  0  0  0  0  0
  -23.6200   -8.2420   22.3530 C   0  0  0  0  0  3  0  0  0  0  0  0
  -22.5400   -7.9040   21.4910 C   0  0  0  0  0  0  0  0  0  0  0  0
  -22.3510   -8.6390   20.3650 C   0  0  0  0  0  3  0  0  0  0  0  0
  -23.2330   -9.6620   20.1520 C   0  0  0  0  0  3  0  0  0  0  0  0
  -21.6950   -6.8420   21.5310 O   0  0  0  0  0  0  0  0  0  0  0  0
  -21.6920   -6.0210   22.6010 C   0  0  0  0  0  0  0  0  0  0  0  0
  -21.3980   -6.5180   23.8790 C   0  0  0  0  0  3  0  0  0  0  0  0
  -21.3600   -5.6330   24.9670 C   0  0  0  0  0  3  0  0  0  0  0  0
  -21.6020   -4.2620   24.7610 C   0  0  0  0  0  0  0  0  0  0  0  0
  -21.8810   -3.7680   23.4730 C   0  0  0  0  0  3  0  0  0  0  0  0
  -21.9210   -4.6520   22.3820 C   0  0  0  0  0  0  0  0  0  0  0  0
  -22.1660   -4.1900   21.1320 F   0  0  0  0  0  0  0  0  0  0  0  0
  -21.5580   -3.4110   25.8100 F   0  0  0  0  0  0  0  0  0  0  0  0
  -22.8520  -14.0680   20.9130 C   0  0  0  0  0  0  0  0  0  0  0  0
  -21.8260  -14.0100   21.7350 N   0  0  0  0  0  0  0  0  0  0  0  0
  -22.6590  -14.9350   20.0940 O   0  0  0  0  0  0  0  0  0  0  0  0
  -21.8030  -13.2330   22.4000 H   0  0  0  0  0  0  0  0  0  0  0  0
  -21.0350  -14.6290   21.6330 H   0  0  0  0  0  0  0  0  0  0  0  0
  -25.4690  -15.2960   20.2780 N   0  0  0  0  0  0  0  0  0  0  0  0
  -24.6380  -15.7460   19.9030 H   0  0  0  0  0  0  0  0  0  0  0  0
  -26.2820  -15.5490   19.7320 H   0  0  0  0  0  0  0  0  0  0  0  0
  1 52  1  0
  2  3  1  0
  2  1  1  0
  4  2  1  0
  5  2  1  0
  6  5  2  0
  7  6  1  0
  8  7  1  0
  9  8  2  0
 10  9  1  0
 11 10  1  0
 12 23  2  0
 13 11  1  0
 13 18  1  0
 14 22  1  0
 14 24  1  0
 15 21  1  0
 15 17  1  0
 16 22  1  0
 17 18  2  0
 17 16  1  0
 19 13  2  0
 20 19  1  0
 20 15  2  0
 21 14  1  0
 22 12  1  0
 24 26  2  0
 25 24  1  0
 27 25  1  0
 28 37  2  0
 28 33  1  0
 29 25  1  0
 29 33  1  0
 30 29  1  0
 31 32  1  0
 31 30  1  0
 32 28  1  0
 33 34  2  0
 34 35  1  0
 36 35  2  0
 37 36  1  0
 38 12  1  0
 38 39  1  0
 38 48  1  0
 39 42  1  0
 40 44  1  0
 40 39  1  0
 41 40  2  0
 44 43  1  0
 46 44  1  0
 46 47  1  0
 46 45  1  0
 48 51  1  1
 48 49  1  0
 50 48  1  0
 53 52  1  0
 54 53  1  0
 55 54  1  0
 56 55  1  0
 57 56  1  0
 58 59  1  0
 58 57  1  0
 59 60  1  0
 60 61  1  0
 61 62  1  0
 62 63  1  0
 64 72  1  0
 65 70  1  0
 66 67  2  0
 66 65  1  0
 68 67  1  0
 68 77  1  0
 68 69  1  0
 70 69  1  0
 70 64  1  0
 71 64  2  0
 72 63  1  0
 72 73  1  0
 74 99  1  0
 74 75  1  0
 75 76  2  0
 76 79  1  0
 77 74  1  0
 77 78  1  0
 78 76  1  0
 79 80  1  0
 80 81  2  0
 82 85  1  0
 82 81  1  0
 83 82  2  0
 84 83  1  0
 84 79  2  0
 85 86  1  0
 86 87  1  0
 87 88  2  0
 89 88  1  0
 89 93  1  0
 90 89  2  0
 91 86  2  0
 91 90  1  0
 92 91  1  0
 94 75  1  0
 94 95  1  0
 95 97  1  0
 96 94  2  0
 98 95  1  0
100 99  1  0
101 99  1  0
M  ISO  4  10 101  11 101  64 100  72 100
M  END
>  <TORSDO>  (63) 
F 35

>  <SCORE>  (63) 
28.435

>  <name>  (63) 
62

>  <ligand_id>  (63) 
62

>  <original_smiles>  (63) 
[H]c1c([H])c([H])c2c(c1[H])C([H])([H])C([H])([H])C([H])([H])C2([H])N([H])C(=O)C1([H])N(C(=O)C([H])(N([H])C(=O)C([H])(N([H])C([H])([H])[H])C([H])([H])[H])C(C([H])([H])[H])(C([H])([H])[H])C([H])([H])[H])C([H])([H])c2c([H])c(OC([H])([H])C([H])([H])C([H])([H])OC([H])([H])C([H])([H])[N+]([H])([H])C([H])([H])C([H])([H])C([H])([H])OC([H])([H])C([H])([H])OC([H])([H])C([H])([H])OC([H])([H])C([H])([H])C([H])([H])N([H])C(=O)N3C([H])([H])C([H])([H])C([H])([H])C([H])(n4nc(-c5c([H])c([H])c(Oc6c([H])c([H])c(F)c([H])c6F)c([H])c5[H])c(C(=O)N([H])[H])c4N([H])[H])C3([H])[H])c([H])c([H])c2C1([H])[H]

>  <smiles>  (63) 
[H]c1c([H])c([H])c2c(c1[H])C([H])([H])C([H])([H])C([H])([H])C2([H])N([H])C(=O)C1([H])N(C(=O)C([H])(N([H])C(=O)C([H])(N([H])C([H])([H])[H])C([H])([H])[H])C(C([H])([H])[H])(C([H])([H])[H])C([H])([H])[H])C([H])([H])c2c([H])c(OC([H])([H])C([H])([H])C([H])([H])OC([H])([H])C([H])([H])[N+]([H])([H])C([H])([H])C([H])([H])C([H])([H])OC([H])([H])C([H])([H])OC([H])([H])C([H])([H])OC([H])([H])C([H])([H])C([H])([H])N([H])C(=O)N3C([H])([H])C([H])([H])C([H])([H])C([H])(n4nc(-c5c([H])c([H])c(Oc6c([H])c([H])c(F)c([H])c6F)c([H])c5[H])c(C(=O)N([H])[H])c4N([H])[H])C3([H])[H])c([H])c([H])c2C1([H])[H]

$$$$
63:0:0
     RDKit          3D

107114  0  0  1  0  0  0  0  0999 V2000
  -30.3780  -23.5650   18.8220 C   0  0  0  0  0  3  0  0  0  0  0  0
  -29.7980  -21.2600   18.0080 C   0  0  0  0  0  0  0  0  0  0  0  0
  -29.5390  -22.3690   18.7070 N   0  0  0  0  0  0  0  0  0  0  0  0
  -30.7540  -21.1860   17.2330 O   0  0  0  0  0  0  0  0  0  0  0  0
  -28.7470  -22.3520   19.3340 H   0  0  0  0  0  0  0  0  0  0  0  0
  -27.4950  -20.4640   18.8100 C   0  0  0  0  0  1  0  0  0  0  0  0
  -28.6100  -19.3690   16.8460 C   0  0  0  0  0  1  0  0  0  0  0  0
  -29.5510  -19.0470   19.1590 C   0  0  0  0  0  1  0  0  0  0  0  0
  -28.8590  -20.0480   18.2090 C   0  0  1  0  0  0  0  0  0  0  0  0
  -31.8790  -23.2050   18.9360 C   0  0  0  0  0  0  0  0  0  0  0  0
  -32.7340  -24.0110   18.2930 N   0  0  0  0  0  0  0  0  0  0  0  0
  -32.2350  -22.1950   19.5520 O   0  0  0  0  0  0  0  0  0  0  0  0
  -32.3300  -24.8320   17.8630 H   0  0  0  0  0  0  0  0  0  0  0  0
  -34.1300  -23.7560   17.9340 C   0  0  0  0  0  2  0  0  0  0  0  0
  -34.8570  -22.6860   18.7620 C   0  0  0  0  0  2  0  0  0  0  0  0
  -34.8390  -23.0160   20.1460 O   0  0  0  0  0  0  0  0  0  0  0  0
  -35.4690  -22.0020   20.9200 C   0  0  0  0  0  2  0  0  0  0  0  0
  -35.2760  -22.2530   22.4260 C   0  0  0  0  0  2  0  0  0  0  0  0
  -33.9080  -22.1600   22.8190 O   0  0  0  0  0  0  0  0  0  0  0  0
  -33.4820  -20.8680   23.2590 C   0  0  0  0  0  2  0  0  0  0  0  0
  -32.8850  -20.0240   22.1230 C   0  0  0  0  0  2  0  0  0  0  0  0
  -33.8870  -19.2120   21.5210 O   0  0  0  0  0  0  0  0  0  0  0  0
  -33.3870  -18.4710   20.4170 C   0  0  0  0  0  2  0  0  0  0  0  0
  -34.4740  -17.5210   19.8960 C   0  0  0  0  0  2  0  0  0  0  0  0
  -34.8790  -16.1940   17.8880 C   0  0  0  0  0  0  0  0  0  0  0  0
  -34.7240  -14.0510   16.6910 C   0  0  0  0  0  2  0  0  0  0  0  0
  -33.4690  -14.0740   15.7980 C   0  0  0  0  0  2  0  0  0  0  0  0
  -32.2260  -13.6130   16.5860 C   0  0  0  0  0  2  0  0  0  0  0  0
  -32.0830  -14.3350   17.9550 C   0  0  0  0  0  3  0  0  0  0  0  0
  -33.4220  -14.3230   18.7270 C   0  0  0  0  0  2  0  0  0  0  0  0
  -34.4530  -14.9050   17.8530 N   0  0  0  0  0  0  0  0  0  0  0  0
  -35.7370  -16.6610   17.1380 O   0  0  0  0  0  0  0  0  0  0  0  0
  -34.0970  -17.0240   18.5790 N   0  0  0  0  0  0  0  0  0  0  0  0
  -33.8280  -17.8050   17.9970 H   0  0  0  0  0  0  0  0  0  0  0  0
  -29.8460  -14.3780   19.2330 C   0  0  0  0  0  0  0  0  0  0  0  0
  -29.1250  -13.3880   19.8460 C   0  0  0  0  0  0  0  0  0  0  0  0
  -29.8900  -12.1900   19.6900 C   0  0  0  0  0  0  0  0  0  0  0  0
  -30.9930  -13.7670   18.7470 N   0  0  0  0  0  0  0  0  0  0  0  0
  -31.0350  -12.4510   19.0730 N   0  0  0  0  0  0  0  0  0  0  0  0
  -29.5700  -10.8000   20.0380 C   0  0  0  0  0  0  0  0  0  0  0  0
  -30.4850   -9.9870   20.7420 C   0  0  0  0  0  3  0  0  0  0  0  0
  -30.1490   -8.6590   21.0810 C   0  0  0  0  0  3  0  0  0  0  0  0
  -28.8850   -8.1340   20.7230 C   0  0  0  0  0  0  0  0  0  0  0  0
  -27.9880   -8.9390   20.0000 C   0  0  0  0  0  3  0  0  0  0  0  0
  -28.3250  -10.2600   19.6590 C   0  0  0  0  0  3  0  0  0  0  0  0
  -28.4810   -6.8480   20.9890 O   0  0  0  0  0  0  0  0  0  0  0  0
  -28.9920   -6.1360   22.0440 C   0  0  0  0  0  0  0  0  0  0  0  0
  -29.1150   -6.7000   23.3330 C   0  0  0  0  0  3  0  0  0  0  0  0
  -29.5810   -5.9120   24.4030 C   0  0  0  0  0  3  0  0  0  0  0  0
  -29.9150   -4.5600   24.1910 C   0  0  0  0  0  0  0  0  0  0  0  0
  -29.7870   -3.9970   22.9100 C   0  0  0  0  0  3  0  0  0  0  0  0
  -29.3220   -4.7820   21.8410 C   0  0  0  0  0  0  0  0  0  0  0  0
  -29.1820   -4.2290   20.6120 F   0  0  0  0  0  0  0  0  0  0  0  0
  -30.3560   -3.8000   25.2200 F   0  0  0  0  0  0  0  0  0  0  0  0
  -27.7630  -13.5210   20.4610 C   0  0  0  0  0  0  0  0  0  0  0  0
  -27.4590  -12.7090   21.4680 N   0  0  0  0  0  0  0  0  0  0  0  0
  -26.9720  -14.3850   20.0800 O   0  0  0  0  0  0  0  0  0  0  0  0
  -28.1130  -12.0170   21.7980 H   0  0  0  0  0  0  0  0  0  0  0  0
  -26.5570  -12.7850   21.9170 H   0  0  0  0  0  0  0  0  0  0  0  0
  -29.6150  -15.7350   19.0330 N   0  0  0  0  0  0  0  0  0  0  0  0
  -28.7580  -16.1880   19.3280 H   0  0  0  0  0  0  0  0  0  0  0  0
  -30.2380  -16.3530   18.5290 H   0  0  0  0  0  0  0  0  0  0  0  0
  -29.8360  -24.4160   20.0070 C   0  0  0  0  0  3  0  0  0  0  0  0
  -29.0230  -23.6080   20.8600 O   0  0  0  0  0  0  0  0  0  0  0  0
  -29.5680  -22.9070   21.2060 H   0  0  0  0  0  0  0  0  0  0  0  0
  -29.0110  -25.6220   19.5010 C   0  0  0  0  0  2  0  0  0  0  0  0
  -28.7570  -26.5670   20.5460 O   0  0  0  0  0  0  0  0  0  0  0  0
  -24.8430  -31.7290   23.4920 C   0  0  0  0  0  0  0  0  0  0  0  0
  -27.5780  -27.2780   20.5040 C   0  0  0  0  0  0  0  0  0  0  0  0
  -23.7180  -30.3940   21.7410 C   0  0  0  0  0  3  0  0  0  0  0  0
  -25.2210  -28.8370   20.4000 C   0  0  0  0  0  0  0  0  0  0  0  0
  -26.2590  -30.6780   21.7330 C   0  0  0  0  0  2  0  0  0  0  0  0
  -26.3480  -29.3170   21.0770 C   0  0  0  0  0  0  0  0  0  0  0  0
  -27.5240  -28.5390   21.1380 C   0  0  0  0  0  3  0  0  0  0  0  0
  -26.4160  -26.7920   19.8580 C   0  0  0  0  0  3  0  0  0  0  0  0
  -25.2450  -27.5670   19.7990 C   0  0  0  0  0  3  0  0  0  0  0  0
  -24.0040  -29.7310   20.3690 C   0  0  0  0  0  2  0  0  0  0  0  0
  -24.9540  -30.9470   22.3810 N   0  0  0  0  0  0  0  0  0  0  0  0
  -23.7330  -32.0240   23.9570 O   0  0  0  0  0  0  0  0  0  0  0  0
  -22.9690  -29.3740   22.6310 C   0  0  0  0  0  0  0  0  0  0  0  0
  -21.6480  -29.2540   22.4220 N   0  0  0  0  0  0  0  0  0  0  0  0
  -23.5770  -28.6960   23.4630 O   0  0  0  0  0  0  0  0  0  0  0  0
  -21.2210  -29.8520   21.7290 H   0  0  0  0  0  0  0  0  0  0  0  0
  -18.1930  -28.2480   22.7310 C   0  0  0  0  0  0  0  0  0  0  0  0
  -20.7480  -28.3320   23.1130 C   0  0  0  0  0  3  0  0  0  0  0  0
  -20.7880  -26.9260   22.4700 C   0  0  0  0  0  2  0  0  0  0  0  0
  -19.7110  -26.7210   21.4010 C   0  0  0  0  0  2  0  0  0  0  0  0
  -18.3150  -26.9230   21.9970 C   0  0  0  0  0  2  0  0  0  0  0  0
  -19.3370  -28.9180   23.2400 C   0  0  0  0  0  0  0  0  0  0  0  0
  -19.1730  -30.1660   23.8800 C   0  0  0  0  0  3  0  0  0  0  0  0
  -17.8950  -30.7410   24.0180 C   0  0  0  0  0  3  0  0  0  0  0  0
  -16.7640  -30.0650   23.5280 C   0  0  0  0  0  3  0  0  0  0  0  0
  -16.9140  -28.8210   22.8890 C   0  0  0  0  0  3  0  0  0  0  0  0
  -26.0990  -32.3070   24.2150 C   0  0  0  0  0  3  0  0  0  0  0  0
  -26.5480  -31.4550   25.4640 C   0  0  1  0  0  0  0  0  0  0  0  0
  -25.3990  -31.1520   26.4540 C   0  0  0  0  0  1  0  0  0  0  0  0
  -27.1540  -30.1060   25.0140 C   0  0  0  0  0  1  0  0  0  0  0  0
  -27.6610  -32.2020   26.2370 C   0  0  0  0  0  1  0  0  0  0  0  0
  -25.7830  -33.6850   24.6140 N   0  0  0  0  0  0  0  0  0  0  0  0
  -26.1800  -34.7790   23.9510 C   0  0  0  0  0  0  0  0  0  0  0  0
  -26.9210  -34.7330   22.9660 O   0  0  0  0  0  0  0  0  0  0  0  0
  -25.1410  -33.7950   25.3840 H   0  0  0  0  0  0  0  0  0  0  0  0
  -24.5080  -36.6190   23.5840 C   0  0  0  0  0  1  0  0  0  0  0  0
  -25.6750  -36.1400   24.4640 C   0  0  0  0  0  3  0  0  0  0  0  0
  -27.7410  -36.9310   25.5280 C   0  0  0  0  0  1  0  0  0  0  0  0
  -26.7250  -37.1810   24.5090 N   0  0  0  0  0  0  0  0  0  0  0  0
  -26.3190  -38.0960   24.6850 H   0  0  0  0  0  0  0  0  0  0  0  0
  1 10  1  0
  1 63  1  0
  2  9  1  0
  2  3  1  0
  3  1  1  0
  3  5  1  0
  4  2  2  0
  9  7  1  6
  9  6  1  0
  9  8  1  0
 10 12  2  0
 11 10  1  0
 13 11  1  0
 14 11  1  0
 14 15  1  0
 15 16  1  0
 16 17  1  0
 17 18  1  0
 18 19  1  0
 19 20  1  0
 21 20  1  0
 22 21  1  0
 23 22  1  0
 24 23  1  0
 25 33  1  0
 26 31  1  0
 27 28  1  0
 27 26  1  0
 29 28  1  0
 29 30  1  0
 29 38  1  0
 31 25  1  0
 31 30  1  0
 32 25  2  0
 33 24  1  0
 34 33  1  0
 35 36  2  0
 36 55  1  0
 37 36  1  0
 37 40  1  0
 38 39  1  0
 38 35  1  0
 39 37  2  0
 40 41  1  0
 41 42  2  0
 43 46  1  0
 43 42  1  0
 44 43  2  0
 45 44  1  0
 45 40  2  0
 46 47  1  0
 47 48  1  0
 48 49  2  0
 50 49  1  0
 50 54  1  0
 51 50  2  0
 52 47  2  0
 52 51  1  0
 53 52  1  0
 55 56  1  0
 56 58  1  0
 56 59  1  0
 57 55  2  0
 60 35  1  0
 60 61  1  0
 62 60  1  0
 63 66  1  0
 63 64  1  0
 64 65  1  0
 66 67  1  0
 68 79  2  0
 69 67  1  0
 69 74  1  0
 70 78  1  0
 70 80  1  0
 71 73  1  0
 72 78  1  0
 73 74  2  0
 73 72  1  0
 75 69  2  0
 76 75  1  0
 76 71  2  0
 77 71  1  0
 77 70  1  0
 78 68  1  0
 80 82  2  0
 81 80  1  0
 83 81  1  0
 84 93  2  0
 84 89  1  0
 85 81  1  0
 85 89  1  0
 86 85  1  0
 87 88  1  0
 87 86  1  0
 88 84  1  0
 89 90  2  0
 90 91  1  0
 92 91  2  0
 93 92  1  0
 94 68  1  0
 94 99  1  0
 94 95  1  0
 95 98  1  1
 95 96  1  0
 97 95  1  0
 99102  1  0
100104  1  0
100 99  1  0
101100  2  0
104103  1  0
104106  1  0
106107  1  0
106105  1  0
M  ISO  4  25 100  33 100  66 101  67 101
M  END
>  <TORSDO>  (64) 
F 33

>  <SCORE>  (64) 
-2.652

>  <name>  (64) 
63

>  <ligand_id>  (64) 
63

>  <original_smiles>  (64) 
[H]OC([H])(C([H])([H])Oc1c([H])c([H])c2c(c1[H])C([H])([H])N(C(=O)C([H])(N([H])C(=O)C([H])(N([H])C([H])([H])[H])C([H])([H])[H])C(C([H])([H])[H])(C([H])([H])[H])C([H])([H])[H])C([H])(C(=O)N([H])C1([H])c3c([H])c([H])c([H])c([H])c3C([H])([H])C([H])([H])C1([H])[H])C2([H])[H])C([H])(C(=O)N([H])C([H])([H])C([H])([H])OC([H])([H])C([H])([H])OC([H])([H])C([H])([H])OC([H])([H])C([H])([H])N([H])C(=O)N1C([H])([H])C([H])([H])C([H])([H])C([H])(n2nc(-c3c([H])c([H])c(Oc4c([H])c([H])c(F)c([H])c4F)c([H])c3[H])c(C(=O)N([H])[H])c2N([H])[H])C1([H])[H])N([H])C(=O)C(C([H])([H])[H])(C([H])([H])[H])C([H])([H])[H]

>  <smiles>  (64) 
[H]OC([H])(C([H])([H])Oc1c([H])c([H])c2c(c1[H])C([H])([H])N(C(=O)C([H])(N([H])C(=O)C([H])(N([H])C([H])([H])[H])C([H])([H])[H])C(C([H])([H])[H])(C([H])([H])[H])C([H])([H])[H])C([H])(C(=O)N([H])C1([H])c3c([H])c([H])c([H])c([H])c3C([H])([H])C([H])([H])C1([H])[H])C2([H])[H])C([H])(C(=O)N([H])C([H])([H])C([H])([H])OC([H])([H])C([H])([H])OC([H])([H])C([H])([H])OC([H])([H])C([H])([H])N([H])C(=O)N1C([H])([H])C([H])([H])C([H])([H])C([H])(n2nc(-c3c([H])c([H])c(Oc4c([H])c([H])c(F)c([H])c4F)c([H])c3[H])c(C(=O)N([H])[H])c2N([H])[H])C1([H])[H])N([H])C(=O)C(C([H])([H])[H])(C([H])([H])[H])C([H])([H])[H]

$$$$
64:0:0
     RDKit          3D

100107  0  0  1  0  0  0  0  0999 V2000
  -28.0750  -20.4040   14.1520 C   0  0  0  0  0  2  0  0  0  0  0  0
  -29.1320  -21.3480   14.2140 O   0  0  0  0  0  0  0  0  0  0  0  0
  -29.1590  -22.2140   13.0860 C   0  0  0  0  0  2  0  0  0  0  0  0
  -30.2030  -23.3100   13.3240 C   0  0  0  0  0  2  0  0  0  0  0  0
  -29.7050  -24.2210   14.2940 O   0  0  0  0  0  0  0  0  0  0  0  0
  -30.6630  -25.2040   14.6590 C   0  0  0  0  0  2  0  0  0  0  0  0
  -30.0210  -26.1820   15.6500 C   0  0  0  0  0  2  0  0  0  0  0  0
  -29.7750  -25.5140   16.8820 O   0  0  0  0  0  0  0  0  0  0  0  0
  -29.1600  -26.3660   17.8380 C   0  0  0  0  0  2  0  0  0  0  0  0
  -28.9170  -25.5990   19.1510 C   0  0  0  0  0  2  0  0  0  0  0  0
  -28.5760  -26.4850   20.2190 O   0  0  0  0  0  0  0  0  0  0  0  0
  -24.5510  -31.6070   23.0440 C   0  0  0  0  0  0  0  0  0  0  0  0
  -27.3650  -27.1390   20.1690 C   0  0  0  0  0  0  0  0  0  0  0  0
  -23.4250  -30.1600   21.3830 C   0  0  0  0  0  3  0  0  0  0  0  0
  -24.9480  -28.5980   20.0640 C   0  0  0  0  0  0  0  0  0  0  0  0
  -25.9520  -30.5340   21.2880 C   0  0  0  0  0  2  0  0  0  0  0  0
  -26.0710  -29.1480   20.6920 C   0  0  0  0  0  0  0  0  0  0  0  0
  -27.2770  -28.4200   20.7540 C   0  0  0  0  0  3  0  0  0  0  0  0
  -26.2150  -26.5850   19.5570 C   0  0  0  0  0  3  0  0  0  0  0  0
  -25.0110  -27.3110   19.5030 C   0  0  0  0  0  3  0  0  0  0  0  0
  -23.6970  -29.4460   20.0310 C   0  0  0  0  0  2  0  0  0  0  0  0
  -24.6580  -30.7840   21.9640 N   0  0  0  0  0  0  0  0  0  0  0  0
  -23.4460  -31.8860   23.5300 O   0  0  0  0  0  0  0  0  0  0  0  0
  -22.7400  -29.1570   22.3380 C   0  0  0  0  0  0  0  0  0  0  0  0
  -21.4120  -29.0120   22.1990 N   0  0  0  0  0  0  0  0  0  0  0  0
  -23.3990  -28.5110   23.1580 O   0  0  0  0  0  0  0  0  0  0  0  0
  -20.9440  -29.5830   21.5090 H   0  0  0  0  0  0  0  0  0  0  0  0
  -17.9920  -27.9750   22.7220 C   0  0  0  0  0  0  0  0  0  0  0  0
  -20.5630  -28.0980   22.9610 C   0  0  0  0  0  3  0  0  0  0  0  0
  -20.5860  -26.6780   22.3520 C   0  0  0  0  0  2  0  0  0  0  0  0
  -19.4540  -26.4330   21.3470 C   0  0  0  0  0  2  0  0  0  0  0  0
  -18.0910  -26.6330   22.0160 C   0  0  0  0  0  2  0  0  0  0  0  0
  -19.1540  -28.6700   23.1510 C   0  0  0  0  0  0  0  0  0  0  0  0
  -19.0080  -29.9300   23.7720 C   0  0  0  0  0  3  0  0  0  0  0  0
  -17.7330  -30.4940   23.9660 C   0  0  0  0  0  3  0  0  0  0  0  0
  -16.5860  -29.7940   23.5530 C   0  0  0  0  0  3  0  0  0  0  0  0
  -16.7170  -28.5360   22.9380 C   0  0  0  0  0  3  0  0  0  0  0  0
  -25.8070  -32.2590   23.7040 C   0  0  0  0  0  3  0  0  0  0  0  0
  -25.4670  -33.6530   24.0170 N   0  0  0  0  0  0  0  0  0  0  0  0
  -25.8140  -34.7070   23.2660 C   0  0  0  0  0  0  0  0  0  0  0  0
  -26.5250  -34.6100   22.2630 O   0  0  0  0  0  0  0  0  0  0  0  0
  -24.8390  -33.8030   24.7940 H   0  0  0  0  0  0  0  0  0  0  0  0
  -24.0780  -36.4740   22.8310 C   0  0  0  0  0  1  0  0  0  0  0  0
  -25.2890  -36.0900   23.6980 C   0  0  0  0  0  3  0  0  0  0  0  0
  -27.3700  -37.0050   24.6210 C   0  0  0  0  0  1  0  0  0  0  0  0
  -26.3110  -37.1560   23.6280 N   0  0  0  0  0  0  0  0  0  0  0  0
  -25.8860  -38.0710   23.7540 H   0  0  0  0  0  0  0  0  0  0  0  0
  -26.2960  -31.4990   24.9970 C   0  0  1  0  0  0  0  0  0  0  0  0
  -25.1740  -31.2480   26.0310 C   0  0  0  0  0  1  0  0  0  0  0  0
  -26.9110  -30.1300   24.6240 C   0  0  0  0  0  1  0  0  0  0  0  0
  -27.4140  -32.3110   25.6920 C   0  0  0  0  0  1  0  0  0  0  0  0
  -28.2170  -19.4110   15.3120 C   0  0  0  0  0  2  0  0  0  0  0  0
  -28.0740  -20.0690   16.6960 C   0  0  0  0  0  2  0  0  0  0  0  0
  -28.2320  -19.0830   17.7850 N   0  0  0  0  0  4  0  0  0  0  0  0
  -29.1460  -18.6570   17.7210 H   0  0  0  0  0  0  0  0  0  0  0  0
  -27.5480  -18.3520   17.6640 H   0  0  0  0  0  0  0  0  0  0  0  0
  -28.0970  -19.6430   19.1480 C   0  0  0  0  0  2  0  0  0  0  0  0
  -28.3030  -18.5510   20.2020 C   0  0  0  0  0  2  0  0  0  0  0  0
  -29.6120  -18.0220   20.0180 O   0  0  0  0  0  0  0  0  0  0  0  0
  -29.8730  -16.9070   20.8570 C   0  0  0  0  0  2  0  0  0  0  0  0
  -31.3450  -16.5020   20.6850 C   0  0  0  0  0  2  0  0  0  0  0  0
  -31.7520  -15.2580   21.5000 C   0  0  0  0  0  2  0  0  0  0  0  0
  -31.3300  -13.2400   20.0920 C   0  0  0  0  0  0  0  0  0  0  0  0
  -30.6760  -11.2220   18.8360 C   0  0  0  0  0  2  0  0  0  0  0  0
  -29.7420  -11.5700   17.6610 C   0  0  0  0  0  2  0  0  0  0  0  0
  -28.2740  -11.6170   18.1250 C   0  0  0  0  0  2  0  0  0  0  0  0
  -28.0830  -12.4870   19.3950 C   0  0  0  0  0  3  0  0  0  0  0  0
  -29.1120  -12.1030   20.4800 C   0  0  0  0  0  2  0  0  0  0  0  0
  -30.4660  -12.2110   19.9010 N   0  0  0  0  0  0  0  0  0  0  0  0
  -32.3500  -13.4100   19.4160 O   0  0  0  0  0  0  0  0  0  0  0  0
  -31.0140  -14.0610   21.1000 N   0  0  0  0  0  0  0  0  0  0  0  0
  -30.1920  -13.8200   21.6350 H   0  0  0  0  0  0  0  0  0  0  0  0
  -25.7760  -13.4060   20.0860 C   0  0  0  0  0  0  0  0  0  0  0  0
  -24.6340  -12.7820   20.5120 C   0  0  0  0  0  0  0  0  0  0  0  0
  -24.9400  -11.3870   20.5540 C   0  0  0  0  0  0  0  0  0  0  0  0
  -26.7120  -12.4000   19.8990 N   0  0  0  0  0  0  0  0  0  0  0  0
  -26.2110  -11.1840   20.2340 N   0  0  0  0  0  0  0  0  0  0  0  0
  -24.0800  -10.2280   20.8250 C   0  0  0  0  0  0  0  0  0  0  0  0
  -24.4090   -9.2810   21.8210 C   0  0  0  0  0  3  0  0  0  0  0  0
  -23.5570   -8.1850   22.0750 C   0  0  0  0  0  3  0  0  0  0  0  0
  -22.3610   -8.0280   21.3360 C   0  0  0  0  0  0  0  0  0  0  0  0
  -22.0510   -8.9600   20.3300 C   0  0  0  0  0  3  0  0  0  0  0  0
  -22.9010  -10.0470   20.0730 C   0  0  0  0  0  3  0  0  0  0  0  0
  -21.4870   -6.9800   21.4950 O   0  0  0  0  0  0  0  0  0  0  0  0
  -21.3560   -6.3300   22.6960 C   0  0  0  0  0  0  0  0  0  0  0  0
  -20.9800   -7.0100   23.8750 C   0  0  0  0  0  3  0  0  0  0  0  0
  -20.7900   -6.2910   25.0720 C   0  0  0  0  0  3  0  0  0  0  0  0
  -20.9630   -4.8950   25.0900 C   0  0  0  0  0  0  0  0  0  0  0  0
  -21.3320   -4.2150   23.9160 C   0  0  0  0  0  3  0  0  0  0  0  0
  -21.5250   -4.9310   22.7220 C   0  0  0  0  0  0  0  0  0  0  0  0
  -21.8590   -4.2690   21.5880 F   0  0  0  0  0  0  0  0  0  0  0  0
  -20.7730   -4.2020   26.2380 F   0  0  0  0  0  0  0  0  0  0  0  0
  -23.3040  -13.4280   20.7730 C   0  0  0  0  0  0  0  0  0  0  0  0
  -22.5260  -12.8780   21.6980 N   0  0  0  0  0  0  0  0  0  0  0  0
  -22.9680  -14.4580   20.1910 O   0  0  0  0  0  0  0  0  0  0  0  0
  -22.8080  -12.0440   22.1910 H   0  0  0  0  0  0  0  0  0  0  0  0
  -21.6330  -13.2960   21.9170 H   0  0  0  0  0  0  0  0  0  0  0  0
  -26.0910  -14.7360   19.8260 N   0  0  0  0  0  0  0  0  0  0  0  0
  -25.4020  -15.4760   19.8950 H   0  0  0  0  0  0  0  0  0  0  0  0
  -26.9780  -15.0460   19.4510 H   0  0  0  0  0  0  0  0  0  0  0  0
  1  2  1  0
  1 52  1  0
  3  4  1  0
  3  2  1  0
  4  5  1  0
  5  6  1  0
  6  7  1  0
  7  8  1  0
  8  9  1  0
  9 10  1  0
 10 11  1  0
 12 23  2  0
 13 11  1  0
 13 18  1  0
 14 22  1  0
 14 24  1  0
 15 17  1  0
 16 22  1  0
 17 18  2  0
 17 16  1  0
 19 13  2  0
 20 19  1  0
 20 15  2  0
 21 15  1  0
 21 14  1  0
 22 12  1  0
 24 26  2  0
 25 24  1  0
 27 25  1  0
 28 37  2  0
 28 33  1  0
 29 25  1  0
 29 33  1  0
 30 29  1  0
 31 32  1  0
 31 30  1  0
 32 28  1  0
 33 34  2  0
 34 35  1  0
 36 35  2  0
 37 36  1  0
 38 12  1  0
 38 39  1  0
 38 48  1  0
 39 42  1  0
 40 44  1  0
 40 39  1  0
 41 40  2  0
 44 43  1  0
 46 44  1  0
 46 47  1  0
 46 45  1  0
 48 51  1  1
 48 49  1  0
 50 48  1  0
 52 53  1  0
 53 54  1  0
 54 57  1  0
 55 54  1  0
 56 54  1  0
 57 58  1  0
 59 58  1  0
 59 60  1  0
 61 60  1  0
 61 62  1  0
 63 71  1  0
 64 69  1  0
 65 66  1  0
 65 64  1  0
 67 66  1  0
 67 76  1  0
 67 68  1  0
 69 63  1  0
 69 68  1  0
 70 63  2  0
 71 62  1  0
 71 72  1  0
 73 74  2  0
 74 75  1  0
 74 93  1  0
 75 78  1  0
 76 73  1  0
 76 77  1  0
 77 75  2  0
 78 79  1  0
 79 80  2  0
 81 84  1  0
 81 80  1  0
 82 81  2  0
 83 82  1  0
 83 78  2  0
 84 85  1  0
 85 90  2  0
 85 86  1  0
 86 87  2  0
 87 88  1  0
 88 92  1  0
 89 88  2  0
 90 89  1  0
 91 90  1  0
 93 94  1  0
 94 97  1  0
 94 96  1  0
 95 93  2  0
 98 99  1  0
 98 73  1  0
100 98  1  0
M  ISO  4  10 101  11 101  63 100  71 100
M  END
>  <TORSDO>  (65) 
F 34

>  <SCORE>  (65) 
-6.111

>  <name>  (65) 
64

>  <ligand_id>  (65) 
64

>  <original_smiles>  (65) 
[H]c1c([H])c([H])c2c(c1[H])C([H])([H])C([H])([H])C([H])([H])C2([H])N([H])C(=O)C1([H])N(C(=O)C([H])(N([H])C(=O)C([H])(N([H])C([H])([H])[H])C([H])([H])[H])C(C([H])([H])[H])(C([H])([H])[H])C([H])([H])[H])C([H])([H])c2c([H])c(OC([H])([H])C([H])([H])OC([H])([H])C([H])([H])OC([H])([H])C([H])([H])OC([H])([H])C([H])([H])C([H])([H])[N+]([H])([H])C([H])([H])C([H])([H])OC([H])([H])C([H])([H])C([H])([H])N([H])C(=O)N3C([H])([H])C([H])([H])C([H])([H])C([H])(n4nc(-c5c([H])c([H])c(Oc6c([H])c([H])c(F)c([H])c6F)c([H])c5[H])c(C(=O)N([H])[H])c4N([H])[H])C3([H])[H])c([H])c([H])c2C1([H])[H]

>  <smiles>  (65) 
[H]c1c([H])c([H])c2c(c1[H])C([H])([H])C([H])([H])C([H])([H])C2([H])N([H])C(=O)C1([H])N(C(=O)C([H])(N([H])C(=O)C([H])(N([H])C([H])([H])[H])C([H])([H])[H])C(C([H])([H])[H])(C([H])([H])[H])C([H])([H])[H])C([H])([H])c2c([H])c(OC([H])([H])C([H])([H])OC([H])([H])C([H])([H])OC([H])([H])C([H])([H])OC([H])([H])C([H])([H])C([H])([H])[N+]([H])([H])C([H])([H])C([H])([H])OC([H])([H])C([H])([H])C([H])([H])N([H])C(=O)N3C([H])([H])C([H])([H])C([H])([H])C([H])(n4nc(-c5c([H])c([H])c(Oc6c([H])c([H])c(F)c([H])c6F)c([H])c5[H])c(C(=O)N([H])[H])c4N([H])[H])C3([H])[H])c([H])c([H])c2C1([H])[H]

$$$$
65:0:0
     RDKit          3D

110117  0  0  1  0  0  0  0  0999 V2000
  -29.6900  -23.4310   23.4710 C   0  0  0  0  0  0  0  0  0  0  0  0
  -30.5080  -23.5660   22.3890 C   0  0  0  0  0  0  0  0  0  0  0  0
  -28.3520  -24.1640   23.5800 C   0  0  0  0  0  1  0  0  0  0  0  0
  -30.0740  -22.5950   24.6090 C   0  0  0  0  0  0  0  0  0  0  0  0
  -29.1010  -21.7980   25.0350 N   0  0  0  0  0  0  0  0  0  0  0  0
  -31.1540  -22.6180   25.1980 O   0  0  0  0  0  0  0  0  0  0  0  0
  -28.1800  -21.8530   24.6280 H   0  0  0  0  0  0  0  0  0  0  0  0
  -29.2590  -21.1940   25.8310 H   0  0  0  0  0  0  0  0  0  0  0  0
  -31.8520  -22.8480   22.1860 C   0  0  0  0  0  2  0  0  0  0  0  0
  -31.7190  -21.8260   21.2140 O   0  0  0  0  0  0  0  0  0  0  0  0
  -32.4490  -22.0260   20.0090 C   0  0  0  0  0  2  0  0  0  0  0  0
  -31.9620  -20.9720   19.0150 C   0  0  0  0  0  2  0  0  0  0  0  0
  -30.7230  -21.4290   18.4870 O   0  0  0  0  0  0  0  0  0  0  0  0
  -30.2300  -20.6330   17.4200 C   0  0  0  0  0  2  0  0  0  0  0  0
  -28.7580  -20.9870   17.1300 C   0  0  0  0  0  2  0  0  0  0  0  0
  -27.8530  -20.3020   18.0010 O   0  0  0  0  0  0  0  0  0  0  0  0
  -27.5030  -21.0140   19.1850 C   0  0  0  0  0  2  0  0  0  0  0  0
  -27.7080  -20.1000   20.3990 C   0  0  0  0  0  2  0  0  0  0  0  0
  -29.1150  -20.0340   20.5670 O   0  0  0  0  0  0  0  0  0  0  0  0
  -29.5940  -19.6160   21.8330 C   0  0  0  0  0  2  0  0  0  0  0  0
  -29.7500  -18.0930   21.9990 C   0  0  0  0  0  2  0  0  0  0  0  0
  -30.9610  -17.6140   21.4210 O   0  0  0  0  0  0  0  0  0  0  0  0
  -30.9160  -17.3700   20.0180 C   0  0  0  0  0  2  0  0  0  0  0  0
  -30.3450  -15.9820   19.6770 C   0  0  0  0  0  2  0  0  0  0  0  0
  -32.1510  -14.4950   20.4330 C   0  0  0  0  0  0  0  0  0  0  0  0
  -33.1830  -12.4500   19.5940 C   0  0  0  0  0  2  0  0  0  0  0  0
  -32.3090  -11.9660   18.4150 C   0  0  0  0  0  2  0  0  0  0  0  0
  -31.1420  -11.0830   18.9070 C   0  0  0  0  0  2  0  0  0  0  0  0
  -30.3830  -11.6870   20.1200 C   0  0  0  0  0  3  0  0  0  0  0  0
  -31.3680  -12.2240   21.1890 C   0  0  0  0  0  2  0  0  0  0  0  0
  -32.2990  -13.1510   20.5290 N   0  0  0  0  0  0  0  0  0  0  0  0
  -33.0140  -15.2520   19.9860 O   0  0  0  0  0  0  0  0  0  0  0  0
  -30.8800  -14.8960   20.5040 N   0  0  0  0  0  0  0  0  0  0  0  0
  -30.2180  -14.2210   20.8580 H   0  0  0  0  0  0  0  0  0  0  0  0
  -28.0540  -10.8350   20.8100 C   0  0  0  0  0  0  0  0  0  0  0  0
  -27.6310   -9.6400   21.3310 C   0  0  0  0  0  0  0  0  0  0  0  0
  -28.8030   -8.8410   21.4870 C   0  0  0  0  0  0  0  0  0  0  0  0
  -29.4310  -10.7290   20.6830 N   0  0  0  0  0  0  0  0  0  0  0  0
  -29.8830   -9.5340   21.1430 N   0  0  0  0  0  0  0  0  0  0  0  0
  -28.9540   -7.4360   21.8900 C   0  0  0  0  0  0  0  0  0  0  0  0
  -29.6980   -7.0710   23.0330 C   0  0  0  0  0  3  0  0  0  0  0  0
  -29.8110   -5.7160   23.4120 C   0  0  0  0  0  3  0  0  0  0  0  0
  -29.1750   -4.7080   22.6490 C   0  0  0  0  0  0  0  0  0  0  0  0
  -28.4540   -5.0740   21.4990 C   0  0  0  0  0  3  0  0  0  0  0  0
  -28.3470   -6.4240   21.1220 C   0  0  0  0  0  3  0  0  0  0  0  0
  -29.2610   -3.3650   22.9230 O   0  0  0  0  0  0  0  0  0  0  0  0
  -29.3210   -2.8970   24.2100 C   0  0  0  0  0  0  0  0  0  0  0  0
  -28.3060   -3.1730   25.1520 C   0  0  0  0  0  3  0  0  0  0  0  0
  -28.3710   -2.6130   26.4440 C   0  0  0  0  0  3  0  0  0  0  0  0
  -29.4450   -1.7710   26.7930 C   0  0  0  0  0  0  0  0  0  0  0  0
  -30.4550   -1.4930   25.8560 C   0  0  0  0  0  3  0  0  0  0  0  0
  -30.3890   -2.0500   24.5660 C   0  0  0  0  0  0  0  0  0  0  0  0
  -31.3530   -1.7600   23.6610 F   0  0  0  0  0  0  0  0  0  0  0  0
  -29.5040   -1.2280   28.0320 F   0  0  0  0  0  0  0  0  0  0  0  0
  -26.2070   -9.2290   21.5760 C   0  0  0  0  0  0  0  0  0  0  0  0
  -25.9760   -8.3880   22.5810 N   0  0  0  0  0  0  0  0  0  0  0  0
  -25.2850   -9.6880   20.9070 O   0  0  0  0  0  0  0  0  0  0  0  0
  -26.7280   -8.0340   23.1490 H   0  0  0  0  0  0  0  0  0  0  0  0
  -25.0270   -8.1090   22.7890 H   0  0  0  0  0  0  0  0  0  0  0  0
  -27.3840  -11.9870   20.4210 N   0  0  0  0  0  0  0  0  0  0  0  0
  -26.3730  -12.0520   20.4500 H   0  0  0  0  0  0  0  0  0  0  0  0
  -27.8200  -12.7860   19.9770 H   0  0  0  0  0  0  0  0  0  0  0  0
  -30.1810  -24.4960   21.2260 C   0  0  0  0  0  2  0  0  0  0  0  0
  -30.9310  -25.7460   21.4490 N   0  0  0  0  0  4  0  0  0  0  0  0
  -31.8030  -25.4930   21.8820 H   0  0  0  0  0  0  0  0  0  0  0  0
  -30.4410  -26.3190   22.1160 H   0  0  0  0  0  0  0  0  0  0  0  0
  -31.2930  -26.5400   20.2590 C   0  0  0  0  0  2  0  0  0  0  0  0
  -30.2140  -27.5490   19.8280 C   0  0  0  0  0  2  0  0  0  0  0  0
  -29.1470  -27.0480   18.8310 C   0  0  0  0  0  2  0  0  0  0  0  0
  -28.0410  -26.3610   19.4280 O   0  0  0  0  0  0  0  0  0  0  0  0
  -24.6560  -31.4490   23.1000 C   0  0  0  0  0  0  0  0  0  0  0  0
  -26.9010  -27.1160   19.6160 C   0  0  0  0  0  0  0  0  0  0  0  0
  -23.2640  -30.1840   21.4830 C   0  0  0  0  0  3  0  0  0  0  0  0
  -24.5430  -28.6530   19.8910 C   0  0  0  0  0  0  0  0  0  0  0  0
  -25.7690  -30.4720   21.0980 C   0  0  0  0  0  2  0  0  0  0  0  0
  -25.7520  -29.1270   20.4070 C   0  0  0  0  0  0  0  0  0  0  0  0
  -26.9270  -28.3670   20.2710 C   0  0  0  0  0  3  0  0  0  0  0  0
  -25.6700  -26.6310   19.1250 C   0  0  0  0  0  3  0  0  0  0  0  0
  -24.4900  -27.3980   19.2540 C   0  0  0  0  0  3  0  0  0  0  0  0
  -23.3410  -29.5550   20.0620 C   0  0  0  0  0  2  0  0  0  0  0  0
  -24.5870  -30.7140   21.9540 N   0  0  0  0  0  0  0  0  0  0  0  0
  -23.6320  -31.7360   23.7350 O   0  0  0  0  0  0  0  0  0  0  0  0
  -22.6410  -29.1470   22.4410 C   0  0  0  0  0  0  0  0  0  0  0  0
  -21.3100  -28.9830   22.3570 N   0  0  0  0  0  0  0  0  0  0  0  0
  -23.3470  -28.4960   23.2150 O   0  0  0  0  0  0  0  0  0  0  0  0
  -20.8020  -29.5650   21.7060 H   0  0  0  0  0  0  0  0  0  0  0  0
  -17.9590  -27.7450   22.8580 C   0  0  0  0  0  0  0  0  0  0  0  0
  -20.5130  -28.0330   23.1300 C   0  0  0  0  0  3  0  0  0  0  0  0
  -20.6320  -26.6040   22.5500 C   0  0  0  0  0  2  0  0  0  0  0  0
  -19.5320  -26.2700   21.5360 C   0  0  0  0  0  2  0  0  0  0  0  0
  -18.1510  -26.3970   22.1840 C   0  0  0  0  0  2  0  0  0  0  0  0
  -19.0680  -28.5190   23.2900 C   0  0  0  0  0  0  0  0  0  0  0  0
  -18.8360  -29.7810   23.8800 C   0  0  0  0  0  3  0  0  0  0  0  0
  -17.5250  -30.2670   24.0460 C   0  0  0  0  0  3  0  0  0  0  0  0
  -16.4290  -29.4890   23.6320 C   0  0  0  0  0  3  0  0  0  0  0  0
  -16.6460  -28.2300   23.0440 C   0  0  0  0  0  3  0  0  0  0  0  0
  -26.0150  -31.9870   23.6510 C   0  0  0  0  0  3  0  0  0  0  0  0
  -26.5900  -31.1290   24.8410 C   0  0  1  0  0  0  0  0  0  0  0  0
  -25.5750  -30.8870   25.9820 C   0  0  0  0  0  1  0  0  0  0  0  0
  -27.0660  -29.7490   24.3300 C   0  0  0  0  0  1  0  0  0  0  0  0
  -27.8230  -31.8360   25.4490 C   0  0  0  0  0  1  0  0  0  0  0  0
  -25.7990  -33.3790   24.0670 N   0  0  0  0  0  0  0  0  0  0  0  0
  -26.1560  -34.4510   23.3470 C   0  0  0  0  0  0  0  0  0  0  0  0
  -26.7720  -34.3690   22.2810 O   0  0  0  0  0  0  0  0  0  0  0  0
  -25.2410  -33.5210   24.8950 H   0  0  0  0  0  0  0  0  0  0  0  0
  -24.5180  -36.3520   23.1720 C   0  0  0  0  0  1  0  0  0  0  0  0
  -25.7690  -35.8340   23.9000 C   0  0  0  0  0  3  0  0  0  0  0  0
  -27.9880  -36.5510   24.6700 C   0  0  0  0  0  1  0  0  0  0  0  0
  -26.8530  -36.8350   23.7940 N   0  0  0  0  0  0  0  0  0  0  0  0
  -26.5060  -37.7650   24.0170 H   0  0  0  0  0  0  0  0  0  0  0  0
  1  3  1  0
  1  4  1  0
  2  1  2  0
  4  5  1  0
  4  6  2  0
  5  8  1  0
  7  5  1  0
  9  2  1  0
 10  9  1  0
 11 10  1  0
 12 11  1  0
 13 12  1  0
 14 13  1  0
 15 14  1  0
 15 16  1  0
 16 17  1  0
 17 18  1  0
 18 19  1  0
 19 20  1  0
 20 21  1  0
 22 21  1  0
 23 22  1  0
 24 23  1  0
 24 33  1  0
 25 33  1  0
 25 31  1  0
 26 31  1  0
 27 28  1  0
 27 26  1  0
 29 28  1  0
 29 38  1  0
 29 30  1  0
 31 30  1  0
 32 25  2  0
 33 34  1  0
 35 36  2  0
 36 37  1  0
 36 55  1  0
 37 40  1  0
 38 35  1  0
 38 39  1  0
 39 37  2  0
 40 41  1  0
 41 42  2  0
 43 46  1  0
 43 42  1  0
 44 43  2  0
 45 44  1  0
 45 40  2  0
 46 47  1  0
 47 52  2  0
 47 48  1  0
 48 49  2  0
 49 50  1  0
 50 54  1  0
 51 50  2  0
 52 51  1  0
 53 52  1  0
 55 56  1  0
 56 59  1  0
 56 58  1  0
 57 55  2  0
 60 61  1  0
 60 35  1  0
 62 60  1  0
 63 64  1  0
 63  2  1  0
 64 65  1  0
 64 66  1  0
 67 64  1  0
 68 67  1  0
 69 70  1  0
 69 68  1  0
 70 72  1  0
 71 82  2  0
 72 77  1  0
 73 81  1  0
 73 83  1  0
 74 80  1  0
 74 76  1  0
 75 81  1  0
 76 75  1  0
 77 76  2  0
 78 79  1  0
 78 72  2  0
 79 74  2  0
 80 73  1  0
 81 71  1  0
 83 85  2  0
 84 83  1  0
 86 84  1  0
 87 96  2  0
 87 92  1  0
 88 84  1  0
 88 92  1  0
 89 88  1  0
 90 91  1  0
 90 89  1  0
 91 87  1  0
 92 93  2  0
 93 94  1  0
 95 94  2  0
 96 95  1  0
 97 71  1  0
 97102  1  0
 97 98  1  0
 98101  1  1
 98 99  1  0
100 98  1  0
102105  1  0
103107  1  0
103102  1  0
104103  2  0
107106  1  0
109107  1  0
109110  1  0
109108  1  0
M  ISO  4  25 100  33 100  69 101  70 101
M  END
>  <TORSDO>  (66) 
F 38

>  <SCORE>  (66) 
-3.150

>  <name>  (66) 
65

>  <ligand_id>  (66) 
65

>  <original_smiles>  (66) 
[H]c1c([H])c([H])c2c(c1[H])C([H])([H])C([H])([H])C([H])([H])C2([H])N([H])C(=O)C1([H])N(C(=O)C([H])(N([H])C(=O)C([H])(N([H])C([H])([H])[H])C([H])([H])[H])C(C([H])([H])[H])(C([H])([H])[H])C([H])([H])[H])C([H])([H])c2c([H])c(OC([H])([H])C([H])([H])C([H])([H])[N+]([H])([H])C([H])([H])C(=C(C(=O)N([H])[H])C([H])([H])[H])C([H])([H])OC([H])([H])C([H])([H])OC([H])([H])C([H])([H])OC([H])([H])C([H])([H])OC([H])([H])C([H])([H])OC([H])([H])C([H])([H])N([H])C(=O)N3C([H])([H])C([H])([H])C([H])([H])C([H])(n4nc(-c5c([H])c([H])c(Oc6c([H])c([H])c(F)c([H])c6F)c([H])c5[H])c(C(=O)N([H])[H])c4N([H])[H])C3([H])[H])c([H])c([H])c2C1([H])[H]

>  <smiles>  (66) 
[H]c1c([H])c([H])c2c(c1[H])C([H])([H])C([H])([H])C([H])([H])C2([H])N([H])C(=O)C1([H])N(C(=O)C([H])(N([H])C(=O)C([H])(N([H])C([H])([H])[H])C([H])([H])[H])C(C([H])([H])[H])(C([H])([H])[H])C([H])([H])[H])C([H])([H])c2c([H])c(OC([H])([H])C([H])([H])C([H])([H])[N+]([H])([H])C([H])([H])C(=C(C(=O)N([H])[H])C([H])([H])[H])C([H])([H])OC([H])([H])C([H])([H])OC([H])([H])C([H])([H])OC([H])([H])C([H])([H])OC([H])([H])C([H])([H])OC([H])([H])C([H])([H])N([H])C(=O)N3C([H])([H])C([H])([H])C([H])([H])C([H])(n4nc(-c5c([H])c([H])c(Oc6c([H])c([H])c(F)c([H])c6F)c([H])c5[H])c(C(=O)N([H])[H])c4N([H])[H])C3([H])[H])c([H])c([H])c2C1([H])[H]

$$$$
66:0:0
     RDKit          3D

100107  0  0  1  0  0  0  0  0999 V2000
  -30.5950  -19.3750   24.7400 C   0  0  0  0  0  2  0  0  0  0  0  0
  -30.9680  -19.9510   23.4890 O   0  0  0  0  0  0  0  0  0  0  0  0
  -31.1150  -21.3640   23.5310 C   0  0  0  0  0  2  0  0  0  0  0  0
  -31.5360  -21.8600   22.1430 C   0  0  0  0  0  2  0  0  0  0  0  0
  -30.4760  -21.6760   21.2110 O   0  0  0  0  0  0  0  0  0  0  0  0
  -30.9350  -21.8100   19.8710 C   0  0  0  0  0  2  0  0  0  0  0  0
  -29.7780  -22.1850   18.9370 C   0  0  0  0  0  2  0  0  0  0  0  0
  -29.1740  -23.3900   19.3850 O   0  0  0  0  0  0  0  0  0  0  0  0
  -28.3660  -24.0070   18.3900 C   0  0  0  0  0  2  0  0  0  0  0  0
  -27.3290  -24.9180   19.0690 C   0  0  0  0  0  2  0  0  0  0  0  0
  -27.5530  -26.2830   18.7180 O   0  0  0  0  0  0  0  0  0  0  0  0
  -25.3670  -30.6950   23.8370 C   0  0  0  0  0  0  0  0  0  0  0  0
  -26.5900  -27.1670   19.1380 C   0  0  0  0  0  0  0  0  0  0  0  0
  -23.7470  -30.2760   22.0190 C   0  0  0  0  0  3  0  0  0  0  0  0
  -24.6630  -29.0500   19.9790 C   0  0  0  0  0  0  0  0  0  0  0  0
  -26.2610  -30.1080   21.5890 C   0  0  0  0  0  2  0  0  0  0  0  0
  -25.9490  -29.0700   20.5310 C   0  0  0  0  0  0  0  0  0  0  0  0
  -26.9210  -28.1390   20.1040 C   0  0  0  0  0  3  0  0  0  0  0  0
  -25.2880  -27.1510   18.5900 C   0  0  0  0  0  3  0  0  0  0  0  0
  -24.3270  -28.0960   19.0010 C   0  0  0  0  0  3  0  0  0  0  0  0
  -23.6900  -30.0930   20.4790 C   0  0  0  0  0  2  0  0  0  0  0  0
  -25.1490  -30.3480   22.5380 N   0  0  0  0  0  0  0  0  0  0  0  0
  -24.4280  -31.0010   24.5870 O   0  0  0  0  0  0  0  0  0  0  0  0
  -22.9040  -29.1590   22.6750 C   0  0  0  0  0  0  0  0  0  0  0  0
  -21.5730  -29.2600   22.5370 N   0  0  0  0  0  0  0  0  0  0  0  0
  -23.4450  -28.2200   23.2640 O   0  0  0  0  0  0  0  0  0  0  0  0
  -21.2110  -30.0630   22.0460 H   0  0  0  0  0  0  0  0  0  0  0  0
  -18.0380  -28.5090   22.6100 C   0  0  0  0  0  0  0  0  0  0  0  0
  -20.5810  -28.3060   23.0320 C   0  0  0  0  0  3  0  0  0  0  0  0
  -20.5270  -27.0470   22.1360 C   0  0  0  0  0  2  0  0  0  0  0  0
  -19.4650  -27.1340   21.0360 C   0  0  0  0  0  2  0  0  0  0  0  0
  -18.0740  -27.3370   21.6430 C   0  0  0  0  0  2  0  0  0  0  0  0
  -19.2180  -28.9740   23.2480 C   0  0  0  0  0  0  0  0  0  0  0  0
  -19.1370  -30.0930   24.1060 C   0  0  0  0  0  3  0  0  0  0  0  0
  -17.9060  -30.7350   24.3390 C   0  0  0  0  0  3  0  0  0  0  0  0
  -16.7390  -30.2590   23.7180 C   0  0  0  0  0  3  0  0  0  0  0  0
  -16.8060  -29.1490   22.8590 C   0  0  0  0  0  3  0  0  0  0  0  0
  -26.8060  -30.7540   24.4420 C   0  0  0  0  0  3  0  0  0  0  0  0
  -26.9040  -31.9840   25.2380 N   0  0  0  0  0  0  0  0  0  0  0  0
  -27.5130  -33.1060   24.8340 C   0  0  0  0  0  0  0  0  0  0  0  0
  -28.1230  -33.1880   23.7640 O   0  0  0  0  0  0  0  0  0  0  0  0
  -26.3850  -32.0030   26.1040 H   0  0  0  0  0  0  0  0  0  0  0  0
  -26.3680  -35.3060   25.2400 C   0  0  0  0  0  1  0  0  0  0  0  0
  -27.4340  -34.3330   25.7640 C   0  0  0  0  0  3  0  0  0  0  0  0
  -29.7170  -34.2720   26.6620 C   0  0  0  0  0  1  0  0  0  0  0  0
  -28.7250  -35.0380   25.9150 N   0  0  0  0  0  0  0  0  0  0  0  0
  -28.5970  -35.9320   26.3840 H   0  0  0  0  0  0  0  0  0  0  0  0
  -27.1620  -29.4940   25.3220 C   0  0  1  0  0  0  0  0  0  0  0  0
  -26.1030  -29.1690   26.4030 C   0  0  0  0  0  1  0  0  0  0  0  0
  -27.3310  -28.2430   24.4270 C   0  0  0  0  0  1  0  0  0  0  0  0
  -28.5170  -29.7180   26.0350 C   0  0  0  0  0  1  0  0  0  0  0  0
  -30.1920  -17.9110   24.5090 C   0  0  0  0  0  2  0  0  0  0  0  0
  -30.7800  -16.4280   22.6110 C   0  0  0  0  0  0  0  0  0  0  0  0
  -31.1300  -17.2650   23.5940 N   0  0  0  0  0  0  0  0  0  0  0  0
  -29.6310  -15.9770   22.5220 O   0  0  0  0  0  0  0  0  0  0  0  0
  -32.0730  -17.6260   23.6140 H   0  0  0  0  0  0  0  0  0  0  0  0
  -31.8480  -16.0410   21.5620 C   0  0  0  0  0  3  0  0  0  0  0  0
  -31.9320  -13.9360   20.1740 C   0  0  0  0  0  0  0  0  0  0  0  0
  -31.3840  -11.9800   18.7740 C   0  0  0  0  0  2  0  0  0  0  0  0
  -30.4210  -12.4260   17.6570 C   0  0  0  0  0  2  0  0  0  0  0  0
  -28.9580  -12.3950   18.1460 C   0  0  0  0  0  2  0  0  0  0  0  0
  -28.7680  -13.1100   19.5120 C   0  0  0  0  0  3  0  0  0  0  0  0
  -29.8220  -12.6150   20.5230 C   0  0  0  0  0  2  0  0  0  0  0  0
  -31.1500  -12.8550   19.9280 N   0  0  0  0  0  0  0  0  0  0  0  0
  -33.0640  -14.0850   19.7040 O   0  0  0  0  0  0  0  0  0  0  0  0
  -31.3040  -14.8980   20.8490 N   0  0  0  0  0  0  0  0  0  0  0  0
  -30.3410  -14.7270   21.0870 H   0  0  0  0  0  0  0  0  0  0  0  0
  -26.4590  -13.9230   20.3060 C   0  0  0  0  0  0  0  0  0  0  0  0
  -25.3350  -13.2430   20.6920 C   0  0  0  0  0  0  0  0  0  0  0  0
  -25.6680  -11.8550   20.6110 C   0  0  0  0  0  0  0  0  0  0  0  0
  -27.4080  -12.9530   20.0230 N   0  0  0  0  0  0  0  0  0  0  0  0
  -26.9370  -11.7020   20.2590 N   0  0  0  0  0  0  0  0  0  0  0  0
  -24.8350  -10.6600   20.7940 C   0  0  0  0  0  0  0  0  0  0  0  0
  -25.1630   -9.6700   21.7470 C   0  0  0  0  0  3  0  0  0  0  0  0
  -24.3390   -8.5390   21.9160 C   0  0  0  0  0  3  0  0  0  0  0  0
  -23.1710   -8.3880   21.1310 C   0  0  0  0  0  0  0  0  0  0  0  0
  -22.8620   -9.3630   20.1680 C   0  0  0  0  0  3  0  0  0  0  0  0
  -23.6860  -10.4880   19.9980 C   0  0  0  0  0  3  0  0  0  0  0  0
  -22.3240   -7.3100   21.2070 O   0  0  0  0  0  0  0  0  0  0  0  0
  -22.0600   -6.6850   22.4000 C   0  0  0  0  0  0  0  0  0  0  0  0
  -21.5190   -7.3820   23.5010 C   0  0  0  0  0  3  0  0  0  0  0  0
  -21.1980   -6.6880   24.6860 C   0  0  0  0  0  3  0  0  0  0  0  0
  -21.4080   -5.2990   24.7660 C   0  0  0  0  0  0  0  0  0  0  0  0
  -21.9380   -4.6010   23.6680 C   0  0  0  0  0  3  0  0  0  0  0  0
  -22.2600   -5.2930   22.4860 C   0  0  0  0  0  0  0  0  0  0  0  0
  -22.7530   -4.6140   21.4230 F   0  0  0  0  0  0  0  0  0  0  0  0
  -21.0920   -4.6280   25.9000 F   0  0  0  0  0  0  0  0  0  0  0  0
  -23.9990  -13.8380   21.0250 C   0  0  0  0  0  0  0  0  0  0  0  0
  -23.2520  -13.2110   21.9290 N   0  0  0  0  0  0  0  0  0  0  0  0
  -23.6260  -14.8960   20.5200 O   0  0  0  0  0  0  0  0  0  0  0  0
  -23.5680  -12.3580   22.3660 H   0  0  0  0  0  0  0  0  0  0  0  0
  -22.3530  -13.5900   22.1870 H   0  0  0  0  0  0  0  0  0  0  0  0
  -26.7450  -15.2770   20.1570 N   0  0  0  0  0  0  0  0  0  0  0  0
  -26.0550  -15.9990   20.3330 H   0  0  0  0  0  0  0  0  0  0  0  0
  -27.6330  -15.6460   19.8340 H   0  0  0  0  0  0  0  0  0  0  0  0
  -32.0010  -17.2410   20.5980 C   0  0  0  0  0  0  0  0  0  0  0  0
  -32.7800  -18.2630   20.9520 N   0  0  0  0  0  0  0  0  0  0  0  0
  -31.4370  -17.2530   19.5030 O   0  0  0  0  0  0  0  0  0  0  0  0
  -33.2500  -18.3010   21.8480 H   0  0  0  0  0  0  0  0  0  0  0  0
  -32.8650  -19.0480   20.3260 H   0  0  0  0  0  0  0  0  0  0  0  0
  2  3  1  0
  2  1  1  0
  4  3  1  0
  5  4  1  0
  6  5  1  0
  7  8  1  0
  7  6  1  0
  9 10  1  0
  9  8  1  0
 11 10  1  0
 11 13  1  0
 12 23  2  0
 13 18  1  0
 14 22  1  0
 14 24  1  0
 15 21  1  0
 15 17  1  0
 16 22  1  0
 17 16  1  0
 18 17  2  0
 19 20  1  0
 19 13  2  0
 20 15  2  0
 21 14  1  0
 22 12  1  0
 24 26  2  0
 25 24  1  0
 27 25  1  0
 28 37  2  0
 28 33  1  0
 29 25  1  0
 29 33  1  0
 30 29  1  0
 31 32  1  0
 31 30  1  0
 32 28  1  0
 33 34  2  0
 34 35  1  0
 36 35  2  0
 37 36  1  0
 38 12  1  0
 38 39  1  0
 38 48  1  0
 39 42  1  0
 40 39  1  0
 40 44  1  0
 41 40  2  0
 44 43  1  0
 44 46  1  0
 46 47  1  0
 46 45  1  0
 48 51  1  1
 48 49  1  0
 50 48  1  0
 52  1  1  0
 53 54  1  0
 54 56  1  0
 54 52  1  0
 55 53  2  0
 57 96  1  0
 57 53  1  0
 58 66  1  0
 59 64  1  0
 60 61  1  0
 60 59  1  0
 62 61  1  0
 62 71  1  0
 62 63  1  0
 64 58  1  0
 64 63  1  0
 65 58  2  0
 66 67  1  0
 66 57  1  0
 68 69  2  0
 69 88  1  0
 70 69  1  0
 70 73  1  0
 71 72  1  0
 71 68  1  0
 72 70  2  0
 73 74  1  0
 74 75  2  0
 76 79  1  0
 76 75  1  0
 77 76  2  0
 78 77  1  0
 78 73  2  0
 79 80  1  0
 80 85  2  0
 80 81  1  0
 81 82  2  0
 82 83  1  0
 83 87  1  0
 84 83  2  0
 85 84  1  0
 86 85  1  0
 88 89  1  0
 89 92  1  0
 89 91  1  0
 90 88  2  0
 93 68  1  0
 93 94  1  0
 95 93  1  0
 96 97  1  0
 97 99  1  0
 98 96  2  0
100 97  1  0
M  ISO  4  10 101  11 101  58 100  66 100
M  END
>  <TORSDO>  (67) 
F 29

>  <SCORE>  (67) 
-5.921

>  <name>  (67) 
66

>  <ligand_id>  (67) 
66

>  <original_smiles>  (67) 
[H]c1c([H])c([H])c2c(c1[H])C([H])([H])C([H])([H])C([H])([H])C2([H])N([H])C(=O)C1([H])N(C(=O)C([H])(N([H])C(=O)C([H])(N([H])C([H])([H])[H])C([H])([H])[H])C(C([H])([H])[H])(C([H])([H])[H])C([H])([H])[H])C([H])([H])c2c([H])c(OC([H])([H])C([H])([H])OC([H])([H])C([H])([H])OC([H])([H])C([H])([H])OC([H])([H])C([H])([H])N([H])C(=O)C([H])(C(=O)N([H])[H])N([H])C(=O)N3C([H])([H])C([H])([H])C([H])([H])C([H])(n4nc(-c5c([H])c([H])c(Oc6c([H])c([H])c(F)c([H])c6F)c([H])c5[H])c(C(=O)N([H])[H])c4N([H])[H])C3([H])[H])c([H])c([H])c2C1([H])[H]

>  <smiles>  (67) 
[H]c1c([H])c([H])c2c(c1[H])C([H])([H])C([H])([H])C([H])([H])C2([H])N([H])C(=O)C1([H])N(C(=O)C([H])(N([H])C(=O)C([H])(N([H])C([H])([H])[H])C([H])([H])[H])C(C([H])([H])[H])(C([H])([H])[H])C([H])([H])[H])C([H])([H])c2c([H])c(OC([H])([H])C([H])([H])OC([H])([H])C([H])([H])OC([H])([H])C([H])([H])OC([H])([H])C([H])([H])N([H])C(=O)C([H])(C(=O)N([H])[H])N([H])C(=O)N3C([H])([H])C([H])([H])C([H])([H])C([H])(n4nc(-c5c([H])c([H])c(Oc6c([H])c([H])c(F)c([H])c6F)c([H])c5[H])c(C(=O)N([H])[H])c4N([H])[H])C3([H])[H])c([H])c([H])c2C1([H])[H]

$$$$
67:0:0
     RDKit          3D

107110  0  0  1  0  0  0  0  0999 V2000
  -19.5240  -22.4980   21.8360 C   0  0  0  0  0  3  0  0  0  0  0  0
  -19.6730  -22.7720   20.3160 C   0  0  0  0  0  0  0  0  0  0  0  0
  -20.8880  -22.9650   19.7760 N   0  0  0  0  0  0  0  0  0  0  0  0
  -18.6640  -22.8060   19.6100 O   0  0  0  0  0  0  0  0  0  0  0  0
  -21.7010  -22.9620   20.3750 H   0  0  0  0  0  0  0  0  0  0  0  0
  -21.1500  -23.2820   18.3730 C   0  0  0  0  0  2  0  0  0  0  0  0
  -22.6480  -23.1380   18.0610 C   0  0  0  0  0  2  0  0  0  0  0  0
  -23.3690  -23.9910   18.9380 O   0  0  0  0  0  0  0  0  0  0  0  0
  -24.7740  -23.9990   18.7130 C   0  0  0  0  0  2  0  0  0  0  0  0
  -25.4200  -24.6750   19.9290 C   0  0  0  0  0  2  0  0  0  0  0  0
  -26.8300  -24.4790   19.9700 O   0  0  0  0  0  0  0  0  0  0  0  0
  -27.3740  -24.9040   21.2180 C   0  0  0  0  0  2  0  0  0  0  0  0
  -28.9020  -24.7630   21.2390 C   0  0  0  0  0  2  0  0  0  0  0  0
  -29.2800  -23.3880   21.2590 O   0  0  0  0  0  0  0  0  0  0  0  0
  -30.6730  -23.2040   21.4980 C   0  0  0  0  0  2  0  0  0  0  0  0
  -31.1540  -21.9540   20.7500 C   0  0  0  0  0  2  0  0  0  0  0  0
  -32.3840  -20.0320   21.6570 C   0  0  0  0  0  0  0  0  0  0  0  0
  -33.1340  -18.0120   20.5060 C   0  0  0  0  0  2  0  0  0  0  0  0
  -32.5140  -18.0670   19.0930 C   0  0  0  0  0  2  0  0  0  0  0  0
  -31.1090  -17.4310   19.0920 C   0  0  0  0  0  2  0  0  0  0  0  0
  -30.2020  -17.9720   20.2290 C   0  0  0  0  0  3  0  0  0  0  0  0
  -30.9510  -17.9690   21.5850 C   0  0  0  0  0  2  0  0  0  0  0  0
  -32.2130  -18.7110   21.4130 N   0  0  0  0  0  0  0  0  0  0  0  0
  -33.4770  -20.6020   21.6160 O   0  0  0  0  0  0  0  0  0  0  0  0
  -31.2490  -20.7410   21.5730 N   0  0  0  0  0  0  0  0  0  0  0  0
  -30.4000  -20.2050   21.6690 H   0  0  0  0  0  0  0  0  0  0  0  0
  -27.6400  -17.7110   20.2410 C   0  0  0  0  0  0  0  0  0  0  0  0
  -26.8360  -16.6040   20.2900 C   0  0  0  0  0  0  0  0  0  0  0  0
  -27.7150  -15.4820   20.3820 C   0  0  0  0  0  0  0  0  0  0  0  0
  -28.9420  -17.2370   20.3070 N   0  0  0  0  0  0  0  0  0  0  0  0
  -28.9760  -15.8880   20.4470 N   0  0  0  0  0  0  0  0  0  0  0  0
  -27.4340  -14.0410   20.3520 C   0  0  0  0  0  0  0  0  0  0  0  0
  -27.6110  -13.2310   21.4960 C   0  0  0  0  0  3  0  0  0  0  0  0
  -27.3170  -11.8520   21.4480 C   0  0  0  0  0  3  0  0  0  0  0  0
  -26.8370  -11.2700   20.2510 C   0  0  0  0  0  0  0  0  0  0  0  0
  -26.6830  -12.0760   19.1090 C   0  0  0  0  0  3  0  0  0  0  0  0
  -26.9820  -13.4480   19.1570 C   0  0  0  0  0  3  0  0  0  0  0  0
  -26.5500   -9.9340   20.1040 O   0  0  0  0  0  0  0  0  0  0  0  0
  -25.7500   -9.2670   20.9980 C   0  0  0  0  0  0  0  0  0  0  0  0
  -24.3840   -9.5870   21.1580 C   0  0  0  0  0  3  0  0  0  0  0  0
  -23.5820   -8.8310   22.0360 C   0  0  0  0  0  3  0  0  0  0  0  0
  -24.1420   -7.7530   22.7480 C   0  0  0  0  0  0  0  0  0  0  0  0
  -25.5010   -7.4310   22.5870 C   0  0  0  0  0  3  0  0  0  0  0  0
  -26.3010   -8.1850   21.7120 C   0  0  0  0  0  0  0  0  0  0  0  0
  -27.6050   -7.8580   21.5440 F   0  0  0  0  0  0  0  0  0  0  0  0
  -23.3710   -7.0200   23.5850 F   0  0  0  0  0  0  0  0  0  0  0  0
  -25.3400  -16.5790   20.1650 C   0  0  0  0  0  0  0  0  0  0  0  0
  -24.6990  -15.5390   20.6900 N   0  0  0  0  0  0  0  0  0  0  0  0
  -24.7260  -17.5070   19.6420 O   0  0  0  0  0  0  0  0  0  0  0  0
  -25.2020  -14.7880   21.1380 H   0  0  0  0  0  0  0  0  0  0  0  0
  -23.6910  -15.4960   20.6440 H   0  0  0  0  0  0  0  0  0  0  0  0
  -27.3760  -19.0720   20.1250 N   0  0  0  0  0  0  0  0  0  0  0  0
  -26.4320  -19.4270   20.0210 H   0  0  0  0  0  0  0  0  0  0  0  0
  -28.0800  -19.7940   20.0490 H   0  0  0  0  0  0  0  0  0  0  0  0
  -18.4730  -23.3490   22.4600 N   0  0  0  0  0  4  0  0  0  0  0  0
  -18.3530  -23.0540   23.4170 H   0  0  0  0  0  0  0  0  0  0  0  0
  -18.8460  -24.2870   22.4980 H   0  0  0  0  0  0  0  0  0  0  0  0
  -17.1330  -23.4150   21.8090 C   0  0  0  0  0  2  0  0  0  0  0  0
  -16.4530  -24.7740   22.0940 C   0  0  0  0  0  2  0  0  0  0  0  0
  -17.4810  -25.7550   22.2810 O   0  0  0  0  0  0  0  0  0  0  0  0
  -17.4490  -27.1010   21.6540 C   0  0  0  0  0  1  0  0  0  0  0  0
  -19.6690  -27.9960   19.7020 C   0  0  0  0  0 15  0  0  0  0  0  0
  -21.5190  -27.1080   19.4190 O   0  0  0  0  0  1  0  0  0  0  0  0
  -24.1730  -29.6980   23.1820 C   0  0  0  0  0  0  0  0  0  0  0  0
  -22.9060  -26.9170   18.7300 C   0  0  0  0  0  3  0  0  0  0  0  0
  -22.6090  -29.9240   21.3530 C   0  0  0  0  0  3  0  0  0  0  0  0
  -23.3190  -29.3110   18.9440 C   0  0  0  0  0  3  0  0  0  0  0  0
  -24.9570  -29.1850   20.8460 C   0  0  0  0  0  2  0  0  0  0  0  0
  -24.2950  -28.5740   19.6210 C   0  0  0  0  0  3  0  0  0  0  0  0
  -24.1790  -27.1960   19.3880 C   0  0  0  0  0  2  0  0  0  0  0  0
  -22.9640  -27.4320   17.4540 C   0  0  0  0  0  2  0  0  0  0  0  0
  -22.7850  -28.7890   17.7270 C   0  0  0  0  0  2  0  0  0  0  0  0
  -22.5740  -30.2780   19.8150 C   0  0  0  0  0  2  0  0  0  0  0  0
  -23.9680  -29.6510   21.8380 N   0  0  0  0  0  0  0  0  0  0  0  0
  -23.2760  -30.0510   23.9660 O   0  0  0  0  0  0  0  0  0  0  0  0
  -21.7780  -28.7270   21.8530 C   0  0  0  0  0  0  0  0  0  0  0  0
  -20.5730  -28.9920   22.2270 N   0  0  0  0  0  0  0  0  0  0  0  0
  -22.1800  -27.5760   21.9820 O   0  0  0  0  0  0  0  0  0  0  0  0
  -20.2510  -29.9510   22.2400 H   0  0  0  0  0  0  0  0  0  0  0  0
  -17.2050  -29.6670   22.0230 C   0  0  0  0  0  0  0  0  0  0  0  0
  -19.5730  -27.9640   22.3220 C   0  0  0  0  0  2  0  0  0  0  0  0
  -19.1850  -26.4570   20.8400 C   0  0  0  0  0 15  0  0  0  0  0  0
  -17.5320  -27.3340   19.6320 C   0  0  0  0  0  1  0  0  0  0  0  0
  -16.8700  -29.0230   20.3840 C   0  0  0  0  0  2  0  0  0  0  0  0
  -18.4410  -29.2390   22.7930 C   0  0  0  0  0  0  0  0  0  0  0  0
  -18.5580  -29.7040   24.1500 C   0  0  0  0  0  3  0  0  0  0  0  0
  -17.5600  -30.4150   24.8570 C   0  0  0  0  0  3  0  0  0  0  0  0
  -16.3130  -30.6100   24.2460 C   0  0  0  0  0  3  0  0  0  0  0  0
  -16.1440  -30.2140   22.8810 C   0  0  0  0  0  3  0  0  0  0  0  0
  -25.5460  -29.3370   23.7760 C   0  0  0  0  0  3  0  0  0  0  0  0
  -25.5000  -28.0850   24.7290 C   0  0  1  0  0  0  0  0  0  0  0  0
  -24.3940  -28.1410   25.8110 C   0  0  0  0  0  1  0  0  0  0  0  0
  -25.2900  -26.7820   23.9280 C   0  0  0  0  0  1  0  0  0  0  0  0
  -26.8670  -27.9510   25.4340 C   0  0  0  0  0  1  0  0  0  0  0  0
  -25.9890  -30.5310   24.4980 N   0  0  0  0  0  0  0  0  0  0  0  0
  -26.8590  -31.4210   24.0100 C   0  0  0  0  0  0  0  0  0  0  0  0
  -27.4540  -31.2560   22.9420 O   0  0  0  0  0  0  0  0  0  0  0  0
  -25.5060  -30.7420   25.3600 H   0  0  0  0  0  0  0  0  0  0  0  0
  -26.4510  -33.8920   24.1850 C   0  0  0  0  0  1  0  0  0  0  0  0
  -27.1220  -32.6820   24.8500 C   0  0  0  0  0  3  0  0  0  0  0  0
  -29.2230  -31.9660   25.9000 C   0  0  0  0  0  1  0  0  0  0  0  0
  -28.5600  -32.9540   25.0520 N   0  0  0  0  0  0  0  0  0  0  0  0
  -28.6970  -33.8730   25.4670 H   0  0  0  0  0  0  0  0  0  0  0  0
  -20.8400  -22.6790   22.6270 C   0  0  0  0  0  2  0  0  0  0  0  0
  -21.1760  -24.0670   22.6240 O   0  0  0  0  0  0  0  0  0  0  0  0
  -22.7610  -25.8320   22.8670 C   0  0  0  0  0  1  0  0  0  0  0  0
  -22.5490  -24.3170   22.8710 C   0  0  0  0  0  2  0  0  0  0  0  0
  1 55  1  0
  1104  1  0
  2  1  1  0
  3  2  1  0
  3  5  1  0
  4  2  2  0
  6  3  1  0
  7  6  1  0
  7  8  1  0
  9  8  1  0
  9 10  1  0
 10 11  1  0
 11 12  1  0
 12 13  1  0
 13 14  1  0
 14 15  1  0
 16 15  1  0
 16 25  1  0
 18 23  1  0
 19 18  1  0
 20 19  1  0
 21 20  1  0
 21 30  1  0
 21 22  1  0
 23 22  1  0
 23 17  1  0
 24 17  2  0
 25 17  1  0
 25 26  1  0
 27 28  2  0
 27 30  1  0
 28 29  1  0
 29 31  2  0
 30 31  1  0
 32 29  1  0
 32 33  1  0
 34 33  2  0
 35 34  1  0
 36 37  1  0
 36 35  2  0
 37 32  2  0
 38 35  1  0
 38 39  1  0
 39 40  2  0
 39 44  1  0
 40 41  1  0
 41 42  2  0
 42 46  1  0
 43 42  1  0
 44 43  2  0
 45 44  1  0
 47 28  1  0
 47 48  1  0
 48 50  1  0
 49 47  2  0
 51 48  1  0
 52 27  1  0
 53 52  1  0
 54 52  1  0
 55 57  1  0
 55 56  1  0
 58 59  1  0
 58 55  1  0
 59 60  1  0
 61 60  1  0
 64 75  2  0
 65 70  1  0
 65 63  1  0
 66 74  1  0
 66 76  1  0
 67 72  1  0
 67 69  1  0
 67 73  1  0
 68 74  1  0
 69 70  1  0
 69 68  1  0
 71 72  1  0
 71 65  1  0
 73 66  1  0
 74 64  1  0
 76 78  2  0
 76 77  1  0
 77 79  1  0
 77 81  1  0
 80 85  2  0
 80 89  1  0
 81 85  1  0
 83 84  1  0
 84 80  1  0
 85 86  1  0
 86 87  2  0
 88 87  1  0
 89 88  2  0
 90 64  1  0
 90 95  1  0
 90 91  1  0
 91 94  1  1
 91 92  1  0
 93 91  1  0
 95 98  1  0
 96 95  1  0
 96100  1  0
 97 96  2  0
100 99  1  0
100102  1  0
102103  1  0
102101  1  0
105104  1  0
105107  1  0
106107  1  0
M  ISO  4  17 100  25 100  62 101  63 101
M  END
>  <TORSDO>  (68) 
F 37

>  <SCORE>  (68) 
0.655

>  <name>  (68) 
67

>  <ligand_id>  (68) 
67

>  <original_smiles>  (68) 
[H]c1c([H])c([H])c2c(c1[H])C([H])([H])C([H])([H])C([H])([H])C2([H])N([H])C(=O)C1([H])N(C(=O)C([H])(N([H])C(=O)C([H])(N([H])C([H])([H])[H])C([H])([H])[H])C(C([H])([H])[H])(C([H])([H])[H])C([H])([H])[H])C([H])([H])c2c([H])c(OC([H])([H])C([H])([H])OC([H])([H])C([H])([H])[N+]([H])([H])C([H])(C(=O)N([H])C([H])([H])C([H])([H])OC([H])([H])C([H])([H])OC([H])([H])C([H])([H])OC([H])([H])C([H])([H])N([H])C(=O)N3C([H])([H])C([H])([H])C([H])([H])C([H])(n4nc(-c5c([H])c([H])c(Oc6c([H])c([H])c(F)c([H])c6F)c([H])c5[H])c(C(=O)N([H])[H])c4N([H])[H])C3([H])[H])C([H])([H])OC([H])([H])C([H])([H])[H])c([H])c([H])c2C1([H])[H]

>  <smiles>  (68) 
[H]c1c([H])c([H])c2c(c1[H])C([H])([H])C([H])([H])C([H])([H])C2([H])N([H])C(=O)C1([H])N(C(=O)C([H])(N([H])C(=O)C([H])(N([H])C([H])([H])[H])C([H])([H])[H])C(C([H])([H])[H])(C([H])([H])[H])C([H])([H])[H])C([H])([H])c2c([H])c(OC([H])([H])C([H])([H])OC([H])([H])C([H])([H])[N+]([H])([H])C([H])(C(=O)N([H])C([H])([H])C([H])([H])OC([H])([H])C([H])([H])OC([H])([H])C([H])([H])OC([H])([H])C([H])([H])N([H])C(=O)N3C([H])([H])C([H])([H])C([H])([H])C([H])(n4nc(-c5c([H])c([H])c(Oc6c([H])c([H])c(F)c([H])c6F)c([H])c5[H])c(C(=O)N([H])[H])c4N([H])[H])C3([H])[H])C([H])([H])OC([H])([H])C([H])([H])[H])c([H])c([H])c2C1([H])[H]

$$$$
69:0:0
     RDKit          3D

113120  0  0  1  0  0  0  0  0999 V2000
  -25.6050  -23.1420   21.6310 C   0  0  0  0  0  0  0  0  0  0  0  0
  -26.4620  -22.7250   20.6980 N   0  0  0  0  0  0  0  0  0  0  0  0
  -25.2200  -22.3820   22.5230 O   0  0  0  0  0  0  0  0  0  0  0  0
  -26.7840  -23.3880   20.0000 H   0  0  0  0  0  0  0  0  0  0  0  0
  -27.0470  -21.3910   20.5820 C   0  0  0  0  0  3  0  0  0  0  0  0
  -28.5830  -21.5100   20.5330 C   0  0  0  0  0  0  0  0  0  0  0  0
  -29.3170  -20.4440   20.8400 N   0  0  0  0  0  0  0  0  0  0  0  0
  -29.1220  -22.5770   20.2330 O   0  0  0  0  0  0  0  0  0  0  0  0
  -28.8840  -19.5660   21.0970 H   0  0  0  0  0  0  0  0  0  0  0  0
  -30.3250  -20.4970   20.8200 H   0  0  0  0  0  0  0  0  0  0  0  0
  -26.4090  -20.5990   19.4060 C   0  0  0  0  0  2  0  0  0  0  0  0
  -27.3430  -20.3870   18.3440 O   0  0  0  0  0  0  0  0  0  0  0  0
  -26.8550  -20.7080   17.0430 C   0  0  0  0  0  2  0  0  0  0  0  0
  -27.9960  -20.5440   16.0320 C   0  0  0  0  0  2  0  0  0  0  0  0
  -28.6740  -19.3210   16.2440 O   0  0  0  0  0  0  0  0  0  0  0  0
  -29.8290  -19.1890   15.4240 C   0  0  0  0  0  2  0  0  0  0  0  0
  -30.6610  -18.0430   15.9960 C   0  0  0  0  0  2  0  0  0  0  0  0
  -31.2470  -18.4880   17.2100 O   0  0  0  0  0  0  0  0  0  0  0  0
  -32.0030  -17.4810   17.8610 C   0  0  0  0  0  2  0  0  0  0  0  0
  -32.2900  -17.9660   19.2900 C   0  0  0  0  0  2  0  0  0  0  0  0
  -31.1230  -17.7630   20.2970 C   0  0  0  0  0  2  0  0  0  0  0  0
  -31.5140  -15.2820   20.6790 C   0  0  0  0  0  0  0  0  0  0  0  0
  -31.5950  -12.8450   20.9880 C   0  0  0  0  0  2  0  0  0  0  0  0
  -30.9770  -12.1180   19.7810 C   0  0  0  0  0  2  0  0  0  0  0  0
  -29.4590  -11.9520   19.9820 C   0  0  0  0  0  2  0  0  0  0  0  0
  -28.7550  -13.2770   20.3850 C   0  0  0  0  0  3  0  0  0  0  0  0
  -29.5140  -13.9860   21.5310 C   0  0  0  0  0  2  0  0  0  0  0  0
  -30.9230  -14.1460   21.1250 N   0  0  0  0  0  0  0  0  0  0  0  0
  -32.6800  -15.3060   20.2780 O   0  0  0  0  0  0  0  0  0  0  0  0
  -30.7530  -16.3820   20.6610 N   0  0  0  0  0  0  0  0  0  0  0  0
  -29.8070  -16.2510   20.9920 H   0  0  0  0  0  0  0  0  0  0  0  0
  -26.3360  -13.9640   20.9380 C   0  0  0  0  0  0  0  0  0  0  0  0
  -25.2030  -13.2310   21.1490 C   0  0  0  0  0  0  0  0  0  0  0  0
  -25.5920  -11.8600   21.0430 C   0  0  0  0  0  0  0  0  0  0  0  0
  -27.3530  -13.0460   20.7240 N   0  0  0  0  0  0  0  0  0  0  0  0
  -26.9010  -11.7690   20.8410 N   0  0  0  0  0  0  0  0  0  0  0  0
  -24.7850  -10.6330   21.0630 C   0  0  0  0  0  0  0  0  0  0  0  0
  -24.9440   -9.6610   22.0750 C   0  0  0  0  0  3  0  0  0  0  0  0
  -24.1430   -8.4990   22.0860 C   0  0  0  0  0  3  0  0  0  0  0  0
  -23.1690   -8.3000   21.0780 C   0  0  0  0  0  0  0  0  0  0  0  0
  -23.0300   -9.2590   20.0610 C   0  0  0  0  0  3  0  0  0  0  0  0
  -23.8310  -10.4130   20.0500 C   0  0  0  0  0  3  0  0  0  0  0  0
  -22.3670   -7.1880   20.9920 O   0  0  0  0  0  0  0  0  0  0  0  0
  -21.8380   -6.5930   22.1090 C   0  0  0  0  0  0  0  0  0  0  0  0
  -21.0060   -7.2990   23.0060 C   0  0  0  0  0  3  0  0  0  0  0  0
  -20.4260   -6.6310   24.1030 C   0  0  0  0  0  3  0  0  0  0  0  0
  -20.6700   -5.2590   24.3030 C   0  0  0  0  0  0  0  0  0  0  0  0
  -21.4950   -4.5530   23.4070 C   0  0  0  0  0  3  0  0  0  0  0  0
  -22.0730   -5.2180   22.3130 C   0  0  0  0  0  0  0  0  0  0  0  0
  -22.8500   -4.5290   21.4420 F   0  0  0  0  0  0  0  0  0  0  0  0
  -20.1090   -4.6150   25.3510 F   0  0  0  0  0  0  0  0  0  0  0  0
  -23.8130  -13.7680   21.3450 C   0  0  0  0  0  0  0  0  0  0  0  0
  -22.9830  -13.0590   22.0990 N   0  0  0  0  0  0  0  0  0  0  0  0
  -23.4730  -14.8510   20.8680 O   0  0  0  0  0  0  0  0  0  0  0  0
  -23.2660  -12.1800   22.5070 H   0  0  0  0  0  0  0  0  0  0  0  0
  -22.0460  -13.4010   22.2700 H   0  0  0  0  0  0  0  0  0  0  0  0
  -26.5890  -15.3340   20.8900 N   0  0  0  0  0  0  0  0  0  0  0  0
  -25.8420  -16.0130   20.9660 H   0  0  0  0  0  0  0  0  0  0  0  0
  -27.4890  -15.7460   20.6830 H   0  0  0  0  0  0  0  0  0  0  0  0
  -25.0520  -24.5890   21.5230 C   0  0  0  0  0  3  0  0  0  0  0  0
  -24.3250  -24.9840   22.8530 C   0  0  0  0  0  3  0  0  0  0  0  0
  -23.0660  -25.8770   22.4010 N   0  0  0  0  0  4  0  0  0  0  0  0
  -23.3150  -26.6390   21.8010 H   0  0  0  0  0  0  0  0  0  0  0  0
  -22.6020  -26.2680   23.2030 H   0  0  0  0  0  0  0  0  0  0  0  0
  -22.3680  -25.3250   21.9300 H   0  0  0  0  0  0  0  0  0  0  0  0
  -25.1690  -25.7720   23.6430 O   0  0  0  0  0  0  0  0  0  0  0  0
  -24.9490  -25.7120   24.9820 C   0  0  0  0  0  3  0  0  0  0  0  0
  -23.9630  -25.2400   25.5530 O   0  0  0  0  0  0  0  0  0  0  0  0
  -26.1580  -25.6050   21.1140 C   0  0  0  0  0  2  0  0  0  0  0  0
  -26.8620  -25.1430   19.9540 O   0  0  0  0  0  0  0  0  0  0  0  0
  -27.8840  -26.0180   19.4680 C   0  0  0  0  0  2  0  0  0  0  0  0
  -27.5910  -26.4840   18.0140 C   0  0  0  0  0  2  0  0  0  0  0  0
  -27.5840  -27.9110   17.8550 O   0  0  0  0  0  0  0  0  0  0  0  0
  -24.3670  -31.6590   22.9230 C   0  0  0  0  0  0  0  0  0  0  0  0
  -26.4240  -28.5480   18.2240 C   0  0  0  0  0  0  0  0  0  0  0  0
  -22.8860  -30.6910   21.1940 C   0  0  0  0  0  3  0  0  0  0  0  0
  -24.0500  -29.7670   19.1290 C   0  0  0  0  0  0  0  0  0  0  0  0
  -25.3040  -31.3120   20.6440 C   0  0  0  0  0  2  0  0  0  0  0  0
  -25.2890  -30.2000   19.6160 C   0  0  0  0  0  0  0  0  0  0  0  0
  -26.4810  -29.5970   19.1650 C   0  0  0  0  0  3  0  0  0  0  0  0
  -25.1700  -28.1410   17.7190 C   0  0  0  0  0  3  0  0  0  0  0  0
  -23.9830  -28.7340   18.1800 C   0  0  0  0  0  3  0  0  0  0  0  0
  -22.8210  -30.4620   19.6620 C   0  0  0  0  0  2  0  0  0  0  0  0
  -24.2150  -31.2160   21.6430 N   0  0  0  0  0  0  0  0  0  0  0  0
  -23.4150  -31.6710   23.7160 O   0  0  0  0  0  0  0  0  0  0  0  0
  -22.4720  -29.3840   21.9070 C   0  0  0  0  0  0  0  0  0  0  0  0
  -21.1630  -29.0860   21.9010 N   0  0  0  0  0  0  0  0  0  0  0  0
  -23.3190  -28.6500   22.4260 O   0  0  0  0  0  0  0  0  0  0  0  0
  -20.5280  -29.7440   21.4700 H   0  0  0  0  0  0  0  0  0  0  0  0
  -18.0290  -27.3520   22.3450 C   0  0  0  0  0  0  0  0  0  0  0  0
  -20.5510  -27.8920   22.4820 C   0  0  0  0  0  3  0  0  0  0  0  0
  -20.7520  -26.6640   21.5680 C   0  0  0  0  0  2  0  0  0  0  0  0
  -19.5920  -26.4680   20.5830 C   0  0  0  0  0  2  0  0  0  0  0  0
  -18.2890  -26.2410   21.3450 C   0  0  0  0  0  2  0  0  0  0  0  0
  -19.0890  -28.1410   22.8630 C   0  0  0  0  0  0  0  0  0  0  0  0
  -18.7890  -29.1960   23.7510 C   0  0  0  0  0  3  0  0  0  0  0  0
  -17.4590  -29.4540   24.1340 C   0  0  0  0  0  3  0  0  0  0  0  0
  -16.4150  -28.6570   23.6310 C   0  0  0  0  0  3  0  0  0  0  0  0
  -16.7010  -27.6100   22.7390 C   0  0  0  0  0  3  0  0  0  0  0  0
  -25.7390  -32.1900   23.4460 C   0  0  0  0  0  3  0  0  0  0  0  0
  -26.4120  -31.2400   24.5120 C   0  0  1  0  0  0  0  0  0  0  0  0
  -25.4760  -30.8520   25.6770 C   0  0  0  0  0  1  0  0  0  0  0  0
  -26.9060  -29.9300   23.8520 C   0  0  0  0  0  1  0  0  0  0  0  0
  -27.6570  -31.9270   25.1170 C   0  0  0  0  0  1  0  0  0  0  0  0
  -25.5080  -33.5280   24.0100 N   0  0  0  0  0  0  0  0  0  0  0  0
  -25.7540  -34.6770   23.3670 C   0  0  0  0  0  0  0  0  0  0  0  0
  -26.2750  -34.7200   22.2480 O   0  0  0  0  0  0  0  0  0  0  0  0
  -25.0320  -33.5710   24.9000 H   0  0  0  0  0  0  0  0  0  0  0  0
  -24.0280  -36.5020   23.4980 C   0  0  0  0  0  1  0  0  0  0  0  0
  -25.3570  -35.9870   24.0760 C   0  0  0  0  0  3  0  0  0  0  0  0
  -27.5980  -36.7460   24.7400 C   0  0  0  0  0  1  0  0  0  0  0  0
  -26.3870  -37.0470   23.9800 N   0  0  0  0  0  0  0  0  0  0  0  0
  -26.0180  -37.9360   24.3090 H   0  0  0  0  0  0  0  0  0  0  0  0
  1  3  2  0
  2  1  1  0
  4  2  1  0
  5 11  1  0
  5  2  1  0
  6  5  1  0
  6  7  1  0
  7  9  1  0
  8  6  2  0
 10  7  1  0
 12 11  1  0
 13 12  1  0
 14 15  1  0
 14 13  1  0
 16 17  1  0
 16 15  1  0
 17 18  1  0
 18 19  1  0
 19 20  1  0
 20 21  1  0
 21 30  1  0
 22 28  1  0
 23 28  1  0
 24 25  1  0
 24 23  1  0
 26 25  1  0
 26 35  1  0
 26 27  1  0
 28 27  1  0
 29 22  2  0
 30 22  1  0
 30 31  1  0
 32 33  2  0
 33 52  1  0
 34 37  1  0
 34 33  1  0
 35 36  1  0
 35 32  1  0
 36 34  2  0
 37 38  1  0
 38 39  2  0
 40 39  1  0
 41 40  2  0
 42 41  1  0
 42 37  2  0
 43 40  1  0
 43 44  1  0
 44 49  2  0
 44 45  1  0
 45 46  2  0
 46 47  1  0
 47 51  1  0
 48 47  2  0
 49 48  1  0
 50 49  1  0
 52 53  1  0
 53 56  1  0
 53 55  1  0
 54 52  2  0
 57 32  1  0
 57 58  1  0
 59 57  1  0
 60 69  1  0
 60  1  1  0
 60 61  1  0
 61 66  1  0
 62 61  1  0
 62 64  1  0
 63 62  1  0
 65 62  1  0
 66 67  1  0
 67 68  2  0
 70 69  1  0
 71 70  1  0
 72 71  1  0
 73 72  1  0
 73 75  1  0
 74 85  2  0
 75 80  1  0
 76 84  1  0
 76 86  1  0
 77 79  1  0
 77 83  1  0
 78 84  1  0
 79 78  1  0
 80 79  2  0
 81 82  1  0
 81 75  2  0
 82 77  2  0
 83 76  1  0
 84 74  1  0
 86 88  2  0
 87 86  1  0
 89 87  1  0
 90 99  2  0
 90 95  1  0
 91 87  1  0
 91 95  1  0
 92 91  1  0
 93 94  1  0
 93 92  1  0
 94 90  1  0
 95 96  2  0
 96 97  1  0
 98 97  2  0
 99 98  1  0
100 74  1  0
100105  1  0
100101  1  0
101104  1  1
101102  1  0
103101  1  0
105108  1  0
106105  1  0
106110  1  0
107106  2  0
110109  1  0
112110  1  0
112113  1  0
112111  1  0
M  ISO  4  22 100  30 100  72 101  73 101
M  END
>  <TORSDO>  (69) 
F 38

>  <SCORE>  (69) 
-3.129

>  <name>  (69) 
69

>  <ligand_id>  (69) 
69

>  <original_smiles>  (69) 
[H]C(=O)OC([H])(C([H])(C(=O)N([H])C([H])(C(=O)N([H])[H])C([H])([H])OC([H])([H])C([H])([H])OC([H])([H])C([H])([H])OC([H])([H])C([H])([H])C([H])([H])N([H])C(=O)N1C([H])([H])C([H])([H])C([H])([H])C([H])(n2nc(-c3c([H])c([H])c(Oc4c([H])c([H])c(F)c([H])c4F)c([H])c3[H])c(C(=O)N([H])[H])c2N([H])[H])C1([H])[H])C([H])([H])OC([H])([H])C([H])([H])Oc1c([H])c([H])c2c(c1[H])C([H])([H])N(C(=O)C([H])(N([H])C(=O)C([H])(N([H])C([H])([H])[H])C([H])([H])[H])C(C([H])([H])[H])(C([H])([H])[H])C([H])([H])[H])C([H])(C(=O)N([H])C1([H])c3c([H])c([H])c([H])c([H])c3C([H])([H])C([H])([H])C1([H])[H])C2([H])[H])[N+]([H])([H])[H]

>  <smiles>  (69) 
[H]C(=O)OC([H])(C([H])(C(=O)N([H])C([H])(C(=O)N([H])[H])C([H])([H])OC([H])([H])C([H])([H])OC([H])([H])C([H])([H])OC([H])([H])C([H])([H])C([H])([H])N([H])C(=O)N1C([H])([H])C([H])([H])C([H])([H])C([H])(n2nc(-c3c([H])c([H])c(Oc4c([H])c([H])c(F)c([H])c4F)c([H])c3[H])c(C(=O)N([H])[H])c2N([H])[H])C1([H])[H])C([H])([H])OC([H])([H])C([H])([H])Oc1c([H])c([H])c2c(c1[H])C([H])([H])N(C(=O)C([H])(N([H])C(=O)C([H])(N([H])C([H])([H])[H])C([H])([H])[H])C(C([H])([H])[H])(C([H])([H])[H])C([H])([H])[H])C([H])(C(=O)N([H])C1([H])c3c([H])c([H])c([H])c([H])c3C([H])([H])C([H])([H])C1([H])[H])C2([H])[H])[N+]([H])([H])[H]

$$$$
70:0:0
     RDKit          3D

104111  0  0  1  0  0  0  0  0999 V2000
  -21.6760  -27.4060   19.8620 N   0  0  0  0  0  4  0  0  0  0  0  0
  -21.1500  -26.6900   20.3430 H   0  0  0  0  0  0  0  0  0  0  0  0
  -22.5970  -27.3890   20.2720 H   0  0  0  0  0  0  0  0  0  0  0  0
  -21.8010  -26.9030   18.4120 C   0  0  0  0  0  2  0  0  0  0  0  0
  -22.3700  -25.3960   18.0680 C   0  0  0  0  0  3  0  0  0  0  0  0
  -23.9330  -24.9380   18.0480 C   0  0  0  0  0  3  0  0  0  0  0  0
  -24.3220  -23.4720   17.7420 N   0  0  0  0  0  4  0  0  0  0  0  0
  -24.4540  -23.3970   16.7440 H   0  0  0  0  0  0  0  0  0  0  0  0
  -23.5320  -22.8810   17.9520 H   0  0  0  0  0  0  0  0  0  0  0  0
  -25.5470  -22.8350   18.4420 C   0  0  0  0  0  2  0  0  0  0  0  0
  -26.1010  -21.3760   17.9740 C   0  0  0  0  0  2  0  0  0  0  0  0
  -26.8400  -20.4960   18.9350 O   0  0  0  0  0  0  0  0  0  0  0  0
  -27.7160  -19.3800   18.4580 C   0  0  0  0  0  2  0  0  0  0  0  0
  -28.1440  -18.1870   19.4760 C   0  0  0  0  0  3  0  0  0  0  0  0
  -29.4330  -17.2220   19.2160 C   0  0  0  0  0  3  0  0  0  0  0  0
  -30.6330  -15.0270   20.1890 C   0  0  0  0  0  0  0  0  0  0  0  0
  -30.7530  -12.5920   19.6980 C   0  0  0  0  0  2  0  0  0  0  0  0
  -29.8900  -12.3980   18.4290 C   0  0  0  0  0  2  0  0  0  0  0  0
  -28.4010  -12.2270   18.7990 C   0  0  0  0  0  2  0  0  0  0  0  0
  -27.9160  -13.2940   19.8150 C   0  0  0  0  0  3  0  0  0  0  0  0
  -28.8940  -13.4200   21.0020 C   0  0  0  0  0  2  0  0  0  0  0  0
  -30.2030  -13.7500   20.4340 N   0  0  0  0  0  0  0  0  0  0  0  0
  -31.8110  -15.2380   19.8700 O   0  0  0  0  0  0  0  0  0  0  0  0
  -29.6130  -15.9670   20.0710 N   0  0  0  0  0  0  0  0  0  0  0  0
  -28.7470  -15.6160   20.4510 H   0  0  0  0  0  0  0  0  0  0  0  0
  -25.5340  -13.9690   20.4840 C   0  0  0  0  0  0  0  0  0  0  0  0
  -24.4430  -13.2300   20.8390 C   0  0  0  0  0  0  0  0  0  0  0  0
  -24.8730  -11.8640   20.8270 C   0  0  0  0  0  0  0  0  0  0  0  0
  -26.5550  -13.0580   20.2700 N   0  0  0  0  0  0  0  0  0  0  0  0
  -26.1650  -11.7890   20.5430 N   0  0  0  0  0  0  0  0  0  0  0  0
  -24.1170  -10.6220   21.0050 C   0  0  0  0  0  0  0  0  0  0  0  0
  -24.4840   -9.6700   21.9820 C   0  0  0  0  0  3  0  0  0  0  0  0
  -23.7270   -8.4900   22.1470 C   0  0  0  0  0  3  0  0  0  0  0  0
  -22.5950   -8.2530   21.3330 C   0  0  0  0  0  0  0  0  0  0  0  0
  -22.2490   -9.1940   20.3470 C   0  0  0  0  0  3  0  0  0  0  0  0
  -23.0030  -10.3660   20.1800 C   0  0  0  0  0  3  0  0  0  0  0  0
  -21.8210   -7.1210   21.4020 O   0  0  0  0  0  0  0  0  0  0  0  0
  -21.6690   -6.4250   22.5740 C   0  0  0  0  0  0  0  0  0  0  0  0
  -21.1600   -7.0340   23.7420 C   0  0  0  0  0  3  0  0  0  0  0  0
  -20.9550   -6.2650   24.9040 C   0  0  0  0  0  3  0  0  0  0  0  0
  -21.2470   -4.8880   24.9000 C   0  0  0  0  0  0  0  0  0  0  0  0
  -21.7490   -4.2790   23.7360 C   0  0  0  0  0  3  0  0  0  0  0  0
  -21.9540   -5.0450   22.5760 C   0  0  0  0  0  0  0  0  0  0  0  0
  -22.4190   -4.4490   21.4510 F   0  0  0  0  0  0  0  0  0  0  0  0
  -21.0440   -4.1480   26.0140 F   0  0  0  0  0  0  0  0  0  0  0  0
  -23.0520  -13.7410   21.0820 C   0  0  0  0  0  0  0  0  0  0  0  0
  -22.2930  -13.0790   21.9460 N   0  0  0  0  0  0  0  0  0  0  0  0
  -22.6470  -14.7680   20.5350 O   0  0  0  0  0  0  0  0  0  0  0  0
  -22.6300  -12.2480   22.4110 H   0  0  0  0  0  0  0  0  0  0  0  0
  -21.3600  -13.4110   22.1500 H   0  0  0  0  0  0  0  0  0  0  0  0
  -25.7420  -15.3340   20.3030 N   0  0  0  0  0  0  0  0  0  0  0  0
  -24.9940  -16.0120   20.3910 H   0  0  0  0  0  0  0  0  0  0  0  0
  -26.6000  -15.7360   19.9530 H   0  0  0  0  0  0  0  0  0  0  0  0
  -20.9790  -28.7430   20.2600 C   0  0  0  0  0  2  0  0  0  0  0  0
  -20.6650  -29.2160   21.8240 C   0  0  0  0  0  2  0  0  0  0  0  0
  -21.6360  -29.7330   23.0850 C   0  0  0  0  0  2  0  0  0  0  0  0
  -22.2830  -29.0110   24.4690 C   0  0  0  0  0  2  0  0  0  0  0  0
  -23.4510  -28.0370   24.5760 O   0  0  0  0  0  0  0  0  0  0  0  0
  -23.8650  -26.6740   25.0810 C   0  0  0  0  0  2  0  0  0  0  0  0
  -25.2350  -25.7870   24.5570 C   0  0  0  0  0  2  0  0  0  0  0  0
  -26.5760  -26.2690   23.9570 O   0  0  0  0  0  0  0  0  0  0  0  0
  -27.6440  -25.3670   23.2890 C   0  0  0  0  0  2  0  0  0  0  0  0
  -29.2070  -25.7260   22.7400 C   0  0  0  0  0  2  0  0  0  0  0  0
  -29.9700  -25.5520   21.3860 O   0  0  0  0  0  0  0  0  0  0  0  0
  -25.8840  -29.8920   23.0100 C   0  0  0  0  0  0  0  0  0  0  0  0
  -29.4330  -26.2650   20.3750 C   0  0  0  0  0  0  0  0  0  0  0  0
  -25.1480  -28.2820   21.1310 C   0  0  0  0  0  3  0  0  0  0  0  0
  -27.0360  -27.3970   19.7420 C   0  0  0  0  0  0  0  0  0  0  0  0
  -27.4870  -29.2900   21.2960 C   0  0  0  0  0  2  0  0  0  0  0  0
  -27.9480  -28.0890   20.5290 C   0  0  0  0  0  0  0  0  0  0  0  0
  -29.2310  -27.6000   20.7070 C   0  0  0  0  0  3  0  0  0  0  0  0
  -28.6180  -25.5920   19.4470 C   0  0  0  0  0  3  0  0  0  0  0  0
  -27.3860  -26.1810   19.1240 C   0  0  0  0  0  3  0  0  0  0  0  0
  -25.6910  -28.0390   19.6980 C   0  0  0  0  0  2  0  0  0  0  0  0
  -26.1800  -29.0670   21.9480 N   0  0  0  0  0  0  0  0  0  0  0  0
  -24.7420  -30.2070   23.3080 O   0  0  0  0  0  0  0  0  0  0  0  0
  -24.6600  -26.8470   21.6050 C   0  0  0  0  0  0  0  0  0  0  0  0
  -23.3580  -26.4700   21.6490 N   0  0  0  0  0  0  0  0  0  0  0  0
  -25.4450  -25.9930   21.8920 O   0  0  0  0  0  0  0  0  0  0  0  0
  -22.7390  -27.2490   21.4500 H   0  0  0  0  0  0  0  0  0  0  0  0
  -20.1690  -24.7000   21.5530 C   0  0  0  0  0  0  0  0  0  0  0  0
  -22.5960  -25.3610   22.2670 C   0  0  0  0  0  3  0  0  0  0  0  0
  -23.0230  -24.0220   21.6560 C   0  0  0  0  0  2  0  0  0  0  0  0
  -22.1210  -23.5020   20.5230 C   0  0  0  0  0  2  0  0  0  0  0  0
  -20.6780  -23.4090   20.9640 C   0  0  0  0  0  2  0  0  0  0  0  0
  -21.0430  -25.5710   22.2500 C   0  0  0  0  0  0  0  0  0  0  0  0
  -20.4160  -26.6140   22.9630 C   0  0  0  0  0  3  0  0  0  0  0  0
  -19.0590  -26.9560   22.8020 C   0  0  0  0  0  3  0  0  0  0  0  0
  -18.2340  -26.1240   22.0360 C   0  0  0  0  0  3  0  0  0  0  0  0
  -18.7860  -24.9740   21.4530 C   0  0  0  0  0  3  0  0  0  0  0  0
  -26.9440  -30.6530   23.8810 C   0  0  0  0  0  3  0  0  0  0  0  0
  -26.3290  -31.9340   24.2650 N   0  0  0  0  0  0  0  0  0  0  0  0
  -26.5000  -33.0750   23.6000 C   0  0  0  0  0  0  0  0  0  0  0  0
  -27.2910  -33.1830   22.6610 O   0  0  0  0  0  0  0  0  0  0  0  0
  -25.5990  -31.9020   24.9620 H   0  0  0  0  0  0  0  0  0  0  0  0
  -24.5210  -34.5340   23.0840 C   0  0  0  0  0  1  0  0  0  0  0  0
  -25.6770  -34.2880   24.0640 C   0  0  0  0  0  3  0  0  0  0  0  0
  -27.4590  -35.4370   25.2950 C   0  0  0  0  0  1  0  0  0  0  0  0
  -26.4880  -35.5150   24.2060 N   0  0  0  0  0  0  0  0  0  0  0  0
  -25.8910  -36.3190   24.3780 H   0  0  0  0  0  0  0  0  0  0  0  0
  -27.4080  -29.9030   25.1850 C   0  0  1  0  0  0  0  0  0  0  0  0
  -26.2560  -29.3760   26.0580 C   0  0  0  0  0  1  0  0  0  0  0  0
  -28.3780  -28.7680   24.8150 C   0  0  0  0  0  1  0  0  0  0  0  0
  -28.2180  -30.8520   26.0920 C   0  0  0  0  0  1  0  0  0  0  0  0
  1 54  1  0
  1  3  1  0
  1  2  1  0
  4  1  1  0
  5  4  1  0
  6  5  2  0
  7  9  1  0
  7  6  1  0
  7 10  1  0
  8  7  1  0
 11 10  1  0
 11 12  1  0
 13 12  1  0
 13 14  1  0
 15 14  2  0
 15 24  1  0
 16 22  1  0
 17 22  1  0
 18 19  1  0
 18 17  1  0
 20 19  1  0
 20 29  1  0
 20 21  1  0
 22 21  1  0
 23 16  2  0
 24 16  1  0
 24 25  1  0
 26 27  2  0
 27 46  1  0
 28 27  1  0
 28 31  1  0
 29 26  1  0
 29 30  1  0
 30 28  2  0
 31 32  1  0
 32 33  2  0
 34 37  1  0
 34 33  1  0
 35 34  2  0
 36 35  1  0
 36 31  2  0
 37 38  1  0
 38 43  2  0
 38 39  1  0
 39 40  2  0
 41 40  1  0
 41 45  1  0
 42 41  2  0
 43 42  1  0
 44 43  1  0
 46 47  1  0
 47 50  1  0
 47 49  1  0
 48 46  2  0
 51 52  1  0
 51 26  1  0
 53 51  1  0
 54 55  1  0
 55 56  1  0
 56 57  1  0
 57 58  1  0
 58 59  1  0
 60 59  1  0
 61 60  1  0
 62 61  1  0
 63 62  1  0
 64 63  1  0
 65 76  2  0
 66 71  1  0
 66 64  1  0
 67 77  1  0
 67 75  1  0
 68 70  1  0
 69 75  1  0
 70 71  2  0
 70 69  1  0
 72 66  2  0
 73 72  1  0
 73 68  2  0
 74 68  1  0
 74 67  1  0
 75 65  1  0
 77 78  1  0
 77 79  2  0
 80 78  1  0
 81 86  1  0
 82 78  1  0
 83 82  1  0
 84 85  1  0
 84 83  1  0
 85 81  1  0
 86 82  1  0
 86 87  2  0
 88 87  1  0
 89 88  2  0
 90 81  2  0
 90 89  1  0
 91 65  1  0
 91 92  1  0
 91101  1  0
 92 95  1  0
 93 97  1  0
 93 92  1  0
 94 93  2  0
 97 96  1  0
 97 99  1  0
 99100  1  0
 99 98  1  0
101102  1  1
101104  1  0
103101  1  0
M  ISO  4  16 100  24 100  63 101  64 101
M  END
>  <TORSDO>  (70) 
F 36

>  <SCORE>  (70) 
-6.719

>  <name>  (70) 
70

>  <ligand_id>  (70) 
70

>  <original_smiles>  (70) 
[H]c1c([H])c([H])c2c(c1[H])C([H])([H])C([H])([H])C([H])([H])C2([H])N([H])C(=O)C1([H])N(C(=O)C([H])(N([H])C(=O)C([H])(N([H])C([H])([H])[H])C([H])([H])[H])C(C([H])([H])[H])(C([H])([H])[H])C([H])([H])[H])C([H])([H])c2c([H])c(OC([H])([H])C([H])([H])OC([H])([H])C([H])([H])OC([H])([H])C([H])([H])C([H])([H])C([H])([H])[N+]([H])([H])C([H])([H])C([H])([H])C([H])([H])[N+]([H])([H])C([H])([H])C([H])([H])OC([H])([H])C([H])([H])C([H])([H])N([H])C(=O)N3C([H])([H])C([H])([H])C([H])([H])C([H])(n4nc(-c5c([H])c([H])c(Oc6c([H])c([H])c(F)c([H])c6F)c([H])c5[H])c(C(=O)N([H])[H])c4N([H])[H])C3([H])[H])c([H])c([H])c2C1([H])[H]

>  <smiles>  (70) 
[H]c1c([H])c([H])c2c(c1[H])C([H])([H])C([H])([H])C([H])([H])C2([H])N([H])C(=O)C1([H])N(C(=O)C([H])(N([H])C(=O)C([H])(N([H])C([H])([H])[H])C([H])([H])[H])C(C([H])([H])[H])(C([H])([H])[H])C([H])([H])[H])C([H])([H])c2c([H])c(OC([H])([H])C([H])([H])OC([H])([H])C([H])([H])OC([H])([H])C([H])([H])C([H])([H])C([H])([H])[N+]([H])([H])C([H])([H])C([H])([H])C([H])([H])[N+]([H])([H])C([H])([H])C([H])([H])OC([H])([H])C([H])([H])C([H])([H])N([H])C(=O)N3C([H])([H])C([H])([H])C([H])([H])C([H])(n4nc(-c5c([H])c([H])c(Oc6c([H])c([H])c(F)c([H])c6F)c([H])c5[H])c(C(=O)N([H])[H])c4N([H])[H])C3([H])[H])c([H])c([H])c2C1([H])[H]

$$$$
71:0:0
     RDKit          3D

104111  0  0  1  0  0  0  0  0999 V2000
  -20.7520  -28.8700   19.8680 C   0  0  0  0  0  0  0  0  0  0  0  0
  -20.9300  -29.9420   20.7710 N   0  0  0  0  0  0  0  0  0  0  0  0
  -19.5950  -28.5890   19.5700 O   0  0  0  0  0  0  0  0  0  0  0  0
  -21.7840  -30.4460   20.5740 H   0  0  0  0  0  0  0  0  0  0  0  0
  -21.9500  -28.6290   17.6610 C   0  0  0  0  0  1  0  0  0  0  0  0
  -22.0180  -28.0910   19.1170 C   0  0  0  0  0  3  0  0  0  0  0  0
  -23.9900  -26.0120   19.5090 C   0  0  0  0  0  3  0  0  0  0  0  0
  -22.7180  -26.5940   19.1490 C   0  0  0  0  0  0  0  0  0  0  0  0
  -21.7310  -25.5300   18.5240 C   0  0  0  0  0  0  0  0  0  0  0  0
  -21.1750  -25.7950   17.4400 O   0  0  0  0  0  0  0  0  0  0  0  0
  -21.6600  -24.4150   19.0850 O   0  0  0  0  0  1  0  0  0  0  0  0
  -25.4900  -26.2490   20.1840 C   0  0  0  0  0  2  0  0  0  0  0  0
  -26.9750  -26.4990   19.6790 O   0  0  0  0  0  0  0  0  0  0  0  0
  -24.6180  -31.5240   23.0840 C   0  0  0  0  0  0  0  0  0  0  0  0
  -27.1460  -27.7490   19.2050 C   0  0  0  0  0  3  0  0  0  0  0  0
  -23.4970  -30.2180   21.2560 C   0  0  0  0  0  3  0  0  0  0  0  0
  -25.0110  -29.4570   19.3790 C   0  0  0  0  0  0  0  0  0  0  0  0
  -25.9890  -30.7830   21.2050 C   0  0  0  0  0  2  0  0  0  0  0  0
  -26.1030  -29.6630   20.2120 C   0  0  0  0  0  0  0  0  0  0  0  0
  -27.2130  -28.8020   20.1430 C   0  0  0  0  0  2  0  0  0  0  0  0
  -26.2830  -27.8170   18.1240 C   0  0  0  0  0  2  0  0  0  0  0  0
  -25.1210  -28.5660   18.2990 C   0  0  0  0  0  2  0  0  0  0  0  0
  -23.8040  -30.2860   19.7290 C   0  0  0  0  0  2  0  0  0  0  0  0
  -24.6960  -30.8210   21.9250 N   0  0  0  0  0  0  0  0  0  0  0  0
  -23.5670  -31.7510   23.6660 O   0  0  0  0  0  0  0  0  0  0  0  0
  -23.1400  -28.7590   21.8340 C   0  0  0  0  0  0  0  0  0  0  0  0
  -21.8480  -28.2410   21.8850 N   0  0  0  0  0  0  0  0  0  0  0  0
  -24.0570  -28.2030   22.3700 O   0  0  0  0  0  0  0  0  0  0  0  0
  -21.2970  -28.8860   21.3260 H   0  0  0  0  0  0  0  0  0  0  0  0
  -18.2220  -27.1600   22.0840 C   0  0  0  0  0  0  0  0  0  0  0  0
  -20.8260  -27.3050   22.5110 C   0  0  0  0  0  3  0  0  0  0  0  0
  -20.9260  -25.9770   21.7990 C   0  0  0  0  0  2  0  0  0  0  0  0
  -19.8380  -25.6710   20.7840 C   0  0  0  0  0  2  0  0  0  0  0  0
  -18.4260  -25.8960   21.2920 C   0  0  0  0  0  2  0  0  0  0  0  0
  -19.3100  -27.7810   22.7460 C   0  0  0  0  0  0  0  0  0  0  0  0
  -18.8980  -28.7470   23.7100 C   0  0  0  0  0  3  0  0  0  0  0  0
  -17.6040  -29.3180   23.7620 C   0  0  0  0  0  3  0  0  0  0  0  0
  -16.5790  -28.7340   23.0150 C   0  0  0  0  0  3  0  0  0  0  0  0
  -16.8870  -27.6100   22.2340 C   0  0  0  0  0  3  0  0  0  0  0  0
  -25.8680  -32.1350   23.7560 C   0  0  0  0  0  3  0  0  0  0  0  0
  -25.4570  -33.4300   24.3220 N   0  0  0  0  0  0  0  0  0  0  0  0
  -25.6130  -34.6090   23.7110 C   0  0  0  0  0  0  0  0  0  0  0  0
  -26.2150  -34.7290   22.6410 O   0  0  0  0  0  0  0  0  0  0  0  0
  -24.8990  -33.3960   25.1630 H   0  0  0  0  0  0  0  0  0  0  0  0
  -23.7180  -36.2690   23.7120 C   0  0  0  0  0  1  0  0  0  0  0  0
  -25.0260  -35.8530   24.4030 C   0  0  0  0  0  3  0  0  0  0  0  0
  -27.1230  -36.7690   25.2910 C   0  0  0  0  0  1  0  0  0  0  0  0
  -25.9610  -36.9980   24.4350 N   0  0  0  0  0  0  0  0  0  0  0  0
  -25.4910  -37.8380   24.7590 H   0  0  0  0  0  0  0  0  0  0  0  0
  -26.4470  -31.1960   24.8800 C   0  0  1  0  0  0  0  0  0  0  0  0
  -25.3970  -30.7250   25.9120 C   0  0  0  0  0  1  0  0  0  0  0  0
  -27.0980  -29.9280   24.2820 C   0  0  0  0  0  1  0  0  0  0  0  0
  -27.5620  -31.9500   25.6320 C   0  0  0  0  0  1  0  0  0  0  0  0
  -20.3940  -30.3020   22.2170 C   0  0  0  0  0  2  0  0  0  0  0  0
  -21.2210  -30.2430   23.7690 C   0  0  0  0  0  2  0  0  0  0  0  0
  -22.5130  -29.5300   24.4670 O   0  0  0  0  0  0  0  0  0  0  0  0
  -23.2870  -28.1370   24.6800 C   0  0  0  0  0  2  0  0  0  0  0  0
  -24.9220  -27.4980   24.3920 C   0  0  0  0  0  2  0  0  0  0  0  0
  -25.7540  -26.9880   23.1330 O   0  0  0  0  0  0  0  0  0  0  0  0
  -27.3320  -26.8420   22.9860 C   0  0  0  0  0  3  0  0  0  0  0  0
  -28.2970  -26.1900   21.6860 C   0  0  0  0  0  3  0  0  0  0  0  0
  -30.0120  -26.2700   21.3800 C   0  0  0  0  0  2  0  0  0  0  0  0
  -30.8970  -25.5770   20.2500 O   0  0  0  0  0  0  0  0  0  0  0  0
  -32.4390  -25.7770   19.9090 C   0  0  0  0  0  3  0  0  0  0  0  0
  -33.4570  -24.9830   18.7320 C   0  0  0  0  0  3  0  0  0  0  0  0
  -35.1310  -25.2450   18.3170 C   0  0  0  0  0  2  0  0  0  0  0  0
  -37.3710  -24.4990   16.6530 C   0  0  0  0  0  0  0  0  0  0  0  0
  -38.7180  -23.8080   14.5550 C   0  0  0  0  0  2  0  0  0  0  0  0
  -38.0020  -24.2460   13.2480 C   0  0  0  0  0  2  0  0  0  0  0  0
  -36.8710  -23.2660   12.8750 C   0  0  0  0  0  2  0  0  0  0  0  0
  -36.0110  -22.8940   14.1080 C   0  0  0  0  0  3  0  0  0  0  0  0
  -36.8850  -22.4460   15.2880 C   0  0  0  0  0  2  0  0  0  0  0  0
  -37.6960  -23.6020   15.6360 N   0  0  0  0  0  0  0  0  0  0  0  0
  -38.2390  -25.3550   16.9040 O   0  0  0  0  0  0  0  0  0  0  0  0
  -36.0400  -24.4430   17.2420 N   0  0  0  0  0  0  0  0  0  0  0  0
  -35.5340  -23.6590   16.8540 H   0  0  0  0  0  0  0  0  0  0  0  0
  -33.6640  -21.9020   14.1480 C   0  0  0  0  0  0  0  0  0  0  0  0
  -33.1460  -20.7570   13.6110 C   0  0  0  0  0  0  0  0  0  0  0  0
  -34.2370  -20.0890   12.9740 C   0  0  0  0  0  0  0  0  0  0  0  0
  -35.0060  -21.8920   13.8170 N   0  0  0  0  0  0  0  0  0  0  0  0
  -35.3640  -20.7620   13.1620 N   0  0  0  0  0  0  0  0  0  0  0  0
  -34.2640  -18.8830   12.1410 C   0  0  0  0  0  0  0  0  0  0  0  0
  -35.1750  -17.8330   12.3890 C   0  0  0  0  0  3  0  0  0  0  0  0
  -35.1670  -16.6760   11.5830 C   0  0  0  0  0  3  0  0  0  0  0  0
  -34.2390  -16.5590   10.5200 C   0  0  0  0  0  0  0  0  0  0  0  0
  -33.3500  -17.6180   10.2640 C   0  0  0  0  0  3  0  0  0  0  0  0
  -33.3630  -18.7720   11.0640 C   0  0  0  0  0  3  0  0  0  0  0  0
  -34.1740  -15.4840    9.6690 O   0  0  0  0  0  0  0  0  0  0  0  0
  -34.6210  -14.2430   10.0430 C   0  0  0  0  0  0  0  0  0  0  0  0
  -34.1360  -13.5920   11.1990 C   0  0  0  0  0  3  0  0  0  0  0  0
  -34.5720  -12.2870   11.5070 C   0  0  0  0  0  3  0  0  0  0  0  0
  -35.4830  -11.6300   10.6590 C   0  0  0  0  0  0  0  0  0  0  0  0
  -35.9620  -12.2750    9.5060 C   0  0  0  0  0  3  0  0  0  0  0  0
  -35.5290  -13.5760    9.1970 C   0  0  0  0  0  0  0  0  0  0  0  0
  -35.9800  -14.1840    8.0730 F   0  0  0  0  0  0  0  0  0  0  0  0
  -35.8940  -10.3740   10.9510 F   0  0  0  0  0  0  0  0  0  0  0  0
  -31.7000  -20.3550   13.6030 C   0  0  0  0  0  0  0  0  0  0  0  0
  -31.4270  -19.0560   13.6030 N   0  0  0  0  0  0  0  0  0  0  0  0
  -30.8050  -21.1980   13.6430 O   0  0  0  0  0  0  0  0  0  0  0  0
  -32.1630  -18.3660   13.5890 H   0  0  0  0  0  0  0  0  0  0  0  0
  -30.4650  -18.7460   13.6180 H   0  0  0  0  0  0  0  0  0  0  0  0
  -33.1080  -22.9580   14.8660 N   0  0  0  0  0  0  0  0  0  0  0  0
  -32.1120  -23.0090   15.0530 H   0  0  0  0  0  0  0  0  0  0  0  0
  -33.5990  -23.8070   15.1140 H   0  0  0  0  0  0  0  0  0  0  0  0
  1  2  1  0
  2 54  1  0
  3  1  2  0
  4  2  1  0
  6  5  1  0
  6  8  1  0
  6  1  1  0
  7 12  1  0
  8  7  2  0
  9 11  1  0
  9  8  1  0
 10  9  2  0
 13 12  1  0
 14 25  2  0
 15 13  1  0
 15 20  1  0
 16 26  1  0
 16 24  1  0
 17 23  1  0
 17 19  2  0
 18 24  1  0
 19 18  1  0
 20 19  1  0
 21 22  1  0
 21 15  1  0
 22 17  1  0
 23 16  1  0
 24 14  1  0
 26 27  1  0
 26 28  2  0
 29 27  1  0
 30 39  2  0
 30 35  1  0
 31 27  1  0
 31 35  1  0
 32 31  1  0
 33 34  1  0
 33 32  1  0
 34 30  1  0
 35 36  2  0
 36 37  1  0
 38 37  2  0
 39 38  1  0
 40 14  1  0
 40 41  1  0
 40 50  1  0
 41 44  1  0
 42 41  1  0
 42 46  1  0
 43 42  2  0
 46 45  1  0
 46 48  1  0
 48 49  1  0
 48 47  1  0
 50 53  1  1
 50 51  1  0
 52 50  1  0
 54 55  1  0
 55 56  1  0
 56 57  1  0
 58 57  1  0
 59 58  1  0
 60 59  1  0
 61 60  2  0
 62 61  1  0
 63 62  1  0
 64 63  1  0
 65 64  2  0
 66 65  1  0
 67 74  2  0
 67 75  1  0
 68 73  1  0
 69 68  1  0
 70 69  1  0
 71 70  1  0
 71 72  1  0
 72 73  1  0
 73 67  1  0
 75 66  1  0
 76 75  1  0
 77102  1  0
 78 77  2  0
 79 81  2  0
 79 78  1  0
 80 71  1  0
 80 77  1  0
 81 80  1  0
 82 83  1  0
 82 79  1  0
 84 83  2  0
 85 84  1  0
 86 85  2  0
 86 87  1  0
 87 82  2  0
 88 89  1  0
 88 85  1  0
 89 90  1  0
 90 91  2  0
 92 96  1  0
 92 91  1  0
 93 92  2  0
 94 93  1  0
 94 89  2  0
 95 94  1  0
 97 98  1  0
 97 78  1  0
 97 99  2  0
 98101  1  0
100 98  1  0
102103  1  0
102104  1  0
M  ISO  4  12 101  13 101  67 100  75 100
M  END
>  <TORSDO>  (71) 
F 33

>  <SCORE>  (71) 
0.839

>  <name>  (71) 
71

>  <ligand_id>  (71) 
71

>  <original_smiles>  (71) 
[H]C(=C(C(=O)[O-])C([H])(C(=O)N([H])C([H])([H])C([H])([H])OC([H])([H])C([H])([H])OC([H])([H])C([H])([H])C([H])([H])OC([H])([H])C([H])([H])C([H])([H])N([H])C(=O)N1C([H])([H])C([H])([H])C([H])([H])C([H])(n2nc(-c3c([H])c([H])c(Oc4c([H])c([H])c(F)c([H])c4F)c([H])c3[H])c(C(=O)N([H])[H])c2N([H])[H])C1([H])[H])C([H])([H])[H])C([H])([H])Oc1c([H])c([H])c2c(c1[H])C([H])([H])N(C(=O)C([H])(N([H])C(=O)C([H])(N([H])C([H])([H])[H])C([H])([H])[H])C(C([H])([H])[H])(C([H])([H])[H])C([H])([H])[H])C([H])(C(=O)N([H])C1([H])c3c([H])c([H])c([H])c([H])c3C([H])([H])C([H])([H])C1([H])[H])C2([H])[H]

>  <smiles>  (71) 
[H]C(=C(C(=O)[O-])C([H])(C(=O)N([H])C([H])([H])C([H])([H])OC([H])([H])C([H])([H])OC([H])([H])C([H])([H])C([H])([H])OC([H])([H])C([H])([H])C([H])([H])N([H])C(=O)N1C([H])([H])C([H])([H])C([H])([H])C([H])(n2nc(-c3c([H])c([H])c(Oc4c([H])c([H])c(F)c([H])c4F)c([H])c3[H])c(C(=O)N([H])[H])c2N([H])[H])C1([H])[H])C([H])([H])[H])C([H])([H])Oc1c([H])c([H])c2c(c1[H])C([H])([H])N(C(=O)C([H])(N([H])C(=O)C([H])(N([H])C([H])([H])[H])C([H])([H])[H])C(C([H])([H])[H])(C([H])([H])[H])C([H])([H])[H])C([H])(C(=O)N([H])C1([H])c3c([H])c([H])c([H])c([H])c3C([H])([H])C([H])([H])C1([H])[H])C2([H])[H]

$$$$
72:0:0
     RDKit          3D

 99106  0  0  1  0  0  0  0  0999 V2000
  -29.4900  -18.1960   16.9830 O   0  0  0  0  0  0  0  0  0  0  0  0
  -28.8210  -18.5110   18.1630 C   0  0  0  0  0  2  0  0  0  0  0  0
  -30.7560  -18.1390   19.6300 C   0  0  0  0  0  0  0  0  0  0  0  0
  -29.4880  -17.8710   19.2680 N   0  0  0  0  0  0  0  0  0  0  0  0
  -31.4780  -18.9140   19.0020 O   0  0  0  0  0  0  0  0  0  0  0  0
  -28.9930  -17.1460   19.7640 H   0  0  0  0  0  0  0  0  0  0  0  0
  -31.3080  -17.4400   20.8980 C   0  0  0  0  0  3  0  0  0  0  0  0
  -31.5800  -15.0100   20.3460 C   0  0  0  0  0  0  0  0  0  0  0  0
  -31.3740  -12.6490   19.6580 C   0  0  0  0  0  2  0  0  0  0  0  0
  -30.5020  -12.5220   18.3940 C   0  0  0  0  0  2  0  0  0  0  0  0
  -29.0080  -12.4530   18.7600 C   0  0  0  0  0  2  0  0  0  0  0  0
  -28.5810  -13.5710   19.7470 C   0  0  0  0  0  3  0  0  0  0  0  0
  -29.5540  -13.6340   20.9430 C   0  0  0  0  0  2  0  0  0  0  0  0
  -30.9200  -13.8240   20.4150 N   0  0  0  0  0  0  0  0  0  0  0  0
  -32.6580  -15.1670   19.7700 O   0  0  0  0  0  0  0  0  0  0  0  0
  -30.9410  -16.0270   20.9290 N   0  0  0  0  0  0  0  0  0  0  0  0
  -30.0780  -15.8350   21.4150 H   0  0  0  0  0  0  0  0  0  0  0  0
  -26.2130  -14.3470   20.3980 C   0  0  0  0  0  0  0  0  0  0  0  0
  -25.0840  -13.6500   20.7320 C   0  0  0  0  0  0  0  0  0  0  0  0
  -25.4440  -12.2680   20.6820 C   0  0  0  0  0  0  0  0  0  0  0  0
  -27.1980  -13.3940   20.1820 N   0  0  0  0  0  0  0  0  0  0  0  0
  -26.7340  -12.1390   20.4020 N   0  0  0  0  0  0  0  0  0  0  0  0
  -24.6230  -11.0620   20.8230 C   0  0  0  0  0  0  0  0  0  0  0  0
  -24.9500  -10.0540   21.7570 C   0  0  0  0  0  3  0  0  0  0  0  0
  -24.1360   -8.9090   21.8890 C   0  0  0  0  0  3  0  0  0  0  0  0
  -22.9800   -8.7640   21.0860 C   0  0  0  0  0  0  0  0  0  0  0  0
  -22.6700   -9.7600   20.1430 C   0  0  0  0  0  3  0  0  0  0  0  0
  -23.4830  -10.8970   20.0110 C   0  0  0  0  0  3  0  0  0  0  0  0
  -22.1430   -7.6760   21.1270 O   0  0  0  0  0  0  0  0  0  0  0  0
  -21.9350   -6.9700   22.2860 C   0  0  0  0  0  0  0  0  0  0  0  0
  -21.4000   -7.5800   23.4410 C   0  0  0  0  0  3  0  0  0  0  0  0
  -21.1390   -6.8050   24.5890 C   0  0  0  0  0  3  0  0  0  0  0  0
  -21.4010   -5.4200   24.5790 C   0  0  0  0  0  0  0  0  0  0  0  0
  -21.9320   -4.8130   23.4280 C   0  0  0  0  0  3  0  0  0  0  0  0
  -22.1940   -5.5850   22.2840 C   0  0  0  0  0  0  0  0  0  0  0  0
  -22.6830   -4.9910   21.1690 F   0  0  0  0  0  0  0  0  0  0  0  0
  -21.1430   -4.6750   25.6780 F   0  0  0  0  0  0  0  0  0  0  0  0
  -23.7210  -14.2240   20.9850 C   0  0  0  0  0  0  0  0  0  0  0  0
  -22.9440  -13.5870   21.8550 N   0  0  0  0  0  0  0  0  0  0  0  0
  -23.3570  -15.2700   20.4520 O   0  0  0  0  0  0  0  0  0  0  0  0
  -23.2540  -12.7420   22.3110 H   0  0  0  0  0  0  0  0  0  0  0  0
  -22.0270  -13.9510   22.0720 H   0  0  0  0  0  0  0  0  0  0  0  0
  -26.4730  -15.7050   20.2280 N   0  0  0  0  0  0  0  0  0  0  0  0
  -25.7060  -16.3660   20.1980 H   0  0  0  0  0  0  0  0  0  0  0  0
  -27.3080  -16.0440   19.7690 H   0  0  0  0  0  0  0  0  0  0  0  0
  -31.2800  -17.2420   23.4470 C   0  0  0  0  0  1  0  0  0  0  0  0
  -31.1390  -19.5380   22.4450 C   0  0  0  0  0  1  0  0  0  0  0  0
  -30.7680  -18.0530   22.2380 C   0  0  1  0  0  0  0  0  0  0  0  0
  -29.3470  -17.9650   22.2920 O   0  0  0  0  0  0  0  0  0  0  0  0
  -28.9790  -18.5800   21.6680 H   0  0  0  0  0  0  0  0  0  0  0  0
  -29.3270  -19.1800   15.9600 C   0  0  0  0  0  2  0  0  0  0  0  0
  -30.3980  -20.2780   16.0860 C   0  0  0  0  0  2  0  0  0  0  0  0
  -30.0870  -21.1320   17.1800 O   0  0  0  0  0  0  0  0  0  0  0  0
  -31.0780  -22.1270   17.3860 C   0  0  0  0  0  2  0  0  0  0  0  0
  -30.7170  -22.9550   18.6190 C   0  0  0  0  0  2  0  0  0  0  0  0
  -29.7610  -23.9430   18.2650 O   0  0  0  0  0  0  0  0  0  0  0  0
  -29.5210  -24.8560   19.3250 C   0  0  0  0  0  2  0  0  0  0  0  0
  -28.2330  -25.6160   19.0270 C   0  0  0  0  0  2  0  0  0  0  0  0
  -28.1510  -26.7490   19.8900 O   0  0  0  0  0  0  0  0  0  0  0  0
  -24.4800  -31.7960   23.2780 C   0  0  0  0  0  0  0  0  0  0  0  0
  -26.9780  -27.4670   19.9260 C   0  0  0  0  0  0  0  0  0  0  0  0
  -23.2290  -30.5240   21.5670 C   0  0  0  0  0  3  0  0  0  0  0  0
  -24.6280  -29.0300   20.0560 C   0  0  0  0  0  0  0  0  0  0  0  0
  -25.7680  -30.8140   21.3860 C   0  0  0  0  0  2  0  0  0  0  0  0
  -25.8020  -29.4810   20.6680 C   0  0  0  0  0  0  0  0  0  0  0  0
  -26.9790  -28.7030   20.6070 C   0  0  0  0  0  3  0  0  0  0  0  0
  -25.7780  -27.0240   19.3190 C   0  0  0  0  0  3  0  0  0  0  0  0
  -24.6060  -27.7960   19.3900 C   0  0  0  0  0  3  0  0  0  0  0  0
  -23.4180  -29.9250   20.1490 C   0  0  0  0  0  2  0  0  0  0  0  0
  -24.5100  -31.0560   22.1340 N   0  0  0  0  0  0  0  0  0  0  0  0
  -23.4100  -32.0690   23.8350 O   0  0  0  0  0  0  0  0  0  0  0  0
  -22.5480  -29.4690   22.4670 C   0  0  0  0  0  0  0  0  0  0  0  0
  -21.2150  -29.3500   22.3510 N   0  0  0  0  0  0  0  0  0  0  0  0
  -23.2170  -28.7610   23.2280 O   0  0  0  0  0  0  0  0  0  0  0  0
  -20.7400  -29.9750   21.7140 H   0  0  0  0  0  0  0  0  0  0  0  0
  -17.7960  -28.2920   22.8430 C   0  0  0  0  0  0  0  0  0  0  0  0
  -20.3690  -28.4040   23.0760 C   0  0  0  0  0  3  0  0  0  0  0  0
  -20.3880  -27.0120   22.4030 C   0  0  0  0  0  2  0  0  0  0  0  0
  -19.2530  -26.8120   21.3940 C   0  0  0  0  0  2  0  0  0  0  0  0
  -17.8920  -26.9820   22.0770 C   0  0  0  0  0  2  0  0  0  0  0  0
  -18.9590  -28.9660   23.2990 C   0  0  0  0  0  0  0  0  0  0  0  0
  -18.8150  -30.1950   23.9760 C   0  0  0  0  0  3  0  0  0  0  0  0
  -17.5410  -30.7500   24.2020 C   0  0  0  0  0  3  0  0  0  0  0  0
  -16.3920  -30.0680   23.7640 C   0  0  0  0  0  3  0  0  0  0  0  0
  -16.5210  -28.8420   23.0890 C   0  0  0  0  0  3  0  0  0  0  0  0
  -25.7850  -32.3520   23.9240 C   0  0  0  0  0  3  0  0  0  0  0  0
  -25.5560  -33.7680   24.2330 N   0  0  0  0  0  0  0  0  0  0  0  0
  -25.9580  -34.7880   23.4610 C   0  0  0  0  0  0  0  0  0  0  0  0
  -26.6330  -34.6310   22.4410 O   0  0  0  0  0  0  0  0  0  0  0  0
  -24.9650  -33.9690   25.0270 H   0  0  0  0  0  0  0  0  0  0  0  0
  -24.3500  -36.6770   23.0500 C   0  0  0  0  0  1  0  0  0  0  0  0
  -25.5470  -36.2100   23.8920 C   0  0  0  0  0  3  0  0  0  0  0  0
  -27.7090  -36.9830   24.7660 C   0  0  0  0  0  1  0  0  0  0  0  0
  -26.6460  -37.1960   23.7870 N   0  0  0  0  0  0  0  0  0  0  0  0
  -26.2930  -38.1430   23.9030 H   0  0  0  0  0  0  0  0  0  0  0  0
  -26.2250  -31.5610   25.2180 C   0  0  1  0  0  0  0  0  0  0  0  0
  -25.0920  -31.3940   26.2590 C   0  0  0  0  0  1  0  0  0  0  0  0
  -26.7370  -30.1490   24.8490 C   0  0  0  0  0  1  0  0  0  0  0  0
  -27.4050  -32.2910   25.9020 C   0  0  0  0  0  1  0  0  0  0  0  0
  1  2  1  0
  2  4  1  0
  4  3  1  0
  4  6  1  0
  5  3  2  0
  7  3  1  0
  7 16  1  0
  7 48  1  0
  8 14  1  0
  8 16  1  0
  9 14  1  0
 10 11  1  0
 10  9  1  0
 12 11  1  0
 12 21  1  0
 12 13  1  0
 14 13  1  0
 15  8  2  0
 16 17  1  0
 18 19  2  0
 19 38  1  0
 20 19  1  0
 20 23  1  0
 21 18  1  0
 21 22  1  0
 22 20  2  0
 23 24  1  0
 24 25  2  0
 26 29  1  0
 26 25  1  0
 27 26  2  0
 28 27  1  0
 28 23  2  0
 29 30  1  0
 30 31  1  0
 31 32  2  0
 33 32  1  0
 33 37  1  0
 34 33  2  0
 35 30  2  0
 35 34  1  0
 36 35  1  0
 38 39  1  0
 39 42  1  0
 39 41  1  0
 40 38  2  0
 43 18  1  0
 44 43  1  0
 45 43  1  0
 48 49  1  0
 48 47  1  1
 48 46  1  0
 50 49  1  0
 51 52  1  0
 51  1  1  0
 52 53  1  0
 53 54  1  0
 54 55  1  0
 56 55  1  0
 56 57  1  0
 58 57  1  0
 58 59  1  0
 59 61  1  0
 60 71  2  0
 61 66  1  0
 62 70  1  0
 62 72  1  0
 63 69  1  0
 63 65  1  0
 64 70  1  0
 65 64  1  0
 66 65  2  0
 67 68  1  0
 67 61  2  0
 68 63  2  0
 69 62  1  0
 70 60  1  0
 72 74  2  0
 73 72  1  0
 75 73  1  0
 76 85  2  0
 76 81  1  0
 77 73  1  0
 77 81  1  0
 78 77  1  0
 79 80  1  0
 79 78  1  0
 80 76  1  0
 81 82  2  0
 82 83  1  0
 84 83  2  0
 85 84  1  0
 86 60  1  0
 86 87  1  0
 86 96  1  0
 87 90  1  0
 88 92  1  0
 88 87  1  0
 89 88  2  0
 92 91  1  0
 94 92  1  0
 94 95  1  0
 94 93  1  0
 96 99  1  1
 96 97  1  0
 98 96  1  0
M  ISO  4   8 100  16 100  58 101  59 101
M  END
>  <TORSDO>  (72) 
F 29

>  <SCORE>  (72) 
-9.063

>  <name>  (72) 
72

>  <ligand_id>  (72) 
72

>  <original_smiles>  (72) 
[H]OC(C([H])([H])[H])(C([H])([H])[H])C([H])(C(=O)N([H])C([H])([H])OC([H])([H])C([H])([H])OC([H])([H])C([H])([H])OC([H])([H])C([H])([H])Oc1c([H])c([H])c2c(c1[H])C([H])([H])N(C(=O)C([H])(N([H])C(=O)C([H])(N([H])C([H])([H])[H])C([H])([H])[H])C(C([H])([H])[H])(C([H])([H])[H])C([H])([H])[H])C([H])(C(=O)N([H])C1([H])c3c([H])c([H])c([H])c([H])c3C([H])([H])C([H])([H])C1([H])[H])C2([H])[H])N([H])C(=O)N1C([H])([H])C([H])([H])C([H])([H])C([H])(n2nc(-c3c([H])c([H])c(Oc4c([H])c([H])c(F)c([H])c4F)c([H])c3[H])c(C(=O)N([H])[H])c2N([H])[H])C1([H])[H]

>  <smiles>  (72) 
[H]OC(C([H])([H])[H])(C([H])([H])[H])C([H])(C(=O)N([H])C([H])([H])OC([H])([H])C([H])([H])OC([H])([H])C([H])([H])OC([H])([H])C([H])([H])Oc1c([H])c([H])c2c(c1[H])C([H])([H])N(C(=O)C([H])(N([H])C(=O)C([H])(N([H])C([H])([H])[H])C([H])([H])[H])C(C([H])([H])[H])(C([H])([H])[H])C([H])([H])[H])C([H])(C(=O)N([H])C1([H])c3c([H])c([H])c([H])c([H])c3C([H])([H])C([H])([H])C1([H])[H])C2([H])[H])N([H])C(=O)N1C([H])([H])C([H])([H])C([H])([H])C([H])(n2nc(-c3c([H])c([H])c(Oc4c([H])c([H])c(F)c([H])c4F)c([H])c3[H])c(C(=O)N([H])[H])c2N([H])[H])C1([H])[H]

$$$$
73:0:0
     RDKit          3D

104111  0  0  1  0  0  0  0  0999 V2000
  -32.8180  -22.2330   19.1050 C   0  0  0  0  0  2  0  0  0  0  0  0
  -31.9840  -22.6160   20.1910 O   0  0  0  0  0  0  0  0  0  0  0  0
  -32.2320  -21.8710   21.3750 C   0  0  0  0  0  2  0  0  0  0  0  0
  -31.1060  -22.1740   22.3690 C   0  0  0  0  0  2  0  0  0  0  0  0
  -29.8820  -21.7140   21.8140 O   0  0  0  0  0  0  0  0  0  0  0  0
  -28.7510  -22.0340   22.6170 C   0  0  0  0  0  2  0  0  0  0  0  0
  -27.5030  -22.0100   21.7180 C   0  0  0  0  0  2  0  0  0  0  0  0
  -27.8120  -24.1950   20.5760 C   0  0  0  0  0  0  0  0  0  0  0  0
  -27.6910  -22.8640   20.5470 N   0  0  0  0  0  0  0  0  0  0  0  0
  -27.6310  -24.8490   21.6060 O   0  0  0  0  0  0  0  0  0  0  0  0
  -27.8560  -22.3960   19.6650 H   0  0  0  0  0  0  0  0  0  0  0  0
  -28.2330  -24.8740   19.2630 C   0  0  0  0  0  2  0  0  0  0  0  0
  -28.3940  -26.2840   19.4570 O   0  0  0  0  0  0  0  0  0  0  0  0
  -24.8520  -31.0770   23.3150 C   0  0  0  0  0  0  0  0  0  0  0  0
  -27.2580  -27.0510   19.5680 C   0  0  0  0  0  0  0  0  0  0  0  0
  -23.6060  -30.1050   21.4130 C   0  0  0  0  0  3  0  0  0  0  0  0
  -24.9880  -28.7150   19.7810 C   0  0  0  0  0  0  0  0  0  0  0  0
  -26.1560  -30.2750   21.3510 C   0  0  0  0  0  2  0  0  0  0  0  0
  -26.1580  -29.0330   20.4850 C   0  0  0  0  0  0  0  0  0  0  0  0
  -27.2970  -28.2090   20.3740 C   0  0  0  0  0  3  0  0  0  0  0  0
  -26.0730  -26.7430   18.8630 C   0  0  0  0  0  3  0  0  0  0  0  0
  -24.9390  -27.5690   18.9690 C   0  0  0  0  0  3  0  0  0  0  0  0
  -23.8180  -29.6580   19.9410 C   0  0  0  0  0  2  0  0  0  0  0  0
  -24.8900  -30.4850   22.0890 N   0  0  0  0  0  0  0  0  0  0  0  0
  -23.7730  -31.3490   23.8630 O   0  0  0  0  0  0  0  0  0  0  0  0
  -22.8290  -28.9940   22.1530 C   0  0  0  0  0  0  0  0  0  0  0  0
  -21.4940  -29.0040   22.0090 N   0  0  0  0  0  0  0  0  0  0  0  0
  -23.4220  -28.1350   22.8110 O   0  0  0  0  0  0  0  0  0  0  0  0
  -21.0810  -29.7470   21.4600 H   0  0  0  0  0  0  0  0  0  0  0  0
  -17.9900  -28.2040   22.3690 C   0  0  0  0  0  0  0  0  0  0  0  0
  -20.5610  -28.0350   22.5800 C   0  0  0  0  0  3  0  0  0  0  0  0
  -20.4500  -26.7770   21.6880 C   0  0  0  0  0  2  0  0  0  0  0  0
  -19.3030  -26.8530   20.6760 C   0  0  0  0  0  2  0  0  0  0  0  0
  -17.9630  -27.0350   21.3970 C   0  0  0  0  0  2  0  0  0  0  0  0
  -19.2120  -28.6820   22.9120 C   0  0  0  0  0  0  0  0  0  0  0  0
  -19.1870  -29.7920   23.7830 C   0  0  0  0  0  3  0  0  0  0  0  0
  -17.9720  -30.4200   24.1150 C   0  0  0  0  0  3  0  0  0  0  0  0
  -16.7640  -29.9330   23.5880 C   0  0  0  0  0  3  0  0  0  0  0  0
  -16.7740  -28.8250   22.7200 C   0  0  0  0  0  3  0  0  0  0  0  0
  -26.1580  -31.4650   24.0790 C   0  0  0  0  0  3  0  0  0  0  0  0
  -26.5080  -30.4750   25.2570 C   0  0  1  0  0  0  0  0  0  0  0  0
  -25.3330  -30.2360   26.2330 C   0  0  0  0  0  1  0  0  0  0  0  0
  -26.9500  -29.1020   24.6960 C   0  0  0  0  0  1  0  0  0  0  0  0
  -27.7020  -31.0280   26.0700 C   0  0  0  0  0  1  0  0  0  0  0  0
  -25.9840  -32.8320   24.5850 N   0  0  0  0  0  0  0  0  0  0  0  0
  -26.4770  -33.9290   23.9950 C   0  0  0  0  0  0  0  0  0  0  0  0
  -27.1980  -33.8850   22.9930 O   0  0  0  0  0  0  0  0  0  0  0  0
  -25.3570  -32.9490   25.3670 H   0  0  0  0  0  0  0  0  0  0  0  0
  -24.9830  -35.9420   23.8060 C   0  0  0  0  0  1  0  0  0  0  0  0
  -26.1170  -35.2910   24.6140 C   0  0  0  0  0  3  0  0  0  0  0  0
  -28.2770  -35.7990   25.6650 C   0  0  0  0  0  1  0  0  0  0  0  0
  -27.2640  -36.2210   24.7000 N   0  0  0  0  0  0  0  0  0  0  0  0
  -26.9520  -37.1540   24.9570 H   0  0  0  0  0  0  0  0  0  0  0  0
  -32.1890  -22.7410   17.8010 C   0  0  0  0  0  2  0  0  0  0  0  0
  -30.9490  -22.0790   17.5930 O   0  0  0  0  0  0  0  0  0  0  0  0
  -30.3830  -22.3520   16.3180 C   0  0  0  0  0  2  0  0  0  0  0  0
  -28.9910  -21.7130   16.2630 C   0  0  0  0  0  2  0  0  0  0  0  0
  -29.1370  -20.3160   16.4870 O   0  0  0  0  0  0  0  0  0  0  0  0
  -27.9140  -19.6640   16.8050 C   0  0  0  0  0  2  0  0  0  0  0  0
  -28.2300  -18.1960   17.1220 C   0  0  0  0  0  2  0  0  0  0  0  0
  -29.1670  -17.8770   19.4120 C   0  0  0  0  0  0  0  0  0  0  0  0
  -29.3060  -18.1240   18.1070 N   0  0  0  0  0  0  0  0  0  0  0  0
  -28.0940  -17.5320   19.9130 O   0  0  0  0  0  0  0  0  0  0  0  0
  -30.2190  -18.4100   17.7780 H   0  0  0  0  0  0  0  0  0  0  0  0
  -30.4260  -18.0640   20.2710 C   0  0  0  0  0  2  0  0  0  0  0  0
  -30.4580  -17.3140   21.6300 C   0  0  0  0  0  2  0  0  0  0  0  0
  -30.8520  -14.9720   20.8350 C   0  0  0  0  0  0  0  0  0  0  0  0
  -30.7330  -12.7270   19.8240 C   0  0  0  0  0  2  0  0  0  0  0  0
  -29.8800  -12.7640   18.5400 C   0  0  0  0  0  2  0  0  0  0  0  0
  -28.3840  -12.5900   18.8700 C   0  0  0  0  0  2  0  0  0  0  0  0
  -27.9090  -13.5390   20.0020 C   0  0  0  0  0  3  0  0  0  0  0  0
  -28.8710  -13.4590   21.2070 C   0  0  0  0  0  2  0  0  0  0  0  0
  -30.2350  -13.7670   20.7320 N   0  0  0  0  0  0  0  0  0  0  0  0
  -31.9270  -15.2410   20.2910 O   0  0  0  0  0  0  0  0  0  0  0  0
  -30.1710  -15.8830   21.5370 N   0  0  0  0  0  0  0  0  0  0  0  0
  -29.3120  -15.5650   21.9610 H   0  0  0  0  0  0  0  0  0  0  0  0
  -25.4660  -14.1200   20.5830 C   0  0  0  0  0  0  0  0  0  0  0  0
  -24.3850  -13.3310   20.8730 C   0  0  0  0  0  0  0  0  0  0  0  0
  -24.8570  -11.9840   20.8400 C   0  0  0  0  0  0  0  0  0  0  0  0
  -26.5310  -13.2500   20.3950 N   0  0  0  0  0  0  0  0  0  0  0  0
  -26.1620  -11.9600   20.6020 N   0  0  0  0  0  0  0  0  0  0  0  0
  -24.1330  -10.7120   20.9650 C   0  0  0  0  0  0  0  0  0  0  0  0
  -24.5170   -9.7340   21.9100 C   0  0  0  0  0  3  0  0  0  0  0  0
  -23.7950   -8.5270   22.0240 C   0  0  0  0  0  3  0  0  0  0  0  0
  -22.6750   -8.2880   21.1920 C   0  0  0  0  0  0  0  0  0  0  0  0
  -22.3110   -9.2560   20.2380 C   0  0  0  0  0  3  0  0  0  0  0  0
  -23.0340  -10.4550   20.1230 C   0  0  0  0  0  3  0  0  0  0  0  0
  -21.9310   -7.1350   21.2140 O   0  0  0  0  0  0  0  0  0  0  0  0
  -21.8020   -6.3800   22.3530 C   0  0  0  0  0  0  0  0  0  0  0  0
  -21.2840   -6.9220   23.5500 C   0  0  0  0  0  3  0  0  0  0  0  0
  -21.1040   -6.0940   24.6760 C   0  0  0  0  0  3  0  0  0  0  0  0
  -21.4330   -4.7280   24.6060 C   0  0  0  0  0  0  0  0  0  0  0  0
  -21.9440   -4.1860   23.4140 C   0  0  0  0  0  3  0  0  0  0  0  0
  -22.1250   -5.0100   22.2890 C   0  0  0  0  0  0  0  0  0  0  0  0
  -22.5990   -4.4790   21.1370 F   0  0  0  0  0  0  0  0  0  0  0  0
  -21.2520   -3.9310   25.6860 F   0  0  0  0  0  0  0  0  0  0  0  0
  -22.9700  -13.7910   21.0830 C   0  0  0  0  0  0  0  0  0  0  0  0
  -22.2110  -13.0810   21.9080 N   0  0  0  0  0  0  0  0  0  0  0  0
  -22.5450  -14.8170   20.5510 O   0  0  0  0  0  0  0  0  0  0  0  0
  -22.5640  -12.2510   22.3610 H   0  0  0  0  0  0  0  0  0  0  0  0
  -21.2600  -13.3720   22.0900 H   0  0  0  0  0  0  0  0  0  0  0  0
  -25.6320  -15.4950   20.4540 N   0  0  0  0  0  0  0  0  0  0  0  0
  -24.8630  -16.1430   20.5780 H   0  0  0  0  0  0  0  0  0  0  0  0
  -26.5250  -15.9670   20.3410 H   0  0  0  0  0  0  0  0  0  0  0  0
  1  2  1  0
  2  3  1  0
  3  4  1  0
  5  4  1  0
  5  6  1  0
  7  6  1  0
  8 10  2  0
  9  8  1  0
  9  7  1  0
 11  9  1  0
 12 13  1  0
 12  8  1  0
 13 15  1  0
 14 25  2  0
 15 20  1  0
 16 24  1  0
 16 26  1  0
 17 23  1  0
 17 19  1  0
 18 24  1  0
 19 18  1  0
 20 19  2  0
 21 22  1  0
 21 15  2  0
 22 17  2  0
 23 16  1  0
 24 14  1  0
 26 28  2  0
 27 26  1  0
 29 27  1  0
 30 39  2  0
 30 35  1  0
 31 27  1  0
 31 35  1  0
 32 31  1  0
 33 34  1  0
 33 32  1  0
 34 30  1  0
 35 36  2  0
 36 37  1  0
 38 37  2  0
 39 38  1  0
 40 14  1  0
 40 45  1  0
 40 41  1  0
 41 44  1  1
 41 42  1  0
 43 41  1  0
 45 48  1  0
 46 45  1  0
 46 50  1  0
 47 46  2  0
 50 49  1  0
 50 52  1  0
 52 53  1  0
 52 51  1  0
 54  1  1  0
 55 54  1  0
 56 55  1  0
 57 56  1  0
 57 58  1  0
 58 59  1  0
 59 60  1  0
 60 62  1  0
 61 63  2  0
 61 65  1  0
 62 61  1  0
 64 62  1  0
 65 66  1  0
 67 75  1  0
 68 73  1  0
 69 70  1  0
 69 68  1  0
 71 70  1  0
 71 80  1  0
 71 72  1  0
 73 67  1  0
 73 72  1  0
 74 67  2  0
 75 66  1  0
 75 76  1  0
 77 78  2  0
 78 97  1  0
 79 78  1  0
 79 82  1  0
 80 77  1  0
 80 81  1  0
 81 79  2  0
 82 83  1  0
 83 84  2  0
 85 88  1  0
 85 84  1  0
 86 85  2  0
 87 86  1  0
 87 82  2  0
 88 89  1  0
 89 90  1  0
 90 91  2  0
 92 91  1  0
 92 96  1  0
 93 92  2  0
 94 89  2  0
 94 93  1  0
 95 94  1  0
 97 98  1  0
 98101  1  0
 98100  1  0
 99 97  2  0
102103  1  0
102 77  1  0
104102  1  0
M  ISO  4  12 101  13 101  67 100  75 100
M  END
>  <TORSDO>  (73) 
F 34

>  <SCORE>  (73) 
-8.587

>  <name>  (73) 
73

>  <ligand_id>  (73) 
73

>  <original_smiles>  (73) 
[H]c1c([H])c([H])c2c(c1[H])C([H])([H])C([H])([H])C([H])([H])C2([H])N([H])C(=O)C1([H])N(C(=O)C([H])(N([H])C(=O)C([H])(N([H])C([H])([H])[H])C([H])([H])[H])C(C([H])([H])[H])(C([H])([H])[H])C([H])([H])[H])C([H])([H])c2c([H])c(OC([H])([H])C(=O)N([H])C([H])([H])C([H])([H])OC([H])([H])C([H])([H])OC([H])([H])C([H])([H])OC([H])([H])C([H])([H])OC([H])([H])C([H])([H])N([H])C(=O)C([H])([H])C([H])([H])N([H])C(=O)N3C([H])([H])C([H])([H])C([H])([H])C([H])(n4nc(-c5c([H])c([H])c(Oc6c([H])c([H])c(F)c([H])c6F)c([H])c5[H])c(C(=O)N([H])[H])c4N([H])[H])C3([H])[H])c([H])c([H])c2C1([H])[H]

>  <smiles>  (73) 
[H]c1c([H])c([H])c2c(c1[H])C([H])([H])C([H])([H])C([H])([H])C2([H])N([H])C(=O)C1([H])N(C(=O)C([H])(N([H])C(=O)C([H])(N([H])C([H])([H])[H])C([H])([H])[H])C(C([H])([H])[H])(C([H])([H])[H])C([H])([H])[H])C([H])([H])c2c([H])c(OC([H])([H])C(=O)N([H])C([H])([H])C([H])([H])OC([H])([H])C([H])([H])OC([H])([H])C([H])([H])OC([H])([H])C([H])([H])OC([H])([H])C([H])([H])N([H])C(=O)C([H])([H])C([H])([H])N([H])C(=O)N3C([H])([H])C([H])([H])C([H])([H])C([H])(n4nc(-c5c([H])c([H])c(Oc6c([H])c([H])c(F)c([H])c6F)c([H])c5[H])c(C(=O)N([H])[H])c4N([H])[H])C3([H])[H])c([H])c([H])c2C1([H])[H]

$$$$
74:0:0
     RDKit          3D

 95102  0  0  1  0  0  0  0  0999 V2000
  -26.3610  -21.5970   20.8010 C   0  0  0  0  0  2  0  0  0  0  0  0
  -27.5090  -20.6400   21.1430 C   0  0  0  0  0  2  0  0  0  0  0  0
  -28.8300  -19.5490   19.3330 C   0  0  0  0  0  0  0  0  0  0  0  0
  -27.7080  -19.7140   20.0360 N   0  0  0  0  0  0  0  0  0  0  0  0
  -29.8830  -20.1270   19.6030 O   0  0  0  0  0  0  0  0  0  0  0  0
  -26.8920  -19.2010   19.7310 H   0  0  0  0  0  0  0  0  0  0  0  0
  -29.1020  -17.4610   17.9810 C   0  0  0  0  0  3  0  0  0  0  0  0
  -28.5880  -18.6960   18.1850 C   0  0  0  0  0  3  0  0  0  0  0  0
  -31.7730  -15.0950   18.3210 C   0  0  0  0  0  0  0  0  0  0  0  0
  -31.7340  -12.6520   18.1230 C   0  0  0  0  0  2  0  0  0  0  0  0
  -30.5570  -12.2530   17.2050 C   0  0  0  0  0  2  0  0  0  0  0  0
  -29.2490  -12.1000   18.0090 C   0  0  0  0  0  2  0  0  0  0  0  0
  -29.0020  -13.2870   18.9810 C   0  0  0  0  0  3  0  0  0  0  0  0
  -30.2850  -13.5860   19.7860 C   0  0  0  0  0  2  0  0  0  0  0  0
  -31.3460  -13.8940   18.8210 N   0  0  0  0  0  0  0  0  0  0  0  0
  -32.7860  -15.1720   17.6280 O   0  0  0  0  0  0  0  0  0  0  0  0
  -29.9180  -16.6770   18.9000 C   0  0  0  0  0  0  0  0  0  0  0  0
  -30.9500  -16.1610   18.2200 N   0  0  0  0  0  0  0  0  0  0  0  0
  -29.6960  -16.5160   20.0990 O   0  0  0  0  0  0  0  0  0  0  0  0
  -31.1840  -16.7200   17.4150 H   0  0  0  0  0  0  0  0  0  0  0  0
  -27.1720  -13.9230   20.6740 C   0  0  0  0  0  0  0  0  0  0  0  0
  -26.1380  -13.2070   21.2130 C   0  0  0  0  0  0  0  0  0  0  0  0
  -26.2410  -11.8920   20.6630 C   0  0  0  0  0  0  0  0  0  0  0  0
  -27.8550  -13.0410   19.8500 N   0  0  0  0  0  0  0  0  0  0  0  0
  -27.3130  -11.7990   19.8870 N   0  0  0  0  0  0  0  0  0  0  0  0
  -25.3490  -10.7330   20.7850 C   0  0  0  0  0  0  0  0  0  0  0  0
  -25.5260   -9.7720   21.8050 C   0  0  0  0  0  3  0  0  0  0  0  0
  -24.6450   -8.6740   21.9130 C   0  0  0  0  0  3  0  0  0  0  0  0
  -23.5740   -8.5310   20.9990 C   0  0  0  0  0  0  0  0  0  0  0  0
  -23.4160   -9.4790   19.9720 C   0  0  0  0  0  3  0  0  0  0  0  0
  -24.2970  -10.5670   19.8620 C   0  0  0  0  0  3  0  0  0  0  0  0
  -22.6820   -7.4860   21.0130 O   0  0  0  0  0  0  0  0  0  0  0  0
  -21.9660   -7.1660   22.1380 C   0  0  0  0  0  0  0  0  0  0  0  0
  -21.0510   -8.0700   22.7220 C   0  0  0  0  0  3  0  0  0  0  0  0
  -20.2820   -7.6750   23.8340 C   0  0  0  0  0  3  0  0  0  0  0  0
  -20.4210   -6.3760   24.3600 C   0  0  0  0  0  0  0  0  0  0  0  0
  -21.3290   -5.4740   23.7790 C   0  0  0  0  0  3  0  0  0  0  0  0
  -22.0970   -5.8670   22.6690 C   0  0  0  0  0  0  0  0  0  0  0  0
  -22.9540   -4.9850   22.0990 F   0  0  0  0  0  0  0  0  0  0  0  0
  -19.6800   -5.9930   25.4250 F   0  0  0  0  0  0  0  0  0  0  0  0
  -25.0570  -13.7340   22.1090 C   0  0  0  0  0  0  0  0  0  0  0  0
  -24.5420  -12.9000   23.0060 N   0  0  0  0  0  0  0  0  0  0  0  0
  -24.6940  -14.9090   22.0520 O   0  0  0  0  0  0  0  0  0  0  0  0
  -24.8540  -11.9430   23.0680 H   0  0  0  0  0  0  0  0  0  0  0  0
  -23.8260  -13.2260   23.6410 H   0  0  0  0  0  0  0  0  0  0  0  0
  -27.5680  -15.2510   20.8010 N   0  0  0  0  0  0  0  0  0  0  0  0
  -27.0380  -15.9120   21.3600 H   0  0  0  0  0  0  0  0  0  0  0  0
  -28.3280  -15.6780   20.2910 H   0  0  0  0  0  0  0  0  0  0  0  0
  -26.8450  -22.6440   19.9650 O   0  0  0  0  0  0  0  0  0  0  0  0
  -25.8230  -23.2030   19.1480 C   0  0  0  0  0  2  0  0  0  0  0  0
  -26.3890  -24.2680   18.1970 C   0  0  0  0  0  2  0  0  0  0  0  0
  -27.4460  -23.7310   17.4040 O   0  0  0  0  0  0  0  0  0  0  0  0
  -27.8400  -24.5410   16.2960 C   0  0  0  0  0  2  0  0  0  0  0  0
  -28.5110  -25.8810   16.6800 C   0  0  0  0  0  2  0  0  0  0  0  0
  -27.8370  -26.9980   16.1000 O   0  0  0  0  0  0  0  0  0  0  0  0
  -24.5470  -28.7960   22.1500 C   0  0  0  0  0  0  0  0  0  0  0  0
  -26.6620  -27.3410   16.7190 C   0  0  0  0  0  0  0  0  0  0  0  0
  -23.0770  -28.3280   20.2150 C   0  0  0  0  0  3  0  0  0  0  0  0
  -24.2500  -28.1050   17.9640 C   0  0  0  0  0  0  0  0  0  0  0  0
  -25.4600  -29.1840   19.8690 C   0  0  0  0  0  2  0  0  0  0  0  0
  -25.4770  -28.4240   18.5600 C   0  0  0  0  0  0  0  0  0  0  0  0
  -26.6870  -28.0430   17.9420 C   0  0  0  0  0  3  0  0  0  0  0  0
  -25.4210  -27.0320   16.1240 C   0  0  0  0  0  3  0  0  0  0  0  0
  -24.2150  -27.4020   16.7480 C   0  0  0  0  0  3  0  0  0  0  0  0
  -23.0030  -28.5630   18.6820 C   0  0  0  0  0  2  0  0  0  0  0  0
  -24.3920  -28.7520   20.7980 N   0  0  0  0  0  0  0  0  0  0  0  0
  -23.6070  -28.5290   22.9120 O   0  0  0  0  0  0  0  0  0  0  0  0
  -22.7310  -26.8510   20.5060 C   0  0  0  0  0  0  0  0  0  0  0  0
  -21.4970  -26.4480   20.1580 N   0  0  0  0  0  0  0  0  0  0  0  0
  -23.5640  -26.0920   21.0080 O   0  0  0  0  0  0  0  0  0  0  0  0
  -20.8730  -27.1340   19.7570 H   0  0  0  0  0  0  0  0  0  0  0  0
  -18.6840  -24.3310   19.3440 C   0  0  0  0  0  0  0  0  0  0  0  0
  -20.9600  -25.0950   20.3020 C   0  0  0  0  0  3  0  0  0  0  0  0
  -21.6010  -24.1320   19.2770 C   0  0  0  0  0  2  0  0  0  0  0  0
  -20.7920  -24.0040   17.9830 C   0  0  0  0  0  2  0  0  0  0  0  0
  -19.3770  -23.4980   18.2800 C   0  0  0  0  0  2  0  0  0  0  0  0
  -19.4270  -25.0950   20.2830 C   0  0  0  0  0  0  0  0  0  0  0  0
  -18.7340  -25.8820   21.2280 C   0  0  0  0  0  3  0  0  0  0  0  0
  -17.3260  -25.9110   21.2460 C   0  0  0  0  0  3  0  0  0  0  0  0
  -16.5960  -25.1430   20.3240 C   0  0  0  0  0  3  0  0  0  0  0  0
  -17.2750  -24.3520   19.3790 C   0  0  0  0  0  3  0  0  0  0  0  0
  -25.9040  -29.2050   22.8040 C   0  0  0  0  0  3  0  0  0  0  0  0
  -26.5780  -28.0360   23.6240 C   0  0  1  0  0  0  0  0  0  0  0  0
  -25.6290  -27.3710   24.6480 C   0  0  0  0  0  1  0  0  0  0  0  0
  -27.0940  -26.9300   22.6730 C   0  0  0  0  0  1  0  0  0  0  0  0
  -27.8110  -28.5730   24.3870 C   0  0  0  0  0  1  0  0  0  0  0  0
  -25.6470  -30.3650   23.6690 N   0  0  0  0  0  0  0  0  0  0  0  0
  -26.0090  -31.6230   23.3810 C   0  0  0  0  0  0  0  0  0  0  0  0
  -26.6690  -31.9170   22.3790 O   0  0  0  0  0  0  0  0  0  0  0  0
  -25.0650  -30.2060   24.4780 H   0  0  0  0  0  0  0  0  0  0  0  0
  -24.3940  -33.5120   23.7490 C   0  0  0  0  0  1  0  0  0  0  0  0
  -25.5700  -32.7310   24.3560 C   0  0  0  0  0  3  0  0  0  0  0  0
  -27.6920  -33.0520   25.5490 C   0  0  0  0  0  1  0  0  0  0  0  0
  -26.6590  -33.6640   24.7160 N   0  0  0  0  0  0  0  0  0  0  0  0
  -26.2940  -34.4750   25.2070 H   0  0  0  0  0  0  0  0  0  0  0  0
  1  2  1  0
  3  5  2  0
  3  4  1  0
  4  2  1  0
  6  4  1  0
  7  8  2  0
  7 17  1  0
  8  3  1  0
  9 15  1  0
 10 15  1  0
 11 12  1  0
 11 10  1  0
 13 12  1  0
 13 14  1  0
 13 24  1  0
 15 14  1  0
 16  9  2  0
 17 19  2  0
 18  9  1  0
 18 17  1  0
 20 18  1  0
 21 46  1  0
 21 22  2  0
 22 41  1  0
 23 26  1  0
 23 22  1  0
 24 25  1  0
 24 21  1  0
 25 23  2  0
 26 27  1  0
 27 28  2  0
 29 32  1  0
 29 28  1  0
 30 29  2  0
 31 30  1  0
 31 26  2  0
 32 33  1  0
 33 38  2  0
 33 34  1  0
 34 35  2  0
 35 36  1  0
 36 40  1  0
 37 36  2  0
 38 37  1  0
 39 38  1  0
 41 42  1  0
 42 44  1  0
 42 45  1  0
 43 41  2  0
 46 47  1  0
 48 46  1  0
 49  1  1  0
 50 49  1  0
 51 50  1  0
 52 51  1  0
 53 54  1  0
 53 52  1  0
 55 54  1  0
 55 57  1  0
 56 67  2  0
 57 62  1  0
 58 68  1  0
 58 66  1  0
 59 61  1  0
 59 65  1  0
 60 66  1  0
 61 60  1  0
 62 61  2  0
 63 57  2  0
 63 64  1  0
 64 59  2  0
 65 58  1  0
 66 56  1  0
 68 70  2  0
 69 68  1  0
 71 69  1  0
 72 81  2  0
 72 77  1  0
 73 69  1  0
 74 73  1  0
 75 76  1  0
 75 74  1  0
 76 72  1  0
 77 73  1  0
 77 78  2  0
 78 79  1  0
 80 79  2  0
 81 80  1  0
 82 56  1  0
 82 83  1  0
 82 87  1  0
 83 86  1  1
 83 84  1  0
 85 83  1  0
 87 90  1  0
 88 87  1  0
 88 92  1  0
 89 88  2  0
 92 91  1  0
 92 94  1  0
 94 95  1  0
 94 93  1  0
M  ISO  4   9 100  18 100  54 101  55 101
M  END
>  <TORSDO>  (74) 
F 25

>  <SCORE>  (74) 
-1.690

>  <name>  (74) 
74

>  <ligand_id>  (74) 
74

>  <original_smiles>  (74) 
[H]C(C(=O)N([H])C(=O)N1C([H])([H])C([H])([H])C([H])([H])C([H])(n2nc(-c3c([H])c([H])c(Oc4c([H])c([H])c(F)c([H])c4F)c([H])c3[H])c(C(=O)N([H])[H])c2N([H])[H])C1([H])[H])=C([H])C(=O)N([H])C([H])([H])C([H])([H])OC([H])([H])C([H])([H])OC([H])([H])C([H])([H])Oc1c([H])c([H])c2c(c1[H])C([H])([H])N(C(=O)C([H])(N([H])C(=O)C([H])(N([H])C([H])([H])[H])C([H])([H])[H])C(C([H])([H])[H])(C([H])([H])[H])C([H])([H])[H])C([H])(C(=O)N([H])C1([H])c3c([H])c([H])c([H])c([H])c3C([H])([H])C([H])([H])C1([H])[H])C2([H])[H]

>  <smiles>  (74) 
[H]C(C(=O)N([H])C(=O)N1C([H])([H])C([H])([H])C([H])([H])C([H])(n2nc(-c3c([H])c([H])c(Oc4c([H])c([H])c(F)c([H])c4F)c([H])c3[H])c(C(=O)N([H])[H])c2N([H])[H])C1([H])[H])=C([H])C(=O)N([H])C([H])([H])C([H])([H])OC([H])([H])C([H])([H])OC([H])([H])C([H])([H])Oc1c([H])c([H])c2c(c1[H])C([H])([H])N(C(=O)C([H])(N([H])C(=O)C([H])(N([H])C([H])([H])[H])C([H])([H])[H])C(C([H])([H])[H])(C([H])([H])[H])C([H])([H])[H])C([H])(C(=O)N([H])C1([H])c3c([H])c([H])c([H])c([H])c3C([H])([H])C([H])([H])C1([H])[H])C2([H])[H]

$$$$
75:0:0
     RDKit          3D

 94101  0  0  1  0  0  0  0  0999 V2000
  -31.2590  -20.2750   19.4320 C   0  0  0  0  0  2  0  0  0  0  0  0
  -30.2980  -19.3440   20.1800 C   0  0  0  0  0  0  0  0  0  0  0  0
  -30.2290  -17.2220   21.3490 C   0  0  0  0  0  0  0  0  0  0  0  0
  -30.8280  -18.2060   20.6600 N   0  0  0  0  0  0  0  0  0  0  0  0
  -29.1140  -19.6840   20.3030 O   0  0  0  0  0  0  0  0  0  0  0  0
  -29.0280  -17.1800   21.6390 O   0  0  0  0  0  0  0  0  0  0  0  0
  -31.8120  -18.0760   20.4860 H   0  0  0  0  0  0  0  0  0  0  0  0
  -31.3070  -16.0160   23.2990 C   0  0  0  0  0  1  0  0  0  0  0  0
  -31.1240  -16.0500   21.7710 C   0  0  0  0  0  3  0  0  0  0  0  0
  -30.7510  -14.1760   20.1710 C   0  0  0  0  0  0  0  0  0  0  0  0
  -30.2260  -12.1800   18.8200 C   0  0  0  0  0  2  0  0  0  0  0  0
  -29.2180  -12.4880   17.6990 C   0  0  0  0  0  2  0  0  0  0  0  0
  -27.7740  -12.3640   18.2180 C   0  0  0  0  0  2  0  0  0  0  0  0
  -27.5490  -13.1560   19.5310 C   0  0  0  0  0  3  0  0  0  0  0  0
  -28.6540  -12.8330   20.5620 C   0  0  0  0  0  2  0  0  0  0  0  0
  -29.9700  -13.0890   19.9450 N   0  0  0  0  0  0  0  0  0  0  0  0
  -31.6740  -14.5240   19.4280 O   0  0  0  0  0  0  0  0  0  0  0  0
  -30.5040  -14.8070   21.3220 N   0  0  0  0  0  0  0  0  0  0  0  0
  -29.7360  -14.4560   21.8730 H   0  0  0  0  0  0  0  0  0  0  0  0
  -25.1950  -13.8110   20.3480 C   0  0  0  0  0  0  0  0  0  0  0  0
  -24.1350  -13.0600   20.7810 C   0  0  0  0  0  0  0  0  0  0  0  0
  -24.5740  -11.7010   20.7440 C   0  0  0  0  0  0  0  0  0  0  0  0
  -26.2140  -12.9120   20.0780 N   0  0  0  0  0  0  0  0  0  0  0  0
  -25.8450  -11.6370   20.3690 N   0  0  0  0  0  0  0  0  0  0  0  0
  -23.8410  -10.4530   20.9890 C   0  0  0  0  0  0  0  0  0  0  0  0
  -24.3050   -9.4920   21.9160 C   0  0  0  0  0  3  0  0  0  0  0  0
  -23.5720   -8.3070   22.1460 C   0  0  0  0  0  3  0  0  0  0  0  0
  -22.3620   -8.0750   21.4510 C   0  0  0  0  0  0  0  0  0  0  0  0
  -21.9160   -9.0230   20.5140 C   0  0  0  0  0  3  0  0  0  0  0  0
  -22.6490  -10.1980   20.2810 C   0  0  0  0  0  3  0  0  0  0  0  0
  -21.5980   -6.9410   21.5920 O   0  0  0  0  0  0  0  0  0  0  0  0
  -21.5930   -6.2140   22.7550 C   0  0  0  0  0  0  0  0  0  0  0  0
  -21.2480   -6.7960   23.9940 C   0  0  0  0  0  3  0  0  0  0  0  0
  -21.1900   -5.9990   25.1540 C   0  0  0  0  0  3  0  0  0  0  0  0
  -21.4650   -4.6200   25.0760 C   0  0  0  0  0  0  0  0  0  0  0  0
  -21.8020   -4.0370   23.8410 C   0  0  0  0  0  3  0  0  0  0  0  0
  -21.8630   -4.8330   22.6840 C   0  0  0  0  0  0  0  0  0  0  0  0
  -22.1680   -4.2630   21.4930 F   0  0  0  0  0  0  0  0  0  0  0  0
  -21.4010   -3.8520   26.1890 F   0  0  0  0  0  0  0  0  0  0  0  0
  -22.7610  -13.5620   21.1210 C   0  0  0  0  0  0  0  0  0  0  0  0
  -22.0730  -12.8910   22.0390 N   0  0  0  0  0  0  0  0  0  0  0  0
  -22.3070  -14.5840   20.6090 O   0  0  0  0  0  0  0  0  0  0  0  0
  -22.4530  -12.0630   22.4740 H   0  0  0  0  0  0  0  0  0  0  0  0
  -21.1550  -13.2110   22.3120 H   0  0  0  0  0  0  0  0  0  0  0  0
  -25.3720  -15.1770   20.1470 N   0  0  0  0  0  0  0  0  0  0  0  0
  -24.6330  -15.8520   20.3050 H   0  0  0  0  0  0  0  0  0  0  0  0
  -26.2340  -15.6020   19.8250 H   0  0  0  0  0  0  0  0  0  0  0  0
  -31.0750  -21.6190   19.8780 O   0  0  0  0  0  0  0  0  0  0  0  0
  -31.8750  -22.5360   19.1420 C   0  0  0  0  0  2  0  0  0  0  0  0
  -31.6560  -23.9730   19.6360 C   0  0  0  0  0  2  0  0  0  0  0  0
  -30.3270  -24.3930   19.3360 O   0  0  0  0  0  0  0  0  0  0  0  0
  -30.2350  -25.7860   19.0580 C   0  0  0  0  0  2  0  0  0  0  0  0
  -28.7650  -26.2270   18.9870 C   0  0  0  0  0  2  0  0  0  0  0  0
  -28.3860  -26.8250   20.2250 O   0  0  0  0  0  0  0  0  0  0  0  0
  -24.5340  -31.9620   23.2730 C   0  0  0  0  0  0  0  0  0  0  0  0
  -27.1940  -27.5120   20.2280 C   0  0  0  0  0  0  0  0  0  0  0  0
  -23.3300  -30.5420   21.6420 C   0  0  0  0  0  3  0  0  0  0  0  0
  -24.7870  -28.9880   20.2400 C   0  0  0  0  0  0  0  0  0  0  0  0
  -25.8540  -30.9000   21.4480 C   0  0  0  0  0  2  0  0  0  0  0  0
  -25.9390  -29.5210   20.8300 C   0  0  0  0  0  0  0  0  0  0  0  0
  -27.1410  -28.7820   20.8380 C   0  0  0  0  0  3  0  0  0  0  0  0
  -26.0230  -26.9790   19.6450 C   0  0  0  0  0  3  0  0  0  0  0  0
  -24.8200  -27.7120   19.6510 C   0  0  0  0  0  3  0  0  0  0  0  0
  -23.5420  -29.8450   20.2710 C   0  0  0  0  0  2  0  0  0  0  0  0
  -24.5910  -31.1510   22.1800 N   0  0  0  0  0  0  0  0  0  0  0  0
  -23.4530  -32.2420   23.8080 O   0  0  0  0  0  0  0  0  0  0  0  0
  -22.6760  -29.5330   22.6120 C   0  0  0  0  0  0  0  0  0  0  0  0
  -21.3540  -29.3450   22.4770 N   0  0  0  0  0  0  0  0  0  0  0  0
  -23.3550  -28.9210   23.4410 O   0  0  0  0  0  0  0  0  0  0  0  0
  -20.8680  -29.8910   21.7780 H   0  0  0  0  0  0  0  0  0  0  0  0
  -17.9800  -28.1490   22.9530 C   0  0  0  0  0  0  0  0  0  0  0  0
  -20.5330  -28.4170   23.2520 C   0  0  0  0  0  3  0  0  0  0  0  0
  -20.6470  -26.9780   22.6990 C   0  0  0  0  0  2  0  0  0  0  0  0
  -19.5570  -26.6360   21.6770 C   0  0  0  0  0  2  0  0  0  0  0  0
  -18.1680  -26.7890   22.3020 C   0  0  0  0  0  2  0  0  0  0  0  0
  -19.0910  -28.9200   23.3850 C   0  0  0  0  0  0  0  0  0  0  0  0
  -18.8630  -30.1930   23.9520 C   0  0  0  0  0  3  0  0  0  0  0  0
  -17.5550  -30.6940   24.0930 C   0  0  0  0  0  3  0  0  0  0  0  0
  -16.4580  -29.9190   23.6800 C   0  0  0  0  0  3  0  0  0  0  0  0
  -16.6700  -28.6490   23.1160 C   0  0  0  0  0  3  0  0  0  0  0  0
  -25.8210  -32.5950   23.8890 C   0  0  0  0  0  3  0  0  0  0  0  0
  -25.5140  -33.9950   24.2110 N   0  0  0  0  0  0  0  0  0  0  0  0
  -25.8560  -35.0430   23.4490 C   0  0  0  0  0  0  0  0  0  0  0  0
  -26.5360  -34.9320   22.4250 O   0  0  0  0  0  0  0  0  0  0  0  0
  -24.9130  -34.1560   25.0050 H   0  0  0  0  0  0  0  0  0  0  0  0
  -24.1350  -36.8350   23.0650 C   0  0  0  0  0  1  0  0  0  0  0  0
  -25.3660  -36.4340   23.8940 C   0  0  0  0  0  3  0  0  0  0  0  0
  -27.4970  -37.3120   24.7410 C   0  0  0  0  0  1  0  0  0  0  0  0
  -26.4010  -37.4860   23.7920 N   0  0  0  0  0  0  0  0  0  0  0  0
  -25.9960  -38.4050   23.9430 H   0  0  0  0  0  0  0  0  0  0  0  0
  -26.3420  -31.8290   25.1660 C   0  0  1  0  0  0  0  0  0  0  0  0
  -25.2520  -31.5930   26.2370 C   0  0  0  0  0  1  0  0  0  0  0  0
  -26.9260  -30.4520   24.7760 C   0  0  0  0  0  1  0  0  0  0  0  0
  -27.4930  -32.6270   25.8250 C   0  0  0  0  0  1  0  0  0  0  0  0
  1 48  1  0
  1  2  1  0
  2  5  2  0
  2  4  1  0
  3  6  2  0
  3  9  1  0
  4  3  1  0
  7  4  1  0
  9  8  1  0
 10 18  1  0
 11 16  1  0
 12 13  1  0
 12 11  1  0
 14 13  1  0
 14 23  1  0
 14 15  1  0
 16 10  1  0
 16 15  1  0
 17 10  2  0
 18  9  1  0
 18 19  1  0
 20 21  2  0
 21 40  1  0
 22 21  1  0
 22 25  1  0
 23 20  1  0
 23 24  1  0
 24 22  2  0
 25 26  1  0
 26 27  2  0
 28 31  1  0
 28 27  1  0
 29 28  2  0
 30 29  1  0
 30 25  2  0
 31 32  1  0
 32 33  1  0
 33 34  2  0
 35 34  1  0
 35 39  1  0
 36 35  2  0
 37 32  2  0
 37 36  1  0
 38 37  1  0
 40 41  1  0
 41 44  1  0
 41 43  1  0
 42 40  2  0
 45 46  1  0
 45 20  1  0
 47 45  1  0
 49 50  1  0
 49 48  1  0
 51 50  1  0
 52 51  1  0
 53 52  1  0
 53 54  1  0
 54 56  1  0
 55 66  2  0
 56 61  1  0
 57 65  1  0
 57 67  1  0
 58 64  1  0
 58 60  1  0
 59 65  1  0
 60 61  2  0
 60 59  1  0
 62 63  1  0
 62 56  2  0
 63 58  2  0
 64 57  1  0
 65 55  1  0
 67 69  2  0
 68 67  1  0
 70 68  1  0
 71 80  2  0
 71 76  1  0
 72 68  1  0
 72 76  1  0
 73 72  1  0
 74 75  1  0
 74 73  1  0
 75 71  1  0
 76 77  2  0
 77 78  1  0
 79 78  2  0
 80 79  1  0
 81 55  1  0
 81 82  1  0
 81 91  1  0
 82 85  1  0
 83 87  1  0
 83 82  1  0
 84 83  2  0
 87 86  1  0
 89 87  1  0
 89 90  1  0
 89 88  1  0
 91 94  1  1
 91 92  1  0
 93 91  1  0
M  ISO  4  10 100  18 100  53 101  54 101
M  END
>  <TORSDO>  (75) 
F 24

>  <SCORE>  (75) 
-10.600

>  <name>  (75) 
75

>  <ligand_id>  (75) 
75

>  <original_smiles>  (75) 
[H]c1c([H])c([H])c2c(c1[H])C([H])([H])C([H])([H])C([H])([H])C2([H])N([H])C(=O)C1([H])N(C(=O)C([H])(N([H])C(=O)C([H])(N([H])C([H])([H])[H])C([H])([H])[H])C(C([H])([H])[H])(C([H])([H])[H])C([H])([H])[H])C([H])([H])c2c([H])c(OC([H])([H])C([H])([H])OC([H])([H])C([H])([H])OC([H])([H])C(=O)N([H])C(=O)C([H])(N([H])C(=O)N3C([H])([H])C([H])([H])C([H])([H])C([H])(n4nc(-c5c([H])c([H])c(Oc6c([H])c([H])c(F)c([H])c6F)c([H])c5[H])c(C(=O)N([H])[H])c4N([H])[H])C3([H])[H])C([H])([H])[H])c([H])c([H])c2C1([H])[H]

>  <smiles>  (75) 
[H]c1c([H])c([H])c2c(c1[H])C([H])([H])C([H])([H])C([H])([H])C2([H])N([H])C(=O)C1([H])N(C(=O)C([H])(N([H])C(=O)C([H])(N([H])C([H])([H])[H])C([H])([H])[H])C(C([H])([H])[H])(C([H])([H])[H])C([H])([H])[H])C([H])([H])c2c([H])c(OC([H])([H])C([H])([H])OC([H])([H])C([H])([H])OC([H])([H])C(=O)N([H])C(=O)C([H])(N([H])C(=O)N3C([H])([H])C([H])([H])C([H])([H])C([H])(n4nc(-c5c([H])c([H])c(Oc6c([H])c([H])c(F)c([H])c6F)c([H])c5[H])c(C(=O)N([H])[H])c4N([H])[H])C3([H])[H])C([H])([H])[H])c([H])c([H])c2C1([H])[H]

$$$$
76:0:0
     RDKit          3D

107114  0  0  1  0  0  0  0  0999 V2000
  -29.6000  -26.3860   16.3540 C   0  0  0  0  0  0  0  0  0  0  0  0
  -30.8280  -26.9020   16.4240 N   0  0  0  0  0  0  0  0  0  0  0  0
  -28.5940  -27.0500   16.6330 O   0  0  0  0  0  0  0  0  0  0  0  0
  -31.5630  -26.2530   16.1580 H   0  0  0  0  0  0  0  0  0  0  0  0
  -29.4840  -24.8890   15.9760 C   0  0  0  0  0  3  0  0  0  0  0  0
  -28.0670  -23.1810   17.2020 C   0  0  0  0  0  0  0  0  0  0  0  0
  -28.4630  -24.4170   16.8950 N   0  0  0  0  0  0  0  0  0  0  0  0
  -28.2890  -22.1870   16.5080 O   0  0  0  0  0  0  0  0  0  0  0  0
  -28.1900  -25.1320   17.5580 H   0  0  0  0  0  0  0  0  0  0  0  0
  -27.3960  -23.0950   18.5740 C   0  0  0  0  0  2  0  0  0  0  0  0
  -28.1660  -23.9490   19.4180 O   0  0  0  0  0  0  0  0  0  0  0  0
  -27.5650  -24.3810   20.6190 C   0  0  0  0  0  2  0  0  0  0  0  0
  -28.3710  -25.6220   21.0640 C   0  0  0  0  0  2  0  0  0  0  0  0
  -28.3600  -26.6930   20.1120 O   0  0  0  0  0  0  0  0  0  0  0  0
  -24.6090  -31.8740   23.2090 C   0  0  0  0  0  0  0  0  0  0  0  0
  -27.2170  -27.4470   20.1080 C   0  0  0  0  0  0  0  0  0  0  0  0
  -23.3970  -30.4970   21.5500 C   0  0  0  0  0  3  0  0  0  0  0  0
  -24.8400  -28.9630   20.1240 C   0  0  0  0  0  0  0  0  0  0  0  0
  -25.9240  -30.8400   21.3690 C   0  0  0  0  0  2  0  0  0  0  0  0
  -25.9990  -29.4690   20.7290 C   0  0  0  0  0  0  0  0  0  0  0  0
  -27.1880  -28.7100   20.7350 C   0  0  0  0  0  3  0  0  0  0  0  0
  -26.0610  -26.9690   19.4590 C   0  0  0  0  0  3  0  0  0  0  0  0
  -24.8600  -27.7060   19.4990 C   0  0  0  0  0  3  0  0  0  0  0  0
  -23.6060  -29.8260   20.1670 C   0  0  0  0  0  2  0  0  0  0  0  0
  -24.6610  -31.0860   22.1010 N   0  0  0  0  0  0  0  0  0  0  0  0
  -23.5270  -32.1510   23.7450 O   0  0  0  0  0  0  0  0  0  0  0  0
  -22.7370  -29.4700   22.4980 C   0  0  0  0  0  0  0  0  0  0  0  0
  -21.4110  -29.3040   22.3710 N   0  0  0  0  0  0  0  0  0  0  0  0
  -23.4160  -28.8220   23.2970 O   0  0  0  0  0  0  0  0  0  0  0  0
  -20.9250  -29.8750   21.6930 H   0  0  0  0  0  0  0  0  0  0  0  0
  -18.0280  -28.1390   22.8470 C   0  0  0  0  0  0  0  0  0  0  0  0
  -20.5850  -28.3690   23.1310 C   0  0  0  0  0  3  0  0  0  0  0  0
  -20.6770  -26.9420   22.5400 C   0  0  0  0  0  2  0  0  0  0  0  0
  -19.5760  -26.6410   21.5200 C   0  0  0  0  0  2  0  0  0  0  0  0
  -18.1940  -26.7950   22.1630 C   0  0  0  0  0  2  0  0  0  0  0  0
  -19.1510  -28.8850   23.2900 C   0  0  0  0  0  0  0  0  0  0  0  0
  -18.9460  -30.1460   23.8900 C   0  0  0  0  0  3  0  0  0  0  0  0
  -17.6450  -30.6590   24.0580 C   0  0  0  0  0  3  0  0  0  0  0  0
  -16.5340  -29.9080   23.6330 C   0  0  0  0  0  3  0  0  0  0  0  0
  -16.7260  -28.6510   23.0320 C   0  0  0  0  0  3  0  0  0  0  0  0
  -25.8970  -32.4880   23.8390 C   0  0  0  0  0  3  0  0  0  0  0  0
  -26.4420  -31.6660   25.0690 C   0  0  1  0  0  0  0  0  0  0  0  0
  -25.3660  -31.3820   26.1410 C   0  0  0  0  0  1  0  0  0  0  0  0
  -27.0260  -30.3150   24.5980 C   0  0  0  0  0  1  0  0  0  0  0  0
  -27.5990  -32.4330   25.7480 C   0  0  0  0  0  1  0  0  0  0  0  0
  -25.5810  -33.8700   24.2300 N   0  0  0  0  0  0  0  0  0  0  0  0
  -25.9060  -34.9500   23.5100 C   0  0  0  0  0  0  0  0  0  0  0  0
  -26.5620  -34.8930   22.4700 O   0  0  0  0  0  0  0  0  0  0  0  0
  -24.9890  -33.9880   25.0390 H   0  0  0  0  0  0  0  0  0  0  0  0
  -24.1500  -36.7320   23.2640 C   0  0  0  0  0  1  0  0  0  0  0  0
  -25.4140  -36.3130   24.0320 C   0  0  0  0  0  3  0  0  0  0  0  0
  -27.5620  -37.1800   24.8450 C   0  0  0  0  0  1  0  0  0  0  0  0
  -26.4370  -37.3800   23.9370 N   0  0  0  0  0  0  0  0  0  0  0  0
  -26.0290  -38.2890   24.1390 H   0  0  0  0  0  0  0  0  0  0  0  0
  -30.8040  -24.0810   16.2250 C   0  0  0  0  0  2  0  0  0  0  0  0
  -31.9140  -24.5010   15.4380 O   0  0  0  0  0  0  0  0  0  0  0  0
  -32.6520  -23.9320   15.6430 H   0  0  0  0  0  0  0  0  0  0  0  0
  -31.2180  -28.1210   17.1200 C   0  0  0  0  0  2  0  0  0  0  0  0
  -31.1600  -27.9410   18.6570 C   0  0  0  0  0  2  0  0  0  0  0  0
  -31.2050  -26.5710   19.0910 O   0  0  0  0  0  0  0  0  0  0  0  0
  -32.4780  -26.0720   19.4930 C   0  0  0  0  0  2  0  0  0  0  0  0
  -32.2760  -24.9020   20.4790 C   0  0  0  0  0  2  0  0  0  0  0  0
  -31.8510  -23.7010   19.8310 O   0  0  0  0  0  0  0  0  0  0  0  0
  -31.4070  -22.7110   20.7600 C   0  0  0  0  0  2  0  0  0  0  0  0
  -31.1410  -21.3650   20.0520 C   0  0  0  0  0  2  0  0  0  0  0  0
  -30.5460  -20.2770   20.9780 C   0  0  0  0  0  2  0  0  0  0  0  0
  -30.3600  -19.0490   20.2770 O   0  0  0  0  0  0  0  0  0  0  0  0
  -29.7890  -17.9880   21.0490 C   0  0  0  0  0  2  0  0  0  0  0  0
  -30.8130  -16.8340   21.1000 C   0  0  0  0  0  2  0  0  0  0  0  0
  -30.7770  -14.4290   20.5560 C   0  0  0  0  0  0  0  0  0  0  0  0
  -30.4080  -12.2760   19.4360 C   0  0  0  0  0  2  0  0  0  0  0  0
  -29.4880  -12.4850   18.2220 C   0  0  0  0  0  2  0  0  0  0  0  0
  -28.0150  -12.3510   18.6360 C   0  0  0  0  0  2  0  0  0  0  0  0
  -27.6670  -13.2130   19.8750 C   0  0  0  0  0  3  0  0  0  0  0  0
  -28.7080  -13.0470   21.0060 C   0  0  0  0  0  2  0  0  0  0  0  0
  -30.0460  -13.2910   20.4410 N   0  0  0  0  0  0  0  0  0  0  0  0
  -31.8790  -14.5660   20.0270 O   0  0  0  0  0  0  0  0  0  0  0  0
  -30.2120  -15.4830   21.1690 N   0  0  0  0  0  0  0  0  0  0  0  0
  -29.3160  -15.3640   21.6280 H   0  0  0  0  0  0  0  0  0  0  0  0
  -25.2620  -13.8180   20.5670 C   0  0  0  0  0  0  0  0  0  0  0  0
  -24.1860  -13.0450   20.9170 C   0  0  0  0  0  0  0  0  0  0  0  0
  -24.6440  -11.6940   20.8790 C   0  0  0  0  0  0  0  0  0  0  0  0
  -26.3080  -12.9370   20.3420 N   0  0  0  0  0  0  0  0  0  0  0  0
  -25.9380  -11.6540   20.5860 N   0  0  0  0  0  0  0  0  0  0  0  0
  -23.9110  -10.4330   21.0450 C   0  0  0  0  0  0  0  0  0  0  0  0
  -24.3680   -9.4230   21.9190 C   0  0  0  0  0  3  0  0  0  0  0  0
  -23.6340   -8.2260   22.0760 C   0  0  0  0  0  3  0  0  0  0  0  0
  -22.4290   -8.0320   21.3560 C   0  0  0  0  0  0  0  0  0  0  0  0
  -21.9970   -9.0310   20.4630 C   0  0  0  0  0  3  0  0  0  0  0  0
  -22.7320  -10.2180   20.3050 C   0  0  0  0  0  3  0  0  0  0  0  0
  -21.6640   -6.8930   21.4250 O   0  0  0  0  0  0  0  0  0  0  0  0
  -21.6860   -6.0780   22.5280 C   0  0  0  0  0  0  0  0  0  0  0  0
  -21.4020   -6.5660   23.8230 C   0  0  0  0  0  3  0  0  0  0  0  0
  -21.3650   -5.6790   24.9170 C   0  0  0  0  0  3  0  0  0  0  0  0
  -21.6060   -4.3060   24.7210 C   0  0  0  0  0  0  0  0  0  0  0  0
  -21.8800   -3.8180   23.4320 C   0  0  0  0  0  3  0  0  0  0  0  0
  -21.9200   -4.7010   22.3390 C   0  0  0  0  0  0  0  0  0  0  0  0
  -22.1670   -4.2200   21.0970 F   0  0  0  0  0  0  0  0  0  0  0  0
  -21.5630   -3.4540   25.7720 F   0  0  0  0  0  0  0  0  0  0  0  0
  -22.7860  -13.5260   21.1840 C   0  0  0  0  0  0  0  0  0  0  0  0
  -22.0500  -12.8210   22.0390 N   0  0  0  0  0  0  0  0  0  0  0  0
  -22.3550  -14.5550   20.6690 O   0  0  0  0  0  0  0  0  0  0  0  0
  -22.4150  -11.9920   22.4780 H   0  0  0  0  0  0  0  0  0  0  0  0
  -21.1120  -13.1190   22.2560 H   0  0  0  0  0  0  0  0  0  0  0  0
  -25.4300  -15.1890   20.4040 N   0  0  0  0  0  0  0  0  0  0  0  0
  -24.6660  -15.8440   20.5160 H   0  0  0  0  0  0  0  0  0  0  0  0
  -26.2910  -15.6290   20.0960 H   0  0  0  0  0  0  0  0  0  0  0  0
  1  2  1  0
  1  3  2  0
  2 58  1  0
  4  2  1  0
  5 55  1  0
  5  1  1  0
  5  7  1  0
  6 10  1  0
  7  6  1  0
  7  9  1  0
  8  6  2  0
 10 11  1  0
 11 12  1  0
 12 13  1  0
 14 13  1  0
 15 26  2  0
 16 14  1  0
 16 21  1  0
 17 25  1  0
 17 27  1  0
 18 24  1  0
 18 20  1  0
 19 25  1  0
 20 21  2  0
 20 19  1  0
 22 23  1  0
 22 16  2  0
 23 18  2  0
 24 17  1  0
 25 15  1  0
 27 29  2  0
 28 27  1  0
 30 28  1  0
 31 40  2  0
 31 36  1  0
 32 28  1  0
 32 36  1  0
 33 32  1  0
 34 35  1  0
 34 33  1  0
 35 31  1  0
 36 37  2  0
 37 38  1  0
 39 38  2  0
 40 39  1  0
 41 15  1  0
 41 46  1  0
 41 42  1  0
 42 45  1  1
 42 43  1  0
 44 42  1  0
 46 49  1  0
 47 51  1  0
 47 46  1  0
 48 47  2  0
 51 50  1  0
 53 51  1  0
 53 54  1  0
 53 52  1  0
 56 57  1  0
 56 55  1  0
 58 59  1  0
 59 60  1  0
 60 61  1  0
 61 62  1  0
 63 62  1  0
 63 64  1  0
 65 64  1  0
 65 66  1  0
 67 66  1  0
 67 68  1  0
 68 69  1  0
 69 78  1  0
 70 78  1  0
 71 76  1  0
 72 73  1  0
 72 71  1  0
 74 73  1  0
 74 83  1  0
 74 75  1  0
 76 70  1  0
 76 75  1  0
 77 70  2  0
 78 79  1  0
 80 81  2  0
 81100  1  0
 82 81  1  0
 82 85  1  0
 83 80  1  0
 83 84  1  0
 84 82  2  0
 85 86  1  0
 86 87  2  0
 88 91  1  0
 88 87  1  0
 89 88  2  0
 90 89  1  0
 90 85  2  0
 91 92  1  0
 92 93  1  0
 93 94  2  0
 95 94  1  0
 95 99  1  0
 96 95  2  0
 97 92  2  0
 97 96  1  0
 98 97  1  0
100101  1  0
101104  1  0
101103  1  0
102100  2  0
105106  1  0
105 80  1  0
107105  1  0
M  ISO  4  13 101  14 101  70 100  78 100
M  END
>  <TORSDO>  (76) 
F 36

>  <SCORE>  (76) 
-9.470

>  <name>  (76) 
76

>  <ligand_id>  (76) 
76

>  <original_smiles>  (76) 
[H]OC([H])([H])C([H])(C(=O)N([H])C([H])([H])C([H])([H])OC([H])([H])C([H])([H])OC([H])([H])C([H])([H])C([H])([H])OC([H])([H])C([H])([H])N([H])C(=O)N1C([H])([H])C([H])([H])C([H])([H])C([H])(n2nc(-c3c([H])c([H])c(Oc4c([H])c([H])c(F)c([H])c4F)c([H])c3[H])c(C(=O)N([H])[H])c2N([H])[H])C1([H])[H])N([H])C(=O)C([H])([H])OC([H])([H])C([H])([H])Oc1c([H])c([H])c2c(c1[H])C([H])([H])N(C(=O)C([H])(N([H])C(=O)C([H])(N([H])C([H])([H])[H])C([H])([H])[H])C(C([H])([H])[H])(C([H])([H])[H])C([H])([H])[H])C([H])(C(=O)N([H])C1([H])c3c([H])c([H])c([H])c([H])c3C([H])([H])C([H])([H])C1([H])[H])C2([H])[H]

>  <smiles>  (76) 
[H]OC([H])([H])C([H])(C(=O)N([H])C([H])([H])C([H])([H])OC([H])([H])C([H])([H])OC([H])([H])C([H])([H])C([H])([H])OC([H])([H])C([H])([H])N([H])C(=O)N1C([H])([H])C([H])([H])C([H])([H])C([H])(n2nc(-c3c([H])c([H])c(Oc4c([H])c([H])c(F)c([H])c4F)c([H])c3[H])c(C(=O)N([H])[H])c2N([H])[H])C1([H])[H])N([H])C(=O)C([H])([H])OC([H])([H])C([H])([H])Oc1c([H])c([H])c2c(c1[H])C([H])([H])N(C(=O)C([H])(N([H])C(=O)C([H])(N([H])C([H])([H])[H])C([H])([H])[H])C(C([H])([H])[H])(C([H])([H])[H])C([H])([H])[H])C([H])(C(=O)N([H])C1([H])c3c([H])c([H])c([H])c([H])c3C([H])([H])C([H])([H])C1([H])[H])C2([H])[H]

$$$$
77:0:0
     RDKit          3D

110117  0  0  1  0  0  0  0  0999 V2000
  -28.3000  -24.9680   10.4010 C   0  0  0  0  0  3  0  0  0  0  0  0
  -26.7820  -24.9440   10.1670 C   0  0  0  0  0  0  0  0  0  0  0  0
  -26.3270  -24.3280    9.0820 N   0  0  0  0  0  0  0  0  0  0  0  0
  -26.0100  -25.4940   10.9550 O   0  0  0  0  0  0  0  0  0  0  0  0
  -26.9670  -23.8920    8.4320 H   0  0  0  0  0  0  0  0  0  0  0  0
  -25.3350  -24.2930    8.8940 H   0  0  0  0  0  0  0  0  0  0  0  0
  -29.8420  -26.6680   11.3690 C   0  0  0  0  0  0  0  0  0  0  0  0
  -28.6430  -26.0920   11.2650 N   0  0  0  0  0  0  0  0  0  0  0  0
  -30.8170  -26.2820   10.7190 O   0  0  0  0  0  0  0  0  0  0  0  0
  -27.8680  -26.4530   11.8040 H   0  0  0  0  0  0  0  0  0  0  0  0
  -29.9590  -27.8640   12.3190 C   0  0  0  0  0  2  0  0  0  0  0  0
  -31.1480  -27.7770   13.2950 C   0  0  0  0  0  2  0  0  0  0  0  0
  -30.8210  -26.9360   14.3950 O   0  0  0  0  0  0  0  0  0  0  0  0
  -31.9250  -26.7180   15.2680 C   0  0  0  0  0  2  0  0  0  0  0  0
  -31.4230  -26.0530   16.5550 C   0  0  0  0  0  2  0  0  0  0  0  0
  -30.7720  -27.0350   17.3530 O   0  0  0  0  0  0  0  0  0  0  0  0
  -30.0670  -26.4730   18.4500 C   0  0  0  0  0  2  0  0  0  0  0  0
  -29.3620  -27.5820   19.2450 C   0  0  0  0  0  2  0  0  0  0  0  0
  -28.3310  -26.9780   20.0180 O   0  0  0  0  0  0  0  0  0  0  0  0
  -24.3990  -31.9870   23.2270 C   0  0  0  0  0  0  0  0  0  0  0  0
  -27.1590  -27.6840   20.0790 C   0  0  0  0  0  0  0  0  0  0  0  0
  -23.2210  -30.5620   21.5820 C   0  0  0  0  0  3  0  0  0  0  0  0
  -24.7090  -29.0760   20.1400 C   0  0  0  0  0  0  0  0  0  0  0  0
  -25.7280  -31.0050   21.3650 C   0  0  0  0  0  2  0  0  0  0  0  0
  -25.8540  -29.6440   20.7160 C   0  0  0  0  0  0  0  0  0  0  0  0
  -27.0850  -28.9560   20.6850 C   0  0  0  0  0  3  0  0  0  0  0  0
  -26.0000  -27.1090   19.5220 C   0  0  0  0  0  3  0  0  0  0  0  0
  -24.7750  -27.8050   19.5420 C   0  0  0  0  0  3  0  0  0  0  0  0
  -23.4390  -29.8930   20.1980 C   0  0  0  0  0  2  0  0  0  0  0  0
  -24.4670  -31.1990   22.1170 N   0  0  0  0  0  0  0  0  0  0  0  0
  -23.3150  -32.2230   23.7780 O   0  0  0  0  0  0  0  0  0  0  0  0
  -22.6070  -29.5170   22.5410 C   0  0  0  0  0  0  0  0  0  0  0  0
  -21.2850  -29.3160   22.4380 N   0  0  0  0  0  0  0  0  0  0  0  0
  -23.3180  -28.8900   23.3310 O   0  0  0  0  0  0  0  0  0  0  0  0
  -20.7720  -29.8760   21.7700 H   0  0  0  0  0  0  0  0  0  0  0  0
  -17.9380  -28.0700   22.9890 C   0  0  0  0  0  0  0  0  0  0  0  0
  -20.4980  -28.3540   23.2110 C   0  0  0  0  0  3  0  0  0  0  0  0
  -20.6050  -26.9360   22.6050 C   0  0  0  0  0  2  0  0  0  0  0  0
  -19.4840  -26.6170   21.6100 C   0  0  0  0  0  2  0  0  0  0  0  0
  -18.1160  -26.7340   22.2880 C   0  0  0  0  0  2  0  0  0  0  0  0
  -19.0570  -28.8380   23.4090 C   0  0  0  0  0  0  0  0  0  0  0  0
  -18.8360  -30.0880   24.0270 C   0  0  0  0  0  3  0  0  0  0  0  0
  -17.5310  -30.5720   24.2290 C   0  0  0  0  0  3  0  0  0  0  0  0
  -16.4270  -29.8010   23.8240 C   0  0  0  0  0  3  0  0  0  0  0  0
  -16.6320  -28.5530   23.2120 C   0  0  0  0  0  3  0  0  0  0  0  0
  -25.6720  -32.6480   23.8420 C   0  0  0  0  0  3  0  0  0  0  0  0
  -26.2320  -31.8740   25.0980 C   0  0  1  0  0  0  0  0  0  0  0  0
  -25.1630  -31.5900   26.1800 C   0  0  0  0  0  1  0  0  0  0  0  0
  -26.8470  -30.5210   24.6740 C   0  0  0  0  0  1  0  0  0  0  0  0
  -27.3730  -32.6910   25.7510 C   0  0  0  0  0  1  0  0  0  0  0  0
  -25.3260  -34.0300   24.1950 N   0  0  0  0  0  0  0  0  0  0  0  0
  -25.6210  -35.1020   23.4470 C   0  0  0  0  0  0  0  0  0  0  0  0
  -26.2860  -35.0340   22.4110 O   0  0  0  0  0  0  0  0  0  0  0  0
  -24.7320  -34.1550   25.0000 H   0  0  0  0  0  0  0  0  0  0  0  0
  -23.8320  -36.8390   23.1330 C   0  0  0  0  0  1  0  0  0  0  0  0
  -25.0950  -36.4680   23.9270 C   0  0  0  0  0  3  0  0  0  0  0  0
  -27.2130  -37.4060   24.7410 C   0  0  0  0  0  1  0  0  0  0  0  0
  -26.0920  -37.5550   23.8150 N   0  0  0  0  0  0  0  0  0  0  0  0
  -25.6600  -38.4600   23.9850 H   0  0  0  0  0  0  0  0  0  0  0  0
  -28.8950  -23.6550   10.9560 C   0  0  0  0  0  2  0  0  0  0  0  0
  -28.7620  -23.6020   12.3740 O   0  0  0  0  0  0  0  0  0  0  0  0
  -29.3200  -22.4220   12.9330 C   0  0  0  0  0  2  0  0  0  0  0  0
  -29.2210  -22.5050   14.4600 C   0  0  0  0  0  2  0  0  0  0  0  0
  -29.6270  -21.1950   15.1460 C   0  0  0  0  0  2  0  0  0  0  0  0
  -29.3950  -21.3120   16.5430 O   0  0  0  0  0  0  0  0  0  0  0  0
  -29.5450  -20.0750   17.2260 C   0  0  0  0  0  2  0  0  0  0  0  0
  -29.1880  -20.2740   18.7050 C   0  0  0  0  0  2  0  0  0  0  0  0
  -29.1100  -18.9570   19.4890 C   0  0  0  0  0  2  0  0  0  0  0  0
  -30.4040  -18.3750   19.5750 O   0  0  0  0  0  0  0  0  0  0  0  0
  -30.4160  -17.1870   20.3550 C   0  0  0  0  0  2  0  0  0  0  0  0
  -31.8550  -16.6610   20.4270 C   0  0  0  0  0  2  0  0  0  0  0  0
  -32.0450  -15.4850   21.4060 C   0  0  0  0  0  2  0  0  0  0  0  0
  -31.6340  -13.4130   20.0740 C   0  0  0  0  0  0  0  0  0  0  0  0
  -30.9570  -11.3840   18.8460 C   0  0  0  0  0  2  0  0  0  0  0  0
  -30.0390  -11.7350   17.6590 C   0  0  0  0  0  2  0  0  0  0  0  0
  -28.5690  -11.8200   18.1100 C   0  0  0  0  0  2  0  0  0  0  0  0
  -28.3840  -12.7070   19.3690 C   0  0  0  0  0  3  0  0  0  0  0  0
  -29.3970  -12.3130   20.4660 C   0  0  0  0  0  2  0  0  0  0  0  0
  -30.7560  -12.3920   19.8950 N   0  0  0  0  0  0  0  0  0  0  0  0
  -32.6800  -13.5330   19.4310 O   0  0  0  0  0  0  0  0  0  0  0  0
  -31.2880  -14.2950   21.0200 N   0  0  0  0  0  0  0  0  0  0  0  0
  -30.4330  -14.1030   21.5210 H   0  0  0  0  0  0  0  0  0  0  0  0
  -26.0970  -13.6800   20.0490 C   0  0  0  0  0  0  0  0  0  0  0  0
  -24.9360  -13.0830   20.4610 C   0  0  0  0  0  0  0  0  0  0  0  0
  -25.2040  -11.6820   20.4970 C   0  0  0  0  0  0  0  0  0  0  0  0
  -27.0080  -12.6520   19.8620 N   0  0  0  0  0  0  0  0  0  0  0  0
  -26.4730  -11.4470   20.1850 N   0  0  0  0  0  0  0  0  0  0  0  0
  -24.3120  -10.5420   20.7560 C   0  0  0  0  0  0  0  0  0  0  0  0
  -24.6370   -9.5520   21.7080 C   0  0  0  0  0  3  0  0  0  0  0  0
  -23.7560   -8.4770   21.9510 C   0  0  0  0  0  3  0  0  0  0  0  0
  -22.5350   -8.3850   21.2410 C   0  0  0  0  0  0  0  0  0  0  0  0
  -22.2270   -9.3620   20.2780 C   0  0  0  0  0  3  0  0  0  0  0  0
  -23.1080  -10.4290   20.0330 C   0  0  0  0  0  3  0  0  0  0  0  0
  -21.6300   -7.3630   21.3920 O   0  0  0  0  0  0  0  0  0  0  0  0
  -21.5320   -6.6550   22.5640 C   0  0  0  0  0  0  0  0  0  0  0  0
  -21.2880   -7.2910   23.8000 C   0  0  0  0  0  3  0  0  0  0  0  0
  -21.1260   -6.5190   24.9690 C   0  0  0  0  0  3  0  0  0  0  0  0
  -21.1980   -5.1150   24.9010 C   0  0  0  0  0  0  0  0  0  0  0  0
  -21.4350   -4.4800   23.6690 C   0  0  0  0  0  3  0  0  0  0  0  0
  -21.5990   -5.2480   22.5030 C   0  0  0  0  0  0  0  0  0  0  0  0
  -21.8060   -4.6310   21.3150 F   0  0  0  0  0  0  0  0  0  0  0  0
  -21.0350   -4.3720   26.0210 F   0  0  0  0  0  0  0  0  0  0  0  0
  -23.6220  -13.7630   20.7170 C   0  0  0  0  0  0  0  0  0  0  0  0
  -22.8240  -13.2290   21.6360 N   0  0  0  0  0  0  0  0  0  0  0  0
  -23.3150  -14.8030   20.1350 O   0  0  0  0  0  0  0  0  0  0  0  0
  -23.0850  -12.3880   22.1280 H   0  0  0  0  0  0  0  0  0  0  0  0
  -21.9400  -13.6700   21.8500 H   0  0  0  0  0  0  0  0  0  0  0  0
  -26.4490  -15.0040   19.7990 N   0  0  0  0  0  0  0  0  0  0  0  0
  -25.7810  -15.7630   19.8730 H   0  0  0  0  0  0  0  0  0  0  0  0
  -27.3480  -15.2970   19.4440 H   0  0  0  0  0  0  0  0  0  0  0  0
  1 60  1  0
  1  8  1  0
  2  1  1  0
  2  4  2  0
  3  2  1  0
  5  3  1  0
  6  3  1  0
  7 11  1  0
  8  7  1  0
  8 10  1  0
  9  7  2  0
 11 12  1  0
 12 13  1  0
 13 14  1  0
 14 15  1  0
 15 16  1  0
 16 17  1  0
 17 18  1  0
 18 19  1  0
 19 21  1  0
 20 31  2  0
 21 26  1  0
 22 30  1  0
 22 32  1  0
 23 29  1  0
 23 25  1  0
 24 30  1  0
 25 24  1  0
 26 25  2  0
 27 28  1  0
 27 21  2  0
 28 23  2  0
 29 22  1  0
 30 20  1  0
 32 34  2  0
 33 32  1  0
 35 33  1  0
 36 45  2  0
 36 41  1  0
 37 33  1  0
 37 41  1  0
 38 37  1  0
 39 40  1  0
 39 38  1  0
 40 36  1  0
 41 42  2  0
 42 43  1  0
 44 43  2  0
 45 44  1  0
 46 20  1  0
 46 51  1  0
 46 47  1  0
 47 50  1  1
 47 48  1  0
 49 47  1  0
 51 54  1  0
 52 56  1  0
 52 51  1  0
 53 52  2  0
 56 55  1  0
 58 56  1  0
 58 59  1  0
 58 57  1  0
 60 61  1  0
 61 62  1  0
 62 63  1  0
 63 64  1  0
 64 65  1  0
 65 66  1  0
 66 67  1  0
 67 68  1  0
 68 69  1  0
 69 70  1  0
 70 71  1  0
 71 72  1  0
 73 81  1  0
 74 79  1  0
 75 76  1  0
 75 74  1  0
 77 76  1  0
 77 86  1  0
 77 78  1  0
 79 73  1  0
 79 78  1  0
 80 73  2  0
 81 72  1  0
 81 82  1  0
 83 84  2  0
 84 85  1  0
 84103  1  0
 85 88  1  0
 86 83  1  0
 86 87  1  0
 87 85  2  0
 88 89  1  0
 89 90  2  0
 91 94  1  0
 91 90  1  0
 92 91  2  0
 93 92  1  0
 93 88  2  0
 94 95  1  0
 95 96  1  0
 96 97  2  0
 98 97  1  0
 98102  1  0
 99 98  2  0
100 95  2  0
100 99  1  0
101100  1  0
103104  1  0
104107  1  0
104106  1  0
105103  2  0
108109  1  0
108 83  1  0
110108  1  0
M  ISO  4  18 101  19 101  73 100  81 100
M  END
>  <TORSDO>  (77) 
F 39

>  <SCORE>  (77) 
-7.271

>  <name>  (77) 
77

>  <ligand_id>  (77) 
77

>  <original_smiles>  (77) 
[H]c1c([H])c([H])c2c(c1[H])C([H])([H])C([H])([H])C([H])([H])C2([H])N([H])C(=O)C1([H])N(C(=O)C([H])(N([H])C(=O)C([H])(N([H])C([H])([H])[H])C([H])([H])[H])C(C([H])([H])[H])(C([H])([H])[H])C([H])([H])[H])C([H])([H])c2c([H])c(OC([H])([H])C([H])([H])OC([H])([H])C([H])([H])OC([H])([H])C([H])([H])C(=O)N([H])C([H])(C(=O)N([H])[H])C([H])([H])OC([H])([H])C([H])([H])C([H])([H])OC([H])([H])C([H])([H])C([H])([H])OC([H])([H])C([H])([H])C([H])([H])N([H])C(=O)N3C([H])([H])C([H])([H])C([H])([H])C([H])(n4nc(-c5c([H])c([H])c(Oc6c([H])c([H])c(F)c([H])c6F)c([H])c5[H])c(C(=O)N([H])[H])c4N([H])[H])C3([H])[H])c([H])c([H])c2C1([H])[H]

>  <smiles>  (77) 
[H]c1c([H])c([H])c2c(c1[H])C([H])([H])C([H])([H])C([H])([H])C2([H])N([H])C(=O)C1([H])N(C(=O)C([H])(N([H])C(=O)C([H])(N([H])C([H])([H])[H])C([H])([H])[H])C(C([H])([H])[H])(C([H])([H])[H])C([H])([H])[H])C([H])([H])c2c([H])c(OC([H])([H])C([H])([H])OC([H])([H])C([H])([H])OC([H])([H])C([H])([H])C(=O)N([H])C([H])(C(=O)N([H])[H])C([H])([H])OC([H])([H])C([H])([H])C([H])([H])OC([H])([H])C([H])([H])C([H])([H])OC([H])([H])C([H])([H])C([H])([H])N([H])C(=O)N3C([H])([H])C([H])([H])C([H])([H])C([H])(n4nc(-c5c([H])c([H])c(Oc6c([H])c([H])c(F)c([H])c6F)c([H])c5[H])c(C(=O)N([H])[H])c4N([H])[H])C3([H])[H])c([H])c([H])c2C1([H])[H]

$$$$
78:0:0
     RDKit          3D

 90 97  0  0  1  0  0  0  0  0999 V2000
  -28.2140  -22.4130   18.4610 C   0  0  0  0  0  2  0  0  0  0  0  0
  -28.7500  -23.7550   18.9900 C   0  0  0  0  0  2  0  0  0  0  0  0
  -28.3360  -24.9600   18.1310 C   0  0  0  0  0  2  0  0  0  0  0  0
  -28.7570  -26.3520   18.6770 C   0  0  0  0  0  2  0  0  0  0  0  0
  -28.3140  -26.6940   20.0060 O   0  0  0  0  0  0  0  0  0  0  0  0
  -24.5400  -31.8680   23.2430 C   0  0  0  0  0  0  0  0  0  0  0  0
  -27.1470  -27.4240   20.0930 C   0  0  0  0  0  0  0  0  0  0  0  0
  -23.3220  -30.4780   21.6060 C   0  0  0  0  0  3  0  0  0  0  0  0
  -24.7580  -28.9370   20.1740 C   0  0  0  0  0  0  0  0  0  0  0  0
  -25.8530  -30.8150   21.4030 C   0  0  0  0  0  2  0  0  0  0  0  0
  -25.9280  -29.4460   20.7570 C   0  0  0  0  0  0  0  0  0  0  0  0
  -27.1260  -28.6910   20.7220 C   0  0  0  0  0  3  0  0  0  0  0  0
  -25.9450  -26.9120   19.5640 C   0  0  0  0  0  3  0  0  0  0  0  0
  -24.7600  -27.6640   19.5880 C   0  0  0  0  0  3  0  0  0  0  0  0
  -23.5240  -29.8040   20.2250 C   0  0  0  0  0  2  0  0  0  0  0  0
  -24.5910  -31.0670   22.1420 N   0  0  0  0  0  0  0  0  0  0  0  0
  -23.4620  -32.1460   23.7850 O   0  0  0  0  0  0  0  0  0  0  0  0
  -22.6660  -29.4560   22.5640 C   0  0  0  0  0  0  0  0  0  0  0  0
  -21.3400  -29.2850   22.4420 N   0  0  0  0  0  0  0  0  0  0  0  0
  -23.3470  -28.8210   23.3710 O   0  0  0  0  0  0  0  0  0  0  0  0
  -20.8490  -29.8530   21.7660 H   0  0  0  0  0  0  0  0  0  0  0  0
  -17.9560  -28.1250   22.9490 C   0  0  0  0  0  0  0  0  0  0  0  0
  -20.5180  -28.3510   23.2100 C   0  0  0  0  0  3  0  0  0  0  0  0
  -20.5990  -26.9220   22.6220 C   0  0  0  0  0  2  0  0  0  0  0  0
  -19.4870  -26.6190   21.6110 C   0  0  0  0  0  2  0  0  0  0  0  0
  -18.1120  -26.7780   22.2650 C   0  0  0  0  0  2  0  0  0  0  0  0
  -19.0850  -28.8710   23.3780 C   0  0  0  0  0  0  0  0  0  0  0  0
  -18.8850  -30.1340   23.9760 C   0  0  0  0  0  3  0  0  0  0  0  0
  -17.5880  -30.6520   24.1510 C   0  0  0  0  0  3  0  0  0  0  0  0
  -16.4720  -29.9020   23.7400 C   0  0  0  0  0  3  0  0  0  0  0  0
  -16.6560  -28.6420   23.1450 C   0  0  0  0  0  3  0  0  0  0  0  0
  -25.8310  -32.4900   23.8610 C   0  0  0  0  0  3  0  0  0  0  0  0
  -26.3400  -31.7230   25.1430 C   0  0  1  0  0  0  0  0  0  0  0  0
  -25.2470  -31.5070   26.2160 C   0  0  0  0  0  1  0  0  0  0  0  0
  -26.9050  -30.3350   24.7620 C   0  0  0  0  0  1  0  0  0  0  0  0
  -27.4980  -32.5100   25.7990 C   0  0  0  0  0  1  0  0  0  0  0  0
  -25.5370  -33.8940   24.1760 N   0  0  0  0  0  0  0  0  0  0  0  0
  -25.8900  -34.9350   23.4110 C   0  0  0  0  0  0  0  0  0  0  0  0
  -26.5660  -34.8130   22.3860 O   0  0  0  0  0  0  0  0  0  0  0  0
  -24.9290  -34.0620   24.9650 H   0  0  0  0  0  0  0  0  0  0  0  0
  -24.1870  -36.7450   23.0230 C   0  0  0  0  0  1  0  0  0  0  0  0
  -25.4140  -36.3320   23.8500 C   0  0  0  0  0  3  0  0  0  0  0  0
  -27.5500  -37.1950   24.6990 C   0  0  0  0  0  1  0  0  0  0  0  0
  -26.4610  -37.3720   23.7420 N   0  0  0  0  0  0  0  0  0  0  0  0
  -26.0650  -38.2980   23.8810 H   0  0  0  0  0  0  0  0  0  0  0  0
  -28.6500  -21.3850   19.3460 O   0  0  0  0  0  0  0  0  0  0  0  0
  -27.8870  -20.1840   19.2570 C   0  0  0  0  0  2  0  0  0  0  0  0
  -28.1910  -19.2870   20.4700 C   0  0  0  0  0  2  0  0  0  0  0  0
  -29.2640  -18.3900   20.2040 O   0  0  0  0  0  0  0  0  0  0  0  0
  -29.5880  -17.5810   21.3370 C   0  0  0  0  0  2  0  0  0  0  0  0
  -30.9760  -14.3190   20.1530 C   0  0  0  0  0  0  0  0  0  0  0  0
  -30.5650  -12.2110   18.9430 C   0  0  0  0  0  2  0  0  0  0  0  0
  -29.5910  -12.4760   17.7780 C   0  0  0  0  0  2  0  0  0  0  0  0
  -28.1250  -12.3880   18.2500 C   0  0  0  0  0  2  0  0  0  0  0  0
  -27.8610  -13.1940   19.5490 C   0  0  0  0  0  3  0  0  0  0  0  0
  -28.9410  -12.8950   20.6110 C   0  0  0  0  0  2  0  0  0  0  0  0
  -30.2580  -13.1730   20.0110 N   0  0  0  0  0  0  0  0  0  0  0  0
  -32.0900  -14.4650   19.6410 O   0  0  0  0  0  0  0  0  0  0  0  0
  -30.6860  -16.5910   20.9430 C   0  0  0  0  0  0  0  0  0  0  0  0
  -30.2980  -15.3180   20.7460 N   0  0  0  0  0  0  0  0  0  0  0  0
  -31.8400  -17.0180   20.7960 O   0  0  0  0  0  0  0  0  0  0  0  0
  -29.3460  -15.1070   20.9960 H   0  0  0  0  0  0  0  0  0  0  0  0
  -25.4950  -13.8520   20.3200 C   0  0  0  0  0  0  0  0  0  0  0  0
  -24.4240  -13.0990   20.7230 C   0  0  0  0  0  0  0  0  0  0  0  0
  -24.8620  -11.7400   20.6840 C   0  0  0  0  0  0  0  0  0  0  0  0
  -26.5170  -12.9500   20.0650 N   0  0  0  0  0  0  0  0  0  0  0  0
  -26.1410  -11.6770   20.3420 N   0  0  0  0  0  0  0  0  0  0  0  0
  -24.1230  -10.4900   20.8960 C   0  0  0  0  0  0  0  0  0  0  0  0
  -24.5300   -9.5400   21.8580 C   0  0  0  0  0  3  0  0  0  0  0  0
  -23.7840   -8.3570   22.0540 C   0  0  0  0  0  3  0  0  0  0  0  0
  -22.6210   -8.1160   21.2850 C   0  0  0  0  0  0  0  0  0  0  0  0
  -22.2370   -9.0530   20.3100 C   0  0  0  0  0  3  0  0  0  0  0  0
  -22.9810  -10.2270   20.1130 C   0  0  0  0  0  3  0  0  0  0  0  0
  -21.8460   -6.9860   21.3900 O   0  0  0  0  0  0  0  0  0  0  0  0
  -21.7320   -6.3000   22.5720 C   0  0  0  0  0  0  0  0  0  0  0  0
  -21.2520   -6.9180   23.7500 C   0  0  0  0  0  3  0  0  0  0  0  0
  -21.0850   -6.1570   24.9240 C   0  0  0  0  0  3  0  0  0  0  0  0
  -21.3870   -4.7810   24.9210 C   0  0  0  0  0  0  0  0  0  0  0  0
  -21.8610   -4.1650   23.7490 C   0  0  0  0  0  3  0  0  0  0  0  0
  -22.0300   -4.9220   22.5770 C   0  0  0  0  0  0  0  0  0  0  0  0
  -22.4640   -4.3200   21.4430 F   0  0  0  0  0  0  0  0  0  0  0  0
  -21.2230   -4.0490   26.0480 F   0  0  0  0  0  0  0  0  0  0  0  0
  -23.0410  -13.5980   21.0280 C   0  0  0  0  0  0  0  0  0  0  0  0
  -22.3290  -12.9210   21.9240 N   0  0  0  0  0  0  0  0  0  0  0  0
  -22.6020  -14.6230   20.5080 O   0  0  0  0  0  0  0  0  0  0  0  0
  -22.7040  -12.0970   22.3680 H   0  0  0  0  0  0  0  0  0  0  0  0
  -21.3980  -13.2310   22.1670 H   0  0  0  0  0  0  0  0  0  0  0  0
  -25.6760  -15.2200   20.1330 N   0  0  0  0  0  0  0  0  0  0  0  0
  -24.9140  -15.8780   20.2540 H   0  0  0  0  0  0  0  0  0  0  0  0
  -26.5020  -15.6500   19.7420 H   0  0  0  0  0  0  0  0  0  0  0  0
  1  2  1  0
  1 46  1  0
  3  4  1  0
  3  2  1  0
  4  5  1  0
  5  7  1  0
  6 17  2  0
  7 12  1  0
  8 16  1  0
  8 18  1  0
  9 15  1  0
  9 11  1  0
 10 16  1  0
 11 10  1  0
 12 11  2  0
 13 14  1  0
 13  7  2  0
 14  9  2  0
 15  8  1  0
 16  6  1  0
 18 20  2  0
 19 18  1  0
 21 19  1  0
 22 31  2  0
 22 27  1  0
 23 19  1  0
 23 27  1  0
 24 23  1  0
 25 26  1  0
 25 24  1  0
 26 22  1  0
 27 28  2  0
 28 29  1  0
 30 29  2  0
 31 30  1  0
 32  6  1  0
 32 37  1  0
 32 33  1  0
 33 36  1  1
 33 34  1  0
 35 33  1  0
 37 40  1  0
 38 42  1  0
 38 37  1  0
 39 38  2  0
 42 41  1  0
 44 42  1  0
 44 45  1  0
 44 43  1  0
 47 46  1  0
 47 48  1  0
 49 48  1  0
 49 50  1  0
 51 60  1  0
 52 57  1  0
 53 54  1  0
 53 52  1  0
 55 54  1  0
 55 66  1  0
 55 56  1  0
 57 51  1  0
 57 56  1  0
 58 51  2  0
 59 50  1  0
 60 59  1  0
 60 62  1  0
 61 59  2  0
 63 64  2  0
 64 83  1  0
 65 64  1  0
 65 68  1  0
 66 63  1  0
 66 67  1  0
 67 65  2  0
 68 69  1  0
 69 70  2  0
 71 74  1  0
 71 70  1  0
 72 71  2  0
 73 72  1  0
 73 68  2  0
 74 75  1  0
 75 80  2  0
 75 76  1  0
 76 77  2  0
 78 77  1  0
 78 82  1  0
 79 78  2  0
 80 79  1  0
 81 80  1  0
 83 84  1  0
 84 87  1  0
 84 86  1  0
 85 83  2  0
 88 89  1  0
 88 63  1  0
 90 88  1  0
M  ISO  4   4 101   5 101  51 100  60 100
M  END
>  <TORSDO>  (78) 
F 24

>  <SCORE>  (78) 
-12.198

>  <name>  (78) 
78

>  <ligand_id>  (78) 
78

>  <original_smiles>  (78) 
[H]c1c([H])c([H])c2c(c1[H])C([H])([H])C([H])([H])C([H])([H])C2([H])N([H])C(=O)C1([H])N(C(=O)C([H])(N([H])C(=O)C([H])(N([H])C([H])([H])[H])C([H])([H])[H])C(C([H])([H])[H])(C([H])([H])[H])C([H])([H])[H])C([H])([H])c2c([H])c(OC([H])([H])C([H])([H])C([H])([H])C([H])([H])OC([H])([H])C([H])([H])OC([H])([H])C(=O)N([H])C(=O)N3C([H])([H])C([H])([H])C([H])([H])C([H])(n4nc(-c5c([H])c([H])c(Oc6c([H])c([H])c(F)c([H])c6F)c([H])c5[H])c(C(=O)N([H])[H])c4N([H])[H])C3([H])[H])c([H])c([H])c2C1([H])[H]

>  <smiles>  (78) 
[H]c1c([H])c([H])c2c(c1[H])C([H])([H])C([H])([H])C([H])([H])C2([H])N([H])C(=O)C1([H])N(C(=O)C([H])(N([H])C(=O)C([H])(N([H])C([H])([H])[H])C([H])([H])[H])C(C([H])([H])[H])(C([H])([H])[H])C([H])([H])[H])C([H])([H])c2c([H])c(OC([H])([H])C([H])([H])C([H])([H])C([H])([H])OC([H])([H])C([H])([H])OC([H])([H])C(=O)N([H])C(=O)N3C([H])([H])C([H])([H])C([H])([H])C([H])(n4nc(-c5c([H])c([H])c(Oc6c([H])c([H])c(F)c([H])c6F)c([H])c5[H])c(C(=O)N([H])[H])c4N([H])[H])C3([H])[H])c([H])c([H])c2C1([H])[H]

$$$$
79:0:0
     RDKit          3D

 99106  0  0  1  0  0  0  0  0999 V2000
  -31.4730  -20.1790   21.0400 C   0  0  0  0  0  2  0  0  0  0  0  0
  -30.7620  -17.7750   21.0800 C   0  0  0  0  0  0  0  0  0  0  0  0
  -30.5350  -19.0750   20.8890 N   0  0  0  0  0  0  0  0  0  0  0  0
  -31.7870  -17.3450   21.6110 O   0  0  0  0  0  0  0  0  0  0  0  0
  -29.6630  -19.3160   20.4230 H   0  0  0  0  0  0  0  0  0  0  0  0
  -29.6590  -16.8310   20.5740 C   0  0  0  0  0  3  0  0  0  0  0  0
  -30.5860  -14.5040   20.4450 C   0  0  0  0  0  0  0  0  0  0  0  0
  -30.2920  -12.4150   19.1900 C   0  0  0  0  0  2  0  0  0  0  0  0
  -29.3250  -12.7130   18.0230 C   0  0  0  0  0  2  0  0  0  0  0  0
  -27.8570  -12.5640   18.4700 C   0  0  0  0  0  2  0  0  0  0  0  0
  -27.5510  -13.3120   19.7950 C   0  0  0  0  0  3  0  0  0  0  0  0
  -28.6240  -12.9840   20.8620 C   0  0  0  0  0  2  0  0  0  0  0  0
  -29.9480  -13.3150   20.2990 N   0  0  0  0  0  0  0  0  0  0  0  0
  -31.6640  -14.7730   19.9070 O   0  0  0  0  0  0  0  0  0  0  0  0
  -29.8200  -15.4390   21.0180 N   0  0  0  0  0  0  0  0  0  0  0  0
  -29.0370  -15.0720   21.5360 H   0  0  0  0  0  0  0  0  0  0  0  0
  -25.1400  -13.8920   20.4980 C   0  0  0  0  0  0  0  0  0  0  0  0
  -24.0860  -13.1050   20.8750 C   0  0  0  0  0  0  0  0  0  0  0  0
  -24.5670  -11.7600   20.8430 C   0  0  0  0  0  0  0  0  0  0  0  0
  -26.2000  -13.0250   20.2710 N   0  0  0  0  0  0  0  0  0  0  0  0
  -25.8550  -11.7390   20.5290 N   0  0  0  0  0  0  0  0  0  0  0  0
  -23.8630  -10.4860   21.0360 C   0  0  0  0  0  0  0  0  0  0  0  0
  -24.3170   -9.5250   21.9640 C   0  0  0  0  0  3  0  0  0  0  0  0
  -23.6120   -8.3160   22.1460 C   0  0  0  0  0  3  0  0  0  0  0  0
  -22.4390   -8.0590   21.3950 C   0  0  0  0  0  0  0  0  0  0  0  0
  -22.0050   -9.0100   20.4550 C   0  0  0  0  0  3  0  0  0  0  0  0
  -22.7110  -10.2100   20.2720 C   0  0  0  0  0  3  0  0  0  0  0  0
  -21.7040   -6.9020   21.4870 O   0  0  0  0  0  0  0  0  0  0  0  0
  -21.6770   -6.1560   22.6380 C   0  0  0  0  0  0  0  0  0  0  0  0
  -21.2600   -6.7020   23.8710 C   0  0  0  0  0  3  0  0  0  0  0  0
  -21.1820   -5.8820   25.0140 C   0  0  0  0  0  3  0  0  0  0  0  0
  -21.5090   -4.5150   24.9250 C   0  0  0  0  0  0  0  0  0  0  0  0
  -21.9200   -3.9680   23.6970 C   0  0  0  0  0  3  0  0  0  0  0  0
  -22.0010   -4.7860   22.5550 C   0  0  0  0  0  0  0  0  0  0  0  0
  -22.3770   -4.2500   21.3690 F   0  0  0  0  0  0  0  0  0  0  0  0
  -21.4280   -3.7250   26.0200 F   0  0  0  0  0  0  0  0  0  0  0  0
  -22.6830  -13.5590   21.1580 C   0  0  0  0  0  0  0  0  0  0  0  0
  -21.9710  -12.8480   22.0260 N   0  0  0  0  0  0  0  0  0  0  0  0
  -22.2240  -14.5790   20.6450 O   0  0  0  0  0  0  0  0  0  0  0  0
  -22.3530  -12.0230   22.4620 H   0  0  0  0  0  0  0  0  0  0  0  0
  -21.0300  -13.1350   22.2580 H   0  0  0  0  0  0  0  0  0  0  0  0
  -25.2830  -15.2640   20.3100 N   0  0  0  0  0  0  0  0  0  0  0  0
  -24.5010  -15.9040   20.3970 H   0  0  0  0  0  0  0  0  0  0  0  0
  -26.1120  -15.7050   19.9350 H   0  0  0  0  0  0  0  0  0  0  0  0
  -29.3880  -16.9320   19.0370 C   0  0  0  0  0  2  0  0  0  0  0  0
  -28.4850  -18.0930   18.5980 C   0  0  0  0  0  0  0  0  0  0  0  0
  -28.2970  -18.2610   17.2940 N   0  0  0  0  0  0  0  0  0  0  0  0
  -27.9490  -18.8380   19.4140 O   0  0  0  0  0  0  0  0  0  0  0  0
  -28.7340  -17.6460   16.6220 H   0  0  0  0  0  0  0  0  0  0  0  0
  -27.6920  -18.9990   16.9620 H   0  0  0  0  0  0  0  0  0  0  0  0
  -31.7020  -20.8020   19.6550 C   0  0  0  0  0  2  0  0  0  0  0  0
  -30.4230  -21.0470   19.0750 O   0  0  0  0  0  0  0  0  0  0  0  0
  -30.4360  -21.2590   17.6660 C   0  0  0  0  0  2  0  0  0  0  0  0
  -30.8100  -22.7050   17.3120 C   0  0  0  0  0  2  0  0  0  0  0  0
  -29.7480  -23.5510   17.7300 O   0  0  0  0  0  0  0  0  0  0  0  0
  -30.0190  -24.9240   17.5010 C   0  0  0  0  0  2  0  0  0  0  0  0
  -28.8460  -25.7670   18.0220 C   0  0  0  0  0  2  0  0  0  0  0  0
  -28.5970  -25.5840   19.5310 C   0  0  0  0  0  2  0  0  0  0  0  0
  -28.4320  -26.8350   20.1890 O   0  0  0  0  0  0  0  0  0  0  0  0
  -24.5700  -31.9020   23.2730 C   0  0  0  0  0  0  0  0  0  0  0  0
  -27.2200  -27.4870   20.1700 C   0  0  0  0  0  0  0  0  0  0  0  0
  -23.3580  -30.4960   21.6380 C   0  0  0  0  0  3  0  0  0  0  0  0
  -24.8070  -28.9610   20.2070 C   0  0  0  0  0  0  0  0  0  0  0  0
  -25.8800  -30.8640   21.4280 C   0  0  0  0  0  2  0  0  0  0  0  0
  -25.9620  -29.4930   20.7900 C   0  0  0  0  0  0  0  0  0  0  0  0
  -27.1660  -28.7600   20.7740 C   0  0  0  0  0  3  0  0  0  0  0  0
  -26.0440  -26.9570   19.5890 C   0  0  0  0  0  3  0  0  0  0  0  0
  -24.8400  -27.6890   19.6080 C   0  0  0  0  0  3  0  0  0  0  0  0
  -23.5620  -29.8160   20.2570 C   0  0  0  0  0  2  0  0  0  0  0  0
  -24.6210  -31.1020   22.1710 N   0  0  0  0  0  0  0  0  0  0  0  0
  -23.4920  -32.1740   23.8180 O   0  0  0  0  0  0  0  0  0  0  0  0
  -22.7160  -29.4740   22.6010 C   0  0  0  0  0  0  0  0  0  0  0  0
  -21.3920  -29.2830   22.4730 N   0  0  0  0  0  0  0  0  0  0  0  0
  -23.4030  -28.8550   23.4180 O   0  0  0  0  0  0  0  0  0  0  0  0
  -20.9000  -29.8330   21.7830 H   0  0  0  0  0  0  0  0  0  0  0  0
  -18.0260  -28.0670   22.9560 C   0  0  0  0  0  0  0  0  0  0  0  0
  -20.5790  -28.3450   23.2460 C   0  0  0  0  0  3  0  0  0  0  0  0
  -20.6980  -26.9110   22.6790 C   0  0  0  0  0  2  0  0  0  0  0  0
  -19.6040  -26.5740   21.6610 C   0  0  0  0  0  2  0  0  0  0  0  0
  -18.2170  -26.7140   22.2920 C   0  0  0  0  0  2  0  0  0  0  0  0
  -19.1360  -28.8410   23.3880 C   0  0  0  0  0  0  0  0  0  0  0  0
  -18.9040  -30.1080   23.9640 C   0  0  0  0  0  3  0  0  0  0  0  0
  -17.5950  -30.6020   24.1160 C   0  0  0  0  0  3  0  0  0  0  0  0
  -16.4990  -29.8260   23.7010 C   0  0  0  0  0  3  0  0  0  0  0  0
  -16.7150  -28.5610   23.1260 C   0  0  0  0  0  3  0  0  0  0  0  0
  -25.8600  -32.5330   23.8860 C   0  0  0  0  0  3  0  0  0  0  0  0
  -25.5570  -33.9350   24.2030 N   0  0  0  0  0  0  0  0  0  0  0  0
  -25.8970  -34.9790   23.4370 C   0  0  0  0  0  0  0  0  0  0  0  0
  -26.5710  -34.8620   22.4080 O   0  0  0  0  0  0  0  0  0  0  0  0
  -24.9560  -34.1000   24.9980 H   0  0  0  0  0  0  0  0  0  0  0  0
  -24.1780  -36.7740   23.0550 C   0  0  0  0  0  1  0  0  0  0  0  0
  -25.4120  -36.3720   23.8780 C   0  0  0  0  0  3  0  0  0  0  0  0
  -27.5470  -37.2520   24.7110 C   0  0  0  0  0  1  0  0  0  0  0  0
  -26.4500  -37.4200   23.7640 N   0  0  0  0  0  0  0  0  0  0  0  0
  -26.0470  -38.3420   23.9040 H   0  0  0  0  0  0  0  0  0  0  0  0
  -26.3800  -31.7690   25.1660 C   0  0  1  0  0  0  0  0  0  0  0  0
  -25.2910  -31.5420   26.2400 C   0  0  0  0  0  1  0  0  0  0  0  0
  -26.9600  -30.3890   24.7790 C   0  0  0  0  0  1  0  0  0  0  0  0
  -27.5330  -32.5670   25.8190 C   0  0  0  0  0  1  0  0  0  0  0  0
  2  4  2  0
  3  1  1  0
  3  2  1  0
  5  3  1  0
  6 45  1  0
  6 15  1  0
  6  2  1  0
  7 15  1  0
  8 13  1  0
  9 10  1  0
  9  8  1  0
 11 10  1  0
 11 20  1  0
 11 12  1  0
 13  7  1  0
 13 12  1  0
 14  7  2  0
 15 16  1  0
 17 18  2  0
 18 37  1  0
 19 18  1  0
 19 22  1  0
 20 17  1  0
 20 21  1  0
 21 19  2  0
 22 23  1  0
 23 24  2  0
 25 28  1  0
 25 24  1  0
 26 25  2  0
 27 26  1  0
 27 22  2  0
 28 29  1  0
 29 30  1  0
 30 31  2  0
 32 31  1  0
 32 36  1  0
 33 32  2  0
 34 29  2  0
 34 33  1  0
 35 34  1  0
 37 38  1  0
 38 41  1  0
 38 40  1  0
 39 37  2  0
 42 43  1  0
 42 17  1  0
 44 42  1  0
 46 45  1  0
 46 48  2  0
 47 46  1  0
 49 47  1  0
 50 47  1  0
 51  1  1  0
 52 51  1  0
 53 52  1  0
 54 53  1  0
 54 55  1  0
 56 55  1  0
 56 57  1  0
 57 58  1  0
 58 59  1  0
 60 71  2  0
 61 59  1  0
 61 66  1  0
 62 70  1  0
 62 72  1  0
 63 69  1  0
 63 65  1  0
 64 70  1  0
 65 64  1  0
 66 65  2  0
 67 68  1  0
 67 61  2  0
 68 63  2  0
 69 62  1  0
 70 60  1  0
 72 74  2  0
 73 72  1  0
 75 73  1  0
 76 85  2  0
 76 81  1  0
 77 73  1  0
 77 81  1  0
 78 77  1  0
 79 80  1  0
 79 78  1  0
 80 76  1  0
 81 82  2  0
 82 83  1  0
 84 83  2  0
 85 84  1  0
 86 60  1  0
 86 87  1  0
 86 96  1  0
 87 90  1  0
 88 92  1  0
 88 87  1  0
 89 88  2  0
 92 91  1  0
 94 92  1  0
 94 95  1  0
 94 93  1  0
 96 99  1  1
 96 97  1  0
 98 96  1  0
M  ISO  4   7 100  15 100  58 101  59 101
M  END
>  <TORSDO>  (79) 
F 28

>  <SCORE>  (79) 
-11.737

>  <name>  (79) 
79

>  <ligand_id>  (79) 
79

>  <original_smiles>  (79) 
[H]c1c([H])c([H])c2c(c1[H])C([H])([H])C([H])([H])C([H])([H])C2([H])N([H])C(=O)C1([H])N(C(=O)C([H])(N([H])C(=O)C([H])(N([H])C([H])([H])[H])C([H])([H])[H])C(C([H])([H])[H])(C([H])([H])[H])C([H])([H])[H])C([H])([H])c2c([H])c(OC([H])([H])C([H])([H])C([H])([H])OC([H])([H])C([H])([H])OC([H])([H])C([H])([H])N([H])C(=O)C([H])(N([H])C(=O)N3C([H])([H])C([H])([H])C([H])([H])C([H])(n4nc(-c5c([H])c([H])c(Oc6c([H])c([H])c(F)c([H])c6F)c([H])c5[H])c(C(=O)N([H])[H])c4N([H])[H])C3([H])[H])C([H])([H])C(=O)N([H])[H])c([H])c([H])c2C1([H])[H]

>  <smiles>  (79) 
[H]c1c([H])c([H])c2c(c1[H])C([H])([H])C([H])([H])C([H])([H])C2([H])N([H])C(=O)C1([H])N(C(=O)C([H])(N([H])C(=O)C([H])(N([H])C([H])([H])[H])C([H])([H])[H])C(C([H])([H])[H])(C([H])([H])[H])C([H])([H])[H])C([H])([H])c2c([H])c(OC([H])([H])C([H])([H])C([H])([H])OC([H])([H])C([H])([H])OC([H])([H])C([H])([H])N([H])C(=O)C([H])(N([H])C(=O)N3C([H])([H])C([H])([H])C([H])([H])C([H])(n4nc(-c5c([H])c([H])c(Oc6c([H])c([H])c(F)c([H])c6F)c([H])c5[H])c(C(=O)N([H])[H])c4N([H])[H])C3([H])[H])C([H])([H])C(=O)N([H])[H])c([H])c([H])c2C1([H])[H]

$$$$
80:0:0
     RDKit          3D

 93100  0  0  1  0  0  0  0  0999 V2000
  -30.3660  -18.0540   19.9410 C   0  0  0  0  0  0  0  0  0  0  0  0
  -30.2060  -19.3710   20.2300 N   0  0  0  0  0  0  0  0  0  0  0  0
  -31.2680  -17.6470   19.2070 O   0  0  0  0  0  0  0  0  0  0  0  0
  -29.4160  -19.5790   20.8300 H   0  0  0  0  0  0  0  0  0  0  0  0
  -31.0190  -20.5530   19.8440 C   0  0  0  0  0  2  0  0  0  0  0  0
  -30.2290  -21.7900   19.2690 C   0  0  0  0  0  2  0  0  0  0  0  0
  -30.1030  -22.9340   20.1550 O   0  0  0  0  0  0  0  0  0  0  0  0
  -29.5410  -24.1380   19.5540 C   0  0  0  0  0  2  0  0  0  0  0  0
  -29.0850  -25.2410   20.5760 C   0  0  0  0  0  2  0  0  0  0  0  0
  -29.1060  -26.6290   20.1290 O   0  0  0  0  0  0  0  0  0  0  0  0
  -24.7820  -31.4980   23.1380 C   0  0  0  0  0  0  0  0  0  0  0  0
  -27.8990  -27.3150   20.0980 C   0  0  0  0  0  0  0  0  0  0  0  0
  -23.7790  -30.0940   21.3650 C   0  0  0  0  0  3  0  0  0  0  0  0
  -25.4210  -28.7010   19.9880 C   0  0  0  0  0  0  0  0  0  0  0  0
  -26.2880  -30.6070   21.3540 C   0  0  0  0  0  2  0  0  0  0  0  0
  -26.5060  -29.2660   20.6730 C   0  0  0  0  0  0  0  0  0  0  0  0
  -27.7500  -28.5850   20.7140 C   0  0  0  0  0  3  0  0  0  0  0  0
  -26.7950  -26.7700   19.4090 C   0  0  0  0  0  3  0  0  0  0  0  0
  -25.5650  -27.4560   19.3500 C   0  0  0  0  0  3  0  0  0  0  0  0
  -24.1230  -29.4820   19.9810 C   0  0  0  0  0  2  0  0  0  0  0  0
  -24.9640  -30.7480   22.0120 N   0  0  0  0  0  0  0  0  0  0  0  0
  -23.6540  -31.6810   23.6130 O   0  0  0  0  0  0  0  0  0  0  0  0
  -23.1280  -29.0000   22.2430 C   0  0  0  0  0  0  0  0  0  0  0  0
  -21.8150  -28.7860   22.0610 N   0  0  0  0  0  0  0  0  0  0  0  0
  -23.8050  -28.3490   23.0440 O   0  0  0  0  0  0  0  0  0  0  0  0
  -21.3250  -29.3650   21.3920 H   0  0  0  0  0  0  0  0  0  0  0  0
  -18.4610  -27.4800   22.4020 C   0  0  0  0  0  0  0  0  0  0  0  0
  -21.0060  -27.7760   22.7460 C   0  0  0  0  0  3  0  0  0  0  0  0
  -21.1550  -26.3930   22.0710 C   0  0  0  0  0  2  0  0  0  0  0  0
  -20.0810  -26.1200   21.0120 C   0  0  0  0  0  2  0  0  0  0  0  0
  -18.6830  -26.1880   21.6350 C   0  0  0  0  0  2  0  0  0  0  0  0
  -19.5520  -28.2340   22.9100 C   0  0  0  0  0  0  0  0  0  0  0  0
  -19.2920  -29.4470   23.5840 C   0  0  0  0  0  3  0  0  0  0  0  0
  -17.9730  -29.9050   23.7590 C   0  0  0  0  0  3  0  0  0  0  0  0
  -16.8960  -29.1460   23.2700 C   0  0  0  0  0  3  0  0  0  0  0  0
  -17.1400  -27.9360   22.5960 C   0  0  0  0  0  3  0  0  0  0  0  0
  -25.9810  -32.1810   23.8690 C   0  0  0  0  0  3  0  0  0  0  0  0
  -25.5890  -33.5650   24.1690 N   0  0  0  0  0  0  0  0  0  0  0  0
  -25.9370  -34.6300   23.4360 C   0  0  0  0  0  0  0  0  0  0  0  0
  -26.6920  -34.5570   22.4630 O   0  0  0  0  0  0  0  0  0  0  0  0
  -24.9280  -33.6950   24.9210 H   0  0  0  0  0  0  0  0  0  0  0  0
  -24.1700  -36.3490   22.9350 C   0  0  0  0  0  1  0  0  0  0  0  0
  -25.3550  -35.9960   23.8480 C   0  0  0  0  0  3  0  0  0  0  0  0
  -27.3740  -36.9710   24.8500 C   0  0  0  0  0  1  0  0  0  0  0  0
  -26.3480  -37.0920   23.8170 N   0  0  0  0  0  0  0  0  0  0  0  0
  -25.8930  -37.9950   23.9260 H   0  0  0  0  0  0  0  0  0  0  0  0
  -26.4180  -31.4280   25.1860 C   0  0  1  0  0  0  0  0  0  0  0  0
  -25.2520  -31.1560   26.1630 C   0  0  0  0  0  1  0  0  0  0  0  0
  -27.0780  -30.0710   24.8470 C   0  0  0  0  0  1  0  0  0  0  0  0
  -27.4850  -32.2610   25.9370 C   0  0  0  0  0  1  0  0  0  0  0  0
  -29.3380  -17.0570   20.5710 C   0  0  0  0  0  3  0  0  0  0  0  0
  -30.5280  -14.6440   20.3130 C   0  0  0  0  0  0  0  0  0  0  0  0
  -30.5390  -12.2490   19.6340 C   0  0  0  0  0  2  0  0  0  0  0  0
  -29.6200  -12.0950   18.3980 C   0  0  0  0  0  2  0  0  0  0  0  0
  -28.1400  -11.9290   18.8060 C   0  0  0  0  0  2  0  0  0  0  0  0
  -27.6890  -12.9830   19.8520 C   0  0  0  0  0  3  0  0  0  0  0  0
  -28.7100  -13.0420   21.0100 C   0  0  0  0  0  2  0  0  0  0  0  0
  -30.0260  -13.3760   20.4270 N   0  0  0  0  0  0  0  0  0  0  0  0
  -31.6680  -14.8790   19.9040 O   0  0  0  0  0  0  0  0  0  0  0  0
  -29.5790  -15.5800   20.5660 N   0  0  0  0  0  0  0  0  0  0  0  0
  -28.7430  -15.0990   20.8530 H   0  0  0  0  0  0  0  0  0  0  0  0
  -25.3080  -13.6460   20.5740 C   0  0  0  0  0  0  0  0  0  0  0  0
  -24.2240  -12.9000   20.9480 C   0  0  0  0  0  0  0  0  0  0  0  0
  -24.6510  -11.5370   20.9040 C   0  0  0  0  0  0  0  0  0  0  0  0
  -26.3300  -12.7410   20.3300 N   0  0  0  0  0  0  0  0  0  0  0  0
  -25.9380  -11.4670   20.5850 N   0  0  0  0  0  0  0  0  0  0  0  0
  -23.8970  -10.2920   21.0850 C   0  0  0  0  0  0  0  0  0  0  0  0
  -24.3380   -9.2840   21.9710 C   0  0  0  0  0  3  0  0  0  0  0  0
  -23.5840   -8.1030   22.1400 C   0  0  0  0  0  3  0  0  0  0  0  0
  -22.3780   -7.9220   21.4230 C   0  0  0  0  0  0  0  0  0  0  0  0
  -21.9570   -8.9180   20.5240 C   0  0  0  0  0  3  0  0  0  0  0  0
  -22.7110  -10.0910   20.3520 C   0  0  0  0  0  3  0  0  0  0  0  0
  -21.5970   -6.7930   21.5020 O   0  0  0  0  0  0  0  0  0  0  0  0
  -21.5600   -6.0240   22.6370 C   0  0  0  0  0  0  0  0  0  0  0  0
  -21.1900   -6.5600   23.8900 C   0  0  0  0  0  3  0  0  0  0  0  0
  -21.0970   -5.7170   25.0160 C   0  0  0  0  0  3  0  0  0  0  0  0
  -21.3650   -4.3410   24.8900 C   0  0  0  0  0  0  0  0  0  0  0  0
  -21.7280   -3.8050   23.6420 C   0  0  0  0  0  3  0  0  0  0  0  0
  -21.8220   -4.6450   22.5190 C   0  0  0  0  0  0  0  0  0  0  0  0
  -22.1520   -4.1200   21.3140 F   0  0  0  0  0  0  0  0  0  0  0  0
  -21.2690   -3.5290   25.9700 F   0  0  0  0  0  0  0  0  0  0  0  0
  -22.8400  -13.4110   21.2310 C   0  0  0  0  0  0  0  0  0  0  0  0
  -22.1020  -12.7370   22.1070 N   0  0  0  0  0  0  0  0  0  0  0  0
  -22.4180  -14.4430   20.7100 O   0  0  0  0  0  0  0  0  0  0  0  0
  -22.4540  -11.9070   22.5590 H   0  0  0  0  0  0  0  0  0  0  0  0
  -21.1730  -13.0610   22.3330 H   0  0  0  0  0  0  0  0  0  0  0  0
  -25.4990  -15.0120   20.4000 N   0  0  0  0  0  0  0  0  0  0  0  0
  -24.7410  -15.6760   20.5130 H   0  0  0  0  0  0  0  0  0  0  0  0
  -26.3360  -15.4270   20.0180 H   0  0  0  0  0  0  0  0  0  0  0  0
  -27.9120  -17.1850   19.9450 C   0  0  0  0  0  2  0  0  0  0  0  0
  -27.4740  -19.6770   20.4030 C   0  0  0  0  0  1  0  0  0  0  0  0
  -25.9340  -18.3580   18.9090 C   0  0  0  0  0  1  0  0  0  0  0  0
  -27.3870  -18.5310   19.3830 C   0  0  0  0  0  3  0  0  0  0  0  0
  1  2  1  0
  1 51  1  0
  2  4  1  0
  3  1  2  0
  5  2  1  0
  6  5  1  0
  6  7  1  0
  8  7  1  0
  8  9  1  0
 10  9  1  0
 11 22  2  0
 12 10  1  0
 12 17  1  0
 13 21  1  0
 13 23  1  0
 14 16  1  0
 15 21  1  0
 16 17  2  0
 16 15  1  0
 18 12  2  0
 19 18  1  0
 19 14  2  0
 20 14  1  0
 20 13  1  0
 21 11  1  0
 23 25  2  0
 24 23  1  0
 26 24  1  0
 27 36  2  0
 27 32  1  0
 28 24  1  0
 28 32  1  0
 29 28  1  0
 30 31  1  0
 30 29  1  0
 31 27  1  0
 32 33  2  0
 33 34  1  0
 35 34  2  0
 36 35  1  0
 37 11  1  0
 37 38  1  0
 37 47  1  0
 38 41  1  0
 39 43  1  0
 39 38  1  0
 40 39  2  0
 43 42  1  0
 45 43  1  0
 45 46  1  0
 45 44  1  0
 47 50  1  1
 47 48  1  0
 49 47  1  0
 51 90  1  0
 52 58  1  0
 52 60  1  0
 53 58  1  0
 54 55  1  0
 54 53  1  0
 56 55  1  0
 56 65  1  0
 56 57  1  0
 58 57  1  0
 59 52  2  0
 60 51  1  0
 60 61  1  0
 62 63  2  0
 63 82  1  0
 64 63  1  0
 64 67  1  0
 65 62  1  0
 65 66  1  0
 66 64  2  0
 67 68  1  0
 68 69  2  0
 70 73  1  0
 70 69  1  0
 71 70  2  0
 72 71  1  0
 72 67  2  0
 73 74  1  0
 74 75  1  0
 75 76  2  0
 77 76  1  0
 77 81  1  0
 78 77  2  0
 79 74  2  0
 79 78  1  0
 80 79  1  0
 82 83  1  0
 83 86  1  0
 83 85  1  0
 84 82  2  0
 87 88  1  0
 87 62  1  0
 89 87  1  0
 92 93  1  0
 93 90  1  0
 93 91  1  0
M  ISO  4   9 101  10 101  52 100  60 100
M  END
>  <TORSDO>  (80) 
F 24

>  <SCORE>  (80) 
-10.799

>  <name>  (80) 
80

>  <ligand_id>  (80) 
80

>  <original_smiles>  (80) 
[H]c1c([H])c([H])c2c(c1[H])C([H])([H])C([H])([H])C([H])([H])C2([H])N([H])C(=O)C1([H])N(C(=O)C([H])(N([H])C(=O)C([H])(N([H])C([H])([H])[H])C([H])([H])[H])C(C([H])([H])[H])(C([H])([H])[H])C([H])([H])[H])C([H])([H])c2c([H])c(OC([H])([H])C([H])([H])OC([H])([H])C([H])([H])N([H])C(=O)C([H])(N([H])C(=O)N3C([H])([H])C([H])([H])C([H])([H])C([H])(n4nc(-c5c([H])c([H])c(Oc6c([H])c([H])c(F)c([H])c6F)c([H])c5[H])c(C(=O)N([H])[H])c4N([H])[H])C3([H])[H])C([H])([H])C([H])(C([H])([H])[H])C([H])([H])[H])c([H])c([H])c2C1([H])[H]

>  <smiles>  (80) 
[H]c1c([H])c([H])c2c(c1[H])C([H])([H])C([H])([H])C([H])([H])C2([H])N([H])C(=O)C1([H])N(C(=O)C([H])(N([H])C(=O)C([H])(N([H])C([H])([H])[H])C([H])([H])[H])C(C([H])([H])[H])(C([H])([H])[H])C([H])([H])[H])C([H])([H])c2c([H])c(OC([H])([H])C([H])([H])OC([H])([H])C([H])([H])N([H])C(=O)C([H])(N([H])C(=O)N3C([H])([H])C([H])([H])C([H])([H])C([H])(n4nc(-c5c([H])c([H])c(Oc6c([H])c([H])c(F)c([H])c6F)c([H])c5[H])c(C(=O)N([H])[H])c4N([H])[H])C3([H])[H])C([H])([H])C([H])(C([H])([H])[H])C([H])([H])[H])c([H])c([H])c2C1([H])[H]

$$$$
81:0:0
     RDKit          3D

100107  0  0  1  0  0  0  0  0999 V2000
  -22.3660  -22.0990   20.8040 C   0  0  0  0  0  2  0  0  0  0  0  0
  -23.7360  -22.3980   21.0760 O   0  0  0  0  0  0  0  0  0  0  0  0
  -24.1740  -23.6480   20.5390 C   0  0  0  0  0  2  0  0  0  0  0  0
  -25.6610  -23.5600   20.1430 C   0  0  0  0  0  2  0  0  0  0  0  0
  -26.2130  -24.8740   19.5530 C   0  0  0  0  0  2  0  0  0  0  0  0
  -27.6060  -24.7270   19.0550 N   0  0  0  0  0  4  0  0  0  0  0  0
  -27.6290  -24.0970   18.2670 H   0  0  0  0  0  0  0  0  0  0  0  0
  -28.1530  -24.3020   19.7910 H   0  0  0  0  0  0  0  0  0  0  0  0
  -28.2600  -26.0060   18.6720 C   0  0  0  0  0  2  0  0  0  0  0  0
  -28.0330  -26.3730   17.1860 C   0  0  0  0  0  2  0  0  0  0  0  0
  -27.7630  -27.7690   17.0190 O   0  0  0  0  0  0  0  0  0  0  0  0
  -24.7660  -30.5840   22.8030 C   0  0  0  0  0  0  0  0  0  0  0  0
  -26.6000  -28.2280   17.5920 C   0  0  0  0  0  0  0  0  0  0  0  0
  -23.2000  -29.7600   21.0740 C   0  0  0  0  0  3  0  0  0  0  0  0
  -24.2440  -29.1790   18.8260 C   0  0  0  0  0  0  0  0  0  0  0  0
  -25.5390  -30.5830   20.4370 C   0  0  0  0  0  2  0  0  0  0  0  0
  -25.4960  -29.6140   19.2770 C   0  0  0  0  0  0  0  0  0  0  0  0
  -26.6770  -29.1480   18.6570 C   0  0  0  0  0  3  0  0  0  0  0  0
  -25.3270  -27.8030   17.1400 C   0  0  0  0  0  3  0  0  0  0  0  0
  -24.1530  -28.2710   17.7570 C   0  0  0  0  0  3  0  0  0  0  0  0
  -23.0310  -29.7420   19.5310 C   0  0  0  0  0  2  0  0  0  0  0  0
  -24.5340  -30.3020   21.4910 N   0  0  0  0  0  0  0  0  0  0  0  0
  -23.8810  -30.4340   23.6560 O   0  0  0  0  0  0  0  0  0  0  0  0
  -22.9100  -28.3470   21.6290 C   0  0  0  0  0  0  0  0  0  0  0  0
  -21.6830  -27.8490   21.4000 N   0  0  0  0  0  0  0  0  0  0  0  0
  -23.7840  -27.7120   22.2270 O   0  0  0  0  0  0  0  0  0  0  0  0
  -21.0270  -28.4230   20.8880 H   0  0  0  0  0  0  0  0  0  0  0  0
  -18.9790  -25.4920   20.9760 C   0  0  0  0  0  0  0  0  0  0  0  0
  -21.1940  -26.5330   21.8090 C   0  0  0  0  0  3  0  0  0  0  0  0
  -21.8960  -25.4000   21.0250 C   0  0  0  0  0  2  0  0  0  0  0  0
  -21.1440  -24.9840   19.7600 C   0  0  0  0  0  2  0  0  0  0  0  0
  -19.7370  -24.4920   20.1140 C   0  0  0  0  0  2  0  0  0  0  0  0
  -19.6640  -26.4610   21.7590 C   0  0  0  0  0  0  0  0  0  0  0  0
  -18.9130  -27.3900   22.5110 C   0  0  0  0  0  3  0  0  0  0  0  0
  -17.5070  -27.3600   22.4980 C   0  0  0  0  0  3  0  0  0  0  0  0
  -16.8360  -26.3880   21.7390 C   0  0  0  0  0  3  0  0  0  0  0  0
  -17.5690  -25.4500   20.9860 C   0  0  0  0  0  3  0  0  0  0  0  0
  -26.1470  -31.1260   23.2920 C   0  0  0  0  0  3  0  0  0  0  0  0
  -25.9100  -32.4240   23.9390 N   0  0  0  0  0  0  0  0  0  0  0  0
  -26.2080  -33.6120   23.3950 C   0  0  0  0  0  0  0  0  0  0  0  0
  -26.7910  -33.7240   22.3140 O   0  0  0  0  0  0  0  0  0  0  0  0
  -25.3930  -32.4080   24.8060 H   0  0  0  0  0  0  0  0  0  0  0  0
  -24.5510  -35.4950   23.5300 C   0  0  0  0  0  1  0  0  0  0  0  0
  -25.7990  -34.8730   24.1780 C   0  0  0  0  0  3  0  0  0  0  0  0
  -27.9940  -35.4670   25.0980 C   0  0  0  0  0  1  0  0  0  0  0  0
  -26.8720  -35.8870   24.2640 N   0  0  0  0  0  0  0  0  0  0  0  0
  -26.5140  -36.7640   24.6350 H   0  0  0  0  0  0  0  0  0  0  0  0
  -26.8870  -30.1390   24.2760 C   0  0  1  0  0  0  0  0  0  0  0  0
  -26.0110  -29.6750   25.4620 C   0  0  0  0  0  1  0  0  0  0  0  0
  -27.3710  -28.8800   23.5210 C   0  0  0  0  0  1  0  0  0  0  0  0
  -28.1530  -30.8210   24.8450 C   0  0  0  0  0  1  0  0  0  0  0  0
  -22.1310  -21.4110   19.4350 C   0  0  0  0  0  2  0  0  0  0  0  0
  -23.3080  -21.4260   18.4460 C   0  0  0  0  0  2  0  0  0  0  0  0
  -24.1220  -20.3140   18.7690 O   0  0  0  0  0  0  0  0  0  0  0  0
  -25.3270  -20.2250   18.0310 C   0  0  0  0  0  2  0  0  0  0  0  0
  -25.9680  -18.9180   18.4690 C   0  0  0  0  0  2  0  0  0  0  0  0
  -28.2940  -18.1100   18.6200 C   0  0  0  0  0  0  0  0  0  0  0  0
  -27.3760  -19.0580   18.8080 N   0  0  0  0  0  0  0  0  0  0  0  0
  -28.0670  -17.0580   18.0210 O   0  0  0  0  0  0  0  0  0  0  0  0
  -27.6480  -19.8810   19.3260 H   0  0  0  0  0  0  0  0  0  0  0  0
  -30.7500  -18.5200   18.1570 C   0  0  0  0  0  1  0  0  0  0  0  0
  -29.6650  -18.3530   19.2430 C   0  0  0  0  0  3  0  0  0  0  0  0
  -30.8500  -16.3640   20.2990 C   0  0  0  0  0  0  0  0  0  0  0  0
  -31.1870  -13.9340   20.4110 C   0  0  0  0  0  2  0  0  0  0  0  0
  -30.5450  -13.3040   19.1590 C   0  0  0  0  0  2  0  0  0  0  0  0
  -29.0540  -13.0020   19.3980 C   0  0  0  0  0  2  0  0  0  0  0  0
  -28.2860  -14.2150   19.9870 C   0  0  0  0  0  3  0  0  0  0  0  0
  -29.0580  -14.8200   21.1840 C   0  0  0  0  0  2  0  0  0  0  0  0
  -30.4260  -15.1490   20.7330 N   0  0  0  0  0  0  0  0  0  0  0  0
  -31.9960  -16.5750   19.8910 O   0  0  0  0  0  0  0  0  0  0  0  0
  -29.8780  -17.2780   20.2220 N   0  0  0  0  0  0  0  0  0  0  0  0
  -29.0270  -16.9830   20.6740 H   0  0  0  0  0  0  0  0  0  0  0  0
  -25.8070  -14.6780   20.5170 C   0  0  0  0  0  0  0  0  0  0  0  0
  -24.7570  -13.8500   20.8020 C   0  0  0  0  0  0  0  0  0  0  0  0
  -25.2920  -12.5290   20.7760 C   0  0  0  0  0  0  0  0  0  0  0  0
  -26.9150  -13.8620   20.3510 N   0  0  0  0  0  0  0  0  0  0  0  0
  -26.6010  -12.5570   20.5540 N   0  0  0  0  0  0  0  0  0  0  0  0
  -24.6210  -11.2300   20.8860 C   0  0  0  0  0  0  0  0  0  0  0  0
  -24.9460  -10.3230   21.9150 C   0  0  0  0  0  3  0  0  0  0  0  0
  -24.2750   -9.0860   22.0140 C   0  0  0  0  0  3  0  0  0  0  0  0
  -23.2660   -8.7490   21.0790 C   0  0  0  0  0  0  0  0  0  0  0  0
  -22.9610   -9.6510   20.0420 C   0  0  0  0  0  3  0  0  0  0  0  0
  -23.6350  -10.8800   19.9440 C   0  0  0  0  0  3  0  0  0  0  0  0
  -22.5800   -7.5600   21.0820 O   0  0  0  0  0  0  0  0  0  0  0  0
  -22.2790   -6.9060   22.2510 C   0  0  0  0  0  0  0  0  0  0  0  0
  -21.4850   -7.5010   23.2560 C   0  0  0  0  0  3  0  0  0  0  0  0
  -21.1380   -6.7640   24.4070 C   0  0  0  0  0  3  0  0  0  0  0  0
  -21.5800   -5.4370   24.5540 C   0  0  0  0  0  0  0  0  0  0  0  0
  -22.3700   -4.8420   23.5550 C   0  0  0  0  0  3  0  0  0  0  0  0
  -22.7150   -5.5760   22.4040 C   0  0  0  0  0  0  0  0  0  0  0  0
  -23.4570   -4.9910   21.4340 F   0  0  0  0  0  0  0  0  0  0  0  0
  -21.2410   -4.7260   25.6560 F   0  0  0  0  0  0  0  0  0  0  0  0
  -23.3220  -14.2570   20.9840 C   0  0  0  0  0  0  0  0  0  0  0  0
  -22.5710  -13.5020   21.7760 N   0  0  0  0  0  0  0  0  0  0  0  0
  -22.8710  -15.2740   20.4590 O   0  0  0  0  0  0  0  0  0  0  0  0
  -22.9560  -12.6810   22.2170 H   0  0  0  0  0  0  0  0  0  0  0  0
  -21.6040  -13.7420   21.9430 H   0  0  0  0  0  0  0  0  0  0  0  0
  -25.8960  -16.0460   20.3660 N   0  0  0  0  0  0  0  0  0  0  0  0
  -25.0840  -16.6330   20.5170 H   0  0  0  0  0  0  0  0  0  0  0  0
  -26.7100  -16.5410   20.0150 H   0  0  0  0  0  0  0  0  0  0  0  0
  1  2  1  0
  3  2  1  0
  4  3  1  0
  5  4  1  0
  6  5  1  0
  6  8  1  0
  7  6  1  0
  9  6  1  0
 10  9  1  0
 11 10  1  0
 11 13  1  0
 12 23  2  0
 13 18  1  0
 14 22  1  0
 14 24  1  0
 15 17  1  0
 15 21  1  0
 16 22  1  0
 17 16  1  0
 18 17  2  0
 19 13  2  0
 19 20  1  0
 20 15  2  0
 21 14  1  0
 22 12  1  0
 24 26  2  0
 25 24  1  0
 27 25  1  0
 28 37  2  0
 28 33  1  0
 29 25  1  0
 30 29  1  0
 31 32  1  0
 31 30  1  0
 32 28  1  0
 33 29  1  0
 33 34  2  0
 35 34  1  0
 36 35  2  0
 37 36  1  0
 38 12  1  0
 38 39  1  0
 38 48  1  0
 39 42  1  0
 40 39  1  0
 40 44  1  0
 41 40  2  0
 44 43  1  0
 44 46  1  0
 46 47  1  0
 46 45  1  0
 48 51  1  1
 48 49  1  0
 50 48  1  0
 52  1  1  0
 53 54  1  0
 53 52  1  0
 55 56  1  0
 55 54  1  0
 56 58  1  0
 57 58  1  0
 57 62  1  0
 58 60  1  0
 59 57  2  0
 62 61  1  0
 62 71  1  0
 63 69  1  0
 64 69  1  0
 65 66  1  0
 65 64  1  0
 67 66  1  0
 67 76  1  0
 67 68  1  0
 69 68  1  0
 70 63  2  0
 71 63  1  0
 71 72  1  0
 73 74  2  0
 74 93  1  0
 75 74  1  0
 75 78  1  0
 76 73  1  0
 76 77  1  0
 77 75  2  0
 78 79  1  0
 79 80  2  0
 81 84  1  0
 81 80  1  0
 82 81  2  0
 83 82  1  0
 83 78  2  0
 84 85  1  0
 85 90  2  0
 85 86  1  0
 86 87  2  0
 87 88  1  0
 88 92  1  0
 89 88  2  0
 90 89  1  0
 91 90  1  0
 93 94  1  0
 94 97  1  0
 94 96  1  0
 95 93  2  0
 98 73  1  0
 98 99  1  0
100 98  1  0
M  ISO  4  10 101  11 101  63 100  71 100
M  END
>  <TORSDO>  (81) 
F 30

>  <SCORE>  (81) 
1.033

>  <name>  (81) 
81

>  <ligand_id>  (81) 
81

>  <original_smiles>  (81) 
[H]c1c([H])c([H])c2c(c1[H])C([H])([H])C([H])([H])C([H])([H])C2([H])N([H])C(=O)C1([H])N(C(=O)C([H])(N([H])C(=O)C([H])(N([H])C([H])([H])[H])C([H])([H])[H])C(C([H])([H])[H])(C([H])([H])[H])C([H])([H])[H])C([H])([H])c2c([H])c(OC([H])([H])C([H])([H])[N+]([H])([H])C([H])([H])C([H])([H])C([H])([H])OC([H])([H])C([H])([H])C([H])([H])OC([H])([H])C([H])([H])N([H])C(=O)C([H])(N([H])C(=O)N3C([H])([H])C([H])([H])C([H])([H])C([H])(n4nc(-c5c([H])c([H])c(Oc6c([H])c([H])c(F)c([H])c6F)c([H])c5[H])c(C(=O)N([H])[H])c4N([H])[H])C3([H])[H])C([H])([H])[H])c([H])c([H])c2C1([H])[H]

>  <smiles>  (81) 
[H]c1c([H])c([H])c2c(c1[H])C([H])([H])C([H])([H])C([H])([H])C2([H])N([H])C(=O)C1([H])N(C(=O)C([H])(N([H])C(=O)C([H])(N([H])C([H])([H])[H])C([H])([H])[H])C(C([H])([H])[H])(C([H])([H])[H])C([H])([H])[H])C([H])([H])c2c([H])c(OC([H])([H])C([H])([H])[N+]([H])([H])C([H])([H])C([H])([H])C([H])([H])OC([H])([H])C([H])([H])C([H])([H])OC([H])([H])C([H])([H])N([H])C(=O)C([H])(N([H])C(=O)N3C([H])([H])C([H])([H])C([H])([H])C([H])(n4nc(-c5c([H])c([H])c(Oc6c([H])c([H])c(F)c([H])c6F)c([H])c5[H])c(C(=O)N([H])[H])c4N([H])[H])C3([H])[H])C([H])([H])[H])c([H])c([H])c2C1([H])[H]

$$$$
82:0:0
     RDKit          3D

108115  0  0  1  0  0  0  0  0999 V2000
  -34.5730  -23.7950   19.2960 C   0  0  0  0  0  2  0  0  0  0  0  0
  -34.1040  -24.8450   20.2210 N   0  0  0  0  0  4  0  0  0  0  0  0
  -33.1110  -24.6910   20.3350 H   0  0  0  0  0  0  0  0  0  0  0  0
  -34.5330  -24.7010   21.1210 H   0  0  0  0  0  0  0  0  0  0  0  0
  -34.3250  -26.2410   19.8000 C   0  0  0  0  0  2  0  0  0  0  0  0
  -34.2400  -27.1590   21.0290 C   0  0  0  0  0  2  0  0  0  0  0  0
  -34.2060  -28.6600   20.7110 C   0  0  0  0  0  2  0  0  0  0  0  0
  -34.2020  -29.3490   21.9580 O   0  0  0  0  0  0  0  0  0  0  0  0
  -32.9680  -29.9520   22.3430 C   0  0  0  0  0  2  0  0  0  0  0  0
  -31.8060  -28.9720   22.5990 C   0  0  0  0  0  2  0  0  0  0  0  0
  -31.2690  -28.5360   21.3580 O   0  0  0  0  0  0  0  0  0  0  0  0
  -30.2600  -27.5440   21.4700 C   0  0  0  0  0  2  0  0  0  0  0  0
  -29.6600  -27.3650   20.0610 C   0  0  0  0  0  2  0  0  0  0  0  0
  -28.3980  -26.7070   20.0380 O   0  0  0  0  0  0  0  0  0  0  0  0
  -24.6110  -31.8640   23.2070 C   0  0  0  0  0  0  0  0  0  0  0  0
  -27.2620  -27.4860   20.1010 C   0  0  0  0  0  0  0  0  0  0  0  0
  -23.4000  -30.4860   21.5460 C   0  0  0  0  0  3  0  0  0  0  0  0
  -24.8560  -28.9650   20.1120 C   0  0  0  0  0  0  0  0  0  0  0  0
  -25.9220  -30.8590   21.3530 C   0  0  0  0  0  2  0  0  0  0  0  0
  -26.0080  -29.4960   20.7060 C   0  0  0  0  0  0  0  0  0  0  0  0
  -27.2120  -28.7680   20.7000 C   0  0  0  0  0  3  0  0  0  0  0  0
  -26.0910  -26.9540   19.5220 C   0  0  0  0  0  3  0  0  0  0  0  0
  -24.8890  -27.6900   19.5210 C   0  0  0  0  0  3  0  0  0  0  0  0
  -23.6100  -29.8140   20.1620 C   0  0  0  0  0  2  0  0  0  0  0  0
  -24.6630  -31.0780   22.0980 N   0  0  0  0  0  0  0  0  0  0  0  0
  -23.5300  -32.1270   23.7530 O   0  0  0  0  0  0  0  0  0  0  0  0
  -22.7350  -29.4630   22.4960 C   0  0  0  0  0  0  0  0  0  0  0  0
  -21.4040  -29.2970   22.3700 N   0  0  0  0  0  0  0  0  0  0  0  0
  -23.4130  -28.8170   23.2980 O   0  0  0  0  0  0  0  0  0  0  0  0
  -20.9050  -29.8640   21.6980 H   0  0  0  0  0  0  0  0  0  0  0  0
  -18.0250  -28.1370   22.8520 C   0  0  0  0  0  0  0  0  0  0  0  0
  -20.5810  -28.3620   23.1340 C   0  0  0  0  0  3  0  0  0  0  0  0
  -20.6750  -26.9360   22.5430 C   0  0  0  0  0  2  0  0  0  0  0  0
  -19.5760  -26.6370   21.5220 C   0  0  0  0  0  2  0  0  0  0  0  0
  -18.1930  -26.7920   22.1620 C   0  0  0  0  0  2  0  0  0  0  0  0
  -19.1490  -28.8820   23.2940 C   0  0  0  0  0  0  0  0  0  0  0  0
  -18.9440  -30.1420   23.8940 C   0  0  0  0  0  3  0  0  0  0  0  0
  -17.6450  -30.6580   24.0600 C   0  0  0  0  0  3  0  0  0  0  0  0
  -16.5330  -29.9100   23.6360 C   0  0  0  0  0  3  0  0  0  0  0  0
  -16.7230  -28.6500   23.0390 C   0  0  0  0  0  3  0  0  0  0  0  0
  -25.8990  -32.4850   23.8360 C   0  0  0  0  0  3  0  0  0  0  0  0
  -26.4440  -31.6640   25.0670 C   0  0  1  0  0  0  0  0  0  0  0  0
  -25.3700  -31.3770   26.1420 C   0  0  0  0  0  1  0  0  0  0  0  0
  -27.0210  -30.3050   24.6070 C   0  0  0  0  0  1  0  0  0  0  0  0
  -27.6010  -32.4370   25.7450 C   0  0  0  0  0  1  0  0  0  0  0  0
  -25.5820  -33.8620   24.2300 N   0  0  0  0  0  0  0  0  0  0  0  0
  -25.9020  -34.9460   23.5150 C   0  0  0  0  0  0  0  0  0  0  0  0
  -26.5640  -34.8890   22.4730 O   0  0  0  0  0  0  0  0  0  0  0  0
  -24.9910  -33.9770   25.0420 H   0  0  0  0  0  0  0  0  0  0  0  0
  -24.1510  -36.7310   23.2650 C   0  0  0  0  0  1  0  0  0  0  0  0
  -25.4110  -36.3070   24.0360 C   0  0  0  0  0  3  0  0  0  0  0  0
  -27.5600  -37.1770   24.8450 C   0  0  0  0  0  1  0  0  0  0  0  0
  -26.4300  -37.3740   23.9420 N   0  0  0  0  0  0  0  0  0  0  0  0
  -26.0160  -38.2790   24.1450 H   0  0  0  0  0  0  0  0  0  0  0  0
  -33.9360  -22.4600   19.6930 C   0  0  0  0  0  2  0  0  0  0  0  0
  -32.5420  -22.7130   19.8430 O   0  0  0  0  0  0  0  0  0  0  0  0
  -31.7970  -21.6260   20.3780 C   0  0  0  0  0  2  0  0  0  0  0  0
  -31.2140  -20.7500   19.2590 C   0  0  0  0  0  2  0  0  0  0  0  0
  -29.9940  -19.9300   19.7120 C   0  0  0  0  0  2  0  0  0  0  0  0
  -30.3890  -17.5930   20.4660 C   0  0  0  0  0  0  0  0  0  0  0  0
  -30.3260  -18.9080   20.7060 N   0  0  0  0  0  0  0  0  0  0  0  0
  -30.2340  -17.1290   19.3350 O   0  0  0  0  0  0  0  0  0  0  0  0
  -30.4330  -19.2130   21.6650 H   0  0  0  0  0  0  0  0  0  0  0  0
  -30.6560  -16.6650   21.6760 C   0  0  0  0  0  3  0  0  0  0  0  0
  -30.7660  -14.3650   20.6340 C   0  0  0  0  0  0  0  0  0  0  0  0
  -30.4250  -12.2630   19.4110 C   0  0  0  0  0  2  0  0  0  0  0  0
  -29.5020  -12.4990   18.2030 C   0  0  0  0  0  2  0  0  0  0  0  0
  -28.0230  -12.3560   18.6100 C   0  0  0  0  0  2  0  0  0  0  0  0
  -27.6710  -13.1920   19.8720 C   0  0  0  0  0  3  0  0  0  0  0  0
  -28.7050  -12.9480   20.9940 C   0  0  0  0  0  2  0  0  0  0  0  0
  -30.0490  -13.2290   20.4510 N   0  0  0  0  0  0  0  0  0  0  0  0
  -31.8500  -14.5800   20.0840 O   0  0  0  0  0  0  0  0  0  0  0  0
  -30.1960  -15.2890   21.4130 N   0  0  0  0  0  0  0  0  0  0  0  0
  -29.3130  -15.0290   21.8250 H   0  0  0  0  0  0  0  0  0  0  0  0
  -25.2630  -13.8110   20.5620 C   0  0  0  0  0  0  0  0  0  0  0  0
  -24.1870  -13.0430   20.9110 C   0  0  0  0  0  0  0  0  0  0  0  0
  -24.6390  -11.6870   20.8610 C   0  0  0  0  0  0  0  0  0  0  0  0
  -26.3060  -12.9260   20.3300 N   0  0  0  0  0  0  0  0  0  0  0  0
  -25.9320  -11.6430   20.5670 N   0  0  0  0  0  0  0  0  0  0  0  0
  -23.9020  -10.4280   21.0290 C   0  0  0  0  0  0  0  0  0  0  0  0
  -24.3590   -9.4220   21.9090 C   0  0  0  0  0  3  0  0  0  0  0  0
  -23.6270   -8.2260   22.0720 C   0  0  0  0  0  3  0  0  0  0  0  0
  -22.4240   -8.0260   21.3520 C   0  0  0  0  0  0  0  0  0  0  0  0
  -21.9860   -9.0210   20.4620 C   0  0  0  0  0  3  0  0  0  0  0  0
  -22.7170  -10.2100   20.2970 C   0  0  0  0  0  3  0  0  0  0  0  0
  -21.6640   -6.8830   21.4190 O   0  0  0  0  0  0  0  0  0  0  0  0
  -21.6880   -6.0690   22.5250 C   0  0  0  0  0  0  0  0  0  0  0  0
  -21.4040   -6.5610   23.8180 C   0  0  0  0  0  3  0  0  0  0  0  0
  -21.3660   -5.6760   24.9150 C   0  0  0  0  0  3  0  0  0  0  0  0
  -21.6040   -4.3020   24.7200 C   0  0  0  0  0  0  0  0  0  0  0  0
  -21.8830   -3.8110   23.4320 C   0  0  0  0  0  3  0  0  0  0  0  0
  -21.9220   -4.6930   22.3380 C   0  0  0  0  0  0  0  0  0  0  0  0
  -22.1670   -4.2120   21.0950 F   0  0  0  0  0  0  0  0  0  0  0  0
  -21.5640   -3.4510   25.7710 F   0  0  0  0  0  0  0  0  0  0  0  0
  -22.7890  -13.5220   21.1790 C   0  0  0  0  0  0  0  0  0  0  0  0
  -22.0550  -12.8220   22.0330 N   0  0  0  0  0  0  0  0  0  0  0  0
  -22.3560  -14.5500   20.6600 O   0  0  0  0  0  0  0  0  0  0  0  0
  -22.4190  -11.9920   22.4770 H   0  0  0  0  0  0  0  0  0  0  0  0
  -21.1140  -13.1190   22.2470 H   0  0  0  0  0  0  0  0  0  0  0  0
  -25.4400  -15.1850   20.4070 N   0  0  0  0  0  0  0  0  0  0  0  0
  -24.6750  -15.8430   20.5160 H   0  0  0  0  0  0  0  0  0  0  0  0
  -26.2930  -15.6200   20.0810 H   0  0  0  0  0  0  0  0  0  0  0  0
  -32.2670  -15.8410   23.5170 C   0  0  0  0  0  1  0  0  0  0  0  0
  -32.0950  -16.7550   22.2860 C   0  0  0  0  0  3  0  0  0  0  0  0
  -33.1780  -16.5440   21.3040 N   0  0  0  0  0  4  0  0  0  0  0  0
  -32.9730  -15.6980   20.7750 H   0  0  0  0  0  0  0  0  0  0  0  0
  -34.0670  -16.4530   21.7610 H   0  0  0  0  0  0  0  0  0  0  0  0
  -33.2310  -17.3080   20.6530 H   0  0  0  0  0  0  0  0  0  0  0  0
  1 55  1  0
  1  2  1  0
  2  3  1  0
  2  4  1  0
  5  2  1  0
  5  6  1  0
  7  6  1  0
  7  8  1  0
  8  9  1  0
  9 10  1  0
 11 12  1  0
 11 10  1  0
 13 12  1  0
 14 13  1  0
 14 16  1  0
 15 26  2  0
 16 21  1  0
 17 25  1  0
 17 27  1  0
 18 24  1  0
 18 20  1  0
 19 25  1  0
 20 19  1  0
 21 20  2  0
 22 16  2  0
 23 22  1  0
 23 18  2  0
 24 17  1  0
 25 15  1  0
 27 29  2  0
 28 27  1  0
 30 28  1  0
 31 40  2  0
 31 36  1  0
 32 28  1  0
 32 36  1  0
 33 32  1  0
 34 35  1  0
 34 33  1  0
 35 31  1  0
 36 37  2  0
 37 38  1  0
 39 38  2  0
 40 39  1  0
 41 15  1  0
 41 46  1  0
 41 42  1  0
 42 45  1  1
 42 43  1  0
 44 42  1  0
 46 49  1  0
 47 51  1  0
 47 46  1  0
 48 47  2  0
 51 50  1  0
 53 51  1  0
 53 54  1  0
 53 52  1  0
 55 56  1  0
 56 57  1  0
 58 59  1  0
 58 57  1  0
 59 61  1  0
 60 61  1  0
 61 63  1  0
 62 60  2  0
 64 60  1  0
 64104  1  0
 65 73  1  0
 66 71  1  0
 67 68  1  0
 67 66  1  0
 69 68  1  0
 69 78  1  0
 69 70  1  0
 71 65  1  0
 71 70  1  0
 72 65  2  0
 73 64  1  0
 73 74  1  0
 75 76  2  0
 76 95  1  0
 77 76  1  0
 77 80  1  0
 78 75  1  0
 78 79  1  0
 79 77  2  0
 80 81  1  0
 81 82  2  0
 83 86  1  0
 83 82  1  0
 84 83  2  0
 85 84  1  0
 85 80  2  0
 86 87  1  0
 87 88  1  0
 88 89  2  0
 90 89  1  0
 90 94  1  0
 91 90  2  0
 92 87  2  0
 92 91  1  0
 93 92  1  0
 95 96  1  0
 96 99  1  0
 96 98  1  0
 97 95  2  0
100101  1  0
100 75  1  0
102100  1  0
104103  1  0
105107  1  0
105104  1  0
106105  1  0
108105  1  0
M  ISO  4  13 101  14 101  65 100  73 100
M  END
>  <TORSDO>  (82) 
F 35

>  <SCORE>  (82) 
-3.738

>  <name>  (82) 
82

>  <ligand_id>  (82) 
82

>  <original_smiles>  (82) 
[H]c1c([H])c([H])c2c(c1[H])C([H])([H])C([H])([H])C([H])([H])C2([H])N([H])C(=O)C1([H])N(C(=O)C([H])(N([H])C(=O)C([H])(N([H])C([H])([H])[H])C([H])([H])[H])C(C([H])([H])[H])(C([H])([H])[H])C([H])([H])[H])C([H])([H])c2c([H])c(OC([H])([H])C([H])([H])OC([H])([H])C([H])([H])OC([H])([H])C([H])([H])C([H])([H])[N+]([H])([H])C([H])([H])C([H])([H])OC([H])([H])C([H])([H])C([H])([H])N([H])C(=O)C([H])(N([H])C(=O)N3C([H])([H])C([H])([H])C([H])([H])C([H])(n4nc(-c5c([H])c([H])c(Oc6c([H])c([H])c(F)c([H])c6F)c([H])c5[H])c(C(=O)N([H])[H])c4N([H])[H])C3([H])[H])C([H])(C([H])([H])[H])[N+]([H])([H])[H])c([H])c([H])c2C1([H])[H]

>  <smiles>  (82) 
[H]c1c([H])c([H])c2c(c1[H])C([H])([H])C([H])([H])C([H])([H])C2([H])N([H])C(=O)C1([H])N(C(=O)C([H])(N([H])C(=O)C([H])(N([H])C([H])([H])[H])C([H])([H])[H])C(C([H])([H])[H])(C([H])([H])[H])C([H])([H])[H])C([H])([H])c2c([H])c(OC([H])([H])C([H])([H])OC([H])([H])C([H])([H])OC([H])([H])C([H])([H])C([H])([H])[N+]([H])([H])C([H])([H])C([H])([H])OC([H])([H])C([H])([H])C([H])([H])N([H])C(=O)C([H])(N([H])C(=O)N3C([H])([H])C([H])([H])C([H])([H])C([H])(n4nc(-c5c([H])c([H])c(Oc6c([H])c([H])c(F)c([H])c6F)c([H])c5[H])c(C(=O)N([H])[H])c4N([H])[H])C3([H])[H])C([H])(C([H])([H])[H])[N+]([H])([H])[H])c([H])c([H])c2C1([H])[H]

$$$$
83:0:0
     RDKit          3D

100107  0  0  1  0  0  0  0  0999 V2000
  -28.7860  -21.1950   18.2230 C   0  0  0  0  0  2  0  0  0  0  0  0
  -29.2910  -22.5220   18.0970 O   0  0  0  0  0  0  0  0  0  0  0  0
  -29.8260  -22.7540   16.7950 C   0  0  0  0  0  2  0  0  0  0  0  0
  -30.1190  -24.2400   16.5370 C   0  0  0  0  0  2  0  0  0  0  0  0
  -31.3940  -24.6080   17.0570 O   0  0  0  0  0  0  0  0  0  0  0  0
  -31.7460  -25.9570   16.7500 C   0  0  0  0  0  2  0  0  0  0  0  0
  -31.8330  -26.7910   18.0340 C   0  0  0  0  0  2  0  0  0  0  0  0
  -30.5760  -26.7530   18.6930 O   0  0  0  0  0  0  0  0  0  0  0  0
  -30.5190  -27.5320   19.8840 C   0  0  0  0  0  2  0  0  0  0  0  0
  -29.4710  -26.9030   20.8080 C   0  0  0  0  0  2  0  0  0  0  0  0
  -28.2800  -26.6350   20.0790 O   0  0  0  0  0  0  0  0  0  0  0  0
  -24.5160  -31.8570   23.2530 C   0  0  0  0  0  0  0  0  0  0  0  0
  -27.1790  -27.4530   20.1580 C   0  0  0  0  0  0  0  0  0  0  0  0
  -23.3130  -30.4600   21.6040 C   0  0  0  0  0  3  0  0  0  0  0  0
  -24.7740  -28.9310   20.1810 C   0  0  0  0  0  0  0  0  0  0  0  0
  -25.8360  -30.8320   21.4070 C   0  0  0  0  0  2  0  0  0  0  0  0
  -25.9280  -29.4620   20.7720 C   0  0  0  0  0  0  0  0  0  0  0  0
  -27.1370  -28.7310   20.7640 C   0  0  0  0  0  3  0  0  0  0  0  0
  -26.0090  -26.9350   19.5710 C   0  0  0  0  0  3  0  0  0  0  0  0
  -24.8060  -27.6620   19.5800 C   0  0  0  0  0  3  0  0  0  0  0  0
  -23.5260  -29.7830   20.2240 C   0  0  0  0  0  2  0  0  0  0  0  0
  -24.5730  -31.0640   22.1480 N   0  0  0  0  0  0  0  0  0  0  0  0
  -23.4340  -32.1270   23.7910 O   0  0  0  0  0  0  0  0  0  0  0  0
  -22.6620  -29.4340   22.5600 C   0  0  0  0  0  0  0  0  0  0  0  0
  -21.3350  -29.2640   22.4400 N   0  0  0  0  0  0  0  0  0  0  0  0
  -23.3450  -28.7950   23.3640 O   0  0  0  0  0  0  0  0  0  0  0  0
  -20.8450  -29.8290   21.7600 H   0  0  0  0  0  0  0  0  0  0  0  0
  -17.9540  -28.0990   22.9510 C   0  0  0  0  0  0  0  0  0  0  0  0
  -20.5170  -28.3250   23.2060 C   0  0  0  0  0  3  0  0  0  0  0  0
  -20.5990  -26.9000   22.6120 C   0  0  0  0  0  2  0  0  0  0  0  0
  -19.4860  -26.6020   21.6030 C   0  0  0  0  0  2  0  0  0  0  0  0
  -18.1100  -26.7550   22.2590 C   0  0  0  0  0  2  0  0  0  0  0  0
  -19.0840  -28.8430   23.3820 C   0  0  0  0  0  0  0  0  0  0  0  0
  -18.8850  -30.1020   23.9870 C   0  0  0  0  0  3  0  0  0  0  0  0
  -17.5890  -30.6180   24.1670 C   0  0  0  0  0  3  0  0  0  0  0  0
  -16.4720  -29.8700   23.7550 C   0  0  0  0  0  3  0  0  0  0  0  0
  -16.6560  -28.6130   23.1520 C   0  0  0  0  0  3  0  0  0  0  0  0
  -25.8020  -32.4860   23.8760 C   0  0  0  0  0  3  0  0  0  0  0  0
  -26.3180  -31.7090   25.1490 C   0  0  1  0  0  0  0  0  0  0  0  0
  -25.2240  -31.4740   26.2170 C   0  0  0  0  0  1  0  0  0  0  0  0
  -26.8960  -30.3320   24.7490 C   0  0  0  0  0  1  0  0  0  0  0  0
  -27.4710  -32.4990   25.8130 C   0  0  0  0  0  1  0  0  0  0  0  0
  -25.4940  -33.8840   24.2070 N   0  0  0  0  0  0  0  0  0  0  0  0
  -25.8300  -34.9340   23.4490 C   0  0  0  0  0  0  0  0  0  0  0  0
  -26.5030  -34.8300   22.4200 O   0  0  0  0  0  0  0  0  0  0  0  0
  -24.8970  -34.0380   25.0060 H   0  0  0  0  0  0  0  0  0  0  0  0
  -24.1050  -36.7280   23.0870 C   0  0  0  0  0  1  0  0  0  0  0  0
  -25.3430  -36.3230   23.9050 C   0  0  0  0  0  3  0  0  0  0  0  0
  -27.4730  -37.2060   24.7440 C   0  0  0  0  0  1  0  0  0  0  0  0
  -26.3760  -37.3750   23.7950 N   0  0  0  0  0  0  0  0  0  0  0  0
  -25.9700  -38.2950   23.9380 H   0  0  0  0  0  0  0  0  0  0  0  0
  -28.0850  -20.9760   19.5750 C   0  0  0  0  0  2  0  0  0  0  0  0
  -29.0360  -20.7410   20.7680 C   0  0  0  0  0  2  0  0  0  0  0  0
  -29.4130  -18.2570   20.6980 C   0  0  0  0  0  0  0  0  0  0  0  0
  -29.8400  -19.5270   20.6060 N   0  0  0  0  0  0  0  0  0  0  0  0
  -28.2700  -17.9580   21.0580 O   0  0  0  0  0  0  0  0  0  0  0  0
  -30.8100  -19.6670   20.3600 H   0  0  0  0  0  0  0  0  0  0  0  0
  -30.4030  -17.1650   20.2490 C   0  0  0  0  0  3  0  0  0  0  0  0
  -30.8860  -14.8210   20.9620 C   0  0  0  0  0  0  0  0  0  0  0  0
  -30.7360  -12.6100   19.9460 C   0  0  0  0  0  2  0  0  0  0  0  0
  -29.9080  -12.7780   18.6540 C   0  0  0  0  0  2  0  0  0  0  0  0
  -28.4030  -12.6360   18.9480 C   0  0  0  0  0  2  0  0  0  0  0  0
  -27.9350  -13.5000   20.1490 C   0  0  0  0  0  3  0  0  0  0  0  0
  -28.8900  -13.3480   21.3560 C   0  0  0  0  0  2  0  0  0  0  0  0
  -30.2610  -13.6250   20.8940 N   0  0  0  0  0  0  0  0  0  0  0  0
  -32.0990  -14.9710   20.8150 O   0  0  0  0  0  0  0  0  0  0  0  0
  -30.0560  -15.8590   20.8250 N   0  0  0  0  0  0  0  0  0  0  0  0
  -29.0690  -15.6700   20.8900 H   0  0  0  0  0  0  0  0  0  0  0  0
  -25.4730  -14.0730   20.6270 C   0  0  0  0  0  0  0  0  0  0  0  0
  -24.3910  -13.2830   20.9030 C   0  0  0  0  0  0  0  0  0  0  0  0
  -24.8780  -11.9420   20.9370 C   0  0  0  0  0  0  0  0  0  0  0  0
  -26.5530  -13.2090   20.5130 N   0  0  0  0  0  0  0  0  0  0  0  0
  -26.1920  -11.9240   20.7560 N   0  0  0  0  0  0  0  0  0  0  0  0
  -24.1640  -10.6670   21.0750 C   0  0  0  0  0  0  0  0  0  0  0  0
  -24.5350   -9.7130   22.0490 C   0  0  0  0  0  3  0  0  0  0  0  0
  -23.8190   -8.5040   22.1740 C   0  0  0  0  0  3  0  0  0  0  0  0
  -22.7210   -8.2380   21.3230 C   0  0  0  0  0  0  0  0  0  0  0  0
  -22.3720   -9.1800   20.3400 C   0  0  0  0  0  3  0  0  0  0  0  0
  -23.0870  -10.3810   20.2140 C   0  0  0  0  0  3  0  0  0  0  0  0
  -21.9860   -7.0760   21.3550 O   0  0  0  0  0  0  0  0  0  0  0  0
  -21.8460   -6.3460   22.5070 C   0  0  0  0  0  0  0  0  0  0  0  0
  -21.3030   -6.9080   23.6840 C   0  0  0  0  0  3  0  0  0  0  0  0
  -21.1090   -6.1020   24.8240 C   0  0  0  0  0  3  0  0  0  0  0  0
  -21.4480   -4.7370   24.7870 C   0  0  0  0  0  0  0  0  0  0  0  0
  -21.9820   -4.1740   23.6150 C   0  0  0  0  0  3  0  0  0  0  0  0
  -22.1760   -4.9760   22.4770 C   0  0  0  0  0  0  0  0  0  0  0  0
  -22.6720   -4.4250   21.3430 F   0  0  0  0  0  0  0  0  0  0  0  0
  -21.2540   -3.9610   25.8800 F   0  0  0  0  0  0  0  0  0  0  0  0
  -22.9630  -13.7330   21.0340 C   0  0  0  0  0  0  0  0  0  0  0  0
  -22.1790  -13.0440   21.8540 N   0  0  0  0  0  0  0  0  0  0  0  0
  -22.5520  -14.7330   20.4440 O   0  0  0  0  0  0  0  0  0  0  0  0
  -22.5280  -12.2370   22.3490 H   0  0  0  0  0  0  0  0  0  0  0  0
  -21.2180  -13.3250   21.9880 H   0  0  0  0  0  0  0  0  0  0  0  0
  -25.6220  -15.4450   20.4450 N   0  0  0  0  0  0  0  0  0  0  0  0
  -24.8350  -16.0810   20.5030 H   0  0  0  0  0  0  0  0  0  0  0  0
  -26.4910  -15.9200   20.2460 H   0  0  0  0  0  0  0  0  0  0  0  0
  -31.8590  -16.4430   18.1910 C   0  0  0  0  0  1  0  0  0  0  0  0
  -30.5500  -17.0740   18.6940 C   0  0  0  0  0  3  0  0  0  0  0  0
  -29.4550  -16.3880   18.1050 O   0  0  0  0  0  0  0  0  0  0  0  0
  -28.6630  -16.8920   18.2720 H   0  0  0  0  0  0  0  0  0  0  0  0
  1 52  1  0
  2  1  1  0
  3  2  1  0
  4  3  1  0
  4  5  1  0
  6  5  1  0
  6  7  1  0
  7  8  1  0
  8  9  1  0
  9 10  1  0
 11 13  1  0
 11 10  1  0
 12 23  2  0
 13 18  1  0
 14 22  1  0
 14 24  1  0
 15 21  1  0
 15 17  1  0
 16 22  1  0
 17 16  1  0
 18 17  2  0
 19 20  1  0
 19 13  2  0
 20 15  2  0
 21 14  1  0
 22 12  1  0
 24 26  2  0
 25 24  1  0
 27 25  1  0
 28 37  2  0
 28 33  1  0
 29 25  1  0
 29 33  1  0
 30 29  1  0
 31 32  1  0
 31 30  1  0
 32 28  1  0
 33 34  2  0
 34 35  1  0
 36 35  2  0
 37 36  1  0
 38 12  1  0
 38 43  1  0
 38 39  1  0
 39 42  1  1
 39 40  1  0
 41 39  1  0
 43 46  1  0
 44 48  1  0
 44 43  1  0
 45 44  2  0
 48 47  1  0
 50 48  1  0
 50 51  1  0
 50 49  1  0
 52 53  1  0
 54 56  2  0
 55 54  1  0
 55 53  1  0
 57 55  1  0
 58 54  1  0
 58 67  1  0
 60 65  1  0
 61 62  1  0
 61 60  1  0
 63 62  1  0
 63 72  1  0
 63 64  1  0
 65 59  1  0
 65 64  1  0
 66 59  2  0
 67 68  1  0
 67 59  1  0
 69 70  2  0
 70 71  1  0
 70 89  1  0
 71 74  1  0
 72 69  1  0
 72 73  1  0
 73 71  2  0
 74 75  1  0
 75 76  2  0
 77 80  1  0
 77 76  1  0
 78 77  2  0
 79 78  1  0
 79 74  2  0
 80 81  1  0
 81 82  1  0
 82 83  2  0
 84 83  1  0
 84 88  1  0
 85 84  2  0
 86 81  2  0
 86 85  1  0
 87 86  1  0
 89 90  1  0
 90 93  1  0
 90 92  1  0
 91 89  2  0
 94 95  1  0
 94 69  1  0
 96 94  1  0
 98 97  1  0
 98 58  1  0
 99100  1  0
 99 98  1  0
M  ISO  4  10 101  11 101  59 100  67 100
M  END
>  <TORSDO>  (83) 
F 31

>  <SCORE>  (83) 
-10.517

>  <name>  (83) 
83

>  <ligand_id>  (83) 
83

>  <original_smiles>  (83) 
[H]OC([H])(C([H])([H])[H])C([H])(C(=O)N([H])C([H])([H])C([H])([H])C([H])([H])OC([H])([H])C([H])([H])OC([H])([H])C([H])([H])OC([H])([H])C([H])([H])Oc1c([H])c([H])c2c(c1[H])C([H])([H])N(C(=O)C([H])(N([H])C(=O)C([H])(N([H])C([H])([H])[H])C([H])([H])[H])C(C([H])([H])[H])(C([H])([H])[H])C([H])([H])[H])C([H])(C(=O)N([H])C1([H])c3c([H])c([H])c([H])c([H])c3C([H])([H])C([H])([H])C1([H])[H])C2([H])[H])N([H])C(=O)N1C([H])([H])C([H])([H])C([H])([H])C([H])(n2nc(-c3c([H])c([H])c(Oc4c([H])c([H])c(F)c([H])c4F)c([H])c3[H])c(C(=O)N([H])[H])c2N([H])[H])C1([H])[H]

>  <smiles>  (83) 
[H]OC([H])(C([H])([H])[H])C([H])(C(=O)N([H])C([H])([H])C([H])([H])C([H])([H])OC([H])([H])C([H])([H])OC([H])([H])C([H])([H])OC([H])([H])C([H])([H])Oc1c([H])c([H])c2c(c1[H])C([H])([H])N(C(=O)C([H])(N([H])C(=O)C([H])(N([H])C([H])([H])[H])C([H])([H])[H])C(C([H])([H])[H])(C([H])([H])[H])C([H])([H])[H])C([H])(C(=O)N([H])C1([H])c3c([H])c([H])c([H])c([H])c3C([H])([H])C([H])([H])C1([H])[H])C2([H])[H])N([H])C(=O)N1C([H])([H])C([H])([H])C([H])([H])C([H])(n2nc(-c3c([H])c([H])c(Oc4c([H])c([H])c(F)c([H])c4F)c([H])c3[H])c(C(=O)N([H])[H])c2N([H])[H])C1([H])[H]

$$$$
85:0:0
     RDKit          3D

101108  0  0  1  0  0  0  0  0999 V2000
  -31.3290  -19.9540   17.9380 C   0  0  0  0  0  2  0  0  0  0  0  0
  -30.9160  -20.7310   16.8200 O   0  0  0  0  0  0  0  0  0  0  0  0
  -31.7240  -21.8960   16.6690 C   0  0  0  0  0  2  0  0  0  0  0  0
  -31.2860  -22.7510   15.4650 C   0  0  0  0  0  2  0  0  0  0  0  0
  -30.3710  -23.7780   15.8430 O   0  0  0  0  0  0  0  0  0  0  0  0
  -29.0200  -23.3440   15.9370 C   0  0  0  0  0  2  0  0  0  0  0  0
  -28.0970  -24.5360   16.2560 C   0  0  0  0  0  2  0  0  0  0  0  0
  -27.9060  -24.7170   17.6570 O   0  0  0  0  0  0  0  0  0  0  0  0
  -28.9600  -25.4230   18.3010 C   0  0  0  0  0  2  0  0  0  0  0  0
  -28.6950  -25.5090   19.8170 C   0  0  0  0  0  2  0  0  0  0  0  0
  -28.5820  -26.8580   20.2730 O   0  0  0  0  0  0  0  0  0  0  0  0
  -24.6650  -31.9510   23.2890 C   0  0  0  0  0  0  0  0  0  0  0  0
  -27.3660  -27.5100   20.2490 C   0  0  0  0  0  0  0  0  0  0  0  0
  -23.4740  -30.5150   21.6630 C   0  0  0  0  0  3  0  0  0  0  0  0
  -24.9440  -28.9750   20.2570 C   0  0  0  0  0  0  0  0  0  0  0  0
  -25.9930  -30.8980   21.4610 C   0  0  0  0  0  2  0  0  0  0  0  0
  -26.0930  -29.5200   20.8400 C   0  0  0  0  0  0  0  0  0  0  0  0
  -27.3010  -28.7910   20.8380 C   0  0  0  0  0  3  0  0  0  0  0  0
  -26.1960  -26.9710   19.6630 C   0  0  0  0  0  3  0  0  0  0  0  0
  -24.9900  -27.6980   19.6690 C   0  0  0  0  0  3  0  0  0  0  0  0
  -23.6890  -29.8160   20.2930 C   0  0  0  0  0  2  0  0  0  0  0  0
  -24.7300  -31.1370   22.1970 N   0  0  0  0  0  0  0  0  0  0  0  0
  -23.5810  -32.2200   23.8230 O   0  0  0  0  0  0  0  0  0  0  0  0
  -22.8340  -29.5000   22.6360 C   0  0  0  0  0  0  0  0  0  0  0  0
  -21.5150  -29.2900   22.4980 N   0  0  0  0  0  0  0  0  0  0  0  0
  -23.5210  -28.9030   23.4700 O   0  0  0  0  0  0  0  0  0  0  0  0
  -21.0220  -29.8240   21.7960 H   0  0  0  0  0  0  0  0  0  0  0  0
  -18.1660  -28.0220   22.9600 C   0  0  0  0  0  0  0  0  0  0  0  0
  -20.7090  -28.3510   23.2770 C   0  0  0  0  0  3  0  0  0  0  0  0
  -20.8590  -26.9090   22.7390 C   0  0  0  0  0  2  0  0  0  0  0  0
  -19.7870  -26.5330   21.7120 C   0  0  0  0  0  2  0  0  0  0  0  0
  -18.3900  -26.6590   22.3250 C   0  0  0  0  0  2  0  0  0  0  0  0
  -19.2550  -28.8220   23.3920 C   0  0  0  0  0  0  0  0  0  0  0  0
  -18.9940  -30.0970   23.9450 C   0  0  0  0  0  3  0  0  0  0  0  0
  -17.6740  -30.5700   24.0690 C   0  0  0  0  0  3  0  0  0  0  0  0
  -16.5990  -29.7660   23.6530 C   0  0  0  0  0  3  0  0  0  0  0  0
  -16.8440  -28.4940   23.1060 C   0  0  0  0  0  3  0  0  0  0  0  0
  -25.9450  -32.6040   23.9000 C   0  0  0  0  0  3  0  0  0  0  0  0
  -25.6200  -34.0000   24.2200 N   0  0  0  0  0  0  0  0  0  0  0  0
  -25.9350  -35.0500   23.4480 C   0  0  0  0  0  0  0  0  0  0  0  0
  -26.6010  -34.9450   22.4150 O   0  0  0  0  0  0  0  0  0  0  0  0
  -25.0260  -34.1540   25.0200 H   0  0  0  0  0  0  0  0  0  0  0  0
  -24.1740  -36.8110   23.0930 C   0  0  0  0  0  1  0  0  0  0  0  0
  -25.4300  -36.4360   23.8950 C   0  0  0  0  0  3  0  0  0  0  0  0
  -27.5610  -37.3600   24.6900 C   0  0  0  0  0  1  0  0  0  0  0  0
  -26.4450  -37.5040   23.7590 N   0  0  0  0  0  0  0  0  0  0  0  0
  -26.0270  -38.4180   23.9060 H   0  0  0  0  0  0  0  0  0  0  0  0
  -26.4780  -31.8470   25.1780 C   0  0  1  0  0  0  0  0  0  0  0  0
  -25.3910  -31.5950   26.2490 C   0  0  0  0  0  1  0  0  0  0  0  0
  -27.0820  -30.4780   24.7870 C   0  0  0  0  0  1  0  0  0  0  0  0
  -27.6170  -32.6620   25.8320 C   0  0  0  0  0  1  0  0  0  0  0  0
  -30.5840  -18.6120   18.0040 C   0  0  0  0  0  2  0  0  0  0  0  0
  -30.3810  -16.9090   19.8120 C   0  0  0  0  0  0  0  0  0  0  0  0
  -31.0690  -17.8390   19.1450 N   0  0  0  0  0  0  0  0  0  0  0  0
  -29.2530  -16.5440   19.4750 O   0  0  0  0  0  0  0  0  0  0  0  0
  -32.0090  -18.0340   19.4600 H   0  0  0  0  0  0  0  0  0  0  0  0
  -31.0770  -16.2760   21.0380 C   0  0  0  0  0  3  0  0  0  0  0  0
  -31.3530  -13.9530   20.2230 C   0  0  0  0  0  0  0  0  0  0  0  0
  -30.8180  -11.9370   18.9190 C   0  0  0  0  0  2  0  0  0  0  0  0
  -29.8600  -12.3170   17.7710 C   0  0  0  0  0  2  0  0  0  0  0  0
  -28.3910  -12.3210   18.2410 C   0  0  0  0  0  2  0  0  0  0  0  0
  -28.1880  -13.1040   19.5650 C   0  0  0  0  0  3  0  0  0  0  0  0
  -29.2340  -12.6600   20.6110 C   0  0  0  0  0  2  0  0  0  0  0  0
  -30.5760  -12.8610   20.0320 N   0  0  0  0  0  0  0  0  0  0  0  0
  -32.4080  -14.1760   19.6220 O   0  0  0  0  0  0  0  0  0  0  0  0
  -30.8120  -14.8450   21.0490 N   0  0  0  0  0  0  0  0  0  0  0  0
  -29.9520  -14.5550   21.4880 H   0  0  0  0  0  0  0  0  0  0  0  0
  -25.8610  -13.9250   20.3100 C   0  0  0  0  0  0  0  0  0  0  0  0
  -24.7390  -13.2480   20.7100 C   0  0  0  0  0  0  0  0  0  0  0  0
  -25.0840  -11.8600   20.6800 C   0  0  0  0  0  0  0  0  0  0  0  0
  -26.8230  -12.9560   20.0700 N   0  0  0  0  0  0  0  0  0  0  0  0
  -26.3580  -11.7100   20.3430 N   0  0  0  0  0  0  0  0  0  0  0  0
  -24.2600  -10.6630   20.8970 C   0  0  0  0  0  0  0  0  0  0  0  0
  -24.6330   -9.6730   21.8320 C   0  0  0  0  0  3  0  0  0  0  0  0
  -23.8180   -8.5400   22.0390 C   0  0  0  0  0  3  0  0  0  0  0  0
  -22.6160   -8.3890   21.3080 C   0  0  0  0  0  0  0  0  0  0  0  0
  -22.2600   -9.3680   20.3620 C   0  0  0  0  0  3  0  0  0  0  0  0
  -23.0740  -10.4930   20.1540 C   0  0  0  0  0  3  0  0  0  0  0  0
  -21.7760   -7.3080   21.4200 O   0  0  0  0  0  0  0  0  0  0  0  0
  -21.6810   -6.5850   22.5820 C   0  0  0  0  0  0  0  0  0  0  0  0
  -21.3310   -7.1910   23.8080 C   0  0  0  0  0  3  0  0  0  0  0  0
  -21.1800   -6.4030   24.9650 C   0  0  0  0  0  3  0  0  0  0  0  0
  -21.3660   -5.0090   24.8980 C   0  0  0  0  0  0  0  0  0  0  0  0
  -21.7070   -4.4030   23.6760 C   0  0  0  0  0  3  0  0  0  0  0  0
  -21.8610   -5.1890   22.5210 C   0  0  0  0  0  0  0  0  0  0  0  0
  -22.1710   -4.5980   21.3420 F   0  0  0  0  0  0  0  0  0  0  0  0
  -21.2100   -4.2480   26.0080 F   0  0  0  0  0  0  0  0  0  0  0  0
  -23.3920  -13.8410   21.0120 C   0  0  0  0  0  0  0  0  0  0  0  0
  -22.6450  -13.2240   21.9210 N   0  0  0  0  0  0  0  0  0  0  0  0
  -23.0160  -14.8830   20.4770 O   0  0  0  0  0  0  0  0  0  0  0  0
  -22.9660  -12.3830   22.3760 H   0  0  0  0  0  0  0  0  0  0  0  0
  -21.7380  -13.5950   22.1620 H   0  0  0  0  0  0  0  0  0  0  0  0
  -26.1420  -15.2730   20.1150 N   0  0  0  0  0  0  0  0  0  0  0  0
  -25.4350  -15.9950   20.2050 H   0  0  0  0  0  0  0  0  0  0  0  0
  -27.0230  -15.6290   19.7600 H   0  0  0  0  0  0  0  0  0  0  0  0
  -30.5170  -16.8540   22.3600 C   0  0  0  0  0  2  0  0  0  0  0  0
  -30.5400  -18.2720   22.4170 O   0  0  0  0  0  0  0  0  0  0  0  0
  -31.8250  -18.8630   22.5500 C   0  0  0  0  0  2  0  0  0  0  0  0
  -31.6770  -20.3220   22.1120 C   0  0  0  0  0  2  0  0  0  0  0  0
  -30.5520  -22.3200   22.6680 C   0  0  0  0  0  1  0  0  0  0  0  0
  -30.9690  -21.0380   23.1140 O   0  0  0  0  0  0  0  0  0  0  0  0
  1 52  1  0
  2  1  1  0
  3  2  1  0
  4  5  1  0
  4  3  1  0
  5  6  1  0
  6  7  1  0
  7  8  1  0
  8  9  1  0
  9 10  1  0
 10 11  1  0
 12 23  2  0
 13 11  1  0
 13 18  1  0
 14 22  1  0
 14 24  1  0
 15 21  1  0
 15 17  1  0
 16 22  1  0
 17 16  1  0
 18 17  2  0
 19 20  1  0
 19 13  2  0
 20 15  2  0
 21 14  1  0
 22 12  1  0
 24 26  2  0
 25 24  1  0
 27 25  1  0
 28 37  2  0
 28 33  1  0
 29 25  1  0
 29 33  1  0
 30 29  1  0
 31 32  1  0
 31 30  1  0
 32 28  1  0
 33 34  2  0
 34 35  1  0
 36 35  2  0
 37 36  1  0
 38 12  1  0
 38 39  1  0
 38 48  1  0
 39 42  1  0
 40 44  1  0
 40 39  1  0
 41 40  2  0
 44 43  1  0
 46 44  1  0
 46 47  1  0
 46 45  1  0
 48 51  1  1
 48 49  1  0
 50 48  1  0
 52 54  1  0
 53 57  1  0
 54 56  1  0
 54 53  1  0
 55 53  2  0
 57 66  1  0
 57 96  1  0
 58 66  1  0
 59 64  1  0
 60 61  1  0
 60 59  1  0
 62 61  1  0
 62 71  1  0
 62 63  1  0
 64 58  1  0
 64 63  1  0
 65 58  2  0
 66 67  1  0
 68 69  2  0
 69 88  1  0
 70 69  1  0
 70 73  1  0
 71 68  1  0
 71 72  1  0
 72 70  2  0
 73 74  1  0
 74 75  2  0
 76 79  1  0
 76 75  1  0
 77 76  2  0
 78 77  1  0
 78 73  2  0
 79 80  1  0
 80 81  1  0
 81 82  2  0
 83 82  1  0
 83 87  1  0
 84 83  2  0
 85 80  2  0
 85 84  1  0
 86 85  1  0
 88 89  1  0
 89 92  1  0
 89 91  1  0
 90 88  2  0
 93 94  1  0
 93 68  1  0
 95 93  1  0
 96 97  1  0
 97 98  1  0
 99 98  1  0
 99101  1  0
100101  1  0
M  ISO  4  10 101  11 101  58 100  66 100
M  END
>  <TORSDO>  (84) 
F 33

>  <SCORE>  (84) 
-9.724

>  <name>  (84) 
85

>  <ligand_id>  (84) 
85

>  <original_smiles>  (84) 
[H]c1c([H])c([H])c2c(c1[H])C([H])([H])C([H])([H])C([H])([H])C2([H])N([H])C(=O)C1([H])N(C(=O)C([H])(N([H])C(=O)C([H])(N([H])C([H])([H])[H])C([H])([H])[H])C(C([H])([H])[H])(C([H])([H])[H])C([H])([H])[H])C([H])([H])c2c([H])c(OC([H])([H])C([H])([H])OC([H])([H])C([H])([H])OC([H])([H])C([H])([H])OC([H])([H])C([H])([H])N([H])C(=O)C([H])(N([H])C(=O)N3C([H])([H])C([H])([H])C([H])([H])C([H])(n4nc(-c5c([H])c([H])c(Oc6c([H])c([H])c(F)c([H])c6F)c([H])c5[H])c(C(=O)N([H])[H])c4N([H])[H])C3([H])[H])C([H])([H])OC([H])([H])C([H])([H])OC([H])([H])[H])c([H])c([H])c2C1([H])[H]

>  <smiles>  (84) 
[H]c1c([H])c([H])c2c(c1[H])C([H])([H])C([H])([H])C([H])([H])C2([H])N([H])C(=O)C1([H])N(C(=O)C([H])(N([H])C(=O)C([H])(N([H])C([H])([H])[H])C([H])([H])[H])C(C([H])([H])[H])(C([H])([H])[H])C([H])([H])[H])C([H])([H])c2c([H])c(OC([H])([H])C([H])([H])OC([H])([H])C([H])([H])OC([H])([H])C([H])([H])OC([H])([H])C([H])([H])N([H])C(=O)C([H])(N([H])C(=O)N3C([H])([H])C([H])([H])C([H])([H])C([H])(n4nc(-c5c([H])c([H])c(Oc6c([H])c([H])c(F)c([H])c6F)c([H])c5[H])c(C(=O)N([H])[H])c4N([H])[H])C3([H])[H])C([H])([H])OC([H])([H])C([H])([H])OC([H])([H])[H])c([H])c([H])c2C1([H])[H]

$$$$
86:0:0
     RDKit          3D

109116  0  0  1  0  0  0  0  0999 V2000
  -25.9160  -26.5760   25.1910 C   0  0  0  0  0  0  0  0  0  0  0  0
  -24.8720  -27.4660   25.4700 N   0  0  0  0  0  0  0  0  0  0  0  0
  -25.6760  -25.5200   24.5940 O   0  0  0  0  0  0  0  0  0  0  0  0
  -25.1200  -28.3050   25.9780 H   0  0  0  0  0  0  0  0  0  0  0  0
  -27.3350  -26.9000   25.6260 C   0  0  0  0  0  0  0  0  0  0  0  0
  -28.5300  -26.6270   24.9330 C   0  0  0  0  0  0  0  0  0  0  0  0
  -27.3350  -27.4400   27.0140 C   0  0  0  0  0  0  0  0  0  0  0  0
  -28.3200  -28.3010   27.3170 N   0  0  0  0  0  0  0  0  0  0  0  0
  -26.5080  -27.1870   27.8900 O   0  0  0  0  0  0  0  0  0  0  0  0
  -28.8970  -28.7260   26.6040 H   0  0  0  0  0  0  0  0  0  0  0  0
  -28.3800  -28.6790   28.2510 H   0  0  0  0  0  0  0  0  0  0  0  0
  -29.7550  -26.8450   25.4590 O   0  0  0  0  0  0  0  0  0  0  0  0
  -29.6310  -27.0780   26.3720 H   0  0  0  0  0  0  0  0  0  0  0  0
  -28.8610  -25.9780   23.5390 C   0  0  0  0  0  2  0  0  0  0  0  0
  -30.0140  -26.5260   22.7340 O   0  0  0  0  0  0  0  0  0  0  0  0
  -25.1700  -31.1570   22.3850 C   0  0  0  0  0  0  0  0  0  0  0  0
  -29.4510  -27.1550   21.6820 C   0  0  0  0  0  0  0  0  0  0  0  0
  -25.0610  -29.1080   20.8590 C   0  0  0  0  0  3  0  0  0  0  0  0
  -27.2830  -28.0900   20.2830 C   0  0  0  0  0  0  0  0  0  0  0  0
  -27.2490  -30.2500   21.5130 C   0  0  0  0  0  2  0  0  0  0  0  0
  -27.8950  -28.9250   21.2050 C   0  0  0  0  0  0  0  0  0  0  0  0
  -29.0170  -28.4680   21.9010 C   0  0  0  0  0  3  0  0  0  0  0  0
  -28.9310  -26.3490   20.6590 C   0  0  0  0  0  3  0  0  0  0  0  0
  -27.8120  -26.8230   19.9660 C   0  0  0  0  0  3  0  0  0  0  0  0
  -26.0160  -28.6140   19.7380 C   0  0  0  0  0  2  0  0  0  0  0  0
  -25.7880  -30.1480   21.6960 N   0  0  0  0  0  0  0  0  0  0  0  0
  -23.9970  -31.4570   22.2100 O   0  0  0  0  0  0  0  0  0  0  0  0
  -24.5130  -27.8510   21.6810 C   0  0  0  0  0  0  0  0  0  0  0  0
  -23.5180  -27.0180   21.2420 N   0  0  0  0  0  0  0  0  0  0  0  0
  -24.9050  -27.7500   22.7990 O   0  0  0  0  0  0  0  0  0  0  0  0
  -23.3800  -27.1740   20.2370 H   0  0  0  0  0  0  0  0  0  0  0  0
  -20.7700  -24.8660   19.8970 C   0  0  0  0  0  0  0  0  0  0  0  0
  -22.4370  -26.0380   21.6000 C   0  0  0  0  0  3  0  0  0  0  0  0
  -23.1220  -24.6770   21.6490 C   0  0  0  0  0  2  0  0  0  0  0  0
  -23.0130  -23.8730   20.3440 C   0  0  0  0  0  2  0  0  0  0  0  0
  -21.5900  -23.6020   19.9470 C   0  0  0  0  0  2  0  0  0  0  0  0
  -21.0730  -25.9610   20.7460 C   0  0  0  0  0  0  0  0  0  0  0  0
  -19.9630  -26.8450   20.8810 C   0  0  0  0  0  3  0  0  0  0  0  0
  -18.9180  -26.9720   19.9530 C   0  0  0  0  0  3  0  0  0  0  0  0
  -18.7440  -25.9480   19.0190 C   0  0  0  0  0  3  0  0  0  0  0  0
  -19.6260  -24.8580   19.0640 C   0  0  0  0  0  3  0  0  0  0  0  0
  -25.9290  -32.1190   23.3590 C   0  0  0  0  0  3  0  0  0  0  0  0
  -26.1190  -31.5690   24.8130 C   0  0  1  0  0  0  0  0  0  0  0  0
  -24.8230  -31.0580   25.4940 C   0  0  0  0  0  1  0  0  0  0  0  0
  -27.1620  -30.4490   24.7970 C   0  0  0  0  0  1  0  0  0  0  0  0
  -26.7200  -32.6800   25.7090 C   0  0  0  0  0  1  0  0  0  0  0  0
  -25.2010  -33.3930   23.4200 N   0  0  0  0  0  0  0  0  0  0  0  0
  -25.7040  -34.5530   22.9830 C   0  0  0  0  0  0  0  0  0  0  0  0
  -26.8770  -34.6720   22.6210 O   0  0  0  0  0  0  0  0  0  0  0  0
  -24.2400  -33.3560   23.7180 H   0  0  0  0  0  0  0  0  0  0  0  0
  -24.3390  -36.0300   21.5040 C   0  0  0  0  0  1  0  0  0  0  0  0
  -24.7610  -35.7700   22.9590 C   0  0  0  0  0  3  0  0  0  0  0  0
  -25.6270  -36.8450   24.9830 C   0  0  0  0  0  1  0  0  0  0  0  0
  -25.3640  -36.9860   23.5490 N   0  0  0  0  0  0  0  0  0  0  0  0
  -24.7590  -37.7950   23.4240 H   0  0  0  0  0  0  0  0  0  0  0  0
  -23.3910  -27.3360   25.0910 C   0  0  0  0  0  2  0  0  0  0  0  0
  -22.3820  -28.4710   24.4050 C   0  0  0  0  0  2  0  0  0  0  0  0
  -22.4970  -29.1510   23.0580 O   0  0  0  0  0  0  0  0  0  0  0  0
  -21.5430  -29.4090   21.8840 C   0  0  0  0  0  2  0  0  0  0  0  0
  -21.6390  -29.2260   20.1600 C   0  0  0  0  0  2  0  0  0  0  0  0
  -22.2960  -28.1210   19.2430 O   0  0  0  0  0  0  0  0  0  0  0  0
  -22.9610  -28.1070   17.8230 C   0  0  0  0  0  2  0  0  0  0  0  0
  -24.4540  -27.5700   17.0420 C   0  0  0  0  0  2  0  0  0  0  0  0
  -25.9910  -27.8950   17.0240 O   0  0  0  0  0  0  0  0  0  0  0  0
  -27.0220  -27.4430   15.9130 C   0  0  0  0  0  3  0  0  0  0  0  0
  -28.7510  -27.3810   15.9320 C   0  0  0  0  0  3  0  0  0  0  0  0
  -29.8810  -27.1150   14.6460 C   0  0  0  0  0  2  0  0  0  0  0  0
  -31.4100  -26.6920   14.7060 O   0  0  0  0  0  0  0  0  0  0  0  0
  -32.4980  -26.6660   13.5520 C   0  0  0  0  0  3  0  0  0  0  0  0
  -33.9300  -25.6960   13.3890 C   0  0  0  0  0  3  0  0  0  0  0  0
  -35.2230  -25.8160   12.2340 C   0  0  0  0  0  2  0  0  0  0  0  0
  -37.4930  -24.5650   10.9840 C   0  0  0  0  0  0  0  0  0  0  0  0
  -38.3220  -23.0570    9.0940 C   0  0  0  0  0  2  0  0  0  0  0  0
  -37.1000  -22.7910    8.1780 C   0  0  0  0  0  2  0  0  0  0  0  0
  -36.2260  -21.6490    8.7360 C   0  0  0  0  0  2  0  0  0  0  0  0
  -35.9800  -21.8100   10.2560 C   0  0  0  0  0  3  0  0  0  0  0  0
  -37.2910  -22.0640   11.0160 C   0  0  0  0  0  2  0  0  0  0  0  0
  -37.8100  -23.3100   10.4760 N   0  0  0  0  0  0  0  0  0  0  0  0
  -38.1870  -25.5050   10.5560 O   0  0  0  0  0  0  0  0  0  0  0  0
  -36.2950  -24.6910   11.7990 N   0  0  0  0  0  0  0  0  0  0  0  0
  -35.9810  -23.7750   12.0760 H   0  0  0  0  0  0  0  0  0  0  0  0
  -34.1950  -20.7400   11.7210 C   0  0  0  0  0  0  0  0  0  0  0  0
  -33.8410  -19.4360   11.9120 C   0  0  0  0  0  0  0  0  0  0  0  0
  -34.7400  -18.6580   11.1190 C   0  0  0  0  0  0  0  0  0  0  0  0
  -35.2590  -20.7050   10.8390 N   0  0  0  0  0  0  0  0  0  0  0  0
  -35.6340  -19.4400   10.5320 N   0  0  0  0  0  0  0  0  0  0  0  0
  -34.7670  -17.2230   10.8290 C   0  0  0  0  0  0  0  0  0  0  0  0
  -35.9020  -16.4330   11.1160 C   0  0  0  0  0  3  0  0  0  0  0  0
  -35.8910  -15.0480   10.8430 C   0  0  0  0  0  3  0  0  0  0  0  0
  -34.7400  -14.4480   10.2800 C   0  0  0  0  0  0  0  0  0  0  0  0
  -33.6240  -15.2450    9.9730 C   0  0  0  0  0  3  0  0  0  0  0  0
  -33.6360  -16.6230   10.2400 C   0  0  0  0  0  3  0  0  0  0  0  0
  -34.6500  -13.1120    9.9560 O   0  0  0  0  0  0  0  0  0  0  0  0
  -35.3460  -12.1570   10.6510 C   0  0  0  0  0  0  0  0  0  0  0  0
  -35.1850  -11.9770   12.0410 C   0  0  0  0  0  3  0  0  0  0  0  0
  -35.8680  -10.9370   12.7010 C   0  0  0  0  0  3  0  0  0  0  0  0
  -36.7100  -10.0720   11.9730 C   0  0  0  0  0  0  0  0  0  0  0  0
  -36.8680  -10.2480   10.5860 C   0  0  0  0  0  3  0  0  0  0  0  0
  -36.1870  -11.2860    9.9280 C   0  0  0  0  0  0  0  0  0  0  0  0
  -36.3270  -11.4380    8.5870 F   0  0  0  0  0  0  0  0  0  0  0  0
  -37.3600   -9.0680   12.6030 F   0  0  0  0  0  0  0  0  0  0  0  0
  -32.6630  -18.9390   12.6980 C   0  0  0  0  0  0  0  0  0  0  0  0
  -32.7930  -17.7800   13.3240 N   0  0  0  0  0  0  0  0  0  0  0  0
  -31.6370  -19.6150   12.7990 O   0  0  0  0  0  0  0  0  0  0  0  0
  -33.6430  -17.2390   13.2530 H   0  0  0  0  0  0  0  0  0  0  0  0
  -32.0330  -17.4220   13.8830 H   0  0  0  0  0  0  0  0  0  0  0  0
  -33.6970  -21.9540   12.1910 N   0  0  0  0  0  0  0  0  0  0  0  0
  -32.8690  -21.9990   12.7740 H   0  0  0  0  0  0  0  0  0  0  0  0
  -33.9620  -22.8560   11.8220 H   0  0  0  0  0  0  0  0  0  0  0  0
  1  2  1  0
  1  5  1  0
  2  4  1  0
  3  1  2  0
  5  7  1  0
  6 12  1  0
  6  5  2  0
  7  8  1  0
  7  9  2  0
  8 11  1  0
 10  8  1  0
 12 13  1  0
 14  6  1  0
 15 14  1  0
 17 22  1  0
 17 15  1  0
 18 28  1  0
 18 26  1  0
 19 21  1  0
 20 26  1  0
 21 20  1  0
 21 22  2  0
 23 17  2  0
 24 19  2  0
 24 23  1  0
 25 19  1  0
 25 18  1  0
 26 16  1  0
 27 16  2  0
 28 30  2  0
 29 28  1  0
 31 29  1  0
 32 36  1  0
 32 37  1  0
 33 29  1  0
 33 34  1  0
 35 34  1  0
 36 35  1  0
 37 38  2  0
 37 33  1  0
 39 38  1  0
 40 41  1  0
 40 39  2  0
 41 32  2  0
 42 16  1  0
 42 47  1  0
 42 43  1  0
 43 44  1  1
 43 46  1  0
 45 43  1  0
 47 50  1  0
 48 47  1  0
 49 48  2  0
 52 51  1  0
 52 48  1  0
 52 54  1  0
 54 53  1  0
 55 54  1  0
 56  2  1  0
 57 56  1  0
 58 57  1  0
 59 58  1  0
 60 59  1  0
 61 60  1  0
 62 61  1  0
 63 62  1  0
 64 63  1  0
 65 66  2  0
 65 64  1  0
 67 68  1  0
 67 66  1  0
 69 68  1  0
 70 69  2  0
 71 70  1  0
 72 80  1  0
 73 78  1  0
 74 75  1  0
 74 73  1  0
 76 75  1  0
 76 85  1  0
 76 77  1  0
 78 72  1  0
 78 77  1  0
 79 72  2  0
 80 81  1  0
 80 71  1  0
 82 83  2  0
 82107  1  0
 83102  1  0
 84 83  1  0
 85 82  1  0
 86 85  1  0
 86 84  2  0
 87 88  1  0
 87 84  1  0
 89 88  2  0
 90 89  1  0
 91 92  1  0
 91 90  2  0
 92 87  2  0
 93 90  1  0
 93 94  1  0
 94 95  1  0
 95 96  2  0
 97101  1  0
 97 96  1  0
 98 97  2  0
 99 98  1  0
 99 94  2  0
100 99  1  0
102104  2  0
102103  1  0
103106  1  0
105103  1  0
107108  1  0
109107  1  0
M  ISO  4  14 101  15 101  72 100  80 100
M  END
>  <TORSDO>  (85) 
F 36

>  <SCORE>  (85) 
-2.215

>  <name>  (85) 
86

>  <ligand_id>  (85) 
86

>  <original_smiles>  (85) 
[H]OC(=C(C(=O)N([H])[H])C(=O)N([H])C([H])([H])C([H])([H])OC([H])([H])C([H])([H])OC([H])([H])C([H])([H])OC([H])([H])C([H])([H])C([H])([H])OC([H])([H])C([H])([H])C([H])([H])N([H])C(=O)N1C([H])([H])C([H])([H])C([H])([H])C([H])(n2nc(-c3c([H])c([H])c(Oc4c([H])c([H])c(F)c([H])c4F)c([H])c3[H])c(C(=O)N([H])[H])c2N([H])[H])C1([H])[H])C([H])([H])Oc1c([H])c([H])c2c(c1[H])C([H])([H])N(C(=O)C([H])(N([H])C(=O)C([H])(N([H])C([H])([H])[H])C([H])([H])[H])C(C([H])([H])[H])(C([H])([H])[H])C([H])([H])[H])C([H])(C(=O)N([H])C1([H])c3c([H])c([H])c([H])c([H])c3C([H])([H])C([H])([H])C1([H])[H])C2([H])[H]

>  <smiles>  (85) 
[H]OC(=C(C(=O)N([H])[H])C(=O)N([H])C([H])([H])C([H])([H])OC([H])([H])C([H])([H])OC([H])([H])C([H])([H])OC([H])([H])C([H])([H])C([H])([H])OC([H])([H])C([H])([H])C([H])([H])N([H])C(=O)N1C([H])([H])C([H])([H])C([H])([H])C([H])(n2nc(-c3c([H])c([H])c(Oc4c([H])c([H])c(F)c([H])c4F)c([H])c3[H])c(C(=O)N([H])[H])c2N([H])[H])C1([H])[H])C([H])([H])Oc1c([H])c([H])c2c(c1[H])C([H])([H])N(C(=O)C([H])(N([H])C(=O)C([H])(N([H])C([H])([H])[H])C([H])([H])[H])C(C([H])([H])[H])(C([H])([H])[H])C([H])([H])[H])C([H])(C(=O)N([H])C1([H])c3c([H])c([H])c([H])c([H])c3C([H])([H])C([H])([H])C1([H])[H])C2([H])[H]

$$$$
87:0:0
     RDKit          3D

100107  0  0  1  0  0  0  0  0999 V2000
  -24.3030  -25.2390   22.8540 C   0  0  0  0  0  2  0  0  0  0  0  0
  -25.3030  -24.2340   22.4290 N   0  0  0  0  0  4  0  0  0  0  0  0
  -26.1830  -24.6900   22.2460 H   0  0  0  0  0  0  0  0  0  0  0  0
  -25.4620  -23.6040   23.2020 H   0  0  0  0  0  0  0  0  0  0  0  0
  -24.9510  -23.4650   21.2160 C   0  0  0  0  0  2  0  0  0  0  0  0
  -26.0000  -22.3710   20.9570 C   0  0  0  0  0  2  0  0  0  0  0  0
  -27.3170  -22.9170   21.0820 O   0  0  0  0  0  0  0  0  0  0  0  0
  -27.7850  -23.6610   19.9570 C   0  0  0  0  0  2  0  0  0  0  0  0
  -28.2080  -25.0710   20.4010 C   0  0  0  0  0  2  0  0  0  0  0  0
  -28.5690  -25.9970   19.2180 C   0  0  0  0  0  2  0  0  0  0  0  0
  -28.5190  -27.3790   19.5840 O   0  0  0  0  0  0  0  0  0  0  0  0
  -24.5210  -32.0000   23.2150 C   0  0  0  0  0  0  0  0  0  0  0  0
  -27.2860  -27.9960   19.6740 C   0  0  0  0  0  0  0  0  0  0  0  0
  -23.3280  -30.6530   21.5190 C   0  0  0  0  0  3  0  0  0  0  0  0
  -24.8020  -29.3300   19.9200 C   0  0  0  0  0  0  0  0  0  0  0  0
  -25.8170  -31.1840   21.2510 C   0  0  0  0  0  2  0  0  0  0  0  0
  -25.9520  -29.8750   20.5040 C   0  0  0  0  0  0  0  0  0  0  0  0
  -27.1930  -29.2110   20.3870 C   0  0  0  0  0  3  0  0  0  0  0  0
  -26.1100  -27.4680   19.0840 C   0  0  0  0  0  3  0  0  0  0  0  0
  -24.8740  -28.1200   19.2150 C   0  0  0  0  0  3  0  0  0  0  0  0
  -23.5130  -30.1010   20.0820 C   0  0  0  0  0  2  0  0  0  0  0  0
  -24.5760  -31.2890   22.0530 N   0  0  0  0  0  0  0  0  0  0  0  0
  -23.4510  -32.1600   23.8170 O   0  0  0  0  0  0  0  0  0  0  0  0
  -22.7880  -29.5170   22.4170 C   0  0  0  0  0  0  0  0  0  0  0  0
  -21.4860  -29.2220   22.2870 N   0  0  0  0  0  0  0  0  0  0  0  0
  -23.5400  -28.9030   23.1820 O   0  0  0  0  0  0  0  0  0  0  0  0
  -20.9370  -29.7770   21.6470 H   0  0  0  0  0  0  0  0  0  0  0  0
  -18.2590  -27.6470   22.6700 C   0  0  0  0  0  0  0  0  0  0  0  0
  -20.7670  -28.1730   23.0080 C   0  0  0  0  0  3  0  0  0  0  0  0
  -21.0390  -26.7810   22.3930 C   0  0  0  0  0  2  0  0  0  0  0  0
  -20.0000  -26.3630   21.3470 C   0  0  0  0  0  2  0  0  0  0  0  0
  -18.5930  -26.3490   21.9550 C   0  0  0  0  0  2  0  0  0  0  0  0
  -19.2800  -28.5110   23.1480 C   0  0  0  0  0  0  0  0  0  0  0  0
  -18.9130  -29.7240   23.7740 C   0  0  0  0  0  3  0  0  0  0  0  0
  -17.5590  -30.0750   23.9270 C   0  0  0  0  0  3  0  0  0  0  0  0
  -16.5520  -29.2080   23.4680 C   0  0  0  0  0  3  0  0  0  0  0  0
  -16.9030  -27.9970   22.8470 C   0  0  0  0  0  3  0  0  0  0  0  0
  -25.7950  -32.6610   23.8290 C   0  0  0  0  0  3  0  0  0  0  0  0
  -25.4530  -34.0490   24.1640 N   0  0  0  0  0  0  0  0  0  0  0  0
  -25.7910  -35.1140   23.4230 C   0  0  0  0  0  0  0  0  0  0  0  0
  -26.4950  -35.0310   22.4120 O   0  0  0  0  0  0  0  0  0  0  0  0
  -24.8310  -34.1880   24.9460 H   0  0  0  0  0  0  0  0  0  0  0  0
  -24.0440  -36.8780   23.0230 C   0  0  0  0  0  1  0  0  0  0  0  0
  -25.2630  -36.4890   23.8750 C   0  0  0  0  0  3  0  0  0  0  0  0
  -27.3570  -37.3930   24.7820 C   0  0  0  0  0  1  0  0  0  0  0  0
  -26.2810  -37.5590   23.8090 N   0  0  0  0  0  0  0  0  0  0  0  0
  -25.8560  -38.4710   23.9570 H   0  0  0  0  0  0  0  0  0  0  0  0
  -26.3420  -31.8960   25.0950 C   0  0  1  0  0  0  0  0  0  0  0  0
  -25.2640  -31.6220   26.1700 C   0  0  0  0  0  1  0  0  0  0  0  0
  -26.9570  -30.5360   24.6910 C   0  0  0  0  0  1  0  0  0  0  0  0
  -27.4770  -32.7170   25.7520 C   0  0  0  0  0  1  0  0  0  0  0  0
  -24.9260  -26.2160   23.8580 C   0  0  0  0  0  2  0  0  0  0  0  0
  -26.0560  -25.5690   24.4390 O   0  0  0  0  0  0  0  0  0  0  0  0
  -26.8220  -26.4030   25.3050 C   0  0  0  0  0  2  0  0  0  0  0  0
  -27.6390  -27.4230   24.4860 C   0  0  0  0  0  2  0  0  0  0  0  0
  -28.7300  -26.7480   23.8670 O   0  0  0  0  0  0  0  0  0  0  0  0
  -29.4790  -27.5910   23.0000 C   0  0  0  0  0  2  0  0  0  0  0  0
  -30.7330  -26.8620   22.4920 C   0  0  0  0  0  2  0  0  0  0  0  0
  -31.2370  -27.5860   21.3780 O   0  0  0  0  0  0  0  0  0  0  0  0
  -32.6510  -27.7020   21.3430 C   0  0  0  0  0  2  0  0  0  0  0  0
  -33.0000  -28.6020   20.1520 C   0  0  0  0  0  2  0  0  0  0  0  0
  -34.4860  -28.9830   20.0430 C   0  0  0  0  0  2  0  0  0  0  0  0
  -36.2350  -27.9440   18.6120 C   0  0  0  0  0  0  0  0  0  0  0  0
  -37.8070  -26.6970   17.1870 C   0  0  0  0  0  2  0  0  0  0  0  0
  -37.0330  -25.9140   16.1100 C   0  0  0  0  0  2  0  0  0  0  0  0
  -36.6160  -24.5330   16.6500 C   0  0  0  0  0  2  0  0  0  0  0  0
  -35.9180  -24.6180   18.0350 C   0  0  0  0  0  3  0  0  0  0  0  0
  -36.7300  -25.5000   19.0100 C   0  0  0  0  0  2  0  0  0  0  0  0
  -36.9430  -26.8120   18.3720 N   0  0  0  0  0  0  0  0  0  0  0  0
  -36.3740  -28.9770   17.9540 O   0  0  0  0  0  0  0  0  0  0  0  0
  -35.3430  -27.8730   19.6110 N   0  0  0  0  0  0  0  0  0  0  0  0
  -35.2950  -27.0020   20.1160 H   0  0  0  0  0  0  0  0  0  0  0  0
  -34.4820  -22.7200   19.0150 C   0  0  0  0  0  0  0  0  0  0  0  0
  -34.7900  -21.4330   19.3710 C   0  0  0  0  0  0  0  0  0  0  0  0
  -36.1870  -21.2760   19.1290 C   0  0  0  0  0  0  0  0  0  0  0  0
  -35.6720  -23.2870   18.5860 N   0  0  0  0  0  0  0  0  0  0  0  0
  -36.7130  -22.4210   18.7080 N   0  0  0  0  0  0  0  0  0  0  0  0
  -37.0480  -20.0920   19.2140 C   0  0  0  0  0  0  0  0  0  0  0  0
  -38.2300  -20.0930   19.9860 C   0  0  0  0  0  3  0  0  0  0  0  0
  -39.0320  -18.9320   20.0670 C   0  0  0  0  0  3  0  0  0  0  0  0
  -38.6530  -17.7580   19.3740 C   0  0  0  0  0  0  0  0  0  0  0  0
  -37.4860  -17.7710   18.5890 C   0  0  0  0  0  3  0  0  0  0  0  0
  -36.6930  -18.9260   18.5050 C   0  0  0  0  0  3  0  0  0  0  0  0
  -39.3810  -16.5930   19.3750 O   0  0  0  0  0  0  0  0  0  0  0  0
  -40.2000  -16.2570   20.4230 C   0  0  0  0  0  0  0  0  0  0  0  0
  -39.7110  -16.1340   21.7420 C   0  0  0  0  0  3  0  0  0  0  0  0
  -40.5730  -15.7200   22.7760 C   0  0  0  0  0  3  0  0  0  0  0  0
  -41.9200  -15.4170   22.4950 C   0  0  0  0  0  0  0  0  0  0  0  0
  -42.4080  -15.5360   21.1810 C   0  0  0  0  0  3  0  0  0  0  0  0
  -41.5490  -15.9510   20.1490 C   0  0  0  0  0  0  0  0  0  0  0  0
  -42.0190  -16.0420   18.8820 F   0  0  0  0  0  0  0  0  0  0  0  0
  -42.7470  -15.0120   23.4870 F   0  0  0  0  0  0  0  0  0  0  0  0
  -33.8230  -20.3780   19.8260 C   0  0  0  0  0  0  0  0  0  0  0  0
  -34.2600  -19.4800   20.7020 N   0  0  0  0  0  0  0  0  0  0  0  0
  -32.6530  -20.3730   19.4430 O   0  0  0  0  0  0  0  0  0  0  0  0
  -35.2140  -19.4960   21.0340 H   0  0  0  0  0  0  0  0  0  0  0  0
  -33.6310  -18.7710   21.0500 H   0  0  0  0  0  0  0  0  0  0  0  0
  -33.2940  -23.4410   19.0040 N   0  0  0  0  0  0  0  0  0  0  0  0
  -32.4090  -23.0170   19.2600 H   0  0  0  0  0  0  0  0  0  0  0  0
  -33.2000  -24.3870   18.6550 H   0  0  0  0  0  0  0  0  0  0  0  0
  1 52  1  0
  2  1  1  0
  2  4  1  0
  3  2  1  0
  5  2  1  0
  6  7  1  0
  6  5  1  0
  8  9  1  0
  8  7  1  0
 10 11  1  0
 10  9  1  0
 11 13  1  0
 12 23  2  0
 13 18  1  0
 14 22  1  0
 14 24  1  0
 15 21  1  0
 15 17  1  0
 16 22  1  0
 17 16  1  0
 18 17  2  0
 19 20  1  0
 19 13  2  0
 20 15  2  0
 21 14  1  0
 22 12  1  0
 24 26  2  0
 25 24  1  0
 27 25  1  0
 28 37  2  0
 28 33  1  0
 29 25  1  0
 29 33  1  0
 30 29  1  0
 31 32  1  0
 31 30  1  0
 32 28  1  0
 33 34  2  0
 34 35  1  0
 36 35  2  0
 37 36  1  0
 38 12  1  0
 38 39  1  0
 38 48  1  0
 39 42  1  0
 40 44  1  0
 40 39  1  0
 41 40  2  0
 44 43  1  0
 46 44  1  0
 46 47  1  0
 46 45  1  0
 48 51  1  1
 48 49  1  0
 50 48  1  0
 52 53  1  0
 53 54  1  0
 55 54  1  0
 56 55  1  0
 57 56  1  0
 58 57  1  0
 59 58  1  0
 60 59  1  0
 61 60  1  0
 62 61  1  0
 63 71  1  0
 64 69  1  0
 65 66  1  0
 65 64  1  0
 67 66  1  0
 67 76  1  0
 67 68  1  0
 69 63  1  0
 69 68  1  0
 70 63  2  0
 71 62  1  0
 71 72  1  0
 73 74  2  0
 74 93  1  0
 75 78  1  0
 75 74  1  0
 76 77  1  0
 76 73  1  0
 77 75  2  0
 78 79  1  0
 79 80  2  0
 81 84  1  0
 81 80  1  0
 82 81  2  0
 83 82  1  0
 83 78  2  0
 84 85  1  0
 85 86  1  0
 86 87  2  0
 88 87  1  0
 88 92  1  0
 89 88  2  0
 90 85  2  0
 90 89  1  0
 91 90  1  0
 93 94  1  0
 94 96  1  0
 94 97  1  0
 95 93  2  0
 98 73  1  0
 98 99  1  0
100 98  1  0
M  ISO  4  10 101  11 101  63 100  71 100
M  END
>  <TORSDO>  (86) 
F 34

>  <SCORE>  (86) 
-5.012

>  <name>  (86) 
87

>  <ligand_id>  (86) 
87

>  <original_smiles>  (86) 
[H]c1c([H])c([H])c2c(c1[H])C([H])([H])C([H])([H])C([H])([H])C2([H])N([H])C(=O)C1([H])N(C(=O)C([H])(N([H])C(=O)C([H])(N([H])C([H])([H])[H])C([H])([H])[H])C(C([H])([H])[H])(C([H])([H])[H])C([H])([H])[H])C([H])([H])c2c([H])c(OC([H])([H])C([H])([H])C([H])([H])OC([H])([H])C([H])([H])[N+]([H])([H])C([H])([H])C([H])([H])OC([H])([H])C([H])([H])OC([H])([H])C([H])([H])OC([H])([H])C([H])([H])C([H])([H])N([H])C(=O)N3C([H])([H])C([H])([H])C([H])([H])C([H])(n4nc(-c5c([H])c([H])c(Oc6c([H])c([H])c(F)c([H])c6F)c([H])c5[H])c(C(=O)N([H])[H])c4N([H])[H])C3([H])[H])c([H])c([H])c2C1([H])[H]

>  <smiles>  (86) 
[H]c1c([H])c([H])c2c(c1[H])C([H])([H])C([H])([H])C([H])([H])C2([H])N([H])C(=O)C1([H])N(C(=O)C([H])(N([H])C(=O)C([H])(N([H])C([H])([H])[H])C([H])([H])[H])C(C([H])([H])[H])(C([H])([H])[H])C([H])([H])[H])C([H])([H])c2c([H])c(OC([H])([H])C([H])([H])C([H])([H])OC([H])([H])C([H])([H])[N+]([H])([H])C([H])([H])C([H])([H])OC([H])([H])C([H])([H])OC([H])([H])C([H])([H])OC([H])([H])C([H])([H])C([H])([H])N([H])C(=O)N3C([H])([H])C([H])([H])C([H])([H])C([H])(n4nc(-c5c([H])c([H])c(Oc6c([H])c([H])c(F)c([H])c6F)c([H])c5[H])c(C(=O)N([H])[H])c4N([H])[H])C3([H])[H])c([H])c([H])c2C1([H])[H]

$$$$
88:0:0
     RDKit          3D

 97104  0  0  1  0  0  0  0  0999 V2000
  -31.8000  -20.4770   22.9460 O   0  0  0  0  0  0  0  0  0  0  0  0
  -31.3850  -21.7940   23.2690 C   0  0  0  0  0  2  0  0  0  0  0  0
  -30.2200  -21.7410   24.2660 C   0  0  0  0  0  2  0  0  0  0  0  0
  -29.7640  -23.1290   24.7530 C   0  0  0  0  0  2  0  0  0  0  0  0
  -28.9040  -23.7290   23.7850 O   0  0  0  0  0  0  0  0  0  0  0  0
  -29.4560  -24.8810   23.1590 C   0  0  0  0  0  2  0  0  0  0  0  0
  -28.5810  -25.3010   21.9660 C   0  0  0  0  0  2  0  0  0  0  0  0
  -29.1070  -26.5640   21.2580 C   0  0  0  0  0  2  0  0  0  0  0  0
  -28.4010  -26.7890   20.0370 O   0  0  0  0  0  0  0  0  0  0  0  0
  -24.5720  -31.9010   23.2170 C   0  0  0  0  0  0  0  0  0  0  0  0
  -27.2460  -27.5310   20.1020 C   0  0  0  0  0  0  0  0  0  0  0  0
  -23.3700  -30.5180   21.5560 C   0  0  0  0  0  3  0  0  0  0  0  0
  -24.8340  -29.0050   20.1130 C   0  0  0  0  0  0  0  0  0  0  0  0
  -25.8950  -30.8930   21.3640 C   0  0  0  0  0  2  0  0  0  0  0  0
  -25.9830  -29.5320   20.7170 C   0  0  0  0  0  0  0  0  0  0  0  0
  -27.1920  -28.8050   20.7090 C   0  0  0  0  0  3  0  0  0  0  0  0
  -26.0860  -27.0170   19.4830 C   0  0  0  0  0  3  0  0  0  0  0  0
  -24.8790  -27.7460   19.4920 C   0  0  0  0  0  3  0  0  0  0  0  0
  -23.5790  -29.8570   20.1670 C   0  0  0  0  0  2  0  0  0  0  0  0
  -24.6310  -31.1200   22.1040 N   0  0  0  0  0  0  0  0  0  0  0  0
  -23.4890  -32.1610   23.7590 O   0  0  0  0  0  0  0  0  0  0  0  0
  -22.7310  -29.4770   22.5010 C   0  0  0  0  0  0  0  0  0  0  0  0
  -21.4070  -29.2880   22.3690 N   0  0  0  0  0  0  0  0  0  0  0  0
  -23.4190  -28.8470   23.3090 O   0  0  0  0  0  0  0  0  0  0  0  0
  -20.9130  -29.8420   21.6820 H   0  0  0  0  0  0  0  0  0  0  0  0
  -18.0380  -28.0870   22.8430 C   0  0  0  0  0  0  0  0  0  0  0  0
  -20.5960  -28.3380   23.1260 C   0  0  0  0  0  3  0  0  0  0  0  0
  -20.7010  -26.9160   22.5270 C   0  0  0  0  0  2  0  0  0  0  0  0
  -19.6000  -26.6100   21.5070 C   0  0  0  0  0  2  0  0  0  0  0  0
  -18.2170  -26.7470   22.1490 C   0  0  0  0  0  2  0  0  0  0  0  0
  -19.1560  -28.8410   23.2880 C   0  0  0  0  0  0  0  0  0  0  0  0
  -18.9380  -30.0980   23.8920 C   0  0  0  0  0  3  0  0  0  0  0  0
  -17.6340  -30.5990   24.0660 C   0  0  0  0  0  3  0  0  0  0  0  0
  -16.5300  -29.8380   23.6420 C   0  0  0  0  0  3  0  0  0  0  0  0
  -16.7330  -28.5860   23.0340 C   0  0  0  0  0  3  0  0  0  0  0  0
  -25.8540  -32.5300   23.8460 C   0  0  0  0  0  3  0  0  0  0  0  0
  -25.5450  -33.9290   24.1730 N   0  0  0  0  0  0  0  0  0  0  0  0
  -25.8900  -34.9810   23.4220 C   0  0  0  0  0  0  0  0  0  0  0  0
  -26.5780  -34.8780   22.4010 O   0  0  0  0  0  0  0  0  0  0  0  0
  -24.9340  -34.0820   24.9640 H   0  0  0  0  0  0  0  0  0  0  0  0
  -24.1750  -36.7760   23.0370 C   0  0  0  0  0  1  0  0  0  0  0  0
  -25.4000  -36.3700   23.8710 C   0  0  0  0  0  3  0  0  0  0  0  0
  -27.5220  -37.2440   24.7420 C   0  0  0  0  0  1  0  0  0  0  0  0
  -26.4390  -37.4190   23.7780 N   0  0  0  0  0  0  0  0  0  0  0  0
  -26.0350  -38.3420   23.9140 H   0  0  0  0  0  0  0  0  0  0  0  0
  -26.3640  -31.7550   25.1240 C   0  0  1  0  0  0  0  0  0  0  0  0
  -25.2650  -31.5150   26.1870 C   0  0  0  0  0  1  0  0  0  0  0  0
  -26.9500  -30.3800   24.7270 C   0  0  0  0  0  1  0  0  0  0  0  0
  -27.5100  -32.5470   25.7960 C   0  0  0  0  0  1  0  0  0  0  0  0
  -32.8530  -20.4540   21.9860 C   0  0  0  0  0  2  0  0  0  0  0  0
  -33.0540  -19.0120   21.5180 C   0  0  0  0  0  2  0  0  0  0  0  0
  -31.2080  -17.3520   21.4270 C   0  0  0  0  0  0  0  0  0  0  0  0
  -31.7860  -18.4840   21.0320 N   0  0  0  0  0  0  0  0  0  0  0  0
  -31.7150  -16.6180   22.2840 O   0  0  0  0  0  0  0  0  0  0  0  0
  -31.2680  -19.0700   20.3900 H   0  0  0  0  0  0  0  0  0  0  0  0
  -29.8350  -16.9960   20.8090 C   0  0  0  0  0  3  0  0  0  0  0  0
  -30.3560  -14.5980   20.2070 C   0  0  0  0  0  0  0  0  0  0  0  0
  -30.0260  -12.5680   18.8820 C   0  0  0  0  0  2  0  0  0  0  0  0
  -29.0120  -12.8980   17.7700 C   0  0  0  0  0  2  0  0  0  0  0  0
  -27.5670  -12.7050   18.2710 C   0  0  0  0  0  2  0  0  0  0  0  0
  -27.3020  -13.4020   19.6310 C   0  0  0  0  0  3  0  0  0  0  0  0
  -28.4190  -13.0580   20.6430 C   0  0  0  0  0  2  0  0  0  0  0  0
  -29.7070  -13.4240   20.0310 N   0  0  0  0  0  0  0  0  0  0  0  0
  -31.4630  -14.8310   19.7180 O   0  0  0  0  0  0  0  0  0  0  0  0
  -29.6180  -15.5430   20.8030 N   0  0  0  0  0  0  0  0  0  0  0  0
  -28.7420  -15.2320   21.1920 H   0  0  0  0  0  0  0  0  0  0  0  0
  -24.9040  -13.9160   20.4080 C   0  0  0  0  0  0  0  0  0  0  0  0
  -23.8830  -13.0980   20.8160 C   0  0  0  0  0  0  0  0  0  0  0  0
  -24.4030  -11.7690   20.7750 C   0  0  0  0  0  0  0  0  0  0  0  0
  -25.9770  -13.0790   20.1500 N   0  0  0  0  0  0  0  0  0  0  0  0
  -25.6810  -11.7840   20.4250 N   0  0  0  0  0  0  0  0  0  0  0  0
  -23.7420  -10.4750   20.9900 C   0  0  0  0  0  0  0  0  0  0  0  0
  -24.2300   -9.5460   21.9350 C   0  0  0  0  0  3  0  0  0  0  0  0
  -23.5650   -8.3170   22.1370 C   0  0  0  0  0  3  0  0  0  0  0  0
  -22.4010   -8.0080   21.3940 C   0  0  0  0  0  0  0  0  0  0  0  0
  -21.9350   -8.9270   20.4370 C   0  0  0  0  0  3  0  0  0  0  0  0
  -22.5990  -10.1480   20.2330 C   0  0  0  0  0  3  0  0  0  0  0  0
  -21.7070   -6.8280   21.5040 O   0  0  0  0  0  0  0  0  0  0  0  0
  -21.6880   -6.1100   22.6740 C   0  0  0  0  0  0  0  0  0  0  0  0
  -21.2260   -6.6700   23.8850 C   0  0  0  0  0  3  0  0  0  0  0  0
  -21.1610   -5.8760   25.0480 C   0  0  0  0  0  3  0  0  0  0  0  0
  -21.5430   -4.5220   25.0010 C   0  0  0  0  0  0  0  0  0  0  0  0
  -21.9950   -3.9600   23.7930 C   0  0  0  0  0  3  0  0  0  0  0  0
  -22.0640   -4.7520   22.6330 C   0  0  0  0  0  0  0  0  0  0  0  0
  -22.4810   -4.2010   21.4680 F   0  0  0  0  0  0  0  0  0  0  0  0
  -21.4720   -3.7580   26.1150 F   0  0  0  0  0  0  0  0  0  0  0  0
  -22.4740  -13.5140   21.1320 C   0  0  0  0  0  0  0  0  0  0  0  0
  -21.8100  -12.7880   22.0240 N   0  0  0  0  0  0  0  0  0  0  0  0
  -21.9710  -14.5130   20.6210 O   0  0  0  0  0  0  0  0  0  0  0  0
  -22.2320  -11.9790   22.4550 H   0  0  0  0  0  0  0  0  0  0  0  0
  -20.8660  -13.0420   22.2800 H   0  0  0  0  0  0  0  0  0  0  0  0
  -25.0060  -15.2930   20.2220 N   0  0  0  0  0  0  0  0  0  0  0  0
  -24.2210  -15.9200   20.3590 H   0  0  0  0  0  0  0  0  0  0  0  0
  -25.8220  -15.7620   19.8480 H   0  0  0  0  0  0  0  0  0  0  0  0
  -30.4400  -17.3910   18.2520 C   0  0  0  0  0  1  0  0  0  0  0  0
  -28.0320  -17.3560   19.0000 C   0  0  0  0  0  1  0  0  0  0  0  0
  -29.4810  -17.6660   19.4300 C   0  0  0  0  0  3  0  0  0  0  0  0
  1  2  1  0
  2  3  1  0
  3  4  1  0
  5  4  1  0
  6  5  1  0
  7  6  1  0
  8  7  1  0
  9 11  1  0
  9  8  1  0
 10 21  2  0
 11 16  1  0
 12 20  1  0
 12 22  1  0
 13 19  1  0
 13 15  1  0
 14 20  1  0
 15 14  1  0
 16 15  2  0
 17 18  1  0
 17 11  2  0
 18 13  2  0
 19 12  1  0
 20 10  1  0
 22 24  2  0
 23 22  1  0
 25 23  1  0
 26 35  2  0
 26 31  1  0
 27 23  1  0
 27 31  1  0
 28 27  1  0
 29 30  1  0
 29 28  1  0
 30 26  1  0
 31 32  2  0
 32 33  1  0
 34 33  2  0
 35 34  1  0
 36 10  1  0
 36 37  1  0
 36 46  1  0
 37 40  1  0
 38 42  1  0
 38 37  1  0
 39 38  2  0
 42 41  1  0
 44 42  1  0
 44 45  1  0
 44 43  1  0
 46 49  1  1
 46 47  1  0
 48 46  1  0
 50  1  1  0
 51 50  1  0
 52 54  2  0
 53 52  1  0
 53 51  1  0
 55 53  1  0
 56 97  1  0
 56 52  1  0
 57 65  1  0
 58 63  1  0
 59 60  1  0
 59 58  1  0
 61 60  1  0
 61 70  1  0
 61 62  1  0
 63 57  1  0
 63 62  1  0
 64 57  2  0
 65 56  1  0
 65 66  1  0
 67 68  2  0
 68 87  1  0
 69 68  1  0
 69 72  1  0
 70 67  1  0
 70 71  1  0
 71 69  2  0
 72 73  1  0
 73 74  2  0
 75 78  1  0
 75 74  1  0
 76 75  2  0
 77 76  1  0
 77 72  2  0
 78 79  1  0
 79 80  1  0
 80 81  2  0
 82 81  1  0
 82 86  1  0
 83 82  2  0
 84 79  2  0
 84 83  1  0
 85 84  1  0
 87 88  1  0
 88 91  1  0
 88 90  1  0
 89 87  2  0
 92 93  1  0
 92 67  1  0
 94 92  1  0
 95 97  1  0
 96 97  1  0
M  ISO  4   8 101   9 101  57 100  65 100
M  END
>  <TORSDO>  (87) 
F 28

>  <SCORE>  (87) 
-10.269

>  <name>  (87) 
88

>  <ligand_id>  (87) 
88

>  <original_smiles>  (87) 
[H]c1c([H])c([H])c2c(c1[H])C([H])([H])C([H])([H])C([H])([H])C2([H])N([H])C(=O)C1([H])N(C(=O)C([H])(N([H])C(=O)C([H])(N([H])C([H])([H])[H])C([H])([H])[H])C(C([H])([H])[H])(C([H])([H])[H])C([H])([H])[H])C([H])([H])c2c([H])c(OC([H])([H])C([H])([H])C([H])([H])OC([H])([H])C([H])([H])C([H])([H])OC([H])([H])C([H])([H])N([H])C(=O)C([H])(N([H])C(=O)N3C([H])([H])C([H])([H])C([H])([H])C([H])(n4nc(-c5c([H])c([H])c(Oc6c([H])c([H])c(F)c([H])c6F)c([H])c5[H])c(C(=O)N([H])[H])c4N([H])[H])C3([H])[H])C([H])(C([H])([H])[H])C([H])([H])[H])c([H])c([H])c2C1([H])[H]

>  <smiles>  (87) 
[H]c1c([H])c([H])c2c(c1[H])C([H])([H])C([H])([H])C([H])([H])C2([H])N([H])C(=O)C1([H])N(C(=O)C([H])(N([H])C(=O)C([H])(N([H])C([H])([H])[H])C([H])([H])[H])C(C([H])([H])[H])(C([H])([H])[H])C([H])([H])[H])C([H])([H])c2c([H])c(OC([H])([H])C([H])([H])C([H])([H])OC([H])([H])C([H])([H])C([H])([H])OC([H])([H])C([H])([H])N([H])C(=O)C([H])(N([H])C(=O)N3C([H])([H])C([H])([H])C([H])([H])C([H])(n4nc(-c5c([H])c([H])c(Oc6c([H])c([H])c(F)c([H])c6F)c([H])c5[H])c(C(=O)N([H])[H])c4N([H])[H])C3([H])[H])C([H])(C([H])([H])[H])C([H])([H])[H])c([H])c([H])c2C1([H])[H]

$$$$
89:0:0
     RDKit          3D

110117  0  0  1  0  0  0  0  0999 V2000
  -22.6560  -18.2470   21.3510 C   0  0  0  0  0  2  0  0  0  0  0  0
  -22.8630  -19.5950   21.7670 O   0  0  0  0  0  0  0  0  0  0  0  0
  -22.0190  -19.9430   22.8610 C   0  0  0  0  0  2  0  0  0  0  0  0
  -22.3660  -21.3530   23.3620 C   0  0  0  0  0  2  0  0  0  0  0  0
  -22.2690  -22.3790   22.2960 N   0  0  0  0  0  4  0  0  0  0  0  0
  -21.3020  -22.5140   22.0380 H   0  0  0  0  0  0  0  0  0  0  0  0
  -22.7500  -22.0310   21.4760 H   0  0  0  0  0  0  0  0  0  0  0  0
  -22.8700  -23.6800   22.6680 C   0  0  0  0  0  2  0  0  0  0  0  0
  -22.8200  -24.6840   21.5050 C   0  0  0  0  0  2  0  0  0  0  0  0
  -23.4790  -24.1010   20.3810 O   0  0  0  0  0  0  0  0  0  0  0  0
  -24.6060  -24.8300   19.8980 C   0  0  0  0  0  2  0  0  0  0  0  0
  -25.9330  -24.3370   20.5030 C   0  0  0  0  0  2  0  0  0  0  0  0
  -26.9770  -25.2050   20.0880 O   0  0  0  0  0  0  0  0  0  0  0  0
  -28.2590  -24.5890   20.0600 C   0  0  0  0  0  2  0  0  0  0  0  0
  -29.3540  -25.6580   19.8890 C   0  0  0  0  0  2  0  0  0  0  0  0
  -29.0570  -26.5660   18.8210 O   0  0  0  0  0  0  0  0  0  0  0  0
  -25.5200  -30.6620   23.4340 C   0  0  0  0  0  0  0  0  0  0  0  0
  -27.9850  -27.3880   19.0560 C   0  0  0  0  0  0  0  0  0  0  0  0
  -24.3130  -30.0770   21.3500 C   0  0  0  0  0  3  0  0  0  0  0  0
  -25.7300  -29.0140   19.5090 C   0  0  0  0  0  0  0  0  0  0  0  0
  -26.8620  -30.2220   21.3870 C   0  0  0  0  0  2  0  0  0  0  0  0
  -26.8750  -29.1670   20.3010 C   0  0  0  0  0  0  0  0  0  0  0  0
  -28.0060  -28.3570   20.0820 C   0  0  0  0  0  3  0  0  0  0  0  0
  -26.8450  -27.2620   18.2420 C   0  0  0  0  0  3  0  0  0  0  0  0
  -25.7090  -28.0610   18.4730 C   0  0  0  0  0  3  0  0  0  0  0  0
  -24.5580  -29.9160   19.8230 C   0  0  0  0  0  2  0  0  0  0  0  0
  -25.5770  -30.3100   22.1190 N   0  0  0  0  0  0  0  0  0  0  0  0
  -24.4310  -30.8360   24.0010 O   0  0  0  0  0  0  0  0  0  0  0  0
  -23.5110  -28.8560   21.8530 C   0  0  0  0  0  0  0  0  0  0  0  0
  -22.1780  -28.9120   21.7000 N   0  0  0  0  0  0  0  0  0  0  0  0
  -24.0860  -27.8780   22.3400 O   0  0  0  0  0  0  0  0  0  0  0  0
  -21.7810  -29.7500   21.2990 H   0  0  0  0  0  0  0  0  0  0  0  0
  -18.6610  -28.1290   21.9280 C   0  0  0  0  0  0  0  0  0  0  0  0
  -21.2280  -27.8600   22.0640 C   0  0  0  0  0  3  0  0  0  0  0  0
  -21.0740  -26.8210   20.9270 C   0  0  0  0  0  2  0  0  0  0  0  0
  -19.9230  -27.1420   19.9710 C   0  0  0  0  0  2  0  0  0  0  0  0
  -18.5950  -27.1960   20.7320 C   0  0  0  0  0  2  0  0  0  0  0  0
  -19.8980  -28.4500   22.5460 C   0  0  0  0  0  0  0  0  0  0  0  0
  -19.9060  -29.3480   23.6370 C   0  0  0  0  0  3  0  0  0  0  0  0
  -18.7080  -29.9110   24.1150 C   0  0  0  0  0  3  0  0  0  0  0  0
  -17.4850  -29.5770   23.5070 C   0  0  0  0  0  3  0  0  0  0  0  0
  -17.4620  -28.6850   22.4200 C   0  0  0  0  0  3  0  0  0  0  0  0
  -26.8120  -30.8850   24.2800 C   0  0  0  0  0  3  0  0  0  0  0  0
  -26.6170  -32.1050   25.0720 N   0  0  0  0  0  0  0  0  0  0  0  0
  -27.1160  -33.3070   24.7510 C   0  0  0  0  0  0  0  0  0  0  0  0
  -27.8560  -33.4880   23.7790 O   0  0  0  0  0  0  0  0  0  0  0  0
  -25.9760  -32.0460   25.8490 H   0  0  0  0  0  0  0  0  0  0  0  0
  -25.6170  -35.3130   24.9700 C   0  0  0  0  0  1  0  0  0  0  0  0
  -26.7310  -34.4980   25.6470 C   0  0  0  0  0  3  0  0  0  0  0  0
  -28.8550  -34.7560   26.8510 C   0  0  0  0  0  1  0  0  0  0  0  0
  -27.8700  -35.3830   25.9730 N   0  0  0  0  0  0  0  0  0  0  0  0
  -27.5460  -36.2380   26.4190 H   0  0  0  0  0  0  0  0  0  0  0  0
  -27.1620  -29.6630   25.2140 C   0  0  1  0  0  0  0  0  0  0  0  0
  -25.9820  -29.1990   26.0980 C   0  0  0  0  0  1  0  0  0  0  0  0
  -27.6290  -28.4490   24.3760 C   0  0  0  0  0  1  0  0  0  0  0  0
  -28.3390  -30.0360   26.1450 C   0  0  0  0  0  1  0  0  0  0  0  0
  -23.2280  -18.0310   19.9440 C   0  0  0  0  0  2  0  0  0  0  0  0
  -24.6390  -18.0420   20.0630 O   0  0  0  0  0  0  0  0  0  0  0  0
  -25.3350  -17.9840   18.8300 C   0  0  0  0  0  2  0  0  0  0  0  0
  -26.8190  -17.8410   19.1890 C   0  0  0  0  0  2  0  0  0  0  0  0
  -27.3610  -19.0680   19.9500 C   0  0  0  0  0  2  0  0  0  0  0  0
  -28.8300  -19.0240   20.0930 N   0  0  0  0  0  4  0  0  0  0  0  0
  -29.2660  -19.2220   19.2050 H   0  0  0  0  0  0  0  0  0  0  0  0
  -29.1040  -18.0910   20.3630 H   0  0  0  0  0  0  0  0  0  0  0  0
  -29.3680  -19.9310   21.1310 C   0  0  0  0  0  2  0  0  0  0  0  0
  -30.8930  -20.0180   21.0230 C   0  0  0  0  0  2  0  0  0  0  0  0
  -31.3430  -18.7010   20.7420 O   0  0  0  0  0  0  0  0  0  0  0  0
  -32.7030  -18.6440   20.3370 C   0  0  0  0  0  2  0  0  0  0  0  0
  -32.9670  -17.2420   19.7780 C   0  0  0  0  0  2  0  0  0  0  0  0
  -33.0810  -16.3310   20.8640 O   0  0  0  0  0  0  0  0  0  0  0  0
  -32.7150  -15.0160   20.4910 C   0  0  0  0  0  2  0  0  0  0  0  0
  -33.2140  -14.0130   21.5450 C   0  0  0  0  0  2  0  0  0  0  0  0
  -32.9150  -11.8370   20.4130 C   0  0  0  0  0  0  0  0  0  0  0  0
  -31.9010  -10.6200   18.5370 C   0  0  0  0  0  2  0  0  0  0  0  0
  -31.1980  -11.6570   17.6390 C   0  0  0  0  0  2  0  0  0  0  0  0
  -29.7630  -11.9400   18.1320 C   0  0  0  0  0  2  0  0  0  0  0  0
  -29.7000  -12.2320   19.6540 C   0  0  0  0  0  3  0  0  0  0  0  0
  -30.4980  -11.1690   20.4450 C   0  0  0  0  0  2  0  0  0  0  0  0
  -31.8710  -11.1360   19.9120 N   0  0  0  0  0  0  0  0  0  0  0  0
  -34.0500  -11.8290   19.9310 O   0  0  0  0  0  0  0  0  0  0  0  0
  -32.5590  -12.7260   21.3450 N   0  0  0  0  0  0  0  0  0  0  0  0
  -31.6110  -12.6460   21.6840 H   0  0  0  0  0  0  0  0  0  0  0  0
  -27.5430  -13.4650   20.3370 C   0  0  0  0  0  0  0  0  0  0  0  0
  -26.3110  -13.0070   20.7150 C   0  0  0  0  0  0  0  0  0  0  0  0
  -26.4030  -11.5790   20.7040 C   0  0  0  0  0  0  0  0  0  0  0  0
  -28.3230  -12.3360   20.1260 N   0  0  0  0  0  0  0  0  0  0  0  0
  -27.6370  -11.1980   20.4010 N   0  0  0  0  0  0  0  0  0  0  0  0
  -25.3710  -10.5570   20.9120 C   0  0  0  0  0  0  0  0  0  0  0  0
  -25.5250   -9.5410   21.8810 C   0  0  0  0  0  3  0  0  0  0  0  0
  -24.5130   -8.5760   22.0730 C   0  0  0  0  0  3  0  0  0  0  0  0
  -23.3300   -8.6250   21.2980 C   0  0  0  0  0  0  0  0  0  0  0  0
  -23.1920   -9.6240   20.3200 C   0  0  0  0  0  3  0  0  0  0  0  0
  -24.2030  -10.5800   20.1250 C   0  0  0  0  0  3  0  0  0  0  0  0
  -22.3060   -7.7140   21.3970 O   0  0  0  0  0  0  0  0  0  0  0  0
  -22.0080   -7.0940   22.5840 C   0  0  0  0  0  0  0  0  0  0  0  0
  -21.6700   -7.8240   23.7440 C   0  0  0  0  0  3  0  0  0  0  0  0
  -21.3030   -7.1460   24.9230 C   0  0  0  0  0  3  0  0  0  0  0  0
  -21.2640   -5.7390   24.9440 C   0  0  0  0  0  0  0  0  0  0  0  0
  -21.5910   -5.0100   23.7880 C   0  0  0  0  0  3  0  0  0  0  0  0
  -21.9610   -5.6850   22.6110 C   0  0  0  0  0  0  0  0  0  0  0  0
  -22.2570   -4.9760   21.4950 F   0  0  0  0  0  0  0  0  0  0  0  0
  -20.9020   -5.0870   26.0740 F   0  0  0  0  0  0  0  0  0  0  0  0
  -25.0880  -13.8340   20.9800 C   0  0  0  0  0  0  0  0  0  0  0  0
  -24.2140  -13.3760   21.8690 N   0  0  0  0  0  0  0  0  0  0  0  0
  -24.9220  -14.9220   20.4300 O   0  0  0  0  0  0  0  0  0  0  0  0
  -24.3510  -12.4890   22.3300 H   0  0  0  0  0  0  0  0  0  0  0  0
  -23.3910  -13.9200   22.0850 H   0  0  0  0  0  0  0  0  0  0  0  0
  -28.0630  -14.7430   20.1320 N   0  0  0  0  0  0  0  0  0  0  0  0
  -27.4800  -15.5700   20.1680 H   0  0  0  0  0  0  0  0  0  0  0  0
  -28.9910  -14.9290   19.7790 H   0  0  0  0  0  0  0  0  0  0  0  0
  1  2  1  0
  2  3  1  0
  3  4  1  0
  5  8  1  0
  5  4  1  0
  6  5  1  0
  7  5  1  0
  9  8  1  0
 10  9  1  0
 11 10  1  0
 11 12  1  0
 13 12  1  0
 14 13  1  0
 15 14  1  0
 16 18  1  0
 16 15  1  0
 17 28  2  0
 18 23  1  0
 19 29  1  0
 19 27  1  0
 20 26  1  0
 20 22  1  0
 21 27  1  0
 22 21  1  0
 23 22  2  0
 24 25  1  0
 24 18  2  0
 25 20  2  0
 26 19  1  0
 27 17  1  0
 29 31  2  0
 30 29  1  0
 32 30  1  0
 33 42  2  0
 33 38  1  0
 34 30  1  0
 34 38  1  0
 35 34  1  0
 36 37  1  0
 36 35  1  0
 37 33  1  0
 38 39  2  0
 39 40  1  0
 41 40  2  0
 42 41  1  0
 43 17  1  0
 43 44  1  0
 43 53  1  0
 44 47  1  0
 45 44  1  0
 45 49  1  0
 46 45  2  0
 49 48  1  0
 49 51  1  0
 51 52  1  0
 51 50  1  0
 53 54  1  1
 53 56  1  0
 55 53  1  0
 57 58  1  0
 57  1  1  0
 59 60  1  0
 59 58  1  0
 60 61  1  0
 61 62  1  0
 62 64  1  0
 62 65  1  0
 63 62  1  0
 66 65  1  0
 67 66  1  0
 68 67  1  0
 69 68  1  0
 69 70  1  0
 71 70  1  0
 71 72  1  0
 73 81  1  0
 74 79  1  0
 75 76  1  0
 75 74  1  0
 77 76  1  0
 77 86  1  0
 77 78  1  0
 79 73  1  0
 79 78  1  0
 80 73  2  0
 81 72  1  0
 81 82  1  0
 83 84  2  0
 84103  1  0
 85 84  1  0
 85 88  1  0
 86 83  1  0
 86 87  1  0
 87 85  2  0
 88 89  1  0
 89 90  2  0
 91 94  1  0
 91 90  1  0
 92 91  2  0
 93 92  1  0
 93 88  2  0
 94 95  1  0
 95100  2  0
 95 96  1  0
 96 97  2  0
 97 98  1  0
 98102  1  0
 99 98  2  0
100 99  1  0
101100  1  0
103104  1  0
104107  1  0
104106  1  0
105103  2  0
108109  1  0
108 83  1  0
110108  1  0
M  ISO  4  15 101  16 101  73 100  81 100
M  END
>  <TORSDO>  (88) 
F 42

>  <SCORE>  (88) 
20.220

>  <name>  (88) 
89

>  <ligand_id>  (88) 
89

>  <original_smiles>  (88) 
[H]c1c([H])c([H])c2c(c1[H])C([H])([H])C([H])([H])C([H])([H])C2([H])N([H])C(=O)C1([H])N(C(=O)C([H])(N([H])C(=O)C([H])(N([H])C([H])([H])[H])C([H])([H])[H])C(C([H])([H])[H])(C([H])([H])[H])C([H])([H])[H])C([H])([H])c2c([H])c(OC([H])([H])C([H])([H])OC([H])([H])C([H])([H])OC([H])([H])C([H])([H])[N+]([H])([H])C([H])([H])C([H])([H])OC([H])([H])C([H])([H])OC([H])([H])C([H])([H])C([H])([H])[N+]([H])([H])C([H])([H])C([H])([H])OC([H])([H])C([H])([H])OC([H])([H])C([H])([H])N([H])C(=O)N3C([H])([H])C([H])([H])C([H])([H])C([H])(n4nc(-c5c([H])c([H])c(Oc6c([H])c([H])c(F)c([H])c6F)c([H])c5[H])c(C(=O)N([H])[H])c4N([H])[H])C3([H])[H])c([H])c([H])c2C1([H])[H]

>  <smiles>  (88) 
[H]c1c([H])c([H])c2c(c1[H])C([H])([H])C([H])([H])C([H])([H])C2([H])N([H])C(=O)C1([H])N(C(=O)C([H])(N([H])C(=O)C([H])(N([H])C([H])([H])[H])C([H])([H])[H])C(C([H])([H])[H])(C([H])([H])[H])C([H])([H])[H])C([H])([H])c2c([H])c(OC([H])([H])C([H])([H])OC([H])([H])C([H])([H])OC([H])([H])C([H])([H])[N+]([H])([H])C([H])([H])C([H])([H])OC([H])([H])C([H])([H])OC([H])([H])C([H])([H])C([H])([H])[N+]([H])([H])C([H])([H])C([H])([H])OC([H])([H])C([H])([H])OC([H])([H])C([H])([H])N([H])C(=O)N3C([H])([H])C([H])([H])C([H])([H])C([H])(n4nc(-c5c([H])c([H])c(Oc6c([H])c([H])c(F)c([H])c6F)c([H])c5[H])c(C(=O)N([H])[H])c4N([H])[H])C3([H])[H])c([H])c([H])c2C1([H])[H]

$$$$
90:0:0
     RDKit          3D

100107  0  0  1  0  0  0  0  0999 V2000
  -33.4310  -25.5290   19.2640 C   0  0  0  0  0  2  0  0  0  0  0  0
  -33.2170  -24.5170   20.3230 N   0  0  0  0  0  4  0  0  0  0  0  0
  -32.7370  -24.9310   21.1070 H   0  0  0  0  0  0  0  0  0  0  0  0
  -32.5990  -23.8170   19.9300 H   0  0  0  0  0  0  0  0  0  0  0  0
  -34.4490  -23.8370   20.7770 C   0  0  0  0  0  2  0  0  0  0  0  0
  -34.1320  -22.6970   21.7520 C   0  0  0  0  0  2  0  0  0  0  0  0
  -33.3150  -21.7480   21.0720 O   0  0  0  0  0  0  0  0  0  0  0  0
  -33.1100  -20.5710   21.8410 C   0  0  0  0  0  2  0  0  0  0  0  0
  -32.2600  -19.5700   21.0450 C   0  0  0  0  0  2  0  0  0  0  0  0
  -32.1270  -18.2230   21.7780 C   0  0  0  0  0  2  0  0  0  0  0  0
  -31.2890  -17.1790   21.0190 C   0  0  0  0  0  2  0  0  0  0  0  0
  -31.3400  -15.8040   21.7130 C   0  0  0  0  0  2  0  0  0  0  0  0
  -30.7700  -14.1070   19.9680 C   0  0  0  0  0  0  0  0  0  0  0  0
  -30.1810  -12.1300   18.6090 C   0  0  0  0  0  2  0  0  0  0  0  0
  -29.1720  -12.4680   17.4980 C   0  0  0  0  0  2  0  0  0  0  0  0
  -27.7290  -12.3810   18.0290 C   0  0  0  0  0  2  0  0  0  0  0  0
  -27.5360  -13.1700   19.3500 C   0  0  0  0  0  3  0  0  0  0  0  0
  -28.6400  -12.8100   20.3670 C   0  0  0  0  0  2  0  0  0  0  0  0
  -29.9530  -13.0470   19.7360 N   0  0  0  0  0  0  0  0  0  0  0  0
  -31.7480  -14.3790   19.2660 O   0  0  0  0  0  0  0  0  0  0  0  0
  -30.4880  -14.8010   21.0780 N   0  0  0  0  0  0  0  0  0  0  0  0
  -29.6720  -14.5000   21.5910 H   0  0  0  0  0  0  0  0  0  0  0  0
  -25.2090  -13.8820   20.1930 C   0  0  0  0  0  0  0  0  0  0  0  0
  -24.1330  -13.1570   20.6300 C   0  0  0  0  0  0  0  0  0  0  0  0
  -24.5360  -11.7870   20.5790 C   0  0  0  0  0  0  0  0  0  0  0  0
  -26.2010  -12.9570   19.9070 N   0  0  0  0  0  0  0  0  0  0  0  0
  -25.8020  -11.6930   20.1940 N   0  0  0  0  0  0  0  0  0  0  0  0
  -23.7710  -10.5560   20.8200 C   0  0  0  0  0  0  0  0  0  0  0  0
  -24.2340   -9.5610   21.7080 C   0  0  0  0  0  3  0  0  0  0  0  0
  -23.4730   -8.3940   21.9360 C   0  0  0  0  0  3  0  0  0  0  0  0
  -22.2340   -8.2160   21.2770 C   0  0  0  0  0  0  0  0  0  0  0  0
  -21.7880   -9.1990   20.3770 C   0  0  0  0  0  3  0  0  0  0  0  0
  -22.5490  -10.3570   20.1470 C   0  0  0  0  0  3  0  0  0  0  0  0
  -21.4400   -7.1030   21.4170 O   0  0  0  0  0  0  0  0  0  0  0  0
  -21.4750   -6.3310   22.5510 C   0  0  0  0  0  0  0  0  0  0  0  0
  -21.2410   -6.8780   23.8320 C   0  0  0  0  0  3  0  0  0  0  0  0
  -21.2190   -6.0370   24.9630 C   0  0  0  0  0  3  0  0  0  0  0  0
  -21.4190   -4.6510   24.8140 C   0  0  0  0  0  0  0  0  0  0  0  0
  -21.6460   -4.1040   23.5390 C   0  0  0  0  0  3  0  0  0  0  0  0
  -21.6710   -4.9430   22.4100 C   0  0  0  0  0  0  0  0  0  0  0  0
  -21.8690   -4.4080   21.1810 F   0  0  0  0  0  0  0  0  0  0  0  0
  -21.3890   -3.8420   25.8980 F   0  0  0  0  0  0  0  0  0  0  0  0
  -22.7760  -13.6920   20.9840 C   0  0  0  0  0  0  0  0  0  0  0  0
  -22.0800  -13.0370   21.9070 N   0  0  0  0  0  0  0  0  0  0  0  0
  -22.3430  -14.7260   20.4760 O   0  0  0  0  0  0  0  0  0  0  0  0
  -22.4440  -12.2000   22.3390 H   0  0  0  0  0  0  0  0  0  0  0  0
  -21.1710  -13.3770   22.1880 H   0  0  0  0  0  0  0  0  0  0  0  0
  -25.4200  -15.2450   19.9990 N   0  0  0  0  0  0  0  0  0  0  0  0
  -24.6930  -15.9350   20.1520 H   0  0  0  0  0  0  0  0  0  0  0  0
  -26.2770  -15.6450   19.6390 H   0  0  0  0  0  0  0  0  0  0  0  0
  -32.1260  -25.8040   18.5080 C   0  0  0  0  0  2  0  0  0  0  0  0
  -31.5420  -24.5300   18.2710 O   0  0  0  0  0  0  0  0  0  0  0  0
  -30.4570  -24.5540   17.3570 C   0  0  0  0  0  2  0  0  0  0  0  0
  -29.6770  -23.2430   17.5220 C   0  0  0  0  0  2  0  0  0  0  0  0
  -28.5780  -23.3140   18.5930 C   0  0  0  0  0  2  0  0  0  0  0  0
  -29.0980  -23.6960   19.8630 O   0  0  0  0  0  0  0  0  0  0  0  0
  -28.0630  -23.8990   20.8220 C   0  0  0  0  0  2  0  0  0  0  0  0
  -28.4560  -24.9550   21.8720 C   0  0  0  0  0  2  0  0  0  0  0  0
  -29.0610  -26.2450   21.2840 C   0  0  0  0  0  2  0  0  0  0  0  0
  -28.4130  -26.6190   20.0740 O   0  0  0  0  0  0  0  0  0  0  0  0
  -24.5740  -31.8020   23.1570 C   0  0  0  0  0  0  0  0  0  0  0  0
  -27.2450  -27.3280   20.1770 C   0  0  0  0  0  0  0  0  0  0  0  0
  -23.3680  -30.3430   21.5610 C   0  0  0  0  0  3  0  0  0  0  0  0
  -24.8280  -28.7760   20.1760 C   0  0  0  0  0  0  0  0  0  0  0  0
  -25.8850  -30.7230   21.3360 C   0  0  0  0  0  2  0  0  0  0  0  0
  -25.9790  -29.3320   20.7500 C   0  0  0  0  0  0  0  0  0  0  0  0
  -27.1900  -28.6100   20.7650 C   0  0  0  0  0  3  0  0  0  0  0  0
  -26.0860  -26.7850   19.5890 C   0  0  0  0  0  3  0  0  0  0  0  0
  -24.8720  -27.4960   19.5980 C   0  0  0  0  0  3  0  0  0  0  0  0
  -23.5750  -29.6230   20.2020 C   0  0  0  0  0  2  0  0  0  0  0  0
  -24.6270  -30.9730   22.0760 N   0  0  0  0  0  0  0  0  0  0  0  0
  -23.4960  -32.0810   23.6970 O   0  0  0  0  0  0  0  0  0  0  0  0
  -22.7330  -29.3450   22.5530 C   0  0  0  0  0  0  0  0  0  0  0  0
  -21.4100  -29.1440   22.4340 N   0  0  0  0  0  0  0  0  0  0  0  0
  -23.4250  -28.7500   23.3840 O   0  0  0  0  0  0  0  0  0  0  0  0
  -20.9120  -29.6760   21.7340 H   0  0  0  0  0  0  0  0  0  0  0  0
  -18.0550  -27.9140   22.9560 C   0  0  0  0  0  0  0  0  0  0  0  0
  -20.6070  -28.2210   23.2330 C   0  0  0  0  0  3  0  0  0  0  0  0
  -20.7350  -26.7720   22.7090 C   0  0  0  0  0  2  0  0  0  0  0  0
  -19.6450  -26.3960   21.7000 C   0  0  0  0  0  2  0  0  0  0  0  0
  -18.2570  -26.5420   22.3320 C   0  0  0  0  0  2  0  0  0  0  0  0
  -19.1590  -28.7080   23.3650 C   0  0  0  0  0  0  0  0  0  0  0  0
  -18.9190  -29.9880   23.9080 C   0  0  0  0  0  3  0  0  0  0  0  0
  -17.6070  -30.4760   24.0460 C   0  0  0  0  0  3  0  0  0  0  0  0
  -16.5160  -29.6800   23.6550 C   0  0  0  0  0  3  0  0  0  0  0  0
  -16.7420  -28.4010   23.1150 C   0  0  0  0  0  3  0  0  0  0  0  0
  -25.8620  -32.4560   23.7490 C   0  0  0  0  0  3  0  0  0  0  0  0
  -25.5410  -33.8550   24.0610 N   0  0  0  0  0  0  0  0  0  0  0  0
  -25.8500  -34.8980   23.2790 C   0  0  0  0  0  0  0  0  0  0  0  0
  -26.5060  -34.7860   22.2400 O   0  0  0  0  0  0  0  0  0  0  0  0
  -24.9580  -34.0170   24.8690 H   0  0  0  0  0  0  0  0  0  0  0  0
  -24.0870  -36.6560   22.9240 C   0  0  0  0  0  1  0  0  0  0  0  0
  -25.3490  -36.2870   23.7200 C   0  0  0  0  0  3  0  0  0  0  0  0
  -27.4880  -37.2150   24.4880 C   0  0  0  0  0  1  0  0  0  0  0  0
  -26.3630  -37.3540   23.5670 N   0  0  0  0  0  0  0  0  0  0  0  0
  -25.9450  -38.2690   23.7090 H   0  0  0  0  0  0  0  0  0  0  0  0
  -26.4100  -31.7080   25.0260 C   0  0  1  0  0  0  0  0  0  0  0  0
  -25.3380  -31.4700   26.1130 C   0  0  0  0  0  1  0  0  0  0  0  0
  -27.0060  -30.3340   24.6380 C   0  0  0  0  0  1  0  0  0  0  0  0
  -27.5620  -32.5250   25.6580 C   0  0  0  0  0  1  0  0  0  0  0  0
  1  2  1  0
  2  5  1  0
  2  3  1  0
  4  2  1  0
  5  6  1  0
  7  6  1  0
  7  8  1  0
  9 10  1  0
  9  8  1  0
 11 12  1  0
 11 10  1  0
 13 21  1  0
 14 19  1  0
 15 16  1  0
 15 14  1  0
 17 16  1  0
 17 26  1  0
 17 18  1  0
 19 13  1  0
 19 18  1  0
 20 13  2  0
 21 22  1  0
 21 12  1  0
 23 24  2  0
 24 43  1  0
 25 24  1  0
 25 28  1  0
 26 23  1  0
 26 27  1  0
 27 25  2  0
 28 29  1  0
 29 30  2  0
 31 34  1  0
 31 30  1  0
 32 31  2  0
 33 32  1  0
 33 28  2  0
 34 35  1  0
 35 36  1  0
 36 37  2  0
 38 37  1  0
 38 42  1  0
 39 38  2  0
 40 35  2  0
 40 39  1  0
 41 40  1  0
 43 44  1  0
 44 47  1  0
 44 46  1  0
 45 43  2  0
 48 49  1  0
 48 23  1  0
 50 48  1  0
 51  1  1  0
 52 51  1  0
 53 54  1  0
 53 52  1  0
 54 55  1  0
 55 56  1  0
 56 57  1  0
 57 58  1  0
 59 58  1  0
 60 62  1  0
 60 59  1  0
 61 72  2  0
 62 67  1  0
 63 71  1  0
 63 73  1  0
 64 70  1  0
 64 66  1  0
 65 71  1  0
 66 67  2  0
 66 65  1  0
 68 69  1  0
 68 62  2  0
 69 64  2  0
 70 63  1  0
 71 61  1  0
 73 75  2  0
 74 73  1  0
 76 74  1  0
 77 86  2  0
 77 82  1  0
 78 74  1  0
 78 82  1  0
 79 78  1  0
 80 81  1  0
 80 79  1  0
 81 77  1  0
 82 83  2  0
 83 84  1  0
 85 84  2  0
 86 85  1  0
 87 61  1  0
 87 88  1  0
 87 97  1  0
 88 91  1  0
 89 93  1  0
 89 88  1  0
 90 89  2  0
 93 92  1  0
 95 96  1  0
 95 93  1  0
 95 94  1  0
 97100  1  1
 97 98  1  0
 99 97  1  0
M  ISO  4  13 100  21 100  59 101  60 101
M  END
>  <TORSDO>  (89) 
F 34

>  <SCORE>  (89) 
-7.705

>  <name>  (89) 
90

>  <ligand_id>  (89) 
90

>  <original_smiles>  (89) 
[H]c1c([H])c([H])c2c(c1[H])C([H])([H])C([H])([H])C([H])([H])C2([H])N([H])C(=O)C1([H])N(C(=O)C([H])(N([H])C(=O)C([H])(N([H])C([H])([H])[H])C([H])([H])[H])C(C([H])([H])[H])(C([H])([H])[H])C([H])([H])[H])C([H])([H])c2c([H])c(OC([H])([H])C([H])([H])C([H])([H])OC([H])([H])C([H])([H])C([H])([H])OC([H])([H])C([H])([H])[N+]([H])([H])C([H])([H])C([H])([H])OC([H])([H])C([H])([H])C([H])([H])C([H])([H])C([H])([H])N([H])C(=O)N3C([H])([H])C([H])([H])C([H])([H])C([H])(n4nc(-c5c([H])c([H])c(Oc6c([H])c([H])c(F)c([H])c6F)c([H])c5[H])c(C(=O)N([H])[H])c4N([H])[H])C3([H])[H])c([H])c([H])c2C1([H])[H]

>  <smiles>  (89) 
[H]c1c([H])c([H])c2c(c1[H])C([H])([H])C([H])([H])C([H])([H])C2([H])N([H])C(=O)C1([H])N(C(=O)C([H])(N([H])C(=O)C([H])(N([H])C([H])([H])[H])C([H])([H])[H])C(C([H])([H])[H])(C([H])([H])[H])C([H])([H])[H])C([H])([H])c2c([H])c(OC([H])([H])C([H])([H])C([H])([H])OC([H])([H])C([H])([H])C([H])([H])OC([H])([H])C([H])([H])[N+]([H])([H])C([H])([H])C([H])([H])OC([H])([H])C([H])([H])C([H])([H])C([H])([H])C([H])([H])N([H])C(=O)N3C([H])([H])C([H])([H])C([H])([H])C([H])(n4nc(-c5c([H])c([H])c(Oc6c([H])c([H])c(F)c([H])c6F)c([H])c5[H])c(C(=O)N([H])[H])c4N([H])[H])C3([H])[H])c([H])c([H])c2C1([H])[H]

$$$$
91:0:0
     RDKit          3D

102109  0  0  1  0  0  0  0  0999 V2000
  -23.2780  -25.1170   15.6470 C   0  0  0  0  0  2  0  0  0  0  0  0
  -24.1590  -26.2320   15.8180 O   0  0  0  0  0  0  0  0  0  0  0  0
  -25.3440  -26.1900   15.0240 C   0  0  0  0  0  2  0  0  0  0  0  0
  -26.5730  -26.0420   15.9310 C   0  0  0  0  0  2  0  0  0  0  0  0
  -27.8760  -25.7410   15.1620 C   0  0  0  0  0  2  0  0  0  0  0  0
  -28.8260  -25.0560   15.9800 O   0  0  0  0  0  0  0  0  0  0  0  0
  -28.6750  -23.6390   15.9810 C   0  0  0  0  0  2  0  0  0  0  0  0
  -29.6090  -23.0330   17.0410 C   0  0  0  0  0  2  0  0  0  0  0  0
  -29.2260  -21.6030   17.4600 C   0  0  0  0  0  2  0  0  0  0  0  0
  -30.1540  -21.0510   18.5520 C   0  0  0  0  0  2  0  0  0  0  0  0
  -29.7060  -19.7660   18.9550 O   0  0  0  0  0  0  0  0  0  0  0  0
  -30.4060  -19.2480   20.0830 C   0  0  0  0  0  2  0  0  0  0  0  0
  -29.9710  -17.7850   20.2790 C   0  0  0  0  0  2  0  0  0  0  0  0
  -30.5680  -17.0940   21.5240 C   0  0  0  0  0  2  0  0  0  0  0  0
  -30.9240  -14.7460   20.7840 C   0  0  0  0  0  0  0  0  0  0  0  0
  -30.6580  -12.6520   19.5150 C   0  0  0  0  0  2  0  0  0  0  0  0
  -29.7690  -12.9170   18.2820 C   0  0  0  0  0  2  0  0  0  0  0  0
  -28.2770  -12.7780   18.6440 C   0  0  0  0  0  2  0  0  0  0  0  0
  -27.8970  -13.5730   19.9210 C   0  0  0  0  0  3  0  0  0  0  0  0
  -28.8960  -13.2830   21.0640 C   0  0  0  0  0  2  0  0  0  0  0  0
  -30.2540  -13.5880   20.5750 N   0  0  0  0  0  0  0  0  0  0  0  0
  -32.0130  -15.0040   20.2560 O   0  0  0  0  0  0  0  0  0  0  0  0
  -30.2680  -15.6620   21.5090 N   0  0  0  0  0  0  0  0  0  0  0  0
  -29.4010  -15.3670   21.9400 H   0  0  0  0  0  0  0  0  0  0  0  0
  -25.4640  -14.1920   20.4930 C   0  0  0  0  0  0  0  0  0  0  0  0
  -24.3750  -13.4210   20.8130 C   0  0  0  0  0  0  0  0  0  0  0  0
  -24.8350  -12.0710   20.8140 C   0  0  0  0  0  0  0  0  0  0  0  0
  -26.5190  -13.3050   20.3240 N   0  0  0  0  0  0  0  0  0  0  0  0
  -26.1390  -12.0250   20.5690 N   0  0  0  0  0  0  0  0  0  0  0  0
  -24.1020  -10.8090   20.9780 C   0  0  0  0  0  0  0  0  0  0  0  0
  -24.5110   -9.8280   21.9090 C   0  0  0  0  0  3  0  0  0  0  0  0
  -23.7750   -8.6330   22.0580 C   0  0  0  0  0  3  0  0  0  0  0  0
  -22.6190   -8.4090   21.2720 C   0  0  0  0  0  0  0  0  0  0  0  0
  -22.2330   -9.3760   20.3270 C   0  0  0  0  0  3  0  0  0  0  0  0
  -22.9670  -10.5630   20.1780 C   0  0  0  0  0  3  0  0  0  0  0  0
  -21.8590   -7.2650   21.3290 O   0  0  0  0  0  0  0  0  0  0  0  0
  -21.7990   -6.5000   22.4660 C   0  0  0  0  0  0  0  0  0  0  0  0
  -21.3910   -7.0370   23.7060 C   0  0  0  0  0  3  0  0  0  0  0  0
  -21.2740   -6.1980   24.8320 C   0  0  0  0  0  3  0  0  0  0  0  0
  -21.5540   -4.8240   24.7190 C   0  0  0  0  0  0  0  0  0  0  0  0
  -21.9530   -4.2840   23.4840 C   0  0  0  0  0  3  0  0  0  0  0  0
  -22.0710   -5.1210   22.3590 C   0  0  0  0  0  0  0  0  0  0  0  0
  -22.4360   -4.5930   21.1660 F   0  0  0  0  0  0  0  0  0  0  0  0
  -21.4360   -4.0140   25.8000 F   0  0  0  0  0  0  0  0  0  0  0  0
  -22.9680  -13.9050   21.0120 C   0  0  0  0  0  0  0  0  0  0  0  0
  -22.2000  -13.2170   21.8540 N   0  0  0  0  0  0  0  0  0  0  0  0
  -22.5540  -14.9230   20.4630 O   0  0  0  0  0  0  0  0  0  0  0  0
  -22.5450  -12.3950   22.3240 H   0  0  0  0  0  0  0  0  0  0  0  0
  -21.2540  -13.5240   22.0320 H   0  0  0  0  0  0  0  0  0  0  0  0
  -25.6400  -15.5580   20.3200 N   0  0  0  0  0  0  0  0  0  0  0  0
  -24.8710  -16.2160   20.4040 H   0  0  0  0  0  0  0  0  0  0  0  0
  -26.5170  -15.9990   20.0670 H   0  0  0  0  0  0  0  0  0  0  0  0
  -23.7400  -23.9090   16.4720 C   0  0  0  0  0  2  0  0  0  0  0  0
  -23.8910  -24.2380   17.9080 N   0  0  0  0  0  4  0  0  0  0  0  0
  -22.9930  -24.5560   18.2410 H   0  0  0  0  0  0  0  0  0  0  0  0
  -24.5260  -25.0120   18.0230 H   0  0  0  0  0  0  0  0  0  0  0  0
  -24.3230  -23.0860   18.7380 C   0  0  0  0  0  2  0  0  0  0  0  0
  -25.8390  -22.9570   18.8440 C   0  0  0  0  0  2  0  0  0  0  0  0
  -26.3240  -23.9930   19.6980 O   0  0  0  0  0  0  0  0  0  0  0  0
  -27.7060  -24.2780   19.5070 C   0  0  0  0  0  2  0  0  0  0  0  0
  -28.2520  -25.3030   20.5300 C   0  0  0  0  0  2  0  0  0  0  0  0
  -28.3440  -26.6660   20.0920 O   0  0  0  0  0  0  0  0  0  0  0  0
  -24.5840  -31.8320   23.2150 C   0  0  0  0  0  0  0  0  0  0  0  0
  -27.1860  -27.4040   20.1220 C   0  0  0  0  0  0  0  0  0  0  0  0
  -23.3690  -30.4540   21.5710 C   0  0  0  0  0  3  0  0  0  0  0  0
  -24.8100  -28.9260   20.1420 C   0  0  0  0  0  0  0  0  0  0  0  0
  -25.8970  -30.7980   21.3790 C   0  0  0  0  0  2  0  0  0  0  0  0
  -25.9740  -29.4320   20.7310 C   0  0  0  0  0  0  0  0  0  0  0  0
  -27.1690  -28.6810   20.7250 C   0  0  0  0  0  3  0  0  0  0  0  0
  -26.0190  -26.9420   19.4850 C   0  0  0  0  0  3  0  0  0  0  0  0
  -24.8270  -27.6740   19.5140 C   0  0  0  0  0  3  0  0  0  0  0  0
  -23.5750  -29.7910   20.1890 C   0  0  0  0  0  2  0  0  0  0  0  0
  -24.6360  -31.0400   22.1130 N   0  0  0  0  0  0  0  0  0  0  0  0
  -23.5080  -32.1120   23.7560 O   0  0  0  0  0  0  0  0  0  0  0  0
  -22.7080  -29.4250   22.5220 C   0  0  0  0  0  0  0  0  0  0  0  0
  -21.3820  -29.2540   22.3810 N   0  0  0  0  0  0  0  0  0  0  0  0
  -23.3840  -28.7900   23.3380 O   0  0  0  0  0  0  0  0  0  0  0  0
  -20.8960  -29.8350   21.7150 H   0  0  0  0  0  0  0  0  0  0  0  0
  -17.9910  -28.0830   22.8370 C   0  0  0  0  0  0  0  0  0  0  0  0
  -20.5490  -28.3150   23.1340 C   0  0  0  0  0  3  0  0  0  0  0  0
  -20.6480  -26.8880   22.5590 C   0  0  0  0  0  2  0  0  0  0  0  0
  -19.5480  -26.5780   21.5410 C   0  0  0  0  0  2  0  0  0  0  0  0
  -18.1660  -26.7290   22.1770 C   0  0  0  0  0  2  0  0  0  0  0  0
  -19.1140  -28.8340   23.2770 C   0  0  0  0  0  0  0  0  0  0  0  0
  -18.9100  -30.1000   23.8620 C   0  0  0  0  0  3  0  0  0  0  0  0
  -17.6100  -30.6110   24.0270 C   0  0  0  0  0  3  0  0  0  0  0  0
  -16.5020  -29.8570   23.6060 C   0  0  0  0  0  3  0  0  0  0  0  0
  -16.6920  -28.5980   23.0090 C   0  0  0  0  0  3  0  0  0  0  0  0
  -25.8760  -32.4510   23.8340 C   0  0  0  0  0  3  0  0  0  0  0  0
  -25.5750  -33.8510   24.1790 N   0  0  0  0  0  0  0  0  0  0  0  0
  -25.9130  -34.9090   23.4240 C   0  0  0  0  0  0  0  0  0  0  0  0
  -26.5780  -34.8120   22.3880 O   0  0  0  0  0  0  0  0  0  0  0  0
  -24.9880  -34.0000   24.9880 H   0  0  0  0  0  0  0  0  0  0  0  0
  -24.1830  -36.6920   23.0840 C   0  0  0  0  0  1  0  0  0  0  0  0
  -25.4290  -36.2920   23.8890 C   0  0  0  0  0  3  0  0  0  0  0  0
  -27.5720  -37.1590   24.7160 C   0  0  0  0  0  1  0  0  0  0  0  0
  -26.4630  -37.3440   23.7800 N   0  0  0  0  0  0  0  0  0  0  0  0
  -26.0670  -38.2660   23.9400 H   0  0  0  0  0  0  0  0  0  0  0  0
  -26.3950  -31.6580   25.0940 C   0  0  1  0  0  0  0  0  0  0  0  0
  -25.3070  -31.4140   26.1650 C   0  0  0  0  0  1  0  0  0  0  0  0
  -26.9650  -30.2780   24.6830 C   0  0  0  0  0  1  0  0  0  0  0  0
  -27.5600  -32.4360   25.7510 C   0  0  0  0  0  1  0  0  0  0  0  0
  1  2  1  0
  1 53  1  0
  3  2  1  0
  3  4  1  0
  5  4  1  0
  5  6  1  0
  6  7  1  0
  7  8  1  0
  8  9  1  0
  9 10  1  0
 10 11  1  0
 11 12  1  0
 12 13  1  0
 13 14  1  0
 15 23  1  0
 16 21  1  0
 17 18  1  0
 17 16  1  0
 19 18  1  0
 19 28  1  0
 19 20  1  0
 21 15  1  0
 21 20  1  0
 22 15  2  0
 23 14  1  0
 23 24  1  0
 25 26  2  0
 26 27  1  0
 26 45  1  0
 27 30  1  0
 28 25  1  0
 28 29  1  0
 29 27  2  0
 30 31  1  0
 31 32  2  0
 33 36  1  0
 33 32  1  0
 34 33  2  0
 35 34  1  0
 35 30  2  0
 36 37  1  0
 37 38  1  0
 38 39  2  0
 40 39  1  0
 40 44  1  0
 41 40  2  0
 42 37  2  0
 42 41  1  0
 43 42  1  0
 45 46  1  0
 46 49  1  0
 46 48  1  0
 47 45  2  0
 50 51  1  0
 50 25  1  0
 52 50  1  0
 53 54  1  0
 54 56  1  0
 54 55  1  0
 54 57  1  0
 57 58  1  0
 58 59  1  0
 60 59  1  0
 60 61  1  0
 62 64  1  0
 62 61  1  0
 63 74  2  0
 64 69  1  0
 65 73  1  0
 65 75  1  0
 66 72  1  0
 66 68  1  0
 67 73  1  0
 68 67  1  0
 69 68  2  0
 70 71  1  0
 70 64  2  0
 71 66  2  0
 72 65  1  0
 73 63  1  0
 75 77  2  0
 76 75  1  0
 78 76  1  0
 79 88  2  0
 79 84  1  0
 80 76  1  0
 80 84  1  0
 81 80  1  0
 82 83  1  0
 82 81  1  0
 83 79  1  0
 84 85  2  0
 85 86  1  0
 87 86  2  0
 88 87  1  0
 89 63  1  0
 89 90  1  0
 89 99  1  0
 90 93  1  0
 91 95  1  0
 91 90  1  0
 92 91  2  0
 95 94  1  0
 97 95  1  0
 97 98  1  0
 97 96  1  0
 99102  1  1
 99100  1  0
101 99  1  0
M  ISO  4  15 100  23 100  61 101  62 101
M  END
>  <TORSDO>  (90) 
F 36

>  <SCORE>  (90) 
-9.619

>  <name>  (90) 
91

>  <ligand_id>  (90) 
91

>  <original_smiles>  (90) 
[H]c1c([H])c([H])c2c(c1[H])C([H])([H])C([H])([H])C([H])([H])C2([H])N([H])C(=O)C1([H])N(C(=O)C([H])(N([H])C(=O)C([H])(N([H])C([H])([H])[H])C([H])([H])[H])C(C([H])([H])[H])(C([H])([H])[H])C([H])([H])[H])C([H])([H])c2c([H])c(OC([H])([H])C([H])([H])OC([H])([H])C([H])([H])[N+]([H])([H])C([H])([H])C([H])([H])OC([H])([H])C([H])([H])C([H])([H])OC([H])([H])C([H])([H])C([H])([H])C([H])([H])OC([H])([H])C([H])([H])C([H])([H])N([H])C(=O)N3C([H])([H])C([H])([H])C([H])([H])C([H])(n4nc(-c5c([H])c([H])c(Oc6c([H])c([H])c(F)c([H])c6F)c([H])c5[H])c(C(=O)N([H])[H])c4N([H])[H])C3([H])[H])c([H])c([H])c2C1([H])[H]

>  <smiles>  (90) 
[H]c1c([H])c([H])c2c(c1[H])C([H])([H])C([H])([H])C([H])([H])C2([H])N([H])C(=O)C1([H])N(C(=O)C([H])(N([H])C(=O)C([H])(N([H])C([H])([H])[H])C([H])([H])[H])C(C([H])([H])[H])(C([H])([H])[H])C([H])([H])[H])C([H])([H])c2c([H])c(OC([H])([H])C([H])([H])OC([H])([H])C([H])([H])[N+]([H])([H])C([H])([H])C([H])([H])OC([H])([H])C([H])([H])C([H])([H])OC([H])([H])C([H])([H])C([H])([H])C([H])([H])OC([H])([H])C([H])([H])C([H])([H])N([H])C(=O)N3C([H])([H])C([H])([H])C([H])([H])C([H])(n4nc(-c5c([H])c([H])c(Oc6c([H])c([H])c(F)c([H])c6F)c([H])c5[H])c(C(=O)N([H])[H])c4N([H])[H])C3([H])[H])c([H])c([H])c2C1([H])[H]

$$$$
92:0:0
     RDKit          3D

 97101  0  0  1  0  0  0  0  0999 V2000
  -28.1640  -17.2920   17.7370 C   0  0  0  0  0  0  0  0  0  0  0  0
  -28.2060  -18.4410   17.0230 N   0  0  0  0  0  0  0  0  0  0  0  0
  -28.2020  -17.2940   18.9690 O   0  0  0  0  0  0  0  0  0  0  0  0
  -28.1330  -18.3310   16.0190 H   0  0  0  0  0  0  0  0  0  0  0  0
  -28.6600  -19.7790   17.4830 C   0  0  0  0  0  2  0  0  0  0  0  0
  -27.5560  -20.8750   17.6440 C   0  0  0  0  0  2  0  0  0  0  0  0
  -28.0850  -22.2270   17.6970 O   0  0  0  0  0  0  0  0  0  0  0  0
  -27.5630  -23.0750   18.7460 C   0  0  0  0  0  2  0  0  0  0  0  0
  -28.0010  -24.5810   18.6810 C   0  0  0  0  0  2  0  0  0  0  0  0
  -27.9880  -25.3190   20.0640 C   0  0  0  0  0  2  0  0  0  0  0  0
  -28.2180  -26.7600   20.0700 O   0  0  0  0  0  0  0  0  0  0  0  0
  -24.7050  -31.9970   23.5430 C   0  0  0  0  0  0  0  0  0  0  0  0
  -27.1080  -27.5850   20.1530 C   0  0  0  0  0  0  0  0  0  0  0  0
  -23.4320  -30.7480   21.8360 C   0  0  0  0  0  3  0  0  0  0  0  0
  -24.8020  -29.2340   20.3100 C   0  0  0  0  0  0  0  0  0  0  0  0
  -25.9800  -30.9800   21.6490 C   0  0  0  0  0  2  0  0  0  0  0  0
  -25.9940  -29.6470   20.9200 C   0  0  0  0  0  0  0  0  0  0  0  0
  -27.1530  -28.8290   20.8390 C   0  0  0  0  0  3  0  0  0  0  0  0
  -25.8940  -27.2060   19.5410 C   0  0  0  0  0  3  0  0  0  0  0  0
  -24.7490  -28.0140   19.6220 C   0  0  0  0  0  3  0  0  0  0  0  0
  -23.6050  -30.1490   20.4170 C   0  0  0  0  0  2  0  0  0  0  0  0
  -24.7260  -31.2530   22.4000 N   0  0  0  0  0  0  0  0  0  0  0  0
  -23.6370  -32.2880   24.1020 O   0  0  0  0  0  0  0  0  0  0  0  0
  -22.7400  -29.7000   22.7370 C   0  0  0  0  0  0  0  0  0  0  0  0
  -21.4160  -29.5460   22.5690 N   0  0  0  0  0  0  0  0  0  0  0  0
  -23.3890  -29.0320   23.5450 O   0  0  0  0  0  0  0  0  0  0  0  0
  -20.9520  -30.1390   21.8940 H   0  0  0  0  0  0  0  0  0  0  0  0
  -18.0250  -28.3250   22.8610 C   0  0  0  0  0  0  0  0  0  0  0  0
  -20.5610  -28.5940   23.2810 C   0  0  0  0  0  3  0  0  0  0  0  0
  -20.7060  -27.1700   22.6940 C   0  0  0  0  0  2  0  0  0  0  0  0
  -19.6650  -26.8520   21.6170 C   0  0  0  0  0  2  0  0  0  0  0  0
  -18.2480  -26.9830   22.1840 C   0  0  0  0  0  2  0  0  0  0  0  0
  -19.1130  -29.0880   23.3620 C   0  0  0  0  0  0  0  0  0  0  0  0
  -18.8540  -30.3440   23.9520 C   0  0  0  0  0  3  0  0  0  0  0  0
  -17.5390  -30.8360   24.0480 C   0  0  0  0  0  3  0  0  0  0  0  0
  -16.4640  -30.0700   23.5640 C   0  0  0  0  0  3  0  0  0  0  0  0
  -16.7080  -28.8150   22.9770 C   0  0  0  0  0  3  0  0  0  0  0  0
  -26.0180  -32.5350   24.1890 C   0  0  0  0  0  3  0  0  0  0  0  0
  -25.8140  -33.9590   24.4880 N   0  0  0  0  0  0  0  0  0  0  0  0
  -26.2680  -34.9680   23.7330 C   0  0  0  0  0  0  0  0  0  0  0  0
  -26.9750  -34.7930   22.7370 O   0  0  0  0  0  0  0  0  0  0  0  0
  -25.1970  -34.1750   25.2580 H   0  0  0  0  0  0  0  0  0  0  0  0
  -24.7190  -36.8930   23.2690 C   0  0  0  0  0  1  0  0  0  0  0  0
  -25.8770  -36.3990   24.1490 C   0  0  0  0  0  3  0  0  0  0  0  0
  -28.0330  -37.1150   25.0820 C   0  0  0  0  0  1  0  0  0  0  0  0
  -27.0010  -37.3600   24.0780 N   0  0  0  0  0  0  0  0  0  0  0  0
  -26.6680  -38.3140   24.1920 H   0  0  0  0  0  0  0  0  0  0  0  0
  -26.4380  -31.7490   25.4920 C   0  0  1  0  0  0  0  0  0  0  0  0
  -25.3070  -31.6260   26.5380 C   0  0  0  0  0  1  0  0  0  0  0  0
  -26.9100  -30.3180   25.1380 C   0  0  0  0  0  1  0  0  0  0  0  0
  -27.6400  -32.4540   26.1640 C   0  0  0  0  0  1  0  0  0  0  0  0
  -28.1540  -15.9440   16.9500 C   0  0  0  0  0  2  0  0  0  0  0  0
  -28.2590  -14.7840   17.8070 O   0  0  0  0  0  0  0  0  0  0  0  0
  -28.3460  -13.5130   17.1230 C   0  0  0  0  0  2  0  0  0  0  0  0
  -28.4760  -12.2530   18.0530 C   0  0  0  0  0  2  0  0  0  0  0  0
  -29.7670  -11.6280   17.9310 O   0  0  0  0  0  0  0  0  0  0  0  0
  -29.9940  -10.3470   18.5500 C   0  0  0  0  0  2  0  0  0  0  0  0
  -31.3070  -10.2590   19.4290 C   0  0  0  0  0  2  0  0  0  0  0  0
  -31.2200  -10.7210   20.9350 C   0  0  0  0  0  2  0  0  0  0  0  0
  -33.2210  -12.9600   21.4720 C   0  0  2  0  0  0  0  0  0  0  0  0
  -34.2970  -11.8910   20.9310 C   0  0  0  0  0  1  0  0  0  0  0  0
  -33.3140  -12.0810   19.3030 C   0  0  0  0  0  1  0  0  0  0  0  0
  -31.7200  -12.9380   19.3560 C   0  0  0  0  0  2  0  0  0  0  0  0
  -31.1530  -13.8770   20.7280 C   0  0  0  0  0  2  0  0  0  0  0  0
  -32.1220  -13.8030   22.3240 C   0  0  0  0  0  1  0  0  0  0  0  0
  -33.5990  -12.7880   22.3490 N   0  0  0  0  0  1  0  0  0  0  0  0
  -33.8430  -14.0370   20.8510 O   0  0  0  0  0  1  0  0  0  0  0  0
  -32.2010  -11.6710   21.6130 N   0  0  0  0  0  2  0  0  0  0  0  0
  -32.3280  -11.3490   22.5620 H   0  0  0  0  0  0  0  0  0  0  0  0
  -28.9130  -15.0840   21.0070 C   0  0  0  0  0  0  0  0  0  0  0  0
  -27.6130  -14.6820   21.1450 C   0  0  0  0  0  0  0  0  0  0  0  0
  -27.6150  -13.2610   21.0250 C   0  0  0  0  0  0  0  0  0  0  0  0
  -29.6780  -13.9390   20.8760 N   0  0  0  0  0  0  0  0  0  0  0  0
  -28.8740  -12.8330   20.9270 N   0  0  0  0  0  0  0  0  0  0  0  0
  -26.4820  -12.3100   20.9790 C   0  0  0  0  0  0  0  0  0  0  0  0
  -26.4190  -11.1810   21.8270 C   0  0  0  0  0  3  0  0  0  0  0  0
  -25.3080  -10.3080   21.7860 C   0  0  0  0  0  3  0  0  0  0  0  0
  -24.2360  -10.5580   20.8960 C   0  0  0  0  0  0  0  0  0  0  0  0
  -24.3100  -11.6710   20.0380 C   0  0  0  0  0  3  0  0  0  0  0  0
  -25.4190  -12.5370   20.0790 C   0  0  0  0  0  3  0  0  0  0  0  0
  -23.1290   -9.7500   20.7690 O   0  0  0  0  0  0  0  0  0  0  0  0
  -22.6840   -8.9630   21.8020 C   0  0  0  0  0  0  0  0  0  0  0  0
  -22.3130   -9.5110   23.0490 C   0  0  0  0  0  3  0  0  0  0  0  0
  -21.8010   -8.6760   24.0620 C   0  0  0  0  0  3  0  0  0  0  0  0
  -21.6460   -7.2970   23.8270 C   0  0  0  0  0  0  0  0  0  0  0  0
  -22.0050   -6.7490   22.5820 C   0  0  0  0  0  3  0  0  0  0  0  0
  -22.5200   -7.5810   21.5720 C   0  0  0  0  0  0  0  0  0  0  0  0
  -22.8430   -7.0530   20.3670 F   0  0  0  0  0  0  0  0  0  0  0  0
  -21.1450   -6.4940   24.7950 F   0  0  0  0  0  0  0  0  0  0  0  0
  -26.4270  -15.5850   21.3070 C   0  0  0  0  0  0  0  0  0  0  0  0
  -25.4100  -15.1290   22.0290 N   0  0  0  0  0  0  0  0  0  0  0  0
  -26.4240  -16.7260   20.8470 O   0  0  0  0  0  0  0  0  0  0  0  0
  -25.4320  -14.1980   22.4190 H   0  0  0  0  0  0  0  0  0  0  0  0
  -24.6000  -15.7100   22.1860 H   0  0  0  0  0  0  0  0  0  0  0  0
  -29.5100  -16.3390   20.9870 N   0  0  0  0  0  0  0  0  0  0  0  0
  -28.9650  -17.1930   21.0250 H   0  0  0  0  0  0  0  0  0  0  0  0
  -30.4890  -16.4990   20.7730 H   0  0  0  0  0  0  0  0  0  0  0  0
  1  3  2  0
  2  5  1  0
  2  1  1  0
  4  2  1  0
  5  6  1  0
  6  7  1  0
  7  8  1  0
  9  8  1  0
  9 10  1  0
 10 11  1  0
 11 13  1  0
 12 23  2  0
 13 18  1  0
 14 22  1  0
 14 24  1  0
 15 21  1  0
 15 17  1  0
 16 22  1  0
 17 16  1  0
 18 17  2  0
 19 20  1  0
 19 13  2  0
 20 15  2  0
 21 14  1  0
 22 12  1  0
 24 26  2  0
 25 24  1  0
 27 25  1  0
 28 37  2  0
 28 33  1  0
 29 25  1  0
 29 33  1  0
 30 29  1  0
 31 32  1  0
 31 30  1  0
 32 28  1  0
 33 34  2  0
 34 35  1  0
 36 35  2  0
 37 36  1  0
 38 12  1  0
 38 39  1  0
 38 48  1  0
 39 42  1  0
 40 44  1  0
 40 39  1  0
 41 40  2  0
 44 43  1  0
 46 44  1  0
 46 47  1  0
 46 45  1  0
 48 51  1  1
 48 49  1  0
 50 48  1  0
 52  1  1  0
 52 53  1  0
 54 53  1  0
 54 55  1  0
 56 55  1  0
 56 57  1  0
 57 58  1  0
 58 59  1  0
 59 68  1  0
 60 65  1  1
 60 66  1  0
 61 60  1  0
 62 63  1  0
 63 64  1  0
 64 73  1  0
 67 60  1  0
 68 69  1  0
 70 71  2  0
 71 90  1  0
 72 71  1  0
 73 74  1  0
 73 70  1  0
 74 72  2  0
 75 72  1  0
 75 76  1  0
 77 76  2  0
 78 77  1  0
 79 80  1  0
 79 78  2  0
 80 75  2  0
 81 78  1  0
 81 82  1  0
 82 83  1  0
 83 84  2  0
 85 84  1  0
 85 89  1  0
 86 85  2  0
 87 82  2  0
 87 86  1  0
 88 87  1  0
 90 91  1  0
 91 94  1  0
 91 93  1  0
 92 90  2  0
 95 70  1  0
 95 96  1  0
 97 95  1  0
M  ISO  4  10 101  11 101  60 100  68 100
M  END
>  <TORSDO>  (91) 
F 30

>  <SCORE>  (91) 
2.757

>  <name>  (91) 
92

>  <ligand_id>  (91) 
92

>  <original_smiles>  (91) 
[H]c1c([H])c([H])c2c(c1[H])C([H])([H])C([H])([H])C([H])([H])C2([H])N([H])C(=O)C1([H])N(C(=O)C([H])(N([H])C(=O)C([H])(N([H])C([H])([H])[H])C([H])([H])[H])C(C([H])([H])[H])(C([H])([H])[H])C([H])([H])[H])C([H])([H])c2c([H])c(OC([H])([H])C([H])([H])C([H])([H])OC([H])([H])C([H])([H])N([H])C(=O)C([H])([H])OC([H])([H])C([H])([H])OC([H])([H])C([H])([H])C([H])([H])N([H])C(=O)N3C([H])([H])C([H])([H])C([H])([H])C([H])(n4nc(-c5c([H])c([H])c(Oc6c([H])c([H])c(F)c([H])c6F)c([H])c5[H])c(C(=O)N([H])[H])c4N([H])[H])C3([H])[H])c([H])c([H])c2C1([H])[H]

>  <smiles>  (91) 
[H]c1c([H])c([H])c2c(c1[H])C([H])([H])C([H])([H])C([H])([H])C2([H])N([H])C(=O)C1([H])N(C(=O)C([H])(N([H])C(=O)C([H])(N([H])C([H])([H])[H])C([H])([H])[H])C(C([H])([H])[H])(C([H])([H])[H])C([H])([H])[H])C([H])([H])c2c([H])c(OC([H])([H])C([H])([H])C([H])([H])OC([H])([H])C([H])([H])N([H])C(=O)C([H])([H])OC([H])([H])C([H])([H])OC([H])([H])C([H])([H])C([H])([H])N([H])C(=O)N3C([H])([H])C([H])([H])C([H])([H])C([H])(n4nc(-c5c([H])c([H])c(Oc6c([H])c([H])c(F)c([H])c6F)c([H])c5[H])c(C(=O)N([H])[H])c4N([H])[H])C3([H])[H])c([H])c([H])c2C1([H])[H]

$$$$
93:0:0
     RDKit          3D

104112  0  0  1  0  0  0  0  0999 V2000
  -28.9610  -19.0800   18.3280 C   0  0  0  0  0  3  0  0  0  0  0  0
  -25.2160  -18.8520   18.9560 C   0  0  0  0  0  2  0  0  0  0  0  0
  -26.6290  -18.3210   19.1770 C   0  0  0  0  0  2  0  0  0  0  0  0
  -25.3700  -19.7420   17.7220 C   0  0  0  0  0  2  0  0  0  0  0  0
  -27.5290  -19.5040   18.7770 C   0  0  0  0  0  3  0  0  0  0  0  0
  -26.7630  -20.2310   17.7340 N   0  0  0  0  0  4  0  0  0  0  0  0
  -26.7840  -21.2230   17.9140 H   0  0  0  0  0  0  0  0  0  0  0  0
  -27.1650  -20.0820   16.8220 H   0  0  0  0  0  0  0  0  0  0  0  0
  -30.5590  -17.3610   19.2040 C   0  0  0  0  0  0  0  0  0  0  0  0
  -29.5680  -18.2460   19.3800 N   0  0  0  0  0  0  0  0  0  0  0  0
  -31.0720  -17.1840   18.0980 O   0  0  0  0  0  0  0  0  0  0  0  0
  -29.1710  -18.2730   20.3160 H   0  0  0  0  0  0  0  0  0  0  0  0
  -31.0610  -16.5630   20.4390 C   0  0  0  0  0  3  0  0  0  0  0  0
  -31.1060  -14.1650   19.7700 C   0  0  0  0  0  0  0  0  0  0  0  0
  -30.5280  -12.1010   18.5650 C   0  0  0  0  0  2  0  0  0  0  0  0
  -29.5250  -12.4400   17.4450 C   0  0  0  0  0  2  0  0  0  0  0  0
  -28.0810  -12.4140   17.9800 C   0  0  0  0  0  2  0  0  0  0  0  0
  -27.9110  -13.2220   19.2960 C   0  0  0  0  0  3  0  0  0  0  0  0
  -29.0190  -12.8590   20.3100 C   0  0  0  0  0  2  0  0  0  0  0  0
  -30.3200  -13.0650   19.6540 N   0  0  0  0  0  0  0  0  0  0  0  0
  -32.2030  -14.2760   19.2210 O   0  0  0  0  0  0  0  0  0  0  0  0
  -30.5460  -15.1900   20.4200 N   0  0  0  0  0  0  0  0  0  0  0  0
  -29.6160  -15.0430   20.7760 H   0  0  0  0  0  0  0  0  0  0  0  0
  -25.6190  -13.9940   20.1740 C   0  0  0  0  0  0  0  0  0  0  0  0
  -24.5260  -13.2990   20.6150 C   0  0  0  0  0  0  0  0  0  0  0  0
  -24.8820  -11.9180   20.5450 C   0  0  0  0  0  0  0  0  0  0  0  0
  -26.5780  -13.0420   19.8650 N   0  0  0  0  0  0  0  0  0  0  0  0
  -26.1420  -11.7890   20.1460 N   0  0  0  0  0  0  0  0  0  0  0  0
  -24.0790  -10.7120   20.7800 C   0  0  0  0  0  0  0  0  0  0  0  0
  -24.4950   -9.7160   21.6930 C   0  0  0  0  0  3  0  0  0  0  0  0
  -23.6990   -8.5720   21.9140 C   0  0  0  0  0  3  0  0  0  0  0  0
  -22.4720   -8.4170   21.2260 C   0  0  0  0  0  0  0  0  0  0  0  0
  -22.0740   -9.4010   20.3030 C   0  0  0  0  0  3  0  0  0  0  0  0
  -22.8690  -10.5360   20.0780 C   0  0  0  0  0  3  0  0  0  0  0  0
  -21.6450   -7.3280   21.3600 O   0  0  0  0  0  0  0  0  0  0  0  0
  -21.5960   -6.6000   22.5220 C   0  0  0  0  0  0  0  0  0  0  0  0
  -21.2800   -7.1970   23.7620 C   0  0  0  0  0  3  0  0  0  0  0  0
  -21.1720   -6.3990   24.9200 C   0  0  0  0  0  3  0  0  0  0  0  0
  -21.3710   -5.0090   24.8380 C   0  0  0  0  0  0  0  0  0  0  0  0
  -21.6800   -4.4110   23.6030 C   0  0  0  0  0  3  0  0  0  0  0  0
  -21.7910   -5.2060   22.4480 C   0  0  0  0  0  0  0  0  0  0  0  0
  -22.0690   -4.6230   21.2570 F   0  0  0  0  0  0  0  0  0  0  0  0
  -21.2590   -4.2410   25.9470 F   0  0  0  0  0  0  0  0  0  0  0  0
  -23.1900  -13.8740   20.9870 C   0  0  0  0  0  0  0  0  0  0  0  0
  -22.4810  -13.2330   21.9110 N   0  0  0  0  0  0  0  0  0  0  0  0
  -22.7870  -14.9260   20.4920 O   0  0  0  0  0  0  0  0  0  0  0  0
  -22.8210  -12.3830   22.3370 H   0  0  0  0  0  0  0  0  0  0  0  0
  -21.5860  -13.6030   22.1990 H   0  0  0  0  0  0  0  0  0  0  0  0
  -25.8730  -15.3510   19.9890 N   0  0  0  0  0  0  0  0  0  0  0  0
  -25.1530  -16.0490   20.1360 H   0  0  0  0  0  0  0  0  0  0  0  0
  -26.7090  -15.7250   19.5650 H   0  0  0  0  0  0  0  0  0  0  0  0
  -30.6810  -17.2150   21.7940 C   0  0  0  0  0  2  0  0  0  0  0  0
  -29.2740  -17.2610   22.0170 O   0  0  0  0  0  0  0  0  0  0  0  0
  -28.9940  -16.4200   22.3650 H   0  0  0  0  0  0  0  0  0  0  0  0
  -29.8190  -20.3370   18.0200 C   0  0  0  0  0  0  0  0  0  0  0  0
  -30.7780  -20.6970   18.8860 N   0  0  0  0  0  0  0  0  0  0  0  0
  -29.6220  -20.9580   16.9750 O   0  0  0  0  0  0  0  0  0  0  0  0
  -30.8630  -20.1390   19.7250 H   0  0  0  0  0  0  0  0  0  0  0  0
  -31.7760  -21.7410   18.6710 C   0  0  0  0  0  2  0  0  0  0  0  0
  -31.4640  -23.0260   19.4490 C   0  0  0  0  0  2  0  0  0  0  0  0
  -30.2630  -23.6230   18.9760 O   0  0  0  0  0  0  0  0  0  0  0  0
  -30.0800  -24.9230   19.5230 C   0  0  0  0  0  2  0  0  0  0  0  0
  -28.6890  -25.4700   19.1950 C   0  0  0  0  0  2  0  0  0  0  0  0
  -28.5690  -26.7330   19.8450 O   0  0  0  0  0  0  0  0  0  0  0  0
  -24.6200  -31.6610   23.0790 C   0  0  0  0  0  0  0  0  0  0  0  0
  -27.3480  -27.3680   19.8630 C   0  0  0  0  0  0  0  0  0  0  0  0
  -23.4320  -30.2620   21.4200 C   0  0  0  0  0  3  0  0  0  0  0  0
  -24.9050  -28.7890   19.9500 C   0  0  0  0  0  0  0  0  0  0  0  0
  -25.9430  -30.6890   21.2050 C   0  0  0  0  0  2  0  0  0  0  0  0
  -26.0540  -29.3350   20.5370 C   0  0  0  0  0  0  0  0  0  0  0  0
  -27.2720  -28.6270   20.4970 C   0  0  0  0  0  3  0  0  0  0  0  0
  -26.1780  -26.8300   19.2750 C   0  0  0  0  0  3  0  0  0  0  0  0
  -24.9610  -27.5340   19.3230 C   0  0  0  0  0  3  0  0  0  0  0  0
  -23.6420  -29.6150   20.0250 C   0  0  0  0  0  2  0  0  0  0  0  0
  -24.6830  -30.8860   21.9590 N   0  0  0  0  0  0  0  0  0  0  0  0
  -23.5380  -31.8970   23.6340 O   0  0  0  0  0  0  0  0  0  0  0  0
  -22.8180  -29.2040   22.3640 C   0  0  0  0  0  0  0  0  0  0  0  0
  -21.4990  -28.9870   22.2380 N   0  0  0  0  0  0  0  0  0  0  0  0
  -23.5240  -28.5850   23.1650 O   0  0  0  0  0  0  0  0  0  0  0  0
  -20.9910  -29.5410   21.5640 H   0  0  0  0  0  0  0  0  0  0  0  0
  -18.1650  -27.6780   22.7080 C   0  0  0  0  0  0  0  0  0  0  0  0
  -20.7130  -28.0130   22.9940 C   0  0  0  0  0  3  0  0  0  0  0  0
  -20.8620  -26.5940   22.4010 C   0  0  0  0  0  2  0  0  0  0  0  0
  -19.7740  -26.2490   21.3780 C   0  0  0  0  0  2  0  0  0  0  0  0
  -18.3860  -26.3420   22.0190 C   0  0  0  0  0  2  0  0  0  0  0  0
  -19.2570  -28.4700   23.1520 C   0  0  0  0  0  0  0  0  0  0  0  0
  -18.9970  -29.7200   23.7540 C   0  0  0  0  0  3  0  0  0  0  0  0
  -17.6760  -30.1780   23.9200 C   0  0  0  0  0  3  0  0  0  0  0  0
  -16.5980  -29.3830   23.4920 C   0  0  0  0  0  3  0  0  0  0  0  0
  -16.8430  -28.1350   22.8920 C   0  0  0  0  0  3  0  0  0  0  0  0
  -25.8970  -32.3090   23.6990 C   0  0  0  0  0  3  0  0  0  0  0  0
  -25.5590  -33.6920   24.0610 N   0  0  0  0  0  0  0  0  0  0  0  0
  -25.8490  -34.7650   23.3140 C   0  0  0  0  0  0  0  0  0  0  0  0
  -26.5020  -34.6990   22.2700 O   0  0  0  0  0  0  0  0  0  0  0  0
  -24.9770  -33.8160   24.8760 H   0  0  0  0  0  0  0  0  0  0  0  0
  -24.0580  -36.5070   23.0310 C   0  0  0  0  0  1  0  0  0  0  0  0
  -25.3320  -36.1310   23.8060 C   0  0  0  0  0  3  0  0  0  0  0  0
  -27.4610  -37.0650   24.5920 C   0  0  0  0  0  1  0  0  0  0  0  0
  -26.3290  -37.2170   23.6810 N   0  0  0  0  0  0  0  0  0  0  0  0
  -25.9000  -38.1210   23.8550 H   0  0  0  0  0  0  0  0  0  0  0  0
  -26.4500  -31.5230   24.9500 C   0  0  1  0  0  0  0  0  0  0  0  0
  -25.3780  -31.2380   26.0270 C   0  0  0  0  0  1  0  0  0  0  0  0
  -27.0550  -30.1670   24.5160 C   0  0  0  0  0  1  0  0  0  0  0  0
  -27.5930  -32.3280   25.6130 C   0  0  0  0  0  1  0  0  0  0  0  0
  1 55  1  0
  1 10  1  0
  2  3  1  0
  4  6  1  0
  4  2  1  0
  5  1  1  0
  5  3  1  0
  6  7  1  0
  6  5  1  0
  8  6  1  0
  9 10  1  0
  9 13  1  0
 10 12  1  0
 11  9  2  0
 13 52  1  0
 14 22  1  0
 15 20  1  0
 16 17  1  0
 16 15  1  0
 18 17  1  0
 18 27  1  0
 18 19  1  0
 20 14  1  0
 20 19  1  0
 21 14  2  0
 22 13  1  0
 22 23  1  0
 24 25  2  0
 25 44  1  0
 26 25  1  0
 26 29  1  0
 27 28  1  0
 27 24  1  0
 28 26  2  0
 29 30  1  0
 30 31  2  0
 32 35  1  0
 32 31  1  0
 33 32  2  0
 34 33  1  0
 34 29  2  0
 35 36  1  0
 36 37  1  0
 37 38  2  0
 39 38  1  0
 39 43  1  0
 40 39  2  0
 41 36  2  0
 41 40  1  0
 42 41  1  0
 44 45  1  0
 45 48  1  0
 45 47  1  0
 46 44  2  0
 49 50  1  0
 49 24  1  0
 51 49  1  0
 52 53  1  0
 53 54  1  0
 55 56  1  0
 56 58  1  0
 57 55  2  0
 59 56  1  0
 59 60  1  0
 61 60  1  0
 61 62  1  0
 63 62  1  0
 63 64  1  0
 64 66  1  0
 65 76  2  0
 66 71  1  0
 67 75  1  0
 67 77  1  0
 68 74  1  0
 68 70  1  0
 69 75  1  0
 70 69  1  0
 71 70  2  0
 72 73  1  0
 72 66  2  0
 73 68  2  0
 74 67  1  0
 75 65  1  0
 77 79  2  0
 78 77  1  0
 80 78  1  0
 81 90  2  0
 81 86  1  0
 82 78  1  0
 82 86  1  0
 83 82  1  0
 84 85  1  0
 84 83  1  0
 85 81  1  0
 86 87  2  0
 87 88  1  0
 89 88  2  0
 90 89  1  0
 91 65  1  0
 91 92  1  0
 91101  1  0
 92 95  1  0
 93 97  1  0
 93 92  1  0
 94 93  2  0
 97 96  1  0
 99 97  1  0
 99100  1  0
 99 98  1  0
101104  1  1
101102  1  0
103101  1  0
M  ISO  4  14 100  22 100  63 101  64 101
M  END
>  <TORSDO>  (92) 
F 27

>  <SCORE>  (92) 
-10.218

>  <name>  (92) 
93

>  <ligand_id>  (92) 
93

>  <original_smiles>  (92) 
[H]OC([H])([H])C([H])(C(=O)N([H])C([H])(C(=O)N([H])C([H])([H])C([H])([H])OC([H])([H])C([H])([H])Oc1c([H])c([H])c2c(c1[H])C([H])([H])N(C(=O)C([H])(N([H])C(=O)C([H])(N([H])C([H])([H])[H])C([H])([H])[H])C(C([H])([H])[H])(C([H])([H])[H])C([H])([H])[H])C([H])(C(=O)N([H])C1([H])c3c([H])c([H])c([H])c([H])c3C([H])([H])C([H])([H])C1([H])[H])C2([H])[H])C1([H])C([H])([H])C([H])([H])C([H])([H])[N+]1([H])[H])N([H])C(=O)N1C([H])([H])C([H])([H])C([H])([H])C([H])(n2nc(-c3c([H])c([H])c(Oc4c([H])c([H])c(F)c([H])c4F)c([H])c3[H])c(C(=O)N([H])[H])c2N([H])[H])C1([H])[H]

>  <smiles>  (92) 
[H]OC([H])([H])C([H])(C(=O)N([H])C([H])(C(=O)N([H])C([H])([H])C([H])([H])OC([H])([H])C([H])([H])Oc1c([H])c([H])c2c(c1[H])C([H])([H])N(C(=O)C([H])(N([H])C(=O)C([H])(N([H])C([H])([H])[H])C([H])([H])[H])C(C([H])([H])[H])(C([H])([H])[H])C([H])([H])[H])C([H])(C(=O)N([H])C1([H])c3c([H])c([H])c([H])c([H])c3C([H])([H])C([H])([H])C1([H])[H])C2([H])[H])C1([H])C([H])([H])C([H])([H])C([H])([H])[N+]1([H])[H])N([H])C(=O)N1C([H])([H])C([H])([H])C([H])([H])C([H])(n2nc(-c3c([H])c([H])c(Oc4c([H])c([H])c(F)c([H])c4F)c([H])c3[H])c(C(=O)N([H])[H])c2N([H])[H])C1([H])[H]

$$$$
94:0:0
     RDKit          3D

102109  0  0  1  0  0  0  0  0999 V2000
  -25.8120  -19.9980   16.6260 C   0  0  0  0  0  0  0  0  0  0  0  0
  -26.8230  -19.1540   16.8640 N   0  0  0  0  0  0  0  0  0  0  0  0
  -25.9540  -21.0240   15.9560 O   0  0  0  0  0  0  0  0  0  0  0  0
  -26.6050  -18.3070   17.3690 H   0  0  0  0  0  0  0  0  0  0  0  0
  -28.2150  -19.3100   16.4310 C   0  0  0  0  0  3  0  0  0  0  0  0
  -28.3230  -19.0060   14.9170 C   0  0  0  0  0  0  0  0  0  0  0  0
  -27.5740  -19.7330   14.0980 N   0  0  0  0  0  0  0  0  0  0  0  0
  -29.0450  -18.1120   14.4760 O   0  0  0  0  0  0  0  0  0  0  0  0
  -26.9590  -20.4310   14.5040 H   0  0  0  0  0  0  0  0  0  0  0  0
  -27.5880  -19.5840   13.1000 H   0  0  0  0  0  0  0  0  0  0  0  0
  -29.0870  -18.3130   17.2300 C   0  0  0  0  0  2  0  0  0  0  0  0
  -29.1890  -18.5810   18.7470 C   0  0  0  0  0  2  0  0  0  0  0  0
  -29.8270  -17.3740   19.4490 C   0  0  0  0  0  2  0  0  0  0  0  0
  -29.9010  -17.4410   20.9920 C   0  0  0  0  0  2  0  0  0  0  0  0
  -30.7180  -15.1130   21.2430 C   0  0  0  0  0  0  0  0  0  0  0  0
  -30.6440  -12.9990   20.0080 C   0  0  0  0  0  2  0  0  0  0  0  0
  -29.8440  -13.2500   18.7110 C   0  0  0  0  0  2  0  0  0  0  0  0
  -28.3320  -13.0630   18.9510 C   0  0  0  0  0  2  0  0  0  0  0  0
  -27.8190  -13.8200   20.2060 C   0  0  0  0  0  3  0  0  0  0  0  0
  -28.7430  -13.5620   21.4220 C   0  0  0  0  0  2  0  0  0  0  0  0
  -30.1230  -13.9120   21.0340 N   0  0  0  0  0  0  0  0  0  0  0  0
  -31.8810  -15.3690   20.9260 O   0  0  0  0  0  0  0  0  0  0  0  0
  -29.8530  -16.0890   21.5510 N   0  0  0  0  0  0  0  0  0  0  0  0
  -28.9470  -15.7740   21.8630 H   0  0  0  0  0  0  0  0  0  0  0  0
  -25.3320  -14.3420   20.6290 C   0  0  0  0  0  0  0  0  0  0  0  0
  -24.2520  -13.5270   20.8400 C   0  0  0  0  0  0  0  0  0  0  0  0
  -24.7560  -12.1900   20.8160 C   0  0  0  0  0  0  0  0  0  0  0  0
  -26.4240  -13.4960   20.4980 N   0  0  0  0  0  0  0  0  0  0  0  0
  -26.0730  -12.1960   20.6650 N   0  0  0  0  0  0  0  0  0  0  0  0
  -24.0560  -10.9000   20.8710 C   0  0  0  0  0  0  0  0  0  0  0  0
  -24.4310   -9.8950   21.7910 C   0  0  0  0  0  3  0  0  0  0  0  0
  -23.7310   -8.6710   21.8360 C   0  0  0  0  0  3  0  0  0  0  0  0
  -22.6420   -8.4430   20.9620 C   0  0  0  0  0  0  0  0  0  0  0  0
  -22.2880   -9.4370   20.0320 C   0  0  0  0  0  3  0  0  0  0  0  0
  -22.9900  -10.6540   19.9840 C   0  0  0  0  0  3  0  0  0  0  0  0
  -21.9210   -7.2750   20.9180 O   0  0  0  0  0  0  0  0  0  0  0  0
  -21.7920   -6.4680   22.0190 C   0  0  0  0  0  0  0  0  0  0  0  0
  -21.2690   -6.9490   23.2390 C   0  0  0  0  0  3  0  0  0  0  0  0
  -21.0880   -6.0680   24.3250 C   0  0  0  0  0  3  0  0  0  0  0  0
  -21.4220   -4.7070   24.1910 C   0  0  0  0  0  0  0  0  0  0  0  0
  -21.9380   -4.2250   22.9750 C   0  0  0  0  0  3  0  0  0  0  0  0
  -22.1200   -5.1030   21.8920 C   0  0  0  0  0  0  0  0  0  0  0  0
  -22.5980   -4.6290   20.7170 F   0  0  0  0  0  0  0  0  0  0  0  0
  -21.2410   -3.8590   25.2310 F   0  0  0  0  0  0  0  0  0  0  0  0
  -22.8170  -13.9520   20.9560 C   0  0  0  0  0  0  0  0  0  0  0  0
  -22.0160  -13.2080   21.7110 N   0  0  0  0  0  0  0  0  0  0  0  0
  -22.4080  -14.9770   20.4120 O   0  0  0  0  0  0  0  0  0  0  0  0
  -21.0460  -13.4680   21.8220 H   0  0  0  0  0  0  0  0  0  0  0  0
  -22.3610  -12.3870   22.1850 H   0  0  0  0  0  0  0  0  0  0  0  0
  -25.4740  -15.7220   20.5240 N   0  0  0  0  0  0  0  0  0  0  0  0
  -24.6840  -16.3540   20.6010 H   0  0  0  0  0  0  0  0  0  0  0  0
  -26.3450  -16.1980   20.3250 H   0  0  0  0  0  0  0  0  0  0  0  0
  -24.4420  -19.6150   17.2150 C   0  0  0  0  0  2  0  0  0  0  0  0
  -23.5930  -20.7480   17.4330 O   0  0  0  0  0  0  0  0  0  0  0  0
  -24.1250  -21.8480   18.1760 C   0  0  0  0  0  2  0  0  0  0  0  0
  -24.6240  -21.4580   19.5800 C   0  0  0  0  0  2  0  0  0  0  0  0
  -25.1140  -22.6780   20.3670 C   0  0  0  0  0  2  0  0  0  0  0  0
  -26.2610  -23.2020   19.7170 O   0  0  0  0  0  0  0  0  0  0  0  0
  -26.6980  -24.4340   20.2700 C   0  0  0  0  0  2  0  0  0  0  0  0
  -27.9480  -24.8790   19.5030 C   0  0  0  0  0  2  0  0  0  0  0  0
  -28.5420  -26.2100   20.0010 C   0  0  0  0  0  2  0  0  0  0  0  0
  -28.2400  -27.2940   19.1260 O   0  0  0  0  0  0  0  0  0  0  0  0
  -24.6060  -31.8140   23.2470 C   0  0  0  0  0  0  0  0  0  0  0  0
  -27.0590  -27.9460   19.3690 C   0  0  0  0  0  0  0  0  0  0  0  0
  -23.2900  -30.6480   21.5040 C   0  0  0  0  0  3  0  0  0  0  0  0
  -24.6500  -29.3580   19.7710 C   0  0  0  0  0  0  0  0  0  0  0  0
  -25.7870  -31.0850   21.1790 C   0  0  0  0  0  2  0  0  0  0  0  0
  -25.8380  -29.8200   20.3500 C   0  0  0  0  0  0  0  0  0  0  0  0
  -27.0470  -29.1190   20.1520 C   0  0  0  0  0  3  0  0  0  0  0  0
  -25.8600  -27.4900   18.7850 C   0  0  0  0  0  3  0  0  0  0  0  0
  -24.6530  -28.1860   18.9910 C   0  0  0  0  0  3  0  0  0  0  0  0
  -23.4040  -30.1760   20.0280 C   0  0  0  0  0  2  0  0  0  0  0  0
  -24.5830  -31.1880   22.0360 N   0  0  0  0  0  0  0  0  0  0  0  0
  -23.5680  -31.9850   23.8990 O   0  0  0  0  0  0  0  0  0  0  0  0
  -22.7220  -29.4850   22.3470 C   0  0  0  0  0  0  0  0  0  0  0  0
  -21.4060  -29.2520   22.2290 N   0  0  0  0  0  0  0  0  0  0  0  0
  -23.4600  -28.8000   23.0620 O   0  0  0  0  0  0  0  0  0  0  0  0
  -20.8710  -29.8590   21.6220 H   0  0  0  0  0  0  0  0  0  0  0  0
  -18.1260  -27.7800   22.5740 C   0  0  0  0  0  0  0  0  0  0  0  0
  -20.6570  -28.1880   22.8960 C   0  0  0  0  0  3  0  0  0  0  0  0
  -20.8620  -26.8320   22.1810 C   0  0  0  0  0  2  0  0  0  0  0  0
  -19.7870  -26.5350   21.1300 C   0  0  0  0  0  2  0  0  0  0  0  0
  -18.3970  -26.5180   21.7720 C   0  0  0  0  0  2  0  0  0  0  0  0
  -19.1860  -28.5710   23.0880 C   0  0  0  0  0  0  0  0  0  0  0  0
  -18.8780  -29.7540   23.7960 C   0  0  0  0  0  3  0  0  0  0  0  0
  -17.5400  -30.1430   23.9980 C   0  0  0  0  0  3  0  0  0  0  0  0
  -16.4940  -29.3480   23.4980 C   0  0  0  0  0  3  0  0  0  0  0  0
  -16.7880  -28.1680   22.7920 C   0  0  0  0  0  3  0  0  0  0  0  0
  -25.9320  -32.3660   23.8580 C   0  0  0  0  0  3  0  0  0  0  0  0
  -26.5290  -31.4390   24.9860 C   0  0  1  0  0  0  0  0  0  0  0  0
  -25.5090  -31.0630   26.0860 C   0  0  0  0  0  1  0  0  0  0  0  0
  -27.0760  -30.1260   24.3790 C   0  0  0  0  0  1  0  0  0  0  0  0
  -27.7240  -32.1460   25.6660 C   0  0  0  0  0  1  0  0  0  0  0  0
  -25.6500  -33.7080   24.3820 N   0  0  0  0  0  0  0  0  0  0  0  0
  -25.9460  -34.8480   23.7450 C   0  0  0  0  0  0  0  0  0  0  0  0
  -26.5610  -34.8780   22.6760 O   0  0  0  0  0  0  0  0  0  0  0  0
  -25.1000  -33.7590   25.2260 H   0  0  0  0  0  0  0  0  0  0  0  0
  -24.2080  -36.6660   23.7090 C   0  0  0  0  0  1  0  0  0  0  0  0
  -25.4870  -36.1650   24.3990 C   0  0  0  0  0  3  0  0  0  0  0  0
  -27.6680  -36.9380   25.2200 C   0  0  0  0  0  1  0  0  0  0  0  0
  -26.5170  -37.2270   24.3700 N   0  0  0  0  0  0  0  0  0  0  0  0
  -26.1230  -38.1180   24.6610 H   0  0  0  0  0  0  0  0  0  0  0  0
  1  2  1  0
  1 53  1  0
  2  4  1  0
  3  1  2  0
  5  2  1  0
  5 11  1  0
  6  5  1  0
  7  9  1  0
  7  6  1  0
  8  6  2  0
 10  7  1  0
 11 12  1  0
 12 13  1  0
 13 14  1  0
 14 23  1  0
 15 23  1  0
 16 21  1  0
 17 18  1  0
 17 16  1  0
 19 18  1  0
 19 28  1  0
 19 20  1  0
 21 15  1  0
 21 20  1  0
 22 15  2  0
 23 24  1  0
 25 26  2  0
 26 45  1  0
 27 26  1  0
 27 30  1  0
 28 25  1  0
 28 29  1  0
 29 27  2  0
 30 31  1  0
 31 32  2  0
 33 32  1  0
 34 33  2  0
 35 34  1  0
 35 30  2  0
 36 33  1  0
 36 37  1  0
 37 38  1  0
 38 39  2  0
 40 39  1  0
 40 44  1  0
 41 40  2  0
 42 37  2  0
 42 41  1  0
 43 42  1  0
 45 46  1  0
 46 48  1  0
 46 49  1  0
 47 45  2  0
 50 51  1  0
 50 25  1  0
 52 50  1  0
 53 54  1  0
 54 55  1  0
 55 56  1  0
 56 57  1  0
 58 59  1  0
 58 57  1  0
 60 61  1  0
 60 59  1  0
 62 64  1  0
 62 61  1  0
 63 74  2  0
 64 69  1  0
 65 73  1  0
 65 75  1  0
 66 72  1  0
 66 68  1  0
 67 73  1  0
 68 67  1  0
 69 68  2  0
 70 71  1  0
 70 64  2  0
 71 66  2  0
 72 65  1  0
 73 63  1  0
 75 77  2  0
 76 75  1  0
 78 76  1  0
 79 88  2  0
 79 84  1  0
 80 76  1  0
 80 84  1  0
 81 80  1  0
 82 83  1  0
 82 81  1  0
 83 79  1  0
 84 85  2  0
 85 86  1  0
 87 86  2  0
 88 87  1  0
 89 63  1  0
 89 94  1  0
 89 90  1  0
 90 93  1  1
 90 91  1  0
 92 90  1  0
 94 97  1  0
 95 94  1  0
 95 99  1  0
 96 95  2  0
 99 98  1  0
101 99  1  0
101102  1  0
101100  1  0
M  ISO  4  15 100  23 100  61 101  62 101
M  END
>  <TORSDO>  (93) 
F 31

>  <SCORE>  (93) 
-3.517

>  <name>  (93) 
94

>  <ligand_id>  (93) 
94

>  <original_smiles>  (93) 
[H]c1c([H])c([H])c2c(c1[H])C([H])([H])C([H])([H])C([H])([H])C2([H])N([H])C(=O)C1([H])N(C(=O)C([H])(N([H])C(=O)C([H])(N([H])C([H])([H])[H])C([H])([H])[H])C(C([H])([H])[H])(C([H])([H])[H])C([H])([H])[H])C([H])([H])c2c([H])c(OC([H])([H])C([H])([H])C([H])([H])OC([H])([H])C([H])([H])C([H])([H])OC([H])([H])C(=O)N([H])C([H])(C(=O)N([H])[H])C([H])([H])C([H])([H])C([H])([H])C([H])([H])N([H])C(=O)N3C([H])([H])C([H])([H])C([H])([H])C([H])(n4nc(-c5c([H])c([H])c(Oc6c([H])c([H])c(F)c([H])c6F)c([H])c5[H])c(C(=O)N([H])[H])c4N([H])[H])C3([H])[H])c([H])c([H])c2C1([H])[H]

>  <smiles>  (93) 
[H]c1c([H])c([H])c2c(c1[H])C([H])([H])C([H])([H])C([H])([H])C2([H])N([H])C(=O)C1([H])N(C(=O)C([H])(N([H])C(=O)C([H])(N([H])C([H])([H])[H])C([H])([H])[H])C(C([H])([H])[H])(C([H])([H])[H])C([H])([H])[H])C([H])([H])c2c([H])c(OC([H])([H])C([H])([H])C([H])([H])OC([H])([H])C([H])([H])C([H])([H])OC([H])([H])C(=O)N([H])C([H])(C(=O)N([H])[H])C([H])([H])C([H])([H])C([H])([H])C([H])([H])N([H])C(=O)N3C([H])([H])C([H])([H])C([H])([H])C([H])(n4nc(-c5c([H])c([H])c(Oc6c([H])c([H])c(F)c([H])c6F)c([H])c5[H])c(C(=O)N([H])[H])c4N([H])[H])C3([H])[H])c([H])c([H])c2C1([H])[H]

$$$$
95:0:0
     RDKit          3D

104111  0  0  1  0  0  0  0  0999 V2000
  -30.9060  -17.4830   21.5390 C   0  0  0  0  0  0  0  0  0  0  0  0
  -31.0830  -18.8040   21.4050 N   0  0  0  0  0  0  0  0  0  0  0  0
  -31.6300  -16.7930   22.2620 O   0  0  0  0  0  0  0  0  0  0  0  0
  -30.4410  -19.2910   20.7880 H   0  0  0  0  0  0  0  0  0  0  0  0
  -29.7240  -16.8500   20.7770 C   0  0  0  0  0  3  0  0  0  0  0  0
  -30.3530  -14.4710   20.2840 C   0  0  0  0  0  0  0  0  0  0  0  0
  -30.0780  -12.3270   19.1160 C   0  0  0  0  0  2  0  0  0  0  0  0
  -29.0840  -12.5680   17.9600 C   0  0  0  0  0  2  0  0  0  0  0  0
  -27.6240  -12.4110   18.4400 C   0  0  0  0  0  2  0  0  0  0  0  0
  -27.3290  -13.1780   19.7600 C   0  0  0  0  0  3  0  0  0  0  0  0
  -28.4360  -12.9180   20.8050 C   0  0  0  0  0  2  0  0  0  0  0  0
  -29.7330  -13.2640   20.1940 N   0  0  0  0  0  0  0  0  0  0  0  0
  -31.3960  -14.7520   19.6920 O   0  0  0  0  0  0  0  0  0  0  0  0
  -29.6450  -15.3940   20.9400 N   0  0  0  0  0  0  0  0  0  0  0  0
  -28.8470  -15.0510   21.4500 H   0  0  0  0  0  0  0  0  0  0  0  0
  -24.9370  -13.7050   20.5620 C   0  0  0  0  0  0  0  0  0  0  0  0
  -23.9070  -12.8980   20.9640 C   0  0  0  0  0  0  0  0  0  0  0  0
  -24.4050  -11.5600   20.8930 C   0  0  0  0  0  0  0  0  0  0  0  0
  -26.0010  -12.8610   20.2840 N   0  0  0  0  0  0  0  0  0  0  0  0
  -25.6830  -11.5640   20.5330 N   0  0  0  0  0  0  0  0  0  0  0  0
  -23.7250  -10.2780   21.0990 C   0  0  0  0  0  0  0  0  0  0  0  0
  -24.2200   -9.3200   22.0130 C   0  0  0  0  0  3  0  0  0  0  0  0
  -23.5400   -8.0970   22.2090 C   0  0  0  0  0  3  0  0  0  0  0  0
  -22.3510   -7.8260   21.4900 C   0  0  0  0  0  0  0  0  0  0  0  0
  -21.8740   -8.7730   20.5660 C   0  0  0  0  0  3  0  0  0  0  0  0
  -22.5550   -9.9880   20.3710 C   0  0  0  0  0  3  0  0  0  0  0  0
  -21.6380   -6.6560   21.5920 O   0  0  0  0  0  0  0  0  0  0  0  0
  -21.6460   -5.9040   22.7370 C   0  0  0  0  0  0  0  0  0  0  0  0
  -21.1700   -6.4130   23.9650 C   0  0  0  0  0  3  0  0  0  0  0  0
  -21.1370   -5.5840   25.1050 C   0  0  0  0  0  3  0  0  0  0  0  0
  -21.5670   -4.2470   25.0170 C   0  0  0  0  0  0  0  0  0  0  0  0
  -22.0350   -3.7380   23.7940 C   0  0  0  0  0  3  0  0  0  0  0  0
  -22.0720   -4.5630   22.6550 C   0  0  0  0  0  0  0  0  0  0  0  0
  -22.5060   -4.0610   21.4750 F   0  0  0  0  0  0  0  0  0  0  0  0
  -21.5250   -3.4480   26.1090 F   0  0  0  0  0  0  0  0  0  0  0  0
  -22.5110  -13.3320   21.3010 C   0  0  0  0  0  0  0  0  0  0  0  0
  -21.8380  -12.6110   22.1870 N   0  0  0  0  0  0  0  0  0  0  0  0
  -22.0250  -14.3510   20.8100 O   0  0  0  0  0  0  0  0  0  0  0  0
  -22.2500  -11.7980   22.6230 H   0  0  0  0  0  0  0  0  0  0  0  0
  -20.8970  -12.8790   22.4370 H   0  0  0  0  0  0  0  0  0  0  0  0
  -25.0490  -15.0820   20.3930 N   0  0  0  0  0  0  0  0  0  0  0  0
  -24.2550  -15.7000   20.5230 H   0  0  0  0  0  0  0  0  0  0  0  0
  -25.8730  -15.5600   20.0510 H   0  0  0  0  0  0  0  0  0  0  0  0
  -29.5440  -17.3260   19.3090 C   0  0  0  0  0  2  0  0  0  0  0  0
  -28.9910  -18.6370   19.3660 O   0  0  0  0  0  0  0  0  0  0  0  0
  -28.5530  -19.1940   18.1340 C   0  0  0  0  0  2  0  0  0  0  0  0
  -29.6960  -19.7780   17.2960 C   0  0  0  0  0  2  0  0  0  0  0  0
  -30.2730  -18.7790   16.4600 O   0  0  0  0  0  0  0  0  0  0  0  0
  -31.1080  -19.3150   15.4380 C   0  0  0  0  0  2  0  0  0  0  0  0
  -32.5520  -18.8670   15.6810 C   0  0  0  0  0  2  0  0  0  0  0  0
  -32.7120  -17.4170   15.4540 N   0  0  0  0  0  4  0  0  0  0  0  0
  -32.1460  -16.8960   16.1000 H   0  0  0  0  0  0  0  0  0  0  0  0
  -33.6710  -17.1420   15.5760 H   0  0  0  0  0  0  0  0  0  0  0  0
  -32.4390  -17.1700   14.5190 H   0  0  0  0  0  0  0  0  0  0  0  0
  -32.1120  -19.6110   22.0570 C   0  0  0  0  0  2  0  0  0  0  0  0
  -32.8670  -20.4740   21.0340 C   0  0  0  0  0  2  0  0  0  0  0  0
  -31.9670  -21.4020   20.4260 O   0  0  0  0  0  0  0  0  0  0  0  0
  -31.9110  -22.6500   21.1110 C   0  0  0  0  0  2  0  0  0  0  0  0
  -30.6640  -23.4310   20.6950 C   0  0  0  0  0  2  0  0  0  0  0  0
  -30.9320  -24.0560   19.4440 O   0  0  0  0  0  0  0  0  0  0  0  0
  -30.0300  -25.1050   19.1230 C   0  0  0  0  0  2  0  0  0  0  0  0
  -28.6560  -24.5400   18.7330 C   0  0  0  0  0  2  0  0  0  0  0  0
  -27.6720  -25.6330   18.3320 C   0  0  0  0  0  2  0  0  0  0  0  0
  -27.6230  -26.5750   19.4080 O   0  0  0  0  0  0  0  0  0  0  0  0
  -24.5020  -31.7550   23.1580 C   0  0  0  0  0  0  0  0  0  0  0  0
  -26.4950  -27.3380   19.5830 C   0  0  0  0  0  0  0  0  0  0  0  0
  -23.0470  -30.5350   21.5750 C   0  0  0  0  0  3  0  0  0  0  0  0
  -24.2370  -28.9900   19.9480 C   0  0  0  0  0  0  0  0  0  0  0  0
  -25.5650  -30.7300   21.1500 C   0  0  0  0  0  2  0  0  0  0  0  0
  -25.4850  -29.3980   20.4360 C   0  0  0  0  0  0  0  0  0  0  0  0
  -26.6170  -28.5750   20.2570 C   0  0  0  0  0  3  0  0  0  0  0  0
  -25.2150  -26.9270   19.1410 C   0  0  0  0  0  3  0  0  0  0  0  0
  -24.0950  -27.7500   19.3140 C   0  0  0  0  0  3  0  0  0  0  0  0
  -23.0730  -29.9270   20.1520 C   0  0  0  0  0  2  0  0  0  0  0  0
  -24.3960  -31.0130   22.0180 N   0  0  0  0  0  0  0  0  0  0  0  0
  -23.4960  -32.0700   23.8110 O   0  0  0  0  0  0  0  0  0  0  0  0
  -22.4180  -29.5040   22.5400 C   0  0  0  0  0  0  0  0  0  0  0  0
  -21.0860  -29.3480   22.4650 N   0  0  0  0  0  0  0  0  0  0  0  0
  -23.1230  -28.8480   23.3120 O   0  0  0  0  0  0  0  0  0  0  0  0
  -20.5790  -29.9240   21.8090 H   0  0  0  0  0  0  0  0  0  0  0  0
  -17.7290  -28.1170   22.9840 C   0  0  0  0  0  0  0  0  0  0  0  0
  -20.2840  -28.4110   23.2510 C   0  0  0  0  0  3  0  0  0  0  0  0
  -20.4050  -26.9730   22.6960 C   0  0  0  0  0  2  0  0  0  0  0  0
  -19.3070  -26.6200   21.6880 C   0  0  0  0  0  2  0  0  0  0  0  0
  -17.9240  -26.7590   22.3300 C   0  0  0  0  0  2  0  0  0  0  0  0
  -18.8380  -28.8990   23.4020 C   0  0  0  0  0  0  0  0  0  0  0  0
  -18.6060  -30.1710   23.9700 C   0  0  0  0  0  3  0  0  0  0  0  0
  -17.2950  -30.6610   24.1230 C   0  0  0  0  0  3  0  0  0  0  0  0
  -16.2000  -29.8740   23.7240 C   0  0  0  0  0  3  0  0  0  0  0  0
  -16.4190  -28.6060   23.1610 C   0  0  0  0  0  3  0  0  0  0  0  0
  -25.8830  -32.2610   23.6800 C   0  0  0  0  0  3  0  0  0  0  0  0
  -25.7060  -33.6530   24.1090 N   0  0  0  0  0  0  0  0  0  0  0  0
  -26.0360  -34.7210   23.3720 C   0  0  0  0  0  0  0  0  0  0  0  0
  -26.5950  -34.6330   22.2750 O   0  0  0  0  0  0  0  0  0  0  0  0
  -25.1950  -33.8010   24.9680 H   0  0  0  0  0  0  0  0  0  0  0  0
  -24.4050  -36.6330   23.2820 C   0  0  0  0  0  1  0  0  0  0  0  0
  -25.6910  -36.1110   23.9420 C   0  0  0  0  0  3  0  0  0  0  0  0
  -27.9490  -36.8180   24.5950 C   0  0  0  0  0  1  0  0  0  0  0  0
  -26.7760  -37.1010   23.7700 N   0  0  0  0  0  0  0  0  0  0  0  0
  -26.4490  -38.0380   23.9940 H   0  0  0  0  0  0  0  0  0  0  0  0
  -26.4600  -31.3840   24.8590 C   0  0  1  0  0  0  0  0  0  0  0  0
  -25.4640  -31.1780   26.0250 C   0  0  0  0  0  1  0  0  0  0  0  0
  -26.8840  -29.9890   24.3470 C   0  0  0  0  0  1  0  0  0  0  0  0
  -27.7370  -32.0460   25.4270 C   0  0  0  0  0  1  0  0  0  0  0  0
  1  3  2  0
  2  1  1  0
  2 55  1  0
  4  2  1  0
  5 44  1  0
  5 14  1  0
  5  1  1  0
  6 14  1  0
  7 12  1  0
  8  9  1  0
  8  7  1  0
 10  9  1  0
 10 19  1  0
 10 11  1  0
 12  6  1  0
 12 11  1  0
 13  6  2  0
 14 15  1  0
 16 17  2  0
 17 36  1  0
 18 17  1  0
 18 21  1  0
 19 20  1  0
 19 16  1  0
 20 18  2  0
 21 22  1  0
 22 23  2  0
 24 27  1  0
 24 23  1  0
 25 24  2  0
 26 25  1  0
 26 21  2  0
 27 28  1  0
 28 29  1  0
 29 30  2  0
 31 30  1  0
 31 35  1  0
 32 31  2  0
 33 28  2  0
 33 32  1  0
 34 33  1  0
 36 37  1  0
 37 40  1  0
 37 39  1  0
 38 36  2  0
 41 42  1  0
 41 16  1  0
 43 41  1  0
 44 45  1  0
 46 45  1  0
 47 46  1  0
 48 47  1  0
 49 50  1  0
 49 48  1  0
 51 53  1  0
 51 50  1  0
 51 52  1  0
 54 51  1  0
 56 55  1  0
 57 56  1  0
 57 58  1  0
 59 58  1  0
 60 59  1  0
 61 60  1  0
 62 61  1  0
 63 62  1  0
 63 64  1  0
 64 66  1  0
 65 76  2  0
 66 71  1  0
 67 75  1  0
 67 77  1  0
 68 74  1  0
 68 70  1  0
 69 75  1  0
 70 69  1  0
 71 70  2  0
 72 73  1  0
 72 66  2  0
 73 68  2  0
 74 67  1  0
 75 65  1  0
 77 79  2  0
 78 77  1  0
 80 78  1  0
 81 90  2  0
 81 86  1  0
 82 78  1  0
 82 86  1  0
 83 82  1  0
 84 85  1  0
 84 83  1  0
 85 81  1  0
 86 87  2  0
 87 88  1  0
 89 88  2  0
 90 89  1  0
 91 65  1  0
 91 92  1  0
 91101  1  0
 92 95  1  0
 93 97  1  0
 93 92  1  0
 94 93  2  0
 97 96  1  0
 99 97  1  0
 99100  1  0
 99 98  1  0
101104  1  1
101102  1  0
103101  1  0
M  ISO  4   6 100  14 100  63 101  64 101
M  END
>  <TORSDO>  (94) 
F 34

>  <SCORE>  (94) 
-9.602

>  <name>  (94) 
95

>  <ligand_id>  (94) 
95

>  <original_smiles>  (94) 
[H]c1c([H])c([H])c2c(c1[H])C([H])([H])C([H])([H])C([H])([H])C2([H])N([H])C(=O)C1([H])N(C(=O)C([H])(N([H])C(=O)C([H])(N([H])C([H])([H])[H])C([H])([H])[H])C(C([H])([H])[H])(C([H])([H])[H])C([H])([H])[H])C([H])([H])c2c([H])c(OC([H])([H])C([H])([H])C([H])([H])OC([H])([H])C([H])([H])OC([H])([H])C([H])([H])N([H])C(=O)C([H])(N([H])C(=O)N3C([H])([H])C([H])([H])C([H])([H])C([H])(n4nc(-c5c([H])c([H])c(Oc6c([H])c([H])c(F)c([H])c6F)c([H])c5[H])c(C(=O)N([H])[H])c4N([H])[H])C3([H])[H])C([H])([H])OC([H])([H])C([H])([H])OC([H])([H])C([H])([H])[N+]([H])([H])[H])c([H])c([H])c2C1([H])[H]

>  <smiles>  (94) 
[H]c1c([H])c([H])c2c(c1[H])C([H])([H])C([H])([H])C([H])([H])C2([H])N([H])C(=O)C1([H])N(C(=O)C([H])(N([H])C(=O)C([H])(N([H])C([H])([H])[H])C([H])([H])[H])C(C([H])([H])[H])(C([H])([H])[H])C([H])([H])[H])C([H])([H])c2c([H])c(OC([H])([H])C([H])([H])C([H])([H])OC([H])([H])C([H])([H])OC([H])([H])C([H])([H])N([H])C(=O)C([H])(N([H])C(=O)N3C([H])([H])C([H])([H])C([H])([H])C([H])(n4nc(-c5c([H])c([H])c(Oc6c([H])c([H])c(F)c([H])c6F)c([H])c5[H])c(C(=O)N([H])[H])c4N([H])[H])C3([H])[H])C([H])([H])OC([H])([H])C([H])([H])OC([H])([H])C([H])([H])[N+]([H])([H])[H])c([H])c([H])c2C1([H])[H]

$$$$
96:0:0
     RDKit          3D

100107  0  0  1  0  0  0  0  0999 V2000
  -26.7240  -24.3720   15.2820 C   0  0  0  0  0  2  0  0  0  0  0  0
  -27.3000  -25.7730   15.5590 C   0  0  0  0  0  2  0  0  0  0  0  0
  -28.1800  -25.6870   16.6820 O   0  0  0  0  0  0  0  0  0  0  0  0
  -29.5560  -25.6290   16.3230 C   0  0  0  0  0  2  0  0  0  0  0  0
  -30.3950  -25.0650   17.4860 C   0  0  0  0  0  2  0  0  0  0  0  0
  -30.2410  -23.6420   17.6110 O   0  0  0  0  0  0  0  0  0  0  0  0
  -31.0070  -23.0930   18.6910 C   0  0  0  0  0  2  0  0  0  0  0  0
  -31.3270  -21.5860   18.5300 C   0  0  0  0  0  2  0  0  0  0  0  0
  -30.4110  -20.7490   19.2470 O   0  0  0  0  0  0  0  0  0  0  0  0
  -31.0260  -19.5640   19.7740 C   0  0  0  0  0  2  0  0  0  0  0  0
  -29.9610  -18.5630   20.2860 C   0  0  0  0  0  2  0  0  0  0  0  0
  -30.4540  -17.5830   21.3920 C   0  0  0  0  0  2  0  0  0  0  0  0
  -30.7330  -15.1530   20.8260 C   0  0  0  0  0  0  0  0  0  0  0  0
  -30.5480  -13.0090   19.6440 C   0  0  0  0  0  2  0  0  0  0  0  0
  -29.6770  -13.2090   18.3890 C   0  0  0  0  0  2  0  0  0  0  0  0
  -28.1890  -13.0030   18.7370 C   0  0  0  0  0  2  0  0  0  0  0  0
  -27.7510  -13.8050   19.9920 C   0  0  0  0  0  3  0  0  0  0  0  0
  -28.7490  -13.6210   21.1560 C   0  0  0  0  0  2  0  0  0  0  0  0
  -30.0890  -13.9650   20.6570 N   0  0  0  0  0  0  0  0  0  0  0  0
  -31.8940  -15.3350   20.4560 O   0  0  0  0  0  0  0  0  0  0  0  0
  -29.9820  -16.1840   21.2550 N   0  0  0  0  0  0  0  0  0  0  0  0
  -29.0310  -15.9770   21.5250 H   0  0  0  0  0  0  0  0  0  0  0  0
  -25.3000  -14.3180   20.5730 C   0  0  0  0  0  0  0  0  0  0  0  0
  -24.2410  -13.5090   20.8780 C   0  0  0  0  0  0  0  0  0  0  0  0
  -24.7490  -12.1730   20.8660 C   0  0  0  0  0  0  0  0  0  0  0  0
  -26.3860  -13.4750   20.3940 N   0  0  0  0  0  0  0  0  0  0  0  0
  -26.0560  -12.1790   20.6320 N   0  0  0  0  0  0  0  0  0  0  0  0
  -24.0620  -10.8850   21.0080 C   0  0  0  0  0  0  0  0  0  0  0  0
  -24.4800   -9.9310   21.9600 C   0  0  0  0  0  3  0  0  0  0  0  0
  -23.7980   -8.7020   22.0930 C   0  0  0  0  0  3  0  0  0  0  0  0
  -22.6800   -8.4210   21.2710 C   0  0  0  0  0  0  0  0  0  0  0  0
  -22.2820   -9.3660   20.3090 C   0  0  0  0  0  3  0  0  0  0  0  0
  -22.9660  -10.5840   20.1770 C   0  0  0  0  0  3  0  0  0  0  0  0
  -21.9660   -7.2490   21.3120 O   0  0  0  0  0  0  0  0  0  0  0  0
  -21.8710   -6.5020   22.4590 C   0  0  0  0  0  0  0  0  0  0  0  0
  -21.3330   -7.0320   23.6510 C   0  0  0  0  0  3  0  0  0  0  0  0
  -21.1950   -6.2090   24.7850 C   0  0  0  0  0  3  0  0  0  0  0  0
  -21.5770   -4.8560   24.7270 C   0  0  0  0  0  0  0  0  0  0  0  0
  -22.1060   -4.3250   23.5390 C   0  0  0  0  0  3  0  0  0  0  0  0
  -22.2500   -5.1460   22.4060 C   0  0  0  0  0  0  0  0  0  0  0  0
  -22.7390   -4.6250   21.2570 F   0  0  0  0  0  0  0  0  0  0  0  0
  -21.4350   -4.0620   25.8130 F   0  0  0  0  0  0  0  0  0  0  0  0
  -22.8140  -13.9320   21.0710 C   0  0  0  0  0  0  0  0  0  0  0  0
  -22.0620  -13.2020   21.8860 N   0  0  0  0  0  0  0  0  0  0  0  0
  -22.3710  -14.9450   20.5300 O   0  0  0  0  0  0  0  0  0  0  0  0
  -22.4340  -12.3870   22.3500 H   0  0  0  0  0  0  0  0  0  0  0  0
  -21.1000  -13.4640   22.0490 H   0  0  0  0  0  0  0  0  0  0  0  0
  -25.4240  -15.6970   20.4120 N   0  0  0  0  0  0  0  0  0  0  0  0
  -24.6210  -16.3140   20.4730 H   0  0  0  0  0  0  0  0  0  0  0  0
  -26.2700  -16.1720   20.1270 H   0  0  0  0  0  0  0  0  0  0  0  0
  -26.0130  -23.7690   16.5140 C   0  0  0  0  0  2  0  0  0  0  0  0
  -27.0220  -23.2800   17.4780 N   0  0  0  0  0  4  0  0  0  0  0  0
  -27.6700  -24.0530   17.5750 H   0  0  0  0  0  0  0  0  0  0  0  0
  -27.5300  -22.5090   17.0630 H   0  0  0  0  0  0  0  0  0  0  0  0
  -26.5320  -22.9120   18.8270 C   0  0  0  0  0  2  0  0  0  0  0  0
  -27.6700  -23.0230   19.8590 C   0  0  0  0  0  2  0  0  0  0  0  0
  -27.7350  -24.3770   20.2840 O   0  0  0  0  0  0  0  0  0  0  0  0
  -28.8590  -24.6960   21.1020 C   0  0  0  0  0  2  0  0  0  0  0  0
  -28.7810  -26.1810   21.4840 C   0  0  0  0  0  2  0  0  0  0  0  0
  -28.6170  -26.9510   20.2910 O   0  0  0  0  0  0  0  0  0  0  0  0
  -24.6700  -31.9610   23.3720 C   0  0  0  0  0  0  0  0  0  0  0  0
  -27.4430  -27.6600   20.2670 C   0  0  0  0  0  0  0  0  0  0  0  0
  -23.5180  -30.5790   21.6710 C   0  0  0  0  0  3  0  0  0  0  0  0
  -25.0240  -29.0970   20.2460 C   0  0  0  0  0  0  0  0  0  0  0  0
  -26.0330  -30.9990   21.5220 C   0  0  0  0  0  2  0  0  0  0  0  0
  -26.1540  -29.6400   20.8660 C   0  0  0  0  0  0  0  0  0  0  0  0
  -27.3680  -28.9240   20.8850 C   0  0  0  0  0  3  0  0  0  0  0  0
  -26.3030  -27.1200   19.6400 C   0  0  0  0  0  3  0  0  0  0  0  0
  -25.0860  -27.8340   19.6270 C   0  0  0  0  0  3  0  0  0  0  0  0
  -23.7640  -29.9300   20.2810 C   0  0  0  0  0  2  0  0  0  0  0  0
  -24.7580  -31.1910   22.2520 N   0  0  0  0  0  0  0  0  0  0  0  0
  -23.5720  -32.2050   23.8940 O   0  0  0  0  0  0  0  0  0  0  0  0
  -22.8550  -29.5320   22.5950 C   0  0  0  0  0  0  0  0  0  0  0  0
  -21.5410  -29.3250   22.4180 N   0  0  0  0  0  0  0  0  0  0  0  0
  -23.5230  -28.9090   23.4260 O   0  0  0  0  0  0  0  0  0  0  0  0
  -21.0620  -29.8820   21.7230 H   0  0  0  0  0  0  0  0  0  0  0  0
  -18.1860  -28.0330   22.7580 C   0  0  0  0  0  0  0  0  0  0  0  0
  -20.7180  -28.3630   23.1480 C   0  0  0  0  0  3  0  0  0  0  0  0
  -20.8900  -26.9380   22.5700 C   0  0  0  0  0  2  0  0  0  0  0  0
  -19.8440  -26.5860   21.5080 C   0  0  0  0  0  2  0  0  0  0  0  0
  -18.4310  -26.6910   22.0890 C   0  0  0  0  0  2  0  0  0  0  0  0
  -19.2600  -28.8250   23.2420 C   0  0  0  0  0  0  0  0  0  0  0  0
  -18.9780  -30.0790   23.8280 C   0  0  0  0  0  3  0  0  0  0  0  0
  -17.6520  -30.5410   23.9360 C   0  0  0  0  0  3  0  0  0  0  0  0
  -16.5920  -29.7460   23.4680 C   0  0  0  0  0  3  0  0  0  0  0  0
  -16.8570  -28.4920   22.8880 C   0  0  0  0  0  3  0  0  0  0  0  0
  -25.9320  -32.6000   24.0320 C   0  0  0  0  0  3  0  0  0  0  0  0
  -25.6190  -34.0040   24.3290 N   0  0  0  0  0  0  0  0  0  0  0  0
  -25.9870  -35.0430   23.5660 C   0  0  0  0  0  0  0  0  0  0  0  0
  -26.6950  -34.9210   22.5640 O   0  0  0  0  0  0  0  0  0  0  0  0
  -25.0110  -34.1780   25.1170 H   0  0  0  0  0  0  0  0  0  0  0  0
  -24.2900  -36.8470   23.1080 C   0  0  0  0  0  1  0  0  0  0  0  0
  -25.4860  -36.4420   23.9840 C   0  0  0  0  0  3  0  0  0  0  0  0
  -27.5810  -37.3240   24.9090 C   0  0  0  0  0  1  0  0  0  0  0  0
  -26.5300  -37.4870   23.9080 N   0  0  0  0  0  0  0  0  0  0  0  0
  -26.1230  -38.4100   24.0320 H   0  0  0  0  0  0  0  0  0  0  0  0
  -26.4010  -31.8440   25.3340 C   0  0  1  0  0  0  0  0  0  0  0  0
  -25.2690  -31.6220   26.3610 C   0  0  0  0  0  1  0  0  0  0  0  0
  -26.9920  -30.4610   24.9720 C   0  0  0  0  0  1  0  0  0  0  0  0
  -27.5310  -32.6410   26.0290 C   0  0  0  0  0  1  0  0  0  0  0  0
  1  2  1  0
  1 51  1  0
  2  3  1  0
  4  3  1  0
  4  5  1  0
  5  6  1  0
  6  7  1  0
  8  7  1  0
  8  9  1  0
  9 10  1  0
 10 11  1  0
 11 12  1  0
 13 21  1  0
 14 19  1  0
 15 16  1  0
 15 14  1  0
 17 16  1  0
 17 26  1  0
 17 18  1  0
 19 13  1  0
 19 18  1  0
 20 13  2  0
 21 12  1  0
 21 22  1  0
 23 24  2  0
 24 43  1  0
 25 24  1  0
 25 28  1  0
 26 23  1  0
 26 27  1  0
 27 25  2  0
 28 29  1  0
 29 30  2  0
 31 34  1  0
 31 30  1  0
 32 31  2  0
 33 32  1  0
 33 28  2  0
 34 35  1  0
 35 36  1  0
 36 37  2  0
 38 37  1  0
 38 42  1  0
 39 38  2  0
 40 35  2  0
 40 39  1  0
 41 40  1  0
 43 44  1  0
 44 47  1  0
 44 46  1  0
 45 43  2  0
 48 49  1  0
 48 23  1  0
 50 48  1  0
 51 52  1  0
 52 53  1  0
 52 55  1  0
 54 52  1  0
 55 56  1  0
 56 57  1  0
 57 58  1  0
 58 59  1  0
 60 59  1  0
 61 72  2  0
 62 60  1  0
 62 67  1  0
 63 71  1  0
 63 73  1  0
 64 70  1  0
 64 66  1  0
 65 71  1  0
 66 67  2  0
 66 65  1  0
 68 62  2  0
 69 68  1  0
 69 64  2  0
 70 63  1  0
 71 61  1  0
 73 75  2  0
 74 73  1  0
 76 74  1  0
 77 86  2  0
 77 82  1  0
 78 74  1  0
 78 82  1  0
 79 78  1  0
 80 81  1  0
 80 79  1  0
 81 77  1  0
 82 83  2  0
 83 84  1  0
 85 84  2  0
 86 85  1  0
 87 61  1  0
 87 88  1  0
 87 97  1  0
 88 91  1  0
 89 93  1  0
 89 88  1  0
 90 89  2  0
 93 92  1  0
 95 93  1  0
 95 96  1  0
 95 94  1  0
 97100  1  1
 97 98  1  0
 99 97  1  0
M  ISO  4  13 100  21 100  59 101  60 101
M  END
>  <TORSDO>  (95) 
F 34

>  <SCORE>  (95) 
-8.676

>  <name>  (95) 
96

>  <ligand_id>  (95) 
96

>  <original_smiles>  (95) 
[H]c1c([H])c([H])c2c(c1[H])C([H])([H])C([H])([H])C([H])([H])C2([H])N([H])C(=O)C1([H])N(C(=O)C([H])(N([H])C(=O)C([H])(N([H])C([H])([H])[H])C([H])([H])[H])C(C([H])([H])[H])(C([H])([H])[H])C([H])([H])[H])C([H])([H])c2c([H])c(OC([H])([H])C([H])([H])OC([H])([H])C([H])([H])[N+]([H])([H])C([H])([H])C([H])([H])C([H])([H])OC([H])([H])C([H])([H])OC([H])([H])C([H])([H])OC([H])([H])C([H])([H])C([H])([H])N([H])C(=O)N3C([H])([H])C([H])([H])C([H])([H])C([H])(n4nc(-c5c([H])c([H])c(Oc6c([H])c([H])c(F)c([H])c6F)c([H])c5[H])c(C(=O)N([H])[H])c4N([H])[H])C3([H])[H])c([H])c([H])c2C1([H])[H]

>  <smiles>  (95) 
[H]c1c([H])c([H])c2c(c1[H])C([H])([H])C([H])([H])C([H])([H])C2([H])N([H])C(=O)C1([H])N(C(=O)C([H])(N([H])C(=O)C([H])(N([H])C([H])([H])[H])C([H])([H])[H])C(C([H])([H])[H])(C([H])([H])[H])C([H])([H])[H])C([H])([H])c2c([H])c(OC([H])([H])C([H])([H])OC([H])([H])C([H])([H])[N+]([H])([H])C([H])([H])C([H])([H])C([H])([H])OC([H])([H])C([H])([H])OC([H])([H])C([H])([H])OC([H])([H])C([H])([H])C([H])([H])N([H])C(=O)N3C([H])([H])C([H])([H])C([H])([H])C([H])(n4nc(-c5c([H])c([H])c(Oc6c([H])c([H])c(F)c([H])c6F)c([H])c5[H])c(C(=O)N([H])[H])c4N([H])[H])C3([H])[H])c([H])c([H])c2C1([H])[H]

$$$$
97:0:0
     RDKit          3D

 99106  0  0  1  0  0  0  0  0999 V2000
  -28.4740  -20.7780   17.8700 O   0  0  0  0  0  0  0  0  0  0  0  0
  -27.9080  -21.8110   17.0700 C   0  0  0  0  0  2  0  0  0  0  0  0
  -28.1660  -23.1830   17.7050 C   0  0  0  0  0  2  0  0  0  0  0  0
  -29.4450  -23.6770   17.3260 O   0  0  0  0  0  0  0  0  0  0  0  0
  -29.7110  -24.9780   17.8440 C   0  0  0  0  0  2  0  0  0  0  0  0
  -30.7330  -24.8980   18.9880 C   0  0  0  0  0  2  0  0  0  0  0  0
  -30.2310  -24.1420   20.0860 O   0  0  0  0  0  0  0  0  0  0  0  0
  -29.7820  -24.9050   21.2020 C   0  0  0  0  0  2  0  0  0  0  0  0
  -28.3900  -25.5180   20.9900 C   0  0  0  0  0  2  0  0  0  0  0  0
  -28.4920  -26.7660   20.3100 O   0  0  0  0  0  0  0  0  0  0  0  0
  -24.5960  -31.9000   23.2590 C   0  0  0  0  0  0  0  0  0  0  0  0
  -27.3150  -27.4670   20.2730 C   0  0  0  0  0  0  0  0  0  0  0  0
  -23.4180  -30.4660   21.6210 C   0  0  0  0  0  3  0  0  0  0  0  0
  -24.9010  -28.9220   20.2360 C   0  0  0  0  0  0  0  0  0  0  0  0
  -25.9390  -30.8540   21.4420 C   0  0  0  0  0  2  0  0  0  0  0  0
  -26.0440  -29.4770   20.8250 C   0  0  0  0  0  0  0  0  0  0  0  0
  -27.2560  -28.7570   20.8380 C   0  0  0  0  0  3  0  0  0  0  0  0
  -26.1590  -26.9160   19.6800 C   0  0  0  0  0  3  0  0  0  0  0  0
  -24.9500  -27.6400   19.6600 C   0  0  0  0  0  3  0  0  0  0  0  0
  -23.6480  -29.7660   20.2540 C   0  0  0  0  0  2  0  0  0  0  0  0
  -24.6690  -31.0890   22.1670 N   0  0  0  0  0  0  0  0  0  0  0  0
  -23.5070  -32.1700   23.7850 O   0  0  0  0  0  0  0  0  0  0  0  0
  -22.7650  -29.4530   22.5890 C   0  0  0  0  0  0  0  0  0  0  0  0
  -21.4430  -29.2630   22.4510 N   0  0  0  0  0  0  0  0  0  0  0  0
  -23.4450  -28.8410   23.4160 O   0  0  0  0  0  0  0  0  0  0  0  0
  -20.9570  -29.8110   21.7540 H   0  0  0  0  0  0  0  0  0  0  0  0
  -18.0670  -28.0770   22.9360 C   0  0  0  0  0  0  0  0  0  0  0  0
  -20.6230  -28.3330   23.2240 C   0  0  0  0  0  3  0  0  0  0  0  0
  -20.7270  -26.8970   22.6570 C   0  0  0  0  0  2  0  0  0  0  0  0
  -19.6310  -26.5700   21.6380 C   0  0  0  0  0  2  0  0  0  0  0  0
  -18.2460  -26.7210   22.2730 C   0  0  0  0  0  2  0  0  0  0  0  0
  -19.1840  -28.8390   23.3680 C   0  0  0  0  0  0  0  0  0  0  0  0
  -18.9630  -30.1080   23.9470 C   0  0  0  0  0  3  0  0  0  0  0  0
  -17.6580  -30.6130   24.1000 C   0  0  0  0  0  3  0  0  0  0  0  0
  -16.5550  -29.8470   23.6840 C   0  0  0  0  0  3  0  0  0  0  0  0
  -16.7610  -28.5810   23.1080 C   0  0  0  0  0  3  0  0  0  0  0  0
  -25.8720  -32.5450   23.8860 C   0  0  0  0  0  3  0  0  0  0  0  0
  -25.5490  -33.9430   24.2020 N   0  0  0  0  0  0  0  0  0  0  0  0
  -25.8910  -34.9920   23.4400 C   0  0  0  0  0  0  0  0  0  0  0  0
  -26.5800  -34.8850   22.4230 O   0  0  0  0  0  0  0  0  0  0  0  0
  -24.9390  -34.0990   24.9900 H   0  0  0  0  0  0  0  0  0  0  0  0
  -24.1640  -36.7730   23.0330 C   0  0  0  0  0  1  0  0  0  0  0  0
  -25.3840  -36.3800   23.8780 C   0  0  0  0  0  3  0  0  0  0  0  0
  -27.4950  -37.2760   24.7570 C   0  0  0  0  0  1  0  0  0  0  0  0
  -26.4160  -37.4370   23.7870 N   0  0  0  0  0  0  0  0  0  0  0  0
  -26.0010  -38.3550   23.9210 H   0  0  0  0  0  0  0  0  0  0  0  0
  -26.3880  -31.7870   25.1700 C   0  0  1  0  0  0  0  0  0  0  0  0
  -25.2900  -31.5420   26.2300 C   0  0  0  0  0  1  0  0  0  0  0  0
  -26.9900  -30.4140   24.7860 C   0  0  0  0  0  1  0  0  0  0  0  0
  -27.5260  -32.5960   25.8360 C   0  0  0  0  0  1  0  0  0  0  0  0
  -28.2570  -19.4790   17.3290 C   0  0  0  0  0  2  0  0  0  0  0  0
  -27.9310  -18.5040   18.4680 C   0  0  0  0  0  2  0  0  0  0  0  0
  -29.7700  -16.9820   19.1590 C   0  0  0  0  0  0  0  0  0  0  0  0
  -29.1110  -18.1410   19.2530 N   0  0  0  0  0  0  0  0  0  0  0  0
  -29.4880  -16.1850   18.2620 O   0  0  0  0  0  0  0  0  0  0  0  0
  -29.4020  -18.7870   19.9760 H   0  0  0  0  0  0  0  0  0  0  0  0
  -30.8960  -16.6330   20.1840 C   0  0  0  0  0  3  0  0  0  0  0  0
  -31.3400  -14.1780   19.9900 C   0  0  0  0  0  0  0  0  0  0  0  0
  -30.8860  -11.9790   18.9920 C   0  0  0  0  0  2  0  0  0  0  0  0
  -29.9280  -12.1800   17.7990 C   0  0  0  0  0  2  0  0  0  0  0  0
  -28.4570  -12.1770   18.2630 C   0  0  0  0  0  2  0  0  0  0  0  0
  -28.2110  -13.1120   19.4770 C   0  0  0  0  0  3  0  0  0  0  0  0
  -29.2710  -12.8660   20.5750 C   0  0  0  0  0  2  0  0  0  0  0  0
  -30.6070  -13.0360   19.9720 N   0  0  0  0  0  0  0  0  0  0  0  0
  -32.4330  -14.3040   19.4300 O   0  0  0  0  0  0  0  0  0  0  0  0
  -30.7030  -15.2210   20.5330 N   0  0  0  0  0  0  0  0  0  0  0  0
  -29.8200  -15.0040   20.9630 H   0  0  0  0  0  0  0  0  0  0  0  0
  -25.9150  -13.9570   20.2820 C   0  0  0  0  0  0  0  0  0  0  0  0
  -24.7830  -13.2930   20.6720 C   0  0  0  0  0  0  0  0  0  0  0  0
  -25.0950  -11.9020   20.5890 C   0  0  0  0  0  0  0  0  0  0  0  0
  -26.8520  -12.9750   19.9930 N   0  0  0  0  0  0  0  0  0  0  0  0
  -26.3610  -11.7340   20.2320 N   0  0  0  0  0  0  0  0  0  0  0  0
  -24.2470  -10.7170   20.7760 C   0  0  0  0  0  0  0  0  0  0  0  0
  -24.5970   -9.6960   21.6860 C   0  0  0  0  0  3  0  0  0  0  0  0
  -23.7570   -8.5740   21.8610 C   0  0  0  0  0  3  0  0  0  0  0  0
  -22.5520   -8.4680   21.1250 C   0  0  0  0  0  0  0  0  0  0  0  0
  -22.2210   -9.4770   20.2030 C   0  0  0  0  0  3  0  0  0  0  0  0
  -23.0610  -10.5900   20.0270 C   0  0  0  0  0  3  0  0  0  0  0  0
  -21.6880   -7.4040   21.2090 O   0  0  0  0  0  0  0  0  0  0  0  0
  -21.5720   -6.6610   22.3560 C   0  0  0  0  0  0  0  0  0  0  0  0
  -21.2180   -7.2470   23.5910 C   0  0  0  0  0  3  0  0  0  0  0  0
  -21.0420   -6.4360   24.7310 C   0  0  0  0  0  3  0  0  0  0  0  0
  -21.2110   -5.0410   24.6360 C   0  0  0  0  0  0  0  0  0  0  0  0
  -21.5580   -4.4560   23.4060 C   0  0  0  0  0  3  0  0  0  0  0  0
  -21.7360   -5.2640   22.2690 C   0  0  0  0  0  0  0  0  0  0  0  0
  -22.0500   -4.6920   21.0810 F   0  0  0  0  0  0  0  0  0  0  0  0
  -21.0340   -4.2620   25.7280 F   0  0  0  0  0  0  0  0  0  0  0  0
  -23.4540  -13.9070   21.0090 C   0  0  0  0  0  0  0  0  0  0  0  0
  -22.7020  -13.2850   21.9100 N   0  0  0  0  0  0  0  0  0  0  0  0
  -23.0950  -14.9720   20.5070 O   0  0  0  0  0  0  0  0  0  0  0  0
  -23.0030  -12.4230   22.3380 H   0  0  0  0  0  0  0  0  0  0  0  0
  -21.8110  -13.6800   22.1770 H   0  0  0  0  0  0  0  0  0  0  0  0
  -26.2210  -15.3070   20.1310 N   0  0  0  0  0  0  0  0  0  0  0  0
  -25.5320  -16.0360   20.2810 H   0  0  0  0  0  0  0  0  0  0  0  0
  -27.0940  -15.6550   19.7550 H   0  0  0  0  0  0  0  0  0  0  0  0
  -31.4050  -18.9080   21.3380 C   0  0  0  0  0  1  0  0  0  0  0  0
  -31.9360  -16.7990   22.4980 C   0  0  0  0  0  1  0  0  0  0  0  0
  -29.5400  -17.4740   22.2450 C   0  0  0  0  0  1  0  0  0  0  0  0
  -30.9140  -17.4520   21.5340 C   0  0  2  0  0  0  0  0  0  0  0  0
  2  3  1  0
  2  1  1  0
  4  3  1  0
  4  5  1  0
  5  6  1  0
  6  7  1  0
  7  8  1  0
  9  8  1  0
 10  9  1  0
 11 22  2  0
 12 10  1  0
 12 17  1  0
 13 21  1  0
 13 23  1  0
 14 20  1  0
 14 16  1  0
 15 21  1  0
 16 17  2  0
 16 15  1  0
 18 12  2  0
 19 18  1  0
 19 14  2  0
 20 13  1  0
 21 11  1  0
 23 25  2  0
 24 23  1  0
 26 24  1  0
 27 36  2  0
 27 32  1  0
 28 24  1  0
 28 32  1  0
 29 28  1  0
 30 31  1  0
 30 29  1  0
 31 27  1  0
 32 33  2  0
 33 34  1  0
 35 34  2  0
 36 35  1  0
 37 11  1  0
 37 38  1  0
 37 47  1  0
 38 41  1  0
 39 43  1  0
 39 38  1  0
 40 39  2  0
 43 42  1  0
 45 43  1  0
 45 46  1  0
 45 44  1  0
 47 50  1  1
 47 48  1  0
 49 47  1  0
 51  1  1  0
 51 52  1  0
 52 54  1  0
 53 54  1  0
 54 56  1  0
 55 53  2  0
 57 53  1  0
 57 66  1  0
 57 99  1  0
 58 66  1  0
 59 64  1  0
 60 61  1  0
 60 59  1  0
 62 61  1  0
 62 71  1  0
 62 63  1  0
 64 58  1  0
 64 63  1  0
 65 58  2  0
 66 67  1  0
 68 69  2  0
 69 88  1  0
 70 69  1  0
 70 73  1  0
 71 72  1  0
 71 68  1  0
 72 70  2  0
 73 74  1  0
 74 75  2  0
 76 79  1  0
 76 75  1  0
 77 76  2  0
 78 77  1  0
 78 73  2  0
 79 80  1  0
 80 81  1  0
 81 82  2  0
 83 82  1  0
 83 87  1  0
 84 83  2  0
 85 80  2  0
 85 84  1  0
 86 85  1  0
 88 89  1  0
 89 92  1  0
 89 91  1  0
 90 88  2  0
 93 94  1  0
 93 68  1  0
 95 93  1  0
 99 96  1  6
 99 98  1  0
 99 97  1  0
M  ISO  4   9 101  10 101  58 100  66 100
M  END
>  <TORSDO>  (96) 
F 29

>  <SCORE>  (96) 
-8.447

>  <name>  (96) 
97

>  <ligand_id>  (96) 
97

>  <original_smiles>  (96) 
[H]c1c([H])c([H])c2c(c1[H])C([H])([H])C([H])([H])C([H])([H])C2([H])N([H])C(=O)C1([H])N(C(=O)C([H])(N([H])C(=O)C([H])(N([H])C([H])([H])[H])C([H])([H])[H])C(C([H])([H])[H])(C([H])([H])[H])C([H])([H])[H])C([H])([H])c2c([H])c(OC([H])([H])C([H])([H])OC([H])([H])C([H])([H])OC([H])([H])C([H])([H])OC([H])([H])C([H])([H])N([H])C(=O)C([H])(N([H])C(=O)N3C([H])([H])C([H])([H])C([H])([H])C([H])(n4nc(-c5c([H])c([H])c(Oc6c([H])c([H])c(F)c([H])c6F)c([H])c5[H])c(C(=O)N([H])[H])c4N([H])[H])C3([H])[H])C(C([H])([H])[H])(C([H])([H])[H])C([H])([H])[H])c([H])c([H])c2C1([H])[H]

>  <smiles>  (96) 
[H]c1c([H])c([H])c2c(c1[H])C([H])([H])C([H])([H])C([H])([H])C2([H])N([H])C(=O)C1([H])N(C(=O)C([H])(N([H])C(=O)C([H])(N([H])C([H])([H])[H])C([H])([H])[H])C(C([H])([H])[H])(C([H])([H])[H])C([H])([H])[H])C([H])([H])c2c([H])c(OC([H])([H])C([H])([H])OC([H])([H])C([H])([H])OC([H])([H])C([H])([H])OC([H])([H])C([H])([H])N([H])C(=O)C([H])(N([H])C(=O)N3C([H])([H])C([H])([H])C([H])([H])C([H])(n4nc(-c5c([H])c([H])c(Oc6c([H])c([H])c(F)c([H])c6F)c([H])c5[H])c(C(=O)N([H])[H])c4N([H])[H])C3([H])[H])C(C([H])([H])[H])(C([H])([H])[H])C([H])([H])[H])c([H])c([H])c2C1([H])[H]

$$$$
98:0:0
     RDKit          3D

 97104  0  0  1  0  0  0  0  0999 V2000
  -27.6420  -12.7730   23.4250 C   0  0  0  0  0  2  0  0  0  0  0  0
  -28.2150  -10.9300   23.7740 C   0  0  0  0  0  2  0  0  0  0  0  0
  -28.2090   -8.9030   21.3170 C   0  0  0  0  0  0  0  0  0  0  0  0
  -28.1490   -9.3980   22.7970 N   0  0  0  0  0  0  0  0  0  0  0  0
  -27.8630   -7.7280   21.2330 O   0  0  0  0  0  0  0  0  0  0  0  0
  -27.8820   -8.6260   23.3950 H   0  0  0  0  0  0  0  0  0  0  0  0
  -28.9370   -9.6540   19.7280 C   0  0  0  0  0  0  0  0  0  0  0  0
  -31.2640  -11.7910   19.6090 C   0  0  0  0  0  0  0  0  0  0  0  0
  -32.0220  -11.3530   21.6520 C   0  0  0  0  0  2  0  0  0  0  0  0
  -31.2970  -10.0540   21.5990 C   0  0  0  0  0  2  0  0  0  0  0  0
  -29.9340  -10.6690   21.8870 C   0  0  0  0  0  2  0  0  0  0  0  0
  -28.8520  -11.8970   20.9470 C   0  0  0  0  0  3  0  0  0  0  0  0
  -29.9940  -12.8890   21.2500 C   0  0  0  0  0  2  0  0  0  0  0  0
  -31.2390  -12.2860   20.8290 N   0  0  0  0  0  0  0  0  0  0  0  0
  -32.3170  -12.2100   19.0990 O   0  0  0  0  0  0  0  0  0  0  0  0
  -30.2920  -10.6830   19.1980 N   0  0  0  0  0  4  0  0  0  0  0  0
  -30.5640  -10.3650   18.2800 H   0  0  0  0  0  0  0  0  0  0  0  0
  -26.1930  -12.8770   20.2470 C   0  0  0  0  0  0  0  0  0  0  0  0
  -24.9240  -12.2890   20.4570 C   0  0  0  0  0  0  0  0  0  0  0  0
  -25.1060  -10.9840   20.8770 C   0  0  0  0  0  0  0  0  0  0  0  0
  -27.1690  -12.0330   20.7660 N   0  0  0  0  0  0  0  0  0  0  0  0
  -26.2090  -11.2180   21.3340 N   0  0  0  0  0  0  0  0  0  0  0  0
  -24.3620   -9.7350   21.2630 C   0  0  0  0  0  0  0  0  0  0  0  0
  -24.3510   -9.1390   22.5590 C   0  0  0  0  0  3  0  0  0  0  0  0
  -23.6090   -7.9600   22.8330 C   0  0  0  0  0  3  0  0  0  0  0  0
  -22.8320   -7.3730   21.8100 C   0  0  0  0  0  0  0  0  0  0  0  0
  -22.8690   -7.9440   20.5250 C   0  0  0  0  0  3  0  0  0  0  0  0
  -23.6360   -9.0930   20.2510 C   0  0  0  0  0  3  0  0  0  0  0  0
  -22.0360   -6.2570   21.9650 O   0  0  0  0  0  0  0  0  0  0  0  0
  -21.2140   -6.0710   23.0490 C   0  0  0  0  0  0  0  0  0  0  0  0
  -20.2660   -7.0370   23.4550 C   0  0  0  0  0  3  0  0  0  0  0  0
  -19.3970   -6.7690   24.5330 C   0  0  0  0  0  3  0  0  0  0  0  0
  -19.4620   -5.5310   25.2010 C   0  0  0  0  0  0  0  0  0  0  0  0
  -20.3960   -4.5630   24.7910 C   0  0  0  0  0  3  0  0  0  0  0  0
  -21.2630   -4.8290   23.7200 C   0  0  0  0  0  0  0  0  0  0  0  0
  -22.1420   -3.8770   23.3180 F   0  0  0  0  0  0  0  0  0  0  0  0
  -18.6230   -5.2720   26.2290 F   0  0  0  0  0  0  0  0  0  0  0  0
  -23.5680  -12.8470   20.3370 C   0  0  0  0  0  0  0  0  0  0  0  0
  -22.6560  -12.3810   21.1940 N   0  0  0  0  0  0  0  0  0  0  0  0
  -23.3230  -13.7200   19.5250 O   0  0  0  0  0  0  0  0  0  0  0  0
  -22.9040  -11.6980   21.8900 H   0  0  0  0  0  0  0  0  0  0  0  0
  -21.7150  -12.7370   21.1590 H   0  0  0  0  0  0  0  0  0  0  0  0
  -26.5690  -14.0680   19.6870 N   0  0  0  0  0  0  0  0  0  0  0  0
  -25.8670  -14.6640   19.2680 H   0  0  0  0  0  0  0  0  0  0  0  0
  -27.5220  -14.3490   19.4930 H   0  0  0  0  0  0  0  0  0  0  0  0
  -27.6160  -11.1800   18.0190 C   0  0  0  0  0  1  0  0  0  0  0  0
  -26.5170   -9.1010   18.6570 C   0  0  0  0  0  1  0  0  0  0  0  0
  -28.5250   -8.9960   17.2550 C   0  0  0  0  0  1  0  0  0  0  0  0
  -27.9210   -9.7310   18.4790 C   0  0  2  0  0  0  0  0  0  0  0  0
  -28.0340  -14.0940   22.4010 O   0  0  0  0  0  0  0  0  0  0  0  0
  -27.6420  -15.0780   21.0880 C   0  0  0  0  0  2  0  0  0  0  0  0
  -28.5330  -16.2360   19.9300 C   0  0  0  0  0  2  0  0  0  0  0  0
  -28.4310  -16.8270   18.3540 O   0  0  0  0  0  0  0  0  0  0  0  0
  -28.9650  -18.1690   17.4880 C   0  0  0  0  0  3  0  0  0  0  0  0
  -29.4370  -18.5950   15.7390 C   0  0  0  0  0  3  0  0  0  0  0  0
  -29.8090  -20.1190   14.7380 C   0  0  0  0  0  2  0  0  0  0  0  0
  -30.6190  -20.6490   13.3420 O   0  0  0  0  0  0  0  0  0  0  0  0
  -29.4880  -27.3160   10.0680 C   0  0  0  0  0  0  0  0  0  0  0  0
  -30.1140  -21.5060   12.2230 C   0  0  0  0  0  0  0  0  0  0  0  0
  -27.7780  -25.5570    9.8900 C   0  0  0  0  0  3  0  0  0  0  0  0
  -28.5570  -23.1320   10.3160 C   0  0  0  0  0  0  0  0  0  0  0  0
  -30.2660  -24.8930    9.9660 C   0  0  0  0  0  2  0  0  0  0  0  0
  -29.8620  -23.5380   10.6200 C   0  0  0  0  0  0  0  0  0  0  0  0
  -30.6560  -22.7060   11.5310 C   0  0  0  0  0  3  0  0  0  0  0  0
  -28.8680  -21.1200   11.6990 C   0  0  0  0  0  3  0  0  0  0  0  0
  -28.1020  -21.8970   10.7980 C   0  0  0  0  0  3  0  0  0  0  0  0
  -27.6590  -24.0590    9.4970 C   0  0  0  0  0  2  0  0  0  0  0  0
  -29.2130  -25.9740    9.9900 N   0  0  0  0  0  0  0  0  0  0  0  0
  -28.5860  -28.1680   10.0610 O   0  0  0  0  0  0  0  0  0  0  0  0
  -26.9740  -25.8370   11.1870 C   0  0  0  0  0  0  0  0  0  0  0  0
  -25.6600  -26.1020   11.0640 N   0  0  0  0  0  0  0  0  0  0  0  0
  -27.5350  -25.8030   12.2840 O   0  0  0  0  0  0  0  0  0  0  0  0
  -25.2630  -26.1360   10.1350 H   0  0  0  0  0  0  0  0  0  0  0  0
  -22.2270  -26.9380   11.8850 C   0  0  0  0  0  0  0  0  0  0  0  0
  -24.7260  -26.3360   12.1720 C   0  0  0  0  0  3  0  0  0  0  0  0
  -24.2260  -25.0000   12.7700 C   0  0  0  0  0  2  0  0  0  0  0  0
  -22.9120  -24.5170   12.1500 C   0  0  0  0  0  2  0  0  0  0  0  0
  -21.8060  -25.5560   12.3560 C   0  0  0  0  0  2  0  0  0  0  0  0
  -23.5970  -27.3000   11.7840 C   0  0  0  0  0  0  0  0  0  0  0  0
  -23.9320  -28.5880   11.3130 C   0  0  0  0  0  3  0  0  0  0  0  0
  -22.9290  -29.5040   10.9450 C   0  0  0  0  0  3  0  0  0  0  0  0
  -21.5750  -29.1460   11.0590 C   0  0  0  0  0  3  0  0  0  0  0  0
  -21.2270  -27.8690   11.5330 C   0  0  0  0  0  3  0  0  0  0  0  0
  -30.9520  -27.8440   10.1460 C   0  0  0  0  0  3  0  0  0  0  0  0
  -31.1030  -28.9170    9.1450 N   0  0  0  0  0  0  0  0  0  0  0  0
  -31.6400  -28.7610    7.9270 C   0  0  0  0  0  0  0  0  0  0  0  0
  -32.1210  -27.6920    7.5450 O   0  0  0  0  0  0  0  0  0  0  0  0
  -30.6880  -29.8080    9.3740 H   0  0  0  0  0  0  0  0  0  0  0  0
  -30.4920  -29.8670    5.9780 C   0  0  0  0  0  1  0  0  0  0  0  0
  -31.6480  -29.9830    6.9840 C   0  0  0  0  0  3  0  0  0  0  0  0
  -34.0380  -30.5380    7.1170 C   0  0  0  0  0  1  0  0  0  0  0  0
  -32.9240  -30.1540    6.2540 N   0  0  0  0  0  0  0  0  0  0  0  0
  -32.8310  -30.8560    5.5270 H   0  0  0  0  0  0  0  0  0  0  0  0
  -31.3390  -28.3790   11.5810 C   0  0  1  0  0  0  0  0  0  0  0  0
  -30.3570  -29.4320   12.1400 C   0  0  0  0  0  1  0  0  0  0  0  0
  -31.4120  -27.2210   12.6020 C   0  0  0  0  0  1  0  0  0  0  0  0
  -32.7460  -29.0180   11.5390 C   0  0  0  0  0  1  0  0  0  0  0  0
  1  2  1  0
  3  4  1  0
  4  6  1  0
  4  2  1  0
  5  3  2  0
  7  3  1  0
  8 14  1  0
 10  9  1  0
 10 11  1  0
 12 21  1  0
 12 13  1  0
 12 11  1  0
 14 13  1  0
 14  9  1  0
 15  8  2  0
 16  8  1  0
 16  7  2  0
 17 16  1  0
 18 19  2  0
 18 21  1  0
 19 20  1  0
 20 23  1  0
 20 22  2  0
 21 22  1  0
 23 24  1  0
 24 25  2  0
 26 29  1  0
 26 25  1  0
 27 26  2  0
 28 27  1  0
 28 23  2  0
 29 30  1  0
 30 31  2  0
 30 35  1  0
 31 32  1  0
 32 33  2  0
 33 37  1  0
 34 33  1  0
 35 34  2  0
 36 35  1  0
 38 19  1  0
 38 39  1  0
 39 41  1  0
 40 38  2  0
 42 39  1  0
 43 18  1  0
 44 43  1  0
 45 43  1  0
 49 46  1  6
 48 49  1  0
 49 47  1  0
 49  7  1  0
 50  1  1  0
 51 50  1  0
 52 51  1  0
 53 52  1  0
 54 53  1  0
 55 54  2  0
 56 55  1  0
 57 56  1  0
 59 57  1  0
 60 68  1  0
 60 70  1  0
 61 63  2  0
 61 66  1  0
 62 68  1  0
 62 63  1  0
 63 64  1  0
 64 59  2  0
 65 59  1  0
 66 65  2  0
 67 60  1  0
 67 61  1  0
 68 58  1  0
 69 58  2  0
 70 72  2  0
 71 70  1  0
 73 71  1  0
 74 78  1  0
 75 71  1  0
 75 76  1  0
 77 78  1  0
 77 76  1  0
 79 74  1  0
 79 75  1  0
 80 79  2  0
 81 82  2  0
 81 80  1  0
 82 83  1  0
 83 74  2  0
 84 58  1  0
 84 94  1  0
 85 88  1  0
 85 84  1  0
 86 85  1  0
 87 86  2  0
 90 89  1  0
 90 86  1  0
 92 90  1  0
 92 91  1  0
 93 92  1  0
 94 95  1  1
 94 96  1  0
 97 94  1  0
M  ISO  4   8 100  16 100  56 101  57 101
M  END
>  <TORSDO>  (97) 
F 27

>  <SCORE>  (97) 
1.113

>  <name>  (97) 
98

>  <ligand_id>  (97) 
98

>  <original_smiles>  (97) 
[H]c1c([H])c([H])c2c(c1[H])C([H])([H])C([H])([H])C([H])([H])C2([H])N([H])C(=O)C1([H])N(C(=O)C([H])(N([H])C(=O)C([H])(N([H])C([H])([H])[H])C([H])([H])[H])C(C([H])([H])[H])(C([H])([H])[H])C([H])([H])[H])C([H])([H])c2c([H])c(OC([H])([H])C([H])([H])C([H])([H])OC([H])([H])C([H])([H])OC([H])([H])C([H])([H])N([H])C(=O)C([H])(N([H])C(=O)N3C([H])([H])C([H])([H])C([H])([H])C([H])(n4nc(-c5c([H])c([H])c(Oc6c([H])c([H])c(F)c([H])c6F)c([H])c5[H])c(C(=O)N([H])[H])c4N([H])[H])C3([H])[H])C(C([H])([H])[H])(C([H])([H])[H])C([H])([H])[H])c([H])c([H])c2C1([H])[H]

>  <smiles>  (97) 
[H]c1c([H])c([H])c2c(c1[H])C([H])([H])C([H])([H])C([H])([H])C2([H])N([H])C(=O)C1([H])N(C(=O)C([H])(N([H])C(=O)C([H])(N([H])C([H])([H])[H])C([H])([H])[H])C(C([H])([H])[H])(C([H])([H])[H])C([H])([H])[H])C([H])([H])c2c([H])c(OC([H])([H])C([H])([H])C([H])([H])OC([H])([H])C([H])([H])OC([H])([H])C([H])([H])N([H])C(=O)C([H])(N([H])C(=O)N3C([H])([H])C([H])([H])C([H])([H])C([H])(n4nc(-c5c([H])c([H])c(Oc6c([H])c([H])c(F)c([H])c6F)c([H])c5[H])c(C(=O)N([H])[H])c4N([H])[H])C3([H])[H])C(C([H])([H])[H])(C([H])([H])[H])C([H])([H])[H])c([H])c([H])c2C1([H])[H]

$$$$
