0:0:0
     RDKit          3D

101108  0  0  1  0  0  0  0  0999 V2000
  -32.9270  -21.3390   24.1710 C   0  0  0  0  0  0  0  0  0  0  0  0
  -31.8290  -21.9650   23.7190 N   0  0  0  0  0  0  0  0  0  0  0  0
  -33.0310  -20.8710   25.3080 O   0  0  0  0  0  0  0  0  0  0  0  0
  -31.8640  -22.3240   22.7740 H   0  0  0  0  0  0  0  0  0  0  0  0
  -34.0970  -21.2190   23.1500 C   0  0  0  0  0  0  0  0  0  0  0  0
  -33.7260  -21.0690   21.8750 N   0  0  0  0  0  0  0  0  0  0  0  0
  -35.2750  -21.2120   23.5280 O   0  0  0  0  0  0  0  0  0  0  0  0
  -32.7360  -21.0090   21.6730 H   0  0  0  0  0  0  0  0  0  0  0  0
  -34.6160  -20.7210   20.7770 C   0  0  0  0  0  2  0  0  0  0  0  0
  -33.8590  -20.8150   19.4450 C   0  0  0  0  0  2  0  0  0  0  0  0
  -32.4560  -20.8690   19.7080 O   0  0  0  0  0  0  0  0  0  0  0  0
  -31.6470  -20.5920   18.5700 C   0  0  0  0  0  2  0  0  0  0  0  0
  -30.6480  -19.4690   18.9090 C   0  0  0  0  0  2  0  0  0  0  0  0
  -31.4040  -18.2900   19.1200 O   0  0  0  0  0  0  0  0  0  0  0  0
  -31.0530  -17.5150   20.2590 C   0  0  0  0  0  2  0  0  0  0  0  0
  -32.0450  -16.3400   20.2380 C   0  0  0  0  0  2  0  0  0  0  0  0
  -32.2300  -13.9300   20.6150 C   0  0  0  0  0  0  0  0  0  0  0  0
  -31.7900  -11.6390   19.8380 C   0  0  0  0  0  2  0  0  0  0  0  0
  -30.9210  -11.7010   18.5650 C   0  0  0  0  0  2  0  0  0  0  0  0
  -29.4220  -11.7930   18.9190 C   0  0  0  0  0  2  0  0  0  0  0  0
  -29.1230  -12.8660   20.0070 C   0  0  0  0  0  3  0  0  0  0  0  0
  -30.0980  -12.7280   21.1980 C   0  0  0  0  0  2  0  0  0  0  0  0
  -31.4670  -12.8070   20.6710 N   0  0  0  0  0  0  0  0  0  0  0  0
  -33.3910  -13.9370   20.1950 O   0  0  0  0  0  0  0  0  0  0  0  0
  -31.5670  -15.0810   20.8180 N   0  0  0  0  0  0  0  0  0  0  0  0
  -30.6090  -15.0310   21.1350 H   0  0  0  0  0  0  0  0  0  0  0  0
  -26.8620  -13.8380   20.7520 C   0  0  0  0  0  0  0  0  0  0  0  0
  -25.6690  -13.2390   21.0610 C   0  0  0  0  0  0  0  0  0  0  0  0
  -25.8890  -11.8340   20.9320 C   0  0  0  0  0  0  0  0  0  0  0  0
  -27.7370  -12.8070   20.4560 N   0  0  0  0  0  0  0  0  0  0  0  0
  -27.1560  -11.5930   20.6230 N   0  0  0  0  0  0  0  0  0  0  0  0
  -24.9510  -10.7050   21.0250 C   0  0  0  0  0  0  0  0  0  0  0  0
  -25.1650   -9.6480   21.9340 C   0  0  0  0  0  3  0  0  0  0  0  0
  -24.2480   -8.5790   22.0140 C   0  0  0  0  0  3  0  0  0  0  0  0
  -23.0990   -8.5650   21.1880 C   0  0  0  0  0  0  0  0  0  0  0  0
  -22.9060   -9.6060   20.2620 C   0  0  0  0  0  3  0  0  0  0  0  0
  -23.8230  -10.6670   20.1800 C   0  0  0  0  0  3  0  0  0  0  0  0
  -22.1680   -7.5560   21.1830 O   0  0  0  0  0  0  0  0  0  0  0  0
  -21.8490   -6.8650   22.3230 C   0  0  0  0  0  0  0  0  0  0  0  0
  -21.3440   -7.5090   23.4740 C   0  0  0  0  0  3  0  0  0  0  0  0
  -20.9670   -6.7480   24.5980 C   0  0  0  0  0  3  0  0  0  0  0  0
  -21.0820   -5.3430   24.5720 C   0  0  0  0  0  0  0  0  0  0  0  0
  -21.5780   -4.7020   23.4240 C   0  0  0  0  0  3  0  0  0  0  0  0
  -21.9580   -5.4600   22.3030 C   0  0  0  0  0  0  0  0  0  0  0  0
  -22.4160   -4.8360   21.1910 F   0  0  0  0  0  0  0  0  0  0  0  0
  -20.7130   -4.6070   25.6440 F   0  0  0  0  0  0  0  0  0  0  0  0
  -24.3700  -13.9290   21.3670 C   0  0  0  0  0  0  0  0  0  0  0  0
  -23.5230  -13.3080   22.1830 N   0  0  0  0  0  0  0  0  0  0  0  0
  -24.1180  -15.0430   20.9110 O   0  0  0  0  0  0  0  0  0  0  0  0
  -23.7370  -12.3990   22.5690 H   0  0  0  0  0  0  0  0  0  0  0  0
  -22.6420  -13.7410   22.4210 H   0  0  0  0  0  0  0  0  0  0  0  0
  -27.2710  -15.1680   20.6710 N   0  0  0  0  0  0  0  0  0  0  0  0
  -26.6340  -15.9400   20.8180 H   0  0  0  0  0  0  0  0  0  0  0  0
  -28.1810  -15.4600   20.3430 H   0  0  0  0  0  0  0  0  0  0  0  0
  -30.5680  -22.1020   24.4390 C   0  0  0  0  0  2  0  0  0  0  0  0
  -29.4110  -21.5420   23.5970 C   0  0  0  0  0  2  0  0  0  0  0  0
  -29.3610  -22.2480   22.3620 O   0  0  0  0  0  0  0  0  0  0  0  0
  -28.0970  -22.1510   21.7220 C   0  0  0  0  0  2  0  0  0  0  0  0
  -28.0850  -23.0070   20.4460 C   0  0  0  0  0  2  0  0  0  0  0  0
  -26.6740  -23.5130   20.1240 C   0  0  0  0  0  2  0  0  0  0  0  0
  -26.6910  -24.4070   19.0120 O   0  0  0  0  0  0  0  0  0  0  0  0
  -24.8860  -29.7200   23.3500 C   0  0  0  0  0  0  0  0  0  0  0  0
  -25.8690  -25.4800   19.2220 C   0  0  0  0  0  0  0  0  0  0  0  0
  -23.2760  -29.2110   21.5390 C   0  0  0  0  0  3  0  0  0  0  0  0
  -24.1190  -27.6270   19.7220 C   0  0  0  0  0  0  0  0  0  0  0  0
  -25.7710  -28.7420   21.2400 C   0  0  0  0  0  2  0  0  0  0  0  0
  -25.3840  -27.6020   20.3230 C   0  0  0  0  0  0  0  0  0  0  0  0
  -26.2640  -26.5300   20.0770 C   0  0  0  0  0  3  0  0  0  0  0  0
  -24.6010  -25.5170   18.6110 C   0  0  0  0  0  3  0  0  0  0  0  0
  -23.7180  -26.5860   18.8650 C   0  0  0  0  0  3  0  0  0  0  0  0
  -23.2400  -28.8170   20.0370 C   0  0  0  0  0  2  0  0  0  0  0  0
  -24.6660  -29.2170   22.1040 N   0  0  0  0  0  0  0  0  0  0  0  0
  -23.9640  -30.2150   24.0130 O   0  0  0  0  0  0  0  0  0  0  0  0
  -22.3100  -28.2860   22.3100 C   0  0  0  0  0  0  0  0  0  0  0  0
  -20.9990  -28.5460   22.1730 N   0  0  0  0  0  0  0  0  0  0  0  0
  -22.7350  -27.3450   22.9850 O   0  0  0  0  0  0  0  0  0  0  0  0
  -20.7320  -29.3360   21.6010 H   0  0  0  0  0  0  0  0  0  0  0  0
  -17.4040  -28.3220   22.4050 C   0  0  0  0  0  0  0  0  0  0  0  0
  -19.9050  -27.7850   22.7700 C   0  0  0  0  0  3  0  0  0  0  0  0
  -19.6390  -26.4840   21.9780 C   0  0  0  0  0  2  0  0  0  0  0  0
  -18.5590  -26.6430   20.9030 C   0  0  0  0  0  2  0  0  0  0  0  0
  -17.2350  -27.0890   21.5320 C   0  0  0  0  0  2  0  0  0  0  0  0
  -18.6620  -28.6570   22.9730 C   0  0  0  0  0  0  0  0  0  0  0  0
  -18.7740  -29.8320   23.7460 C   0  0  0  0  0  3  0  0  0  0  0  0
  -17.6570  -30.6620   23.9610 C   0  0  0  0  0  3  0  0  0  0  0  0
  -16.4100  -30.3160   23.4120 C   0  0  0  0  0  3  0  0  0  0  0  0
  -16.2840  -29.1480   22.6400 C   0  0  0  0  0  3  0  0  0  0  0  0
  -26.3090  -29.7200   23.9940 C   0  0  0  0  0  3  0  0  0  0  0  0
  -26.5290  -28.5380   25.0150 C   0  0  1  0  0  0  0  0  0  0  0  0
  -25.4170  -28.4250   26.0840 C   0  0  0  0  0  1  0  0  0  0  0  0
  -26.6100  -27.1830   24.2740 C   0  0  0  0  0  1  0  0  0  0  0  0
  -27.8790  -28.7220   25.7470 C   0  0  0  0  0  1  0  0  0  0  0  0
  -26.4940  -31.0190   24.6520 N   0  0  0  0  0  0  0  0  0  0  0  0
  -27.2080  -32.0340   24.1440 C   0  0  0  0  0  0  0  0  0  0  0  0
  -27.8440  -31.9440   23.0900 O   0  0  0  0  0  0  0  0  0  0  0  0
  -25.9590  -31.1830   25.4920 H   0  0  0  0  0  0  0  0  0  0  0  0
  -26.2470  -34.3530   24.2680 C   0  0  0  0  0  1  0  0  0  0  0  0
  -27.2150  -33.3590   24.9290 C   0  0  0  0  0  3  0  0  0  0  0  0
  -29.4670  -33.2100   25.8960 C   0  0  0  0  0  1  0  0  0  0  0  0
  -28.5580  -33.9690   25.0400 N   0  0  0  0  0  0  0  0  0  0  0  0
  -28.4950  -34.9150   25.4060 H   0  0  0  0  0  0  0  0  0  0  0  0
  1  3  2  0
  2  1  1  0
  2 55  1  0
  4  2  1  0
  5  7  2  0
  5  1  1  0
  6  5  1  0
  8  6  1  0
  9  6  1  0
 10 11  1  0
 10  9  1  0
 12 13  1  0
 12 11  1  0
 13 14  1  0
 14 15  1  0
 16 15  1  0
 16 25  1  0
 17 23  1  0
 17 25  1  0
 18 23  1  0
 19 20  1  0
 19 18  1  0
 21 20  1  0
 21 30  1  0
 21 22  1  0
 23 22  1  0
 24 17  2  0
 25 26  1  0
 27 28  2  0
 28 47  1  0
 29 32  1  0
 29 28  1  0
 30 31  1  0
 30 27  1  0
 31 29  2  0
 32 33  1  0
 33 34  2  0
 35 34  1  0
 36 35  2  0
 37 36  1  0
 37 32  2  0
 38 35  1  0
 38 39  1  0
 39 40  1  0
 40 41  2  0
 42 41  1  0
 42 46  1  0
 43 42  2  0
 44 39  2  0
 44 43  1  0
 45 44  1  0
 47 48  1  0
 48 51  1  0
 48 50  1  0
 49 47  2  0
 52 27  1  0
 52 53  1  0
 54 52  1  0
 56 55  1  0
 57 56  1  0
 58 57  1  0
 59 58  1  0
 60 59  1  0
 61 63  1  0
 61 60  1  0
 62 73  2  0
 63 68  1  0
 64 72  1  0
 64 74  1  0
 65 71  1  0
 65 67  1  0
 66 72  1  0
 67 66  1  0
 68 67  2  0
 69 70  1  0
 69 63  2  0
 70 65  2  0
 71 64  1  0
 72 62  1  0
 74 76  2  0
 75 74  1  0
 77 75  1  0
 78 87  2  0
 78 83  1  0
 79 75  1  0
 79 83  1  0
 80 79  1  0
 81 82  1  0
 81 80  1  0
 82 78  1  0
 83 84  2  0
 84 85  1  0
 86 85  2  0
 87 86  1  0
 88 62  1  0
 88 93  1  0
 88 89  1  0
 89 92  1  1
 89 90  1  0
 91 89  1  0
 93 96  1  0
 94 93  1  0
 94 98  1  0
 95 94  2  0
 98 97  1  0
 98100  1  0
100101  1  0
100 99  1  0
M  ISO  4  17 100  25 100  60 101  61 101
M  END
>  <TORSDO>  (1) 
F 31

>  <SCORE>  (1) 
-6.325

>  <name>  (1) 
0

>  <ligand_id>  (1) 
0

>  <original_smiles>  (1) 
[H]c1c([H])c([H])c2c(c1[H])C([H])([H])C([H])([H])C([H])([H])C2([H])N([H])C(=O)C1([H])N(C(=O)C([H])(N([H])C(=O)C([H])(N([H])C([H])([H])[H])C([H])([H])[H])C(C([H])([H])[H])(C([H])([H])[H])C([H])([H])[H])C([H])([H])c2c([H])c(OC([H])([H])C([H])([H])C([H])([H])OC([H])([H])C([H])([H])N([H])C(=O)C(=O)N([H])C([H])([H])C([H])([H])OC([H])([H])C([H])([H])OC([H])([H])C([H])([H])N([H])C(=O)N3C([H])([H])C([H])([H])C([H])([H])C([H])(n4nc(-c5c([H])c([H])c(Oc6c([H])c([H])c(F)c([H])c6F)c([H])c5[H])c(C(=O)N([H])[H])c4N([H])[H])C3([H])[H])c([H])c([H])c2C1([H])[H]

>  <smiles>  (1) 
[H]c1c([H])c([H])c2c(c1[H])C([H])([H])C([H])([H])C([H])([H])C2([H])N([H])C(=O)C1([H])N(C(=O)C([H])(N([H])C(=O)C([H])(N([H])C([H])([H])[H])C([H])([H])[H])C(C([H])([H])[H])(C([H])([H])[H])C([H])([H])[H])C([H])([H])c2c([H])c(OC([H])([H])C([H])([H])C([H])([H])OC([H])([H])C([H])([H])N([H])C(=O)C(=O)N([H])C([H])([H])C([H])([H])OC([H])([H])C([H])([H])OC([H])([H])C([H])([H])N([H])C(=O)N3C([H])([H])C([H])([H])C([H])([H])C([H])(n4nc(-c5c([H])c([H])c(Oc6c([H])c([H])c(F)c([H])c6F)c([H])c5[H])c(C(=O)N([H])[H])c4N([H])[H])C3([H])[H])c([H])c([H])c2C1([H])[H]

$$$$
1:0:0
     RDKit          3D

102109  0  0  1  0  0  0  0  0999 V2000
  -24.5750  -23.8770   21.7700 N   0  0  0  0  0  4  0  0  0  0  0  0
  -24.2720  -23.4530   20.8930 H   0  0  0  0  0  0  0  0  0  0  0  0
  -23.7850  -24.4030   22.1520 H   0  0  0  0  0  0  0  0  0  0  0  0
  -24.9110  -22.7730   22.7290 C   0  0  0  0  0  2  0  0  0  0  0  0
  -25.2950  -21.4910   21.9240 C   0  0  0  0  0  2  0  0  0  0  0  0
  -25.6440  -21.9080   20.6000 O   0  0  0  0  0  0  0  0  0  0  0  0
  -26.1350  -20.8340   19.8000 C   0  0  0  0  0  2  0  0  0  0  0  0
  -25.8700  -21.2160   18.3300 C   0  0  0  0  0  2  0  0  0  0  0  0
  -26.9460  -21.9050   17.6950 O   0  0  0  0  0  0  0  0  0  0  0  0
  -27.1800  -21.3990   16.3750 C   0  0  0  0  0  2  0  0  0  0  0  0
  -28.6410  -21.6790   15.8770 C   0  0  0  0  0  2  0  0  0  0  0  0
  -29.6100  -21.6870   16.9480 O   0  0  0  0  0  0  0  0  0  0  0  0
  -30.8690  -22.2430   16.5600 C   0  0  0  0  0  2  0  0  0  0  0  0
  -31.6540  -22.7920   17.7880 C   0  0  0  0  0  2  0  0  0  0  0  0
  -32.9540  -21.1820   19.3310 C   0  0  0  0  0  0  0  0  0  0  0  0
  -33.8090  -19.6040   21.0510 C   0  0  0  0  0  2  0  0  0  0  0  0
  -34.0090  -18.1850   20.4880 C   0  0  0  0  0  2  0  0  0  0  0  0
  -32.7110  -17.3540   20.5480 C   0  0  0  0  0  2  0  0  0  0  0  0
  -31.5080  -18.1550   19.9800 C   0  0  0  0  0  3  0  0  0  0  0  0
  -31.4280  -19.5700   20.5630 C   0  0  0  0  0  2  0  0  0  0  0  0
  -32.7140  -20.2450   20.3050 N   0  0  0  0  0  0  0  0  0  0  0  0
  -34.0860  -21.5270   18.9670 O   0  0  0  0  0  0  0  0  0  0  0  0
  -31.8230  -21.7560   18.8250 N   0  0  0  0  0  0  0  0  0  0  0  0
  -30.9730  -21.3980   19.2430 H   0  0  0  0  0  0  0  0  0  0  0  0
  -28.9750  -17.9190   20.3980 C   0  0  0  0  0  0  0  0  0  0  0  0
  -28.1630  -16.8270   20.4510 C   0  0  0  0  0  0  0  0  0  0  0  0
  -29.0030  -15.6840   20.2410 C   0  0  0  0  0  0  0  0  0  0  0  0
  -30.2560  -17.4300   20.1640 N   0  0  0  0  0  0  0  0  0  0  0  0
  -30.2670  -16.0670   20.1220 N   0  0  0  0  0  0  0  0  0  0  0  0
  -28.6580  -14.2730   20.0760 C   0  0  0  0  0  0  0  0  0  0  0  0
  -28.7280  -13.3820   21.1690 C   0  0  0  0  0  3  0  0  0  0  0  0
  -28.3920  -12.0210   21.0060 C   0  0  0  0  0  3  0  0  0  0  0  0
  -27.9740  -11.5420   19.7430 C   0  0  0  0  0  0  0  0  0  0  0  0
  -27.9120  -12.4340   18.6580 C   0  0  0  0  0  3  0  0  0  0  0  0
  -28.2510  -13.7940   18.8200 C   0  0  0  0  0  3  0  0  0  0  0  0
  -27.6670  -10.2350   19.4790 O   0  0  0  0  0  0  0  0  0  0  0  0
  -26.7480   -9.5330   20.2160 C   0  0  0  0  0  0  0  0  0  0  0  0
  -25.3770   -9.8560   20.2100 C   0  0  0  0  0  3  0  0  0  0  0  0
  -24.4600   -9.0820   20.9430 C   0  0  0  0  0  3  0  0  0  0  0  0
  -24.9160   -7.9810   21.6930 C   0  0  0  0  0  0  0  0  0  0  0  0
  -26.2890   -7.6590   21.7090 C   0  0  0  0  0  3  0  0  0  0  0  0
  -27.2020   -8.4410   20.9780 C   0  0  0  0  0  0  0  0  0  0  0  0
  -28.5160   -8.1060   20.9710 F   0  0  0  0  0  0  0  0  0  0  0  0
  -24.0510   -7.2330   22.4080 F   0  0  0  0  0  0  0  0  0  0  0  0
  -26.6720  -16.8450   20.6030 C   0  0  0  0  0  0  0  0  0  0  0  0
  -26.0870  -15.7950   21.1530 N   0  0  0  0  0  0  0  0  0  0  0  0
  -26.0040  -17.8320   20.2790 O   0  0  0  0  0  0  0  0  0  0  0  0
  -26.6040  -14.9730   21.4300 H   0  0  0  0  0  0  0  0  0  0  0  0
  -25.0870  -15.8120   21.2920 H   0  0  0  0  0  0  0  0  0  0  0  0
  -28.7540  -19.2870   20.4880 N   0  0  0  0  0  0  0  0  0  0  0  0
  -27.8300  -19.6780   20.5370 H   0  0  0  0  0  0  0  0  0  0  0  0
  -29.4900  -19.9690   20.3740 H   0  0  0  0  0  0  0  0  0  0  0  0
  -25.7330  -24.7650   21.4420 C   0  0  0  0  0  2  0  0  0  0  0  0
  -25.8770  -25.0170   19.9080 C   0  0  0  0  0  2  0  0  0  0  0  0
  -27.3100  -25.1260   19.4100 C   0  0  0  0  0  2  0  0  0  0  0  0
  -27.5630  -25.4340   18.0850 O   0  0  0  0  0  0  0  0  0  0  0  0
  -28.9740  -25.6400   17.7270 C   0  0  0  0  0  2  0  0  0  0  0  0
  -30.0580  -24.8500   18.5210 C   0  0  0  0  0  2  0  0  0  0  0  0
  -30.1860  -25.3490   19.8540 O   0  0  0  0  0  0  0  0  0  0  0  0
  -30.6470  -26.7070   19.9530 C   0  0  0  0  0  2  0  0  0  0  0  0
  -29.5340  -27.6600   20.4460 C   0  0  0  0  0  2  0  0  0  0  0  0
  -28.5070  -27.7610   19.4600 O   0  0  0  0  0  0  0  0  0  0  0  0
  -24.7690  -31.8250   23.9770 C   0  0  0  0  0  0  0  0  0  0  0  0
  -27.3510  -28.4470   19.7590 C   0  0  0  0  0  0  0  0  0  0  0  0
  -23.4820  -30.7790   22.1460 C   0  0  0  0  0  3  0  0  0  0  0  0
  -24.8790  -29.7180   20.2910 C   0  0  0  0  0  0  0  0  0  0  0  0
  -25.9400  -31.3730   21.8350 C   0  0  0  0  0  2  0  0  0  0  0  0
  -26.0450  -30.1740   20.8920 C   0  0  0  0  0  0  0  0  0  0  0  0
  -27.2950  -29.5540   20.6480 C   0  0  0  0  0  3  0  0  0  0  0  0
  -26.1800  -28.0310   19.1150 C   0  0  0  0  0  3  0  0  0  0  0  0
  -24.9240  -28.6350   19.3700 C   0  0  0  0  0  3  0  0  0  0  0  0
  -23.5870  -30.4420   20.6280 C   0  0  0  0  0  2  0  0  0  0  0  0
  -24.7540  -31.3210   22.7070 N   0  0  0  0  0  0  0  0  0  0  0  0
  -23.7410  -31.8910   24.6530 O   0  0  0  0  0  0  0  0  0  0  0  0
  -22.9510  -29.5230   22.8880 C   0  0  0  0  0  0  0  0  0  0  0  0
  -21.6950  -29.1620   22.6270 N   0  0  0  0  0  0  0  0  0  0  0  0
  -23.6970  -28.9130   23.6710 O   0  0  0  0  0  0  0  0  0  0  0  0
  -21.1380  -29.7190   21.9930 H   0  0  0  0  0  0  0  0  0  0  0  0
  -18.6790  -27.1810   22.4360 C   0  0  0  0  0  0  0  0  0  0  0  0
  -21.0200  -27.9930   23.1870 C   0  0  0  0  0  3  0  0  0  0  0  0
  -21.5700  -26.6880   22.5630 C   0  0  0  0  0  2  0  0  0  0  0  0
  -20.7570  -26.2160   21.3510 C   0  0  0  0  0  2  0  0  0  0  0  0
  -19.2910  -25.9840   21.7360 C   0  0  0  0  0  2  0  0  0  0  0  0
  -19.5050  -28.1350   23.1210 C   0  0  0  0  0  0  0  0  0  0  0  0
  -18.8900  -29.2520   23.7140 C   0  0  0  0  0  3  0  0  0  0  0  0
  -17.5060  -29.4410   23.6580 C   0  0  0  0  0  3  0  0  0  0  0  0
  -16.6930  -28.4800   23.0080 C   0  0  0  0  0  3  0  0  0  0  0  0
  -17.2910  -27.3570   22.4060 C   0  0  0  0  0  3  0  0  0  0  0  0
  -26.0840  -32.3600   24.6240 C   0  0  0  0  0  3  0  0  0  0  0  0
  -25.8980  -33.8040   24.8930 N   0  0  0  0  0  0  0  0  0  0  0  0
  -26.3730  -34.7790   24.1100 C   0  0  0  0  0  0  0  0  0  0  0  0
  -27.0860  -34.5700   23.1310 O   0  0  0  0  0  0  0  0  0  0  0  0
  -25.2730  -34.0440   25.6500 H   0  0  0  0  0  0  0  0  0  0  0  0
  -24.8600  -36.7040   23.5700 C   0  0  0  0  0  1  0  0  0  0  0  0
  -25.9970  -36.2250   24.4850 C   0  0  0  0  0  3  0  0  0  0  0  0
  -28.1400  -36.9440   25.4580 C   0  0  0  0  0  1  0  0  0  0  0  0
  -27.1410  -37.1640   24.4080 N   0  0  0  0  0  0  0  0  0  0  0  0
  -26.8120  -38.1300   24.4820 H   0  0  0  0  0  0  0  0  0  0  0  0
  -26.4990  -31.5970   25.9520 C   0  0  1  0  0  0  0  0  0  0  0  0
  -25.3500  -31.5010   26.9830 C   0  0  0  0  0  1  0  0  0  0  0  0
  -26.9650  -30.1610   25.6190 C   0  0  0  0  0  1  0  0  0  0  0  0
  -27.7030  -32.3010   26.6210 C   0  0  0  0  0  1  0  0  0  0  0  0
  1  3  1  0
  1  4  1  0
  2  1  1  0
  5  4  1  0
  6  5  1  0
  7  6  1  0
  8  7  1  0
  9  8  1  0
 10  9  1  0
 11 10  1  0
 11 12  1  0
 13 12  1  0
 13 14  1  0
 14 23  1  0
 15 21  1  0
 17 18  1  0
 17 16  1  0
 19 28  1  0
 19 18  1  0
 19 20  1  0
 21 20  1  0
 21 16  1  0
 22 15  2  0
 23 24  1  0
 23 15  1  0
 25 26  2  0
 25 50  1  0
 26 45  1  0
 27 26  1  0
 28 25  1  0
 29 28  1  0
 29 27  2  0
 30 27  1  0
 30 31  1  0
 32 31  2  0
 33 32  1  0
 34 35  1  0
 34 33  2  0
 35 30  2  0
 36 33  1  0
 36 37  1  0
 37 42  1  0
 38 37  2  0
 38 39  1  0
 39 40  2  0
 40 41  1  0
 40 44  1  0
 42 41  2  0
 43 42  1  0
 45 46  1  0
 46 49  1  0
 46 48  1  0
 47 45  2  0
 50 51  1  0
 52 50  1  0
 53  1  1  0
 54 53  1  0
 55 54  1  0
 56 55  1  0
 57 56  1  0
 57 58  1  0
 58 59  1  0
 59 60  1  0
 60 61  1  0
 62 64  1  0
 62 61  1  0
 63 74  2  0
 64 69  1  0
 65 73  1  0
 65 75  1  0
 66 72  1  0
 66 68  1  0
 67 73  1  0
 68 67  1  0
 69 68  2  0
 70 71  1  0
 70 64  2  0
 71 66  2  0
 72 65  1  0
 73 63  1  0
 75 77  2  0
 76 75  1  0
 78 76  1  0
 79 84  1  0
 80 76  1  0
 81 80  1  0
 82 83  1  0
 82 81  1  0
 83 79  1  0
 84 80  1  0
 84 85  2  0
 86 85  1  0
 87 86  2  0
 88 79  2  0
 88 87  1  0
 89 63  1  0
 89 90  1  0
 89 99  1  0
 90 93  1  0
 91 95  1  0
 91 90  1  0
 92 91  2  0
 95 94  1  0
 97 98  1  0
 97 95  1  0
 97 96  1  0
 99102  1  1
 99100  1  0
101 99  1  0
M  ISO  4  15 100  23 100  61 101  62 101
M  END
>  <TORSDO>  (2) 
F 36

>  <SCORE>  (2) 
3.712

>  <name>  (2) 
1

>  <ligand_id>  (2) 
1

>  <original_smiles>  (2) 
[H]c1c([H])c([H])c2c(c1[H])C([H])([H])C([H])([H])C([H])([H])C2([H])N([H])C(=O)C1([H])N(C(=O)C([H])(N([H])C(=O)C([H])(N([H])C([H])([H])[H])C([H])([H])[H])C(C([H])([H])[H])(C([H])([H])[H])C([H])([H])[H])C([H])([H])c2c([H])c(OC([H])([H])C([H])([H])OC([H])([H])C([H])([H])OC([H])([H])C([H])([H])C([H])([H])[N+]([H])([H])C([H])([H])C([H])([H])OC([H])([H])C([H])([H])OC([H])([H])C([H])([H])OC([H])([H])C([H])([H])N([H])C(=O)N3C([H])([H])C([H])([H])C([H])([H])C([H])(n4nc(-c5c([H])c([H])c(Oc6c([H])c([H])c(F)c([H])c6F)c([H])c5[H])c(C(=O)N([H])[H])c4N([H])[H])C3([H])[H])c([H])c([H])c2C1([H])[H]

>  <smiles>  (2) 
[H]c1c([H])c([H])c2c(c1[H])C([H])([H])C([H])([H])C([H])([H])C2([H])N([H])C(=O)C1([H])N(C(=O)C([H])(N([H])C(=O)C([H])(N([H])C([H])([H])[H])C([H])([H])[H])C(C([H])([H])[H])(C([H])([H])[H])C([H])([H])[H])C([H])([H])c2c([H])c(OC([H])([H])C([H])([H])OC([H])([H])C([H])([H])OC([H])([H])C([H])([H])C([H])([H])[N+]([H])([H])C([H])([H])C([H])([H])OC([H])([H])C([H])([H])OC([H])([H])C([H])([H])OC([H])([H])C([H])([H])N([H])C(=O)N3C([H])([H])C([H])([H])C([H])([H])C([H])(n4nc(-c5c([H])c([H])c(Oc6c([H])c([H])c(F)c([H])c6F)c([H])c5[H])c(C(=O)N([H])[H])c4N([H])[H])C3([H])[H])c([H])c([H])c2C1([H])[H]

$$$$
2:0:0
     RDKit          3D

 99106  0  0  1  0  0  0  0  0999 V2000
  -28.1380  -22.7650   20.7010 C   0  0  0  0  0  0  0  0  0  0  0  0
  -27.7690  -21.7670   21.5190 N   0  0  0  0  0  0  0  0  0  0  0  0
  -28.5870  -22.5580   19.5710 O   0  0  0  0  0  0  0  0  0  0  0  0
  -27.4420  -22.0240   22.4420 H   0  0  0  0  0  0  0  0  0  0  0  0
  -27.9340  -24.2030   21.2290 C   0  0  0  0  0  3  0  0  0  0  0  0
  -25.4000  -24.1490   21.0460 C   0  0  0  0  0  2  0  0  0  0  0  0
  -26.5070  -24.4920   21.7320 C   0  0  0  0  0  0  0  0  0  0  0  0
  -26.4110  -25.2140   23.0630 C   0  0  0  0  0  1  0  0  0  0  0  0
  -28.4540  -25.2840   20.2100 C   0  0  0  0  0  2  0  0  0  0  0  0
  -28.4140  -26.7320   20.0860 O   0  0  0  0  0  0  0  0  0  0  0  0
  -24.6170  -31.8690   23.2130 C   0  0  0  0  0  0  0  0  0  0  0  0
  -27.2180  -27.4430   20.0690 C   0  0  0  0  0  0  0  0  0  0  0  0
  -23.3980  -30.4990   21.5560 C   0  0  0  0  0  3  0  0  0  0  0  0
  -24.8340  -28.9710   20.1130 C   0  0  0  0  0  0  0  0  0  0  0  0
  -25.9290  -30.8320   21.3680 C   0  0  0  0  0  2  0  0  0  0  0  0
  -25.9980  -29.4720   20.7060 C   0  0  0  0  0  0  0  0  0  0  0  0
  -27.1910  -28.7170   20.6780 C   0  0  0  0  0  3  0  0  0  0  0  0
  -26.0300  -26.9570   19.4720 C   0  0  0  0  0  3  0  0  0  0  0  0
  -24.8450  -27.7090   19.5000 C   0  0  0  0  0  3  0  0  0  0  0  0
  -23.6000  -29.8390   20.1680 C   0  0  0  0  0  2  0  0  0  0  0  0
  -24.6660  -31.0820   22.1010 N   0  0  0  0  0  0  0  0  0  0  0  0
  -23.5370  -32.1390   23.7560 O   0  0  0  0  0  0  0  0  0  0  0  0
  -22.7400  -29.4670   22.4990 C   0  0  0  0  0  0  0  0  0  0  0  0
  -21.4130  -29.3010   22.3720 N   0  0  0  0  0  0  0  0  0  0  0  0
  -23.4200  -28.8200   23.3010 O   0  0  0  0  0  0  0  0  0  0  0  0
  -20.9250  -29.8730   21.6980 H   0  0  0  0  0  0  0  0  0  0  0  0
  -18.0280  -28.1360   22.8500 C   0  0  0  0  0  0  0  0  0  0  0  0
  -20.5880  -28.3610   23.1310 C   0  0  0  0  0  3  0  0  0  0  0  0
  -20.6750  -26.9350   22.5420 C   0  0  0  0  0  2  0  0  0  0  0  0
  -19.5730  -26.6350   21.5210 C   0  0  0  0  0  2  0  0  0  0  0  0
  -18.1910  -26.7920   22.1620 C   0  0  0  0  0  2  0  0  0  0  0  0
  -19.1530  -28.8820   23.2890 C   0  0  0  0  0  0  0  0  0  0  0  0
  -18.9470  -30.1450   23.8860 C   0  0  0  0  0  3  0  0  0  0  0  0
  -17.6460  -30.6560   24.0580 C   0  0  0  0  0  3  0  0  0  0  0  0
  -16.5350  -29.9050   23.6360 C   0  0  0  0  0  3  0  0  0  0  0  0
  -16.7270  -28.6490   23.0340 C   0  0  0  0  0  3  0  0  0  0  0  0
  -25.9080  -32.4800   23.8390 C   0  0  0  0  0  3  0  0  0  0  0  0
  -25.5970  -33.8600   24.2340 N   0  0  0  0  0  0  0  0  0  0  0  0
  -25.9040  -34.9450   23.5120 C   0  0  0  0  0  0  0  0  0  0  0  0
  -26.5570  -34.8920   22.4650 O   0  0  0  0  0  0  0  0  0  0  0  0
  -25.0210  -33.9750   25.0550 H   0  0  0  0  0  0  0  0  0  0  0  0
  -24.1480  -36.7290   23.2640 C   0  0  0  0  0  1  0  0  0  0  0  0
  -25.4100  -36.3080   24.0330 C   0  0  0  0  0  3  0  0  0  0  0  0
  -27.5560  -37.1790   24.8480 C   0  0  0  0  0  1  0  0  0  0  0  0
  -26.4270  -37.3790   23.9430 N   0  0  0  0  0  0  0  0  0  0  0  0
  -26.0130  -38.2840   24.1480 H   0  0  0  0  0  0  0  0  0  0  0  0
  -26.4520  -31.6560   25.0710 C   0  0  1  0  0  0  0  0  0  0  0  0
  -25.3810  -31.3660   26.1480 C   0  0  0  0  0  1  0  0  0  0  0  0
  -27.0350  -30.2990   24.6110 C   0  0  0  0  0  1  0  0  0  0  0  0
  -27.6060  -32.4300   25.7490 C   0  0  0  0  0  1  0  0  0  0  0  0
  -27.7300  -20.3450   21.1850 C   0  0  0  0  0  2  0  0  0  0  0  0
  -29.1150  -19.6690   21.1740 C   0  0  0  0  0  2  0  0  0  0  0  0
  -29.9820  -19.9420   22.4140 C   0  0  0  0  0  2  0  0  0  0  0  0
  -30.6530  -21.1850   22.2490 O   0  0  0  0  0  0  0  0  0  0  0  0
  -31.9830  -21.2090   22.7500 C   0  0  0  0  0  2  0  0  0  0  0  0
  -32.9990  -20.8640   21.6450 C   0  0  0  0  0  2  0  0  0  0  0  0
  -33.0170  -19.3990   21.1760 C   0  0  0  0  0  2  0  0  0  0  0  0
  -33.2500  -18.5360   22.2820 O   0  0  0  0  0  0  0  0  0  0  0  0
  -33.4360  -17.1710   21.9200 C   0  0  0  0  0  2  0  0  0  0  0  0
  -32.4320  -16.2670   22.6540 C   0  0  0  0  0  2  0  0  0  0  0  0
  -30.9890  -16.3580   22.1080 C   0  0  0  0  0  2  0  0  0  0  0  0
  -30.7890  -14.3320   20.6850 C   0  0  0  0  0  0  0  0  0  0  0  0
  -30.4140  -12.2680   19.4000 C   0  0  0  0  0  2  0  0  0  0  0  0
  -29.4940  -12.5460   18.2010 C   0  0  0  0  0  2  0  0  0  0  0  0
  -28.0180  -12.3960   18.6120 C   0  0  0  0  0  2  0  0  0  0  0  0
  -27.6730  -13.2100   19.8880 C   0  0  0  0  0  3  0  0  0  0  0  0
  -28.7080  -12.9450   21.0050 C   0  0  0  0  0  2  0  0  0  0  0  0
  -30.0610  -13.2080   20.4730 N   0  0  0  0  0  0  0  0  0  0  0  0
  -31.7630  -14.6530   19.9980 O   0  0  0  0  0  0  0  0  0  0  0  0
  -30.4250  -15.0570   21.7500 N   0  0  0  0  0  0  0  0  0  0  0  0
  -29.6580  -14.7030   22.3030 H   0  0  0  0  0  0  0  0  0  0  0  0
  -25.2610  -13.8180   20.5680 C   0  0  0  0  0  0  0  0  0  0  0  0
  -24.1860  -13.0440   20.9180 C   0  0  0  0  0  0  0  0  0  0  0  0
  -24.6450  -11.6910   20.8750 C   0  0  0  0  0  0  0  0  0  0  0  0
  -26.3090  -12.9370   20.3410 N   0  0  0  0  0  0  0  0  0  0  0  0
  -25.9370  -11.6520   20.5790 N   0  0  0  0  0  0  0  0  0  0  0  0
  -23.9120  -10.4290   21.0410 C   0  0  0  0  0  0  0  0  0  0  0  0
  -24.3670   -9.4210   21.9190 C   0  0  0  0  0  3  0  0  0  0  0  0
  -23.6360   -8.2240   22.0750 C   0  0  0  0  0  3  0  0  0  0  0  0
  -22.4320   -8.0280   21.3540 C   0  0  0  0  0  0  0  0  0  0  0  0
  -21.9970   -9.0250   20.4640 C   0  0  0  0  0  3  0  0  0  0  0  0
  -22.7300  -10.2130   20.3050 C   0  0  0  0  0  3  0  0  0  0  0  0
  -21.6660   -6.8890   21.4260 O   0  0  0  0  0  0  0  0  0  0  0  0
  -21.6870   -6.0760   22.5310 C   0  0  0  0  0  0  0  0  0  0  0  0
  -21.4010   -6.5660   23.8250 C   0  0  0  0  0  3  0  0  0  0  0  0
  -21.3670   -5.6790   24.9190 C   0  0  0  0  0  3  0  0  0  0  0  0
  -21.6050   -4.3050   24.7240 C   0  0  0  0  0  0  0  0  0  0  0  0
  -21.8820   -3.8150   23.4370 C   0  0  0  0  0  3  0  0  0  0  0  0
  -21.9200   -4.6980   22.3420 C   0  0  0  0  0  0  0  0  0  0  0  0
  -22.1650   -4.2160   21.1010 F   0  0  0  0  0  0  0  0  0  0  0  0
  -21.5650   -3.4550   25.7760 F   0  0  0  0  0  0  0  0  0  0  0  0
  -22.7880  -13.5200   21.1860 C   0  0  0  0  0  0  0  0  0  0  0  0
  -22.0510  -12.8170   22.0400 N   0  0  0  0  0  0  0  0  0  0  0  0
  -22.3550  -14.5510   20.6740 O   0  0  0  0  0  0  0  0  0  0  0  0
  -22.4140  -11.9860   22.4820 H   0  0  0  0  0  0  0  0  0  0  0  0
  -21.1090  -13.1160   22.2520 H   0  0  0  0  0  0  0  0  0  0  0  0
  -25.4310  -15.1900   20.4070 N   0  0  0  0  0  0  0  0  0  0  0  0
  -24.6690  -15.8510   20.5160 H   0  0  0  0  0  0  0  0  0  0  0  0
  -26.2920  -15.6310   20.1070 H   0  0  0  0  0  0  0  0  0  0  0  0
  1  5  1  0
  1  2  1  0
  2  4  1  0
  3  1  2  0
  5  9  1  0
  5  7  1  0
  6  7  2  0
  7  8  1  0
 10  9  1  0
 11 22  2  0
 12 10  1  0
 12 17  1  0
 13 21  1  0
 13 23  1  0
 14 20  1  0
 14 16  1  0
 15 21  1  0
 16 15  1  0
 17 16  2  0
 18 19  1  0
 18 12  2  0
 19 14  2  0
 20 13  1  0
 21 11  1  0
 23 25  2  0
 24 23  1  0
 26 24  1  0
 27 36  2  0
 27 32  1  0
 28 24  1  0
 28 32  1  0
 29 28  1  0
 30 31  1  0
 30 29  1  0
 31 27  1  0
 32 33  2  0
 33 34  1  0
 35 34  2  0
 36 35  1  0
 37 11  1  0
 37 38  1  0
 37 47  1  0
 38 41  1  0
 39 43  1  0
 39 38  1  0
 40 39  2  0
 43 42  1  0
 45 43  1  0
 45 46  1  0
 45 44  1  0
 47 50  1  1
 47 48  1  0
 49 47  1  0
 51  2  1  0
 52 51  1  0
 52 53  1  0
 54 53  1  0
 54 55  1  0
 56 55  1  0
 57 56  1  0
 57 58  1  0
 59 58  1  0
 59 60  1  0
 61 60  1  0
 62 70  1  0
 63 68  1  0
 64 65  1  0
 64 63  1  0
 66 65  1  0
 66 75  1  0
 66 67  1  0
 68 62  1  0
 68 67  1  0
 69 62  2  0
 70 61  1  0
 70 71  1  0
 72 73  2  0
 73 92  1  0
 74 73  1  0
 74 77  1  0
 75 72  1  0
 75 76  1  0
 76 74  2  0
 77 78  1  0
 78 79  2  0
 80 83  1  0
 80 79  1  0
 81 80  2  0
 82 81  1  0
 82 77  2  0
 83 84  1  0
 84 85  1  0
 85 86  2  0
 87 86  1  0
 87 91  1  0
 88 87  2  0
 89 84  2  0
 89 88  1  0
 90 89  1  0
 92 93  1  0
 93 96  1  0
 93 95  1  0
 94 92  2  0
 97 98  1  0
 97 72  1  0
 99 97  1  0
M  ISO  4   9 101  10 101  62 100  70 100
M  END
>  <TORSDO>  (3) 
F 30

>  <SCORE>  (3) 
-3.306

>  <name>  (3) 
2

>  <ligand_id>  (3) 
2

>  <original_smiles>  (3) 
[H]C([H])=C(C([H])([H])[H])C([H])(C(=O)N([H])C([H])([H])C([H])([H])C([H])([H])OC([H])([H])C([H])([H])C([H])([H])OC([H])([H])C([H])([H])C([H])([H])N([H])C(=O)N1C([H])([H])C([H])([H])C([H])([H])C([H])(n2nc(-c3c([H])c([H])c(Oc4c([H])c([H])c(F)c([H])c4F)c([H])c3[H])c(C(=O)N([H])[H])c2N([H])[H])C1([H])[H])C([H])([H])Oc1c([H])c([H])c2c(c1[H])C([H])([H])N(C(=O)C([H])(N([H])C(=O)C([H])(N([H])C([H])([H])[H])C([H])([H])[H])C(C([H])([H])[H])(C([H])([H])[H])C([H])([H])[H])C([H])(C(=O)N([H])C1([H])c3c([H])c([H])c([H])c([H])c3C([H])([H])C([H])([H])C1([H])[H])C2([H])[H]

>  <smiles>  (3) 
[H]C([H])=C(C([H])([H])[H])C([H])(C(=O)N([H])C([H])([H])C([H])([H])C([H])([H])OC([H])([H])C([H])([H])C([H])([H])OC([H])([H])C([H])([H])C([H])([H])N([H])C(=O)N1C([H])([H])C([H])([H])C([H])([H])C([H])(n2nc(-c3c([H])c([H])c(Oc4c([H])c([H])c(F)c([H])c4F)c([H])c3[H])c(C(=O)N([H])[H])c2N([H])[H])C1([H])[H])C([H])([H])Oc1c([H])c([H])c2c(c1[H])C([H])([H])N(C(=O)C([H])(N([H])C(=O)C([H])(N([H])C([H])([H])[H])C([H])([H])[H])C(C([H])([H])[H])(C([H])([H])[H])C([H])([H])[H])C([H])(C(=O)N([H])C1([H])c3c([H])c([H])c([H])c([H])c3C([H])([H])C([H])([H])C1([H])[H])C2([H])[H]

$$$$
3:0:0
     RDKit          3D

109114  0  0  1  0  0  0  0  0999 V2000
  -31.5550  -18.3220   21.0660 C   0  0  0  0  0  3  0  0  0  0  0  0
  -30.7600  -19.1170   20.3150 C   0  0  0  0  0  0  0  0  0  0  0  0
  -33.0080  -18.3140   20.9930 C   0  0  0  0  0  0  0  0  0  0  0  0
  -33.4850  -17.0650   20.9600 N   0  0  0  0  0  0  0  0  0  0  0  0
  -33.7300  -19.3120   20.9450 O   0  0  0  0  0  0  0  0  0  0  0  0
  -32.8210  -16.3050   21.0000 H   0  0  0  0  0  0  0  0  0  0  0  0
  -34.8880  -16.6870   20.8340 C   0  0  0  0  0  2  0  0  0  0  0  0
  -35.6140  -17.4670   19.7220 C   0  0  0  0  0  2  0  0  0  0  0  0
  -34.7530  -17.6220   18.5990 O   0  0  0  0  0  0  0  0  0  0  0  0
  -35.4680  -17.8680   17.3920 C   0  0  0  0  0  2  0  0  0  0  0  0
  -34.5960  -18.6820   16.4280 C   0  0  0  0  0  2  0  0  0  0  0  0
  -33.3340  -18.0480   16.2720 O   0  0  0  0  0  0  0  0  0  0  0  0
  -32.4590  -18.7610   15.4060 C   0  0  0  0  0  2  0  0  0  0  0  0
  -31.2160  -19.2130   16.1860 C   0  0  0  0  0  2  0  0  0  0  0  0
  -31.5130  -20.3370   17.0070 O   0  0  0  0  0  1  0  0  0  0  0  0
  -32.0150  -20.0010   18.2930 C   0  0  0  0  0 15  0  0  0  0  0  0
  -32.1860  -21.2810   19.1240 C   0  0  0  0  0  1  0  0  0  0  0  0
  -34.1940  -22.0420   17.7830 C   0  0  0  0  0  0  0  0  0  0  0  0
  -34.5880  -23.0890   15.5860 C   0  0  0  0  0  2  0  0  0  0  0  0
  -34.9850  -24.5690   15.7610 C   0  0  0  0  0  2  0  0  0  0  0  0
  -33.7370  -25.4710   15.8470 C   0  0  0  0  0  2  0  0  0  0  0  0
  -32.6880  -24.9320   16.8540 C   0  0  0  0  0  3  0  0  0  0  0  0
  -32.4270  -23.4310   16.6220 C   0  0  0  0  0  2  0  0  0  0  0  0
  -33.7110  -22.7150   16.7070 N   0  0  0  0  0  0  0  0  0  0  0  0
  -35.3550  -21.6410   17.8610 O   0  0  0  0  0  0  0  0  0  0  0  0
  -33.4400  -22.0120   18.8900 N   0  0  0  0  0  0  0  0  0  0  0  0
  -34.0520  -21.9260   19.6860 H   0  0  0  0  0  0  0  0  0  0  0  0
  -30.7220  -26.2700   17.8300 C   0  0  0  0  0  0  0  0  0  0  0  0
  -29.6780  -26.9310   17.2380 C   0  0  0  0  0  0  0  0  0  0  0  0
  -29.8300  -26.7250   15.8310 C   0  0  0  0  0  0  0  0  0  0  0  0
  -31.4470  -25.7000   16.7970 N   0  0  0  0  0  0  0  0  0  0  0  0
  -30.8720  -25.9390   15.5910 N   0  0  0  0  0  0  0  0  0  0  0  0
  -29.0770  -27.2800   14.6990 C   0  0  0  0  0  0  0  0  0  0  0  0
  -28.6670  -26.4690   13.6180 C   0  0  0  0  0  3  0  0  0  0  0  0
  -27.9320  -27.0210   12.5470 C   0  0  0  0  0  3  0  0  0  0  0  0
  -27.5960  -28.3960   12.5520 C   0  0  0  0  0  0  0  0  0  0  0  0
  -28.0270  -29.2030   13.6190 C   0  0  0  0  0  3  0  0  0  0  0  0
  -28.7630  -28.6520   14.6820 C   0  0  0  0  0  3  0  0  0  0  0  0
  -26.9140  -29.0240   11.5390 O   0  0  0  0  0  0  0  0  0  0  0  0
  -26.1240  -28.3240   10.6630 C   0  0  0  0  0  0  0  0  0  0  0  0
  -25.0770  -27.4880   11.1070 C   0  0  0  0  0  3  0  0  0  0  0  0
  -24.2470  -26.8450   10.1690 C   0  0  0  0  0  3  0  0  0  0  0  0
  -24.4560  -27.0380    8.7900 C   0  0  0  0  0  0  0  0  0  0  0  0
  -25.4980  -27.8720    8.3470 C   0  0  0  0  0  3  0  0  0  0  0  0
  -26.3280  -28.5150    9.2810 C   0  0  0  0  0  0  0  0  0  0  0  0
  -27.3170  -29.3360    8.8500 F   0  0  0  0  0  0  0  0  0  0  0  0
  -23.6550  -26.4270    7.8870 F   0  0  0  0  0  0  0  0  0  0  0  0
  -28.6530  -27.7830   17.9240 C   0  0  0  0  0  0  0  0  0  0  0  0
  -27.4570  -27.8850   17.3520 N   0  0  0  0  0  0  0  0  0  0  0  0
  -28.8930  -28.3320   19.0000 O   0  0  0  0  0  0  0  0  0  0  0  0
  -27.2550  -27.4260   16.4760 H   0  0  0  0  0  0  0  0  0  0  0  0
  -26.7390  -28.4360   17.7990 H   0  0  0  0  0  0  0  0  0  0  0  0
  -31.1260  -26.1260   19.1520 N   0  0  0  0  0  0  0  0  0  0  0  0
  -30.6370  -26.5710   19.9200 H   0  0  0  0  0  0  0  0  0  0  0  0
  -31.9460  -25.6130   19.4470 H   0  0  0  0  0  0  0  0  0  0  0  0
  -28.6390  -18.6890   18.9700 C   0  0  0  0  0  1  0  0  0  0  0  0
  -29.2390  -19.0590   20.3380 C   0  0  0  0  0  3  0  0  0  0  0  0
  -28.6930  -20.3370   20.8290 N   0  0  0  0  0  4  0  0  0  0  0  0
  -29.4590  -20.9140   21.1410 H   0  0  0  0  0  0  0  0  0  0  0  0
  -28.2620  -20.8200   20.0570 H   0  0  0  0  0  0  0  0  0  0  0  0
  -27.7390  -20.1930   21.9510 C   0  0  0  0  0  2  0  0  0  0  0  0
  -26.9700  -21.4910   22.2020 C   0  0  0  0  0  2  0  0  0  0  0  0
  -27.8970  -22.5700   22.1940 O   0  0  0  0  0  0  0  0  0  0  0  0
  -27.2920  -23.7980   22.5770 C   0  0  0  0  0  2  0  0  0  0  0  0
  -28.1800  -24.9630   22.1330 C   0  0  0  0  0  2  0  0  0  0  0  0
  -27.6040  -26.3390   22.4950 C   0  0  0  0  0  2  0  0  0  0  0  0
  -27.8760  -26.6330   23.8630 O   0  0  0  0  0  0  0  0  0  0  0  0
  -26.5320  -30.7680   29.4700 C   0  0  0  0  0  0  0  0  0  0  0  0
  -26.9080  -27.2940   24.5810 C   0  0  0  0  0  0  0  0  0  0  0  0
  -24.5410  -29.8530   28.3170 C   0  0  0  0  0  3  0  0  0  0  0  0
  -24.9860  -28.7210   26.0760 C   0  0  0  0  0  0  0  0  0  0  0  0
  -26.7260  -30.2320   27.0480 C   0  0  0  0  0  2  0  0  0  0  0  0
  -26.3390  -29.0700   26.1600 C   0  0  0  0  0  0  0  0  0  0  0  0
  -27.3030  -28.3510   25.4260 C   0  0  0  0  0  3  0  0  0  0  0  0
  -25.5420  -26.9370   24.5200 C   0  0  0  0  0  3  0  0  0  0  0  0
  -24.5810  -27.6450   25.2650 C   0  0  0  0  0  3  0  0  0  0  0  0
  -24.0160  -29.5490   26.8880 C   0  0  0  0  0  2  0  0  0  0  0  0
  -25.9780  -30.2830   28.3240 N   0  0  0  0  0  0  0  0  0  0  0  0
  -25.8570  -30.9020   30.5000 O   0  0  0  0  0  0  0  0  0  0  0  0
  -24.2680  -28.6240   29.2130 C   0  0  0  0  0  0  0  0  0  0  0  0
  -23.3240  -28.7720   30.1570 N   0  0  0  0  0  0  0  0  0  0  0  0
  -24.8750  -27.5640   29.0370 O   0  0  0  0  0  0  0  0  0  0  0  0
  -22.8800  -29.6740   30.2440 H   0  0  0  0  0  0  0  0  0  0  0  0
  -21.6760  -28.2350   33.3250 C   0  0  0  0  0  0  0  0  0  0  0  0
  -22.8730  -27.7390   31.0890 C   0  0  0  0  0  3  0  0  0  0  0  0
  -21.5340  -27.1190   30.6280 C   0  0  0  0  0  2  0  0  0  0  0  0
  -20.3080  -27.8030   31.2400 C   0  0  0  0  0  2  0  0  0  0  0  0
  -20.3580  -27.7230   32.7690 C   0  0  0  0  0  2  0  0  0  0  0  0
  -22.8530  -28.2560   32.5320 C   0  0  0  0  0  0  0  0  0  0  0  0
  -24.0440  -28.7730   33.0860 C   0  0  0  0  0  3  0  0  0  0  0  0
  -24.0710  -29.2590   34.4070 C   0  0  0  0  0  3  0  0  0  0  0  0
  -22.9070  -29.2210   35.1940 C   0  0  0  0  0  3  0  0  0  0  0  0
  -21.7150  -28.7070   34.6540 C   0  0  0  0  0  3  0  0  0  0  0  0
  -28.0300  -31.2020   29.5350 C   0  0  0  0  0  3  0  0  0  0  0  0
  -28.9980  -30.0330   29.9690 C   0  0  1  0  0  0  0  0  0  0  0  0
  -28.5680  -29.3230   31.2730 C   0  0  0  0  0  1  0  0  0  0  0  0
  -29.0940  -28.9640   28.8560 C   0  0  0  0  0  1  0  0  0  0  0  0
  -30.4290  -30.5860   30.1740 C   0  0  0  0  0  1  0  0  0  0  0  0
  -28.1230  -32.3290   30.4720 N   0  0  0  0  0  0  0  0  0  0  0  0
  -28.1460  -33.6200   30.1090 C   0  0  0  0  0  0  0  0  0  0  0  0
  -28.1660  -33.9830   28.9300 O   0  0  0  0  0  0  0  0  0  0  0  0
  -28.0540  -32.1090   31.4540 H   0  0  0  0  0  0  0  0  0  0  0  0
  -26.7500  -35.2920   31.3630 C   0  0  0  0  0  1  0  0  0  0  0  0
  -28.1500  -34.6720   31.2330 C   0  0  0  0  0  3  0  0  0  0  0  0
  -30.5260  -35.2900   31.2240 C   0  0  0  0  0  1  0  0  0  0  0  0
  -29.1510  -35.7430   31.0320 N   0  0  0  0  0  0  0  0  0  0  0  0
  -28.9810  -36.5180   31.6670 H   0  0  0  0  0  0  0  0  0  0  0  0
  -31.1940  -20.0400   19.4410 O   0  0  0  0  0  0  0  0  0  0  0  0
  -32.1470  -20.0220   19.4540 H   0  0  0  0  0  0  0  0  0  0  0  0
  2 57  1  0
  2  1  2  0
  3  1  1  0
  4  3  1  0
  4  6  1  0
  5  3  2  0
  7  4  1  0
  8  7  1  0
  9  8  1  0
 10  9  1  0
 11 10  1  0
 12 11  1  0
 13 14  1  0
 13 12  1  0
 14 15  1  0
 18 25  2  0
 18 26  1  0
 19 20  1  0
 19 24  1  0
 20 21  1  0
 22 21  1  0
 23 24  1  0
 23 22  1  0
 24 18  1  0
 26 17  1  0
 26 27  1  0
 28 53  1  0
 29 28  2  0
 29 48  1  0
 30 29  1  0
 31 22  1  0
 31 28  1  0
 32 30  2  0
 32 31  1  0
 33 30  1  0
 34 33  2  0
 35 36  2  0
 35 34  1  0
 36 37  1  0
 37 38  2  0
 38 33  1  0
 39 36  1  0
 40 41  1  0
 40 39  1  0
 42 41  2  0
 43 42  1  0
 44 43  2  0
 44 45  1  0
 45 40  2  0
 46 45  1  0
 47 43  1  0
 48 50  2  0
 49 52  1  0
 49 48  1  0
 51 49  1  0
 53 55  1  0
 53 54  1  0
 57 56  1  0
 57 58  1  0
 58 59  1  0
 58 61  1  0
 60 58  1  0
 61 62  1  0
 63 62  1  0
 63 64  1  0
 65 66  1  0
 65 64  1  0
 66 67  1  0
 67 69  1  0
 68 79  2  0
 69 74  1  0
 70 78  1  0
 70 80  1  0
 71 73  1  0
 71 77  1  0
 72 78  1  0
 73 72  1  0
 74 73  2  0
 75 69  2  0
 75 76  1  0
 76 71  2  0
 77 70  1  0
 78 68  1  0
 80 81  1  0
 81 83  1  0
 82 80  2  0
 84 93  1  0
 85 81  1  0
 85 89  1  0
 86 85  1  0
 86 87  1  0
 87 88  1  0
 88 84  1  0
 89 90  1  0
 89 84  2  0
 90 91  2  0
 91 92  1  0
 93 92  2  0
 94 68  1  0
 94 95  1  0
 94 99  1  0
 95 98  1  1
 95 96  1  0
 97 95  1  0
 99102  1  0
100 99  1  0
100104  1  0
101100  2  0
104103  1  0
106105  1  0
106104  1  0
106107  1  0
108109  1  0
108  2  1  0
M  ISO  4  18 100  26 100  66 101  67 101
M  END
>  <TORSDO>  (4) 
F 37

>  <SCORE>  (4) 
4.499

>  <name>  (4) 
3

>  <ligand_id>  (4) 
3

>  <original_smiles>  (4) 
[H]OC(=C([H])C(=O)N([H])C([H])([H])C([H])([H])OC([H])([H])C([H])([H])OC([H])([H])C([H])([H])OC([H])([H])C([H])([H])N([H])C(=O)N1C([H])([H])C([H])([H])C([H])([H])C([H])(n2nc(-c3c([H])c([H])c(Oc4c([H])c([H])c(F)c([H])c4F)c([H])c3[H])c(C(=O)N([H])[H])c2N([H])[H])C1([H])[H])C([H])(C([H])([H])[H])[N+]([H])([H])C([H])([H])C([H])([H])OC([H])([H])C([H])([H])C([H])([H])Oc1c([H])c([H])c2c(c1[H])C([H])([H])N(C(=O)C([H])(N([H])C(=O)C([H])(N([H])C([H])([H])[H])C([H])([H])[H])C(C([H])([H])[H])(C([H])([H])[H])C([H])([H])[H])C([H])(C(=O)N([H])C1([H])c3c([H])c([H])c([H])c([H])c3C([H])([H])C([H])([H])C1([H])[H])C2([H])[H]

>  <smiles>  (4) 
[H]OC(=C([H])C(=O)N([H])C([H])([H])C([H])([H])OC([H])([H])C([H])([H])OC([H])([H])C([H])([H])OC([H])([H])C([H])([H])N([H])C(=O)N1C([H])([H])C([H])([H])C([H])([H])C([H])(n2nc(-c3c([H])c([H])c(Oc4c([H])c([H])c(F)c([H])c4F)c([H])c3[H])c(C(=O)N([H])[H])c2N([H])[H])C1([H])[H])C([H])(C([H])([H])[H])[N+]([H])([H])C([H])([H])C([H])([H])OC([H])([H])C([H])([H])C([H])([H])Oc1c([H])c([H])c2c(c1[H])C([H])([H])N(C(=O)C([H])(N([H])C(=O)C([H])(N([H])C([H])([H])[H])C([H])([H])[H])C(C([H])([H])[H])(C([H])([H])[H])C([H])([H])[H])C([H])(C(=O)N([H])C1([H])c3c([H])c([H])c([H])c([H])c3C([H])([H])C([H])([H])C1([H])[H])C2([H])[H]

$$$$
4:0:0
     RDKit          3D

109110  0  0  1  0  0  0  0  0999 V2000
  -23.4370  -18.4220   17.6440 N   0  0  0  0  0  4  0  0  0  0  0  0
  -22.5780  -18.7930   17.2630 H   0  0  0  0  0  0  0  0  0  0  0  0
  -24.1420  -18.6100   16.9490 H   0  0  0  0  0  0  0  0  0  0  0  0
  -23.7250  -19.1750   18.8810 C   0  0  0  0  0  2  0  0  0  0  0  0
  -24.7690  -20.2660   18.6480 C   0  0  0  0  0  2  0  0  0  0  0  0
  -24.0890  -21.4850   18.3160 O   0  0  0  0  0  0  0  0  0  0  0  0
  -24.9600  -22.4860   17.7900 C   0  0  0  0  0  2  0  0  0  0  0  0
  -24.7120  -22.7700   16.2850 C   0  0  0  0  0  2  0  0  0  0  0  0
  -24.0300  -24.1290   15.9710 C   0  0  0  0  0  2  0  0  0  0  0  0
  -22.7820  -24.3260   16.6350 O   0  0  0  0  0  0  0  0  0  0  0  0
  -21.6110  -23.8950   15.9340 C   0  0  0  0  0  2  0  0  0  0  0  0
  -20.7460  -25.0210   15.2910 C   0  0  0  0  0  2  0  0  0  0  0  0
  -20.3390  -24.8070   13.8140 C   0  0  0  0  0  2  0  0  0  0  0  0
  -18.9440  -25.0690   13.6120 O   0  0  0  0  0  0  0  0  0  0  0  0
  -18.4910  -26.4030   13.8180 C   0  0  0  0  0  2  0  0  0  0  0  0
  -18.7550  -27.2790   12.5680 C   0  0  0  0  0  2  0  0  0  0  0  0
  -17.6140  -27.6410   11.5400 C   0  0  0  0  0  2  0  0  0  0  0  0
  -17.2210  -26.5680    9.2360 C   0  0  0  0  0  0  0  0  0  0  0  0
  -17.7900  -24.4240    8.2910 C   0  0  0  0  0  2  0  0  0  0  0  0
  -19.0300  -22.9520    8.2890 C   0  0  0  0  0  1  0  0  0  0  0  0
  -20.9290  -23.4580    8.9730 C   0  0  0  0  0  1  0  0  0  0  0  0
  -21.1070  -25.3490    9.4460 C   0  0  0  0  0  3  0  0  0  0  0  0
  -19.7800  -26.5260    9.2670 C   0  0  0  0  0  2  0  0  0  0  0  0
  -18.2940  -25.9740    8.8430 N   0  0  0  0  0  0  0  0  0  0  0  0
  -16.1960  -26.3680    8.5820 O   0  0  0  0  0  0  0  0  0  0  0  0
  -17.1610  -26.6020   10.5900 N   0  0  0  0  0  0  0  0  0  0  0  0
  -16.3580  -26.1060   10.9340 H   0  0  0  0  0  0  0  0  0  0  0  0
  -23.3440  -25.6100   10.0340 C   0  0  0  0  0  0  0  0  0  0  0  0
  -24.4770  -26.2430    9.6950 C   0  0  0  0  0  0  0  0  0  0  0  0
  -24.3080  -26.7970    8.3970 C   0  0  0  0  0  0  0  0  0  0  0  0
  -22.4410  -25.8900    9.0890 N   0  0  0  0  0  0  0  0  0  0  0  0
  -23.0070  -26.5950    8.0140 N   0  0  0  0  0  0  0  0  0  0  0  0
  -25.3860  -27.4490    7.5840 C   0  0  0  0  0  0  0  0  0  0  0  0
  -25.2830  -28.7470    7.0400 C   0  0  0  0  0  3  0  0  0  0  0  0
  -26.3840  -29.3590    6.3830 C   0  0  0  0  0  3  0  0  0  0  0  0
  -27.6170  -28.6820    6.2660 C   0  0  0  0  0  0  0  0  0  0  0  0
  -27.7290  -27.3900    6.8080 C   0  0  0  0  0  3  0  0  0  0  0  0
  -26.6330  -26.7820    7.4540 C   0  0  0  0  0  3  0  0  0  0  0  0
  -28.7300  -29.1780    5.6140 O   0  0  0  0  0  0  0  0  0  0  0  0
  -28.9310  -30.5250    5.4260 C   0  0  0  0  0  0  0  0  0  0  0  0
  -28.9930  -31.4200    6.5190 C   0  0  0  0  0  3  0  0  0  0  0  0
  -29.2750  -32.7820    6.2990 C   0  0  0  0  0  3  0  0  0  0  0  0
  -29.5060  -33.2510    4.9910 C   0  0  0  0  0  0  0  0  0  0  0  0
  -29.4630  -32.3630    3.9100 C   0  0  0  0  0  3  0  0  0  0  0  0
  -29.1780  -31.0010    4.1220 C   0  0  0  0  0  0  0  0  0  0  0  0
  -29.1640  -30.1450    3.0700 F   0  0  0  0  0  0  0  0  0  0  0  0
  -29.7750  -34.5610    4.7860 F   0  0  0  0  0  0  0  0  0  0  0  0
  -25.6320  -26.2220   10.6290 C   0  0  0  0  0  0  0  0  0  0  0  0
  -26.4060  -27.2950   10.6660 N   0  0  0  0  0  0  0  0  0  0  0  0
  -25.7880  -25.3030   11.4140 O   0  0  0  0  0  0  0  0  0  0  0  0
  -26.2500  -28.0810   10.0530 H   0  0  0  0  0  0  0  0  0  0  0  0
  -27.1790  -27.3130   11.3130 H   0  0  0  0  0  0  0  0  0  0  0  0
  -23.0080  -24.8440   11.1330 N   0  0  0  0  0  0  0  0  0  0  0  0
  -22.0430  -24.7590   11.4120 H   0  0  0  0  0  0  0  0  0  0  0  0
  -23.6810  -24.8130   11.8890 H   0  0  0  0  0  0  0  0  0  0  0  0
  -23.3280  -16.9550   17.8280 C   0  0  0  0  0  2  0  0  0  0  0  0
  -22.4840  -16.2990   16.7480 C   0  0  0  0  0  2  0  0  0  0  0  0
  -23.1370  -16.3260   15.3740 C   0  0  0  0  0  2  0  0  0  0  0  0
  -23.2120  -14.9750   14.9400 O   0  0  0  0  0  0  0  0  0  0  0  0
  -24.5340  -14.4490   14.8800 C   0  0  0  0  0  2  0  0  0  0  0  0
  -24.8970  -13.4240   15.9980 C   0  0  0  0  0  2  0  0  0  0  0  0
  -25.8060  -13.9220   16.9930 O   0  0  0  0  0  0  0  0  0  0  0  0
  -26.7860  -13.0350   17.5810 C   0  0  0  0  0  2  0  0  0  0  0  0
  -27.4900  -13.6370   18.8700 C   0  0  0  0  0  2  0  0  0  0  0  0
  -28.8210  -14.6480   18.8780 C   0  0  0  0  0  1  0  0  0  0  0  0
  -29.0600  -17.3940   19.5700 O   0  0  0  0  0 15  0  0  0  0  0  0
  -28.3440  -19.6740   19.8560 C   0  0  0  0  0 15  0  0  0  0  0  0
  -28.0930  -22.2610   20.6350 C   0  0  0  0  0 15  0  0  0  0  0  0
  -27.7090  -24.6420   20.8690 O   0  0  0  0  0 15  0  0  0  0  0  0
  -27.4100  -32.2740   25.6670 C   0  0  0  0  0  0  0  0  0  0  0  0
  -27.1220  -26.2840   21.6810 C   0  0  0  0  0  3  0  0  0  0  0  0
  -25.6500  -30.5860   25.5910 C   0  0  0  0  0  3  0  0  0  0  0  0
  -25.5940  -28.7850   23.5470 C   0  0  0  0  0  0  0  0  0  0  0  0
  -27.1520  -30.6870   23.4600 C   0  0  0  0  0  2  0  0  0  0  0  0
  -26.8150  -29.0960   22.9560 C   0  0  0  0  0  0  0  0  0  0  0  0
  -27.4810  -27.9150   22.0460 C   0  0  0  0  0  3  0  0  0  0  0  0
  -25.7920  -26.4850   22.2970 C   0  0  0  0  0  3  0  0  0  0  0  0
  -25.1150  -27.5200   23.1120 C   0  0  0  0  0  3  0  0  0  0  0  0
  -24.8230  -29.7440   24.5540 C   0  0  0  0  0  2  0  0  0  0  0  0
  -26.7980  -31.2540   24.9020 N   0  0  0  0  0  0  0  0  0  0  0  0
  -27.1030  -32.5010   26.8570 O   0  0  0  0  0  0  0  0  0  0  0  0
  -26.1260  -29.6970   26.7770 C   0  0  0  0  0  0  0  0  0  0  0  0
  -25.4010  -29.6400   27.9150 N   0  0  0  0  0  0  0  0  0  0  0  0
  -27.1600  -29.0360   26.6410 O   0  0  0  0  0  0  0  0  0  0  0  0
  -24.5770  -30.2200   27.9970 H   0  0  0  0  0  0  0  0  0  0  0  0
  -24.5190  -28.7160   31.3400 C   0  0  0  0  0  0  0  0  0  0  0  0
  -25.6760  -28.7080   29.0230 C   0  0  0  0  0  3  0  0  0  0  0  0
  -24.9570  -27.3570   28.7980 C   0  0  0  0  0  2  0  0  0  0  0  0
  -23.5830  -27.2870   29.4710 C   0  0  0  0  0  2  0  0  0  0  0  0
  -23.7210  -27.4700   30.9850 C   0  0  0  0  0  2  0  0  0  0  0  0
  -25.4240  -29.3060   30.4140 C   0  0  0  0  0  0  0  0  0  0  0  0
  -26.1260  -30.4710   30.7900 C   0  0  0  0  0  3  0  0  0  0  0  0
  -25.9310  -31.0510   32.0570 C   0  0  0  0  0  3  0  0  0  0  0  0
  -25.0360  -30.4640   32.9690 C   0  0  0  0  0  3  0  0  0  0  0  0
  -24.3390  -29.2960   32.6140 C   0  0  0  0  0  3  0  0  0  0  0  0
  -28.5350  -33.2180   25.1270 C   0  0  0  0  0  3  0  0  0  0  0  0
  -29.9790  -32.6760   25.4480 C   0  0  1  0  0  0  0  0  0  0  0  0
  -30.2300  -32.3970   26.9490 C   0  0  0  0  0  1  0  0  0  0  0  0
  -30.2710  -31.3730   24.6810 C   0  0  0  0  0  1  0  0  0  0  0  0
  -31.0520  -33.6890   24.9730 C   0  0  0  0  0  1  0  0  0  0  0  0
  -28.4070  -34.5780   25.7360 N   0  0  0  0  0  0  0  0  0  0  0  0
  -27.8980  -35.6740   25.1440 C   0  0  0  0  0  0  0  0  0  0  0  0
  -27.4680  -35.6540   23.9870 O   0  0  0  0  0  0  0  0  0  0  0  0
  -28.6790  -34.6520   26.7030 H   0  0  0  0  0  0  0  0  0  0  0  0
  -26.4430  -37.2310   26.5130 C   0  0  0  0  0  1  0  0  0  0  0  0
  -27.8540  -37.0030   25.9460 C   0  0  0  0  0  3  0  0  0  0  0  0
  -29.6760  -38.2400   24.8510 C   0  0  0  0  0  1  0  0  0  0  0  0
  -28.2510  -38.1960   25.1560 N   0  0  0  0  0  0  0  0  0  0  0  0
  -28.0130  -39.0490   25.6550 H   0  0  0  0  0  0  0  0  0  0  0  0
  1 56  1  0
  1  4  1  0
  2  1  1  0
  3  1  1  0
  5  4  1  0
  6  5  1  0
  7  6  1  0
  8  7  1  0
  9  8  1  0
  9 10  1  0
 11 10  1  0
 12 11  1  0
 13 12  1  0
 14 13  1  0
 14 15  1  0
 16 15  1  0
 17 16  1  0
 18 26  1  0
 19 24  1  0
 20 19  1  0
 22 21  1  0
 23 22  1  0
 24 18  1  0
 24 23  1  0
 25 18  2  0
 26 27  1  0
 26 17  1  0
 28 53  1  0
 29 28  2  0
 29 48  1  0
 30 29  1  0
 31 22  1  0
 31 28  1  0
 32 30  2  0
 32 31  1  0
 33 30  1  0
 34 33  2  0
 35 34  1  0
 36 35  2  0
 36 37  1  0
 37 38  2  0
 38 33  1  0
 39 36  1  0
 40 39  1  0
 40 41  1  0
 42 41  2  0
 43 42  1  0
 44 45  1  0
 44 43  2  0
 45 40  2  0
 46 45  1  0
 47 43  1  0
 48 49  1  0
 48 50  2  0
 49 52  1  0
 51 49  1  0
 53 54  1  0
 53 55  1  0
 57 56  1  0
 58 57  1  0
 59 58  1  0
 60 59  1  0
 60 61  1  0
 61 62  1  0
 62 63  1  0
 63 64  1  0
 64 65  1  0
 70 81  2  0
 71 76  2  0
 71 77  1  0
 72 82  1  0
 73 79  1  0
 74 80  1  0
 75 74  1  0
 75 73  2  0
 76 75  1  0
 77 78  2  0
 78 73  1  0
 79 72  1  0
 80 72  1  0
 80 70  1  0
 82 83  1  0
 83 85  1  0
 84 82  2  0
 86 95  1  0
 87 83  1  0
 87 91  1  0
 88 87  1  0
 88 89  1  0
 89 90  1  0
 90 86  1  0
 91 92  1  0
 91 86  2  0
 92 93  2  0
 93 94  1  0
 95 94  2  0
 96 97  1  0
 96 70  1  0
 96101  1  0
 97 98  1  1
 99 97  1  0
100 97  1  0
101104  1  0
102101  1  0
102106  1  0
103102  2  0
106105  1  0
107108  1  0
108109  1  0
108106  1  0
M  ISO  4  18 100  26 100  68 101  69 101
M  END
>  <TORSDO>  (5) 
F 43

>  <SCORE>  (5) 
21.847

>  <name>  (5) 
4

>  <ligand_id>  (5) 
4

>  <original_smiles>  (5) 
[H]c1c([H])c([H])c2c(c1[H])C([H])([H])C([H])([H])C([H])([H])C2([H])N([H])C(=O)C1([H])N(C(=O)C([H])(N([H])C(=O)C([H])(N([H])C([H])([H])[H])C([H])([H])[H])C(C([H])([H])[H])(C([H])([H])[H])C([H])([H])[H])C([H])([H])c2c([H])c(OC([H])([H])C([H])([H])OC([H])([H])C([H])([H])C([H])([H])OC([H])([H])C([H])([H])OC([H])([H])C([H])([H])C([H])([H])[N+]([H])([H])C([H])([H])C([H])([H])OC([H])([H])C([H])([H])C([H])([H])OC([H])([H])C([H])([H])C([H])([H])OC([H])([H])C([H])([H])C([H])([H])N([H])C(=O)N3C([H])([H])C([H])([H])C([H])([H])C([H])(n4nc(-c5c([H])c([H])c(Oc6c([H])c([H])c(F)c([H])c6F)c([H])c5[H])c(C(=O)N([H])[H])c4N([H])[H])C3([H])[H])c([H])c([H])c2C1([H])[H]

>  <smiles>  (5) 
[H]c1c([H])c([H])c2c(c1[H])C([H])([H])C([H])([H])C([H])([H])C2([H])N([H])C(=O)C1([H])N(C(=O)C([H])(N([H])C(=O)C([H])(N([H])C([H])([H])[H])C([H])([H])[H])C(C([H])([H])[H])(C([H])([H])[H])C([H])([H])[H])C([H])([H])c2c([H])c(OC([H])([H])C([H])([H])OC([H])([H])C([H])([H])C([H])([H])OC([H])([H])C([H])([H])OC([H])([H])C([H])([H])C([H])([H])[N+]([H])([H])C([H])([H])C([H])([H])OC([H])([H])C([H])([H])C([H])([H])OC([H])([H])C([H])([H])C([H])([H])OC([H])([H])C([H])([H])C([H])([H])N([H])C(=O)N3C([H])([H])C([H])([H])C([H])([H])C([H])(n4nc(-c5c([H])c([H])c(Oc6c([H])c([H])c(F)c([H])c6F)c([H])c5[H])c(C(=O)N([H])[H])c4N([H])[H])C3([H])[H])c([H])c([H])c2C1([H])[H]

$$$$
5:0:0
     RDKit          3D

105112  0  0  1  0  0  0  0  0999 V2000
  -32.0920  -19.6620   19.8310 C   0  0  0  0  0  3  0  0  0  0  0  0
  -31.3910  -17.3720   20.5110 C   0  0  0  0  0  0  0  0  0  0  0  0
  -32.1830  -18.4430   20.6510 N   0  0  0  0  0  0  0  0  0  0  0  0
  -30.4490  -17.3470   19.7170 O   0  0  0  0  0  0  0  0  0  0  0  0
  -33.0050  -18.3270   21.2260 H   0  0  0  0  0  0  0  0  0  0  0  0
  -31.6900  -16.1570   21.4160 C   0  0  0  0  0  3  0  0  0  0  0  0
  -31.2720  -14.2180   19.8930 C   0  0  0  0  0  0  0  0  0  0  0  0
  -30.6520  -12.2190   18.5870 C   0  0  0  0  0  2  0  0  0  0  0  0
  -29.6550  -12.5540   17.4630 C   0  0  0  0  0  2  0  0  0  0  0  0
  -28.2090  -12.5190   17.9880 C   0  0  0  0  0  2  0  0  0  0  0  0
  -28.0290  -13.3420   19.2900 C   0  0  0  0  0  3  0  0  0  0  0  0
  -29.1180  -12.9750   20.3210 C   0  0  0  0  0  2  0  0  0  0  0  0
  -30.4410  -13.1630   19.6930 N   0  0  0  0  0  0  0  0  0  0  0  0
  -32.2560  -14.4540   19.1850 O   0  0  0  0  0  0  0  0  0  0  0  0
  -30.9840  -14.9570   20.9690 N   0  0  0  0  0  0  0  0  0  0  0  0
  -30.1690  -14.6930   21.4970 H   0  0  0  0  0  0  0  0  0  0  0  0
  -25.7250  -14.1340   20.1270 C   0  0  0  0  0  0  0  0  0  0  0  0
  -24.6240  -13.4450   20.5620 C   0  0  0  0  0  0  0  0  0  0  0  0
  -24.9790  -12.0620   20.5120 C   0  0  0  0  0  0  0  0  0  0  0  0
  -26.6860  -13.1750   19.8430 N   0  0  0  0  0  0  0  0  0  0  0  0
  -26.2420  -11.9240   20.1290 N   0  0  0  0  0  0  0  0  0  0  0  0
  -24.1720  -10.8580   20.7530 C   0  0  0  0  0  0  0  0  0  0  0  0
  -24.5720   -9.8760   21.6860 C   0  0  0  0  0  3  0  0  0  0  0  0
  -23.7700   -8.7370   21.9110 C   0  0  0  0  0  3  0  0  0  0  0  0
  -22.5560   -8.5710   21.2050 C   0  0  0  0  0  0  0  0  0  0  0  0
  -22.1740   -9.5400   20.2610 C   0  0  0  0  0  3  0  0  0  0  0  0
  -22.9760  -10.6720   20.0330 C   0  0  0  0  0  3  0  0  0  0  0  0
  -21.7270   -7.4840   21.3400 O   0  0  0  0  0  0  0  0  0  0  0  0
  -21.6410   -6.7850   22.5180 C   0  0  0  0  0  0  0  0  0  0  0  0
  -21.2850   -7.4130   23.7320 C   0  0  0  0  0  3  0  0  0  0  0  0
  -21.1420   -6.6450   24.9050 C   0  0  0  0  0  3  0  0  0  0  0  0
  -21.3450   -5.2520   24.8650 C   0  0  0  0  0  0  0  0  0  0  0  0
  -21.6940   -4.6250   23.6560 C   0  0  0  0  0  3  0  0  0  0  0  0
  -21.8390   -5.3900   22.4850 C   0  0  0  0  0  0  0  0  0  0  0  0
  -22.1550   -4.7790   21.3190 F   0  0  0  0  0  0  0  0  0  0  0  0
  -21.1990   -4.5130   25.9900 F   0  0  0  0  0  0  0  0  0  0  0  0
  -23.2850  -14.0260   20.9140 C   0  0  0  0  0  0  0  0  0  0  0  0
  -22.5650  -13.3950   21.8350 N   0  0  0  0  0  0  0  0  0  0  0  0
  -22.8900  -15.0760   20.4080 O   0  0  0  0  0  0  0  0  0  0  0  0
  -22.8980  -12.5440   22.2670 H   0  0  0  0  0  0  0  0  0  0  0  0
  -21.6680  -13.7660   22.1130 H   0  0  0  0  0  0  0  0  0  0  0  0
  -25.9840  -15.4870   19.9330 N   0  0  0  0  0  0  0  0  0  0  0  0
  -25.2810  -16.2020   20.0880 H   0  0  0  0  0  0  0  0  0  0  0  0
  -26.8560  -15.8570   19.5770 H   0  0  0  0  0  0  0  0  0  0  0  0
  -29.7960  -16.6080   23.1450 C   0  0  0  0  0  1  0  0  0  0  0  0
  -31.8850  -15.3650   23.8370 C   0  0  0  0  0  1  0  0  0  0  0  0
  -31.3120  -16.4410   22.8970 C   0  0  0  0  0  3  0  0  0  0  0  0
  -34.2830  -20.6580   20.8030 C   0  0  0  0  0  1  0  0  0  0  0  0
  -32.5510  -22.1990   19.8430 C   0  0  0  0  0  1  0  0  0  0  0  0
  -32.7600  -20.8630   20.5950 C   0  0  1  0  0  0  0  0  0  0  0  0
  -32.1220  -20.9890   21.9290 N   0  0  0  0  0  4  0  0  0  0  0  0
  -32.5100  -21.7600   22.4450 H   0  0  0  0  0  0  0  0  0  0  0  0
  -32.2510  -20.1580   22.4780 H   0  0  0  0  0  0  0  0  0  0  0  0
  -31.1330  -21.1410   21.8420 H   0  0  0  0  0  0  0  0  0  0  0  0
  -32.7250  -19.3910   18.4280 C   0  0  0  0  0  0  0  0  0  0  0  0
  -33.6970  -18.6420   18.2820 O   0  0  0  0  0  0  0  0  0  0  0  0
  -32.1400  -20.0740   17.1840 C   0  0  0  0  0  2  0  0  0  0  0  0
  -30.6110  -19.9730   17.0600 C   0  0  0  0  0  2  0  0  0  0  0  0
  -29.9930  -21.0380   17.7750 O   0  0  0  0  0  0  0  0  0  0  0  0
  -29.5020  -22.0810   16.9460 C   0  0  0  0  0  2  0  0  0  0  0  0
  -28.9980  -23.2230   17.8390 C   0  0  0  0  0  2  0  0  0  0  0  0
  -30.0580  -24.1240   18.1530 O   0  0  0  0  0  0  0  0  0  0  0  0
  -29.8040  -25.0070   19.2500 C   0  0  0  0  0  2  0  0  0  0  0  0
  -28.4410  -25.7160   19.1650 C   0  0  0  0  0  2  0  0  0  0  0  0
  -28.3870  -26.8940   19.9680 O   0  0  0  0  0  0  0  0  0  0  0  0
  -24.5720  -31.9390   23.2330 C   0  0  0  0  0  0  0  0  0  0  0  0
  -27.1870  -27.5760   20.0110 C   0  0  0  0  0  0  0  0  0  0  0  0
  -23.3430  -30.5580   21.5910 C   0  0  0  0  0  3  0  0  0  0  0  0
  -24.7760  -29.0570   20.1180 C   0  0  0  0  0  0  0  0  0  0  0  0
  -25.8640  -30.9320   21.3560 C   0  0  0  0  0  2  0  0  0  0  0  0
  -25.9430  -29.5740   20.6950 C   0  0  0  0  0  0  0  0  0  0  0  0
  -27.1470  -28.8370   20.6460 C   0  0  0  0  0  3  0  0  0  0  0  0
  -25.9910  -27.0690   19.4410 C   0  0  0  0  0  3  0  0  0  0  0  0
  -24.7940  -27.7990   19.4970 C   0  0  0  0  0  3  0  0  0  0  0  0
  -23.5290  -29.9050   20.1980 C   0  0  0  0  0  2  0  0  0  0  0  0
  -24.6120  -31.1570   22.1180 N   0  0  0  0  0  0  0  0  0  0  0  0
  -23.5000  -32.1980   23.7950 O   0  0  0  0  0  0  0  0  0  0  0  0
  -22.7170  -29.5160   22.5440 C   0  0  0  0  0  0  0  0  0  0  0  0
  -21.4040  -29.2770   22.3900 N   0  0  0  0  0  0  0  0  0  0  0  0
  -23.4080  -28.9240   23.3780 O   0  0  0  0  0  0  0  0  0  0  0  0
  -20.9060  -29.8080   21.6890 H   0  0  0  0  0  0  0  0  0  0  0  0
  -18.0880  -27.8950   22.7660 C   0  0  0  0  0  0  0  0  0  0  0  0
  -20.6090  -28.3140   23.1510 C   0  0  0  0  0  3  0  0  0  0  0  0
  -20.8250  -26.8760   22.6230 C   0  0  0  0  0  2  0  0  0  0  0  0
  -19.7930  -26.4590   21.5700 C   0  0  0  0  0  2  0  0  0  0  0  0
  -18.3760  -26.5390   22.1420 C   0  0  0  0  0  2  0  0  0  0  0  0
  -19.1360  -28.7350   23.2240 C   0  0  0  0  0  0  0  0  0  0  0  0
  -18.8170  -29.9990   23.7630 C   0  0  0  0  0  3  0  0  0  0  0  0
  -17.4780  -30.4270   23.8510 C   0  0  0  0  0  3  0  0  0  0  0  0
  -16.4420  -29.5860   23.4110 C   0  0  0  0  0  3  0  0  0  0  0  0
  -16.7460  -28.3220   22.8730 C   0  0  0  0  0  3  0  0  0  0  0  0
  -25.8660  -32.5650   23.8380 C   0  0  0  0  0  3  0  0  0  0  0  0
  -26.3950  -31.7930   25.1100 C   0  0  1  0  0  0  0  0  0  0  0  0
  -25.3100  -31.5480   26.1830 C   0  0  0  0  0  1  0  0  0  0  0  0
  -26.9820  -30.4200   24.7080 C   0  0  0  0  0  1  0  0  0  0  0  0
  -27.5450  -32.5940   25.7640 C   0  0  0  0  0  1  0  0  0  0  0  0
  -25.5680  -33.9650   24.1650 N   0  0  0  0  0  0  0  0  0  0  0  0
  -25.8990  -35.0120   23.4000 C   0  0  0  0  0  0  0  0  0  0  0  0
  -26.5600  -34.9010   22.3630 O   0  0  0  0  0  0  0  0  0  0  0  0
  -24.9810  -34.1260   24.9710 H   0  0  0  0  0  0  0  0  0  0  0  0
  -24.1690  -36.8040   23.0570 C   0  0  0  0  0  1  0  0  0  0  0  0
  -25.4200  -36.4040   23.8550 C   0  0  0  0  0  3  0  0  0  0  0  0
  -27.5680  -37.2860   24.6490 C   0  0  0  0  0  1  0  0  0  0  0  0
  -26.4520  -37.4540   23.7220 N   0  0  0  0  0  0  0  0  0  0  0  0
  -26.0510  -38.3760   23.8730 H   0  0  0  0  0  0  0  0  0  0  0  0
  1 55  1  0
  1 50  1  0
  1  3  1  0
  2  3  1  0
  3  5  1  0
  4  2  2  0
  6  2  1  0
  6 47  1  0
  7 15  1  0
  8 13  1  0
  9 10  1  0
  9  8  1  0
 11 10  1  0
 11 20  1  0
 11 12  1  0
 13  7  1  0
 13 12  1  0
 14  7  2  0
 15  6  1  0
 15 16  1  0
 17 18  2  0
 18 37  1  0
 19 18  1  0
 19 22  1  0
 20 17  1  0
 20 21  1  0
 21 19  2  0
 22 23  1  0
 23 24  2  0
 25 28  1  0
 25 24  1  0
 26 25  2  0
 27 26  1  0
 27 22  2  0
 28 29  1  0
 29 30  1  0
 30 31  2  0
 32 31  1  0
 32 36  1  0
 33 32  2  0
 34 29  2  0
 34 33  1  0
 35 34  1  0
 37 38  1  0
 38 41  1  0
 38 40  1  0
 39 37  2  0
 42 43  1  0
 42 17  1  0
 44 42  1  0
 47 45  1  0
 47 46  1  0
 50 49  1  6
 50 48  1  0
 50 51  1  0
 51 52  1  0
 51 53  1  0
 54 51  1  0
 56 55  2  0
 57 55  1  0
 58 57  1  0
 58 59  1  0
 60 59  1  0
 60 61  1  0
 61 62  1  0
 62 63  1  0
 64 63  1  0
 64 65  1  0
 65 67  1  0
 66 77  2  0
 67 72  1  0
 68 76  1  0
 68 78  1  0
 69 75  1  0
 69 71  1  0
 70 76  1  0
 71 70  1  0
 72 71  2  0
 73 74  1  0
 73 67  2  0
 74 69  2  0
 75 68  1  0
 76 66  1  0
 78 80  2  0
 79 78  1  0
 81 79  1  0
 82 91  2  0
 82 87  1  0
 83 79  1  0
 83 87  1  0
 84 83  1  0
 85 86  1  0
 85 84  1  0
 86 82  1  0
 87 88  2  0
 88 89  1  0
 90 89  2  0
 91 90  1  0
 92 66  1  0
 92 97  1  0
 92 93  1  0
 93 96  1  1
 93 94  1  0
 95 93  1  0
 97100  1  0
 98102  1  0
 98 97  1  0
 99 98  2  0
102101  1  0
104102  1  0
104105  1  0
104103  1  0
M  ISO  4   7 100  15 100  64 101  65 101
M  END
>  <TORSDO>  (6) 
F 30

>  <SCORE>  (6) 
-5.195

>  <name>  (6) 
5

>  <ligand_id>  (6) 
5

>  <original_smiles>  (6) 
[H]c1c([H])c([H])c2c(c1[H])C([H])([H])C([H])([H])C([H])([H])C2([H])N([H])C(=O)C1([H])N(C(=O)C([H])(N([H])C(=O)C([H])(N([H])C([H])([H])[H])C([H])([H])[H])C(C([H])([H])[H])(C([H])([H])[H])C([H])([H])[H])C([H])([H])c2c([H])c(OC([H])([H])C([H])([H])OC([H])([H])C([H])([H])OC([H])([H])C([H])([H])C(=O)C([H])(N([H])C(=O)C([H])(N([H])C(=O)N3C([H])([H])C([H])([H])C([H])([H])C([H])(n4nc(-c5c([H])c([H])c(Oc6c([H])c([H])c(F)c([H])c6F)c([H])c5[H])c(C(=O)N([H])[H])c4N([H])[H])C3([H])[H])C([H])(C([H])([H])[H])C([H])([H])[H])C(C([H])([H])[H])(C([H])([H])[H])[N+]([H])([H])[H])c([H])c([H])c2C1([H])[H]

>  <smiles>  (6) 
[H]c1c([H])c([H])c2c(c1[H])C([H])([H])C([H])([H])C([H])([H])C2([H])N([H])C(=O)C1([H])N(C(=O)C([H])(N([H])C(=O)C([H])(N([H])C([H])([H])[H])C([H])([H])[H])C(C([H])([H])[H])(C([H])([H])[H])C([H])([H])[H])C([H])([H])c2c([H])c(OC([H])([H])C([H])([H])OC([H])([H])C([H])([H])OC([H])([H])C([H])([H])C(=O)C([H])(N([H])C(=O)C([H])(N([H])C(=O)N3C([H])([H])C([H])([H])C([H])([H])C([H])(n4nc(-c5c([H])c([H])c(Oc6c([H])c([H])c(F)c([H])c6F)c([H])c5[H])c(C(=O)N([H])[H])c4N([H])[H])C3([H])[H])C([H])(C([H])([H])[H])C([H])([H])[H])C(C([H])([H])[H])(C([H])([H])[H])[N+]([H])([H])[H])c([H])c([H])c2C1([H])[H]

$$$$
6:0:0
     RDKit          3D

 98105  0  0  1  0  0  0  0  0999 V2000
  -28.0080  -22.0130   23.9410 C   0  0  0  0  0  2  0  0  0  0  0  0
  -29.3880  -22.2740   23.6990 O   0  0  0  0  0  0  0  0  0  0  0  0
  -30.2660  -21.4740   24.5020 C   0  0  0  0  0  2  0  0  0  0  0  0
  -30.2340  -19.9710   24.1310 C   0  0  0  0  0  2  0  0  0  0  0  0
  -31.2090  -19.6170   23.1400 O   0  0  0  0  0  0  0  0  0  0  0  0
  -31.0620  -18.2560   22.7270 C   0  0  0  0  0  2  0  0  0  0  0  0
  -32.0110  -17.7850   21.5890 C   0  0  0  0  0  3  0  0  0  0  0  0
  -32.2610  -15.5390   20.4360 C   0  0  0  0  0  0  0  0  0  0  0  0
  -31.8540  -13.5560   19.0000 C   0  0  0  0  0  2  0  0  0  0  0  0
  -31.0050  -13.9560   17.7770 C   0  0  0  0  0  2  0  0  0  0  0  0
  -29.5010  -13.9110   18.1150 C   0  0  0  0  0  2  0  0  0  0  0  0
  -29.1720  -14.6660   19.4310 C   0  0  0  0  0  3  0  0  0  0  0  0
  -30.1250  -14.2110   20.5590 C   0  0  0  0  0  2  0  0  0  0  0  0
  -31.5060  -14.4550   20.1110 N   0  0  0  0  0  0  0  0  0  0  0  0
  -33.3790  -15.7570   19.9650 O   0  0  0  0  0  0  0  0  0  0  0  0
  -31.6450  -16.3980   21.2620 N   0  0  0  0  0  0  0  0  0  0  0  0
  -30.7160  -16.1300   21.5390 H   0  0  0  0  0  0  0  0  0  0  0  0
  -26.7560  -15.4450   19.8810 C   0  0  0  0  0  0  0  0  0  0  0  0
  -25.6240  -14.7540   20.2250 C   0  0  0  0  0  0  0  0  0  0  0  0
  -26.0200  -13.3860   20.3530 C   0  0  0  0  0  0  0  0  0  0  0  0
  -27.7710  -14.5030   19.8130 N   0  0  0  0  0  0  0  0  0  0  0  0
  -27.3260  -13.2650   20.1540 N   0  0  0  0  0  0  0  0  0  0  0  0
  -25.2230  -12.1780   20.5910 C   0  0  0  0  0  0  0  0  0  0  0  0
  -25.5090  -11.3080   21.6660 C   0  0  0  0  0  3  0  0  0  0  0  0
  -24.7160  -10.1600   21.8880 C   0  0  0  0  0  3  0  0  0  0  0  0
  -23.6240   -9.8760   21.0340 C   0  0  0  0  0  0  0  0  0  0  0  0
  -23.3600  -10.7340   19.9510 C   0  0  0  0  0  3  0  0  0  0  0  0
  -24.1530  -11.8710   19.7280 C   0  0  0  0  0  3  0  0  0  0  0  0
  -22.8140   -8.7730   21.1540 O   0  0  0  0  0  0  0  0  0  0  0  0
  -22.4790   -8.2570   22.3790 C   0  0  0  0  0  0  0  0  0  0  0  0
  -21.8740   -9.0450   23.3830 C   0  0  0  0  0  3  0  0  0  0  0  0
  -21.4810   -8.4560   24.5990 C   0  0  0  0  0  3  0  0  0  0  0  0
  -21.6880   -7.0800   24.8170 C   0  0  0  0  0  0  0  0  0  0  0  0
  -22.2930   -6.2930   23.8200 C   0  0  0  0  0  3  0  0  0  0  0  0
  -22.6850   -6.8790   22.6040 C   0  0  0  0  0  0  0  0  0  0  0  0
  -23.2420   -6.1110   21.6370 F   0  0  0  0  0  0  0  0  0  0  0  0
  -21.3070   -6.5120   25.9840 F   0  0  0  0  0  0  0  0  0  0  0  0
  -24.2350  -15.3110   20.3420 C   0  0  0  0  0  0  0  0  0  0  0  0
  -23.4190  -14.7380   21.2180 N   0  0  0  0  0  0  0  0  0  0  0  0
  -23.8820  -16.2910   19.6860 O   0  0  0  0  0  0  0  0  0  0  0  0
  -23.7160  -13.9450   21.7660 H   0  0  0  0  0  0  0  0  0  0  0  0
  -22.4830  -15.0980   21.3400 H   0  0  0  0  0  0  0  0  0  0  0  0
  -26.9980  -16.7880   19.6050 N   0  0  0  0  0  0  0  0  0  0  0  0
  -26.2510  -17.4740   19.5890 H   0  0  0  0  0  0  0  0  0  0  0  0
  -27.8920  -17.1680   19.3150 H   0  0  0  0  0  0  0  0  0  0  0  0
  -31.8500  -18.6450   20.3210 C   0  0  0  0  0  0  0  0  0  0  0  0
  -32.8820  -19.3840   19.9300 N   0  0  0  0  0  0  0  0  0  0  0  0
  -30.8100  -18.6140   19.6640 O   0  0  0  0  0  0  0  0  0  0  0  0
  -33.7460  -19.3810   20.4520 H   0  0  0  0  0  0  0  0  0  0  0  0
  -32.8200  -19.9410   19.0910 H   0  0  0  0  0  0  0  0  0  0  0  0
  -27.0450  -22.9940   23.2430 C   0  0  0  0  0  2  0  0  0  0  0  0
  -26.8240  -22.7200   21.7380 C   0  0  0  0  0  2  0  0  0  0  0  0
  -27.6810  -23.4460   20.8690 O   0  0  0  0  0  0  0  0  0  0  0  0
  -29.0340  -23.0130   20.7880 C   0  0  0  0  0  2  0  0  0  0  0  0
  -29.9610  -24.0720   21.4330 C   0  0  0  0  0  2  0  0  0  0  0  0
  -30.1510  -25.3840   20.6270 C   0  0  0  0  0  2  0  0  0  0  0  0
  -28.8130  -26.0920   20.3740 C   0  0  0  0  0  2  0  0  0  0  0  0
  -28.9110  -27.4140   19.8580 O   0  0  0  0  0  0  0  0  0  0  0  0
  -24.6620  -31.8590   23.3820 C   0  0  0  0  0  0  0  0  0  0  0  0
  -27.6880  -28.0430   19.8780 C   0  0  0  0  0  0  0  0  0  0  0  0
  -23.5740  -30.5240   21.6030 C   0  0  0  0  0  3  0  0  0  0  0  0
  -25.1580  -29.2740   20.0420 C   0  0  0  0  0  0  0  0  0  0  0  0
  -26.0530  -31.1400   21.4490 C   0  0  0  0  0  2  0  0  0  0  0  0
  -26.2620  -29.8550   20.6780 C   0  0  0  0  0  0  0  0  0  0  0  0
  -27.5330  -29.2520   20.5850 C   0  0  0  0  0  3  0  0  0  0  0  0
  -26.5670  -27.4730   19.2300 C   0  0  0  0  0  3  0  0  0  0  0  0
  -25.3030  -28.0800   19.3170 C   0  0  0  0  0  3  0  0  0  0  0  0
  -23.8370  -29.9970   20.1670 C   0  0  0  0  0  2  0  0  0  0  0  0
  -24.7800  -31.1830   22.2040 N   0  0  0  0  0  0  0  0  0  0  0  0
  -23.5620  -31.9850   23.9380 O   0  0  0  0  0  0  0  0  0  0  0  0
  -23.0190  -29.3600   22.4560 C   0  0  0  0  0  0  0  0  0  0  0  0
  -21.7200  -29.0680   22.2900 N   0  0  0  0  0  0  0  0  0  0  0  0
  -23.7530  -28.7330   23.2240 O   0  0  0  0  0  0  0  0  0  0  0  0
  -21.1850  -29.6310   21.6430 H   0  0  0  0  0  0  0  0  0  0  0  0
  -18.4790  -27.5090   22.5930 C   0  0  0  0  0  0  0  0  0  0  0  0
  -20.9890  -27.9930   22.9600 C   0  0  0  0  0  3  0  0  0  0  0  0
  -21.2490  -26.6330   22.2730 C   0  0  0  0  0  2  0  0  0  0  0  0
  -20.2080  -26.2910   21.1990 C   0  0  0  0  0  2  0  0  0  0  0  0
  -18.8050  -26.2470   21.8080 C   0  0  0  0  0  2  0  0  0  0  0  0
  -19.5050  -28.3370   23.1170 C   0  0  0  0  0  0  0  0  0  0  0  0
  -19.1470  -29.5170   23.8050 C   0  0  0  0  0  3  0  0  0  0  0  0
  -17.7950  -29.8710   23.9740 C   0  0  0  0  0  3  0  0  0  0  0  0
  -16.7830  -29.0400   23.4650 C   0  0  0  0  0  3  0  0  0  0  0  0
  -17.1270  -27.8610   22.7820 C   0  0  0  0  0  3  0  0  0  0  0  0
  -25.8890  -32.5320   24.0680 C   0  0  0  0  0  3  0  0  0  0  0  0
  -25.4870  -33.8890   24.4670 N   0  0  0  0  0  0  0  0  0  0  0  0
  -25.7790  -34.9990   23.7790 C   0  0  0  0  0  0  0  0  0  0  0  0
  -26.4910  -34.9950   22.7700 O   0  0  0  0  0  0  0  0  0  0  0  0
  -24.8580  -33.9620   25.2540 H   0  0  0  0  0  0  0  0  0  0  0  0
  -23.9600  -36.7070   23.4590 C   0  0  0  0  0  1  0  0  0  0  0  0
  -25.1910  -36.3270   24.2950 C   0  0  0  0  0  3  0  0  0  0  0  0
  -27.2370  -37.2850   25.2570 C   0  0  0  0  0  1  0  0  0  0  0  0
  -26.1590  -37.4440   24.2820 N   0  0  0  0  0  0  0  0  0  0  0  0
  -25.6910  -38.3250   24.4710 H   0  0  0  0  0  0  0  0  0  0  0  0
  -26.4340  -31.7230   25.3090 C   0  0  1  0  0  0  0  0  0  0  0  0
  -25.3430  -31.3540   26.3400 C   0  0  0  0  0  1  0  0  0  0  0  0
  -27.1110  -30.4100   24.8490 C   0  0  0  0  0  1  0  0  0  0  0  0
  -27.5150  -32.5520   26.0420 C   0  0  0  0  0  1  0  0  0  0  0  0
  2  1  1  0
  2  3  1  0
  4  3  1  0
  5  4  1  0
  6  5  1  0
  7  6  1  0
  8 16  1  0
  9 14  1  0
 10 11  1  0
 10  9  1  0
 12 11  1  0
 12 21  1  0
 12 13  1  0
 14  8  1  0
 14 13  1  0
 15  8  2  0
 16 17  1  0
 16  7  1  0
 18 19  2  0
 19 38  1  0
 19 20  1  0
 20 23  1  0
 21 18  1  0
 21 22  1  0
 22 20  2  0
 23 24  1  0
 24 25  2  0
 26 29  1  0
 26 25  1  0
 27 26  2  0
 28 27  1  0
 28 23  2  0
 29 30  1  0
 30 35  2  0
 30 31  1  0
 31 32  2  0
 32 33  1  0
 33 37  1  0
 34 33  2  0
 35 34  1  0
 36 35  1  0
 38 39  1  0
 39 42  1  0
 39 41  1  0
 40 38  2  0
 43 18  1  0
 44 43  1  0
 45 43  1  0
 46  7  1  0
 47 46  1  0
 47 49  1  0
 48 46  2  0
 50 47  1  0
 51  1  1  0
 52 51  1  0
 53 52  1  0
 54 53  1  0
 54 55  1  0
 56 55  1  0
 57 56  1  0
 58 60  1  0
 58 57  1  0
 59 70  2  0
 60 65  1  0
 61 69  1  0
 61 71  1  0
 62 68  1  0
 62 64  1  0
 63 69  1  0
 64 63  1  0
 65 64  2  0
 66 67  1  0
 66 60  2  0
 67 62  2  0
 68 61  1  0
 69 59  1  0
 71 73  2  0
 72 71  1  0
 74 72  1  0
 75 84  2  0
 75 80  1  0
 76 72  1  0
 76 80  1  0
 77 76  1  0
 78 79  1  0
 78 77  1  0
 79 75  1  0
 80 81  2  0
 81 82  1  0
 83 82  2  0
 84 83  1  0
 85 59  1  0
 85 86  1  0
 85 95  1  0
 86 89  1  0
 87 91  1  0
 87 86  1  0
 88 87  2  0
 91 90  1  0
 93 91  1  0
 93 94  1  0
 93 92  1  0
 95 98  1  1
 95 96  1  0
 97 95  1  0
M  ISO  4   8 100  16 100  57 101  58 101
M  END
>  <TORSDO>  (7) 
F 30

>  <SCORE>  (7) 
0.213

>  <name>  (7) 
6

>  <ligand_id>  (7) 
6

>  <original_smiles>  (7) 
[H]c1c([H])c([H])c2c(c1[H])C([H])([H])C([H])([H])C([H])([H])C2([H])N([H])C(=O)C1([H])N(C(=O)C([H])(N([H])C(=O)C([H])(N([H])C([H])([H])[H])C([H])([H])[H])C(C([H])([H])[H])(C([H])([H])[H])C([H])([H])[H])C([H])([H])c2c([H])c(OC([H])([H])C([H])([H])C([H])([H])C([H])([H])OC([H])([H])C([H])([H])C([H])([H])OC([H])([H])C([H])([H])OC([H])([H])C([H])(C(=O)N([H])[H])N([H])C(=O)N3C([H])([H])C([H])([H])C([H])([H])C([H])(n4nc(-c5c([H])c([H])c(Oc6c([H])c([H])c(F)c([H])c6F)c([H])c5[H])c(C(=O)N([H])[H])c4N([H])[H])C3([H])[H])c([H])c([H])c2C1([H])[H]

>  <smiles>  (7) 
[H]c1c([H])c([H])c2c(c1[H])C([H])([H])C([H])([H])C([H])([H])C2([H])N([H])C(=O)C1([H])N(C(=O)C([H])(N([H])C(=O)C([H])(N([H])C([H])([H])[H])C([H])([H])[H])C(C([H])([H])[H])(C([H])([H])[H])C([H])([H])[H])C([H])([H])c2c([H])c(OC([H])([H])C([H])([H])C([H])([H])C([H])([H])OC([H])([H])C([H])([H])C([H])([H])OC([H])([H])C([H])([H])OC([H])([H])C([H])(C(=O)N([H])[H])N([H])C(=O)N3C([H])([H])C([H])([H])C([H])([H])C([H])(n4nc(-c5c([H])c([H])c(Oc6c([H])c([H])c(F)c([H])c6F)c([H])c5[H])c(C(=O)N([H])[H])c4N([H])[H])C3([H])[H])c([H])c([H])c2C1([H])[H]

$$$$
7:0:0
     RDKit          3D

100107  0  0  1  0  0  0  0  0999 V2000
  -34.6350  -20.0640   18.0770 C   0  0  0  0  0  2  0  0  0  0  0  0
  -33.7240  -19.4030   20.2990 C   0  0  0  0  0  0  0  0  0  0  0  0
  -33.8480  -20.2640   19.2850 N   0  0  0  0  0  0  0  0  0  0  0  0
  -34.3600  -18.3490   20.3670 O   0  0  0  0  0  0  0  0  0  0  0  0
  -33.2860  -21.1040   19.3070 H   0  0  0  0  0  0  0  0  0  0  0  0
  -33.4020  -19.9880   22.7740 C   0  0  0  0  0  1  0  0  0  0  0  0
  -32.7250  -19.7790   21.4090 C   0  0  0  0  0  3  0  0  0  0  0  0
  -30.8970  -18.1830   20.6720 C   0  0  0  0  0  0  0  0  0  0  0  0
  -31.6380  -18.8190   21.5860 N   0  0  0  0  0  0  0  0  0  0  0  0
  -31.0580  -18.2680   19.4540 O   0  0  0  0  0  0  0  0  0  0  0  0
  -31.3740  -18.6420   22.5430 H   0  0  0  0  0  0  0  0  0  0  0  0
  -28.3880  -18.1630   21.0730 C   0  0  0  0  0  1  0  0  0  0  0  0
  -29.7130  -17.3990   21.2500 C   0  0  0  0  0  3  0  0  0  0  0  0
  -30.3860  -15.1060   20.2960 C   0  0  0  0  0  0  0  0  0  0  0  0
  -30.3710  -12.8060   19.3930 C   0  0  0  0  0  2  0  0  0  0  0  0
  -29.4370  -12.7100   18.1670 C   0  0  0  0  0  2  0  0  0  0  0  0
  -27.9710  -12.4830   18.5960 C   0  0  0  0  0  2  0  0  0  0  0  0
  -27.5100  -13.4740   19.6940 C   0  0  0  0  0  3  0  0  0  0  0  0
  -28.5400  -13.4900   20.8430 C   0  0  0  0  0  2  0  0  0  0  0  0
  -29.8490  -13.8590   20.2700 N   0  0  0  0  0  0  0  0  0  0  0  0
  -31.4890  -15.3780   19.8140 O   0  0  0  0  0  0  0  0  0  0  0  0
  -29.5460  -16.0090   20.8290 N   0  0  0  0  0  0  0  0  0  0  0  0
  -28.6600  -15.6130   21.0880 H   0  0  0  0  0  0  0  0  0  0  0  0
  -25.1150  -14.0090   20.4770 C   0  0  0  0  0  0  0  0  0  0  0  0
  -24.0690  -13.1990   20.8310 C   0  0  0  0  0  0  0  0  0  0  0  0
  -24.5570  -11.8590   20.7370 C   0  0  0  0  0  0  0  0  0  0  0  0
  -26.1700  -13.1570   20.1840 N   0  0  0  0  0  0  0  0  0  0  0  0
  -25.8400  -11.8580   20.4010 N   0  0  0  0  0  0  0  0  0  0  0  0
  -23.8640  -10.5730   20.8870 C   0  0  0  0  0  0  0  0  0  0  0  0
  -24.3600   -9.5660   21.7430 C   0  0  0  0  0  3  0  0  0  0  0  0
  -23.6670   -8.3430   21.8820 C   0  0  0  0  0  3  0  0  0  0  0  0
  -22.4700   -8.1200   21.1630 C   0  0  0  0  0  0  0  0  0  0  0  0
  -21.9940   -9.1180   20.2960 C   0  0  0  0  0  3  0  0  0  0  0  0
  -22.6870  -10.3330   20.1540 C   0  0  0  0  0  3  0  0  0  0  0  0
  -21.7440   -6.9540   21.2160 O   0  0  0  0  0  0  0  0  0  0  0  0
  -21.7830   -6.1310   22.3100 C   0  0  0  0  0  0  0  0  0  0  0  0
  -21.4300   -6.5880   23.5990 C   0  0  0  0  0  3  0  0  0  0  0  0
  -21.4130   -5.6910   24.6850 C   0  0  0  0  0  3  0  0  0  0  0  0
  -21.7440   -4.3370   24.4880 C   0  0  0  0  0  0  0  0  0  0  0  0
  -22.0930   -3.8790   23.2050 C   0  0  0  0  0  3  0  0  0  0  0  0
  -22.1100   -4.7730   22.1200 C   0  0  0  0  0  0  0  0  0  0  0  0
  -22.4270   -4.3210   20.8820 F   0  0  0  0  0  0  0  0  0  0  0  0
  -21.7220   -3.4750   25.5290 F   0  0  0  0  0  0  0  0  0  0  0  0
  -22.6660  -13.6310   21.1480 C   0  0  0  0  0  0  0  0  0  0  0  0
  -21.9750  -12.8920   22.0090 N   0  0  0  0  0  0  0  0  0  0  0  0
  -22.1890  -14.6570   20.6650 O   0  0  0  0  0  0  0  0  0  0  0  0
  -22.3720  -12.0620   22.4230 H   0  0  0  0  0  0  0  0  0  0  0  0
  -21.0340  -13.1640   22.2580 H   0  0  0  0  0  0  0  0  0  0  0  0
  -25.2470  -15.3890   20.3610 N   0  0  0  0  0  0  0  0  0  0  0  0
  -24.4660  -16.0200   20.5100 H   0  0  0  0  0  0  0  0  0  0  0  0
  -26.0690  -15.8600   20.0090 H   0  0  0  0  0  0  0  0  0  0  0  0
  -33.8560  -20.5770   16.8580 C   0  0  0  0  0  2  0  0  0  0  0  0
  -33.2870  -21.8570   17.1350 O   0  0  0  0  0  0  0  0  0  0  0  0
  -32.5300  -22.3520   16.0350 C   0  0  0  0  0  2  0  0  0  0  0  0
  -32.0780  -23.7910   16.3120 C   0  0  0  0  0  2  0  0  0  0  0  0
  -30.9170  -23.8990   17.3160 C   0  0  0  0  0  2  0  0  0  0  0  0
  -30.8560  -25.2030   17.8940 O   0  0  0  0  0  0  0  0  0  0  0  0
  -30.1200  -26.1760   17.1520 C   0  0  0  0  0  2  0  0  0  0  0  0
  -28.6260  -26.1880   17.5290 C   0  0  0  0  0  2  0  0  0  0  0  0
  -28.4320  -26.6530   18.8720 O   0  0  0  0  0  0  0  0  0  0  0  0
  -24.8170  -31.3300   22.8650 C   0  0  0  0  0  0  0  0  0  0  0  0
  -27.2420  -27.3100   19.0980 C   0  0  0  0  0  0  0  0  0  0  0  0
  -23.4980  -30.1410   21.1370 C   0  0  0  0  0  3  0  0  0  0  0  0
  -24.8500  -28.7720   19.4610 C   0  0  0  0  0  0  0  0  0  0  0  0
  -26.0090  -30.5080   20.8410 C   0  0  0  0  0  2  0  0  0  0  0  0
  -26.0420  -29.2200   20.0440 C   0  0  0  0  0  0  0  0  0  0  0  0
  -27.2360  -28.4860   19.8770 C   0  0  0  0  0  3  0  0  0  0  0  0
  -26.0270  -26.8510   18.5420 C   0  0  0  0  0  3  0  0  0  0  0  0
  -24.8340  -27.5760   18.7170 C   0  0  0  0  0  3  0  0  0  0  0  0
  -23.6200  -29.6270   19.6770 C   0  0  0  0  0  2  0  0  0  0  0  0
  -24.7950  -30.6680   21.6740 N   0  0  0  0  0  0  0  0  0  0  0  0
  -23.7730  -31.5500   23.4920 O   0  0  0  0  0  0  0  0  0  0  0  0
  -22.8890  -29.0210   22.0090 C   0  0  0  0  0  0  0  0  0  0  0  0
  -21.5560  -28.8860   21.9590 N   0  0  0  0  0  0  0  0  0  0  0  0
  -23.6090  -28.2810   22.6840 O   0  0  0  0  0  0  0  0  0  0  0  0
  -21.0360  -29.5370   21.3880 H   0  0  0  0  0  0  0  0  0  0  0  0
  -18.1850  -27.7420   22.5800 C   0  0  0  0  0  0  0  0  0  0  0  0
  -20.7650  -27.8790   22.6660 C   0  0  0  0  0  3  0  0  0  0  0  0
  -20.7580  -26.5410   21.8940 C   0  0  0  0  0  2  0  0  0  0  0  0
  -19.5650  -26.3960   20.9430 C   0  0  0  0  0  2  0  0  0  0  0  0
  -18.2470  -26.4950   21.7160 C   0  0  0  0  0  2  0  0  0  0  0  0
  -19.3660  -28.4030   23.0130 C   0  0  0  0  0  0  0  0  0  0  0  0
  -19.2490  -29.5800   23.7830 C   0  0  0  0  0  3  0  0  0  0  0  0
  -17.9840  -30.0960   24.1210 C   0  0  0  0  0  3  0  0  0  0  0  0
  -16.8190  -29.4310   23.7000 C   0  0  0  0  0  3  0  0  0  0  0  0
  -16.9210  -28.2550   22.9400 C   0  0  0  0  0  3  0  0  0  0  0  0
  -26.1490  -31.8670   23.4820 C   0  0  0  0  0  3  0  0  0  0  0  0
  -25.8850  -33.2170   23.9980 N   0  0  0  0  0  0  0  0  0  0  0  0
  -26.2090  -34.3490   23.3590 C   0  0  0  0  0  0  0  0  0  0  0  0
  -26.8400  -34.3640   22.2970 O   0  0  0  0  0  0  0  0  0  0  0  0
  -25.3300  -33.2790   24.8380 H   0  0  0  0  0  0  0  0  0  0  0  0
  -24.5050  -36.1940   23.2870 C   0  0  0  0  0  1  0  0  0  0  0  0
  -25.7630  -35.6770   24.0000 C   0  0  0  0  0  3  0  0  0  0  0  0
  -27.9430  -36.4140   24.8600 C   0  0  0  0  0  1  0  0  0  0  0  0
  -26.8140  -36.7180   23.9830 N   0  0  0  0  0  0  0  0  0  0  0  0
  -26.4300  -37.6180   24.2570 H   0  0  0  0  0  0  0  0  0  0  0  0
  -26.7290  -30.9360   24.6160 C   0  0  1  0  0  0  0  0  0  0  0  0
  -25.7070  -30.5790   25.7190 C   0  0  0  0  0  1  0  0  0  0  0  0
  -27.2530  -29.6100   24.0140 C   0  0  0  0  0  1  0  0  0  0  0  0
  -27.9350  -31.6290   25.2960 C   0  0  0  0  0  1  0  0  0  0  0  0
  1  3  1  0
  2  4  2  0
  2  7  1  0
  3  5  1  0
  3  2  1  0
  7  9  1  0
  7  6  1  0
  8 13  1  0
  8  9  1  0
  9 11  1  0
 10  8  2  0
 13 12  1  0
 14 22  1  0
 15 20  1  0
 16 17  1  0
 16 15  1  0
 18 17  1  0
 18 27  1  0
 18 19  1  0
 20 14  1  0
 20 19  1  0
 21 14  2  0
 22 23  1  0
 22 13  1  0
 24 25  2  0
 25 44  1  0
 26 25  1  0
 26 29  1  0
 27 28  1  0
 27 24  1  0
 28 26  2  0
 29 30  1  0
 30 31  2  0
 32 35  1  0
 32 31  1  0
 33 32  2  0
 34 33  1  0
 34 29  2  0
 35 36  1  0
 36 37  1  0
 37 38  2  0
 39 38  1  0
 39 43  1  0
 40 39  2  0
 41 36  2  0
 41 40  1  0
 42 41  1  0
 44 45  1  0
 45 48  1  0
 45 47  1  0
 46 44  2  0
 49 24  1  0
 49 50  1  0
 51 49  1  0
 52 53  1  0
 52  1  1  0
 54 55  1  0
 54 53  1  0
 55 56  1  0
 56 57  1  0
 58 59  1  0
 58 57  1  0
 59 60  1  0
 60 62  1  0
 61 72  2  0
 62 67  1  0
 63 71  1  0
 63 73  1  0
 64 70  1  0
 64 66  1  0
 65 71  1  0
 66 65  1  0
 67 66  2  0
 68 69  1  0
 68 62  2  0
 69 64  2  0
 70 63  1  0
 71 61  1  0
 73 75  2  0
 74 73  1  0
 76 74  1  0
 77 86  2  0
 77 82  1  0
 78 74  1  0
 78 82  1  0
 79 78  1  0
 80 81  1  0
 80 79  1  0
 81 77  1  0
 82 83  2  0
 83 84  1  0
 85 84  2  0
 86 85  1  0
 87 61  1  0
 87 88  1  0
 87 97  1  0
 88 91  1  0
 89 88  1  0
 89 93  1  0
 90 89  2  0
 93 92  1  0
 95 93  1  0
 95 96  1  0
 95 94  1  0
 97100  1  1
 97 98  1  0
 99 97  1  0
M  ISO  4  14 100  22 100  59 101  60 101
M  END
>  <TORSDO>  (8) 
F 28

>  <SCORE>  (8) 
-9.751

>  <name>  (8) 
7

>  <ligand_id>  (8) 
7

>  <original_smiles>  (8) 
[H]c1c([H])c([H])c2c(c1[H])C([H])([H])C([H])([H])C([H])([H])C2([H])N([H])C(=O)C1([H])N(C(=O)C([H])(N([H])C(=O)C([H])(N([H])C([H])([H])[H])C([H])([H])[H])C(C([H])([H])[H])(C([H])([H])[H])C([H])([H])[H])C([H])([H])c2c([H])c(OC([H])([H])C([H])([H])OC([H])([H])C([H])([H])C([H])([H])OC([H])([H])C([H])([H])N([H])C(=O)C([H])(N([H])C(=O)C([H])(N([H])C(=O)N3C([H])([H])C([H])([H])C([H])([H])C([H])(n4nc(-c5c([H])c([H])c(Oc6c([H])c([H])c(F)c([H])c6F)c([H])c5[H])c(C(=O)N([H])[H])c4N([H])[H])C3([H])[H])C([H])([H])[H])C([H])([H])[H])c([H])c([H])c2C1([H])[H]

>  <smiles>  (8) 
[H]c1c([H])c([H])c2c(c1[H])C([H])([H])C([H])([H])C([H])([H])C2([H])N([H])C(=O)C1([H])N(C(=O)C([H])(N([H])C(=O)C([H])(N([H])C([H])([H])[H])C([H])([H])[H])C(C([H])([H])[H])(C([H])([H])[H])C([H])([H])[H])C([H])([H])c2c([H])c(OC([H])([H])C([H])([H])OC([H])([H])C([H])([H])C([H])([H])OC([H])([H])C([H])([H])N([H])C(=O)C([H])(N([H])C(=O)C([H])(N([H])C(=O)N3C([H])([H])C([H])([H])C([H])([H])C([H])(n4nc(-c5c([H])c([H])c(Oc6c([H])c([H])c(F)c([H])c6F)c([H])c5[H])c(C(=O)N([H])[H])c4N([H])[H])C3([H])[H])C([H])([H])[H])C([H])([H])[H])c([H])c([H])c2C1([H])[H]

$$$$
9:0:0
     RDKit          3D

102109  0  0  1  0  0  0  0  0999 V2000
  -23.1610  -23.4770   16.5180 C   0  0  0  0  0  2  0  0  0  0  0  0
  -23.1690  -24.7310   17.4130 C   0  0  0  0  0  2  0  0  0  0  0  0
  -23.9140  -24.5540   18.6170 O   0  0  0  0  0  0  0  0  0  0  0  0
  -23.2140  -23.8950   19.6720 C   0  0  0  0  0  2  0  0  0  0  0  0
  -24.0400  -24.1060   20.9490 C   0  0  0  0  0  2  0  0  0  0  0  0
  -25.4590  -23.7490   20.7240 N   0  0  0  0  0  4  0  0  0  0  0  0
  -25.5650  -22.7460   20.7390 H   0  0  0  0  0  0  0  0  0  0  0  0
  -25.6680  -24.0680   19.7900 H   0  0  0  0  0  0  0  0  0  0  0  0
  -26.4090  -24.3560   21.6870 C   0  0  0  0  0  2  0  0  0  0  0  0
  -27.8770  -24.3040   21.2090 C   0  0  0  0  0  2  0  0  0  0  0  0
  -28.2460  -25.1050   19.9350 C   0  0  0  0  0  2  0  0  0  0  0  0
  -28.2700  -26.5220   20.1210 O   0  0  0  0  0  0  0  0  0  0  0  0
  -24.5830  -31.6860   23.2820 C   0  0  0  0  0  0  0  0  0  0  0  0
  -27.0970  -27.2440   20.1030 C   0  0  0  0  0  0  0  0  0  0  0  0
  -23.3350  -30.3530   21.6130 C   0  0  0  0  0  3  0  0  0  0  0  0
  -24.7380  -28.8020   20.1600 C   0  0  0  0  0  0  0  0  0  0  0  0
  -25.8670  -30.6380   21.4250 C   0  0  0  0  0  2  0  0  0  0  0  0
  -25.9080  -29.2780   20.7630 C   0  0  0  0  0  0  0  0  0  0  0  0
  -27.0850  -28.5030   20.7410 C   0  0  0  0  0  3  0  0  0  0  0  0
  -25.9160  -26.7970   19.4650 C   0  0  0  0  0  3  0  0  0  0  0  0
  -24.7360  -27.5570   19.5110 C   0  0  0  0  0  3  0  0  0  0  0  0
  -23.5230  -29.6940   20.2200 C   0  0  0  0  0  2  0  0  0  0  0  0
  -24.6130  -30.9070   22.1640 N   0  0  0  0  0  0  0  0  0  0  0  0
  -23.5120  -31.9810   23.8280 O   0  0  0  0  0  0  0  0  0  0  0  0
  -22.6550  -29.3340   22.5540 C   0  0  0  0  0  0  0  0  0  0  0  0
  -21.3340  -29.1560   22.3880 N   0  0  0  0  0  0  0  0  0  0  0  0
  -23.3120  -28.7030   23.3850 O   0  0  0  0  0  0  0  0  0  0  0  0
  -20.8630  -29.7250   21.6970 H   0  0  0  0  0  0  0  0  0  0  0  0
  -17.9490  -27.9630   22.7720 C   0  0  0  0  0  0  0  0  0  0  0  0
  -20.4940  -28.2210   23.1340 C   0  0  0  0  0  3  0  0  0  0  0  0
  -20.6170  -26.7880   22.5650 C   0  0  0  0  0  2  0  0  0  0  0  0
  -19.5520  -26.4650   21.5130 C   0  0  0  0  0  2  0  0  0  0  0  0
  -18.1480  -26.6120   22.1050 C   0  0  0  0  0  2  0  0  0  0  0  0
  -19.0520  -28.7260   23.2400 C   0  0  0  0  0  0  0  0  0  0  0  0
  -18.8150  -29.9940   23.8130 C   0  0  0  0  0  3  0  0  0  0  0  0
  -17.5060  -30.4980   23.9310 C   0  0  0  0  0  3  0  0  0  0  0  0
  -16.4170  -29.7330   23.4810 C   0  0  0  0  0  3  0  0  0  0  0  0
  -16.6380  -28.4690   22.9060 C   0  0  0  0  0  3  0  0  0  0  0  0
  -25.8920  -32.2630   23.9110 C   0  0  0  0  0  3  0  0  0  0  0  0
  -25.6490  -33.6810   24.2070 N   0  0  0  0  0  0  0  0  0  0  0  0
  -26.0320  -34.6970   23.4230 C   0  0  0  0  0  0  0  0  0  0  0  0
  -26.7000  -34.5370   22.3980 O   0  0  0  0  0  0  0  0  0  0  0  0
  -25.0570  -33.8850   24.9980 H   0  0  0  0  0  0  0  0  0  0  0  0
  -24.3790  -36.5540   23.0320 C   0  0  0  0  0  1  0  0  0  0  0  0
  -25.6070  -36.1170   23.8460 C   0  0  0  0  0  3  0  0  0  0  0  0
  -27.7800  -36.9330   24.6450 C   0  0  0  0  0  1  0  0  0  0  0  0
  -26.6820  -37.1220   23.6990 N   0  0  0  0  0  0  0  0  0  0  0  0
  -26.3160  -38.0620   23.8220 H   0  0  0  0  0  0  0  0  0  0  0  0
  -26.3510  -31.4900   25.2090 C   0  0  1  0  0  0  0  0  0  0  0  0
  -25.2300  -31.3150   26.2590 C   0  0  0  0  0  1  0  0  0  0  0  0
  -26.8860  -30.0830   24.8470 C   0  0  0  0  0  1  0  0  0  0  0  0
  -27.5180  -32.2490   25.8830 C   0  0  0  0  0  1  0  0  0  0  0  0
  -24.5710  -22.9590   16.1590 C   0  0  0  0  0  2  0  0  0  0  0  0
  -24.9360  -21.7690   16.9600 N   0  0  0  0  0  4  0  0  0  0  0  0
  -24.3100  -21.7170   17.7450 H   0  0  0  0  0  0  0  0  0  0  0  0
  -24.7800  -20.9440   16.4010 H   0  0  0  0  0  0  0  0  0  0  0  0
  -26.3280  -21.7600   17.4640 C   0  0  0  0  0  2  0  0  0  0  0  0
  -26.5690  -20.5770   18.4200 C   0  0  0  0  0  2  0  0  0  0  0  0
  -28.0080  -20.5150   18.9460 C   0  0  0  0  0  2  0  0  0  0  0  0
  -28.1280  -19.3720   19.7810 O   0  0  0  0  0  0  0  0  0  0  0  0
  -29.4440  -19.2000   20.2830 C   0  0  0  0  0  2  0  0  0  0  0  0
  -29.5120  -17.8770   21.0520 C   0  0  0  0  0  2  0  0  0  0  0  0
  -30.9510  -17.5490   21.4920 C   0  0  0  0  0  2  0  0  0  0  0  0
  -31.0950  -16.2340   22.2840 C   0  0  0  0  0  2  0  0  0  0  0  0
  -30.8550  -14.4380   20.5530 C   0  0  0  0  0  0  0  0  0  0  0  0
  -30.3970  -12.5480   19.0340 C   0  0  0  0  0  2  0  0  0  0  0  0
  -29.4310  -12.9490   17.9040 C   0  0  0  0  0  2  0  0  0  0  0  0
  -27.9660  -12.7990   18.3560 C   0  0  0  0  0  2  0  0  0  0  0  0
  -27.6930  -13.4780   19.7230 C   0  0  0  0  0  3  0  0  0  0  0  0
  -28.7550  -13.0550   20.7600 C   0  0  0  0  0  2  0  0  0  0  0  0
  -30.0910  -13.3700   20.2130 N   0  0  0  0  0  0  0  0  0  0  0  0
  -31.8710  -14.7750   19.9350 O   0  0  0  0  0  0  0  0  0  0  0  0
  -30.4440  -15.0940   21.6450 N   0  0  0  0  0  0  0  0  0  0  0  0
  -29.6150  -14.7300   22.0910 H   0  0  0  0  0  0  0  0  0  0  0  0
  -25.2840  -14.0710   20.4170 C   0  0  0  0  0  0  0  0  0  0  0  0
  -24.2220  -13.2900   20.7870 C   0  0  0  0  0  0  0  0  0  0  0  0
  -24.6950  -11.9420   20.7650 C   0  0  0  0  0  0  0  0  0  0  0  0
  -26.3390  -13.1970   20.1950 N   0  0  0  0  0  0  0  0  0  0  0  0
  -25.9860  -11.9130   20.4590 N   0  0  0  0  0  0  0  0  0  0  0  0
  -23.9820  -10.6750   20.9610 C   0  0  0  0  0  0  0  0  0  0  0  0
  -24.3910   -9.7400   21.9380 C   0  0  0  0  0  3  0  0  0  0  0  0
  -23.6780   -8.5350   22.1190 C   0  0  0  0  0  3  0  0  0  0  0  0
  -22.5410   -8.2560   21.3230 C   0  0  0  0  0  0  0  0  0  0  0  0
  -22.1510   -9.1800   20.3370 C   0  0  0  0  0  3  0  0  0  0  0  0
  -22.8660  -10.3750   20.1540 C   0  0  0  0  0  3  0  0  0  0  0  0
  -21.8020   -7.1020   21.4110 O   0  0  0  0  0  0  0  0  0  0  0  0
  -21.6810   -6.4130   22.5920 C   0  0  0  0  0  0  0  0  0  0  0  0
  -21.1380   -7.0090   23.7500 C   0  0  0  0  0  3  0  0  0  0  0  0
  -20.9670   -6.2450   24.9220 C   0  0  0  0  0  3  0  0  0  0  0  0
  -21.3300   -4.8850   24.9350 C   0  0  0  0  0  0  0  0  0  0  0  0
  -21.8660   -4.2880   23.7810 C   0  0  0  0  0  3  0  0  0  0  0  0
  -22.0380   -5.0490   22.6110 C   0  0  0  0  0  0  0  0  0  0  0  0
  -22.5350   -4.4640   21.4950 F   0  0  0  0  0  0  0  0  0  0  0  0
  -21.1590   -4.1480   26.0570 F   0  0  0  0  0  0  0  0  0  0  0  0
  -22.8190  -13.7550   21.0560 C   0  0  0  0  0  0  0  0  0  0  0  0
  -22.1000  -13.0600   21.9310 N   0  0  0  0  0  0  0  0  0  0  0  0
  -22.3680  -14.7690   20.5250 O   0  0  0  0  0  0  0  0  0  0  0  0
  -22.4760  -12.2400   22.3830 H   0  0  0  0  0  0  0  0  0  0  0  0
  -21.1590  -13.3540   22.1540 H   0  0  0  0  0  0  0  0  0  0  0  0
  -25.4370  -15.4410   20.2320 N   0  0  0  0  0  0  0  0  0  0  0  0
  -24.6670  -16.0930   20.3410 H   0  0  0  0  0  0  0  0  0  0  0  0
  -26.2910  -15.8860   19.9200 H   0  0  0  0  0  0  0  0  0  0  0  0
  1  2  1  0
  2  3  1  0
  3  4  1  0
  4  5  1  0
  6  7  1  0
  6  5  1  0
  6  9  1  0
  8  6  1  0
 10  9  1  0
 11 12  1  0
 11 10  1  0
 13 24  2  0
 14 12  1  0
 14 19  1  0
 15 23  1  0
 15 25  1  0
 16 22  1  0
 16 18  1  0
 17 23  1  0
 18 17  1  0
 19 18  2  0
 20 21  1  0
 20 14  2  0
 21 16  2  0
 22 15  1  0
 23 13  1  0
 25 27  2  0
 26 25  1  0
 28 26  1  0
 29 38  2  0
 29 34  1  0
 30 26  1  0
 30 34  1  0
 31 30  1  0
 32 33  1  0
 32 31  1  0
 33 29  1  0
 34 35  2  0
 35 36  1  0
 37 36  2  0
 38 37  1  0
 39 13  1  0
 39 40  1  0
 39 49  1  0
 40 43  1  0
 41 45  1  0
 41 40  1  0
 42 41  2  0
 45 44  1  0
 47 48  1  0
 47 45  1  0
 47 46  1  0
 49 52  1  1
 49 50  1  0
 51 49  1  0
 53  1  1  0
 53 54  1  0
 54 57  1  0
 54 55  1  0
 56 54  1  0
 57 58  1  0
 58 59  1  0
 59 60  1  0
 60 61  1  0
 61 62  1  0
 62 63  1  0
 63 64  1  0
 65 73  1  0
 66 71  1  0
 67 68  1  0
 67 66  1  0
 69 68  1  0
 69 78  1  0
 69 70  1  0
 71 65  1  0
 71 70  1  0
 72 65  2  0
 73 74  1  0
 73 64  1  0
 75 76  2  0
 76 95  1  0
 77 76  1  0
 77 80  1  0
 78 75  1  0
 78 79  1  0
 79 77  2  0
 80 81  1  0
 81 82  2  0
 83 86  1  0
 83 82  1  0
 84 83  2  0
 85 84  1  0
 85 80  2  0
 86 87  1  0
 87 92  2  0
 87 88  1  0
 88 89  2  0
 89 90  1  0
 90 94  1  0
 91 90  2  0
 92 91  1  0
 93 92  1  0
 95 96  1  0
 96 99  1  0
 96 98  1  0
 97 95  2  0
100101  1  0
100 75  1  0
102100  1  0
M  ISO  4  11 101  12 101  65 100  73 100
M  END
>  <TORSDO>  (9) 
F 34

>  <SCORE>  (9) 
-9.560

>  <name>  (9) 
9

>  <ligand_id>  (9) 
9

>  <original_smiles>  (9) 
[H]c1c([H])c([H])c2c(c1[H])C([H])([H])C([H])([H])C([H])([H])C2([H])N([H])C(=O)C1([H])N(C(=O)C([H])(N([H])C(=O)C([H])(N([H])C([H])([H])[H])C([H])([H])[H])C(C([H])([H])[H])(C([H])([H])[H])C([H])([H])[H])C([H])([H])c2c([H])c(OC([H])([H])C([H])([H])C([H])([H])[N+]([H])([H])C([H])([H])C([H])([H])OC([H])([H])C([H])([H])C([H])([H])[N+]([H])([H])C([H])([H])C([H])([H])C([H])([H])OC([H])([H])C([H])([H])C([H])([H])C([H])([H])N([H])C(=O)N3C([H])([H])C([H])([H])C([H])([H])C([H])(n4nc(-c5c([H])c([H])c(Oc6c([H])c([H])c(F)c([H])c6F)c([H])c5[H])c(C(=O)N([H])[H])c4N([H])[H])C3([H])[H])c([H])c([H])c2C1([H])[H]

>  <smiles>  (9) 
[H]c1c([H])c([H])c2c(c1[H])C([H])([H])C([H])([H])C([H])([H])C2([H])N([H])C(=O)C1([H])N(C(=O)C([H])(N([H])C(=O)C([H])(N([H])C([H])([H])[H])C([H])([H])[H])C(C([H])([H])[H])(C([H])([H])[H])C([H])([H])[H])C([H])([H])c2c([H])c(OC([H])([H])C([H])([H])C([H])([H])[N+]([H])([H])C([H])([H])C([H])([H])OC([H])([H])C([H])([H])C([H])([H])[N+]([H])([H])C([H])([H])C([H])([H])C([H])([H])OC([H])([H])C([H])([H])C([H])([H])C([H])([H])N([H])C(=O)N3C([H])([H])C([H])([H])C([H])([H])C([H])(n4nc(-c5c([H])c([H])c(Oc6c([H])c([H])c(F)c([H])c6F)c([H])c5[H])c(C(=O)N([H])[H])c4N([H])[H])C3([H])[H])c([H])c([H])c2C1([H])[H]

$$$$
10:0:0
     RDKit          3D

109116  0  0  1  0  0  0  0  0999 V2000
  -23.8400  -21.9910   19.4790 C   0  0  0  0  0  0  0  0  0  0  0  0
  -23.4140  -23.1790   19.9410 N   0  0  0  0  0  0  0  0  0  0  0  0
  -23.1720  -20.9670   19.6370 O   0  0  0  0  0  0  0  0  0  0  0  0
  -23.9930  -23.9810   19.7380 H   0  0  0  0  0  0  0  0  0  0  0  0
  -25.3780  -21.2830   17.6960 C   0  0  0  0  0  3  0  0  0  0  0  0
  -25.1390  -22.0430   18.7870 C   0  0  0  0  0  0  0  0  0  0  0  0
  -26.1090  -22.9420   19.2170 N   0  0  0  0  0  0  0  0  0  0  0  0
  -27.0400  -22.7480   18.8620 H   0  0  0  0  0  0  0  0  0  0  0  0
  -27.2680  -22.1910   21.1010 C   0  0  0  0  0  1  0  0  0  0  0  0
  -26.1460  -22.9350   20.6480 O   0  0  0  0  0  0  0  0  0  0  0  0
  -26.5840  -21.3400   17.0410 O   0  0  0  0  0  0  0  0  0  0  0  0
  -27.5020  -22.3170   17.5320 C   0  0  0  0  0  2  0  0  0  0  0  0
  -28.4850  -22.7120   16.4150 C   0  0  0  0  0  2  0  0  0  0  0  0
  -29.8350  -22.7530   16.8700 O   0  0  0  0  0  0  0  0  0  0  0  0
  -30.0160  -23.2470   18.1960 C   0  0  0  0  0  2  0  0  0  0  0  0
  -30.5080  -24.6970   18.1370 C   0  0  0  0  0  2  0  0  0  0  0  0
  -31.9290  -24.7620   18.2360 O   0  0  0  0  0  0  0  0  0  0  0  0
  -32.3230  -25.5870   19.3220 C   0  0  0  0  0  2  0  0  0  0  0  0
  -32.3610  -27.0730   18.9330 C   0  0  0  0  0  2  0  0  0  0  0  0
  -34.3360  -27.2500   20.5000 C   0  0  0  0  0  0  0  0  0  0  0  0
  -36.2340  -25.8020   21.1070 C   0  0  0  0  0  2  0  0  0  0  0  0
  -37.4480  -26.1060   20.2050 C   0  0  0  0  0  2  0  0  0  0  0  0
  -37.3860  -25.2860   18.9000 C   0  0  0  0  0  2  0  0  0  0  0  0
  -35.9970  -25.3670   18.2130 C   0  0  0  0  0  3  0  0  0  0  0  0
  -34.8810  -25.0960   19.2450 C   0  0  0  0  0  2  0  0  0  0  0  0
  -35.0110  -26.0780   20.3340 N   0  0  0  0  0  0  0  0  0  0  0  0
  -34.5960  -28.0460   21.4010 O   0  0  0  0  0  0  0  0  0  0  0  0
  -33.5560  -27.6890   19.5050 N   0  0  0  0  0  0  0  0  0  0  0  0
  -33.4530  -28.6920   19.5660 H   0  0  0  0  0  0  0  0  0  0  0  0
  -36.0050  -24.7230   15.7150 C   0  0  0  0  0  0  0  0  0  0  0  0
  -35.9050  -23.5120   15.0840 C   0  0  0  0  0  0  0  0  0  0  0  0
  -35.7740  -22.5370   16.1200 C   0  0  0  0  0  0  0  0  0  0  0  0
  -35.9080  -24.4550   17.0740 N   0  0  0  0  0  0  0  0  0  0  0  0
  -35.7190  -23.1300   17.3050 N   0  0  0  0  0  0  0  0  0  0  0  0
  -35.7570  -21.0700   16.0550 C   0  0  0  0  0  0  0  0  0  0  0  0
  -34.5490  -20.3480   15.9370 C   0  0  0  0  0  3  0  0  0  0  0  0
  -34.5620  -18.9390   15.8620 C   0  0  0  0  0  3  0  0  0  0  0  0
  -35.7890  -18.2370   15.8980 C   0  0  0  0  0  0  0  0  0  0  0  0
  -36.9880  -18.9580   16.0400 C   0  0  0  0  0  3  0  0  0  0  0  0
  -36.9730  -20.3600   16.1210 C   0  0  0  0  0  3  0  0  0  0  0  0
  -35.8960  -16.8670   15.8520 O   0  0  0  0  0  0  0  0  0  0  0  0
  -35.3570  -16.1380   14.8240 C   0  0  0  0  0  0  0  0  0  0  0  0
  -35.6180  -16.4470   13.4710 C   0  0  0  0  0  3  0  0  0  0  0  0
  -35.0990  -15.6290   12.4480 C   0  0  0  0  0  3  0  0  0  0  0  0
  -34.3300  -14.4960   12.7760 C   0  0  0  0  0  0  0  0  0  0  0  0
  -34.0710  -14.1830   14.1210 C   0  0  0  0  0  3  0  0  0  0  0  0
  -34.5860  -15.0010   15.1430 C   0  0  0  0  0  0  0  0  0  0  0  0
  -34.3520  -14.6830   16.4390 F   0  0  0  0  0  0  0  0  0  0  0  0
  -33.8390  -13.7040   11.7930 F   0  0  0  0  0  0  0  0  0  0  0  0
  -36.0320  -23.2610   13.6080 C   0  0  0  0  0  0  0  0  0  0  0  0
  -35.3020  -22.2800   13.0850 N   0  0  0  0  0  0  0  0  0  0  0  0
  -36.7450  -23.9690   12.8980 O   0  0  0  0  0  0  0  0  0  0  0  0
  -34.7020  -21.7060   13.6580 H   0  0  0  0  0  0  0  0  0  0  0  0
  -35.3410  -22.1030   12.0910 H   0  0  0  0  0  0  0  0  0  0  0  0
  -36.1950  -26.0190   15.2510 N   0  0  0  0  0  0  0  0  0  0  0  0
  -36.4050  -26.1910   14.2750 H   0  0  0  0  0  0  0  0  0  0  0  0
  -36.4410  -26.7940   15.8550 H   0  0  0  0  0  0  0  0  0  0  0  0
  -22.1650  -23.4270   20.6600 C   0  0  0  0  0  2  0  0  0  0  0  0
  -21.0900  -24.0230   19.7340 C   0  0  0  0  0  2  0  0  0  0  0  0
  -19.7480  -23.2830   19.8300 C   0  0  0  0  0  2  0  0  0  0  0  0
  -19.9590  -22.0050   20.4160 O   0  0  0  0  0  0  0  0  0  0  0  0
  -19.2220  -21.8240   21.6220 C   0  0  0  0  0  2  0  0  0  0  0  0
  -18.0060  -22.7560   21.5610 C   0  0  0  0  0  2  0  0  0  0  0  0
  -17.7690  -23.2050   20.1730 N   0  0  0  0  0  4  0  0  0  0  0  0
  -18.5410  -23.7740   19.8590 H   0  0  0  0  0  0  0  0  0  0  0  0
  -17.7520  -22.3760   19.5950 H   0  0  0  0  0  0  0  0  0  0  0  0
  -16.4890  -23.9190   19.9490 C   0  0  0  0  0  2  0  0  0  0  0  0
  -16.0650  -23.8140   18.4790 C   0  0  0  0  0  2  0  0  0  0  0  0
  -17.2480  -23.4970   17.7520 O   0  0  0  0  0  0  0  0  0  0  0  0
  -21.3500  -25.3880   12.2370 C   0  0  0  0  0  0  0  0  0  0  0  0
  -17.7130  -24.4790   16.9170 C   0  0  0  0  0  0  0  0  0  0  0  0
  -20.4310  -27.2380   13.6010 C   0  0  0  0  0  3  0  0  0  0  0  0
  -18.6320  -26.5810   15.2830 C   0  0  0  0  0  0  0  0  0  0  0  0
  -19.1900  -25.0110   13.4160 C   0  0  0  0  0  2  0  0  0  0  0  0
  -18.6550  -25.2630   14.8080 C   0  0  0  0  0  0  0  0  0  0  0  0
  -18.1920  -24.2050   15.6180 C   0  0  0  0  0  3  0  0  0  0  0  0
  -17.7200  -25.8040   17.3970 C   0  0  0  0  0  3  0  0  0  0  0  0
  -18.1680  -26.8590   16.5800 C   0  0  0  0  0  3  0  0  0  0  0  0
  -19.1300  -27.6520   14.3410 C   0  0  0  0  0  2  0  0  0  0  0  0
  -20.3700  -25.8380   13.0710 N   0  0  0  0  0  0  0  0  0  0  0  0
  -22.2700  -26.1330   11.8710 O   0  0  0  0  0  0  0  0  0  0  0  0
  -21.6320  -27.4860   14.5410 C   0  0  0  0  0  0  0  0  0  0  0  0
  -21.3410  -27.7030   15.8340 N   0  0  0  0  0  0  0  0  0  0  0  0
  -22.7880  -27.4520   14.1130 O   0  0  0  0  0  0  0  0  0  0  0  0
  -20.3680  -27.7210   16.1040 H   0  0  0  0  0  0  0  0  0  0  0  0
  -22.3740  -26.5520   19.0980 C   0  0  0  0  0  0  0  0  0  0  0  0
  -22.3090  -27.9220   16.9080 C   0  0  0  0  0  3  0  0  0  0  0  0
  -23.6680  -27.2620   16.5740 C   0  0  0  0  0  2  0  0  0  0  0  0
  -23.8020  -25.8420   17.1330 C   0  0  0  0  0  2  0  0  0  0  0  0
  -23.6460  -25.8480   18.6570 C   0  0  0  0  0  2  0  0  0  0  0  0
  -21.7390  -27.5150   18.2710 C   0  0  0  0  0  0  0  0  0  0  0  0
  -20.5390  -28.1150   18.7130 C   0  0  0  0  0  3  0  0  0  0  0  0
  -19.9790  -27.7710   19.9570 C   0  0  0  0  0  3  0  0  0  0  0  0
  -20.6210  -26.8290   20.7800 C   0  0  0  0  0  3  0  0  0  0  0  0
  -21.8160  -26.2260   20.3520 C   0  0  0  0  0  3  0  0  0  0  0  0
  -21.3490  -23.9280   11.6850 C   0  0  0  0  0  3  0  0  0  0  0  0
  -22.1140  -22.9090   12.6160 C   0  0  1  0  0  0  0  0  0  0  0  0
  -23.4650  -23.4440   13.1430 C   0  0  0  0  0  1  0  0  0  0  0  0
  -21.2450  -22.5300   13.8380 C   0  0  0  0  0  1  0  0  0  0  0  0
  -22.3890  -21.5970   11.8430 C   0  0  0  0  0  1  0  0  0  0  0  0
  -21.9500  -23.9630   10.3450 N   0  0  0  0  0  0  0  0  0  0  0  0
  -21.2580  -24.1030    9.2060 C   0  0  0  0  0  0  0  0  0  0  0  0
  -20.0250  -24.1450    9.1710 O   0  0  0  0  0  0  0  0  0  0  0  0
  -22.9580  -23.9890   10.3010 H   0  0  0  0  0  0  0  0  0  0  0  0
  -22.1670  -25.6920    7.4810 C   0  0  0  0  0  1  0  0  0  0  0  0
  -22.0630  -24.2160    7.8980 C   0  0  0  0  0  3  0  0  0  0  0  0
  -21.6470  -21.9830    6.9650 C   0  0  0  0  0  1  0  0  0  0  0  0
  -21.4920  -23.4240    6.7860 N   0  0  0  0  0  0  0  0  0  0  0  0
  -21.9220  -23.6820    5.9010 H   0  0  0  0  0  0  0  0  0  0  0  0
  1  3  2  0
  1  2  1  0
  2 58  1  0
  4  2  1  0
  5  6  2  0
  6  7  1  0
  6  1  1  0
  7 10  1  0
  8  7  1  0
 10  9  1  0
 11 12  1  0
 11  5  1  0
 13 14  1  0
 13 12  1  0
 14 15  1  0
 16 15  1  0
 16 17  1  0
 17 18  1  0
 19 18  1  0
 19 28  1  0
 20 27  2  0
 22 21  1  0
 23 22  1  0
 24 33  1  0
 24 23  1  0
 24 25  1  0
 25 26  1  0
 26 20  1  0
 26 21  1  0
 28 29  1  0
 28 20  1  0
 30 33  1  0
 31 30  2  0
 31 32  1  0
 32 34  2  0
 33 34  1  0
 35 32  1  0
 35 40  1  0
 36 35  2  0
 37 38  2  0
 37 36  1  0
 38 39  1  0
 39 40  2  0
 41 38  1  0
 42 47  1  0
 42 41  1  0
 43 42  2  0
 44 45  2  0
 44 43  1  0
 45 46  1  0
 46 47  2  0
 47 48  1  0
 49 45  1  0
 50 31  1  0
 51 50  1  0
 51 53  1  0
 52 50  2  0
 54 51  1  0
 55 30  1  0
 55 57  1  0
 56 55  1  0
 59 60  1  0
 59 58  1  0
 60 61  1  0
 61 62  1  0
 63 62  1  0
 64 63  1  0
 65 64  1  0
 66 64  1  0
 67 64  1  0
 68 67  1  0
 69 68  1  0
 70 80  1  0
 71 77  1  0
 71 69  1  0
 72 79  1  0
 72 82  1  0
 73 78  1  0
 74 75  1  0
 75 73  2  0
 75 76  1  0
 76 71  2  0
 78 77  2  0
 79 73  1  0
 80 74  1  0
 80 72  1  0
 81 70  2  0
 82 83  1  0
 83 85  1  0
 84 82  2  0
 86 95  1  0
 87 83  1  0
 87 91  1  0
 88 87  1  0
 88 89  1  0
 89 90  1  0
 90 86  1  0
 91 92  1  0
 91 86  2  0
 92 93  2  0
 93 94  1  0
 95 94  2  0
 96 70  1  0
 96 97  1  0
 97 98  1  1
 97 99  1  0
100 97  1  0
101 96  1  0
102101  1  0
103102  2  0
104101  1  0
106105  1  0
106102  1  0
108107  1  0
108106  1  0
109108  1  0
M  ISO  4  20 100  28 100  68 101  69 101
M  END
>  <TORSDO>  (10) 
F 37

>  <SCORE>  (10) 
2.019

>  <name>  (10) 
10

>  <ligand_id>  (10) 
10

>  <original_smiles>  (10) 
[H]C(OC([H])([H])C([H])([H])OC([H])([H])C([H])([H])OC([H])([H])C([H])([H])N([H])C(=O)N1C([H])([H])C([H])([H])C([H])([H])C([H])(n2nc(-c3c([H])c([H])c(Oc4c([H])c([H])c(F)c([H])c4F)c([H])c3[H])c(C(=O)N([H])[H])c2N([H])[H])C1([H])[H])=C(C(=O)N([H])C([H])([H])C([H])([H])C([H])([H])OC([H])([H])C([H])([H])[N+]([H])([H])C([H])([H])C([H])([H])Oc1c([H])c([H])c2c(c1[H])C([H])([H])N(C(=O)C([H])(N([H])C(=O)C([H])(N([H])C([H])([H])[H])C([H])([H])[H])C(C([H])([H])[H])(C([H])([H])[H])C([H])([H])[H])C([H])(C(=O)N([H])C1([H])c3c([H])c([H])c([H])c([H])c3C([H])([H])C([H])([H])C1([H])[H])C2([H])[H])N([H])OC([H])([H])[H]

>  <smiles>  (10) 
[H]C(OC([H])([H])C([H])([H])OC([H])([H])C([H])([H])OC([H])([H])C([H])([H])N([H])C(=O)N1C([H])([H])C([H])([H])C([H])([H])C([H])(n2nc(-c3c([H])c([H])c(Oc4c([H])c([H])c(F)c([H])c4F)c([H])c3[H])c(C(=O)N([H])[H])c2N([H])[H])C1([H])[H])=C(C(=O)N([H])C([H])([H])C([H])([H])C([H])([H])OC([H])([H])C([H])([H])[N+]([H])([H])C([H])([H])C([H])([H])Oc1c([H])c([H])c2c(c1[H])C([H])([H])N(C(=O)C([H])(N([H])C(=O)C([H])(N([H])C([H])([H])[H])C([H])([H])[H])C(C([H])([H])[H])(C([H])([H])[H])C([H])([H])[H])C([H])(C(=O)N([H])C1([H])c3c([H])c([H])c([H])c([H])c3C([H])([H])C([H])([H])C1([H])[H])C2([H])[H])N([H])OC([H])([H])[H]

$$$$
11:0:0
     RDKit          3D

110117  0  0  1  0  0  0  0  0999 V2000
  -31.6620  -27.6080   18.4680 C   0  0  0  0  0  3  0  0  0  0  0  0
  -30.3440  -28.2420   17.9460 C   0  0  0  0  0  0  0  0  0  0  0  0
  -30.1880  -29.5650   18.0870 N   0  0  0  0  0  0  0  0  0  0  0  0
  -29.4720  -27.5740   17.3950 O   0  0  0  0  0  0  0  0  0  0  0  0
  -30.8950  -30.1140   18.5590 H   0  0  0  0  0  0  0  0  0  0  0  0
  -29.0080  -30.5980   16.1750 C   0  0  0  0  0  1  0  0  0  0  0  0
  -28.9970  -30.3190   17.6890 C   0  0  0  0  0  3  0  0  0  0  0  0
  -28.8550  -31.5830   18.5470 C   0  0  0  0  0  0  0  0  0  0  0  0
  -27.7410  -32.2900   18.4120 N   0  0  0  0  0  0  0  0  0  0  0  0
  -29.7460  -31.9290   19.3220 O   0  0  0  0  0  0  0  0  0  0  0  0
  -27.0280  -31.9890   17.7620 H   0  0  0  0  0  0  0  0  0  0  0  0
  -27.6110  -33.1470   18.9290 H   0  0  0  0  0  0  0  0  0  0  0  0
  -32.0840  -26.2830   17.9120 N   0  0  0  0  0  4  0  0  0  0  0  0
  -33.0900  -26.2380   17.9090 H   0  0  0  0  0  0  0  0  0  0  0  0
  -31.7530  -25.6430   18.6300 H   0  0  0  0  0  0  0  0  0  0  0  0
  -31.5490  -25.7230   16.6450 C   0  0  0  0  0  2  0  0  0  0  0  0
  -30.3250  -24.8130   16.9060 C   0  0  0  0  0  2  0  0  0  0  0  0
  -29.9880  -24.8840   18.2940 O   0  0  0  0  0  0  0  0  0  0  0  0
  -28.5960  -24.7850   18.5780 C   0  0  0  0  0  2  0  0  0  0  0  0
  -28.3410  -25.2970   20.0090 C   0  0  0  0  0  2  0  0  0  0  0  0
  -28.4080  -26.7270   20.1040 O   0  0  0  0  0  0  0  0  0  0  0  0
  -24.6130  -31.8700   23.2110 C   0  0  0  0  0  0  0  0  0  0  0  0
  -27.2280  -27.4440   20.0860 C   0  0  0  0  0  0  0  0  0  0  0  0
  -23.3990  -30.4960   21.5510 C   0  0  0  0  0  3  0  0  0  0  0  0
  -24.8430  -28.9660   20.1130 C   0  0  0  0  0  0  0  0  0  0  0  0
  -25.9290  -30.8370   21.3640 C   0  0  0  0  0  2  0  0  0  0  0  0
  -26.0050  -29.4750   20.7070 C   0  0  0  0  0  0  0  0  0  0  0  0
  -27.2000  -28.7220   20.6880 C   0  0  0  0  0  3  0  0  0  0  0  0
  -26.0470  -26.9520   19.4830 C   0  0  0  0  0  3  0  0  0  0  0  0
  -24.8600  -27.7030   19.5000 C   0  0  0  0  0  3  0  0  0  0  0  0
  -23.6070  -29.8320   20.1650 C   0  0  0  0  0  2  0  0  0  0  0  0
  -24.6650  -31.0810   22.1010 N   0  0  0  0  0  0  0  0  0  0  0  0
  -23.5320  -32.1440   23.7520 O   0  0  0  0  0  0  0  0  0  0  0  0
  -22.7390  -29.4680   22.4980 C   0  0  0  0  0  0  0  0  0  0  0  0
  -21.4120  -29.3050   22.3720 N   0  0  0  0  0  0  0  0  0  0  0  0
  -23.4170  -28.8220   23.3010 O   0  0  0  0  0  0  0  0  0  0  0  0
  -20.9260  -29.8770   21.6960 H   0  0  0  0  0  0  0  0  0  0  0  0
  -18.0270  -28.1370   22.8500 C   0  0  0  0  0  0  0  0  0  0  0  0
  -20.5860  -28.3670   23.1320 C   0  0  0  0  0  3  0  0  0  0  0  0
  -20.6770  -26.9410   22.5410 C   0  0  0  0  0  2  0  0  0  0  0  0
  -19.5750  -26.6390   21.5210 C   0  0  0  0  0  2  0  0  0  0  0  0
  -18.1920  -26.7920   22.1630 C   0  0  0  0  0  2  0  0  0  0  0  0
  -19.1520  -28.8840   23.2910 C   0  0  0  0  0  0  0  0  0  0  0  0
  -18.9450  -30.1440   23.8920 C   0  0  0  0  0  3  0  0  0  0  0  0
  -17.6440  -30.6580   24.0570 C   0  0  0  0  0  3  0  0  0  0  0  0
  -16.5340  -29.9090   23.6320 C   0  0  0  0  0  3  0  0  0  0  0  0
  -16.7260  -28.6500   23.0350 C   0  0  0  0  0  3  0  0  0  0  0  0
  -25.9030  -32.4830   23.8380 C   0  0  0  0  0  3  0  0  0  0  0  0
  -25.5890  -33.8630   24.2330 N   0  0  0  0  0  0  0  0  0  0  0  0
  -25.9030  -34.9480   23.5140 C   0  0  0  0  0  0  0  0  0  0  0  0
  -26.5590  -34.8930   22.4700 O   0  0  0  0  0  0  0  0  0  0  0  0
  -25.0040  -33.9790   25.0470 H   0  0  0  0  0  0  0  0  0  0  0  0
  -24.1490  -36.7330   23.2640 C   0  0  0  0  0  1  0  0  0  0  0  0
  -25.4110  -36.3120   24.0340 C   0  0  0  0  0  3  0  0  0  0  0  0
  -27.5590  -37.1820   24.8470 C   0  0  0  0  0  1  0  0  0  0  0  0
  -26.4300  -37.3800   23.9410 N   0  0  0  0  0  0  0  0  0  0  0  0
  -26.0210  -38.2890   24.1380 H   0  0  0  0  0  0  0  0  0  0  0  0
  -26.4490  -31.6570   25.0680 C   0  0  1  0  0  0  0  0  0  0  0  0
  -25.3780  -31.3660   26.1440 C   0  0  0  0  0  1  0  0  0  0  0  0
  -27.0300  -30.3010   24.6020 C   0  0  0  0  0  1  0  0  0  0  0  0
  -27.6080  -32.4270   25.7420 C   0  0  0  0  0  1  0  0  0  0  0  0
  -31.6710  -27.4660   20.0180 C   0  0  0  0  0  2  0  0  0  0  0  0
  -31.6220  -26.0750   20.3670 O   0  0  0  0  0  0  0  0  0  0  0  0
  -31.7150  -25.7980   21.7610 C   0  0  0  0  0  2  0  0  0  0  0  0
  -32.0640  -24.3080   21.9460 C   0  0  0  0  0  2  0  0  0  0  0  0
  -30.9350  -23.4900   21.6640 O   0  0  0  0  0  0  0  0  0  0  0  0
  -31.2320  -22.0960   21.6170 C   0  0  0  0  0  2  0  0  0  0  0  0
  -29.9070  -21.3150   21.5510 C   0  0  0  0  0  2  0  0  0  0  0  0
  -30.0270  -20.0190   20.9670 O   0  0  0  0  0  0  0  0  0  0  0  0
  -30.6340  -19.0300   21.7950 C   0  0  0  0  0  2  0  0  0  0  0  0
  -30.2440  -17.6400   21.2570 C   0  0  0  0  0  2  0  0  0  0  0  0
  -30.8170  -16.4640   22.0820 C   0  0  0  0  0  2  0  0  0  0  0  0
  -30.7540  -14.3780   20.6880 C   0  0  0  0  0  0  0  0  0  0  0  0
  -30.4170  -12.2950   19.4060 C   0  0  0  0  0  2  0  0  0  0  0  0
  -29.4900  -12.5300   18.1980 C   0  0  0  0  0  2  0  0  0  0  0  0
  -28.0140  -12.3750   18.6100 C   0  0  0  0  0  2  0  0  0  0  0  0
  -27.6640  -13.1980   19.8760 C   0  0  0  0  0  3  0  0  0  0  0  0
  -28.6970  -12.9490   20.9980 C   0  0  0  0  0  2  0  0  0  0  0  0
  -30.0430  -13.2420   20.4670 N   0  0  0  0  0  0  0  0  0  0  0  0
  -31.7800  -14.6700   20.0660 O   0  0  0  0  0  0  0  0  0  0  0  0
  -30.2710  -15.1720   21.6530 N   0  0  0  0  0  0  0  0  0  0  0  0
  -29.4420  -14.8410   22.1250 H   0  0  0  0  0  0  0  0  0  0  0  0
  -25.2610  -13.8130   20.5660 C   0  0  0  0  0  0  0  0  0  0  0  0
  -24.1840  -13.0430   20.9150 C   0  0  0  0  0  0  0  0  0  0  0  0
  -24.6350  -11.6890   20.8670 C   0  0  0  0  0  0  0  0  0  0  0  0
  -26.3020  -12.9280   20.3310 N   0  0  0  0  0  0  0  0  0  0  0  0
  -25.9270  -11.6440   20.5670 N   0  0  0  0  0  0  0  0  0  0  0  0
  -23.8990  -10.4290   21.0340 C   0  0  0  0  0  0  0  0  0  0  0  0
  -24.3560   -9.4240   21.9130 C   0  0  0  0  0  3  0  0  0  0  0  0
  -23.6280   -8.2250   22.0710 C   0  0  0  0  0  3  0  0  0  0  0  0
  -22.4260   -8.0260   21.3500 C   0  0  0  0  0  0  0  0  0  0  0  0
  -21.9860   -9.0210   20.4600 C   0  0  0  0  0  3  0  0  0  0  0  0
  -22.7140  -10.2120   20.3010 C   0  0  0  0  0  3  0  0  0  0  0  0
  -21.6630   -6.8860   21.4220 O   0  0  0  0  0  0  0  0  0  0  0  0
  -21.6850   -6.0730   22.5270 C   0  0  0  0  0  0  0  0  0  0  0  0
  -21.4020   -6.5640   23.8210 C   0  0  0  0  0  3  0  0  0  0  0  0
  -21.3670   -5.6790   24.9160 C   0  0  0  0  0  3  0  0  0  0  0  0
  -21.6040   -4.3050   24.7210 C   0  0  0  0  0  0  0  0  0  0  0  0
  -21.8820   -3.8150   23.4330 C   0  0  0  0  0  3  0  0  0  0  0  0
  -21.9200   -4.6970   22.3400 C   0  0  0  0  0  0  0  0  0  0  0  0
  -22.1670   -4.2150   21.0970 F   0  0  0  0  0  0  0  0  0  0  0  0
  -21.5620   -3.4540   25.7720 F   0  0  0  0  0  0  0  0  0  0  0  0
  -22.7880  -13.5250   21.1860 C   0  0  0  0  0  0  0  0  0  0  0  0
  -22.0540  -12.8220   22.0430 N   0  0  0  0  0  0  0  0  0  0  0  0
  -22.3580  -14.5570   20.6760 O   0  0  0  0  0  0  0  0  0  0  0  0
  -22.4180  -11.9860   22.4780 H   0  0  0  0  0  0  0  0  0  0  0  0
  -21.1160  -13.1220   22.2650 H   0  0  0  0  0  0  0  0  0  0  0  0
  -25.4400  -15.1840   20.4120 N   0  0  0  0  0  0  0  0  0  0  0  0
  -24.6790  -15.8470   20.5200 H   0  0  0  0  0  0  0  0  0  0  0  0
  -26.3030  -15.6150   20.1050 H   0  0  0  0  0  0  0  0  0  0  0  0
  1 62  1  0
  2  3  1  0
  2  1  1  0
  3  5  1  0
  4  2  2  0
  7  6  1  0
  7  3  1  0
  7  8  1  0
  8 10  2  0
  9  8  1  0
  9 12  1  0
 11  9  1  0
 13  1  1  0
 13 15  1  0
 14 13  1  0
 16 17  1  0
 16 13  1  0
 17 18  1  0
 18 19  1  0
 19 20  1  0
 20 21  1  0
 22 33  2  0
 23 21  1  0
 23 28  1  0
 24 32  1  0
 24 34  1  0
 25 31  1  0
 25 27  1  0
 26 32  1  0
 27 26  1  0
 28 27  2  0
 29 30  1  0
 29 23  2  0
 30 25  2  0
 31 24  1  0
 32 22  1  0
 34 36  2  0
 35 34  1  0
 37 35  1  0
 38 47  2  0
 38 43  1  0
 39 35  1  0
 39 43  1  0
 40 39  1  0
 41 42  1  0
 41 40  1  0
 42 38  1  0
 43 44  2  0
 44 45  1  0
 46 45  2  0
 47 46  1  0
 48 22  1  0
 48 49  1  0
 48 58  1  0
 49 52  1  0
 50 54  1  0
 50 49  1  0
 51 50  2  0
 54 53  1  0
 56 54  1  0
 56 57  1  0
 56 55  1  0
 58 61  1  1
 58 59  1  0
 60 58  1  0
 62 63  1  0
 63 64  1  0
 64 65  1  0
 66 65  1  0
 67 66  1  0
 68 67  1  0
 69 68  1  0
 69 70  1  0
 71 70  1  0
 71 72  1  0
 73 81  1  0
 74 79  1  0
 75 76  1  0
 75 74  1  0
 77 76  1  0
 77 86  1  0
 77 78  1  0
 79 73  1  0
 79 78  1  0
 80 73  2  0
 81 72  1  0
 81 82  1  0
 83 84  2  0
 84103  1  0
 85 84  1  0
 85 88  1  0
 86 83  1  0
 86 87  1  0
 87 85  2  0
 88 89  1  0
 89 90  2  0
 91 94  1  0
 91 90  1  0
 92 91  2  0
 93 92  1  0
 93 88  2  0
 94 95  1  0
 95 96  1  0
 96 97  2  0
 98 97  1  0
 98102  1  0
 99 98  2  0
100 95  2  0
100 99  1  0
101100  1  0
103104  1  0
104107  1  0
104106  1  0
105103  2  0
108109  1  0
108 83  1  0
110108  1  0
M  ISO  4  20 101  21 101  73 100  81 100
M  END
>  <TORSDO>  (11) 
F 36

>  <SCORE>  (11) 
20.886

>  <name>  (11) 
11

>  <ligand_id>  (11) 
11

>  <original_smiles>  (11) 
[H]c1c([H])c([H])c2c(c1[H])C([H])([H])C([H])([H])C([H])([H])C2([H])N([H])C(=O)C1([H])N(C(=O)C([H])(N([H])C(=O)C([H])(N([H])C([H])([H])[H])C([H])([H])[H])C(C([H])([H])[H])(C([H])([H])[H])C([H])([H])[H])C([H])([H])c2c([H])c(OC([H])([H])C([H])([H])OC([H])([H])C([H])([H])[N+]([H])([H])C([H])(C(=O)N([H])C([H])(C(=O)N([H])[H])C([H])([H])[H])C([H])([H])OC([H])([H])C([H])([H])OC([H])([H])C([H])([H])OC([H])([H])C([H])([H])C([H])([H])N([H])C(=O)N3C([H])([H])C([H])([H])C([H])([H])C([H])(n4nc(-c5c([H])c([H])c(Oc6c([H])c([H])c(F)c([H])c6F)c([H])c5[H])c(C(=O)N([H])[H])c4N([H])[H])C3([H])[H])c([H])c([H])c2C1([H])[H]

>  <smiles>  (11) 
[H]c1c([H])c([H])c2c(c1[H])C([H])([H])C([H])([H])C([H])([H])C2([H])N([H])C(=O)C1([H])N(C(=O)C([H])(N([H])C(=O)C([H])(N([H])C([H])([H])[H])C([H])([H])[H])C(C([H])([H])[H])(C([H])([H])[H])C([H])([H])[H])C([H])([H])c2c([H])c(OC([H])([H])C([H])([H])OC([H])([H])C([H])([H])[N+]([H])([H])C([H])(C(=O)N([H])C([H])(C(=O)N([H])[H])C([H])([H])[H])C([H])([H])OC([H])([H])C([H])([H])OC([H])([H])C([H])([H])OC([H])([H])C([H])([H])C([H])([H])N([H])C(=O)N3C([H])([H])C([H])([H])C([H])([H])C([H])(n4nc(-c5c([H])c([H])c(Oc6c([H])c([H])c(F)c([H])c6F)c([H])c5[H])c(C(=O)N([H])[H])c4N([H])[H])C3([H])[H])c([H])c([H])c2C1([H])[H]

$$$$
12:0:0
     RDKit          3D

 99106  0  0  1  0  0  0  0  0999 V2000
  -31.5070  -17.5890   20.5690 C   0  0  0  0  0  0  0  0  0  0  0  0
  -31.8700  -18.4070   19.5790 N   0  0  0  0  0  0  0  0  0  0  0  0
  -32.2740  -17.2720   21.4790 O   0  0  0  0  0  0  0  0  0  0  0  0
  -31.1740  -18.6390   18.8840 H   0  0  0  0  0  0  0  0  0  0  0  0
  -33.1430  -19.1050   19.4810 C   0  0  0  0  0  2  0  0  0  0  0  0
  -33.0120  -20.3550   18.5980 C   0  0  0  0  0  2  0  0  0  0  0  0
  -31.9020  -21.1310   19.0330 O   0  0  0  0  0  0  0  0  0  0  0  0
  -31.8360  -22.4020   18.3930 C   0  0  0  0  0  2  0  0  0  0  0  0
  -30.5200  -23.1050   18.7620 C   0  0  0  0  0  2  0  0  0  0  0  0
  -30.5330  -23.5250   20.1270 O   0  0  0  0  0  0  0  0  0  0  0  0
  -30.5440  -24.9370   20.3450 C   0  0  0  0  0  2  0  0  0  0  0  0
  -29.1690  -25.5740   20.0570 C   0  0  0  0  0  2  0  0  0  0  0  0
  -28.9550  -26.7750   20.8040 O   0  0  0  0  0  0  0  0  0  0  0  0
  -24.5600  -31.7810   23.3220 C   0  0  0  0  0  0  0  0  0  0  0  0
  -27.7340  -27.4100   20.6620 C   0  0  0  0  0  0  0  0  0  0  0  0
  -23.6070  -30.2900   21.5930 C   0  0  0  0  0  3  0  0  0  0  0  0
  -25.2760  -28.7910   20.3860 C   0  0  0  0  0  0  0  0  0  0  0  0
  -26.1220  -30.7600   21.6700 C   0  0  0  0  0  2  0  0  0  0  0  0
  -26.3380  -29.3800   21.0840 C   0  0  0  0  0  0  0  0  0  0  0  0
  -27.5660  -28.6960   21.2240 C   0  0  0  0  0  3  0  0  0  0  0  0
  -26.6430  -26.8280   19.9690 C   0  0  0  0  0  3  0  0  0  0  0  0
  -25.4240  -27.5110   19.8290 C   0  0  0  0  0  3  0  0  0  0  0  0
  -23.9960  -29.5860   20.2680 C   0  0  0  0  0  2  0  0  0  0  0  0
  -24.7730  -30.9600   22.2530 N   0  0  0  0  0  0  0  0  0  0  0  0
  -23.4140  -32.0160   23.7280 O   0  0  0  0  0  0  0  0  0  0  0  0
  -22.8960  -29.2640   22.5030 C   0  0  0  0  0  0  0  0  0  0  0  0
  -21.5800  -29.0890   22.2970 N   0  0  0  0  0  0  0  0  0  0  0  0
  -23.5280  -28.6250   23.3470 O   0  0  0  0  0  0  0  0  0  0  0  0
  -21.1330  -29.6560   21.5890 H   0  0  0  0  0  0  0  0  0  0  0  0
  -18.1620  -27.9760   22.6520 C   0  0  0  0  0  0  0  0  0  0  0  0
  -20.7160  -28.1470   23.0090 C   0  0  0  0  0  3  0  0  0  0  0  0
  -20.7960  -26.7360   22.3820 C   0  0  0  0  0  2  0  0  0  0  0  0
  -19.7160  -26.4840   21.3240 C   0  0  0  0  0  2  0  0  0  0  0  0
  -18.3200  -26.6470   21.9320 C   0  0  0  0  0  2  0  0  0  0  0  0
  -19.2890  -28.6870   23.1440 C   0  0  0  0  0  0  0  0  0  0  0  0
  -19.0880  -29.9340   23.7740 C   0  0  0  0  0  3  0  0  0  0  0  0
  -17.7940  -30.4710   23.9140 C   0  0  0  0  0  3  0  0  0  0  0  0
  -16.6820  -29.7550   23.4390 C   0  0  0  0  0  3  0  0  0  0  0  0
  -16.8660  -28.5090   22.8170 C   0  0  0  0  0  3  0  0  0  0  0  0
  -25.7420  -32.4840   24.0620 C   0  0  0  0  0  3  0  0  0  0  0  0
  -25.3500  -33.8810   24.2860 N   0  0  0  0  0  0  0  0  0  0  0  0
  -25.7340  -34.9110   23.5180 C   0  0  0  0  0  0  0  0  0  0  0  0
  -26.5200  -34.7870   22.5750 O   0  0  0  0  0  0  0  0  0  0  0  0
  -24.6580  -34.0470   25.0010 H   0  0  0  0  0  0  0  0  0  0  0  0
  -23.9900  -36.6120   22.8920 C   0  0  0  0  0  1  0  0  0  0  0  0
  -25.1510  -36.2970   23.8480 C   0  0  0  0  0  3  0  0  0  0  0  0
  -27.1490  -37.3100   24.8520 C   0  0  0  0  0  1  0  0  0  0  0  0
  -26.1510  -37.3850   23.7900 N   0  0  0  0  0  0  0  0  0  0  0  0
  -25.6980  -38.2930   23.8470 H   0  0  0  0  0  0  0  0  0  0  0  0
  -26.1260  -31.7860   25.4240 C   0  0  1  0  0  0  0  0  0  0  0  0
  -24.9230  -31.5530   26.3670 C   0  0  0  0  0  1  0  0  0  0  0  0
  -26.7950  -30.4140   25.1690 C   0  0  0  0  0  1  0  0  0  0  0  0
  -27.1630  -32.6500   26.1830 C   0  0  0  0  0  1  0  0  0  0  0  0
  -30.0520  -17.0800   20.5710 C   0  0  0  0  0  3  0  0  0  0  0  0
  -30.5820  -14.6220   19.9640 C   0  0  0  0  0  0  0  0  0  0  0  0
  -30.3370  -12.3300   19.0870 C   0  0  0  0  0  2  0  0  0  0  0  0
  -29.3430  -12.3570   17.9070 C   0  0  0  0  0  2  0  0  0  0  0  0
  -27.8860  -12.2360   18.3980 C   0  0  0  0  0  2  0  0  0  0  0  0
  -27.5660  -13.1990   19.5730 C   0  0  0  0  0  3  0  0  0  0  0  0
  -28.6660  -13.1360   20.6560 C   0  0  0  0  0  2  0  0  0  0  0  0
  -29.9600  -13.4130   20.0050 N   0  0  0  0  0  0  0  0  0  0  0  0
  -31.6710  -14.7930   19.4150 O   0  0  0  0  0  0  0  0  0  0  0  0
  -29.8270  -15.6280   20.4400 N   0  0  0  0  0  0  0  0  0  0  0  0
  -28.9470  -15.3220   20.8280 H   0  0  0  0  0  0  0  0  0  0  0  0
  -25.2290  -13.8460   20.4370 C   0  0  0  0  0  0  0  0  0  0  0  0
  -24.1730  -13.0890   20.8700 C   0  0  0  0  0  0  0  0  0  0  0  0
  -24.6000  -11.7300   20.7860 C   0  0  0  0  0  0  0  0  0  0  0  0
  -26.2400  -12.9470   20.1330 N   0  0  0  0  0  0  0  0  0  0  0  0
  -25.8670  -11.6680   20.3930 N   0  0  0  0  0  0  0  0  0  0  0  0
  -23.8570  -10.4810   21.0040 C   0  0  0  0  0  0  0  0  0  0  0  0
  -24.3360   -9.4820   21.8790 C   0  0  0  0  0  3  0  0  0  0  0  0
  -23.5960   -8.2980   22.0840 C   0  0  0  0  0  3  0  0  0  0  0  0
  -22.3650   -8.1040   21.4160 C   0  0  0  0  0  0  0  0  0  0  0  0
  -21.9060   -9.0920   20.5270 C   0  0  0  0  0  3  0  0  0  0  0  0
  -22.6450  -10.2680   20.3190 C   0  0  0  0  0  3  0  0  0  0  0  0
  -21.5920   -6.9750   21.5330 O   0  0  0  0  0  0  0  0  0  0  0  0
  -21.5940   -6.2160   22.6750 C   0  0  0  0  0  0  0  0  0  0  0  0
  -21.2330   -6.7570   23.9290 C   0  0  0  0  0  3  0  0  0  0  0  0
  -21.1820   -5.9270   25.0660 C   0  0  0  0  0  3  0  0  0  0  0  0
  -21.4820   -4.5560   24.9530 C   0  0  0  0  0  0  0  0  0  0  0  0
  -21.8380   -4.0150   23.7050 C   0  0  0  0  0  3  0  0  0  0  0  0
  -21.8920   -4.8430   22.5700 C   0  0  0  0  0  0  0  0  0  0  0  0
  -22.2150   -4.3110   21.3650 F   0  0  0  0  0  0  0  0  0  0  0  0
  -21.4260   -3.7540   26.0440 F   0  0  0  0  0  0  0  0  0  0  0  0
  -22.8110  -13.5910   21.2480 C   0  0  0  0  0  0  0  0  0  0  0  0
  -22.1450  -12.9020   22.1680 N   0  0  0  0  0  0  0  0  0  0  0  0
  -22.3510  -14.6260   20.7650 O   0  0  0  0  0  0  0  0  0  0  0  0
  -22.5400  -12.0670   22.5780 H   0  0  0  0  0  0  0  0  0  0  0  0
  -21.2300  -13.2070   22.4660 H   0  0  0  0  0  0  0  0  0  0  0  0
  -25.4000  -15.2130   20.2540 N   0  0  0  0  0  0  0  0  0  0  0  0
  -24.6310  -15.8650   20.3620 H   0  0  0  0  0  0  0  0  0  0  0  0
  -26.2340  -15.6390   19.8770 H   0  0  0  0  0  0  0  0  0  0  0  0
  -29.4030  -17.7850   18.1440 C   0  0  0  0  0  1  0  0  0  0  0  0
  -29.0770  -17.8960   19.6540 C   0  0  0  0  0  3  0  0  0  0  0  0
  -27.5910  -17.5810   19.8910 C   0  0  0  0  0  0  0  0  0  0  0  0
  -26.7370  -18.5980   19.8890 N   0  0  0  0  0  0  0  0  0  0  0  0
  -27.2100  -16.4240   20.0540 O   0  0  0  0  0  0  0  0  0  0  0  0
  -27.0630  -19.5400   19.7270 H   0  0  0  0  0  0  0  0  0  0  0  0
  -25.7480  -18.4340   20.0030 H   0  0  0  0  0  0  0  0  0  0  0  0
  1  3  2  0
  2  1  1  0
  4  2  1  0
  5  2  1  0
  6  7  1  0
  6  5  1  0
  8  9  1  0
  8  7  1  0
  9 10  1  0
 10 11  1  0
 12 11  1  0
 12 13  1  0
 14 25  2  0
 15 13  1  0
 15 20  1  0
 16 24  1  0
 16 26  1  0
 17 19  1  0
 18 24  1  0
 19 20  2  0
 19 18  1  0
 21 15  2  0
 22 21  1  0
 22 17  2  0
 23 17  1  0
 23 16  1  0
 24 14  1  0
 26 28  2  0
 27 26  1  0
 29 27  1  0
 30 39  2  0
 30 35  1  0
 31 27  1  0
 31 35  1  0
 32 31  1  0
 33 34  1  0
 33 32  1  0
 34 30  1  0
 35 36  2  0
 36 37  1  0
 38 37  2  0
 39 38  1  0
 40 14  1  0
 40 41  1  0
 40 50  1  0
 41 44  1  0
 42 46  1  0
 42 41  1  0
 43 42  2  0
 46 45  1  0
 48 49  1  0
 48 46  1  0
 48 47  1  0
 50 53  1  1
 50 51  1  0
 52 50  1  0
 54  1  1  0
 55 61  1  0
 55 63  1  0
 56 61  1  0
 57 58  1  0
 57 56  1  0
 59 58  1  0
 59 68  1  0
 59 60  1  0
 61 60  1  0
 62 55  2  0
 63 54  1  0
 63 64  1  0
 65 66  2  0
 66 85  1  0
 67 66  1  0
 67 70  1  0
 68 69  1  0
 68 65  1  0
 69 67  2  0
 70 71  1  0
 71 72  2  0
 73 76  1  0
 73 72  1  0
 74 73  2  0
 75 74  1  0
 75 70  2  0
 76 77  1  0
 77 78  1  0
 78 79  2  0
 80 79  1  0
 80 84  1  0
 81 80  2  0
 82 77  2  0
 82 81  1  0
 83 82  1  0
 85 86  1  0
 86 89  1  0
 86 88  1  0
 87 85  2  0
 90 91  1  0
 90 65  1  0
 92 90  1  0
 94 93  1  0
 94 95  1  0
 94 54  1  0
 95 97  2  0
 96 95  1  0
 96 99  1  0
 98 96  1  0
M  ISO  4  12 101  13 101  55 100  63 100
M  END
>  <TORSDO>  (12) 
F 27

>  <SCORE>  (12) 
-11.438

>  <name>  (12) 
12

>  <ligand_id>  (12) 
12

>  <original_smiles>  (12) 
[H]c1c([H])c([H])c2c(c1[H])C([H])([H])C([H])([H])C([H])([H])C2([H])N([H])C(=O)C1([H])N(C(=O)C([H])(N([H])C(=O)C([H])(N([H])C([H])([H])[H])C([H])([H])[H])C(C([H])([H])[H])(C([H])([H])[H])C([H])([H])[H])C([H])([H])c2c([H])c(OC([H])([H])C([H])([H])OC([H])([H])C([H])([H])OC([H])([H])C([H])([H])N([H])C(=O)C([H])(N([H])C(=O)N3C([H])([H])C([H])([H])C([H])([H])C([H])(n4nc(-c5c([H])c([H])c(Oc6c([H])c([H])c(F)c([H])c6F)c([H])c5[H])c(C(=O)N([H])[H])c4N([H])[H])C3([H])[H])C([H])(C(=O)N([H])[H])C([H])([H])[H])c([H])c([H])c2C1([H])[H]

>  <smiles>  (12) 
[H]c1c([H])c([H])c2c(c1[H])C([H])([H])C([H])([H])C([H])([H])C2([H])N([H])C(=O)C1([H])N(C(=O)C([H])(N([H])C(=O)C([H])(N([H])C([H])([H])[H])C([H])([H])[H])C(C([H])([H])[H])(C([H])([H])[H])C([H])([H])[H])C([H])([H])c2c([H])c(OC([H])([H])C([H])([H])OC([H])([H])C([H])([H])OC([H])([H])C([H])([H])N([H])C(=O)C([H])(N([H])C(=O)N3C([H])([H])C([H])([H])C([H])([H])C([H])(n4nc(-c5c([H])c([H])c(Oc6c([H])c([H])c(F)c([H])c6F)c([H])c5[H])c(C(=O)N([H])[H])c4N([H])[H])C3([H])[H])C([H])(C(=O)N([H])[H])C([H])([H])[H])c([H])c([H])c2C1([H])[H]

$$$$
13:0:0
     RDKit          3D

102105  0  0  1  0  0  0  0  0999 V2000
  -26.6630  -16.6860   19.5730 C   0  0  0  0  0  0  0  0  0  0  0  0
  -27.2850  -19.5930   19.5690 C   0  0  0  0  0  0  0  0  0  0  0  0
  -26.5700  -18.3380   19.9360 N   0  0  0  0  0  4  0  0  0  0  0  0
  -28.1360  -19.4670   18.6910 O   0  0  0  0  0  0  0  0  0  0  0  0
  -25.8740  -18.5090   20.6490 H   0  0  0  0  0  0  0  0  0  0  0  0
  -27.0540  -21.1080   20.0960 C   0  0  0  0  0  3  0  0  0  0  0  0
  -27.7050  -22.4080   19.7940 C   0  0  0  0  0  3  0  0  0  0  0  0
  -27.4100  -23.9860   20.3240 C   0  0  0  0  0  0  0  0  0  0  0  0
  -26.4560  -24.0550   21.1030 O   0  0  0  0  0  0  0  0  0  0  0  0
  -28.1630  -25.4890   19.9610 O   0  0  0  0  0  0  0  0  0  0  0  0
  -25.1490  -31.6530   23.3210 C   0  0  0  0  0  0  0  0  0  0  0  0
  -27.4430  -26.7860   20.0390 C   0  0  0  0  0  0  0  0  0  0  0  0
  -23.9400  -30.3470   21.6430 C   0  0  0  0  0  3  0  0  0  0  0  0
  -25.3330  -28.8160   20.1270 C   0  0  0  0  0  0  0  0  0  0  0  0
  -26.5200  -30.4710   21.5280 C   0  0  0  0  0  2  0  0  0  0  0  0
  -26.5340  -29.0950   20.7940 C   0  0  0  0  0  0  0  0  0  0  0  0
  -27.6030  -28.0810   20.7550 C   0  0  0  0  0  3  0  0  0  0  0  0
  -26.2710  -26.7360   19.2820 C   0  0  0  0  0  3  0  0  0  0  0  0
  -25.2290  -27.6620   19.3560 C   0  0  0  0  0  3  0  0  0  0  0  0
  -24.1550  -29.7700   20.2280 C   0  0  0  0  0  2  0  0  0  0  0  0
  -25.2280  -30.8500   22.2140 N   0  0  0  0  0  0  0  0  0  0  0  0
  -24.0590  -31.9420   23.8430 O   0  0  0  0  0  0  0  0  0  0  0  0
  -23.2430  -29.2980   22.5480 C   0  0  0  0  0  0  0  0  0  0  0  0
  -21.9270  -29.0900   22.3590 N   0  0  0  0  0  0  0  0  0  0  0  0
  -23.8910  -28.6820   23.3990 O   0  0  0  0  0  0  0  0  0  0  0  0
  -21.4560  -29.6410   21.6560 H   0  0  0  0  0  0  0  0  0  0  0  0
  -18.5760  -27.7370   22.6600 C   0  0  0  0  0  0  0  0  0  0  0  0
  -21.1000  -28.1220   23.0850 C   0  0  0  0  0  3  0  0  0  0  0  0
  -21.3020  -26.6910   22.5360 C   0  0  0  0  0  2  0  0  0  0  0  0
  -20.2820  -26.3090   21.4580 C   0  0  0  0  0  2  0  0  0  0  0  0
  -18.8570  -26.3940   22.0100 C   0  0  0  0  0  2  0  0  0  0  0  0
  -19.6290  -28.5560   23.1510 C   0  0  0  0  0  0  0  0  0  0  0  0
  -19.3100  -29.8100   23.7180 C   0  0  0  0  0  3  0  0  0  0  0  0
  -17.9740  -30.2470   23.7990 C   0  0  0  0  0  3  0  0  0  0  0  0
  -16.9370  -29.4270   23.3230 C   0  0  0  0  0  3  0  0  0  0  0  0
  -17.2380  -28.1740   22.7590 C   0  0  0  0  0  3  0  0  0  0  0  0
  -26.4220  -32.2630   23.9760 C   0  0  0  0  0  3  0  0  0  0  0  0
  -26.9300  -31.4370   25.2210 C   0  0  1  0  0  0  0  0  0  0  0  0
  -25.8320  -31.1560   26.2740 C   0  0  0  0  0  1  0  0  0  0  0  0
  -27.5120  -30.0740   24.7840 C   0  0  0  0  0  1  0  0  0  0  0  0
  -28.0820  -32.2000   25.9170 C   0  0  0  0  0  1  0  0  0  0  0  0
  -26.0990  -33.6430   24.3820 N   0  0  0  0  0  0  0  0  0  0  0  0
  -26.4210  -34.7450   23.6920 C   0  0  0  0  0  0  0  0  0  0  0  0
  -27.0880  -34.7080   22.6560 O   0  0  0  0  0  0  0  0  0  0  0  0
  -25.5050  -33.7450   25.1920 H   0  0  0  0  0  0  0  0  0  0  0  0
  -24.6860  -36.5570   23.4600 C   0  0  0  0  0  1  0  0  0  0  0  0
  -25.9310  -36.1020   24.2390 C   0  0  0  0  0  3  0  0  0  0  0  0
  -28.0580  -36.9490   25.1280 C   0  0  0  0  0  1  0  0  0  0  0  0
  -26.9590  -37.1650   24.1920 N   0  0  0  0  0  0  0  0  0  0  0  0
  -26.5480  -38.0740   24.3900 H   0  0  0  0  0  0  0  0  0  0  0  0
  -28.1610  -16.1940   19.3580 C   0  0  0  0  0  0  0  0  0  0  0  0
  -28.4540  -14.8980   18.9450 N   0  0  0  0  0  0  0  0  0  0  0  0
  -29.0680  -16.9300   19.7570 O   0  0  0  0  0  0  0  0  0  0  0  0
  -27.6700  -14.4040   18.5420 H   0  0  0  0  0  0  0  0  0  0  0  0
  -29.5990  -13.8860   19.4570 C   0  0  0  0  0  2  0  0  0  0  0  0
  -29.4120  -11.3200   20.4010 C   0  0  0  0  0  2  0  0  0  0  0  0
  -29.8620  -10.7670   21.5510 N   0  0  0  0  0  0  0  0  0  0  0  0
  -29.0150  -10.2930   19.8120 O   0  0  0  0  0  1  0  0  0  0  0  0
  -30.3370  -11.3370   22.2340 H   0  0  0  0  0  0  0  0  0  0  0  0
  -29.7480   -9.7760   21.6930 H   0  0  0  0  0  0  0  0  0  0  0  0
  -30.8490  -14.6940   18.8250 C   0  0  0  0  0  2  0  0  0  0  0  0
  -31.6870  -14.4450   21.0700 C   0  0  0  0  0  0  0  0  0  0  0  0
  -31.4620  -12.3370   19.6360 C   0  0  0  0  0  1  0  0  0  0  0  0
  -30.0010  -11.9260   18.2820 C   0  0  0  0  0 15  0  0  0  0  0  0
  -28.0700  -12.2430   18.8370 C   0  0  0  0  0 15  0  0  0  0  0  0
  -27.8330  -13.1700   20.7220 C   0  0  0  0  0  2  0  0  0  0  0  0
  -29.3750  -13.5260   21.8630 C   0  0  0  0  0  2  0  0  0  0  0  0
  -31.0480  -13.2680   21.1760 N   0  0  0  0  0  0  0  0  0  0  0  0
  -32.0580  -15.1400   21.9480 O   0  0  0  0  0  0  0  0  0  0  0  0
  -31.8640  -14.9210   19.8370 N   0  0  0  0  0  0  0  0  0  0  0  0
  -32.4370  -15.7460   19.7410 H   0  0  0  0  0  0  0  0  0  0  0  0
  -25.4160  -13.7560   22.0630 C   0  0  0  0  0  0  0  0  0  0  0  0
  -24.0170  -12.7610   21.8330 C   0  0  0  0  0  0  0  0  0  0  0  0
  -24.5200  -11.2170   21.0170 C   0  0  0  0  0  0  0  0  0  0  0  0
  -26.8290  -12.7880   21.3390 N   0  0  0  0  0  0  0  0  0  0  0  0
  -26.1910  -11.2580   20.7180 N   0  0  0  0  0  0  0  0  0  0  0  0
  -24.0540   -9.8780   21.3530 C   0  0  0  0  0  0  0  0  0  0  0  0
  -24.5930   -9.0360   22.3750 C   0  0  0  0  0  3  0  0  0  0  0  0
  -24.0350   -7.7500   22.5990 C   0  0  0  0  0  3  0  0  0  0  0  0
  -22.9420   -7.3330   21.7990 C   0  0  0  0  0  0  0  0  0  0  0  0
  -22.4250   -8.1910   20.8210 C   0  0  0  0  0  3  0  0  0  0  0  0
  -22.9700   -9.4530   20.6030 C   0  0  0  0  0  3  0  0  0  0  0  0
  -22.3460   -6.1000   21.8260 O   0  0  0  0  0  0  0  0  0  0  0  0
  -22.1050   -5.4190   22.9840 C   0  0  0  0  0  0  0  0  0  0  0  0
  -21.3050   -5.9470   24.0180 C   0  0  0  0  0  3  0  0  0  0  0  0
  -21.0190   -5.1580   25.1500 C   0  0  0  0  0  3  0  0  0  0  0  0
  -21.5280   -3.8490   25.2440 C   0  0  0  0  0  0  0  0  0  0  0  0
  -22.3180   -3.3210   24.2080 C   0  0  0  0  0  3  0  0  0  0  0  0
  -22.6020   -4.1040   23.0780 C   0  0  0  0  0  0  0  0  0  0  0  0
  -23.3400   -3.5890   22.0660 F   0  0  0  0  0  0  0  0  0  0  0  0
  -21.2530   -3.0910   26.3310 F   0  0  0  0  0  0  0  0  0  0  0  0
  -22.6420  -13.0590   22.0630 C   0  0  0  0  0  0  0  0  0  0  0  0
  -22.0220  -12.1800   22.8280 N   0  0  0  0  0  0  0  0  0  0  0  0
  -22.1480  -14.0310   21.5150 O   0  0  0  0  0  0  0  0  0  0  0  0
  -22.5190  -11.3950   23.2220 H   0  0  0  0  0  0  0  0  0  0  0  0
  -21.0430  -12.3000   23.0460 H   0  0  0  0  0  0  0  0  0  0  0  0
  -25.6110  -15.0860   22.3090 N   0  0  0  0  0  0  0  0  0  0  0  0
  -24.8890  -15.6820   22.6970 H   0  0  0  0  0  0  0  0  0  0  0  0
  -26.5310  -15.5050   22.3650 H   0  0  0  0  0  0  0  0  0  0  0  0
  -24.0900  -16.0340   19.4800 C   0  0  0  0  0  1  0  0  0  0  0  0
  -25.0730  -13.5440   19.7990 C   0  0  0  0  0  1  0  0  0  0  0  0
  -25.4080  -15.3880   19.9540 C   0  0  0  0  0  3  0  0  0  0  0  0
  1  3  2  0
  1102  1  0
  2  3  1  0
  2  6  1  0
  3  5  1  0
  4  2  2  0
  7  6  2  0
  7  8  1  0
  8  9  2  0
 10 12  1  0
 10  8  1  0
 11 22  2  0
 12 17  1  0
 13 21  1  0
 13 23  1  0
 14 20  1  0
 14 16  1  0
 15 21  1  0
 16 15  1  0
 17 16  2  0
 18 19  1  0
 18 12  2  0
 19 14  2  0
 20 13  1  0
 21 11  1  0
 23 25  2  0
 24 23  1  0
 26 24  1  0
 27 36  2  0
 27 32  1  0
 28 24  1  0
 28 32  1  0
 29 28  1  0
 30 31  1  0
 30 29  1  0
 31 27  1  0
 32 33  2  0
 33 34  1  0
 35 34  2  0
 36 35  1  0
 37 11  1  0
 37 42  1  0
 37 38  1  0
 38 41  1  1
 38 39  1  0
 40 38  1  0
 42 45  1  0
 43 47  1  0
 43 42  1  0
 44 43  2  0
 47 46  1  0
 49 47  1  0
 49 50  1  0
 49 48  1  0
 51  1  1  0
 51 53  2  0
 52 51  1  0
 52 55  1  0
 54 52  1  0
 56 57  1  0
 57 60  1  0
 57 59  1  0
 58 56  1  0
 61 55  1  0
 61 70  1  0
 62 68  1  0
 62 69  2  0
 63 68  1  0
 66 75  1  0
 66 67  1  0
 68 67  1  0
 70 62  1  0
 71 70  1  0
 72 97  1  0
 73 72  2  0
 73 92  1  0
 74 77  1  0
 74 73  1  0
 75 72  1  0
 76 74  2  0
 76 75  1  0
 77 78  1  0
 78 79  2  0
 80 83  1  0
 80 79  1  0
 81 80  2  0
 82 81  1  0
 82 77  2  0
 83 84  1  0
 84 89  2  0
 84 85  1  0
 85 86  2  0
 86 87  1  0
 87 91  1  0
 88 87  2  0
 89 88  1  0
 90 89  1  0
 92 93  1  0
 93 96  1  0
 93 95  1  0
 94 92  2  0
 97 99  1  0
 97 98  1  0
100102  1  0
101102  1  0
M  ISO  4   8 101  10 101  62 100  70 100
M  END
>  <TORSDO>  (13) 
F 24

>  <SCORE>  (13) 
-8.655

>  <name>  (13) 
13

>  <ligand_id>  (13) 
13

>  <original_smiles>  (13) 
[H]C(C(=O)Oc1c([H])c([H])c2c(c1[H])C([H])([H])N(C(=O)C([H])(N([H])C(=O)C([H])(N([H])C([H])([H])[H])C([H])([H])[H])C(C([H])([H])[H])(C([H])([H])[H])C([H])([H])[H])C([H])(C(=O)N([H])C1([H])c3c([H])c([H])c([H])c([H])c3C([H])([H])C([H])([H])C1([H])[H])C2([H])[H])=C([H])C(=O)N([H])C([H])(C(=O)N([H])C([H])(C(=O)N([H])[H])C([H])([H])N([H])C(=O)N1C([H])([H])C([H])([H])C([H])([H])C([H])(n2nc(-c3c([H])c([H])c(Oc4c([H])c([H])c(F)c([H])c4F)c([H])c3[H])c(C(=O)N([H])[H])c2N([H])[H])C1([H])[H])C([H])(C([H])([H])[H])C([H])([H])[H]

>  <smiles>  (13) 
[H]C(C(=O)Oc1c([H])c([H])c2c(c1[H])C([H])([H])N(C(=O)C([H])(N([H])C(=O)C([H])(N([H])C([H])([H])[H])C([H])([H])[H])C(C([H])([H])[H])(C([H])([H])[H])C([H])([H])[H])C([H])(C(=O)N([H])C1([H])c3c([H])c([H])c([H])c([H])c3C([H])([H])C([H])([H])C1([H])[H])C2([H])[H])=C([H])C(=O)N([H])C([H])(C(=O)N([H])C([H])(C(=O)N([H])[H])C([H])([H])N([H])C(=O)N1C([H])([H])C([H])([H])C([H])([H])C([H])(n2nc(-c3c([H])c([H])c(Oc4c([H])c([H])c(F)c([H])c4F)c([H])c3[H])c(C(=O)N([H])[H])c2N([H])[H])C1([H])[H])C([H])(C([H])([H])[H])C([H])([H])[H]

$$$$
14:0:0
     RDKit          3D

103111  0  0  1  0  0  0  0  0999 V2000
  -32.4690  -19.6750   22.7420 C   0  0  0  0  0  3  0  0  0  0  0  0
  -36.3130  -20.5020   21.0810 C   0  0  0  0  0  2  0  0  0  0  0  0
  -35.1910  -21.5560   21.0140 C   0  0  0  0  0  2  0  0  0  0  0  0
  -34.9990  -19.2070   22.5440 C   0  0  0  0  0  2  0  0  0  0  0  0
  -33.8780  -20.2710   22.5010 C   0  0  0  0  0  3  0  0  0  0  0  0
  -36.2650  -19.8310   22.3380 O   0  0  0  0  0  0  0  0  0  0  0  0
  -33.9280  -20.9300   21.2300 O   0  0  0  0  0  0  0  0  0  0  0  0
  -31.5240  -17.5750   21.7750 C   0  0  0  0  0  0  0  0  0  0  0  0
  -32.1190  -18.7650   21.6450 N   0  0  0  0  0  0  0  0  0  0  0  0
  -31.3150  -17.0440   22.8680 O   0  0  0  0  0  0  0  0  0  0  0  0
  -32.3070  -19.1010   20.7120 H   0  0  0  0  0  0  0  0  0  0  0  0
  -31.0470  -16.9120   20.4720 C   0  0  0  0  0  3  0  0  0  0  0  0
  -31.4000  -14.4410   20.3130 C   0  0  0  0  0  0  0  0  0  0  0  0
  -31.1010  -12.1340   19.5010 C   0  0  0  0  0  2  0  0  0  0  0  0
  -30.2020  -12.1630   18.2470 C   0  0  0  0  0  2  0  0  0  0  0  0
  -28.7090  -12.1280   18.6360 C   0  0  0  0  0  2  0  0  0  0  0  0
  -28.3520  -13.1680   19.7320 C   0  0  0  0  0  3  0  0  0  0  0  0
  -29.3580  -13.0890   20.9020 C   0  0  0  0  0  2  0  0  0  0  0  0
  -30.7150  -13.2690   20.3530 N   0  0  0  0  0  0  0  0  0  0  0  0
  -32.5240  -14.5570   19.8150 O   0  0  0  0  0  0  0  0  0  0  0  0
  -30.6900  -15.5100   20.6980 N   0  0  0  0  0  0  0  0  0  0  0  0
  -29.7990  -15.3290   21.1300 H   0  0  0  0  0  0  0  0  0  0  0  0
  -26.0140  -13.9850   20.4390 C   0  0  0  0  0  0  0  0  0  0  0  0
  -24.8740  -13.3070   20.7800 C   0  0  0  0  0  0  0  0  0  0  0  0
  -25.2060  -11.9200   20.7120 C   0  0  0  0  0  0  0  0  0  0  0  0
  -26.9730  -13.0160   20.1890 N   0  0  0  0  0  0  0  0  0  0  0  0
  -26.4880  -11.7670   20.4080 N   0  0  0  0  0  0  0  0  0  0  0  0
  -24.3640  -10.7270   20.8650 C   0  0  0  0  0  0  0  0  0  0  0  0
  -24.6860   -9.7090   21.7900 C   0  0  0  0  0  3  0  0  0  0  0  0
  -23.8510   -8.5800   21.9300 C   0  0  0  0  0  3  0  0  0  0  0  0
  -22.6800   -8.4610   21.1440 C   0  0  0  0  0  0  0  0  0  0  0  0
  -22.3770   -9.4660   20.2080 C   0  0  0  0  0  3  0  0  0  0  0  0
  -23.2110  -10.5870   20.0660 C   0  0  0  0  0  3  0  0  0  0  0  0
  -21.8230   -7.3890   21.1940 O   0  0  0  0  0  0  0  0  0  0  0  0
  -21.6540   -6.6550   22.3420 C   0  0  0  0  0  0  0  0  0  0  0  0
  -21.1990   -7.2440   23.5410 C   0  0  0  0  0  3  0  0  0  0  0  0
  -20.9730   -6.4420   24.6780 C   0  0  0  0  0  3  0  0  0  0  0  0
  -21.1920   -5.0520   24.6150 C   0  0  0  0  0  0  0  0  0  0  0  0
  -21.6410   -4.4640   23.4190 C   0  0  0  0  0  3  0  0  0  0  0  0
  -21.8680   -5.2640   22.2860 C   0  0  0  0  0  0  0  0  0  0  0  0
  -22.2810   -4.6890   21.1290 F   0  0  0  0  0  0  0  0  0  0  0  0
  -20.9680   -4.2800   25.7030 F   0  0  0  0  0  0  0  0  0  0  0  0
  -23.5260  -13.9060   21.0610 C   0  0  0  0  0  0  0  0  0  0  0  0
  -22.7360  -13.2650   21.9160 N   0  0  0  0  0  0  0  0  0  0  0  0
  -23.1840  -14.9780   20.5610 O   0  0  0  0  0  0  0  0  0  0  0  0
  -23.0230  -12.3960   22.3410 H   0  0  0  0  0  0  0  0  0  0  0  0
  -21.8300  -13.6480   22.1480 H   0  0  0  0  0  0  0  0  0  0  0  0
  -26.3040  -15.3390   20.3050 N   0  0  0  0  0  0  0  0  0  0  0  0
  -25.5970  -16.0530   20.4360 H   0  0  0  0  0  0  0  0  0  0  0  0
  -27.1950  -15.7160   20.0050 H   0  0  0  0  0  0  0  0  0  0  0  0
  -29.7750  -17.6720   20.0190 C   0  0  0  0  0  2  0  0  0  0  0  0
  -28.1090  -18.1270   18.1390 C   0  0  0  0  0  1  0  0  0  0  0  0
  -29.3140  -17.2990   18.6000 C   0  0  0  0  0  2  0  0  0  0  0  0
  -31.4110  -20.7940   22.8890 C   0  0  0  0  0  0  0  0  0  0  0  0
  -30.9940  -21.4510   21.7920 N   0  0  0  0  0  0  0  0  0  0  0  0
  -30.9410  -21.0350   24.0030 O   0  0  0  0  0  0  0  0  0  0  0  0
  -31.4440  -21.2220   20.9170 H   0  0  0  0  0  0  0  0  0  0  0  0
  -29.9370  -22.4700   21.7550 C   0  0  0  0  0  2  0  0  0  0  0  0
  -30.1960  -23.5390   20.6740 C   0  0  0  0  0  2  0  0  0  0  0  0
  -29.3830  -24.6960   20.8890 O   0  0  0  0  0  0  0  0  0  0  0  0
  -29.8580  -25.8460   20.1780 C   0  0  0  0  0  2  0  0  0  0  0  0
  -28.9670  -27.0950   20.3840 C   0  0  0  0  0  2  0  0  0  0  0  0
  -27.8790  -27.0620   19.4600 O   0  0  0  0  0  0  0  0  0  0  0  0
  -24.5430  -32.0780   23.3370 C   0  0  0  0  0  0  0  0  0  0  0  0
  -26.7810  -27.8610   19.6940 C   0  0  0  0  0  0  0  0  0  0  0  0
  -23.1400  -30.8060   21.7400 C   0  0  0  0  0  3  0  0  0  0  0  0
  -24.4110  -29.3660   20.0640 C   0  0  0  0  0  0  0  0  0  0  0  0
  -25.6300  -31.1690   21.2910 C   0  0  0  0  0  2  0  0  0  0  0  0
  -25.6290  -29.8420   20.5620 C   0  0  0  0  0  0  0  0  0  0  0  0
  -26.8160  -29.0950   20.3870 C   0  0  0  0  0  3  0  0  0  0  0  0
  -25.5450  -27.4070   19.1860 C   0  0  0  0  0  3  0  0  0  0  0  0
  -24.3610  -28.1410   19.3790 C   0  0  0  0  0  3  0  0  0  0  0  0
  -23.1890  -30.2230   20.3020 C   0  0  0  0  0  2  0  0  0  0  0  0
  -24.4610  -31.3630   22.1800 N   0  0  0  0  0  0  0  0  0  0  0  0
  -23.5330  -32.3170   24.0110 O   0  0  0  0  0  0  0  0  0  0  0  0
  -22.5850  -29.7220   22.6930 C   0  0  0  0  0  0  0  0  0  0  0  0
  -21.2860  -29.4050   22.5490 N   0  0  0  0  0  0  0  0  0  0  0  0
  -23.3200  -29.1670   23.5150 O   0  0  0  0  0  0  0  0  0  0  0  0
  -20.7490  -29.9120   21.8600 H   0  0  0  0  0  0  0  0  0  0  0  0
  -18.1190  -27.6930   22.8250 C   0  0  0  0  0  0  0  0  0  0  0  0
  -20.5600  -28.3880   23.3110 C   0  0  0  0  0  3  0  0  0  0  0  0
  -20.9490  -26.9630   22.8510 C   0  0  0  0  0  2  0  0  0  0  0  0
  -20.0230  -26.4060   21.7680 C   0  0  0  0  0  2  0  0  0  0  0  0
  -18.5770  -26.3540   22.2690 C   0  0  0  0  0  2  0  0  0  0  0  0
  -19.0500  -28.6530   23.2990 C   0  0  0  0  0  0  0  0  0  0  0  0
  -18.5730  -29.8940   23.7720 C   0  0  0  0  0  3  0  0  0  0  0  0
  -17.1940  -30.1800   23.7800 C   0  0  0  0  0  3  0  0  0  0  0  0
  -16.2740  -29.2190   23.3220 C   0  0  0  0  0  3  0  0  0  0  0  0
  -16.7390  -27.9770   22.8520 C   0  0  0  0  0  3  0  0  0  0  0  0
  -25.9010  -32.6510   23.8500 C   0  0  0  0  0  3  0  0  0  0  0  0
  -25.6730  -34.0480   24.2410 N   0  0  0  0  0  0  0  0  0  0  0  0
  -26.0130  -35.1090   23.4960 C   0  0  0  0  0  0  0  0  0  0  0  0
  -26.6220  -35.0100   22.4270 O   0  0  0  0  0  0  0  0  0  0  0  0
  -25.1280  -34.2020   25.0750 H   0  0  0  0  0  0  0  0  0  0  0  0
  -24.3520  -36.9820   23.2810 C   0  0  0  0  0  1  0  0  0  0  0  0
  -25.6110  -36.5000   24.0200 C   0  0  0  0  0  3  0  0  0  0  0  0
  -27.8210  -37.2590   24.7710 C   0  0  0  0  0  1  0  0  0  0  0  0
  -26.6840  -37.5100   23.8890 N   0  0  0  0  0  0  0  0  0  0  0  0
  -26.3280  -38.4410   24.0850 H   0  0  0  0  0  0  0  0  0  0  0  0
  -26.5120  -31.8260   25.0490 C   0  0  1  0  0  0  0  0  0  0  0  0
  -25.5030  -31.5550   26.1890 C   0  0  0  0  0  1  0  0  0  0  0  0
  -27.0470  -30.4610   24.5550 C   0  0  0  0  0  1  0  0  0  0  0  0
  -27.7190  -32.5840   25.6450 C   0  0  0  0  0  1  0  0  0  0  0  0
  1 54  1  0
  2  6  1  0
  3  2  1  0
  3  7  1  0
  5  4  1  0
  5  1  1  0
  6  4  1  0
  7  5  1  0
  8 10  2  0
  9  8  1  0
  9  1  1  0
 11  9  1  0
 12 51  1  0
 12 21  1  0
 12  8  1  0
 13 19  1  0
 13 21  1  0
 14 19  1  0
 15 16  1  0
 15 14  1  0
 17 16  1  0
 17 26  1  0
 17 18  1  0
 19 18  1  0
 20 13  2  0
 21 22  1  0
 23 24  2  0
 24 43  1  0
 25 24  1  0
 25 28  1  0
 26 27  1  0
 26 23  1  0
 27 25  2  0
 28 29  1  0
 29 30  2  0
 31 34  1  0
 31 30  1  0
 32 31  2  0
 33 32  1  0
 33 28  2  0
 34 35  1  0
 35 36  1  0
 36 37  2  0
 38 37  1  0
 38 42  1  0
 39 38  2  0
 40 35  2  0
 40 39  1  0
 41 40  1  0
 43 44  1  0
 44 47  1  0
 44 46  1  0
 45 43  2  0
 48 49  1  0
 48 23  1  0
 50 48  1  0
 52 53  1  0
 53 51  1  0
 54 56  2  0
 55 54  1  0
 57 55  1  0
 58 55  1  0
 59 60  1  0
 59 58  1  0
 61 62  1  0
 61 60  1  0
 63 65  1  0
 63 62  1  0
 64 75  2  0
 65 70  1  0
 66 74  1  0
 66 76  1  0
 67 73  1  0
 67 69  1  0
 68 74  1  0
 69 68  1  0
 70 69  2  0
 71 72  1  0
 71 65  2  0
 72 67  2  0
 73 66  1  0
 74 64  1  0
 76 78  2  0
 77 76  1  0
 79 77  1  0
 80 89  2  0
 80 85  1  0
 81 77  1  0
 82 81  1  0
 83 84  1  0
 83 82  1  0
 84 80  1  0
 85 81  1  0
 85 86  2  0
 86 87  1  0
 88 87  2  0
 89 88  1  0
 90 64  1  0
 90 91  1  0
 90100  1  0
 91 94  1  0
 92 96  1  0
 92 91  1  0
 93 92  2  0
 96 95  1  0
 98 96  1  0
 98 99  1  0
 98 97  1  0
100103  1  1
100101  1  0
102100  1  0
M  ISO  4  13 100  21 100  62 101  63 101
M  END
>  <TORSDO>  (14) 
F 27

>  <SCORE>  (14) 
-10.587

>  <name>  (14) 
14

>  <ligand_id>  (14) 
14

>  <original_smiles>  (14) 
[H]c1c([H])c([H])c2c(c1[H])C([H])([H])C([H])([H])C([H])([H])C2([H])N([H])C(=O)C1([H])N(C(=O)C([H])(N([H])C(=O)C([H])(N([H])C([H])([H])[H])C([H])([H])[H])C(C([H])([H])[H])(C([H])([H])[H])C([H])([H])[H])C([H])([H])c2c([H])c(OC([H])([H])C([H])([H])OC([H])([H])C([H])([H])N([H])C(=O)C([H])(N([H])C(=O)C([H])(N([H])C(=O)N3C([H])([H])C([H])([H])C([H])([H])C([H])(n4nc(-c5c([H])c([H])c(Oc6c([H])c([H])c(F)c([H])c6F)c([H])c5[H])c(C(=O)N([H])[H])c4N([H])[H])C3([H])[H])C([H])([H])C([H])([H])C([H])([H])[H])C3([H])OC([H])([H])C([H])([H])OC3([H])[H])c([H])c([H])c2C1([H])[H]

>  <smiles>  (14) 
[H]c1c([H])c([H])c2c(c1[H])C([H])([H])C([H])([H])C([H])([H])C2([H])N([H])C(=O)C1([H])N(C(=O)C([H])(N([H])C(=O)C([H])(N([H])C([H])([H])[H])C([H])([H])[H])C(C([H])([H])[H])(C([H])([H])[H])C([H])([H])[H])C([H])([H])c2c([H])c(OC([H])([H])C([H])([H])OC([H])([H])C([H])([H])N([H])C(=O)C([H])(N([H])C(=O)C([H])(N([H])C(=O)N3C([H])([H])C([H])([H])C([H])([H])C([H])(n4nc(-c5c([H])c([H])c(Oc6c([H])c([H])c(F)c([H])c6F)c([H])c5[H])c(C(=O)N([H])[H])c4N([H])[H])C3([H])[H])C([H])([H])C([H])([H])C([H])([H])[H])C3([H])OC([H])([H])C([H])([H])OC3([H])[H])c([H])c([H])c2C1([H])[H]

$$$$
15:0:0
     RDKit          3D

 99106  0  0  1  0  0  0  0  0999 V2000
  -32.6300  -18.9510   21.0380 C   0  0  0  0  0  2  0  0  0  0  0  0
  -31.2160  -19.0990   21.0580 O   0  0  0  0  0  0  0  0  0  0  0  0
  -30.5930  -18.9000   19.7950 C   0  0  0  0  0  2  0  0  0  0  0  0
  -30.6810  -20.1720   18.9430 C   0  0  0  0  0  2  0  0  0  0  0  0
  -29.9300  -21.1700   19.6140 O   0  0  0  0  0  0  0  0  0  0  0  0
  -30.0110  -22.4400   19.0000 C   0  0  0  0  0  2  0  0  0  0  0  0
  -29.1740  -23.3930   19.8550 C   0  0  0  0  0  2  0  0  0  0  0  0
  -29.1860  -24.8390   19.3470 C   0  0  0  0  0  2  0  0  0  0  0  0
  -28.4220  -25.7640   20.2970 C   0  0  0  0  0  2  0  0  0  0  0  0
  -28.4380  -27.0960   19.7930 O   0  0  0  0  0  0  0  0  0  0  0  0
  -24.5560  -31.8930   23.3020 C   0  0  0  0  0  0  0  0  0  0  0  0
  -27.2440  -27.7650   19.8770 C   0  0  0  0  0  0  0  0  0  0  0  0
  -23.3500  -30.5750   21.5920 C   0  0  0  0  0  3  0  0  0  0  0  0
  -24.8080  -29.1760   20.0380 C   0  0  0  0  0  0  0  0  0  0  0  0
  -25.8570  -31.0190   21.3660 C   0  0  0  0  0  2  0  0  0  0  0  0
  -25.9630  -29.6990   20.6370 C   0  0  0  0  0  0  0  0  0  0  0  0
  -27.1850  -29.0000   20.5540 C   0  0  0  0  0  3  0  0  0  0  0  0
  -26.0750  -27.2480   19.2730 C   0  0  0  0  0  3  0  0  0  0  0  0
  -24.8570  -27.9480   19.3560 C   0  0  0  0  0  3  0  0  0  0  0  0
  -23.5450  -29.9960   20.1650 C   0  0  0  0  0  2  0  0  0  0  0  0
  -24.6080  -31.1730   22.1460 N   0  0  0  0  0  0  0  0  0  0  0  0
  -23.4820  -32.1020   23.8820 O   0  0  0  0  0  0  0  0  0  0  0  0
  -22.7440  -29.4730   22.4910 C   0  0  0  0  0  0  0  0  0  0  0  0
  -21.4230  -29.2610   22.3690 N   0  0  0  0  0  0  0  0  0  0  0  0
  -23.4570  -28.8160   23.2540 O   0  0  0  0  0  0  0  0  0  0  0  0
  -20.9100  -29.8470   21.7270 H   0  0  0  0  0  0  0  0  0  0  0  0
  -18.0920  -27.9360   22.8120 C   0  0  0  0  0  0  0  0  0  0  0  0
  -20.6440  -28.2510   23.0840 C   0  0  0  0  0  3  0  0  0  0  0  0
  -20.7830  -26.8630   22.4190 C   0  0  0  0  0  2  0  0  0  0  0  0
  -19.6830  -26.5730   21.3930 C   0  0  0  0  0  2  0  0  0  0  0  0
  -18.3020  -26.6370   22.0540 C   0  0  0  0  0  2  0  0  0  0  0  0
  -19.1910  -28.7030   23.2820 C   0  0  0  0  0  0  0  0  0  0  0  0
  -18.9420  -29.9220   23.9460 C   0  0  0  0  0  3  0  0  0  0  0  0
  -17.6260  -30.3770   24.1500 C   0  0  0  0  0  3  0  0  0  0  0  0
  -16.5400  -29.6050   23.6980 C   0  0  0  0  0  3  0  0  0  0  0  0
  -16.7740  -28.3870   23.0360 C   0  0  0  0  0  3  0  0  0  0  0  0
  -25.8430  -32.5080   23.9390 C   0  0  0  0  0  3  0  0  0  0  0  0
  -25.5300  -33.8920   24.3170 N   0  0  0  0  0  0  0  0  0  0  0  0
  -25.8630  -34.9690   23.5940 C   0  0  0  0  0  0  0  0  0  0  0  0
  -26.5400  -34.9040   22.5640 O   0  0  0  0  0  0  0  0  0  0  0  0
  -24.9270  -34.0160   25.1160 H   0  0  0  0  0  0  0  0  0  0  0  0
  -24.1280  -36.7660   23.2890 C   0  0  0  0  0  1  0  0  0  0  0  0
  -25.3670  -36.3400   24.0940 C   0  0  0  0  0  3  0  0  0  0  0  0
  -27.4960  -37.1990   24.9590 C   0  0  0  0  0  1  0  0  0  0  0  0
  -26.3960  -37.4000   24.0220 N   0  0  0  0  0  0  0  0  0  0  0  0
  -25.9850  -38.3110   24.2080 H   0  0  0  0  0  0  0  0  0  0  0  0
  -26.3700  -31.6960   25.1850 C   0  0  1  0  0  0  0  0  0  0  0  0
  -25.2800  -31.3980   26.2410 C   0  0  0  0  0  1  0  0  0  0  0  0
  -26.9730  -30.3440   24.7330 C   0  0  0  0  0  1  0  0  0  0  0  0
  -27.5110  -32.4770   25.8760 C   0  0  0  0  0  1  0  0  0  0  0  0
  -33.1130  -18.5950   22.4530 C   0  0  0  0  0  2  0  0  0  0  0  0
  -32.5270  -17.2850   23.0220 C   0  0  0  0  0  2  0  0  0  0  0  0
  -31.2580  -15.6090   21.6720 C   0  0  0  0  0  0  0  0  0  0  0  0
  -32.3920  -16.2440   22.0050 N   0  0  0  0  0  0  0  0  0  0  0  0
  -30.1780  -15.8200   22.2300 O   0  0  0  0  0  0  0  0  0  0  0  0
  -33.2300  -15.9790   21.5040 H   0  0  0  0  0  0  0  0  0  0  0  0
  -31.3630  -14.5750   20.5350 C   0  0  0  0  0  3  0  0  0  0  0  0
  -29.5950  -14.0360   18.8630 C   0  0  0  0  0  0  0  0  0  0  0  0
  -28.8150  -12.0950   17.5730 C   0  0  0  0  0  2  0  0  0  0  0  0
  -27.5350  -12.2770   16.7470 C   0  0  0  0  0  2  0  0  0  0  0  0
  -26.2940  -12.0100   17.6140 C   0  0  0  0  0  2  0  0  0  0  0  0
  -26.3180  -12.8180   18.9360 C   0  0  0  0  0  3  0  0  0  0  0  0
  -27.6660  -12.6520   19.6690 C   0  0  0  0  0  2  0  0  0  0  0  0
  -28.7630  -12.9810   18.7410 N   0  0  0  0  0  0  0  0  0  0  0  0
  -30.1660  -14.5840   17.9130 O   0  0  0  0  0  0  0  0  0  0  0  0
  -30.0200  -14.1660   20.1240 N   0  0  0  0  0  0  0  0  0  0  0  0
  -29.4900  -13.6740   20.8240 H   0  0  0  0  0  0  0  0  0  0  0  0
  -24.2680  -13.2850   20.4250 C   0  0  0  0  0  0  0  0  0  0  0  0
  -23.3780  -12.4470   21.0430 C   0  0  0  0  0  0  0  0  0  0  0  0
  -23.8120  -11.1190   20.7450 C   0  0  0  0  0  0  0  0  0  0  0  0
  -25.1900  -12.4620   19.7950 N   0  0  0  0  0  0  0  0  0  0  0  0
  -24.9350  -11.1500   20.0370 N   0  0  0  0  0  0  0  0  0  0  0  0
  -23.1920   -9.8210   21.0390 C   0  0  0  0  0  0  0  0  0  0  0  0
  -23.8320   -8.8660   21.8590 C   0  0  0  0  0  3  0  0  0  0  0  0
  -23.2070   -7.6330   22.1430 C   0  0  0  0  0  3  0  0  0  0  0  0
  -21.9280   -7.3460   21.6100 C   0  0  0  0  0  0  0  0  0  0  0  0
  -21.3050   -8.2920   20.7760 C   0  0  0  0  0  3  0  0  0  0  0  0
  -21.9310   -9.5160   20.4900 C   0  0  0  0  0  3  0  0  0  0  0  0
  -21.2550   -6.1650   21.8100 O   0  0  0  0  0  0  0  0  0  0  0  0
  -21.3480   -5.4760   22.9930 C   0  0  0  0  0  0  0  0  0  0  0  0
  -21.0160   -6.0720   24.2310 C   0  0  0  0  0  3  0  0  0  0  0  0
  -21.0580   -5.3070   25.4130 C   0  0  0  0  0  3  0  0  0  0  0  0
  -21.4230   -3.9490   25.3620 C   0  0  0  0  0  0  0  0  0  0  0  0
  -21.7480   -3.3520   24.1310 C   0  0  0  0  0  3  0  0  0  0  0  0
  -21.7090   -4.1140   22.9490 C   0  0  0  0  0  0  0  0  0  0  0  0
  -22.0030   -3.5300   21.7630 F   0  0  0  0  0  0  0  0  0  0  0  0
  -21.4550   -3.2120   26.4970 F   0  0  0  0  0  0  0  0  0  0  0  0
  -22.1410  -12.8520   21.7920 C   0  0  0  0  0  0  0  0  0  0  0  0
  -21.7460  -12.0720   22.7930 N   0  0  0  0  0  0  0  0  0  0  0  0
  -21.5410  -13.8910   21.5200 O   0  0  0  0  0  0  0  0  0  0  0  0
  -22.2500  -11.2300   23.0290 H   0  0  0  0  0  0  0  0  0  0  0  0
  -20.9290  -12.3220   23.3310 H   0  0  0  0  0  0  0  0  0  0  0  0
  -24.3600  -14.6690   20.3300 N   0  0  0  0  0  0  0  0  0  0  0  0
  -23.6650  -15.2880   20.7340 H   0  0  0  0  0  0  0  0  0  0  0  0
  -25.0710  -15.1630   19.8020 H   0  0  0  0  0  0  0  0  0  0  0  0
  -33.6560  -13.6520   21.2250 C   0  0  0  0  0  1  0  0  0  0  0  0
  -32.1930  -12.3010   19.7400 C   0  0  0  0  0  1  0  0  0  0  0  0
  -31.6110  -12.5580   22.1650 C   0  0  0  0  0  1  0  0  0  0  0  0
  -32.1840  -13.2920   20.9280 C   0  0  2  0  0  0  0  0  0  0  0  0
  1  2  1  0
  1 51  1  0
  3  2  1  0
  4  5  1  0
  4  3  1  0
  6  5  1  0
  6  7  1  0
  8  7  1  0
  8  9  1  0
 10 12  1  0
 10  9  1  0
 11 22  2  0
 12 17  1  0
 13 21  1  0
 13 23  1  0
 14 20  1  0
 14 16  1  0
 15 21  1  0
 16 15  1  0
 17 16  2  0
 18 19  1  0
 18 12  2  0
 19 14  2  0
 20 13  1  0
 21 11  1  0
 23 25  2  0
 24 23  1  0
 26 24  1  0
 27 36  2  0
 27 32  1  0
 28 24  1  0
 28 32  1  0
 29 28  1  0
 30 31  1  0
 30 29  1  0
 31 27  1  0
 32 33  2  0
 33 34  1  0
 35 34  2  0
 36 35  1  0
 37 11  1  0
 37 38  1  0
 37 47  1  0
 38 41  1  0
 39 43  1  0
 39 38  1  0
 40 39  2  0
 43 42  1  0
 45 43  1  0
 45 46  1  0
 45 44  1  0
 47 50  1  1
 47 48  1  0
 49 47  1  0
 51 52  1  0
 53 54  1  0
 53 55  2  0
 54 52  1  0
 56 54  1  0
 57 99  1  0
 57 53  1  0
 58 66  1  0
 59 64  1  0
 60 59  1  0
 60 61  1  0
 62 61  1  0
 62 63  1  0
 62 71  1  0
 64 58  1  0
 64 63  1  0
 65 58  2  0
 66 57  1  0
 66 67  1  0
 68 69  2  0
 69 88  1  0
 70 73  1  0
 70 69  1  0
 71 72  1  0
 71 68  1  0
 72 70  2  0
 73 74  1  0
 74 75  2  0
 76 79  1  0
 76 75  1  0
 77 76  2  0
 78 77  1  0
 78 73  2  0
 79 80  1  0
 80 81  1  0
 81 82  2  0
 83 82  1  0
 83 87  1  0
 84 83  2  0
 85 80  2  0
 85 84  1  0
 86 85  1  0
 88 89  1  0
 89 91  1  0
 89 92  1  0
 90 88  2  0
 93 68  1  0
 93 94  1  0
 95 93  1  0
 99 97  1  6
 99 96  1  0
 99 98  1  0
M  ISO  4   9 101  10 101  58 100  66 100
M  END
>  <TORSDO>  (15) 
F 29

>  <SCORE>  (15) 
0.658

>  <name>  (15) 
15

>  <ligand_id>  (15) 
15

>  <original_smiles>  (15) 
[H]c1c([H])c([H])c2c(c1[H])C([H])([H])C([H])([H])C([H])([H])C2([H])N([H])C(=O)C1([H])N(C(=O)C([H])(N([H])C(=O)C([H])(N([H])C([H])([H])[H])C([H])([H])[H])C(C([H])([H])[H])(C([H])([H])[H])C([H])([H])[H])C([H])([H])c2c([H])c(OC([H])([H])C([H])([H])C([H])([H])C([H])([H])OC([H])([H])C([H])([H])OC([H])([H])C([H])([H])C([H])([H])N([H])C(=O)C([H])(N([H])C(=O)N3C([H])([H])C([H])([H])C([H])([H])C([H])(n4nc(-c5c([H])c([H])c(Oc6c([H])c([H])c(F)c([H])c6F)c([H])c5[H])c(C(=O)N([H])[H])c4N([H])[H])C3([H])[H])C(C([H])([H])[H])(C([H])([H])[H])C([H])([H])[H])c([H])c([H])c2C1([H])[H]

>  <smiles>  (15) 
[H]c1c([H])c([H])c2c(c1[H])C([H])([H])C([H])([H])C([H])([H])C2([H])N([H])C(=O)C1([H])N(C(=O)C([H])(N([H])C(=O)C([H])(N([H])C([H])([H])[H])C([H])([H])[H])C(C([H])([H])[H])(C([H])([H])[H])C([H])([H])[H])C([H])([H])c2c([H])c(OC([H])([H])C([H])([H])C([H])([H])C([H])([H])OC([H])([H])C([H])([H])OC([H])([H])C([H])([H])C([H])([H])N([H])C(=O)C([H])(N([H])C(=O)N3C([H])([H])C([H])([H])C([H])([H])C([H])(n4nc(-c5c([H])c([H])c(Oc6c([H])c([H])c(F)c([H])c6F)c([H])c5[H])c(C(=O)N([H])[H])c4N([H])[H])C3([H])[H])C(C([H])([H])[H])(C([H])([H])[H])C([H])([H])[H])c([H])c([H])c2C1([H])[H]

$$$$
16:0:0
     RDKit          3D

107114  0  0  1  0  0  0  0  0999 V2000
  -26.0010  -28.6240   15.5580 N   0  0  0  0  0  4  0  0  0  0  0  0
  -25.1750  -28.7580   16.1270 H   0  0  0  0  0  0  0  0  0  0  0  0
  -25.9890  -29.3470   14.8560 H   0  0  0  0  0  0  0  0  0  0  0  0
  -27.1960  -28.7620   16.4310 C   0  0  0  0  0  2  0  0  0  0  0  0
  -28.5200  -28.9950   15.6660 C   0  0  0  0  0  2  0  0  0  0  0  0
  -29.3750  -27.7300   15.4740 C   0  0  0  0  0  2  0  0  0  0  0  0
  -29.8920  -27.3210   16.7360 O   0  0  0  0  0  0  0  0  0  0  0  0
  -30.0160  -25.9130   16.9380 C   0  0  0  0  0  2  0  0  0  0  0  0
  -31.4550  -25.5660   17.3640 C   0  0  0  0  0  2  0  0  0  0  0  0
  -31.6100  -24.2610   18.1770 C   0  0  0  0  0  2  0  0  0  0  0  0
  -30.7780  -22.0940   18.2620 C   0  0  0  0  0  3  0  0  0  0  0  0
  -30.9640  -23.1260   17.5350 N   0  0  0  0  0  0  0  0  0  0  0  0
  -30.1100  -20.8330   17.7530 C   0  0  0  0  0  2  0  0  0  0  0  0
  -29.5320  -19.9340   18.8640 C   0  0  0  0  0  2  0  0  0  0  0  0
  -30.5730  -19.2350   19.5350 O   0  0  0  0  0  0  0  0  0  0  0  0
  -30.0940  -18.2310   20.4250 C   0  0  0  0  0  2  0  0  0  0  0  0
  -31.3080  -17.5650   21.0880 C   0  0  0  0  0  2  0  0  0  0  0  0
  -30.9800  -16.4280   22.0890 C   0  0  0  0  0  2  0  0  0  0  0  0
  -30.7830  -14.3890   20.6440 C   0  0  0  0  0  0  0  0  0  0  0  0
  -30.4160  -12.2900   19.4000 C   0  0  0  0  0  2  0  0  0  0  0  0
  -29.4840  -12.5060   18.1940 C   0  0  0  0  0  2  0  0  0  0  0  0
  -28.0110  -12.3650   18.6180 C   0  0  0  0  0  2  0  0  0  0  0  0
  -27.6680  -13.2060   19.8760 C   0  0  0  0  0  3  0  0  0  0  0  0
  -28.7120  -12.9820   20.9940 C   0  0  0  0  0  2  0  0  0  0  0  0
  -30.0500  -13.2640   20.4400 N   0  0  0  0  0  0  0  0  0  0  0  0
  -31.8510  -14.6100   20.0680 O   0  0  0  0  0  0  0  0  0  0  0  0
  -30.2800  -15.2660   21.5250 N   0  0  0  0  0  0  0  0  0  0  0  0
  -29.3880  -15.0240   21.9320 H   0  0  0  0  0  0  0  0  0  0  0  0
  -25.2620  -13.8160   20.5690 C   0  0  0  0  0  0  0  0  0  0  0  0
  -24.1870  -13.0450   20.9170 C   0  0  0  0  0  0  0  0  0  0  0  0
  -24.6420  -11.6910   20.8740 C   0  0  0  0  0  0  0  0  0  0  0  0
  -26.3070  -12.9340   20.3390 N   0  0  0  0  0  0  0  0  0  0  0  0
  -25.9350  -11.6500   20.5790 N   0  0  0  0  0  0  0  0  0  0  0  0
  -23.9080  -10.4300   21.0410 C   0  0  0  0  0  0  0  0  0  0  0  0
  -24.3630   -9.4210   21.9180 C   0  0  0  0  0  3  0  0  0  0  0  0
  -23.6300   -8.2250   22.0760 C   0  0  0  0  0  3  0  0  0  0  0  0
  -22.4280   -8.0280   21.3550 C   0  0  0  0  0  0  0  0  0  0  0  0
  -21.9920   -9.0260   20.4650 C   0  0  0  0  0  3  0  0  0  0  0  0
  -22.7250  -10.2140   20.3060 C   0  0  0  0  0  3  0  0  0  0  0  0
  -21.6640   -6.8880   21.4250 O   0  0  0  0  0  0  0  0  0  0  0  0
  -21.6850   -6.0730   22.5280 C   0  0  0  0  0  0  0  0  0  0  0  0
  -21.4010   -6.5640   23.8210 C   0  0  0  0  0  3  0  0  0  0  0  0
  -21.3660   -5.6790   24.9170 C   0  0  0  0  0  3  0  0  0  0  0  0
  -21.6040   -4.3060   24.7230 C   0  0  0  0  0  0  0  0  0  0  0  0
  -21.8820   -3.8150   23.4350 C   0  0  0  0  0  3  0  0  0  0  0  0
  -21.9190   -4.6960   22.3400 C   0  0  0  0  0  0  0  0  0  0  0  0
  -22.1660   -4.2150   21.0980 F   0  0  0  0  0  0  0  0  0  0  0  0
  -21.5620   -3.4540   25.7740 F   0  0  0  0  0  0  0  0  0  0  0  0
  -22.7890  -13.5240   21.1830 C   0  0  0  0  0  0  0  0  0  0  0  0
  -22.0520  -12.8240   22.0380 N   0  0  0  0  0  0  0  0  0  0  0  0
  -22.3580  -14.5560   20.6670 O   0  0  0  0  0  0  0  0  0  0  0  0
  -22.4130  -11.9890   22.4760 H   0  0  0  0  0  0  0  0  0  0  0  0
  -21.1150  -13.1300   22.2600 H   0  0  0  0  0  0  0  0  0  0  0  0
  -25.4360  -15.1880   20.4100 N   0  0  0  0  0  0  0  0  0  0  0  0
  -24.6760  -15.8480   20.5250 H   0  0  0  0  0  0  0  0  0  0  0  0
  -26.2950  -15.6240   20.1020 H   0  0  0  0  0  0  0  0  0  0  0  0
  -25.7900  -27.3080   14.9150 C   0  0  0  0  0  2  0  0  0  0  0  0
  -24.9240  -26.4830   15.8640 C   0  0  0  0  0  0  0  0  0  0  0  0
  -23.8970  -26.9640   16.3510 O   0  0  0  0  0  0  0  0  0  0  0  0
  -25.4220  -25.2640   16.1410 O   0  0  0  0  0  0  0  0  0  0  0  0
  -24.7520  -24.4500   17.1030 C   0  0  0  0  0  2  0  0  0  0  0  0
  -25.6790  -23.3470   17.6380 C   0  0  0  0  0  2  0  0  0  0  0  0
  -26.8250  -23.9210   18.2700 O   0  0  0  0  0  0  0  0  0  0  0  0
  -26.9680  -23.5870   19.6460 C   0  0  0  0  0  2  0  0  0  0  0  0
  -28.2940  -24.1560   20.1780 C   0  0  0  0  0  2  0  0  0  0  0  0
  -28.2590  -25.5200   20.9060 C   0  0  0  0  0  2  0  0  0  0  0  0
  -28.3440  -26.6790   20.0680 O   0  0  0  0  0  0  0  0  0  0  0  0
  -24.6150  -31.8720   23.2110 C   0  0  0  0  0  0  0  0  0  0  0  0
  -27.2100  -27.4530   20.0840 C   0  0  0  0  0  0  0  0  0  0  0  0
  -23.3950  -30.5000   21.5550 C   0  0  0  0  0  3  0  0  0  0  0  0
  -24.8330  -28.9680   20.1190 C   0  0  0  0  0  0  0  0  0  0  0  0
  -25.9240  -30.8440   21.3500 C   0  0  0  0  0  2  0  0  0  0  0  0
  -26.0000  -29.4820   20.6990 C   0  0  0  0  0  0  0  0  0  0  0  0
  -27.2010  -28.7340   20.6740 C   0  0  0  0  0  3  0  0  0  0  0  0
  -26.0280  -26.9520   19.5100 C   0  0  0  0  0  3  0  0  0  0  0  0
  -24.8410  -27.6980   19.5220 C   0  0  0  0  0  3  0  0  0  0  0  0
  -23.5970  -29.8380   20.1690 C   0  0  0  0  0  2  0  0  0  0  0  0
  -24.6630  -31.0880   22.0960 N   0  0  0  0  0  0  0  0  0  0  0  0
  -23.5360  -32.1460   23.7550 O   0  0  0  0  0  0  0  0  0  0  0  0
  -22.7420  -29.4700   22.5030 C   0  0  0  0  0  0  0  0  0  0  0  0
  -21.4140  -29.3080   22.3780 N   0  0  0  0  0  0  0  0  0  0  0  0
  -23.4230  -28.8240   23.3040 O   0  0  0  0  0  0  0  0  0  0  0  0
  -20.9310  -29.8760   21.6960 H   0  0  0  0  0  0  0  0  0  0  0  0
  -18.0300  -28.1340   22.8440 C   0  0  0  0  0  0  0  0  0  0  0  0
  -20.5900  -28.3660   23.1310 C   0  0  0  0  0  3  0  0  0  0  0  0
  -20.6880  -26.9470   22.5260 C   0  0  0  0  0  2  0  0  0  0  0  0
  -19.5820  -26.6440   21.5110 C   0  0  0  0  0  2  0  0  0  0  0  0
  -18.1990  -26.7870   22.1570 C   0  0  0  0  0  2  0  0  0  0  0  0
  -19.1530  -28.8800   23.2880 C   0  0  0  0  0  0  0  0  0  0  0  0
  -18.9440  -30.1380   23.8950 C   0  0  0  0  0  3  0  0  0  0  0  0
  -17.6450  -30.6510   24.0580 C   0  0  0  0  0  3  0  0  0  0  0  0
  -16.5350  -29.9070   23.6240 C   0  0  0  0  0  3  0  0  0  0  0  0
  -16.7290  -28.6500   23.0240 C   0  0  0  0  0  3  0  0  0  0  0  0
  -25.9040  -32.4800   23.8410 C   0  0  0  0  0  3  0  0  0  0  0  0
  -26.4470  -31.6550   25.0720 C   0  0  1  0  0  0  0  0  0  0  0  0
  -25.3750  -31.3620   26.1480 C   0  0  0  0  0  1  0  0  0  0  0  0
  -27.0270  -30.3010   24.5990 C   0  0  0  0  0  1  0  0  0  0  0  0
  -27.6070  -32.4250   25.7480 C   0  0  0  0  0  1  0  0  0  0  0  0
  -25.5940  -33.8620   24.2360 N   0  0  0  0  0  0  0  0  0  0  0  0
  -25.9060  -34.9480   23.5160 C   0  0  0  0  0  0  0  0  0  0  0  0
  -26.5670  -34.8930   22.4750 O   0  0  0  0  0  0  0  0  0  0  0  0
  -25.0080  -33.9770   25.0500 H   0  0  0  0  0  0  0  0  0  0  0  0
  -24.1490  -36.7310   23.2610 C   0  0  0  0  0  1  0  0  0  0  0  0
  -25.4120  -36.3140   24.0320 C   0  0  0  0  0  3  0  0  0  0  0  0
  -27.5610  -37.1830   24.8490 C   0  0  0  0  0  1  0  0  0  0  0  0
  -26.4310  -37.3840   23.9430 N   0  0  0  0  0  0  0  0  0  0  0  0
  -26.0200  -38.2910   24.1440 H   0  0  0  0  0  0  0  0  0  0  0  0
  1  2  1  0
  1  4  1  0
  3  1  1  0
  5  4  1  0
  6  5  1  0
  6  7  1  0
  7  8  1  0
  8  9  1  0
  9 10  1  0
 12 10  1  0
 12 11  2  0
 13 11  1  0
 13 14  1  0
 14 15  1  0
 15 16  1  0
 16 17  1  0
 17 18  1  0
 19 27  1  0
 20 25  1  0
 21 22  1  0
 21 20  1  0
 23 22  1  0
 23 32  1  0
 23 24  1  0
 25 19  1  0
 25 24  1  0
 26 19  2  0
 27 28  1  0
 27 18  1  0
 29 30  2  0
 30 49  1  0
 31 30  1  0
 31 34  1  0
 32 29  1  0
 32 33  1  0
 33 31  2  0
 34 35  1  0
 35 36  2  0
 37 40  1  0
 37 36  1  0
 38 37  2  0
 39 38  1  0
 39 34  2  0
 40 41  1  0
 41 42  1  0
 42 43  2  0
 44 43  1  0
 44 48  1  0
 45 44  2  0
 46 41  2  0
 46 45  1  0
 47 46  1  0
 49 50  1  0
 50 53  1  0
 50 52  1  0
 51 49  2  0
 54 55  1  0
 54 29  1  0
 56 54  1  0
 57  1  1  0
 57 58  1  0
 58 60  1  0
 58 59  2  0
 60 61  1  0
 61 62  1  0
 62 63  1  0
 63 64  1  0
 64 65  1  0
 65 66  1  0
 67 69  1  0
 67 66  1  0
 68 79  2  0
 69 74  1  0
 70 78  1  0
 70 80  1  0
 71 77  1  0
 71 73  1  0
 72 78  1  0
 73 72  1  0
 74 73  2  0
 75 76  1  0
 75 69  2  0
 76 71  2  0
 77 70  1  0
 78 68  1  0
 80 82  2  0
 81 80  1  0
 83 81  1  0
 84 93  2  0
 84 89  1  0
 85 81  1  0
 85 89  1  0
 86 85  1  0
 87 88  1  0
 87 86  1  0
 88 84  1  0
 89 90  2  0
 90 91  1  0
 92 91  2  0
 93 92  1  0
 94 68  1  0
 94 99  1  0
 94 95  1  0
 95 98  1  1
 95 96  1  0
 97 95  1  0
 99102  1  0
100104  1  0
100 99  1  0
101100  2  0
104103  1  0
106104  1  0
106107  1  0
106105  1  0
M  ISO  4  19 100  27 100  66 101  67 101
M  END
>  <TORSDO>  (16) 
F 39

>  <SCORE>  (16) 
-9.366

>  <name>  (16) 
16

>  <ligand_id>  (16) 
16

>  <original_smiles>  (16) 
[H]C(=NC([H])([H])C([H])([H])C([H])([H])OC([H])([H])C([H])([H])C([H])([H])[N+]([H])([H])C([H])([H])C(=O)OC([H])([H])C([H])([H])OC([H])([H])C([H])([H])C([H])([H])Oc1c([H])c([H])c2c(c1[H])C([H])([H])N(C(=O)C([H])(N([H])C(=O)C([H])(N([H])C([H])([H])[H])C([H])([H])[H])C(C([H])([H])[H])(C([H])([H])[H])C([H])([H])[H])C([H])(C(=O)N([H])C1([H])c3c([H])c([H])c([H])c([H])c3C([H])([H])C([H])([H])C1([H])[H])C2([H])[H])C([H])([H])C([H])([H])OC([H])([H])C([H])([H])C([H])([H])N([H])C(=O)N1C([H])([H])C([H])([H])C([H])([H])C([H])(n2nc(-c3c([H])c([H])c(Oc4c([H])c([H])c(F)c([H])c4F)c([H])c3[H])c(C(=O)N([H])[H])c2N([H])[H])C1([H])[H]

>  <smiles>  (16) 
[H]C(=NC([H])([H])C([H])([H])C([H])([H])OC([H])([H])C([H])([H])C([H])([H])[N+]([H])([H])C([H])([H])C(=O)OC([H])([H])C([H])([H])OC([H])([H])C([H])([H])C([H])([H])Oc1c([H])c([H])c2c(c1[H])C([H])([H])N(C(=O)C([H])(N([H])C(=O)C([H])(N([H])C([H])([H])[H])C([H])([H])[H])C(C([H])([H])[H])(C([H])([H])[H])C([H])([H])[H])C([H])(C(=O)N([H])C1([H])c3c([H])c([H])c([H])c([H])c3C([H])([H])C([H])([H])C1([H])[H])C2([H])[H])C([H])([H])C([H])([H])OC([H])([H])C([H])([H])C([H])([H])N([H])C(=O)N1C([H])([H])C([H])([H])C([H])([H])C([H])(n2nc(-c3c([H])c([H])c(Oc4c([H])c([H])c(F)c([H])c4F)c([H])c3[H])c(C(=O)N([H])[H])c2N([H])[H])C1([H])[H]

$$$$
17:0:0
     RDKit          3D

 99106  0  0  1  0  0  0  0  0999 V2000
  -29.2930  -19.4000   22.2470 C   0  0  0  0  0  2  0  0  0  0  0  0
  -30.2930  -18.2410   22.3910 C   0  0  0  0  0  2  0  0  0  0  0  0
  -31.7620  -16.7110   21.1070 C   0  0  0  0  0  0  0  0  0  0  0  0
  -30.7230  -17.5590   21.1740 N   0  0  0  0  0  0  0  0  0  0  0  0
  -32.8390  -16.9050   21.6790 O   0  0  0  0  0  0  0  0  0  0  0  0
  -29.9520  -17.3430   20.5540 H   0  0  0  0  0  0  0  0  0  0  0  0
  -31.4840  -15.3900   20.3770 C   0  0  0  0  0  3  0  0  0  0  0  0
  -32.6440  -13.8490   18.6940 C   0  0  0  0  0  0  0  0  0  0  0  0
  -32.3750  -11.4140   18.3810 C   0  0  0  0  0  2  0  0  0  0  0  0
  -31.2860  -11.1230   17.3300 C   0  0  0  0  0  2  0  0  0  0  0  0
  -29.8650  -11.1490   17.9370 C   0  0  0  0  0  2  0  0  0  0  0  0
  -29.6300  -12.3740   18.8580 C   0  0  0  0  0  3  0  0  0  0  0  0
  -30.8100  -12.4370   19.8480 C   0  0  0  0  0  2  0  0  0  0  0  0
  -32.0430  -12.6730   19.0750 N   0  0  0  0  0  0  0  0  0  0  0  0
  -33.4750  -13.8880   17.7850 O   0  0  0  0  0  0  0  0  0  0  0  0
  -32.5470  -14.9380   19.4760 N   0  0  0  0  0  0  0  0  0  0  0  0
  -33.1530  -15.6840   19.1690 H   0  0  0  0  0  0  0  0  0  0  0  0
  -27.4270  -13.3190   19.8200 C   0  0  0  0  0  0  0  0  0  0  0  0
  -26.3560  -12.7140   20.4230 C   0  0  0  0  0  0  0  0  0  0  0  0
  -26.6580  -11.3160   20.4380 C   0  0  0  0  0  0  0  0  0  0  0  0
  -28.3330  -12.3040   19.5360 N   0  0  0  0  0  0  0  0  0  0  0  0
  -27.8720  -11.0950   19.9460 N   0  0  0  0  0  0  0  0  0  0  0  0
  -25.8360  -10.1730   20.8420 C   0  0  0  0  0  0  0  0  0  0  0  0
  -25.9510   -9.6080   22.1310 C   0  0  0  0  0  3  0  0  0  0  0  0
  -25.1380   -8.5170   22.5070 C   0  0  0  0  0  3  0  0  0  0  0  0
  -24.2030   -7.9830   21.5920 C   0  0  0  0  0  0  0  0  0  0  0  0
  -24.1180   -8.5240   20.2970 C   0  0  0  0  0  3  0  0  0  0  0  0
  -24.9130   -9.6170   19.9260 C   0  0  0  0  0  3  0  0  0  0  0  0
  -23.3850   -6.9110   21.8590 O   0  0  0  0  0  0  0  0  0  0  0  0
  -22.5150   -6.9130   22.9210 C   0  0  0  0  0  0  0  0  0  0  0  0
  -21.6460   -7.9930   23.1790 C   0  0  0  0  0  3  0  0  0  0  0  0
  -20.7320   -7.9330   24.2530 C   0  0  0  0  0  3  0  0  0  0  0  0
  -20.6760   -6.7790   25.0620 C   0  0  0  0  0  0  0  0  0  0  0  0
  -21.5330   -5.6960   24.8010 C   0  0  0  0  0  3  0  0  0  0  0  0
  -22.4460   -5.7630   23.7330 C   0  0  0  0  0  0  0  0  0  0  0  0
  -23.2580   -4.7110   23.4790 F   0  0  0  0  0  0  0  0  0  0  0  0
  -19.7900   -6.7100   26.0840 F   0  0  0  0  0  0  0  0  0  0  0  0
  -25.0720  -13.3650   20.8430 C   0  0  0  0  0  0  0  0  0  0  0  0
  -24.4600  -12.8650   21.9120 N   0  0  0  0  0  0  0  0  0  0  0  0
  -24.6190  -14.3340   20.2400 O   0  0  0  0  0  0  0  0  0  0  0  0
  -23.5700  -13.2390   22.2020 H   0  0  0  0  0  0  0  0  0  0  0  0
  -24.8700  -12.0870   22.4070 H   0  0  0  0  0  0  0  0  0  0  0  0
  -27.7030  -14.6410   19.4730 N   0  0  0  0  0  0  0  0  0  0  0  0
  -27.0450  -15.3910   19.6630 H   0  0  0  0  0  0  0  0  0  0  0  0
  -28.5000  -14.9380   18.9210 H   0  0  0  0  0  0  0  0  0  0  0  0
  -31.2850  -14.3520   21.5120 C   0  0  0  0  0  0  0  0  0  0  0  0
  -32.3480  -13.9670   22.2250 N   0  0  0  0  0  0  0  0  0  0  0  0
  -30.1770  -13.8620   21.7290 O   0  0  0  0  0  0  0  0  0  0  0  0
  -33.2500  -14.3780   22.0310 H   0  0  0  0  0  0  0  0  0  0  0  0
  -32.2640  -13.3290   23.0030 H   0  0  0  0  0  0  0  0  0  0  0  0
  -28.9970  -19.6940   20.8850 O   0  0  0  0  0  0  0  0  0  0  0  0
  -27.9820  -20.6920   20.7610 C   0  0  0  0  0  2  0  0  0  0  0  0
  -27.8140  -21.1240   19.2940 C   0  0  0  0  0  2  0  0  0  0  0  0
  -28.9990  -21.7890   18.8600 O   0  0  0  0  0  0  0  0  0  0  0  0
  -28.8980  -22.3840   17.5700 C   0  0  0  0  0  2  0  0  0  0  0  0
  -29.8230  -23.6090   17.4980 C   0  0  0  0  0  2  0  0  0  0  0  0
  -31.2980  -23.3010   17.1720 C   0  0  0  0  0  2  0  0  0  0  0  0
  -32.2560  -24.3530   17.7980 C   0  0  0  0  0  2  0  0  0  0  0  0
  -32.4660  -25.5090   16.9780 O   0  0  0  0  0  0  0  0  0  0  0  0
  -25.8840  -27.4690   18.8790 C   0  0  0  0  0  0  0  0  0  0  0  0
  -31.3380  -26.2420   16.6980 C   0  0  0  0  0  0  0  0  0  0  0  0
  -26.5650  -28.0260   16.5640 C   0  0  0  0  0  3  0  0  0  0  0  0
  -29.0490  -27.7520   16.0410 C   0  0  0  0  0  0  0  0  0  0  0  0
  -28.3050  -27.8550   18.4270 C   0  0  0  0  0  2  0  0  0  0  0  0
  -29.2950  -27.3990   17.3760 C   0  0  0  0  0  0  0  0  0  0  0  0
  -30.4380  -26.6350   17.7110 C   0  0  0  0  0  3  0  0  0  0  0  0
  -31.0890  -26.6270   15.3640 C   0  0  0  0  0  3  0  0  0  0  0  0
  -29.9430  -27.3670   15.0300 C   0  0  0  0  0  3  0  0  0  0  0  0
  -27.7950  -28.5500   15.7670 C   0  0  0  0  0  2  0  0  0  0  0  0
  -26.8900  -27.7460   18.0000 N   0  0  0  0  0  0  0  0  0  0  0  0
  -24.6990  -27.4890   18.5170 O   0  0  0  0  0  0  0  0  0  0  0  0
  -25.9780  -26.8060   15.8200 C   0  0  0  0  0  0  0  0  0  0  0  0
  -25.5120  -27.0330   14.5810 N   0  0  0  0  0  0  0  0  0  0  0  0
  -25.9740  -25.6890   16.3430 O   0  0  0  0  0  0  0  0  0  0  0  0
  -25.5440  -27.9770   14.2300 H   0  0  0  0  0  0  0  0  0  0  0  0
  -24.3040  -26.4920   11.2200 C   0  0  0  0  0  0  0  0  0  0  0  0
  -24.9460  -26.0290   13.6820 C   0  0  0  0  0  3  0  0  0  0  0  0
  -26.0480  -25.1060   13.1130 C   0  0  0  0  0  2  0  0  0  0  0  0
  -26.6010  -25.5860   11.7670 C   0  0  0  0  0  2  0  0  0  0  0  0
  -25.4820  -25.6710   10.7250 C   0  0  0  0  0  2  0  0  0  0  0  0
  -24.0600  -26.6710   12.6070 C   0  0  0  0  0  0  0  0  0  0  0  0
  -22.9710  -27.4720   13.0140 C   0  0  0  0  0  3  0  0  0  0  0  0
  -22.1310  -28.0840   12.0630 C   0  0  0  0  0  3  0  0  0  0  0  0
  -22.3680  -27.8930   10.6920 C   0  0  0  0  0  3  0  0  0  0  0  0
  -23.4470  -27.0940   10.2730 C   0  0  0  0  0  3  0  0  0  0  0  0
  -26.1720  -27.1400   20.3770 C   0  0  0  0  0  3  0  0  0  0  0  0
  -25.0470  -27.6580   21.1700 N   0  0  0  0  0  0  0  0  0  0  0  0
  -25.1050  -28.7430   21.9530 C   0  0  0  0  0  0  0  0  0  0  0  0
  -26.1480  -29.3750   22.1440 O   0  0  0  0  0  0  0  0  0  0  0  0
  -24.1510  -27.2150   21.0260 H   0  0  0  0  0  0  0  0  0  0  0  0
  -23.2950  -30.4860   21.9530 C   0  0  0  0  0  1  0  0  0  0  0  0
  -23.8010  -29.2030   22.6310 C   0  0  0  0  0  3  0  0  0  0  0  0
  -24.1430  -28.1960   24.8430 C   0  0  0  0  0  1  0  0  0  0  0  0
  -23.9430  -29.4290   24.0860 N   0  0  0  0  0  0  0  0  0  0  0  0
  -23.1250  -29.9020   24.4610 H   0  0  0  0  0  0  0  0  0  0  0  0
  -26.3810  -25.5990   20.6490 C   0  0  1  0  0  0  0  0  0  0  0  0
  -25.2880  -24.7050   20.0210 C   0  0  0  0  0  1  0  0  0  0  0  0
  -27.7480  -25.1330   20.0930 C   0  0  0  0  0  1  0  0  0  0  0  0
  -26.4030  -25.3240   22.1710 C   0  0  0  0  0  1  0  0  0  0  0  0
  1  2  1  0
  3  4  1  0
  3  5  2  0
  4  2  1  0
  6  4  1  0
  7  3  1  0
  7 46  1  0
  8 14  1  0
  8 16  1  0
  9 14  1  0
 10 11  1  0
 10  9  1  0
 12 11  1  0
 12 21  1  0
 12 13  1  0
 14 13  1  0
 15  8  2  0
 16  7  1  0
 17 16  1  0
 18 19  2  0
 19 20  1  0
 19 38  1  0
 20 23  1  0
 21 18  1  0
 21 22  1  0
 22 20  2  0
 23 24  1  0
 24 25  2  0
 26 29  1  0
 26 25  1  0
 27 26  2  0
 28 27  1  0
 28 23  2  0
 29 30  1  0
 30 31  2  0
 30 35  1  0
 31 32  1  0
 32 33  2  0
 33 37  1  0
 34 33  1  0
 35 34  2  0
 36 35  1  0
 38 39  1  0
 39 41  1  0
 39 42  1  0
 40 38  2  0
 43 44  1  0
 43 18  1  0
 45 43  1  0
 46 48  2  0
 46 47  1  0
 47 50  1  0
 49 47  1  0
 51  1  1  0
 52 51  1  0
 53 52  1  0
 54 53  1  0
 55 54  1  0
 56 55  1  0
 57 56  1  0
 57 58  1  0
 59 58  1  0
 61 59  1  0
 61 66  1  0
 62 72  1  0
 62 70  1  0
 63 65  1  0
 65 66  2  0
 65 64  1  0
 67 61  2  0
 68 67  1  0
 68 63  2  0
 69 63  1  0
 69 62  1  0
 70 64  1  0
 70 60  1  0
 71 60  2  0
 72 74  2  0
 73 72  1  0
 75 73  1  0
 76 81  1  0
 77 73  1  0
 78 77  1  0
 79 78  1  0
 80 76  1  0
 80 79  1  0
 81 82  2  0
 81 77  1  0
 83 82  1  0
 84 83  2  0
 85 84  1  0
 85 76  2  0
 86 60  1  0
 86 96  1  0
 86 87  1  0
 87 88  1  0
 88 89  2  0
 88 92  1  0
 90 87  1  0
 92 91  1  0
 92 94  1  0
 94 95  1  0
 94 93  1  0
 96 99  1  1
 97 96  1  0
 98 96  1  0
M  ISO  4   8 100  16 100  58 101  59 101
M  END
>  <TORSDO>  (17) 
F 28

>  <SCORE>  (17) 
0.135

>  <name>  (17) 
17

>  <ligand_id>  (17) 
17

>  <original_smiles>  (17) 
[H]c1c([H])c([H])c2c(c1[H])C([H])([H])C([H])([H])C([H])([H])C2([H])N([H])C(=O)C1([H])N(C(=O)C([H])(N([H])C(=O)C([H])(N([H])C([H])([H])[H])C([H])([H])[H])C(C([H])([H])[H])(C([H])([H])[H])C([H])([H])[H])C([H])([H])c2c([H])c(OC([H])([H])C([H])([H])C([H])([H])C([H])([H])OC([H])([H])C([H])([H])OC([H])([H])C([H])([H])N([H])C(=O)C([H])(C(=O)N([H])[H])N([H])C(=O)N3C([H])([H])C([H])([H])C([H])([H])C([H])(n4nc(-c5c([H])c([H])c(Oc6c([H])c([H])c(F)c([H])c6F)c([H])c5[H])c(C(=O)N([H])[H])c4N([H])[H])C3([H])[H])c([H])c([H])c2C1([H])[H]

>  <smiles>  (17) 
[H]c1c([H])c([H])c2c(c1[H])C([H])([H])C([H])([H])C([H])([H])C2([H])N([H])C(=O)C1([H])N(C(=O)C([H])(N([H])C(=O)C([H])(N([H])C([H])([H])[H])C([H])([H])[H])C(C([H])([H])[H])(C([H])([H])[H])C([H])([H])[H])C([H])([H])c2c([H])c(OC([H])([H])C([H])([H])C([H])([H])C([H])([H])OC([H])([H])C([H])([H])OC([H])([H])C([H])([H])N([H])C(=O)C([H])(C(=O)N([H])[H])N([H])C(=O)N3C([H])([H])C([H])([H])C([H])([H])C([H])(n4nc(-c5c([H])c([H])c(Oc6c([H])c([H])c(F)c([H])c6F)c([H])c5[H])c(C(=O)N([H])[H])c4N([H])[H])C3([H])[H])c([H])c([H])c2C1([H])[H]

$$$$
18:0:0
     RDKit          3D

 99106  0  0  1  0  0  0  0  0999 V2000
  -31.4730  -20.1790   21.0400 C   0  0  0  0  0  2  0  0  0  0  0  0
  -30.7620  -17.7750   21.0800 C   0  0  0  0  0  0  0  0  0  0  0  0
  -30.5350  -19.0750   20.8890 N   0  0  0  0  0  0  0  0  0  0  0  0
  -31.7870  -17.3450   21.6110 O   0  0  0  0  0  0  0  0  0  0  0  0
  -29.6630  -19.3160   20.4230 H   0  0  0  0  0  0  0  0  0  0  0  0
  -29.6590  -16.8310   20.5740 C   0  0  0  0  0  3  0  0  0  0  0  0
  -30.5860  -14.5040   20.4450 C   0  0  0  0  0  0  0  0  0  0  0  0
  -30.2920  -12.4150   19.1900 C   0  0  0  0  0  2  0  0  0  0  0  0
  -29.3250  -12.7130   18.0230 C   0  0  0  0  0  2  0  0  0  0  0  0
  -27.8570  -12.5640   18.4700 C   0  0  0  0  0  2  0  0  0  0  0  0
  -27.5510  -13.3120   19.7950 C   0  0  0  0  0  3  0  0  0  0  0  0
  -28.6240  -12.9840   20.8620 C   0  0  0  0  0  2  0  0  0  0  0  0
  -29.9480  -13.3150   20.2990 N   0  0  0  0  0  0  0  0  0  0  0  0
  -31.6640  -14.7730   19.9070 O   0  0  0  0  0  0  0  0  0  0  0  0
  -29.8200  -15.4390   21.0180 N   0  0  0  0  0  0  0  0  0  0  0  0
  -29.0370  -15.0720   21.5360 H   0  0  0  0  0  0  0  0  0  0  0  0
  -25.1400  -13.8920   20.4980 C   0  0  0  0  0  0  0  0  0  0  0  0
  -24.0860  -13.1050   20.8750 C   0  0  0  0  0  0  0  0  0  0  0  0
  -24.5670  -11.7600   20.8430 C   0  0  0  0  0  0  0  0  0  0  0  0
  -26.2000  -13.0250   20.2710 N   0  0  0  0  0  0  0  0  0  0  0  0
  -25.8550  -11.7390   20.5290 N   0  0  0  0  0  0  0  0  0  0  0  0
  -23.8630  -10.4860   21.0360 C   0  0  0  0  0  0  0  0  0  0  0  0
  -24.3170   -9.5250   21.9640 C   0  0  0  0  0  3  0  0  0  0  0  0
  -23.6120   -8.3160   22.1460 C   0  0  0  0  0  3  0  0  0  0  0  0
  -22.4390   -8.0590   21.3950 C   0  0  0  0  0  0  0  0  0  0  0  0
  -22.0050   -9.0100   20.4550 C   0  0  0  0  0  3  0  0  0  0  0  0
  -22.7110  -10.2100   20.2720 C   0  0  0  0  0  3  0  0  0  0  0  0
  -21.7040   -6.9020   21.4870 O   0  0  0  0  0  0  0  0  0  0  0  0
  -21.6770   -6.1560   22.6380 C   0  0  0  0  0  0  0  0  0  0  0  0
  -21.2600   -6.7020   23.8710 C   0  0  0  0  0  3  0  0  0  0  0  0
  -21.1820   -5.8820   25.0140 C   0  0  0  0  0  3  0  0  0  0  0  0
  -21.5090   -4.5150   24.9250 C   0  0  0  0  0  0  0  0  0  0  0  0
  -21.9200   -3.9680   23.6970 C   0  0  0  0  0  3  0  0  0  0  0  0
  -22.0010   -4.7860   22.5550 C   0  0  0  0  0  0  0  0  0  0  0  0
  -22.3770   -4.2500   21.3690 F   0  0  0  0  0  0  0  0  0  0  0  0
  -21.4280   -3.7250   26.0200 F   0  0  0  0  0  0  0  0  0  0  0  0
  -22.6830  -13.5590   21.1580 C   0  0  0  0  0  0  0  0  0  0  0  0
  -21.9710  -12.8480   22.0260 N   0  0  0  0  0  0  0  0  0  0  0  0
  -22.2240  -14.5790   20.6450 O   0  0  0  0  0  0  0  0  0  0  0  0
  -22.3530  -12.0230   22.4620 H   0  0  0  0  0  0  0  0  0  0  0  0
  -21.0300  -13.1350   22.2580 H   0  0  0  0  0  0  0  0  0  0  0  0
  -25.2830  -15.2640   20.3100 N   0  0  0  0  0  0  0  0  0  0  0  0
  -24.5010  -15.9040   20.3970 H   0  0  0  0  0  0  0  0  0  0  0  0
  -26.1120  -15.7050   19.9350 H   0  0  0  0  0  0  0  0  0  0  0  0
  -29.3880  -16.9320   19.0370 C   0  0  0  0  0  2  0  0  0  0  0  0
  -28.4850  -18.0930   18.5980 C   0  0  0  0  0  0  0  0  0  0  0  0
  -28.2970  -18.2610   17.2940 N   0  0  0  0  0  0  0  0  0  0  0  0
  -27.9490  -18.8380   19.4140 O   0  0  0  0  0  0  0  0  0  0  0  0
  -28.7340  -17.6460   16.6220 H   0  0  0  0  0  0  0  0  0  0  0  0
  -27.6920  -18.9990   16.9620 H   0  0  0  0  0  0  0  0  0  0  0  0
  -31.7020  -20.8020   19.6550 C   0  0  0  0  0  2  0  0  0  0  0  0
  -30.4230  -21.0470   19.0750 O   0  0  0  0  0  0  0  0  0  0  0  0
  -30.4360  -21.2590   17.6660 C   0  0  0  0  0  2  0  0  0  0  0  0
  -30.8100  -22.7050   17.3120 C   0  0  0  0  0  2  0  0  0  0  0  0
  -29.7480  -23.5510   17.7300 O   0  0  0  0  0  0  0  0  0  0  0  0
  -30.0190  -24.9240   17.5010 C   0  0  0  0  0  2  0  0  0  0  0  0
  -28.8460  -25.7670   18.0220 C   0  0  0  0  0  2  0  0  0  0  0  0
  -28.5970  -25.5840   19.5310 C   0  0  0  0  0  2  0  0  0  0  0  0
  -28.4320  -26.8350   20.1890 O   0  0  0  0  0  0  0  0  0  0  0  0
  -24.5700  -31.9020   23.2730 C   0  0  0  0  0  0  0  0  0  0  0  0
  -27.2200  -27.4870   20.1700 C   0  0  0  0  0  0  0  0  0  0  0  0
  -23.3580  -30.4960   21.6380 C   0  0  0  0  0  3  0  0  0  0  0  0
  -24.8070  -28.9610   20.2070 C   0  0  0  0  0  0  0  0  0  0  0  0
  -25.8800  -30.8640   21.4280 C   0  0  0  0  0  2  0  0  0  0  0  0
  -25.9620  -29.4930   20.7900 C   0  0  0  0  0  0  0  0  0  0  0  0
  -27.1660  -28.7600   20.7740 C   0  0  0  0  0  3  0  0  0  0  0  0
  -26.0440  -26.9570   19.5890 C   0  0  0  0  0  3  0  0  0  0  0  0
  -24.8400  -27.6890   19.6080 C   0  0  0  0  0  3  0  0  0  0  0  0
  -23.5620  -29.8160   20.2570 C   0  0  0  0  0  2  0  0  0  0  0  0
  -24.6210  -31.1020   22.1710 N   0  0  0  0  0  0  0  0  0  0  0  0
  -23.4920  -32.1740   23.8180 O   0  0  0  0  0  0  0  0  0  0  0  0
  -22.7160  -29.4740   22.6010 C   0  0  0  0  0  0  0  0  0  0  0  0
  -21.3920  -29.2830   22.4730 N   0  0  0  0  0  0  0  0  0  0  0  0
  -23.4030  -28.8550   23.4180 O   0  0  0  0  0  0  0  0  0  0  0  0
  -20.9000  -29.8330   21.7830 H   0  0  0  0  0  0  0  0  0  0  0  0
  -18.0260  -28.0670   22.9560 C   0  0  0  0  0  0  0  0  0  0  0  0
  -20.5790  -28.3450   23.2460 C   0  0  0  0  0  3  0  0  0  0  0  0
  -20.6980  -26.9110   22.6790 C   0  0  0  0  0  2  0  0  0  0  0  0
  -19.6040  -26.5740   21.6610 C   0  0  0  0  0  2  0  0  0  0  0  0
  -18.2170  -26.7140   22.2920 C   0  0  0  0  0  2  0  0  0  0  0  0
  -19.1360  -28.8410   23.3880 C   0  0  0  0  0  0  0  0  0  0  0  0
  -18.9040  -30.1080   23.9640 C   0  0  0  0  0  3  0  0  0  0  0  0
  -17.5950  -30.6020   24.1160 C   0  0  0  0  0  3  0  0  0  0  0  0
  -16.4990  -29.8260   23.7010 C   0  0  0  0  0  3  0  0  0  0  0  0
  -16.7150  -28.5610   23.1260 C   0  0  0  0  0  3  0  0  0  0  0  0
  -25.8600  -32.5330   23.8860 C   0  0  0  0  0  3  0  0  0  0  0  0
  -25.5570  -33.9350   24.2030 N   0  0  0  0  0  0  0  0  0  0  0  0
  -25.8970  -34.9790   23.4370 C   0  0  0  0  0  0  0  0  0  0  0  0
  -26.5710  -34.8620   22.4080 O   0  0  0  0  0  0  0  0  0  0  0  0
  -24.9560  -34.1000   24.9980 H   0  0  0  0  0  0  0  0  0  0  0  0
  -24.1780  -36.7740   23.0550 C   0  0  0  0  0  1  0  0  0  0  0  0
  -25.4120  -36.3720   23.8780 C   0  0  0  0  0  3  0  0  0  0  0  0
  -27.5470  -37.2520   24.7110 C   0  0  0  0  0  1  0  0  0  0  0  0
  -26.4500  -37.4200   23.7640 N   0  0  0  0  0  0  0  0  0  0  0  0
  -26.0470  -38.3420   23.9040 H   0  0  0  0  0  0  0  0  0  0  0  0
  -26.3800  -31.7690   25.1660 C   0  0  1  0  0  0  0  0  0  0  0  0
  -25.2910  -31.5420   26.2400 C   0  0  0  0  0  1  0  0  0  0  0  0
  -26.9600  -30.3890   24.7790 C   0  0  0  0  0  1  0  0  0  0  0  0
  -27.5330  -32.5670   25.8190 C   0  0  0  0  0  1  0  0  0  0  0  0
  2  4  2  0
  3  1  1  0
  3  2  1  0
  5  3  1  0
  6 45  1  0
  6 15  1  0
  6  2  1  0
  7 15  1  0
  8 13  1  0
  9 10  1  0
  9  8  1  0
 11 10  1  0
 11 20  1  0
 11 12  1  0
 13  7  1  0
 13 12  1  0
 14  7  2  0
 15 16  1  0
 17 18  2  0
 18 37  1  0
 19 18  1  0
 19 22  1  0
 20 17  1  0
 20 21  1  0
 21 19  2  0
 22 23  1  0
 23 24  2  0
 25 28  1  0
 25 24  1  0
 26 25  2  0
 27 26  1  0
 27 22  2  0
 28 29  1  0
 29 30  1  0
 30 31  2  0
 32 31  1  0
 32 36  1  0
 33 32  2  0
 34 29  2  0
 34 33  1  0
 35 34  1  0
 37 38  1  0
 38 41  1  0
 38 40  1  0
 39 37  2  0
 42 43  1  0
 42 17  1  0
 44 42  1  0
 46 45  1  0
 46 48  2  0
 47 46  1  0
 49 47  1  0
 50 47  1  0
 51  1  1  0
 52 51  1  0
 53 52  1  0
 54 53  1  0
 54 55  1  0
 56 55  1  0
 56 57  1  0
 57 58  1  0
 58 59  1  0
 60 71  2  0
 61 59  1  0
 61 66  1  0
 62 70  1  0
 62 72  1  0
 63 69  1  0
 63 65  1  0
 64 70  1  0
 65 64  1  0
 66 65  2  0
 67 68  1  0
 67 61  2  0
 68 63  2  0
 69 62  1  0
 70 60  1  0
 72 74  2  0
 73 72  1  0
 75 73  1  0
 76 85  2  0
 76 81  1  0
 77 73  1  0
 77 81  1  0
 78 77  1  0
 79 80  1  0
 79 78  1  0
 80 76  1  0
 81 82  2  0
 82 83  1  0
 84 83  2  0
 85 84  1  0
 86 60  1  0
 86 87  1  0
 86 96  1  0
 87 90  1  0
 88 92  1  0
 88 87  1  0
 89 88  2  0
 92 91  1  0
 94 92  1  0
 94 95  1  0
 94 93  1  0
 96 99  1  1
 96 97  1  0
 98 96  1  0
M  ISO  4   7 100  15 100  58 101  59 101
M  END
>  <TORSDO>  (18) 
F 28

>  <SCORE>  (18) 
-11.737

>  <name>  (18) 
18

>  <ligand_id>  (18) 
18

>  <original_smiles>  (18) 
[H]c1c([H])c([H])c2c(c1[H])C([H])([H])C([H])([H])C([H])([H])C2([H])N([H])C(=O)C1([H])N(C(=O)C([H])(N([H])C(=O)C([H])(N([H])C([H])([H])[H])C([H])([H])[H])C(C([H])([H])[H])(C([H])([H])[H])C([H])([H])[H])C([H])([H])c2c([H])c(OC([H])([H])C([H])([H])C([H])([H])OC([H])([H])C([H])([H])OC([H])([H])C([H])([H])N([H])C(=O)C([H])(N([H])C(=O)N3C([H])([H])C([H])([H])C([H])([H])C([H])(n4nc(-c5c([H])c([H])c(Oc6c([H])c([H])c(F)c([H])c6F)c([H])c5[H])c(C(=O)N([H])[H])c4N([H])[H])C3([H])[H])C([H])([H])C(=O)N([H])[H])c([H])c([H])c2C1([H])[H]

>  <smiles>  (18) 
[H]c1c([H])c([H])c2c(c1[H])C([H])([H])C([H])([H])C([H])([H])C2([H])N([H])C(=O)C1([H])N(C(=O)C([H])(N([H])C(=O)C([H])(N([H])C([H])([H])[H])C([H])([H])[H])C(C([H])([H])[H])(C([H])([H])[H])C([H])([H])[H])C([H])([H])c2c([H])c(OC([H])([H])C([H])([H])C([H])([H])OC([H])([H])C([H])([H])OC([H])([H])C([H])([H])N([H])C(=O)C([H])(N([H])C(=O)N3C([H])([H])C([H])([H])C([H])([H])C([H])(n4nc(-c5c([H])c([H])c(Oc6c([H])c([H])c(F)c([H])c6F)c([H])c5[H])c(C(=O)N([H])[H])c4N([H])[H])C3([H])[H])C([H])([H])C(=O)N([H])[H])c([H])c([H])c2C1([H])[H]

$$$$
19:0:0
     RDKit          3D

100107  0  0  1  0  0  0  0  0999 V2000
  -29.7480  -20.8990   19.8760 C   0  0  0  0  0  0  0  0  0  0  0  0
  -28.7220  -21.7390   19.7000 N   0  0  0  0  0  0  0  0  0  0  0  0
  -30.7100  -20.8340   19.1050 O   0  0  0  0  0  0  0  0  0  0  0  0
  -28.0070  -21.7850   20.4140 H   0  0  0  0  0  0  0  0  0  0  0  0
  -30.6410  -19.4170   21.5540 C   0  0  0  0  0  3  0  0  0  0  0  0
  -29.5840  -20.0950   21.0690 C   0  0  0  0  0  3  0  0  0  0  0  0
  -30.5110  -18.5460   22.7010 C   0  0  0  0  0  0  0  0  0  0  0  0
  -31.6790  -17.9680   22.9890 N   0  0  0  0  0  0  0  0  0  0  0  0
  -29.4650  -18.2850   23.3000 O   0  0  0  0  0  0  0  0  0  0  0  0
  -32.4930  -18.3050   22.4920 H   0  0  0  0  0  0  0  0  0  0  0  0
  -31.8490  -16.7290   23.7400 C   0  0  0  0  0  2  0  0  0  0  0  0
  -31.5680  -15.5030   22.8450 C   0  0  0  0  0  2  0  0  0  0  0  0
  -32.3170  -15.5390   21.4960 C   0  0  0  0  0  2  0  0  0  0  0  0
  -32.3230  -14.2040   20.7410 C   0  0  0  0  0  2  0  0  0  0  0  0
  -30.5930  -13.6210   19.0470 C   0  0  0  0  0  0  0  0  0  0  0  0
  -29.6950  -11.7250   17.7710 C   0  0  0  0  0  2  0  0  0  0  0  0
  -28.4960  -12.0230   16.8630 C   0  0  0  0  0  2  0  0  0  0  0  0
  -27.1850  -11.9010   17.6550 C   0  0  0  0  0  2  0  0  0  0  0  0
  -27.2100  -12.7360   18.9590 C   0  0  0  0  0  3  0  0  0  0  0  0
  -28.4900  -12.4610   19.7810 C   0  0  0  0  0  2  0  0  0  0  0  0
  -29.6720  -12.6420   18.9180 N   0  0  0  0  0  0  0  0  0  0  0  0
  -31.2440  -14.0860   18.1040 O   0  0  0  0  0  0  0  0  0  0  0  0
  -30.9870  -13.7790   20.3180 N   0  0  0  0  0  0  0  0  0  0  0  0
  -30.4260  -13.2990   21.0060 H   0  0  0  0  0  0  0  0  0  0  0  0
  -25.1070  -13.4340   20.2730 C   0  0  0  0  0  0  0  0  0  0  0  0
  -24.1090  -12.7020   20.8590 C   0  0  0  0  0  0  0  0  0  0  0  0
  -24.4490  -11.3320   20.6490 C   0  0  0  0  0  0  0  0  0  0  0  0
  -26.0000  -12.5120   19.7500 N   0  0  0  0  0  0  0  0  0  0  0  0
  -25.6180  -11.2380   20.0270 N   0  0  0  0  0  0  0  0  0  0  0  0
  -23.7040  -10.1030   20.9550 C   0  0  0  0  0  0  0  0  0  0  0  0
  -24.2400   -9.1040   21.7970 C   0  0  0  0  0  3  0  0  0  0  0  0
  -23.4970   -7.9400   22.0910 C   0  0  0  0  0  3  0  0  0  0  0  0
  -22.2040   -7.7680   21.5440 C   0  0  0  0  0  0  0  0  0  0  0  0
  -21.6840   -8.7540   20.6880 C   0  0  0  0  0  3  0  0  0  0  0  0
  -22.4270   -9.9080   20.3920 C   0  0  0  0  0  3  0  0  0  0  0  0
  -21.4220   -6.6570   21.7530 O   0  0  0  0  0  0  0  0  0  0  0  0
  -21.4870   -5.9380   22.9190 C   0  0  0  0  0  0  0  0  0  0  0  0
  -21.2320   -6.5300   24.1750 C   0  0  0  0  0  3  0  0  0  0  0  0
  -21.2410   -5.7400   25.3420 C   0  0  0  0  0  3  0  0  0  0  0  0
  -21.4990   -4.3600   25.2540 C   0  0  0  0  0  0  0  0  0  0  0  0
  -21.7470   -3.7660   24.0040 C   0  0  0  0  0  3  0  0  0  0  0  0
  -21.7400   -4.5540   22.8400 C   0  0  0  0  0  0  0  0  0  0  0  0
  -21.9600   -3.9750   21.6340 F   0  0  0  0  0  0  0  0  0  0  0  0
  -21.5000   -3.5970   26.3730 F   0  0  0  0  0  0  0  0  0  0  0  0
  -22.8610  -13.2400   21.4980 C   0  0  0  0  0  0  0  0  0  0  0  0
  -22.3300  -12.5380   22.4940 N   0  0  0  0  0  0  0  0  0  0  0  0
  -22.3750  -14.3160   21.1490 O   0  0  0  0  0  0  0  0  0  0  0  0
  -22.7400  -11.6640   22.7930 H   0  0  0  0  0  0  0  0  0  0  0  0
  -21.5030  -12.8770   22.9640 H   0  0  0  0  0  0  0  0  0  0  0  0
  -25.3230  -14.8010   20.1230 N   0  0  0  0  0  0  0  0  0  0  0  0
  -24.6650  -15.4980   20.4520 H   0  0  0  0  0  0  0  0  0  0  0  0
  -26.1180  -15.2020   19.6410 H   0  0  0  0  0  0  0  0  0  0  0  0
  -28.7220  -22.7800   18.7030 C   0  0  0  0  0  2  0  0  0  0  0  0
  -29.7130  -23.6960   19.0390 O   0  0  0  0  0  0  0  0  0  0  0  0
  -29.7380  -24.8550   18.2150 C   0  0  0  0  0  2  0  0  0  0  0  0
  -30.9150  -25.7520   18.6380 C   0  0  0  0  0  2  0  0  0  0  0  0
  -31.1930  -25.6640   20.0380 O   0  0  0  0  0  0  0  0  0  0  0  0
  -30.6980  -26.7300   20.8430 C   0  0  0  0  0  2  0  0  0  0  0  0
  -29.2080  -26.5890   21.1940 C   0  0  0  0  0  2  0  0  0  0  0  0
  -28.4270  -26.7860   20.0260 O   0  0  0  0  0  0  0  0  0  0  0  0
  -24.6480  -31.9570   23.2270 C   0  0  0  0  0  0  0  0  0  0  0  0
  -27.2730  -27.5190   20.1450 C   0  0  0  0  0  0  0  0  0  0  0  0
  -23.4280  -30.5430   21.5990 C   0  0  0  0  0  3  0  0  0  0  0  0
  -24.8720  -28.9950   20.1780 C   0  0  0  0  0  0  0  0  0  0  0  0
  -25.9460  -30.9050   21.3810 C   0  0  0  0  0  2  0  0  0  0  0  0
  -26.0300  -29.5290   20.7580 C   0  0  0  0  0  0  0  0  0  0  0  0
  -27.2340  -28.7970   20.7470 C   0  0  0  0  0  3  0  0  0  0  0  0
  -26.1040  -26.9920   19.5630 C   0  0  0  0  0  3  0  0  0  0  0  0
  -24.9000  -27.7220   19.5830 C   0  0  0  0  0  3  0  0  0  0  0  0
  -23.6290  -29.8520   20.2230 C   0  0  0  0  0  2  0  0  0  0  0  0
  -24.6920  -31.1500   22.1280 N   0  0  0  0  0  0  0  0  0  0  0  0
  -23.5720  -32.2340   23.7730 O   0  0  0  0  0  0  0  0  0  0  0  0
  -22.7830  -29.5290   22.5690 C   0  0  0  0  0  0  0  0  0  0  0  0
  -21.4690  -29.3040   22.4080 N   0  0  0  0  0  0  0  0  0  0  0  0
  -23.4620  -28.9470   23.4190 O   0  0  0  0  0  0  0  0  0  0  0  0
  -20.9830  -29.8250   21.6920 H   0  0  0  0  0  0  0  0  0  0  0  0
  -18.1350  -27.9710   22.7990 C   0  0  0  0  0  0  0  0  0  0  0  0
  -20.6590  -28.3660   23.1830 C   0  0  0  0  0  3  0  0  0  0  0  0
  -20.8580  -26.9170   22.6840 C   0  0  0  0  0  2  0  0  0  0  0  0
  -19.8260  -26.4960   21.6320 C   0  0  0  0  0  2  0  0  0  0  0  0
  -18.4060  -26.6030   22.1980 C   0  0  0  0  0  2  0  0  0  0  0  0
  -19.1930  -28.8070   23.2460 C   0  0  0  0  0  0  0  0  0  0  0  0
  -18.8870  -30.0840   23.7640 C   0  0  0  0  0  3  0  0  0  0  0  0
  -17.5530  -30.5290   23.8370 C   0  0  0  0  0  3  0  0  0  0  0  0
  -16.5080  -29.6920   23.4090 C   0  0  0  0  0  3  0  0  0  0  0  0
  -16.8000  -28.4160   22.8950 C   0  0  0  0  0  3  0  0  0  0  0  0
  -25.9420  -32.5850   23.8320 C   0  0  0  0  0  3  0  0  0  0  0  0
  -25.6320  -33.9740   24.1940 N   0  0  0  0  0  0  0  0  0  0  0  0
  -25.9410  -35.0430   23.4460 C   0  0  0  0  0  0  0  0  0  0  0  0
  -26.5920  -34.9610   22.4000 O   0  0  0  0  0  0  0  0  0  0  0  0
  -25.0510  -34.1110   25.0090 H   0  0  0  0  0  0  0  0  0  0  0  0
  -24.1860  -36.8200   23.1510 C   0  0  0  0  0  1  0  0  0  0  0  0
  -25.4490  -36.4190   23.9330 C   0  0  0  0  0  3  0  0  0  0  0  0
  -27.5980  -37.3060   24.7230 C   0  0  0  0  0  1  0  0  0  0  0  0
  -26.4670  -37.4860   23.8160 N   0  0  0  0  0  0  0  0  0  0  0  0
  -26.0570  -38.4000   24.0000 H   0  0  0  0  0  0  0  0  0  0  0  0
  -26.4950  -31.7930   25.0800 C   0  0  1  0  0  0  0  0  0  0  0  0
  -25.4250  -31.5040   26.1580 C   0  0  0  0  0  1  0  0  0  0  0  0
  -27.1000  -30.4370   24.6440 C   0  0  0  0  0  1  0  0  0  0  0  0
  -27.6390  -32.5940   25.7460 C   0  0  0  0  0  1  0  0  0  0  0  0
  1  6  1  0
  2  1  1  0
  2  4  1  0
  3  1  2  0
  5  7  1  0
  6  5  2  0
  7  8  1  0
  7  9  2  0
  8 11  1  0
 10  8  1  0
 12 11  1  0
 13 12  1  0
 14 13  1  0
 15 23  1  0
 16 21  1  0
 17 18  1  0
 17 16  1  0
 19 18  1  0
 19 28  1  0
 19 20  1  0
 21 15  1  0
 21 20  1  0
 22 15  2  0
 23 14  1  0
 23 24  1  0
 25 26  2  0
 26 45  1  0
 27 26  1  0
 27 30  1  0
 28 29  1  0
 28 25  1  0
 29 27  2  0
 30 31  1  0
 31 32  2  0
 33 36  1  0
 33 32  1  0
 34 33  2  0
 35 34  1  0
 35 30  2  0
 36 37  1  0
 37 38  1  0
 38 39  2  0
 40 39  1  0
 40 44  1  0
 41 40  2  0
 42 37  2  0
 42 41  1  0
 43 42  1  0
 45 46  1  0
 46 48  1  0
 46 49  1  0
 47 45  2  0
 50 25  1  0
 50 51  1  0
 52 50  1  0
 53 54  1  0
 53  2  1  0
 55 56  1  0
 55 54  1  0
 56 57  1  0
 57 58  1  0
 58 59  1  0
 60 62  1  0
 60 59  1  0
 61 72  2  0
 62 67  1  0
 63 71  1  0
 63 73  1  0
 64 70  1  0
 64 66  1  0
 65 71  1  0
 66 65  1  0
 67 66  2  0
 68 69  1  0
 68 62  2  0
 69 64  2  0
 70 63  1  0
 71 61  1  0
 73 75  2  0
 74 73  1  0
 76 74  1  0
 77 86  2  0
 77 82  1  0
 78 74  1  0
 78 82  1  0
 79 78  1  0
 80 81  1  0
 80 79  1  0
 81 77  1  0
 82 83  2  0
 83 84  1  0
 85 84  2  0
 86 85  1  0
 87 61  1  0
 87 88  1  0
 87 97  1  0
 88 91  1  0
 89 93  1  0
 89 88  1  0
 90 89  2  0
 93 92  1  0
 95 93  1  0
 95 96  1  0
 95 94  1  0
 97100  1  1
 97 98  1  0
 99 97  1  0
M  ISO  4  15 100  23 100  59 101  60 101
M  END
>  <TORSDO>  (19) 
F 29

>  <SCORE>  (19) 
-1.779

>  <name>  (19) 
19

>  <ligand_id>  (19) 
19

>  <original_smiles>  (19) 
[H]C(C(=O)N([H])C([H])([H])OC([H])([H])C([H])([H])OC([H])([H])C([H])([H])Oc1c([H])c([H])c2c(c1[H])C([H])([H])N(C(=O)C([H])(N([H])C(=O)C([H])(N([H])C([H])([H])[H])C([H])([H])[H])C(C([H])([H])[H])(C([H])([H])[H])C([H])([H])[H])C([H])(C(=O)N([H])C1([H])c3c([H])c([H])c([H])c([H])c3C([H])([H])C([H])([H])C1([H])[H])C2([H])[H])=C([H])C(=O)N([H])C([H])([H])C([H])([H])C([H])([H])C([H])([H])N([H])C(=O)N1C([H])([H])C([H])([H])C([H])([H])C([H])(n2nc(-c3c([H])c([H])c(Oc4c([H])c([H])c(F)c([H])c4F)c([H])c3[H])c(C(=O)N([H])[H])c2N([H])[H])C1([H])[H]

>  <smiles>  (19) 
[H]C(C(=O)N([H])C([H])([H])OC([H])([H])C([H])([H])OC([H])([H])C([H])([H])Oc1c([H])c([H])c2c(c1[H])C([H])([H])N(C(=O)C([H])(N([H])C(=O)C([H])(N([H])C([H])([H])[H])C([H])([H])[H])C(C([H])([H])[H])(C([H])([H])[H])C([H])([H])[H])C([H])(C(=O)N([H])C1([H])c3c([H])c([H])c([H])c([H])c3C([H])([H])C([H])([H])C1([H])[H])C2([H])[H])=C([H])C(=O)N([H])C([H])([H])C([H])([H])C([H])([H])C([H])([H])N([H])C(=O)N1C([H])([H])C([H])([H])C([H])([H])C([H])(n2nc(-c3c([H])c([H])c(Oc4c([H])c([H])c(F)c([H])c4F)c([H])c3[H])c(C(=O)N([H])[H])c2N([H])[H])C1([H])[H]

$$$$
20:0:0
     RDKit          3D

102109  0  0  1  0  0  0  0  0999 V2000
  -34.9300  -17.9290   20.6200 C   0  0  0  0  0  2  0  0  0  0  0  0
  -34.7810  -18.4070   19.1650 C   0  0  0  0  0  2  0  0  0  0  0  0
  -33.4540  -18.8520   18.9190 O   0  0  0  0  0  0  0  0  0  0  0  0
  -33.2610  -19.2740   17.5740 C   0  0  0  0  0  2  0  0  0  0  0  0
  -31.8940  -19.9520   17.4540 C   0  0  0  0  0  2  0  0  0  0  0  0
  -31.9660  -21.1450   18.2220 O   0  0  0  0  0  0  0  0  0  0  0  0
  -30.7390  -21.8490   18.3030 C   0  0  0  0  0  2  0  0  0  0  0  0
  -30.9780  -23.1030   19.1540 C   0  0  0  0  0  2  0  0  0  0  0  0
  -29.7450  -23.7820   19.3120 O   0  0  0  0  0  0  0  0  0  0  0  0
  -29.8770  -25.0630   19.9110 C   0  0  0  0  0  2  0  0  0  0  0  0
  -28.5050  -25.7210   19.7970 C   0  0  0  0  0  2  0  0  0  0  0  0
  -28.5280  -27.0840   20.2070 O   0  0  0  0  0  0  0  0  0  0  0  0
  -24.5180  -32.0320   23.3390 C   0  0  0  0  0  0  0  0  0  0  0  0
  -27.3190  -27.7430   20.2010 C   0  0  0  0  0  0  0  0  0  0  0  0
  -23.3710  -30.6340   21.6520 C   0  0  0  0  0  3  0  0  0  0  0  0
  -24.8800  -29.1710   20.2210 C   0  0  0  0  0  0  0  0  0  0  0  0
  -25.8850  -31.0740   21.4910 C   0  0  0  0  0  2  0  0  0  0  0  0
  -26.0180  -29.7190   20.8270 C   0  0  0  0  0  0  0  0  0  0  0  0
  -27.2390  -29.0130   20.8140 C   0  0  0  0  0  3  0  0  0  0  0  0
  -26.1500  -27.2010   19.6040 C   0  0  0  0  0  3  0  0  0  0  0  0
  -24.9410  -27.9080   19.6150 C   0  0  0  0  0  3  0  0  0  0  0  0
  -23.6140  -29.9900   20.2630 C   0  0  0  0  0  2  0  0  0  0  0  0
  -24.6100  -31.2590   22.2200 N   0  0  0  0  0  0  0  0  0  0  0  0
  -23.4230  -32.2650   23.8700 O   0  0  0  0  0  0  0  0  0  0  0  0
  -22.7340  -29.5770   22.5810 C   0  0  0  0  0  0  0  0  0  0  0  0
  -21.4120  -29.3790   22.4430 N   0  0  0  0  0  0  0  0  0  0  0  0
  -23.4240  -28.9380   23.3790 O   0  0  0  0  0  0  0  0  0  0  0  0
  -20.9140  -29.9440   21.7700 H   0  0  0  0  0  0  0  0  0  0  0  0
  -18.0530  -28.1350   22.9000 C   0  0  0  0  0  0  0  0  0  0  0  0
  -20.6070  -28.4100   23.1820 C   0  0  0  0  0  3  0  0  0  0  0  0
  -20.7260  -26.9990   22.5570 C   0  0  0  0  0  2  0  0  0  0  0  0
  -19.6260  -26.6990   21.5330 C   0  0  0  0  0  2  0  0  0  0  0  0
  -18.2430  -26.8100   22.1800 C   0  0  0  0  0  2  0  0  0  0  0  0
  -19.1630  -28.8930   23.3560 C   0  0  0  0  0  0  0  0  0  0  0  0
  -18.9330  -30.1370   23.9850 C   0  0  0  0  0  3  0  0  0  0  0  0
  -17.6230  -30.6220   24.1600 C   0  0  0  0  0  3  0  0  0  0  0  0
  -16.5270  -29.8590   23.7210 C   0  0  0  0  0  3  0  0  0  0  0  0
  -16.7430  -28.6170   23.1000 C   0  0  0  0  0  3  0  0  0  0  0  0
  -25.7810  -32.6780   23.9900 C   0  0  0  0  0  3  0  0  0  0  0  0
  -25.4630  -34.0830   24.2750 N   0  0  0  0  0  0  0  0  0  0  0  0
  -25.8310  -35.1160   23.5050 C   0  0  0  0  0  0  0  0  0  0  0  0
  -26.5440  -34.9850   22.5060 O   0  0  0  0  0  0  0  0  0  0  0  0
  -24.8410  -34.2560   25.0500 H   0  0  0  0  0  0  0  0  0  0  0  0
  -24.1170  -36.8920   23.0270 C   0  0  0  0  0  1  0  0  0  0  0  0
  -25.3230  -36.5130   23.9040 C   0  0  0  0  0  3  0  0  0  0  0  0
  -27.4200  -37.4200   24.8020 C   0  0  0  0  0  1  0  0  0  0  0  0
  -26.3590  -37.5650   23.8090 N   0  0  0  0  0  0  0  0  0  0  0  0
  -25.9460  -38.4880   23.9200 H   0  0  0  0  0  0  0  0  0  0  0  0
  -26.2550  -31.9350   25.2970 C   0  0  1  0  0  0  0  0  0  0  0  0
  -25.1270  -31.7140   26.3300 C   0  0  0  0  0  1  0  0  0  0  0  0
  -26.8560  -30.5520   24.9480 C   0  0  0  0  0  1  0  0  0  0  0  0
  -27.3810  -32.7440   25.9850 C   0  0  0  0  0  1  0  0  0  0  0  0
  -34.3780  -16.5120   20.8770 C   0  0  0  0  0  2  0  0  0  0  0  0
  -31.9710  -17.1550   20.7950 C   0  0  0  0  0  0  0  0  0  0  0  0
  -32.9880  -16.3620   20.4540 N   0  0  0  0  0  0  0  0  0  0  0  0
  -32.1440  -18.0980   21.5680 O   0  0  0  0  0  0  0  0  0  0  0  0
  -32.7700  -15.6000   19.8060 H   0  0  0  0  0  0  0  0  0  0  0  0
  -30.5390  -16.8860   20.2670 C   0  0  0  0  0  0  0  0  0  0  0  0
  -30.6110  -14.5070   19.1770 C   0  0  0  0  0  0  0  0  0  0  0  0
  -30.4340  -12.0780   18.7690 C   0  0  0  0  0  2  0  0  0  0  0  0
  -29.4150  -11.7520   17.6610 C   0  0  0  0  0  2  0  0  0  0  0  0
  -27.9920  -11.6320   18.2410 C   0  0  0  0  0  2  0  0  0  0  0  0
  -27.6210  -12.8440   19.1370 C   0  0  0  0  0  3  0  0  0  0  0  0
  -28.7380  -13.1220   20.1670 C   0  0  0  0  0  2  0  0  0  0  0  0
  -30.0040  -13.3180   19.4330 N   0  0  0  0  0  0  0  0  0  0  0  0
  -31.5820  -14.6080   18.4250 O   0  0  0  0  0  0  0  0  0  0  0  0
  -30.0650  -15.5570   19.8060 N   0  0  0  0  0  4  0  0  0  0  0  0
  -29.1880  -15.3080   20.2440 H   0  0  0  0  0  0  0  0  0  0  0  0
  -25.3890  -13.5970   20.1770 C   0  0  0  0  0  0  0  0  0  0  0  0
  -24.3170  -12.8890   20.6510 C   0  0  0  0  0  0  0  0  0  0  0  0
  -24.6620  -11.5090   20.5140 C   0  0  0  0  0  0  0  0  0  0  0  0
  -26.3230  -12.6520   19.7820 N   0  0  0  0  0  0  0  0  0  0  0  0
  -25.8960  -11.3880   20.0370 N   0  0  0  0  0  0  0  0  0  0  0  0
  -23.8720  -10.2960   20.7550 C   0  0  0  0  0  0  0  0  0  0  0  0
  -24.3600   -9.2400   21.5580 C   0  0  0  0  0  3  0  0  0  0  0  0
  -23.5710   -8.0930   21.7890 C   0  0  0  0  0  3  0  0  0  0  0  0
  -22.2790   -7.9940   21.2200 C   0  0  0  0  0  0  0  0  0  0  0  0
  -21.8080   -9.0370   20.4040 C   0  0  0  0  0  3  0  0  0  0  0  0
  -22.5960  -10.1760   20.1700 C   0  0  0  0  0  3  0  0  0  0  0  0
  -21.4530   -6.9070   21.3700 O   0  0  0  0  0  0  0  0  0  0  0  0
  -21.5290   -6.0910   22.4690 C   0  0  0  0  0  0  0  0  0  0  0  0
  -21.3770   -6.5900   23.7820 C   0  0  0  0  0  3  0  0  0  0  0  0
  -21.3940   -5.7050   24.8780 C   0  0  0  0  0  3  0  0  0  0  0  0
  -21.5540   -4.3210   24.6650 C   0  0  0  0  0  0  0  0  0  0  0  0
  -21.7030   -3.8230   23.3570 C   0  0  0  0  0  3  0  0  0  0  0  0
  -21.6880   -4.7050   22.2630 C   0  0  0  0  0  0  0  0  0  0  0  0
  -21.8090   -4.2190   21.0040 F   0  0  0  0  0  0  0  0  0  0  0  0
  -21.5640   -3.4670   25.7140 F   0  0  0  0  0  0  0  0  0  0  0  0
  -23.0120  -13.4550   21.1310 C   0  0  0  0  0  0  0  0  0  0  0  0
  -22.3720  -12.7910   22.0880 N   0  0  0  0  0  0  0  0  0  0  0  0
  -22.5760  -14.5190   20.6930 O   0  0  0  0  0  0  0  0  0  0  0  0
  -22.7410  -11.9280   22.4590 H   0  0  0  0  0  0  0  0  0  0  0  0
  -21.5020  -13.1510   22.4560 H   0  0  0  0  0  0  0  0  0  0  0  0
  -25.6390  -14.9570   20.0320 N   0  0  0  0  0  0  0  0  0  0  0  0
  -24.9820  -15.6630   20.3490 H   0  0  0  0  0  0  0  0  0  0  0  0
  -26.5630  -15.3330   19.8490 H   0  0  0  0  0  0  0  0  0  0  0  0
  -30.0670  -17.9970   19.2870 C   0  0  0  0  0  2  0  0  0  0  0  0
  -28.5540  -18.0320   19.0550 C   0  0  0  0  0  0  0  0  0  0  0  0
  -27.8790  -19.1090   19.4360 N   0  0  0  0  0  0  0  0  0  0  0  0
  -27.9780  -17.0720   18.5460 O   0  0  0  0  0  0  0  0  0  0  0  0
  -28.3460  -19.9020   19.8560 H   0  0  0  0  0  0  0  0  0  0  0  0
  -26.8800  -19.1600   19.2870 H   0  0  0  0  0  0  0  0  0  0  0  0
  1 53  1  0
  2  1  1  0
  3  2  1  0
  4  3  1  0
  5  4  1  0
  5  6  1  0
  6  7  1  0
  7  8  1  0
  8  9  1  0
  9 10  1  0
 11 10  1  0
 11 12  1  0
 13 24  2  0
 14 12  1  0
 14 19  1  0
 15 23  1  0
 15 25  1  0
 16 22  1  0
 16 18  1  0
 17 23  1  0
 18 17  1  0
 19 18  2  0
 20 21  1  0
 20 14  2  0
 21 16  2  0
 22 15  1  0
 23 13  1  0
 25 27  2  0
 26 25  1  0
 28 26  1  0
 29 38  2  0
 29 34  1  0
 30 26  1  0
 30 34  1  0
 31 30  1  0
 32 33  1  0
 32 31  1  0
 33 29  1  0
 34 35  2  0
 35 36  1  0
 37 36  2  0
 38 37  1  0
 39 13  1  0
 39 40  1  0
 39 49  1  0
 40 43  1  0
 41 45  1  0
 41 40  1  0
 42 41  2  0
 45 44  1  0
 47 45  1  0
 47 48  1  0
 47 46  1  0
 49 52  1  1
 49 50  1  0
 51 49  1  0
 54 56  2  0
 55 54  1  0
 55 53  1  0
 57 55  1  0
 58 54  1  0
 59 65  1  0
 59 67  1  0
 60 65  1  0
 61 62  1  0
 61 60  1  0
 63 62  1  0
 63 72  1  0
 63 64  1  0
 65 64  1  0
 66 59  2  0
 67 68  1  0
 67 58  2  3
 69 70  2  0
 70 89  1  0
 71 70  1  0
 71 74  1  0
 72 73  1  0
 72 69  1  0
 73 71  2  0
 74 75  1  0
 75 76  2  0
 77 80  1  0
 77 76  1  0
 78 77  2  0
 79 78  1  0
 79 74  2  0
 80 81  1  0
 81 82  1  0
 82 83  2  0
 84 83  1  0
 84 88  1  0
 85 84  2  0
 86 81  2  0
 86 85  1  0
 87 86  1  0
 89 90  1  0
 90 93  1  0
 90 92  1  0
 91 89  2  0
 94 69  1  0
 94 95  1  0
 96 94  1  0
 97 58  1  0
 98 97  1  0
 98 99  1  0
 99101  1  0
100 98  2  0
102 99  1  0
M  ISO  4  11 101  12 101  59 100  67 100
M  END
>  <TORSDO>  (20) 
F 31

>  <SCORE>  (20) 
-7.243

>  <name>  (20) 
20

>  <ligand_id>  (20) 
20

>  <original_smiles>  (20) 
[H]c1c([H])c([H])c2c(c1[H])C([H])([H])C([H])([H])C([H])([H])C2([H])N([H])C(=O)C1([H])N(C(=O)C([H])(N([H])C(=O)C([H])(N([H])C([H])([H])[H])C([H])([H])[H])C(C([H])([H])[H])(C([H])([H])[H])C([H])([H])[H])C([H])([H])c2c([H])c(OC([H])([H])C([H])([H])OC([H])([H])C([H])([H])OC([H])([H])C([H])([H])OC([H])([H])C([H])([H])C([H])([H])N([H])C(=O)C([H])(N([H])C(=O)N3C([H])([H])C([H])([H])C([H])([H])C([H])(n4nc(-c5c([H])c([H])c(Oc6c([H])c([H])c(F)c([H])c6F)c([H])c5[H])c(C(=O)N([H])[H])c4N([H])[H])C3([H])[H])C([H])([H])C(=O)N([H])[H])c([H])c([H])c2C1([H])[H]

>  <smiles>  (20) 
[H]c1c([H])c([H])c2c(c1[H])C([H])([H])C([H])([H])C([H])([H])C2([H])N([H])C(=O)C1([H])N(C(=O)C([H])(N([H])C(=O)C([H])(N([H])C([H])([H])[H])C([H])([H])[H])C(C([H])([H])[H])(C([H])([H])[H])C([H])([H])[H])C([H])([H])c2c([H])c(OC([H])([H])C([H])([H])OC([H])([H])C([H])([H])OC([H])([H])C([H])([H])OC([H])([H])C([H])([H])C([H])([H])N([H])C(=O)C([H])(N([H])C(=O)N3C([H])([H])C([H])([H])C([H])([H])C([H])(n4nc(-c5c([H])c([H])c(Oc6c([H])c([H])c(F)c([H])c6F)c([H])c5[H])c(C(=O)N([H])[H])c4N([H])[H])C3([H])[H])C([H])([H])C(=O)N([H])[H])c([H])c([H])c2C1([H])[H]

$$$$
21:0:0
     RDKit          3D

114121  0  0  1  0  0  0  0  0999 V2000
  -25.2340  -22.6130   20.3630 C   0  0  0  0  0  3  0  0  0  0  0  0
  -27.5190  -23.7850   20.1930 C   0  0  0  0  0  0  0  0  0  0  0  0
  -26.1780  -23.7460   20.3280 N   0  0  0  0  0  0  0  0  0  0  0  0
  -28.2020  -22.8180   19.8540 O   0  0  0  0  0  0  0  0  0  0  0  0
  -25.7570  -24.6220   20.6000 H   0  0  0  0  0  0  0  0  0  0  0  0
  -29.6810  -24.9370   20.9800 C   0  0  0  0  0  1  0  0  0  0  0  0
  -28.2010  -25.1110   20.5920 C   0  0  0  0  0  3  0  0  0  0  0  0
  -28.0350  -26.2480   19.5510 C   0  0  0  0  0  2  0  0  0  0  0  0
  -28.3430  -27.5190   20.1430 O   0  0  0  0  0  0  0  0  0  0  0  0
  -28.2290  -31.2210   26.2220 C   0  0  0  0  0  0  0  0  0  0  0  0
  -27.5940  -27.9070   21.2360 C   0  0  0  0  0  0  0  0  0  0  0  0
  -26.3170  -29.7000   25.8440 C   0  0  0  0  0  3  0  0  0  0  0  0
  -26.1280  -28.7180   23.5060 C   0  0  0  0  0  0  0  0  0  0  0  0
  -27.5890  -30.7160   23.8680 C   0  0  0  0  0  2  0  0  0  0  0  0
  -27.2240  -29.4770   23.0760 C   0  0  0  0  0  0  0  0  0  0  0  0
  -27.9600  -29.0770   21.9390 C   0  0  0  0  0  3  0  0  0  0  0  0
  -26.4850  -27.1560   21.6890 C   0  0  0  0  0  3  0  0  0  0  0  0
  -25.7610  -27.5490   22.8220 C   0  0  0  0  0  3  0  0  0  0  0  0
  -25.3730  -29.2210   24.7120 C   0  0  0  0  0  2  0  0  0  0  0  0
  -27.4330  -30.5590   25.3340 N   0  0  0  0  0  0  0  0  0  0  0  0
  -28.0160  -31.1550   27.4400 O   0  0  0  0  0  0  0  0  0  0  0  0
  -26.8040  -28.4640   26.6350 C   0  0  0  0  0  0  0  0  0  0  0  0
  -26.1660  -28.2000   27.7860 N   0  0  0  0  0  0  0  0  0  0  0  0
  -27.7120  -27.7500   26.1990 O   0  0  0  0  0  0  0  0  0  0  0  0
  -25.4490  -28.8460   28.0880 H   0  0  0  0  0  0  0  0  0  0  0  0
  -25.4520  -26.8290   31.0550 C   0  0  0  0  0  0  0  0  0  0  0  0
  -26.4270  -27.0670   28.6740 C   0  0  0  0  0  3  0  0  0  0  0  0
  -25.5530  -25.8500   28.2980 C   0  0  0  0  0  2  0  0  0  0  0  0
  -24.2460  -25.7780   29.0930 C   0  0  0  0  0  2  0  0  0  0  0  0
  -24.5270  -25.7140   30.5970 C   0  0  0  0  0  2  0  0  0  0  0  0
  -26.3370  -27.4720   30.1510 C   0  0  0  0  0  0  0  0  0  0  0  0
  -27.1540  -28.5220   30.6210 C   0  0  0  0  0  3  0  0  0  0  0  0
  -27.0950  -28.9320   31.9660 C   0  0  0  0  0  3  0  0  0  0  0  0
  -26.2250  -28.2840   32.8600 C   0  0  0  0  0  3  0  0  0  0  0  0
  -25.4110  -27.2320   32.4040 C   0  0  0  0  0  3  0  0  0  0  0  0
  -29.4190  -32.1110   25.7460 C   0  0  0  0  0  3  0  0  0  0  0  0
  -29.5000  -33.2640   26.6530 N   0  0  0  0  0  0  0  0  0  0  0  0
  -28.9890  -34.4740   26.3920 C   0  0  0  0  0  0  0  0  0  0  0  0
  -28.4550  -34.7570   25.3140 O   0  0  0  0  0  0  0  0  0  0  0  0
  -29.8920  -33.0900   27.5660 H   0  0  0  0  0  0  0  0  0  0  0  0
  -27.7230  -35.6460   28.2230 C   0  0  0  0  0  1  0  0  0  0  0  0
  -29.0770  -35.5420   27.5000 C   0  0  0  0  0  3  0  0  0  0  0  0
  -30.8730  -36.9240   26.5520 C   0  0  0  0  0  1  0  0  0  0  0  0
  -29.4850  -36.8770   27.0060 N   0  0  0  0  0  0  0  0  0  0  0  0
  -29.3660  -37.5800   27.7290 H   0  0  0  0  0  0  0  0  0  0  0  0
  -30.7930  -31.3360   25.7030 C   0  0  1  0  0  0  0  0  0  0  0  0
  -31.1060  -30.5530   27.0000 C   0  0  0  0  0  1  0  0  0  0  0  0
  -30.8210  -30.3310   24.5260 C   0  0  0  0  0  1  0  0  0  0  0  0
  -31.9500  -32.3360   25.4620 C   0  0  0  0  0  1  0  0  0  0  0  0
  -25.5740  -21.3410   19.5590 C   0  0  0  0  0  0  0  0  0  0  0  0
  -26.2790  -20.4120   20.2160 N   0  0  0  0  0  0  0  0  0  0  0  0
  -25.1280  -21.1700   18.4210 O   0  0  0  0  0  0  0  0  0  0  0  0
  -26.6210  -20.6430   21.1390 H   0  0  0  0  0  0  0  0  0  0  0  0
  -26.6360  -19.0910   19.7250 C   0  0  0  0  0  2  0  0  0  0  0  0
  -27.9290  -18.6230   20.4060 C   0  0  0  0  0  2  0  0  0  0  0  0
  -29.0080  -19.5240   20.1570 O   0  0  0  0  0  0  0  0  0  0  0  0
  -29.8180  -19.2430   19.0130 C   0  0  0  0  0  2  0  0  0  0  0  0
  -29.3830  -19.9980   17.7370 C   0  0  0  0  0  2  0  0  0  0  0  0
  -28.4070  -19.2570   17.0150 O   0  0  0  0  0  0  0  0  0  0  0  0
  -27.6000  -20.0470   16.1380 C   0  0  0  0  0  2  0  0  0  0  0  0
  -26.8750  -19.1210   15.1490 C   0  0  0  0  0  2  0  0  0  0  0  0
  -26.1920  -18.0770   15.8410 O   0  0  0  0  0  0  0  0  0  0  0  0
  -25.1750  -17.4700   15.0530 C   0  0  0  0  0  2  0  0  0  0  0  0
  -23.7940  -17.7700   15.6460 C   0  0  0  0  0  2  0  0  0  0  0  0
  -22.3520  -16.7960   17.4010 C   0  0  0  0  0  0  0  0  0  0  0  0
  -20.7850  -15.5240   18.8190 C   0  0  0  0  0  2  0  0  0  0  0  0
  -21.2040  -15.5410   20.2970 C   0  0  0  0  0  2  0  0  0  0  0  0
  -22.1690  -14.3790   20.5840 C   0  0  0  0  0  2  0  0  0  0  0  0
  -23.3390  -14.3150   19.5700 C   0  0  0  0  0  3  0  0  0  0  0  0
  -22.8320  -14.4200   18.1110 C   0  0  0  0  0  2  0  0  0  0  0  0
  -21.9950  -15.6270   17.9920 N   0  0  0  0  0  0  0  0  0  0  0  0
  -21.6990  -17.8360   17.4990 O   0  0  0  0  0  0  0  0  0  0  0  0
  -23.4290  -16.7390   16.6130 N   0  0  0  0  0  0  0  0  0  0  0  0
  -23.9530  -15.8770   16.5920 H   0  0  0  0  0  0  0  0  0  0  0  0
  -25.5230  -12.9550   19.6050 C   0  0  0  0  0  0  0  0  0  0  0  0
  -25.7930  -11.6700   19.9860 C   0  0  0  0  0  0  0  0  0  0  0  0
  -24.5460  -11.1020   20.3830 C   0  0  0  0  0  0  0  0  0  0  0  0
  -24.1560  -13.1180   19.7680 N   0  0  0  0  0  0  0  0  0  0  0  0
  -23.5630  -11.9720   20.1890 N   0  0  0  0  0  0  0  0  0  0  0  0
  -24.2390   -9.8010   20.9900 C   0  0  0  0  0  0  0  0  0  0  0  0
  -23.2380   -8.9580   20.4620 C   0  0  0  0  0  3  0  0  0  0  0  0
  -22.9710   -7.7020   21.0500 C   0  0  0  0  0  3  0  0  0  0  0  0
  -23.7110   -7.2770   22.1790 C   0  0  0  0  0  0  0  0  0  0  0  0
  -24.6920   -8.1300   22.7170 C   0  0  0  0  0  3  0  0  0  0  0  0
  -24.9520   -9.3800   22.1320 C   0  0  0  0  0  3  0  0  0  0  0  0
  -23.5100   -6.0860   22.8330 O   0  0  0  0  0  0  0  0  0  0  0  0
  -22.9500   -5.0050   22.2010 C   0  0  0  0  0  0  0  0  0  0  0  0
  -23.5090   -4.4570   21.0260 C   0  0  0  0  0  3  0  0  0  0  0  0
  -22.9380   -3.3050   20.4480 C   0  0  0  0  0  3  0  0  0  0  0  0
  -21.8210   -2.6940   21.0490 C   0  0  0  0  0  0  0  0  0  0  0  0
  -21.2670   -3.2360   22.2220 C   0  0  0  0  0  3  0  0  0  0  0  0
  -21.8320   -4.3880   22.7980 C   0  0  0  0  0  0  0  0  0  0  0  0
  -21.3070   -4.8920   23.9400 F   0  0  0  0  0  0  0  0  0  0  0  0
  -21.2820   -1.5810   20.5000 F   0  0  0  0  0  0  0  0  0  0  0  0
  -27.1500  -11.0330   20.0770 C   0  0  0  0  0  0  0  0  0  0  0  0
  -27.2340   -9.7300   19.8390 N   0  0  0  0  0  0  0  0  0  0  0  0
  -28.1530  -11.7060   20.3120 O   0  0  0  0  0  0  0  0  0  0  0  0
  -26.4140   -9.1820   19.6230 H   0  0  0  0  0  0  0  0  0  0  0  0
  -28.1340   -9.2720   19.8790 H   0  0  0  0  0  0  0  0  0  0  0  0
  -26.3250  -13.9970   19.1500 N   0  0  0  0  0  0  0  0  0  0  0  0
  -27.3320  -13.8990   19.1040 H   0  0  0  0  0  0  0  0  0  0  0  0
  -26.0020  -14.9350   18.9430 H   0  0  0  0  0  0  0  0  0  0  0  0
  -23.7820  -23.1210   20.1450 C   0  0  0  0  0  2  0  0  0  0  0  0
  -22.6680  -22.1460   20.5990 C   0  0  0  0  0  2  0  0  0  0  0  0
  -21.2550  -22.7540   20.5730 C   0  0  0  0  0  2  0  0  0  0  0  0
  -19.0310  -22.1000   21.5730 C   0  0  0  0  0  0  0  0  0  0  0  0
  -18.2530  -21.1270   22.0480 N   0  0  0  0  0  0  0  0  0  0  0  0
  -18.5770  -23.3520   21.5390 N   0  0  0  0  0  4  0  0  0  0  0  0
  -20.2640  -21.8100   21.1330 N   0  0  0  0  0  0  0  0  0  0  0  0
  -17.3180  -21.2980   22.3950 H   0  0  0  0  0  0  0  0  0  0  0  0
  -18.5530  -20.1620   22.0960 H   0  0  0  0  0  0  0  0  0  0  0  0
  -17.6550  -23.6060   21.8680 H   0  0  0  0  0  0  0  0  0  0  0  0
  -19.1420  -24.1060   21.1770 H   0  0  0  0  0  0  0  0  0  0  0  0
  -20.5610  -20.8400   21.1210 H   0  0  0  0  0  0  0  0  0  0  0  0
  1103  1  0
  2  3  1  0
  2  7  1  0
  3  1  1  0
  3  5  1  0
  4  2  2  0
  7  6  1  0
  8  9  1  0
  8  7  1  0
  9 11  1  0
 10 21  2  0
 11 17  2  0
 11 16  1  0
 12 22  1  0
 13 19  1  0
 14 20  1  0
 15 13  1  0
 15 14  1  0
 16 15  2  0
 17 18  1  0
 18 13  2  0
 19 12  1  0
 20 12  1  0
 20 10  1  0
 22 23  1  0
 23 25  1  0
 24 22  2  0
 26 35  1  0
 27 23  1  0
 27 31  1  0
 28 27  1  0
 28 29  1  0
 29 30  1  0
 30 26  1  0
 31 32  1  0
 31 26  2  0
 32 33  2  0
 33 34  1  0
 35 34  2  0
 36 10  1  0
 36 37  1  0
 37 40  1  0
 38 37  1  0
 38 42  1  0
 39 38  2  0
 42 41  1  0
 43 44  1  0
 44 42  1  0
 44 45  1  0
 46 36  1  0
 46 47  1  1
 48 46  1  0
 49 46  1  0
 50 51  1  0
 50  1  1  0
 51 53  1  0
 52 50  2  0
 54 51  1  0
 54 55  1  0
 56 55  1  0
 57 56  1  0
 58 57  1  0
 59 58  1  0
 60 59  1  0
 61 62  1  0
 61 60  1  0
 63 64  1  0
 63 62  1  0
 64 73  1  0
 65 72  2  0
 65 71  1  0
 66 67  1  0
 67 68  1  0
 69 70  1  0
 69 78  1  0
 69 68  1  0
 71 70  1  0
 71 66  1  0
 73 65  1  0
 74 73  1  0
 75 78  1  0
 75 76  2  0
 76 95  1  0
 76 77  1  0
 77 80  1  0
 78 79  1  0
 79 77  2  0
 80 85  1  0
 81 80  2  0
 81 82  1  0
 82 83  2  0
 83 84  1  0
 83 86  1  0
 85 84  2  0
 87 92  1  0
 87 86  1  0
 88 87  2  0
 89 88  1  0
 89 90  2  0
 90 91  1  0
 91 92  2  0
 92 93  1  0
 94 90  1  0
 95 97  2  0
 96 99  1  0
 96 95  1  0
 98 96  1  0
100 75  1  0
101100  1  0
102100  1  0
103104  1  0
105104  1  0
105109  1  0
106107  1  0
107111  1  0
107110  1  0
108106  2  0
108112  1  0
109106  1  0
113108  1  0
114109  1  0
M  ISO  4   8 101   9 101  65 100  73 100
M  END
>  <TORSDO>  (21) 
F 35

>  <SCORE>  (21) 
25.549

>  <name>  (21) 
21

>  <ligand_id>  (21) 
21

>  <original_smiles>  (21) 
[H]c1c([H])c([H])c2c(c1[H])C([H])([H])C([H])([H])C([H])([H])C2([H])N([H])C(=O)C1([H])N(C(=O)C([H])(N([H])C(=O)C([H])(N([H])C([H])([H])[H])C([H])([H])[H])C(C([H])([H])[H])(C([H])([H])[H])C([H])([H])[H])C([H])([H])c2c([H])c(OC([H])([H])C([H])(C(=O)N([H])C([H])(C(=O)N([H])C([H])([H])C([H])([H])OC([H])([H])C([H])([H])OC([H])([H])C([H])([H])OC([H])([H])C([H])([H])N([H])C(=O)N3C([H])([H])C([H])([H])C([H])([H])C([H])(n4nc(-c5c([H])c([H])c(Oc6c([H])c([H])c(F)c([H])c6F)c([H])c5[H])c(C(=O)N([H])[H])c4N([H])[H])C3([H])[H])C([H])([H])C([H])([H])C([H])([H])N([H])C(N([H])[H])=[N+]([H])[H])C([H])([H])[H])c([H])c([H])c2C1([H])[H]

>  <smiles>  (21) 
[H]c1c([H])c([H])c2c(c1[H])C([H])([H])C([H])([H])C([H])([H])C2([H])N([H])C(=O)C1([H])N(C(=O)C([H])(N([H])C(=O)C([H])(N([H])C([H])([H])[H])C([H])([H])[H])C(C([H])([H])[H])(C([H])([H])[H])C([H])([H])[H])C([H])([H])c2c([H])c(OC([H])([H])C([H])(C(=O)N([H])C([H])(C(=O)N([H])C([H])([H])C([H])([H])OC([H])([H])C([H])([H])OC([H])([H])C([H])([H])OC([H])([H])C([H])([H])N([H])C(=O)N3C([H])([H])C([H])([H])C([H])([H])C([H])(n4nc(-c5c([H])c([H])c(Oc6c([H])c([H])c(F)c([H])c6F)c([H])c5[H])c(C(=O)N([H])[H])c4N([H])[H])C3([H])[H])C([H])([H])C([H])([H])C([H])([H])N([H])C(N([H])[H])=[N+]([H])[H])C([H])([H])[H])c([H])c([H])c2C1([H])[H]

$$$$
22:0:0
     RDKit          3D

109118  0  0  1  0  0  0  0  0999 V2000
  -30.0340  -19.9530   19.9210 C   0  0  0  0  0  3  0  0  0  0  0  0
  -30.3360  -20.0350   21.4310 C   0  0  0  0  0  3  0  0  0  0  0  0
  -30.6890  -18.6650   22.0650 C   0  0  0  0  0  3  0  0  0  0  0  0
  -30.1180  -17.4020   21.3450 C   0  0  0  0  0  3  0  0  0  0  0  0
  -29.0170  -18.8160   19.7100 C   0  0  0  0  0  3  0  0  0  0  0  0
  -29.6580  -17.6040   20.0050 O   0  0  0  0  0  0  0  0  0  0  0  0
  -30.2200  -18.6590   23.4090 O   0  0  0  0  0  0  0  0  0  0  0  0
  -29.2740  -18.7830   23.3880 H   0  0  0  0  0  0  0  0  0  0  0  0
  -31.3090  -20.2430   17.9580 C   0  0  0  0  0  3  0  0  0  0  0  0
  -31.2640  -19.7700   19.1440 N   0  0  0  0  0  0  0  0  0  0  0  0
  -34.8580  -20.2650   15.5060 C   0  0  0  0  0  3  0  0  0  0  0  0
  -33.6450  -20.7530   14.9820 C   0  0  0  0  0  3  0  0  0  0  0  0
  -34.9040  -19.7490   16.8170 C   0  0  0  0  0  3  0  0  0  0  0  0
  -32.4800  -20.7560   15.7810 C   0  0  0  0  0  3  0  0  0  0  0  0
  -33.7350  -19.7250   17.6000 C   0  0  0  0  0  3  0  0  0  0  0  0
  -32.5170  -20.2350   17.1000 C   0  0  0  0  0  0  0  0  0  0  0  0
  -31.4600  -20.8920   21.5560 O   0  0  0  0  0  0  0  0  0  0  0  0
  -32.0190  -20.6370   20.8200 H   0  0  0  0  0  0  0  0  0  0  0  0
  -27.9100  -19.0590   20.5340 O   0  0  0  0  0  0  0  0  0  0  0  0
  -26.6610  -19.3470   19.8900 C   0  0  0  0  0  2  0  0  0  0  0  0
  -26.2670  -20.8460   19.9150 C   0  0  0  0  0  2  0  0  0  0  0  0
  -27.0790  -21.7440   19.0360 N   0  0  0  0  0  4  0  0  0  0  0  0
  -27.3980  -21.2360   18.2220 H   0  0  0  0  0  0  0  0  0  0  0  0
  -27.8930  -22.0840   19.5320 H   0  0  0  0  0  0  0  0  0  0  0  0
  -26.3400  -22.9460   18.5620 C   0  0  0  0  0  2  0  0  0  0  0  0
  -27.2140  -23.8870   17.7130 C   0  0  0  0  0  2  0  0  0  0  0  0
  -28.2070  -24.4580   18.5620 O   0  0  0  0  0  0  0  0  0  0  0  0
  -28.7680  -25.6600   18.0300 C   0  0  0  0  0  2  0  0  0  0  0  0
  -29.4740  -26.4610   19.1430 C   0  0  0  0  0  2  0  0  0  0  0  0
  -28.6960  -26.7160   20.3160 O   0  0  0  0  0  0  0  0  0  0  0  0
  -24.6070  -31.7280   23.2490 C   0  0  0  0  0  0  0  0  0  0  0  0
  -27.5240  -27.4280   20.2140 C   0  0  0  0  0  0  0  0  0  0  0  0
  -23.5040  -30.2800   21.5760 C   0  0  0  0  0  3  0  0  0  0  0  0
  -25.0590  -28.8110   20.1860 C   0  0  0  0  0  0  0  0  0  0  0  0
  -26.0170  -30.7480   21.4390 C   0  0  0  0  0  2  0  0  0  0  0  0
  -26.1790  -29.3870   20.7970 C   0  0  0  0  0  0  0  0  0  0  0  0
  -27.4130  -28.6990   20.8200 C   0  0  0  0  0  3  0  0  0  0  0  0
  -26.3750  -26.8520   19.6300 C   0  0  0  0  0  3  0  0  0  0  0  0
  -25.1470  -27.5360   19.6070 C   0  0  0  0  0  3  0  0  0  0  0  0
  -23.7760  -29.6140   20.2020 C   0  0  0  0  0  2  0  0  0  0  0  0
  -24.7280  -30.9330   22.1480 N   0  0  0  0  0  0  0  0  0  0  0  0
  -23.5020  -31.9580   23.7600 O   0  0  0  0  0  0  0  0  0  0  0  0
  -22.8730  -29.2330   22.5200 C   0  0  0  0  0  0  0  0  0  0  0  0
  -21.5710  -28.9610   22.3280 N   0  0  0  0  0  0  0  0  0  0  0  0
  -23.5540  -28.6600   23.3780 O   0  0  0  0  0  0  0  0  0  0  0  0
  -21.0850  -29.4690   21.6030 H   0  0  0  0  0  0  0  0  0  0  0  0
  -18.2710  -27.5370   22.6410 C   0  0  0  0  0  0  0  0  0  0  0  0
  -20.7780  -27.9860   23.0730 C   0  0  0  0  0  3  0  0  0  0  0  0
  -21.0260  -26.5570   22.5400 C   0  0  0  0  0  2  0  0  0  0  0  0
  -20.0180  -26.1300   21.4690 C   0  0  0  0  0  2  0  0  0  0  0  0
  -18.5890  -26.1880   22.0170 C   0  0  0  0  0  2  0  0  0  0  0  0
  -19.3000  -28.3880   23.1220 C   0  0  0  0  0  0  0  0  0  0  0  0
  -18.9520  -29.6470   23.6570 C   0  0  0  0  0  3  0  0  0  0  0  0
  -17.6060  -30.0510   23.7330 C   0  0  0  0  0  3  0  0  0  0  0  0
  -16.5910  -29.1960   23.2720 C   0  0  0  0  0  3  0  0  0  0  0  0
  -16.9240  -27.9440   22.7260 C   0  0  0  0  0  3  0  0  0  0  0  0
  -25.8520  -32.4120   23.9000 C   0  0  0  0  0  3  0  0  0  0  0  0
  -25.4830  -33.7980   24.2130 N   0  0  0  0  0  0  0  0  0  0  0  0
  -25.7880  -34.8580   23.4520 C   0  0  0  0  0  0  0  0  0  0  0  0
  -26.4840  -34.7750   22.4340 O   0  0  0  0  0  0  0  0  0  0  0  0
  -24.8710  -33.9370   25.0040 H   0  0  0  0  0  0  0  0  0  0  0  0
  -23.9870  -36.5710   23.0550 C   0  0  0  0  0  1  0  0  0  0  0  0
  -25.2310  -36.2270   23.8900 C   0  0  0  0  0  3  0  0  0  0  0  0
  -27.3100  -37.2100   24.7520 C   0  0  0  0  0  1  0  0  0  0  0  0
  -26.2170  -37.3230   23.7920 N   0  0  0  0  0  0  0  0  0  0  0  0
  -25.7630  -38.2210   23.9300 H   0  0  0  0  0  0  0  0  0  0  0  0
  -26.3710  -31.6630   25.1890 C   0  0  1  0  0  0  0  0  0  0  0  0
  -25.2660  -31.3720   26.2300 C   0  0  0  0  0  1  0  0  0  0  0  0
  -27.0260  -30.3150   24.8060 C   0  0  0  0  0  1  0  0  0  0  0  0
  -27.4570  -32.5140   25.8850 C   0  0  0  0  0  1  0  0  0  0  0  0
  -31.2470  -16.3410   21.2860 C   0  0  0  0  0  2  0  0  0  0  0  0
  -31.2260  -14.2120   19.9670 C   0  0  0  0  0  0  0  0  0  0  0  0
  -30.7600  -12.1300   18.7220 C   0  0  0  0  0  2  0  0  0  0  0  0
  -29.7490  -12.3910   17.5840 C   0  0  0  0  0  2  0  0  0  0  0  0
  -28.2980  -12.3420   18.0960 C   0  0  0  0  0  2  0  0  0  0  0  0
  -28.0910  -13.1850   19.3780 C   0  0  0  0  0  3  0  0  0  0  0  0
  -29.1690  -12.8420   20.4190 C   0  0  0  0  0  2  0  0  0  0  0  0
  -30.4890  -13.0860   19.8000 N   0  0  0  0  0  0  0  0  0  0  0  0
  -32.2400  -14.4720   19.3090 O   0  0  0  0  0  0  0  0  0  0  0  0
  -30.7590  -15.0210   20.9210 N   0  0  0  0  0  0  0  0  0  0  0  0
  -29.9430  -14.6860   21.4120 H   0  0  0  0  0  0  0  0  0  0  0  0
  -25.7750  -13.9640   20.1850 C   0  0  0  0  0  0  0  0  0  0  0  0
  -24.6790  -13.2630   20.6200 C   0  0  0  0  0  0  0  0  0  0  0  0
  -25.0480  -11.8860   20.5670 C   0  0  0  0  0  0  0  0  0  0  0  0
  -26.7480  -13.0140   19.9140 N   0  0  0  0  0  0  0  0  0  0  0  0
  -26.3130  -11.7580   20.1910 N   0  0  0  0  0  0  0  0  0  0  0  0
  -24.2510  -10.6740   20.8010 C   0  0  0  0  0  0  0  0  0  0  0  0
  -24.6340   -9.7100   21.7570 C   0  0  0  0  0  3  0  0  0  0  0  0
  -23.8430   -8.5590   21.9710 C   0  0  0  0  0  3  0  0  0  0  0  0
  -22.6580   -8.3640   21.2220 C   0  0  0  0  0  0  0  0  0  0  0  0
  -22.2940   -9.3150   20.2490 C   0  0  0  0  0  3  0  0  0  0  0  0
  -23.0850  -10.4570   20.0370 C   0  0  0  0  0  3  0  0  0  0  0  0
  -21.8340   -7.2720   21.3530 O   0  0  0  0  0  0  0  0  0  0  0  0
  -21.6870   -6.6170   22.5510 C   0  0  0  0  0  0  0  0  0  0  0  0
  -21.2280   -7.2790   23.7100 C   0  0  0  0  0  3  0  0  0  0  0  0
  -21.0240   -6.5510   24.8990 C   0  0  0  0  0  3  0  0  0  0  0  0
  -21.2730   -5.1640   24.9290 C   0  0  0  0  0  0  0  0  0  0  0  0
  -21.7240   -4.5060   23.7730 C   0  0  0  0  0  3  0  0  0  0  0  0
  -21.9280   -5.2310   22.5870 C   0  0  0  0  0  0  0  0  0  0  0  0
  -22.3440   -4.5870   21.4680 F   0  0  0  0  0  0  0  0  0  0  0  0
  -21.0760   -4.4610   26.0690 F   0  0  0  0  0  0  0  0  0  0  0  0
  -23.3340  -13.8290   20.9640 C   0  0  0  0  0  0  0  0  0  0  0  0
  -22.6220  -13.1870   21.8860 N   0  0  0  0  0  0  0  0  0  0  0  0
  -22.9270  -14.8680   20.4500 O   0  0  0  0  0  0  0  0  0  0  0  0
  -22.9750  -12.3460   22.3160 H   0  0  0  0  0  0  0  0  0  0  0  0
  -21.7130  -13.5370   22.1540 H   0  0  0  0  0  0  0  0  0  0  0  0
  -26.0270  -15.3180   19.9900 N   0  0  0  0  0  0  0  0  0  0  0  0
  -25.3080  -16.0250   20.0950 H   0  0  0  0  0  0  0  0  0  0  0  0
  -26.9160  -15.6950   19.6910 H   0  0  0  0  0  0  0  0  0  0  0  0
  1 10  1  0
  1  2  1  0
  2 17  1  0
  2  3  1  0
  3  7  1  0
  4 71  1  0
  4  3  1  0
  5  1  1  0
  5  6  1  0
  5 19  1  0
  6  4  1  0
  8  7  1  0
  9 10  2  0
 11 13  1  0
 12 11  2  0
 12 14  1  0
 13 15  2  0
 14 16  2  0
 16 15  1  0
 16  9  1  0
 18 17  1  0
 20 21  1  0
 20 19  1  0
 22 24  1  0
 22 21  1  0
 23 22  1  0
 25 22  1  0
 26 27  1  0
 26 25  1  0
 28 27  1  0
 28 29  1  0
 29 30  1  0
 31 42  2  0
 32 30  1  0
 32 37  1  0
 33 41  1  0
 33 43  1  0
 34 40  1  0
 34 36  1  0
 35 41  1  0
 36 37  2  0
 36 35  1  0
 38 32  2  0
 39 38  1  0
 39 34  2  0
 40 33  1  0
 41 31  1  0
 43 45  2  0
 44 43  1  0
 46 44  1  0
 47 56  2  0
 47 52  1  0
 48 44  1  0
 48 52  1  0
 49 48  1  0
 50 51  1  0
 50 49  1  0
 51 47  1  0
 52 53  2  0
 53 54  1  0
 55 54  2  0
 56 55  1  0
 57 31  1  0
 57 58  1  0
 57 67  1  0
 58 61  1  0
 59 63  1  0
 59 58  1  0
 60 59  2  0
 63 62  1  0
 65 63  1  0
 65 66  1  0
 65 64  1  0
 67 70  1  1
 67 68  1  0
 69 67  1  0
 72 80  1  0
 73 78  1  0
 74 75  1  0
 74 73  1  0
 76 75  1  0
 76 85  1  0
 76 77  1  0
 78 72  1  0
 78 77  1  0
 79 72  2  0
 80 71  1  0
 80 81  1  0
 82 83  2  0
 83102  1  0
 84 83  1  0
 84 87  1  0
 85 82  1  0
 85 86  1  0
 86 84  2  0
 87 88  1  0
 88 89  2  0
 90 93  1  0
 90 89  1  0
 91 90  2  0
 92 91  1  0
 92 87  2  0
 93 94  1  0
 94 99  2  0
 94 95  1  0
 95 96  2  0
 96 97  1  0
 97101  1  0
 98 97  2  0
 99 98  1  0
100 99  1  0
102103  1  0
103106  1  0
103105  1  0
104102  2  0
107108  1  0
107 82  1  0
109107  1  0
M  ISO  4  29 101  30 101  72 100  80 100
M  END
>  <TORSDO>  (22) 
F 30

>  <SCORE>  (22) 
-9.154

>  <name>  (22) 
22

>  <ligand_id>  (22) 
22

>  <original_smiles>  (22) 
[H]OC1([H])C([H])(N=C([H])c2c([H])c([H])c([H])c([H])c2[H])C([H])(OC([H])([H])C([H])([H])[N+]([H])([H])C([H])([H])C([H])([H])OC([H])([H])C([H])([H])Oc2c([H])c([H])c3c(c2[H])C([H])([H])N(C(=O)C([H])(N([H])C(=O)C([H])(N([H])C([H])([H])[H])C([H])([H])[H])C(C([H])([H])[H])(C([H])([H])[H])C([H])([H])[H])C([H])(C(=O)N([H])C2([H])c4c([H])c([H])c([H])c([H])c4C([H])([H])C([H])([H])C2([H])[H])C3([H])[H])OC([H])(C([H])([H])N([H])C(=O)N2C([H])([H])C([H])([H])C([H])([H])C([H])(n3nc(-c4c([H])c([H])c(Oc5c([H])c([H])c(F)c([H])c5F)c([H])c4[H])c(C(=O)N([H])[H])c3N([H])[H])C2([H])[H])C1([H])O[H]

>  <smiles>  (22) 
[H]OC1([H])C([H])(N=C([H])c2c([H])c([H])c([H])c([H])c2[H])C([H])(OC([H])([H])C([H])([H])[N+]([H])([H])C([H])([H])C([H])([H])OC([H])([H])C([H])([H])Oc2c([H])c([H])c3c(c2[H])C([H])([H])N(C(=O)C([H])(N([H])C(=O)C([H])(N([H])C([H])([H])[H])C([H])([H])[H])C(C([H])([H])[H])(C([H])([H])[H])C([H])([H])[H])C([H])(C(=O)N([H])C2([H])c4c([H])c([H])c([H])c([H])c4C([H])([H])C([H])([H])C2([H])[H])C3([H])[H])OC([H])(C([H])([H])N([H])C(=O)N2C([H])([H])C([H])([H])C([H])([H])C([H])(n3nc(-c4c([H])c([H])c(Oc5c([H])c([H])c(F)c([H])c5F)c([H])c4[H])c(C(=O)N([H])[H])c3N([H])[H])C2([H])[H])C1([H])O[H]

$$$$
23:0:0
     RDKit          3D

107116  0  0  1  0  0  0  0  0999 V2000
  -28.5460  -20.4490   24.3430 C   0  0  0  0  0  1  0  0  0  0  0  0
  -29.9250  -21.0330   23.9220 C   0  0  0  0  0  3  0  0  0  0  0  0
  -29.8300  -21.8460   22.6060 C   0  0  0  0  0  0  0  0  0  0  0  0
  -28.9450  -21.4090   21.6920 N   0  0  0  0  0  0  0  0  0  0  0  0
  -30.4700  -22.8920   22.4830 O   0  0  0  0  0  0  0  0  0  0  0  0
  -28.5530  -20.4980   21.8920 H   0  0  0  0  0  0  0  0  0  0  0  0
  -28.7730  -23.0450   19.6590 C   0  0  0  0  0  0  0  0  0  0  0  0
  -27.3450  -23.2440   21.5470 C   0  0  0  0  0  2  0  0  0  0  0  0
  -27.1620  -24.4240   20.6030 C   0  0  0  0  0  2  0  0  0  0  0  0
  -28.1160  -22.1830   20.7540 C   0  0  0  0  0  3  0  0  0  0  0  0
  -28.1310  -24.2240   19.5300 N   0  0  0  0  0  0  0  0  0  0  0  0
  -29.7080  -22.6500   18.9590 O   0  0  0  0  0  0  0  0  0  0  0  0
  -28.3060  -25.2420   18.4720 C   0  0  0  0  0  2  0  0  0  0  0  0
  -26.9460  -25.7230   17.8890 C   0  0  0  0  0  2  0  0  0  0  0  0
  -26.9040  -27.1240   17.5820 O   0  0  0  0  0  0  0  0  0  0  0  0
  -25.0270  -31.0350   23.1900 C   0  0  0  0  0  0  0  0  0  0  0  0
  -25.8850  -27.8630   18.1610 C   0  0  0  0  0  0  0  0  0  0  0  0
  -23.1710  -30.3180   21.7240 C   0  0  0  0  0  3  0  0  0  0  0  0
  -23.8560  -29.3510   19.4660 C   0  0  0  0  0  0  0  0  0  0  0  0
  -25.5220  -30.6630   20.7780 C   0  0  0  0  0  2  0  0  0  0  0  0
  -25.2030  -29.6020   19.7490 C   0  0  0  0  0  0  0  0  0  0  0  0
  -26.2180  -28.8680   19.0940 C   0  0  0  0  0  3  0  0  0  0  0  0
  -24.5160  -27.6670   17.8450 C   0  0  0  0  0  3  0  0  0  0  0  0
  -23.5050  -28.3940   18.4990 C   0  0  0  0  0  3  0  0  0  0  0  0
  -22.8270  -30.1610   20.2200 C   0  0  0  0  0  2  0  0  0  0  0  0
  -24.6100  -30.6630   21.9470 N   0  0  0  0  0  0  0  0  0  0  0  0
  -24.2280  -31.1310   24.1330 O   0  0  0  0  0  0  0  0  0  0  0  0
  -22.7230  -29.0420   22.4720 C   0  0  0  0  0  0  0  0  0  0  0  0
  -21.4220  -28.7240   22.3900 N   0  0  0  0  0  0  0  0  0  0  0  0
  -23.5410  -28.3510   23.0870 O   0  0  0  0  0  0  0  0  0  0  0  0
  -20.8180  -29.3520   21.8810 H   0  0  0  0  0  0  0  0  0  0  0  0
  -18.3830  -26.7660   22.4200 C   0  0  0  0  0  0  0  0  0  0  0  0
  -20.7820  -27.5500   22.9830 C   0  0  0  0  0  3  0  0  0  0  0  0
  -21.2580  -26.2480   22.3000 C   0  0  0  0  0  2  0  0  0  0  0  0
  -20.3490  -25.8020   21.1490 C   0  0  0  0  0  2  0  0  0  0  0  0
  -18.9220  -25.5700   21.6520 C   0  0  0  0  0  2  0  0  0  0  0  0
  -19.2570  -27.7050   23.0300 C   0  0  0  0  0  0  0  0  0  0  0  0
  -18.7040  -28.8180   23.7020 C   0  0  0  0  0  3  0  0  0  0  0  0
  -17.3100  -29.0000   23.7680 C   0  0  0  0  0  3  0  0  0  0  0  0
  -16.4500  -28.0600   23.1740 C   0  0  0  0  0  3  0  0  0  0  0  0
  -16.9870  -26.9450   22.5060 C   0  0  0  0  0  3  0  0  0  0  0  0
  -26.5180  -31.3800   23.4840 C   0  0  0  0  0  3  0  0  0  0  0  0
  -27.2840  -30.2370   24.2550 C   0  0  1  0  0  0  0  0  0  0  0  0
  -26.5570  -29.7430   25.5280 C   0  0  0  0  0  1  0  0  0  0  0  0
  -27.4980  -29.0160   23.3310 C   0  0  0  0  0  1  0  0  0  0  0  0
  -28.6900  -30.7350   24.6700 C   0  0  0  0  0  1  0  0  0  0  0  0
  -26.5380  -32.6290   24.2550 N   0  0  0  0  0  0  0  0  0  0  0  0
  -26.8590  -33.8300   23.7520 C   0  0  0  0  0  0  0  0  0  0  0  0
  -27.2440  -33.9890   22.5900 O   0  0  0  0  0  0  0  0  0  0  0  0
  -26.1790  -32.5830   25.1980 H   0  0  0  0  0  0  0  0  0  0  0  0
  -25.4530  -35.8280   24.3550 C   0  0  0  0  0  1  0  0  0  0  0  0
  -26.7350  -35.0480   24.6890 C   0  0  0  0  0  3  0  0  0  0  0  0
  -29.1150  -35.3840   25.1940 C   0  0  0  0  0  1  0  0  0  0  0  0
  -27.8980  -35.9600   24.6250 N   0  0  0  0  0  0  0  0  0  0  0  0
  -27.7020  -36.8320   25.1130 H   0  0  0  0  0  0  0  0  0  0  0  0
  -31.0960  -20.0060   23.9770 C   0  0  0  0  0  3  0  0  0  0  0  0
  -31.0760  -19.2030   25.2220 N   0  0  0  0  0  4  0  0  0  0  0  0
  -30.2430  -18.6530   25.2820 H   0  0  0  0  0  0  0  0  0  0  0  0
  -31.1190  -19.8060   26.0260 H   0  0  0  0  0  0  0  0  0  0  0  0
  -31.8730  -18.5860   25.2750 H   0  0  0  0  0  0  0  0  0  0  0  0
  -31.9290  -19.2280   21.7150 C   0  0  0  0  0  3  0  0  0  0  0  0
  -31.0990  -19.0990   22.7650 C   0  0  0  0  0  3  0  0  0  0  0  0
  -31.7230  -18.4000   20.5550 C   0  0  0  0  0  0  0  0  0  0  0  0
  -30.8930  -19.0010   19.6990 N   0  0  0  0  0  0  0  0  0  0  0  0
  -32.2200  -17.2870   20.3630 O   0  0  0  0  0  0  0  0  0  0  0  0
  -30.5720  -19.9280   19.9450 H   0  0  0  0  0  0  0  0  0  0  0  0
  -30.3620  -18.4260   18.4720 C   0  0  0  0  0  3  0  0  0  0  0  0
  -28.8990  -18.8510   18.2590 C   0  0  0  0  0  2  0  0  0  0  0  0
  -27.8930  -18.3470   19.3210 C   0  0  0  0  0  2  0  0  0  0  0  0
  -29.2390  -16.2740   19.6790 C   0  0  0  0  0  3  0  0  0  0  0  0
  -29.7810  -13.9170   19.2920 C   0  0  0  0  0  2  0  0  0  0  0  0
  -28.9080  -13.4050   18.1300 C   0  0  0  0  0  2  0  0  0  0  0  0
  -27.5500  -12.8930   18.6550 C   0  0  0  0  0  2  0  0  0  0  0  0
  -26.8540  -13.9020   19.6060 C   0  0  0  0  0  3  0  0  0  0  0  0
  -27.8400  -14.4210   20.6750 C   0  0  0  0  0  2  0  0  0  0  0  0
  -29.0240  -14.9700   19.9850 N   0  0  0  0  0  0  0  0  0  0  0  0
  -30.2020  -16.6600   19.0110 O   0  0  0  0  0  0  0  0  0  0  0  0
  -28.2490  -17.1080   20.0230 N   0  0  0  0  0  0  0  0  0  0  0  0
  -27.5430  -16.7150   20.6260 H   0  0  0  0  0  0  0  0  0  0  0  0
  -24.5190  -13.9630   20.7000 C   0  0  0  0  0  0  0  0  0  0  0  0
  -23.6620  -12.9730   21.0930 C   0  0  0  0  0  0  0  0  0  0  0  0
  -24.3370  -11.7420   20.8210 C   0  0  0  0  0  0  0  0  0  0  0  0
  -25.6520  -13.3280   20.2140 N   0  0  0  0  0  0  0  0  0  0  0  0
  -25.5530  -11.9780   20.3460 N   0  0  0  0  0  0  0  0  0  0  0  0
  -23.8770  -10.3550   20.9390 C   0  0  0  0  0  0  0  0  0  0  0  0
  -24.2970   -9.5310   22.0050 C   0  0  0  0  0  3  0  0  0  0  0  0
  -23.8220   -8.2060   22.1170 C   0  0  0  0  0  3  0  0  0  0  0  0
  -22.9130   -7.6950   21.1600 C   0  0  0  0  0  0  0  0  0  0  0  0
  -22.5160   -8.5120   20.0900 C   0  0  0  0  0  3  0  0  0  0  0  0
  -22.9960   -9.8270   19.9730 C   0  0  0  0  0  3  0  0  0  0  0  0
  -22.4320   -6.4080   21.1720 O   0  0  0  0  0  0  0  0  0  0  0  0
  -21.9820   -5.8150   22.3240 C   0  0  0  0  0  0  0  0  0  0  0  0
  -20.8870   -6.3330   23.0500 C   0  0  0  0  0  3  0  0  0  0  0  0
  -20.4090   -5.6500   24.1860 C   0  0  0  0  0  3  0  0  0  0  0  0
  -21.0210   -4.4510   24.6010 C   0  0  0  0  0  0  0  0  0  0  0  0
  -22.1050   -3.9300   23.8730 C   0  0  0  0  0  3  0  0  0  0  0  0
  -22.5780   -4.6050   22.7340 C   0  0  0  0  0  0  0  0  0  0  0  0
  -23.6080   -4.0810   22.0240 F   0  0  0  0  0  0  0  0  0  0  0  0
  -20.5610   -3.7910   25.6890 F   0  0  0  0  0  0  0  0  0  0  0  0
  -22.2630  -13.1490   21.6060 C   0  0  0  0  0  0  0  0  0  0  0  0
  -21.8120  -12.2520   22.4770 N   0  0  0  0  0  0  0  0  0  0  0  0
  -21.5820  -14.1160   21.2700 O   0  0  0  0  0  0  0  0  0  0  0  0
  -22.3930  -11.4760   22.7550 H   0  0  0  0  0  0  0  0  0  0  0  0
  -20.8860  -12.3340   22.8680 H   0  0  0  0  0  0  0  0  0  0  0  0
  -24.4310  -15.3550   20.6920 N   0  0  0  0  0  0  0  0  0  0  0  0
  -23.6050  -15.8750   20.9740 H   0  0  0  0  0  0  0  0  0  0  0  0
  -25.1710  -15.9420   20.3280 H   0  0  0  0  0  0  0  0  0  0  0  0
  2 56  1  0
  2  1  1  0
  3  2  1  0
  4  6  1  0
  4  3  1  0
  5  3  2  0
  7 10  1  0
  9  8  1  0
 10  8  1  0
 10  4  1  0
 11  7  1  0
 11  9  1  0
 12  7  2  0
 13 11  1  0
 14 13  1  0
 15 14  1  0
 15 17  1  0
 16 27  2  0
 17 22  1  0
 18 26  1  0
 18 28  1  0
 19 21  1  0
 19 25  1  0
 20 26  1  0
 21 20  1  0
 22 21  2  0
 23 17  2  0
 23 24  1  0
 24 19  2  0
 25 18  1  0
 26 16  1  0
 28 30  2  0
 29 28  1  0
 31 29  1  0
 32 41  2  0
 32 37  1  0
 33 29  1  0
 33 37  1  0
 34 33  1  0
 35 36  1  0
 35 34  1  0
 36 32  1  0
 37 38  2  0
 38 39  1  0
 40 39  2  0
 41 40  1  0
 42 16  1  0
 42 43  1  0
 42 47  1  0
 43 46  1  1
 43 44  1  0
 45 43  1  0
 47 50  1  0
 48 47  1  0
 48 52  1  0
 49 48  2  0
 52 51  1  0
 54 52  1  0
 54 55  1  0
 54 53  1  0
 56 62  1  0
 56 57  1  0
 57 60  1  0
 57 58  1  0
 57 59  1  0
 61 62  2  0
 63 61  1  0
 64 66  1  0
 64 63  1  0
 65 63  2  0
 67 77  1  0
 67 64  1  0
 68 67  1  0
 68 69  1  0
 69 78  1  0
 70 77  1  0
 70 76  1  0
 70 78  1  0
 72 73  1  0
 72 71  1  0
 74 73  1  0
 74 83  1  0
 74 75  1  0
 76 71  1  0
 76 75  1  0
 78 79  1  0
 80 81  2  0
 81100  1  0
 82 85  1  0
 82 81  1  0
 83 84  1  0
 83 80  1  0
 84 82  2  0
 85 86  1  0
 86 87  2  0
 88 91  1  0
 88 87  1  0
 89 88  2  0
 90 89  1  0
 90 85  2  0
 91 92  1  0
 92 97  2  0
 92 93  1  0
 93 94  2  0
 94 95  1  0
 95 99  1  0
 96 95  2  0
 97 96  1  0
 98 97  1  0
100101  1  0
101103  1  0
101104  1  0
102100  2  0
105 80  1  0
105106  1  0
107105  1  0
M  ISO  4  14 101  15 101  70 100  78 100
M  END
>  <TORSDO>  (23) 
F 27

>  <SCORE>  (23) 
-3.802

>  <name>  (23) 
23

>  <ligand_id>  (23) 
23

>  <original_smiles>  (23) 
[H]C(C(=O)N([H])C([H])([H])C([H])([H])C([H])([H])N([H])C(=O)N1C([H])([H])C([H])([H])C([H])([H])C([H])(n2nc(-c3c([H])c([H])c(Oc4c([H])c([H])c(F)c([H])c4F)c([H])c3[H])c(C(=O)N([H])[H])c2N([H])[H])C1([H])[H])=C([H])C([H])(C([H])(C(=O)N([H])C1([H])C(=O)N(C([H])([H])C([H])([H])Oc2c([H])c([H])c3c(c2[H])C([H])([H])N(C(=O)C([H])(N([H])C(=O)C([H])(N([H])C([H])([H])[H])C([H])([H])[H])C(C([H])([H])[H])(C([H])([H])[H])C([H])([H])[H])C([H])(C(=O)N([H])C2([H])c4c([H])c([H])c([H])c([H])c4C([H])([H])C([H])([H])C2([H])[H])C3([H])[H])C([H])([H])C1([H])[H])C([H])([H])[H])[N+]([H])([H])[H]

>  <smiles>  (23) 
[H]C(C(=O)N([H])C([H])([H])C([H])([H])C([H])([H])N([H])C(=O)N1C([H])([H])C([H])([H])C([H])([H])C([H])(n2nc(-c3c([H])c([H])c(Oc4c([H])c([H])c(F)c([H])c4F)c([H])c3[H])c(C(=O)N([H])[H])c2N([H])[H])C1([H])[H])=C([H])C([H])(C([H])(C(=O)N([H])C1([H])C(=O)N(C([H])([H])C([H])([H])Oc2c([H])c([H])c3c(c2[H])C([H])([H])N(C(=O)C([H])(N([H])C(=O)C([H])(N([H])C([H])([H])[H])C([H])([H])[H])C(C([H])([H])[H])(C([H])([H])[H])C([H])([H])[H])C([H])(C(=O)N([H])C2([H])c4c([H])c([H])c([H])c([H])c4C([H])([H])C([H])([H])C2([H])[H])C3([H])[H])C([H])([H])C1([H])[H])C([H])([H])[H])[N+]([H])([H])[H]

$$$$
24:0:0
     RDKit          3D

 97104  0  0  1  0  0  0  0  0999 V2000
  -24.7580  -23.1070   20.2710 N   0  0  0  0  0  4  0  0  0  0  0  0
  -24.4530  -23.9320   19.7780 H   0  0  0  0  0  0  0  0  0  0  0  0
  -25.7670  -23.0940   20.2510 H   0  0  0  0  0  0  0  0  0  0  0  0
  -24.3940  -23.2170   21.7000 C   0  0  0  0  0  2  0  0  0  0  0  0
  -25.2660  -24.2640   22.3990 C   0  0  0  0  0  2  0  0  0  0  0  0
  -26.6030  -24.0560   21.9530 O   0  0  0  0  0  0  0  0  0  0  0  0
  -27.5520  -24.8370   22.6610 C   0  0  0  0  0  2  0  0  0  0  0  0
  -28.9010  -24.7750   21.9310 C   0  0  0  0  0  2  0  0  0  0  0  0
  -28.8780  -25.3700   20.5140 C   0  0  0  0  0  2  0  0  0  0  0  0
  -28.7860  -26.7960   20.5710 O   0  0  0  0  0  0  0  0  0  0  0  0
  -24.7130  -31.9240   23.3200 C   0  0  0  0  0  0  0  0  0  0  0  0
  -27.5570  -27.4200   20.5230 C   0  0  0  0  0  0  0  0  0  0  0  0
  -23.5910  -30.4210   21.7070 C   0  0  0  0  0  3  0  0  0  0  0  0
  -25.1210  -28.8510   20.4080 C   0  0  0  0  0  0  0  0  0  0  0  0
  -26.1120  -30.8300   21.5730 C   0  0  0  0  0  2  0  0  0  0  0  0
  -26.2460  -29.4340   21.0030 C   0  0  0  0  0  0  0  0  0  0  0  0
  -27.4630  -28.7250   21.0570 C   0  0  0  0  0  3  0  0  0  0  0  0
  -26.4100  -26.8460   19.9230 C   0  0  0  0  0  3  0  0  0  0  0  0
  -25.1980  -27.5560   19.8690 C   0  0  0  0  0  3  0  0  0  0  0  0
  -23.8590  -29.6800   20.3690 C   0  0  0  0  0  2  0  0  0  0  0  0
  -24.8210  -31.0760   22.2590 N   0  0  0  0  0  0  0  0  0  0  0  0
  -23.6100  -32.1960   23.8120 O   0  0  0  0  0  0  0  0  0  0  0  0
  -22.9330  -29.4280   22.6910 C   0  0  0  0  0  0  0  0  0  0  0  0
  -21.6140  -29.2260   22.5420 N   0  0  0  0  0  0  0  0  0  0  0  0
  -23.6070  -28.8400   23.5420 O   0  0  0  0  0  0  0  0  0  0  0  0
  -21.1320  -29.7530   21.8260 H   0  0  0  0  0  0  0  0  0  0  0  0
  -18.2380  -28.0410   23.0310 C   0  0  0  0  0  0  0  0  0  0  0  0
  -20.7910  -28.3100   23.3290 C   0  0  0  0  0  3  0  0  0  0  0  0
  -20.9040  -26.8620   22.7940 C   0  0  0  0  0  2  0  0  0  0  0  0
  -19.8140  -26.5090   21.7760 C   0  0  0  0  0  2  0  0  0  0  0  0
  -18.4240  -26.6720   22.3970 C   0  0  0  0  0  2  0  0  0  0  0  0
  -19.3500  -28.8170   23.4530 C   0  0  0  0  0  0  0  0  0  0  0  0
  -19.1240  -30.0980   24.0020 C   0  0  0  0  0  3  0  0  0  0  0  0
  -17.8170  -30.6030   24.1360 C   0  0  0  0  0  3  0  0  0  0  0  0
  -16.7180  -29.8250   23.7310 C   0  0  0  0  0  3  0  0  0  0  0  0
  -16.9300  -28.5470   23.1840 C   0  0  0  0  0  3  0  0  0  0  0  0
  -25.9660  -32.6100   23.9490 C   0  0  0  0  0  3  0  0  0  0  0  0
  -25.6360  -34.0250   24.1610 N   0  0  0  0  0  0  0  0  0  0  0  0
  -25.9880  -35.0200   23.3350 C   0  0  0  0  0  0  0  0  0  0  0  0
  -26.6950  -34.8450   22.3390 O   0  0  0  0  0  0  0  0  0  0  0  0
  -25.0130  -34.2360   24.9270 H   0  0  0  0  0  0  0  0  0  0  0  0
  -24.2490  -36.7520   22.7900 C   0  0  0  0  0  1  0  0  0  0  0  0
  -25.4710  -36.4330   23.6660 C   0  0  0  0  0  3  0  0  0  0  0  0
  -27.5690  -37.4110   24.4830 C   0  0  0  0  0  1  0  0  0  0  0  0
  -26.4940  -37.4870   23.4970 N   0  0  0  0  0  0  0  0  0  0  0  0
  -26.0730  -38.4100   23.5590 H   0  0  0  0  0  0  0  0  0  0  0  0
  -26.4310  -31.9370   25.2970 C   0  0  1  0  0  0  0  0  0  0  0  0
  -25.2920  -31.7520   26.3260 C   0  0  0  0  0  1  0  0  0  0  0  0
  -27.0550  -30.5480   25.0260 C   0  0  0  0  0  1  0  0  0  0  0  0
  -27.5360  -32.7960   25.9590 C   0  0  0  0  0  1  0  0  0  0  0  0
  -24.2320  -21.8990   19.6010 C   0  0  0  0  0  2  0  0  0  0  0  0
  -24.7500  -21.7360   18.1590 C   0  0  0  0  0  2  0  0  0  0  0  0
  -26.2320  -21.3440   18.0510 C   0  0  0  0  0  2  0  0  0  0  0  0
  -26.4980  -20.2300   18.8900 O   0  0  0  0  0  0  0  0  0  0  0  0
  -27.8030  -19.7030   18.7050 C   0  0  0  0  0  2  0  0  0  0  0  0
  -28.2100  -18.9250   19.9610 C   0  0  0  0  0  2  0  0  0  0  0  0
  -29.4200  -18.2280   19.7030 O   0  0  0  0  0  0  0  0  0  0  0  0
  -30.1710  -17.9900   20.8830 C   0  0  0  0  0  2  0  0  0  0  0  0
  -31.2980  -17.0050   20.5530 C   0  0  0  0  0  2  0  0  0  0  0  0
  -31.2670  -14.6470   19.7330 C   0  0  0  0  0  0  0  0  0  0  0  0
  -30.9130  -12.3280   18.9670 C   0  0  0  0  0  2  0  0  0  0  0  0
  -29.9400  -12.2860   17.7730 C   0  0  0  0  0  2  0  0  0  0  0  0
  -28.4790  -12.2370   18.2580 C   0  0  0  0  0  2  0  0  0  0  0  0
  -28.1680  -13.3230   19.3210 C   0  0  0  0  0  3  0  0  0  0  0  0
  -29.2410  -13.3160   20.4330 C   0  0  0  0  0  2  0  0  0  0  0  0
  -30.5640  -13.4870   19.8020 N   0  0  0  0  0  0  0  0  0  0  0  0
  -32.2920  -14.7870   19.0610 O   0  0  0  0  0  0  0  0  0  0  0  0
  -30.7640  -15.6490   20.4580 N   0  0  0  0  0  0  0  0  0  0  0  0
  -29.9090  -15.4600   20.9600 H   0  0  0  0  0  0  0  0  0  0  0  0
  -25.8750  -14.1270   20.1760 C   0  0  0  0  0  0  0  0  0  0  0  0
  -24.7650  -13.4440   20.5940 C   0  0  0  0  0  0  0  0  0  0  0  0
  -25.1010  -12.0570   20.5130 C   0  0  0  0  0  0  0  0  0  0  0  0
  -26.8240  -13.1620   19.8710 N   0  0  0  0  0  0  0  0  0  0  0  0
  -26.3620  -11.9110   20.1260 N   0  0  0  0  0  0  0  0  0  0  0  0
  -24.2780  -10.8600   20.7240 C   0  0  0  0  0  0  0  0  0  0  0  0
  -24.6240   -9.8840   21.6850 C   0  0  0  0  0  3  0  0  0  0  0  0
  -23.8070   -8.7510   21.8820 C   0  0  0  0  0  3  0  0  0  0  0  0
  -22.6260   -8.5850   21.1180 C   0  0  0  0  0  0  0  0  0  0  0  0
  -22.2990   -9.5480   20.1470 C   0  0  0  0  0  3  0  0  0  0  0  0
  -23.1170  -10.6720   19.9490 C   0  0  0  0  0  3  0  0  0  0  0  0
  -21.7870   -7.5020   21.2210 O   0  0  0  0  0  0  0  0  0  0  0  0
  -21.6070   -6.8400   22.4100 C   0  0  0  0  0  0  0  0  0  0  0  0
  -21.1390   -7.5000   23.5670 C   0  0  0  0  0  3  0  0  0  0  0  0
  -20.9060   -6.7670   24.7480 C   0  0  0  0  0  3  0  0  0  0  0  0
  -21.1280   -5.3780   24.7720 C   0  0  0  0  0  0  0  0  0  0  0  0
  -21.5880   -4.7190   23.6180 C   0  0  0  0  0  3  0  0  0  0  0  0
  -21.8250   -5.4480   22.4410 C   0  0  0  0  0  0  0  0  0  0  0  0
  -22.2470   -4.8040   21.3260 F   0  0  0  0  0  0  0  0  0  0  0  0
  -20.8960   -4.6720   25.9030 F   0  0  0  0  0  0  0  0  0  0  0  0
  -23.4350  -14.0350   20.9610 C   0  0  0  0  0  0  0  0  0  0  0  0
  -22.7090  -13.3960   21.8720 N   0  0  0  0  0  0  0  0  0  0  0  0
  -23.0540  -15.0990   20.4730 O   0  0  0  0  0  0  0  0  0  0  0  0
  -23.0330  -12.5370   22.2900 H   0  0  0  0  0  0  0  0  0  0  0  0
  -21.8140  -13.7720   22.1540 H   0  0  0  0  0  0  0  0  0  0  0  0
  -26.1560  -15.4800   20.0140 N   0  0  0  0  0  0  0  0  0  0  0  0
  -25.4660  -16.2050   20.1820 H   0  0  0  0  0  0  0  0  0  0  0  0
  -27.0370  -15.8410   19.6740 H   0  0  0  0  0  0  0  0  0  0  0  0
  1  4  1  0
  2  1  1  0
  3  1  1  0
  4  5  1  0
  6  5  1  0
  6  7  1  0
  8  7  1  0
  9 10  1  0
  9  8  1  0
 11 22  2  0
 12 10  1  0
 12 17  1  0
 13 21  1  0
 13 23  1  0
 14 16  1  0
 15 21  1  0
 16 17  2  0
 16 15  1  0
 18 12  2  0
 19 18  1  0
 19 14  2  0
 20 14  1  0
 20 13  1  0
 21 11  1  0
 23 25  2  0
 24 23  1  0
 26 24  1  0
 27 36  2  0
 27 32  1  0
 28 24  1  0
 28 32  1  0
 29 28  1  0
 30 31  1  0
 30 29  1  0
 31 27  1  0
 32 33  2  0
 33 34  1  0
 35 34  2  0
 36 35  1  0
 37 11  1  0
 37 38  1  0
 37 47  1  0
 38 41  1  0
 39 43  1  0
 39 38  1  0
 40 39  2  0
 43 42  1  0
 45 46  1  0
 45 43  1  0
 45 44  1  0
 47 50  1  1
 47 48  1  0
 49 47  1  0
 51  1  1  0
 52 51  1  0
 53 52  1  0
 53 54  1  0
 55 54  1  0
 55 56  1  0
 57 56  1  0
 57 58  1  0
 59 58  1  0
 60 66  1  0
 60 68  1  0
 61 66  1  0
 62 63  1  0
 62 61  1  0
 64 63  1  0
 64 73  1  0
 64 65  1  0
 66 65  1  0
 67 60  2  0
 68 59  1  0
 68 69  1  0
 70 71  2  0
 71 90  1  0
 72 71  1  0
 72 75  1  0
 73 74  1  0
 73 70  1  0
 74 72  2  0
 75 76  1  0
 76 77  2  0
 78 81  1  0
 78 77  1  0
 79 78  2  0
 80 79  1  0
 80 75  2  0
 81 82  1  0
 82 87  2  0
 82 83  1  0
 83 84  2  0
 84 85  1  0
 85 89  1  0
 86 85  2  0
 87 86  1  0
 88 87  1  0
 90 91  1  0
 91 94  1  0
 91 93  1  0
 92 90  2  0
 95 70  1  0
 95 96  1  0
 97 95  1  0
M  ISO  4   9 101  10 101  60 100  68 100
M  END
>  <TORSDO>  (24) 
F 31

>  <SCORE>  (24) 
-9.190

>  <name>  (24) 
24

>  <ligand_id>  (24) 
24

>  <original_smiles>  (24) 
[H]c1c([H])c([H])c2c(c1[H])C([H])([H])C([H])([H])C([H])([H])C2([H])N([H])C(=O)C1([H])N(C(=O)C([H])(N([H])C(=O)C([H])(N([H])C([H])([H])[H])C([H])([H])[H])C(C([H])([H])[H])(C([H])([H])[H])C([H])([H])[H])C([H])([H])c2c([H])c(OC([H])([H])C([H])([H])C([H])([H])OC([H])([H])C([H])([H])[N+]([H])([H])C([H])([H])C([H])([H])C([H])([H])OC([H])([H])C([H])([H])OC([H])([H])C([H])([H])N([H])C(=O)N3C([H])([H])C([H])([H])C([H])([H])C([H])(n4nc(-c5c([H])c([H])c(Oc6c([H])c([H])c(F)c([H])c6F)c([H])c5[H])c(C(=O)N([H])[H])c4N([H])[H])C3([H])[H])c([H])c([H])c2C1([H])[H]

>  <smiles>  (24) 
[H]c1c([H])c([H])c2c(c1[H])C([H])([H])C([H])([H])C([H])([H])C2([H])N([H])C(=O)C1([H])N(C(=O)C([H])(N([H])C(=O)C([H])(N([H])C([H])([H])[H])C([H])([H])[H])C(C([H])([H])[H])(C([H])([H])[H])C([H])([H])[H])C([H])([H])c2c([H])c(OC([H])([H])C([H])([H])C([H])([H])OC([H])([H])C([H])([H])[N+]([H])([H])C([H])([H])C([H])([H])C([H])([H])OC([H])([H])C([H])([H])OC([H])([H])C([H])([H])N([H])C(=O)N3C([H])([H])C([H])([H])C([H])([H])C([H])(n4nc(-c5c([H])c([H])c(Oc6c([H])c([H])c(F)c([H])c6F)c([H])c5[H])c(C(=O)N([H])[H])c4N([H])[H])C3([H])[H])c([H])c([H])c2C1([H])[H]

$$$$
25:0:0
     RDKit          3D

100108  0  0  1  0  0  0  0  0999 V2000
  -26.5950  -13.1850   22.5380 C   0  0  0  0  0  2  0  0  0  0  0  0
  -24.2460  -12.6240   21.1280 C   0  0  0  0  0  2  0  0  0  0  0  0
  -25.1880  -13.6090   21.9030 C   0  0  0  0  0  3  0  0  0  0  0  0
  -27.5050  -12.2270   21.9250 C   0  0  0  0  0  2  0  0  0  0  0  0
  -25.9210  -10.7180   19.4800 C   0  0  0  0  0  3  0  0  0  0  0  0
  -24.5450  -11.3650   19.8200 N   0  0  0  0  0  0  0  0  0  0  0  0
  -26.2990  -10.3130   18.3470 O   0  0  0  0  0  0  0  0  0  0  0  0
  -30.4870  -12.1530   22.6280 C   0  0  0  0  0  0  0  0  0  0  0  0
  -31.5790   -9.8350   22.9540 C   0  0  0  0  0  2  0  0  0  0  0  0
  -31.4440   -8.9720   21.6270 C   0  0  0  0  0  2  0  0  0  0  0  0
  -30.0150   -8.7980   21.0170 C   0  0  0  0  0  2  0  0  0  0  0  0
  -29.3950  -10.1160   21.2250 C   0  0  0  0  0  3  0  0  0  0  0  0
  -29.3520  -10.2310   22.8150 C   0  0  0  0  0  2  0  0  0  0  0  0
  -30.5360  -10.8810   23.0530 N   0  0  0  0  0  0  0  0  0  0  0  0
  -31.6690  -12.6350   22.5870 O   0  0  0  0  0  0  0  0  0  0  0  0
  -29.0870  -12.6670   22.2480 N   0  0  0  0  0  0  0  0  0  0  0  0
  -29.1950  -13.6600   22.1080 H   0  0  0  0  0  0  0  0  0  0  0  0
  -27.8900  -11.9310   19.8620 C   0  0  0  0  0  0  0  0  0  0  0  0
  -26.4640  -12.5270   20.2070 C   0  0  0  0  0  2  0  0  0  0  0  0
  -25.7540  -10.5960   21.7520 C   0  0  0  0  0  2  0  0  0  0  0  0
  -28.1730  -10.4280   20.6430 N   0  0  0  0  0  0  0  0  0  0  0  0
  -27.0520   -9.7260   21.6040 N   0  0  0  0  0  2  0  0  0  0  0  0
  -24.4420   -9.3760   21.6610 C   0  0  0  0  0  3  0  0  0  0  0  0
  -24.3480   -8.7150   23.0740 C   0  0  0  0  0  3  0  0  0  0  0  0
  -23.3620   -7.5530   23.2970 C   0  0  0  0  0  3  0  0  0  0  0  0
  -22.4230   -6.9130   22.2570 C   0  0  0  0  0  0  0  0  0  0  0  0
  -22.2200   -7.1820   20.8620 C   0  0  0  0  0  3  0  0  0  0  0  0
  -22.9690   -8.2390   20.3490 C   0  0  0  0  0  3  0  0  0  0  0  0
  -21.5240   -5.9720   22.3950 O   0  0  0  0  0  0  0  0  0  0  0  0
  -20.6180   -6.1000   23.3490 C   0  0  0  0  0  0  0  0  0  0  0  0
  -19.9680   -7.2820   23.7630 C   0  0  0  0  0  3  0  0  0  0  0  0
  -19.1200   -7.2010   24.8750 C   0  0  0  0  0  3  0  0  0  0  0  0
  -18.9370   -5.9580   25.5070 C   0  0  0  0  0  0  0  0  0  0  0  0
  -19.5630   -4.7910   25.0390 C   0  0  0  0  0  3  0  0  0  0  0  0
  -20.4080   -4.8710   23.9370 C   0  0  0  0  0  0  0  0  0  0  0  0
  -21.0470   -3.7840   23.4310 F   0  0  0  0  0  0  0  0  0  0  0  0
  -18.1450   -5.8730   26.5940 F   0  0  0  0  0  0  0  0  0  0  0  0
  -25.6060  -13.1970   18.9220 C   0  0  0  0  0  0  0  0  0  0  0  0
  -24.2930  -13.5320   18.9360 N   0  0  0  0  0  0  0  0  0  0  0  0
  -25.7780  -12.8090   17.7930 O   0  0  0  0  0  0  0  0  0  0  0  0
  -23.8080  -13.6550   19.8090 H   0  0  0  0  0  0  0  0  0  0  0  0
  -23.8200  -13.7120   18.0660 H   0  0  0  0  0  0  0  0  0  0  0  0
  -28.7790  -12.6320   19.1560 N   0  0  0  0  0  4  0  0  0  0  0  0
  -28.6030  -13.5010   18.6670 H   0  0  0  0  0  0  0  0  0  0  0  0
  -29.6020  -12.1720   18.7780 H   0  0  0  0  0  0  0  0  0  0  0  0
  -24.2310   -7.6710   21.5770 C   0  0  2  0  0  0  0  0  0  0  0  0
  -21.9630  -10.1130   21.9560 C   0  0  0  0  0  1  0  0  0  0  0  0
  -24.8580   -8.4080   19.8940 C   0  0  0  0  0  1  0  0  0  0  0  0
  -22.3340  -10.9850   20.3280 C   0  0  0  0  0  2  0  0  0  0  0  0
  -23.8780  -10.3020   19.3680 C   0  0  0  0  0  2  0  0  0  0  0  0
  -25.5220  -15.1620   21.4230 C   0  0  0  0  0  0  0  0  0  0  0  0
  -26.7420  -15.6120   20.6780 N   0  0  0  0  0  0  0  0  0  0  0  0
  -24.7190  -16.0450   21.7120 O   0  0  0  0  0  0  0  0  0  0  0  0
  -27.2570  -14.7740   20.4460 H   0  0  0  0  0  0  0  0  0  0  0  0
  -27.7240  -16.9480   20.3260 C   0  0  0  0  0  3  0  0  0  0  0  0
  -28.4490  -17.7530   18.8620 C   0  0  0  0  0  3  0  0  0  0  0  0
  -29.6960  -18.8140   18.5600 O   0  0  0  0  0  0  0  0  0  0  0  0
  -30.0900  -20.4290   18.6510 C   0  0  0  0  0  3  0  0  0  0  0  0
  -30.4040  -21.8240   17.5240 C   0  0  0  0  0  3  0  0  0  0  0  0
  -31.0720  -23.3540   17.5740 O   0  0  0  0  0  0  0  0  0  0  0  0
  -26.8930  -27.5680   21.7650 C   0  0  0  0  0  0  0  0  0  0  0  0
  -30.2730  -24.5800   17.6210 C   0  0  0  0  0  0  0  0  0  0  0  0
  -26.1410  -26.9180   19.5180 C   0  0  0  0  0  3  0  0  0  0  0  0
  -27.9650  -26.3100   17.8130 C   0  0  0  0  0  0  0  0  0  0  0  0
  -28.6280  -27.4090   19.9310 C   0  0  0  0  0  2  0  0  0  0  0  0
  -28.9650  -26.4330   18.7830 C   0  0  0  0  0  0  0  0  0  0  0  0
  -30.1380  -25.5840   18.6830 C   0  0  0  0  0  3  0  0  0  0  0  0
  -29.3530  -24.7310   16.5740 C   0  0  0  0  0  3  0  0  0  0  0  0
  -28.2060  -25.5340   16.6740 C   0  0  0  0  0  3  0  0  0  0  0  0
  -26.6230  -26.9880   18.0430 C   0  0  0  0  0  2  0  0  0  0  0  0
  -27.2320  -27.3040   20.4670 N   0  0  0  0  0  0  0  0  0  0  0  0
  -25.7210  -27.4850   22.1620 O   0  0  0  0  0  0  0  0  0  0  0  0
  -25.5510  -25.5180   19.8260 C   0  0  0  0  0  0  0  0  0  0  0  0
  -24.5220  -25.1020   19.0670 N   0  0  0  0  0  0  0  0  0  0  0  0
  -26.0260  -24.8220   20.7280 O   0  0  0  0  0  0  0  0  0  0  0  0
  -24.1710  -25.7260   18.3530 H   0  0  0  0  0  0  0  0  0  0  0  0
  -22.0940  -22.9200   17.4990 C   0  0  0  0  0  0  0  0  0  0  0  0
  -23.8470  -23.8050   19.1810 C   0  0  0  0  0  3  0  0  0  0  0  0
  -24.7550  -22.6590   18.6740 C   0  0  0  0  0  2  0  0  0  0  0  0
  -24.5330  -22.3250   17.1950 C   0  0  0  0  0  2  0  0  0  0  0  0
  -23.0810  -21.9050   16.9520 C   0  0  0  0  0  2  0  0  0  0  0  0
  -22.4570  -23.8230   18.5340 C   0  0  0  0  0  0  0  0  0  0  0  0
  -21.5090  -24.7690   18.9800 C   0  0  0  0  0  3  0  0  0  0  0  0
  -20.2220  -24.8210   18.4110 C   0  0  0  0  0  3  0  0  0  0  0  0
  -19.8660  -23.9190   17.3950 C   0  0  0  0  0  3  0  0  0  0  0  0
  -20.7990  -22.9680   16.9450 C   0  0  0  0  0  3  0  0  0  0  0  0
  -27.9620  -28.0090   22.8090 C   0  0  0  0  0  3  0  0  0  0  0  0
  -27.4150  -29.1590   23.5500 N   0  0  0  0  0  0  0  0  0  0  0  0
  -27.6000  -30.4440   23.2220 C   0  0  0  0  0  0  0  0  0  0  0  0
  -28.3160  -30.7950   22.2800 O   0  0  0  0  0  0  0  0  0  0  0  0
  -26.7710  -28.9470   24.3000 H   0  0  0  0  0  0  0  0  0  0  0  0
  -25.5600  -31.9110   23.3900 C   0  0  0  0  0  1  0  0  0  0  0  0
  -26.8780  -31.5090   24.0730 C   0  0  0  0  0  3  0  0  0  0  0  0
  -28.7950  -32.4870   25.2560 C   0  0  0  0  0  1  0  0  0  0  0  0
  -27.6940  -32.7170   24.3240 N   0  0  0  0  0  0  0  0  0  0  0  0
  -27.1200  -33.4700   24.6940 H   0  0  0  0  0  0  0  0  0  0  0  0
  -28.3640  -26.8570   23.8110 C   0  0  1  0  0  0  0  0  0  0  0  0
  -27.1550  -26.1640   24.4830 C   0  0  0  0  0  1  0  0  0  0  0  0
  -29.1850  -25.7630   23.0920 C   0  0  0  0  0  1  0  0  0  0  0  0
  -29.2690  -27.4270   24.9290 C   0  0  0  0  0  1  0  0  0  0  0  0
  3  2  1  0
  3  1  1  0
  4 16  1  0
  4  1  1  0
  5  6  1  0
  6  2  1  0
  7  5  2  0
  8 14  1  0
  9 14  1  0
 10  9  1  0
 11 12  1  0
 11 10  1  0
 12 21  1  0
 12 13  1  0
 13 14  1  0
 15  8  2  0
 16  8  1  0
 17 16  1  0
 18 19  1  0
 18 21  1  0
 21 22  1  0
 22 20  1  0
 23 20  1  0
 23 24  1  0
 24 25  1  0
 26 29  1  0
 26 25  1  0
 27 26  2  0
 28 27  1  0
 46 28  1  6
 29 30  1  0
 30 31  2  0
 30 35  1  0
 31 32  1  0
 32 33  2  0
 33 37  1  0
 34 33  1  0
 35 34  2  0
 36 35  1  0
 38 39  1  0
 38 19  1  0
 39 41  1  0
 40 38  2  0
 42 39  1  0
 43 18  2  0
 44 43  1  0
 45 43  1  0
 46 23  1  0
 46 24  1  0
 46 25  1  0
 48 28  1  0
 49 47  1  0
 50  6  1  0
 50 49  1  0
 51 53  2  0
 51  3  1  0
 52 51  1  0
 54 52  1  0
 55 52  1  0
 56 55  2  0
 57 58  1  0
 57 56  1  0
 59 60  1  0
 59 58  2  0
 60 62  1  0
 61 72  2  0
 61 87  1  0
 62 67  1  0
 63 73  1  0
 63 71  1  0
 64 70  1  0
 64 66  1  0
 65 71  1  0
 66 65  1  0
 67 66  2  0
 68 69  1  0
 68 62  2  0
 69 64  2  0
 70 63  1  0
 71 61  1  0
 73 75  2  0
 74 78  1  0
 74 73  1  0
 76 74  1  0
 77 82  1  0
 79 78  1  0
 80 79  1  0
 81 80  1  0
 81 77  1  0
 82 83  2  0
 82 78  1  0
 84 83  1  0
 85 84  2  0
 86 85  1  0
 86 77  2  0
 87 88  1  0
 87 97  1  0
 88 91  1  0
 89 88  1  0
 89 93  1  0
 90 89  2  0
 92 93  1  0
 93 95  1  0
 95 96  1  0
 95 94  1  0
 97 98  1  1
 97100  1  0
 99 97  1  0
M  ISO  4   8 100  16 100  59 101  60 101
M  END
>  <TORSDO>  (25) 
F 23

>  <SCORE>  (25) 
9.965

>  <name>  (25) 
25

>  <ligand_id>  (25) 
25

>  <original_smiles>  (25) 
[H]c1c([H])c([H])c2c(c1[H])C([H])([H])C([H])([H])C([H])([H])C2([H])N([H])C(=O)C1([H])N(C(=O)C([H])(N([H])C(=O)C([H])(N([H])C([H])([H])[H])C([H])([H])[H])C(C([H])([H])[H])(C([H])([H])[H])C([H])([H])[H])C([H])([H])c2c([H])c(OC([H])([H])C([H])([H])OC([H])([H])C([H])([H])N([H])C(=O)c3c([H])c(N([H])C(=O)N4C([H])([H])C([H])([H])C([H])([H])C([H])(n5nc(-c6c([H])c([H])c(Oc7c([H])c([H])c(F)c([H])c7F)c([H])c6[H])c(C(=O)N([H])[H])c5N([H])[H])C4([H])[H])c(=O)n(C4([H])C([H])([H])C([H])([H])C([H])([H])C4([H])[H])c3[H])c([H])c([H])c2C1([H])[H]

>  <smiles>  (25) 
[H]c1c([H])c([H])c2c(c1[H])C([H])([H])C([H])([H])C([H])([H])C2([H])N([H])C(=O)C1([H])N(C(=O)C([H])(N([H])C(=O)C([H])(N([H])C([H])([H])[H])C([H])([H])[H])C(C([H])([H])[H])(C([H])([H])[H])C([H])([H])[H])C([H])([H])c2c([H])c(OC([H])([H])C([H])([H])OC([H])([H])C([H])([H])N([H])C(=O)c3c([H])c(N([H])C(=O)N4C([H])([H])C([H])([H])C([H])([H])C([H])(n5nc(-c6c([H])c([H])c(Oc7c([H])c([H])c(F)c([H])c7F)c([H])c6[H])c(C(=O)N([H])[H])c5N([H])[H])C4([H])[H])c(=O)n(C4([H])C([H])([H])C([H])([H])C([H])([H])C4([H])[H])c3[H])c([H])c([H])c2C1([H])[H]

$$$$
26:0:0
     RDKit          3D

112120  0  0  1  0  0  0  0  0999 V2000
  -25.1480  -19.2070   24.2010 C   0  0  0  0  0  0  0  0  0  0  0  0
  -23.3670  -20.1590   25.5310 C   0  0  0  0  0  2  0  0  0  0  0  0
  -24.8310  -21.5700   24.8730 C   0  0  0  0  0  3  0  0  0  0  0  0
  -23.7980  -21.5490   26.0190 C   0  0  0  0  0  3  0  0  0  0  0  0
  -24.2890  -20.2900   24.4090 N   0  0  0  0  0  0  0  0  0  0  0  0
  -26.3020  -19.1930   24.6390 O   0  0  0  0  0  0  0  0  0  0  0  0
  -24.7100  -22.7020   23.8350 C   0  0  0  0  0  0  0  0  0  0  0  0
  -25.1540  -22.4440   22.5970 N   0  0  0  0  0  0  0  0  0  0  0  0
  -24.2830  -23.8090   24.1650 O   0  0  0  0  0  0  0  0  0  0  0  0
  -25.3910  -21.4810   22.3900 H   0  0  0  0  0  0  0  0  0  0  0  0
  -25.3780  -23.4130   21.5280 C   0  0  0  0  0  2  0  0  0  0  0  0
  -26.6070  -24.3210   21.7840 C   0  0  0  0  0  2  0  0  0  0  0  0
  -27.3740  -24.5760   20.6050 O   0  0  0  0  0  0  0  0  0  0  0  0
  -26.7590  -25.4710   19.6870 C   0  0  0  0  0  2  0  0  0  0  0  0
  -27.7680  -26.0590   18.6710 C   0  0  0  0  0  2  0  0  0  0  0  0
  -27.1430  -26.9520   17.7370 O   0  0  0  0  0  0  0  0  0  0  0  0
  -25.5710  -30.4240   23.7030 C   0  0  0  0  0  0  0  0  0  0  0  0
  -26.2930  -27.8320   18.3510 C   0  0  0  0  0  0  0  0  0  0  0  0
  -23.7520  -30.2620   22.0330 C   0  0  0  0  0  3  0  0  0  0  0  0
  -24.4470  -29.4580   19.7120 C   0  0  0  0  0  0  0  0  0  0  0  0
  -26.2010  -30.2750   21.3000 C   0  0  0  0  0  2  0  0  0  0  0  0
  -25.7860  -29.4230   20.1220 C   0  0  0  0  0  0  0  0  0  0  0  0
  -26.7140  -28.6060   19.4520 C   0  0  0  0  0  3  0  0  0  0  0  0
  -24.9530  -27.8940   17.9200 C   0  0  0  0  0  3  0  0  0  0  0  0
  -24.0210  -28.6920   18.6120 C   0  0  0  0  0  3  0  0  0  0  0  0
  -23.5150  -30.3490   20.5010 C   0  0  0  0  0  2  0  0  0  0  0  0
  -25.2050  -30.3000   22.3950 N   0  0  0  0  0  0  0  0  0  0  0  0
  -24.7210  -30.5520   24.5940 O   0  0  0  0  0  0  0  0  0  0  0  0
  -23.0180  -29.0110   22.5680 C   0  0  0  0  0  0  0  0  0  0  0  0
  -21.6790  -29.0100   22.4520 N   0  0  0  0  0  0  0  0  0  0  0  0
  -23.6460  -28.0650   23.0470 O   0  0  0  0  0  0  0  0  0  0  0  0
  -21.2380  -29.8310   22.0640 H   0  0  0  0  0  0  0  0  0  0  0  0
  -18.2640  -27.8520   22.2710 C   0  0  0  0  0  0  0  0  0  0  0  0
  -20.7800  -27.9260   22.8490 C   0  0  0  0  0  3  0  0  0  0  0  0
  -20.9300  -26.7050   21.9140 C   0  0  0  0  0  2  0  0  0  0  0  0
  -19.9370  -26.7120   20.7470 C   0  0  0  0  0  2  0  0  0  0  0  0
  -18.4950  -26.7320   21.2720 C   0  0  0  0  0  2  0  0  0  0  0  0
  -19.3400  -28.4230   22.9990 C   0  0  0  0  0  0  0  0  0  0  0  0
  -19.0780  -29.4860   23.8900 C   0  0  0  0  0  3  0  0  0  0  0  0
  -17.7700  -29.9780   24.0580 C   0  0  0  0  0  3  0  0  0  0  0  0
  -16.7030  -29.3940   23.3510 C   0  0  0  0  0  3  0  0  0  0  0  0
  -16.9500  -28.3310   22.4650 C   0  0  0  0  0  3  0  0  0  0  0  0
  -27.0690  -30.4360   24.1350 C   0  0  0  0  0  3  0  0  0  0  0  0
  -27.2400  -31.5170   25.1140 N   0  0  0  0  0  0  0  0  0  0  0  0
  -27.8670  -32.6750   24.8590 C   0  0  0  0  0  0  0  0  0  0  0  0
  -28.4290  -32.9080   23.7860 O   0  0  0  0  0  0  0  0  0  0  0  0
  -26.7560  -31.4180   25.9920 H   0  0  0  0  0  0  0  0  0  0  0  0
  -26.8780  -34.8600   25.6180 C   0  0  0  0  0  1  0  0  0  0  0  0
  -27.8700  -33.7400   25.9720 C   0  0  0  0  0  3  0  0  0  0  0  0
  -30.1420  -33.3730   26.8250 C   0  0  0  0  0  1  0  0  0  0  0  0
  -29.2060  -34.3220   26.2260 N   0  0  0  0  0  0  0  0  0  0  0  0
  -29.1360  -35.1280   26.8450 H   0  0  0  0  0  0  0  0  0  0  0  0
  -27.5520  -29.0580   24.7380 C   0  0  1  0  0  0  0  0  0  0  0  0
  -26.6500  -28.5240   25.8740 C   0  0  0  0  0  1  0  0  0  0  0  0
  -27.6180  -27.9760   23.6350 C   0  0  0  0  0  1  0  0  0  0  0  0
  -28.9880  -29.2070   25.3000 C   0  0  0  0  0  1  0  0  0  0  0  0
  -24.3080  -21.6840   27.4560 C   0  0  0  0  0  2  0  0  0  0  0  0
  -23.5400  -20.8820   28.3560 O   0  0  0  0  0  0  0  0  0  0  0  0
  -23.6280  -19.3500   30.2410 C   0  0  0  0  0  1  0  0  0  0  0  0
  -24.2400  -20.5820   29.5610 C   0  0  0  0  0  2  0  0  0  0  0  0
  -24.6360  -18.0840   23.2960 C   0  0  0  0  0  2  0  0  0  0  0  0
  -25.7410  -17.4610   22.4320 C   0  0  0  0  0  2  0  0  0  0  0  0
  -25.4070  -17.5730   21.0520 O   0  0  0  0  0  0  0  0  0  0  0  0
  -26.3580  -16.9490   20.1950 C   0  0  0  0  0  2  0  0  0  0  0  0
  -25.9590  -17.2110   18.7370 C   0  0  0  0  0  2  0  0  0  0  0  0
  -26.0130  -18.6990   18.3570 C   0  0  0  0  0  2  0  0  0  0  0  0
  -27.3540  -19.1080   18.1550 O   0  0  0  0  0  0  0  0  0  0  0  0
  -27.4790  -20.5120   17.9680 C   0  0  0  0  0  2  0  0  0  0  0  0
  -28.8980  -20.8790   17.5080 C   0  0  0  0  0  2  0  0  0  0  0  0
  -29.9860  -20.4960   18.5210 C   0  0  0  0  0  2  0  0  0  0  0  0
  -30.5300  -19.2410   18.1440 O   0  0  0  0  0  0  0  0  0  0  0  0
  -31.1590  -18.5420   19.2030 C   0  0  0  0  0  2  0  0  0  0  0  0
  -32.1160  -17.5300   18.5640 C   0  0  0  0  0  2  0  0  0  0  0  0
  -32.5910  -16.4360   19.5270 C   0  0  0  0  0  2  0  0  0  0  0  0
  -31.7820  -14.1230   19.1370 C   0  0  0  0  0  0  0  0  0  0  0  0
  -31.6600  -11.7970   19.9080 C   0  0  0  0  0  2  0  0  0  0  0  0
  -30.8380  -10.8600   19.0140 C   0  0  0  0  0  2  0  0  0  0  0  0
  -29.3550  -10.9070   19.4160 C   0  0  0  0  0  2  0  0  0  0  0  0
  -28.8100  -12.3570   19.4940 C   0  0  0  0  0  3  0  0  0  0  0  0
  -29.7420  -13.2660   20.3290 C   0  0  0  0  0  2  0  0  0  0  0  0
  -31.1180  -13.1580   19.8100 N   0  0  0  0  0  0  0  0  0  0  0  0
  -32.6690  -13.8930   18.3080 O   0  0  0  0  0  0  0  0  0  0  0  0
  -31.6260  -15.3430   19.6670 N   0  0  0  0  0  0  0  0  0  0  0  0
  -30.9290  -15.4290   20.3940 H   0  0  0  0  0  0  0  0  0  0  0  0
  -26.5870  -13.4500   20.2020 C   0  0  0  0  0  0  0  0  0  0  0  0
  -25.3970  -12.9160   20.6210 C   0  0  0  0  0  0  0  0  0  0  0  0
  -25.5860  -11.5000   20.6440 C   0  0  0  0  0  0  0  0  0  0  0  0
  -27.4380  -12.3740   20.0010 N   0  0  0  0  0  0  0  0  0  0  0  0
  -26.8380  -11.1970   20.3200 N   0  0  0  0  0  0  0  0  0  0  0  0
  -24.6330  -10.4120   20.9010 C   0  0  0  0  0  0  0  0  0  0  0  0
  -24.8870   -9.4240   21.8780 C   0  0  0  0  0  3  0  0  0  0  0  0
  -23.9480   -8.3980   22.1210 C   0  0  0  0  0  3  0  0  0  0  0  0
  -22.7380   -8.3560   21.3870 C   0  0  0  0  0  0  0  0  0  0  0  0
  -22.5000   -9.3290   20.4000 C   0  0  0  0  0  3  0  0  0  0  0  0
  -23.4390  -10.3450   20.1560 C   0  0  0  0  0  3  0  0  0  0  0  0
  -21.7790   -7.3830   21.5370 O   0  0  0  0  0  0  0  0  0  0  0  0
  -21.6520   -6.6720   22.7040 C   0  0  0  0  0  0  0  0  0  0  0  0
  -21.2790   -7.2910   23.9170 C   0  0  0  0  0  3  0  0  0  0  0  0
  -21.0910   -6.5130   25.0760 C   0  0  0  0  0  3  0  0  0  0  0  0
  -21.2650   -5.1170   25.0230 C   0  0  0  0  0  0  0  0  0  0  0  0
  -21.6300   -4.4980   23.8160 C   0  0  0  0  0  3  0  0  0  0  0  0
  -21.8190   -5.2740   22.6580 C   0  0  0  0  0  0  0  0  0  0  0  0
  -22.1510   -4.6690   21.4930 F   0  0  0  0  0  0  0  0  0  0  0  0
  -21.0750   -4.3680   26.1350 F   0  0  0  0  0  0  0  0  0  0  0  0
  -24.1250  -13.6680   20.8890 C   0  0  0  0  0  0  0  0  0  0  0  0
  -23.2990  -13.1660   21.8030 N   0  0  0  0  0  0  0  0  0  0  0  0
  -23.8790  -14.7320   20.3260 O   0  0  0  0  0  0  0  0  0  0  0  0
  -23.5080  -12.3010   22.2780 H   0  0  0  0  0  0  0  0  0  0  0  0
  -22.4450  -13.6540   22.0280 H   0  0  0  0  0  0  0  0  0  0  0  0
  -27.0100  -14.7520   19.9590 N   0  0  0  0  0  0  0  0  0  0  0  0
  -26.3800  -15.5440   20.0170 H   0  0  0  0  0  0  0  0  0  0  0  0
  -27.9140  -14.9920   19.5690 H   0  0  0  0  0  0  0  0  0  0  0  0
  1  5  1  0
  1  6  2  0
  2  4  1  0
  3  7  1  0
  3  4  1  0
  4 57  1  0
  5  3  1  0
  5  2  1  0
  7  9  2  0
  8  7  1  0
 10  8  1  0
 11 12  1  0
 11  8  1  0
 13 12  1  0
 14 13  1  0
 15 14  1  0
 16 18  1  0
 16 15  1  0
 17 28  2  0
 18 23  1  0
 19 27  1  0
 19 29  1  0
 20 22  1  0
 20 26  1  0
 21 27  1  0
 22 21  1  0
 23 22  2  0
 24 18  2  0
 24 25  1  0
 25 20  2  0
 26 19  1  0
 27 17  1  0
 29 31  2  0
 30 29  1  0
 32 30  1  0
 33 42  2  0
 33 38  1  0
 34 30  1  0
 34 38  1  0
 35 34  1  0
 36 37  1  0
 36 35  1  0
 37 33  1  0
 38 39  2  0
 39 40  1  0
 41 40  2  0
 42 41  1  0
 43 17  1  0
 43 53  1  0
 43 44  1  0
 44 47  1  0
 45 44  1  0
 45 49  1  0
 46 45  2  0
 49 48  1  0
 49 51  1  0
 51 50  1  0
 51 52  1  0
 53 56  1  1
 53 54  1  0
 55 53  1  0
 57 58  1  0
 58 60  1  0
 60 59  1  0
 61  1  1  0
 62 61  1  0
 63 62  1  0
 64 63  1  0
 65 64  1  0
 66 65  1  0
 67 66  1  0
 68 67  1  0
 69 68  1  0
 69 70  1  0
 71 70  1  0
 71 72  1  0
 73 72  1  0
 73 74  1  0
 74 83  1  0
 75 83  1  0
 75 81  1  0
 77 78  1  0
 77 76  1  0
 79 78  1  0
 79 88  1  0
 79 80  1  0
 81 76  1  0
 81 80  1  0
 82 75  2  0
 83 84  1  0
 85 86  2  0
 86 87  1  0
 86105  1  0
 87 90  1  0
 88 85  1  0
 88 89  1  0
 89 87  2  0
 90 91  1  0
 91 92  2  0
 93 96  1  0
 93 92  1  0
 94 93  2  0
 95 94  1  0
 95 90  2  0
 96 97  1  0
 97 98  1  0
 98 99  2  0
100 99  1  0
100104  1  0
101100  2  0
102 97  2  0
102101  1  0
103102  1  0
105106  1  0
106109  1  0
106108  1  0
107105  2  0
110111  1  0
110 85  1  0
112110  1  0
M  ISO  4  15 101  16 101  75 100  83 100
M  END
>  <TORSDO>  (26) 
F 39

>  <SCORE>  (26) 
47.993

>  <name>  (26) 
26

>  <ligand_id>  (26) 
26

>  <original_smiles>  (26) 
[H]c1c([H])c([H])c2c(c1[H])C([H])([H])C([H])([H])C([H])([H])C2([H])N([H])C(=O)C1([H])N(C(=O)C([H])(N([H])C(=O)C([H])(N([H])C([H])([H])[H])C([H])([H])[H])C(C([H])([H])[H])(C([H])([H])[H])C([H])([H])[H])C([H])([H])c2c([H])c(OC([H])([H])C([H])([H])OC([H])([H])C([H])([H])N([H])C(=O)C3([H])N(C(=O)C([H])([H])C([H])([H])OC([H])([H])C([H])([H])C([H])([H])OC([H])([H])C([H])([H])C([H])([H])OC([H])([H])C([H])([H])C([H])([H])N([H])C(=O)N4C([H])([H])C([H])([H])C([H])([H])C([H])(n5nc(-c6c([H])c([H])c(Oc7c([H])c([H])c(F)c([H])c7F)c([H])c6[H])c(C(=O)N([H])[H])c5N([H])[H])C4([H])[H])C([H])([H])C3([H])C([H])([H])OC([H])([H])C([H])([H])[H])c([H])c([H])c2C1([H])[H]

>  <smiles>  (26) 
[H]c1c([H])c([H])c2c(c1[H])C([H])([H])C([H])([H])C([H])([H])C2([H])N([H])C(=O)C1([H])N(C(=O)C([H])(N([H])C(=O)C([H])(N([H])C([H])([H])[H])C([H])([H])[H])C(C([H])([H])[H])(C([H])([H])[H])C([H])([H])[H])C([H])([H])c2c([H])c(OC([H])([H])C([H])([H])OC([H])([H])C([H])([H])N([H])C(=O)C3([H])N(C(=O)C([H])([H])C([H])([H])OC([H])([H])C([H])([H])C([H])([H])OC([H])([H])C([H])([H])C([H])([H])OC([H])([H])C([H])([H])C([H])([H])N([H])C(=O)N4C([H])([H])C([H])([H])C([H])([H])C([H])(n5nc(-c6c([H])c([H])c(Oc7c([H])c([H])c(F)c([H])c7F)c([H])c6[H])c(C(=O)N([H])[H])c5N([H])[H])C4([H])[H])C([H])([H])C3([H])C([H])([H])OC([H])([H])C([H])([H])[H])c([H])c([H])c2C1([H])[H]

$$$$
27:0:0
     RDKit          3D

106113  0  0  1  0  0  0  0  0999 V2000
  -28.4970  -21.1670   20.4810 C   0  0  0  0  0  3  0  0  0  0  0  0
  -29.6420  -19.6630   18.7540 C   0  0  0  0  0  0  0  0  0  0  0  0
  -29.5840  -20.3640   19.9000 N   0  0  0  0  0  0  0  0  0  0  0  0
  -28.7070  -19.5540   17.9600 O   0  0  0  0  0  0  0  0  0  0  0  0
  -30.4310  -20.3860   20.4490 H   0  0  0  0  0  0  0  0  0  0  0  0
  -30.9660  -18.9250   18.4620 C   0  0  0  0  0  3  0  0  0  0  0  0
  -33.4880  -19.1540   18.0990 C   0  0  0  0  0  1  0  0  0  0  0  0
  -32.1650  -21.2430   18.4600 C   0  0  0  0  0  1  0  0  0  0  0  0
  -32.5720  -19.6460   20.3480 C   0  0  0  0  0  1  0  0  0  0  0  0
  -32.2630  -19.7430   18.8340 C   0  0  1  0  0  0  0  0  0  0  0  0
  -30.9820  -18.5280   17.0320 N   0  0  0  0  0  4  0  0  0  0  0  0
  -30.0250  -18.5410   16.7090 H   0  0  0  0  0  0  0  0  0  0  0  0
  -31.4890  -19.2440   16.5430 H   0  0  0  0  0  0  0  0  0  0  0  0
  -31.6360  -17.2370   16.7120 C   0  0  0  0  0  2  0  0  0  0  0  0
  -30.6480  -16.0660   16.5220 C   0  0  0  0  0  2  0  0  0  0  0  0
  -31.7420  -14.2730   17.9170 C   0  0  0  0  0  0  0  0  0  0  0  0
  -32.4510  -12.5040   19.4900 C   0  0  0  0  0  2  0  0  0  0  0  0
  -31.8340  -11.1440   19.1150 C   0  0  0  0  0  2  0  0  0  0  0  0
  -30.4220  -10.9880   19.7120 C   0  0  0  0  0  2  0  0  0  0  0  0
  -29.5210  -12.2200   19.4320 C   0  0  0  0  0  3  0  0  0  0  0  0
  -30.2640  -13.5170   19.8120 C   0  0  0  0  0  2  0  0  0  0  0  0
  -31.5310  -13.5600   19.0520 N   0  0  0  0  0  0  0  0  0  0  0  0
  -32.7550  -14.1740   17.2170 O   0  0  0  0  0  0  0  0  0  0  0  0
  -30.7470  -15.1170   17.6250 N   0  0  0  0  0  0  0  0  0  0  0  0
  -29.9630  -15.0810   18.2610 H   0  0  0  0  0  0  0  0  0  0  0  0
  -27.4150  -13.1250   20.6090 C   0  0  0  0  0  0  0  0  0  0  0  0
  -26.3060  -12.4930   21.1110 C   0  0  0  0  0  0  0  0  0  0  0  0
  -26.5130  -11.0980   20.8880 C   0  0  0  0  0  0  0  0  0  0  0  0
  -28.2380  -12.1170   20.1260 N   0  0  0  0  0  0  0  0  0  0  0  0
  -27.7040  -10.8890   20.3410 N   0  0  0  0  0  0  0  0  0  0  0  0
  -25.6210   -9.9540   21.1090 C   0  0  0  0  0  0  0  0  0  0  0  0
  -25.6480   -9.2160   22.3120 C   0  0  0  0  0  3  0  0  0  0  0  0
  -24.7680   -8.1310   22.5040 C   0  0  0  0  0  3  0  0  0  0  0  0
  -23.8430   -7.7760   21.4930 C   0  0  0  0  0  0  0  0  0  0  0  0
  -23.8340   -8.5010   20.2880 C   0  0  0  0  0  3  0  0  0  0  0  0
  -24.7160   -9.5780   20.0960 C   0  0  0  0  0  3  0  0  0  0  0  0
  -22.9670   -6.7180   21.5840 O   0  0  0  0  0  0  0  0  0  0  0  0
  -22.2350   -6.4860   22.7210 C   0  0  0  0  0  0  0  0  0  0  0  0
  -21.1680   -7.3250   23.1070 C   0  0  0  0  0  3  0  0  0  0  0  0
  -20.4020   -7.0100   24.2470 C   0  0  0  0  0  3  0  0  0  0  0  0
  -20.6950   -5.8550   24.9960 C   0  0  0  0  0  0  0  0  0  0  0  0
  -21.7530   -5.0130   24.6100 C   0  0  0  0  0  3  0  0  0  0  0  0
  -22.5220   -5.3280   23.4760 C   0  0  0  0  0  0  0  0  0  0  0  0
  -23.5280   -4.5040   23.0950 F   0  0  0  0  0  0  0  0  0  0  0  0
  -19.9530   -5.5480   26.0850 F   0  0  0  0  0  0  0  0  0  0  0  0
  -25.0830  -13.1520   21.6750 C   0  0  0  0  0  0  0  0  0  0  0  0
  -24.3980  -12.4830   22.5960 N   0  0  0  0  0  0  0  0  0  0  0  0
  -24.7530  -14.2860   21.3350 O   0  0  0  0  0  0  0  0  0  0  0  0
  -24.6820  -11.5580   22.8860 H   0  0  0  0  0  0  0  0  0  0  0  0
  -23.5820  -12.8970   23.0220 H   0  0  0  0  0  0  0  0  0  0  0  0
  -27.7840  -14.4630   20.5070 N   0  0  0  0  0  0  0  0  0  0  0  0
  -27.1740  -15.2190   20.8010 H   0  0  0  0  0  0  0  0  0  0  0  0
  -28.6360  -14.7870   20.0640 H   0  0  0  0  0  0  0  0  0  0  0  0
  -27.2590  -21.3890   19.5840 C   0  0  0  0  0  0  0  0  0  0  0  0
  -27.1800  -22.5600   18.9370 N   0  0  0  0  0  0  0  0  0  0  0  0
  -26.4110  -20.5030   19.4620 O   0  0  0  0  0  0  0  0  0  0  0  0
  -27.9010  -23.2490   19.1080 H   0  0  0  0  0  0  0  0  0  0  0  0
  -26.2310  -22.8470   17.8700 C   0  0  0  0  0  2  0  0  0  0  0  0
  -26.9840  -23.0480   16.5460 C   0  0  0  0  0  2  0  0  0  0  0  0
  -26.0920  -22.9010   15.4480 O   0  0  0  0  0  0  0  0  0  0  0  0
  -25.5100  -24.1140   14.9930 C   0  0  0  0  0  2  0  0  0  0  0  0
  -24.1550  -24.4080   15.6520 C   0  0  0  0  0  2  0  0  0  0  0  0
  -24.1010  -25.8140   15.8490 O   0  0  0  0  0  0  0  0  0  0  0  0
  -22.7440  -28.4370   22.2770 C   0  0  0  0  0  0  0  0  0  0  0  0
  -23.1320  -26.2890   16.6960 C   0  0  0  0  0  0  0  0  0  0  0  0
  -20.7530  -27.8800   20.9160 C   0  0  0  0  0  3  0  0  0  0  0  0
  -21.2080  -27.3440   18.4670 C   0  0  0  0  0  0  0  0  0  0  0  0
  -22.9570  -28.5410   19.7990 C   0  0  0  0  0  2  0  0  0  0  0  0
  -22.5610  -27.6470   18.6440 C   0  0  0  0  0  0  0  0  0  0  0  0
  -23.5250  -27.1280   17.7580 C   0  0  0  0  0  3  0  0  0  0  0  0
  -21.7600  -25.9900   16.5250 C   0  0  0  0  0  3  0  0  0  0  0  0
  -20.7990  -26.5110   17.4100 C   0  0  0  0  0  3  0  0  0  0  0  0
  -20.2390  -27.9530   19.4530 C   0  0  0  0  0  2  0  0  0  0  0  0
  -22.1970  -28.2720   21.0410 N   0  0  0  0  0  0  0  0  0  0  0  0
  -22.0600  -28.3160   23.3020 O   0  0  0  0  0  0  0  0  0  0  0  0
  -20.4520  -26.4700   21.4700 C   0  0  0  0  0  0  0  0  0  0  0  0
  -19.1610  -26.1030   21.5000 N   0  0  0  0  0  0  0  0  0  0  0  0
  -21.3650  -25.7230   21.8310 O   0  0  0  0  0  0  0  0  0  0  0  0
  -18.4700  -26.7760   21.1970 H   0  0  0  0  0  0  0  0  0  0  0  0
  -16.1860  -24.0650   21.6650 C   0  0  0  0  0  0  0  0  0  0  0  0
  -18.6440  -24.8090   21.9410 C   0  0  0  0  0  3  0  0  0  0  0  0
  -18.9900  -23.6930   20.9290 C   0  0  0  0  0  2  0  0  0  0  0  0
  -17.8880  -23.4540   19.8940 C   0  0  0  0  0  2  0  0  0  0  0  0
  -16.5750  -23.0710   20.5840 C   0  0  0  0  0  2  0  0  0  0  0  0
  -17.1540  -24.8910   22.2920 C   0  0  0  0  0  0  0  0  0  0  0  0
  -16.7340  -25.8240   23.2640 C   0  0  0  0  0  3  0  0  0  0  0  0
  -15.3740  -25.9360   23.6130 C   0  0  0  0  0  3  0  0  0  0  0  0
  -14.4210  -25.1040   23.0010 C   0  0  0  0  0  3  0  0  0  0  0  0
  -14.8280  -24.1690   22.0340 C   0  0  0  0  0  3  0  0  0  0  0  0
  -24.2470  -28.8170   22.4620 C   0  0  0  0  0  3  0  0  0  0  0  0
  -24.2980  -30.0990   23.1760 N   0  0  0  0  0  0  0  0  0  0  0  0
  -24.6170  -31.2700   22.6110 C   0  0  0  0  0  0  0  0  0  0  0  0
  -24.9760  -31.3720   21.4350 O   0  0  0  0  0  0  0  0  0  0  0  0
  -23.9720  -30.0970   24.1310 H   0  0  0  0  0  0  0  0  0  0  0  0
  -23.2890  -33.3500   23.0880 C   0  0  0  0  0  1  0  0  0  0  0  0
  -24.5240  -32.5290   23.4930 C   0  0  0  0  0  3  0  0  0  0  0  0
  -26.8950  -32.7820   24.0760 C   0  0  0  0  0  1  0  0  0  0  0  0
  -25.7300  -33.3820   23.4310 N   0  0  0  0  0  0  0  0  0  0  0  0
  -25.5570  -34.2840   23.8660 H   0  0  0  0  0  0  0  0  0  0  0  0
  -25.0760  -27.7170   23.2320 C   0  0  1  0  0  0  0  0  0  0  0  0
  -24.4360  -27.2830   24.5710 C   0  0  0  0  0  1  0  0  0  0  0  0
  -25.2500  -26.4540   22.3560 C   0  0  0  0  0  1  0  0  0  0  0  0
  -26.4970  -28.2470   23.5340 C   0  0  0  0  0  1  0  0  0  0  0  0
  -27.2330  -19.4170   21.9230 C   0  0  0  0  0  1  0  0  0  0  0  0
  -29.4560  -20.3340   22.7020 C   0  0  0  0  0  1  0  0  0  0  0  0
  -28.1740  -20.6430   21.9070 C   0  0  0  0  0  3  0  0  0  0  0  0
  1 54  1  0
  1106  1  0
  2  3  1  0
  3  5  1  0
  3  1  1  0
  4  2  2  0
  6  2  1  0
  6 10  1  0
 10  7  1  6
  8 10  1  0
 10  9  1  0
 11  6  1  0
 12 11  1  0
 13 11  1  0
 14 11  1  0
 15 14  1  0
 15 24  1  0
 16 22  1  0
 18 17  1  0
 18 19  1  0
 20 19  1  0
 20 21  1  0
 20 29  1  0
 22 17  1  0
 22 21  1  0
 23 16  2  0
 24 16  1  0
 24 25  1  0
 26 27  2  0
 27 46  1  0
 28 31  1  0
 28 27  1  0
 29 30  1  0
 29 26  1  0
 30 28  2  0
 31 32  1  0
 32 33  2  0
 34 37  1  0
 34 33  1  0
 35 34  2  0
 36 35  1  0
 36 31  2  0
 37 38  1  0
 38 39  2  0
 38 43  1  0
 39 40  1  0
 40 41  2  0
 41 45  1  0
 42 41  1  0
 43 42  2  0
 44 43  1  0
 46 47  1  0
 47 49  1  0
 47 50  1  0
 48 46  2  0
 51 26  1  0
 51 52  1  0
 53 51  1  0
 55 57  1  0
 55 54  1  0
 56 54  2  0
 58 55  1  0
 59 58  1  0
 60 59  1  0
 61 60  1  0
 61 62  1  0
 62 63  1  0
 63 65  1  0
 64 75  2  0
 65 70  1  0
 66 74  1  0
 66 76  1  0
 67 69  1  0
 67 73  1  0
 68 74  1  0
 69 68  1  0
 70 69  2  0
 71 65  2  0
 71 72  1  0
 72 67  2  0
 73 66  1  0
 74 64  1  0
 76 77  1  0
 76 78  2  0
 79 77  1  0
 80 89  2  0
 80 85  1  0
 81 77  1  0
 81 85  1  0
 82 81  1  0
 83 84  1  0
 83 82  1  0
 84 80  1  0
 85 86  2  0
 86 87  1  0
 88 87  2  0
 89 88  1  0
 90 64  1  0
 90 91  1  0
 90100  1  0
 91 94  1  0
 92 91  1  0
 92 96  1  0
 93 92  2  0
 96 95  1  0
 98 96  1  0
 98 99  1  0
 98 97  1  0
100103  1  1
100101  1  0
102100  1  0
106104  1  0
106105  1  0
M  ISO  4  16 100  24 100  62 101  63 101
M  END
>  <TORSDO>  (27) 
F 29

>  <SCORE>  (27) 
7.117

>  <name>  (27) 
27

>  <ligand_id>  (27) 
27

>  <original_smiles>  (27) 
[H]c1c([H])c([H])c2c(c1[H])C([H])([H])C([H])([H])C([H])([H])C2([H])N([H])C(=O)C1([H])N(C(=O)C([H])(N([H])C(=O)C([H])(N([H])C([H])([H])[H])C([H])([H])[H])C(C([H])([H])[H])(C([H])([H])[H])C([H])([H])[H])C([H])([H])c2c([H])c(OC([H])([H])C([H])([H])OC([H])([H])C([H])([H])N([H])C(=O)C([H])(N([H])C(=O)C([H])(C(C([H])([H])[H])(C([H])([H])[H])C([H])([H])[H])[N+]([H])([H])C([H])([H])C([H])([H])N([H])C(=O)N3C([H])([H])C([H])([H])C([H])([H])C([H])(n4nc(-c5c([H])c([H])c(Oc6c([H])c([H])c(F)c([H])c6F)c([H])c5[H])c(C(=O)N([H])[H])c4N([H])[H])C3([H])[H])C([H])(C([H])([H])[H])C([H])([H])[H])c([H])c([H])c2C1([H])[H]

>  <smiles>  (27) 
[H]c1c([H])c([H])c2c(c1[H])C([H])([H])C([H])([H])C([H])([H])C2([H])N([H])C(=O)C1([H])N(C(=O)C([H])(N([H])C(=O)C([H])(N([H])C([H])([H])[H])C([H])([H])[H])C(C([H])([H])[H])(C([H])([H])[H])C([H])([H])[H])C([H])([H])c2c([H])c(OC([H])([H])C([H])([H])OC([H])([H])C([H])([H])N([H])C(=O)C([H])(N([H])C(=O)C([H])(C(C([H])([H])[H])(C([H])([H])[H])C([H])([H])[H])[N+]([H])([H])C([H])([H])C([H])([H])N([H])C(=O)N3C([H])([H])C([H])([H])C([H])([H])C([H])(n4nc(-c5c([H])c([H])c(Oc6c([H])c([H])c(F)c([H])c6F)c([H])c5[H])c(C(=O)N([H])[H])c4N([H])[H])C3([H])[H])C([H])(C([H])([H])[H])C([H])([H])[H])c([H])c([H])c2C1([H])[H]

$$$$
28:0:0
     RDKit          3D

 98105  0  0  1  0  0  0  0  0999 V2000
  -33.4100  -19.5440   18.8540 C   0  0  0  0  0  2  0  0  0  0  0  0
  -34.3970  -20.2100   21.0580 C   0  0  0  0  0  0  0  0  0  0  0  0
  -33.5290  -19.5180   20.3090 N   0  0  0  0  0  0  0  0  0  0  0  0
  -35.1760  -21.0430   20.5920 O   0  0  0  0  0  0  0  0  0  0  0  0
  -32.8650  -18.9450   20.8200 H   0  0  0  0  0  0  0  0  0  0  0  0
  -34.4240  -19.8760   22.5600 C   0  0  0  0  0  2  0  0  0  0  0  0
  -33.6770  -20.7980   23.3640 O   0  0  0  0  0  0  0  0  0  0  0  0
  -32.2810  -20.9560   23.1070 C   0  0  0  0  0  2  0  0  0  0  0  0
  -31.4400  -19.6830   23.3100 C   0  0  0  0  0  2  0  0  0  0  0  0
  -31.3780  -18.9630   22.0900 O   0  0  0  0  0  0  0  0  0  0  0  0
  -30.5380  -17.8210   22.1520 C   0  0  0  0  0  2  0  0  0  0  0  0
  -30.5320  -17.2010   20.7570 C   0  0  0  0  0  2  0  0  0  0  0  0
  -30.7050  -14.7600   20.4680 C   0  0  0  0  0  0  0  0  0  0  0  0
  -30.4160  -12.5450   19.4690 C   0  0  0  0  0  2  0  0  0  0  0  0
  -29.5060  -12.6600   18.2330 C   0  0  0  0  0  2  0  0  0  0  0  0
  -28.0320  -12.5030   18.6450 C   0  0  0  0  0  2  0  0  0  0  0  0
  -27.6390  -13.4150   19.8410 C   0  0  0  0  0  3  0  0  0  0  0  0
  -28.6810  -13.3480   20.9830 C   0  0  0  0  0  2  0  0  0  0  0  0
  -30.0140  -13.5970   20.4060 N   0  0  0  0  0  0  0  0  0  0  0  0
  -31.8610  -14.8850   20.0690 O   0  0  0  0  0  0  0  0  0  0  0  0
  -29.9970  -15.8420   20.7950 N   0  0  0  0  0  0  0  0  0  0  0  0
  -29.0190  -15.7190   21.0050 H   0  0  0  0  0  0  0  0  0  0  0  0
  -25.2310  -13.9680   20.5560 C   0  0  0  0  0  0  0  0  0  0  0  0
  -24.1770  -13.1700   20.9230 C   0  0  0  0  0  0  0  0  0  0  0  0
  -24.6650  -11.8290   20.8790 C   0  0  0  0  0  0  0  0  0  0  0  0
  -26.2920  -13.1110   20.3210 N   0  0  0  0  0  0  0  0  0  0  0  0
  -25.9580  -11.8210   20.5790 N   0  0  0  0  0  0  0  0  0  0  0  0
  -23.9620  -10.5490   21.0450 C   0  0  0  0  0  0  0  0  0  0  0  0
  -24.4000   -9.5850   21.9800 C   0  0  0  0  0  3  0  0  0  0  0  0
  -23.6980   -8.3730   22.1390 C   0  0  0  0  0  3  0  0  0  0  0  0
  -22.5420   -8.1140   21.3660 C   0  0  0  0  0  0  0  0  0  0  0  0
  -22.1250   -9.0630   20.4160 C   0  0  0  0  0  3  0  0  0  0  0  0
  -22.8300  -10.2680   20.2540 C   0  0  0  0  0  3  0  0  0  0  0  0
  -21.8110   -6.9530   21.4340 O   0  0  0  0  0  0  0  0  0  0  0  0
  -21.7310   -6.2200   22.5900 C   0  0  0  0  0  0  0  0  0  0  0  0
  -21.2570   -6.7780   23.7980 C   0  0  0  0  0  3  0  0  0  0  0  0
  -21.1280   -5.9680   24.9460 C   0  0  0  0  0  3  0  0  0  0  0  0
  -21.4630   -4.6020   24.8830 C   0  0  0  0  0  0  0  0  0  0  0  0
  -21.9300   -4.0430   23.6800 C   0  0  0  0  0  3  0  0  0  0  0  0
  -22.0610   -4.8510   22.5350 C   0  0  0  0  0  0  0  0  0  0  0  0
  -22.4890   -4.3040   21.3720 F   0  0  0  0  0  0  0  0  0  0  0  0
  -21.3340   -3.8190   25.9790 F   0  0  0  0  0  0  0  0  0  0  0  0
  -22.7690  -13.6190   21.1860 C   0  0  0  0  0  0  0  0  0  0  0  0
  -22.0530  -12.9130   22.0550 N   0  0  0  0  0  0  0  0  0  0  0  0
  -22.3060  -14.6280   20.6570 O   0  0  0  0  0  0  0  0  0  0  0  0
  -22.4350  -12.0980   22.5110 H   0  0  0  0  0  0  0  0  0  0  0  0
  -21.1060  -13.1940   22.2690 H   0  0  0  0  0  0  0  0  0  0  0  0
  -25.3670  -15.3410   20.3850 N   0  0  0  0  0  0  0  0  0  0  0  0
  -24.5840  -15.9750   20.4990 H   0  0  0  0  0  0  0  0  0  0  0  0
  -26.1960  -15.7910   20.0130 H   0  0  0  0  0  0  0  0  0  0  0  0
  -32.1370  -20.2810   18.4250 C   0  0  0  0  0  2  0  0  0  0  0  0
  -32.2140  -21.5830   18.9780 O   0  0  0  0  0  0  0  0  0  0  0  0
  -30.9940  -22.2960   18.9690 C   0  0  0  0  0  2  0  0  0  0  0  0
  -31.1980  -23.5320   19.8580 C   0  0  0  0  0  2  0  0  0  0  0  0
  -30.0140  -24.3130   19.9490 O   0  0  0  0  0  0  0  0  0  0  0  0
  -29.7920  -25.1680   18.8350 C   0  0  0  0  0  2  0  0  0  0  0  0
  -28.3370  -25.6480   18.8520 C   0  0  0  0  0  2  0  0  0  0  0  0
  -28.1940  -26.7220   19.7790 O   0  0  0  0  0  0  0  0  0  0  0  0
  -24.4340  -31.7440   23.1000 C   0  0  0  0  0  0  0  0  0  0  0  0
  -26.9930  -27.3940   19.8210 C   0  0  0  0  0  0  0  0  0  0  0  0
  -23.1830  -30.4020   21.4400 C   0  0  0  0  0  3  0  0  0  0  0  0
  -24.5950  -28.8920   19.9460 C   0  0  0  0  0  0  0  0  0  0  0  0
  -25.7050  -30.7470   21.2040 C   0  0  0  0  0  2  0  0  0  0  0  0
  -25.7640  -29.3920   20.5290 C   0  0  0  0  0  0  0  0  0  0  0  0
  -26.9600  -28.6460   20.4720 C   0  0  0  0  0  3  0  0  0  0  0  0
  -25.7990  -26.8990   19.2400 C   0  0  0  0  0  3  0  0  0  0  0  0
  -24.6050  -27.6400   19.3030 C   0  0  0  0  0  3  0  0  0  0  0  0
  -23.3590  -29.7570   20.0380 C   0  0  0  0  0  2  0  0  0  0  0  0
  -24.4600  -30.9760   21.9740 N   0  0  0  0  0  0  0  0  0  0  0  0
  -23.3660  -32.0120   23.6670 O   0  0  0  0  0  0  0  0  0  0  0  0
  -22.5410  -29.3590   22.3840 C   0  0  0  0  0  0  0  0  0  0  0  0
  -21.2110  -29.2060   22.2860 N   0  0  0  0  0  0  0  0  0  0  0  0
  -23.2340  -28.6950   23.1580 O   0  0  0  0  0  0  0  0  0  0  0  0
  -20.7150  -29.7910   21.6270 H   0  0  0  0  0  0  0  0  0  0  0  0
  -17.8300  -28.0610   22.8310 C   0  0  0  0  0  0  0  0  0  0  0  0
  -20.3960  -28.2590   23.0450 C   0  0  0  0  0  3  0  0  0  0  0  0
  -20.4570  -26.8470   22.4190 C   0  0  0  0  0  2  0  0  0  0  0  0
  -19.3240  -26.5800   21.4240 C   0  0  0  0  0  2  0  0  0  0  0  0
  -17.9620  -26.7310   22.1070 C   0  0  0  0  0  2  0  0  0  0  0  0
  -18.9720  -28.7860   23.2570 C   0  0  0  0  0  0  0  0  0  0  0  0
  -18.7960  -30.0340   23.8940 C   0  0  0  0  0  3  0  0  0  0  0  0
  -17.5060  -30.5560   24.1070 C   0  0  0  0  0  3  0  0  0  0  0  0
  -16.3770  -29.8270   23.6970 C   0  0  0  0  0  3  0  0  0  0  0  0
  -16.5390  -28.5820   23.0650 C   0  0  0  0  0  3  0  0  0  0  0  0
  -25.7390  -32.3430   23.7120 C   0  0  0  0  0  3  0  0  0  0  0  0
  -26.2760  -31.5290   24.9510 C   0  0  1  0  0  0  0  0  0  0  0  0
  -25.2060  -31.2710   26.0380 C   0  0  0  0  0  1  0  0  0  0  0  0
  -26.8320  -30.1580   24.5000 C   0  0  0  0  0  1  0  0  0  0  0  0
  -27.4520  -32.2890   25.6070 C   0  0  0  0  0  1  0  0  0  0  0  0
  -25.4510  -33.7330   24.0880 N   0  0  0  0  0  0  0  0  0  0  0  0
  -25.7900  -34.8050   23.3580 C   0  0  0  0  0  0  0  0  0  0  0  0
  -26.4510  -34.7240   22.3180 O   0  0  0  0  0  0  0  0  0  0  0  0
  -24.8650  -33.8720   24.8990 H   0  0  0  0  0  0  0  0  0  0  0  0
  -24.0820  -36.6260   23.0700 C   0  0  0  0  0  1  0  0  0  0  0  0
  -25.3240  -36.1840   23.8610 C   0  0  0  0  0  3  0  0  0  0  0  0
  -27.4780  -37.0120   24.7000 C   0  0  0  0  0  1  0  0  0  0  0  0
  -26.3690  -37.2270   23.7750 N   0  0  0  0  0  0  0  0  0  0  0  0
  -25.9750  -38.1460   23.9590 H   0  0  0  0  0  0  0  0  0  0  0  0
  1  3  1  0
  2  6  1  0
  3  5  1  0
  3  2  1  0
  4  2  2  0
  6  7  1  0
  8  9  1  0
  8  7  1  0
 10 11  1  0
 10  9  1  0
 12 21  1  0
 12 11  1  0
 13 21  1  0
 14 19  1  0
 15 16  1  0
 15 14  1  0
 17 16  1  0
 17 26  1  0
 17 18  1  0
 19 13  1  0
 19 18  1  0
 20 13  2  0
 21 22  1  0
 23 24  2  0
 24 43  1  0
 25 24  1  0
 25 28  1  0
 26 23  1  0
 26 27  1  0
 27 25  2  0
 28 29  1  0
 29 30  2  0
 31 34  1  0
 31 30  1  0
 32 31  2  0
 33 32  1  0
 33 28  2  0
 34 35  1  0
 35 36  1  0
 36 37  2  0
 38 37  1  0
 38 42  1  0
 39 38  2  0
 40 35  2  0
 40 39  1  0
 41 40  1  0
 43 44  1  0
 44 47  1  0
 44 46  1  0
 45 43  2  0
 48 49  1  0
 48 23  1  0
 50 48  1  0
 51  1  1  0
 51 52  1  0
 53 52  1  0
 53 54  1  0
 54 55  1  0
 56 57  1  0
 56 55  1  0
 57 58  1  0
 58 60  1  0
 59 70  2  0
 60 65  1  0
 61 69  1  0
 61 71  1  0
 62 68  1  0
 62 64  1  0
 63 69  1  0
 64 63  1  0
 65 64  2  0
 66 67  1  0
 66 60  2  0
 67 62  2  0
 68 61  1  0
 69 59  1  0
 71 73  2  0
 72 71  1  0
 74 72  1  0
 75 84  2  0
 75 80  1  0
 76 72  1  0
 76 80  1  0
 77 76  1  0
 78 79  1  0
 78 77  1  0
 79 75  1  0
 80 81  2  0
 81 82  1  0
 83 82  2  0
 84 83  1  0
 85 59  1  0
 85 90  1  0
 85 86  1  0
 86 89  1  1
 86 87  1  0
 88 86  1  0
 90 93  1  0
 91 95  1  0
 91 90  1  0
 92 91  2  0
 95 94  1  0
 97 95  1  0
 97 98  1  0
 97 96  1  0
M  ISO  4  13 100  21 100  57 101  58 101
M  END
>  <TORSDO>  (28) 
F 31

>  <SCORE>  (28) 
-10.658

>  <name>  (28) 
28

>  <ligand_id>  (28) 
28

>  <original_smiles>  (28) 
[H]c1c([H])c([H])c2c(c1[H])C([H])([H])C([H])([H])C([H])([H])C2([H])N([H])C(=O)C1([H])N(C(=O)C([H])(N([H])C(=O)C([H])(N([H])C([H])([H])[H])C([H])([H])[H])C(C([H])([H])[H])(C([H])([H])[H])C([H])([H])[H])C([H])([H])c2c([H])c(OC([H])([H])C([H])([H])OC([H])([H])C([H])([H])OC([H])([H])C([H])([H])N([H])C(=O)C([H])([H])OC([H])([H])C([H])([H])OC([H])([H])C([H])([H])N([H])C(=O)N3C([H])([H])C([H])([H])C([H])([H])C([H])(n4nc(-c5c([H])c([H])c(Oc6c([H])c([H])c(F)c([H])c6F)c([H])c5[H])c(C(=O)N([H])[H])c4N([H])[H])C3([H])[H])c([H])c([H])c2C1([H])[H]

>  <smiles>  (28) 
[H]c1c([H])c([H])c2c(c1[H])C([H])([H])C([H])([H])C([H])([H])C2([H])N([H])C(=O)C1([H])N(C(=O)C([H])(N([H])C(=O)C([H])(N([H])C([H])([H])[H])C([H])([H])[H])C(C([H])([H])[H])(C([H])([H])[H])C([H])([H])[H])C([H])([H])c2c([H])c(OC([H])([H])C([H])([H])OC([H])([H])C([H])([H])OC([H])([H])C([H])([H])N([H])C(=O)C([H])([H])OC([H])([H])C([H])([H])OC([H])([H])C([H])([H])N([H])C(=O)N3C([H])([H])C([H])([H])C([H])([H])C([H])(n4nc(-c5c([H])c([H])c(Oc6c([H])c([H])c(F)c([H])c6F)c([H])c5[H])c(C(=O)N([H])[H])c4N([H])[H])C3([H])[H])c([H])c([H])c2C1([H])[H]

$$$$
29:0:0
     RDKit          3D

104111  0  0  1  0  0  0  0  0999 V2000
  -32.3550  -20.4680   19.4200 C   0  0  0  0  0  3  0  0  0  0  0  0
  -31.5500  -22.6810   20.2690 C   0  0  0  0  0  0  0  0  0  0  0  0
  -31.8080  -21.3780   20.4370 N   0  0  0  0  0  0  0  0  0  0  0  0
  -31.7400  -23.2620   19.1970 O   0  0  0  0  0  0  0  0  0  0  0  0
  -31.6220  -20.9780   21.3460 H   0  0  0  0  0  0  0  0  0  0  0  0
  -31.0020  -23.4520   21.4820 C   0  0  0  0  0  2  0  0  0  0  0  0
  -30.1060  -24.4850   21.0650 O   0  0  0  0  0  0  0  0  0  0  0  0
  -28.7680  -24.0610   20.8180 C   0  0  0  0  0  2  0  0  0  0  0  0
  -28.2010  -24.8450   19.6270 C   0  0  0  0  0  2  0  0  0  0  0  0
  -26.6710  -24.9350   19.6510 C   0  0  0  0  0  2  0  0  0  0  0  0
  -26.2440  -25.8160   18.6200 O   0  0  0  0  0  0  0  0  0  0  0  0
  -24.1260  -30.9350   23.0880 C   0  0  0  0  0  0  0  0  0  0  0  0
  -25.2650  -26.6950   19.0040 C   0  0  0  0  0  0  0  0  0  0  0  0
  -22.3910  -30.0360   21.5690 C   0  0  0  0  0  3  0  0  0  0  0  0
  -23.2370  -28.5210   19.7000 C   0  0  0  0  0  0  0  0  0  0  0  0
  -24.8570  -30.0030   20.9010 C   0  0  0  0  0  2  0  0  0  0  0  0
  -24.5590  -28.7550   20.1000 C   0  0  0  0  0  0  0  0  0  0  0  0
  -25.5790  -27.8450   19.7560 C   0  0  0  0  0  3  0  0  0  0  0  0
  -23.9360  -26.4640   18.6030 C   0  0  0  0  0  3  0  0  0  0  0  0
  -22.9160  -27.3700   18.9540 C   0  0  0  0  0  3  0  0  0  0  0  0
  -22.2110  -29.5540   20.1030 C   0  0  0  0  0  2  0  0  0  0  0  0
  -23.8220  -30.3260   21.9080 N   0  0  0  0  0  0  0  0  0  0  0  0
  -23.2360  -31.2940   23.8710 O   0  0  0  0  0  0  0  0  0  0  0  0
  -21.7380  -28.9990   22.5100 C   0  0  0  0  0  0  0  0  0  0  0  0
  -20.4010  -28.8940   22.4470 N   0  0  0  0  0  0  0  0  0  0  0  0
  -22.4280  -28.2950   23.2510 O   0  0  0  0  0  0  0  0  0  0  0  0
  -19.9080  -29.5140   21.8190 H   0  0  0  0  0  0  0  0  0  0  0  0
  -17.0250  -27.6850   22.8810 C   0  0  0  0  0  0  0  0  0  0  0  0
  -19.5740  -27.9610   23.2090 C   0  0  0  0  0  3  0  0  0  0  0  0
  -19.6980  -26.5240   22.6500 C   0  0  0  0  0  2  0  0  0  0  0  0
  -18.6220  -26.1830   21.6150 C   0  0  0  0  0  2  0  0  0  0  0  0
  -17.2240  -26.3290   22.2270 C   0  0  0  0  0  2  0  0  0  0  0  0
  -18.1290  -28.4590   23.3270 C   0  0  0  0  0  0  0  0  0  0  0  0
  -17.8920  -29.7280   23.8960 C   0  0  0  0  0  3  0  0  0  0  0  0
  -16.5810  -30.2250   24.0260 C   0  0  0  0  0  3  0  0  0  0  0  0
  -15.4910  -29.4500   23.5980 C   0  0  0  0  0  3  0  0  0  0  0  0
  -15.7130  -28.1820   23.0300 C   0  0  0  0  0  3  0  0  0  0  0  0
  -25.6030  -31.2320   23.5000 C   0  0  0  0  0  3  0  0  0  0  0  0
  -26.1750  -30.2010   24.5500 C   0  0  1  0  0  0  0  0  0  0  0  0
  -25.2720  -30.0120   25.7910 C   0  0  0  0  0  1  0  0  0  0  0  0
  -26.3790  -28.8150   23.8960 C   0  0  0  0  0  1  0  0  0  0  0  0
  -27.5650  -30.6720   25.0420 C   0  0  0  0  0  1  0  0  0  0  0  0
  -25.6460  -32.5980   24.0350 N   0  0  0  0  0  0  0  0  0  0  0  0
  -26.0970  -33.6650   23.3610 C   0  0  0  0  0  0  0  0  0  0  0  0
  -26.5930  -33.5840   22.2330 O   0  0  0  0  0  0  0  0  0  0  0  0
  -25.2070  -32.7470   24.9320 H   0  0  0  0  0  0  0  0  0  0  0  0
  -24.7570  -35.7870   23.4920 C   0  0  0  0  0  1  0  0  0  0  0  0
  -25.9790  -35.0390   24.0460 C   0  0  0  0  0  3  0  0  0  0  0  0
  -28.3420  -35.3680   24.6260 C   0  0  0  0  0  1  0  0  0  0  0  0
  -27.1870  -35.8780   23.8920 N   0  0  0  0  0  0  0  0  0  0  0  0
  -27.0070  -36.8290   24.2040 H   0  0  0  0  0  0  0  0  0  0  0  0
  -29.8810  -19.7470   19.1650 C   0  0  0  0  0  1  0  0  0  0  0  0
  -31.3620  -19.3130   19.1230 C   0  0  0  0  0  3  0  0  0  0  0  0
  -31.1940  -16.9210   19.8320 C   0  0  0  0  0  0  0  0  0  0  0  0
  -31.6080  -18.1800   20.0120 N   0  0  0  0  0  0  0  0  0  0  0  0
  -30.4830  -16.5830   18.8810 O   0  0  0  0  0  0  0  0  0  0  0  0
  -32.2500  -18.3490   20.7790 H   0  0  0  0  0  0  0  0  0  0  0  0
  -31.6440  -15.8920   20.8900 C   0  0  0  0  0  3  0  0  0  0  0  0
  -31.3020  -13.7220   19.6970 C   0  0  0  0  0  0  0  0  0  0  0  0
  -30.6510  -11.5880   18.6430 C   0  0  0  0  0  2  0  0  0  0  0  0
  -29.6390  -11.8090   17.5030 C   0  0  0  0  0  2  0  0  0  0  0  0
  -28.2000  -11.8540   18.0480 C   0  0  0  0  0  2  0  0  0  0  0  0
  -28.0530  -12.8220   19.2510 C   0  0  0  0  0  3  0  0  0  0  0  0
  -29.1520  -12.5510   20.3010 C   0  0  0  0  0  2  0  0  0  0  0  0
  -30.4680  -12.6530   19.6370 N   0  0  0  0  0  0  0  0  0  0  0  0
  -32.2780  -13.8720   18.9550 O   0  0  0  0  0  0  0  0  0  0  0  0
  -31.0110  -14.5940   20.6680 N   0  0  0  0  0  0  0  0  0  0  0  0
  -30.2060  -14.3860   21.2340 H   0  0  0  0  0  0  0  0  0  0  0  0
  -25.8520  -13.7620   20.2060 C   0  0  0  0  0  0  0  0  0  0  0  0
  -24.7080  -13.1470   20.6400 C   0  0  0  0  0  0  0  0  0  0  0  0
  -24.9380  -11.7450   20.5050 C   0  0  0  0  0  0  0  0  0  0  0  0
  -26.7160  -12.7410   19.8400 N   0  0  0  0  0  0  0  0  0  0  0  0
  -26.1730  -11.5200   20.0730 N   0  0  0  0  0  0  0  0  0  0  0  0
  -24.0360  -10.6030   20.7080 C   0  0  0  0  0  0  0  0  0  0  0  0
  -24.3710   -9.5430   21.5800 C   0  0  0  0  0  3  0  0  0  0  0  0
  -23.4810   -8.4650   21.7710 C   0  0  0  0  0  3  0  0  0  0  0  0
  -22.2400   -8.4400   21.0910 C   0  0  0  0  0  0  0  0  0  0  0  0
  -21.9210   -9.4860   20.2070 C   0  0  0  0  0  3  0  0  0  0  0  0
  -22.8120  -10.5550   20.0140 C   0  0  0  0  0  3  0  0  0  0  0  0
  -21.3230   -7.4220   21.1960 O   0  0  0  0  0  0  0  0  0  0  0  0
  -21.2250   -6.6570   22.3300 C   0  0  0  0  0  0  0  0  0  0  0  0
  -20.9330   -7.2240   23.5900 C   0  0  0  0  0  3  0  0  0  0  0  0
  -20.7720   -6.3930   24.7160 C   0  0  0  0  0  3  0  0  0  0  0  0
  -20.8900   -4.9960   24.5850 C   0  0  0  0  0  0  0  0  0  0  0  0
  -21.1750   -4.4290   23.3300 C   0  0  0  0  0  3  0  0  0  0  0  0
  -21.3380   -5.2570   22.2050 C   0  0  0  0  0  0  0  0  0  0  0  0
  -21.5910   -4.7040   20.9950 F   0  0  0  0  0  0  0  0  0  0  0  0
  -20.7280   -4.1970   25.6650 F   0  0  0  0  0  0  0  0  0  0  0  0
  -23.4360  -13.8210   21.0700 C   0  0  0  0  0  0  0  0  0  0  0  0
  -22.7030  -13.2150   21.9970 N   0  0  0  0  0  0  0  0  0  0  0  0
  -23.1080  -14.9170   20.6160 O   0  0  0  0  0  0  0  0  0  0  0  0
  -22.9840  -12.3260   22.3850 H   0  0  0  0  0  0  0  0  0  0  0  0
  -21.8510  -13.6470   22.3260 H   0  0  0  0  0  0  0  0  0  0  0  0
  -26.2230  -15.0970   20.0770 N   0  0  0  0  0  0  0  0  0  0  0  0
  -25.5910  -15.8600   20.2930 H   0  0  0  0  0  0  0  0  0  0  0  0
  -27.1170  -15.4120   19.7190 H   0  0  0  0  0  0  0  0  0  0  0  0
  -29.8270  -16.8100   22.5160 C   0  0  0  0  0  1  0  0  0  0  0  0
  -31.6720  -15.3130   23.3780 C   0  0  0  0  0  1  0  0  0  0  0  0
  -31.2970  -16.3740   22.3280 C   0  0  0  0  0  3  0  0  0  0  0  0
  -33.7890  -19.9930   19.7940 C   0  0  0  0  0  3  0  0  0  0  0  0
  -34.8630  -21.0390   19.4570 C   0  0  0  0  0  3  0  0  0  0  0  0
  -35.3370  -21.7600   20.3410 O   0  0  0  0  0  0  0  0  0  0  0  0
  -33.8600  -19.6840   21.1870 O   0  0  0  0  0  0  0  0  0  0  0  0
  -34.0500  -20.5160   21.6120 H   0  0  0  0  0  0  0  0  0  0  0  0
  1100  1  0
  1  3  1  0
  2  3  1  0
  2  6  1  0
  3  5  1  0
  4  2  2  0
  7  6  1  0
  8  7  1  0
  9 10  1  0
  9  8  1  0
 11 13  1  0
 11 10  1  0
 12 23  2  0
 13 18  1  0
 14 22  1  0
 14 24  1  0
 15 17  1  0
 15 21  1  0
 16 22  1  0
 17 16  1  0
 18 17  2  0
 19 20  1  0
 19 13  2  0
 20 15  2  0
 21 14  1  0
 22 12  1  0
 24 26  2  0
 25 24  1  0
 27 25  1  0
 28 37  2  0
 28 33  1  0
 29 25  1  0
 29 33  1  0
 30 29  1  0
 31 32  1  0
 31 30  1  0
 32 28  1  0
 33 34  2  0
 34 35  1  0
 36 35  2  0
 37 36  1  0
 38 12  1  0
 38 43  1  0
 38 39  1  0
 39 42  1  1
 39 40  1  0
 41 39  1  0
 43 46  1  0
 44 43  1  0
 44 48  1  0
 45 44  2  0
 48 47  1  0
 50 48  1  0
 50 51  1  0
 50 49  1  0
 53 52  1  0
 53  1  1  0
 53 55  1  0
 54 55  1  0
 55 57  1  0
 56 54  2  0
 58 54  1  0
 58 99  1  0
 59 67  1  0
 60 65  1  0
 61 62  1  0
 61 60  1  0
 63 62  1  0
 63 72  1  0
 63 64  1  0
 65 59  1  0
 65 64  1  0
 66 59  2  0
 67 58  1  0
 67 68  1  0
 69 70  2  0
 70 89  1  0
 71 70  1  0
 71 74  1  0
 72 73  1  0
 72 69  1  0
 73 71  2  0
 74 75  1  0
 75 76  2  0
 77 80  1  0
 77 76  1  0
 78 77  2  0
 79 78  1  0
 79 74  2  0
 80 81  1  0
 81 82  1  0
 82 83  2  0
 84 83  1  0
 84 88  1  0
 85 84  2  0
 86 81  2  0
 86 85  1  0
 87 86  1  0
 89 90  1  0
 90 93  1  0
 90 92  1  0
 91 89  2  0
 94 69  1  0
 94 95  1  0
 96 94  1  0
 99 97  1  0
 99 98  1  0
100101  1  0
100103  1  0
101102  2  0
103104  1  0
M  ISO  4  10 101  11 101  59 100  67 100
M  END
>  <TORSDO>  (29) 
F 29

>  <SCORE>  (29) 
-5.466

>  <name>  (29) 
29

>  <ligand_id>  (29) 
29

>  <original_smiles>  (29) 
[H]OC([H])(C([H])=O)C([H])(N([H])C(=O)C([H])([H])OC([H])([H])C([H])([H])C([H])([H])Oc1c([H])c([H])c2c(c1[H])C([H])([H])N(C(=O)C([H])(N([H])C(=O)C([H])(N([H])C([H])([H])[H])C([H])([H])[H])C(C([H])([H])[H])(C([H])([H])[H])C([H])([H])[H])C([H])(C(=O)N([H])C1([H])c3c([H])c([H])c([H])c([H])c3C([H])([H])C([H])([H])C1([H])[H])C2([H])[H])C([H])(N([H])C(=O)C([H])(N([H])C(=O)N1C([H])([H])C([H])([H])C([H])([H])C([H])(n2nc(-c3c([H])c([H])c(Oc4c([H])c([H])c(F)c([H])c4F)c([H])c3[H])c(C(=O)N([H])[H])c2N([H])[H])C1([H])[H])C([H])(C([H])([H])[H])C([H])([H])[H])C([H])([H])[H]

>  <smiles>  (29) 
[H]OC([H])(C([H])=O)C([H])(N([H])C(=O)C([H])([H])OC([H])([H])C([H])([H])C([H])([H])Oc1c([H])c([H])c2c(c1[H])C([H])([H])N(C(=O)C([H])(N([H])C(=O)C([H])(N([H])C([H])([H])[H])C([H])([H])[H])C(C([H])([H])[H])(C([H])([H])[H])C([H])([H])[H])C([H])(C(=O)N([H])C1([H])c3c([H])c([H])c([H])c([H])c3C([H])([H])C([H])([H])C1([H])[H])C2([H])[H])C([H])(N([H])C(=O)C([H])(N([H])C(=O)N1C([H])([H])C([H])([H])C([H])([H])C([H])(n2nc(-c3c([H])c([H])c(Oc4c([H])c([H])c(F)c([H])c4F)c([H])c3[H])c(C(=O)N([H])[H])c2N([H])[H])C1([H])[H])C([H])(C([H])([H])[H])C([H])([H])[H])C([H])([H])[H]

$$$$
30:0:0
     RDKit          3D

101108  0  0  1  0  0  0  0  0999 V2000
  -34.3710  -26.1060   20.0750 N   0  0  0  0  0  4  0  0  0  0  0  0
  -33.5030  -25.6160   20.2340 H   0  0  0  0  0  0  0  0  0  0  0  0
  -35.0280  -25.7880   20.7700 H   0  0  0  0  0  0  0  0  0  0  0  0
  -34.8480  -25.7020   18.7350 C   0  0  0  0  0  2  0  0  0  0  0  0
  -34.6180  -24.2070   18.5100 C   0  0  0  0  0  2  0  0  0  0  0  0
  -33.2210  -23.9910   18.6670 O   0  0  0  0  0  0  0  0  0  0  0  0
  -32.8470  -22.6340   18.4850 C   0  0  0  0  0  2  0  0  0  0  0  0
  -31.3180  -22.5430   18.5590 C   0  0  0  0  0  2  0  0  0  0  0  0
  -30.7890  -21.1600   18.1660 C   0  0  0  0  0  2  0  0  0  0  0  0
  -31.1420  -20.1670   19.1250 O   0  0  0  0  0  0  0  0  0  0  0  0
  -30.6700  -18.8870   18.7210 C   0  0  0  0  0  2  0  0  0  0  0  0
  -30.8360  -17.8140   19.8130 C   0  0  0  0  0  2  0  0  0  0  0  0
  -30.0760  -16.5410   19.3940 C   0  0  0  0  0  2  0  0  0  0  0  0
  -30.8670  -14.3470   20.1690 C   0  0  0  0  0  0  0  0  0  0  0  0
  -30.4910  -12.1520   19.1610 C   0  0  0  0  0  2  0  0  0  0  0  0
  -29.5380  -12.3770   17.9640 C   0  0  0  0  0  2  0  0  0  0  0  0
  -28.0670  -12.3010   18.4200 C   0  0  0  0  0  2  0  0  0  0  0  0
  -27.7790  -13.1760   19.6700 C   0  0  0  0  0  3  0  0  0  0  0  0
  -28.8530  -12.9580   20.7660 C   0  0  0  0  0  2  0  0  0  0  0  0
  -30.1800  -13.1760   20.1670 N   0  0  0  0  0  0  0  0  0  0  0  0
  -32.0130  -14.4720   19.7310 O   0  0  0  0  0  0  0  0  0  0  0  0
  -30.0930  -15.4250   20.3480 N   0  0  0  0  0  0  0  0  0  0  0  0
  -29.2070  -15.2280   20.7880 H   0  0  0  0  0  0  0  0  0  0  0  0
  -25.4210  -13.8760   20.4310 C   0  0  0  0  0  0  0  0  0  0  0  0
  -24.3320  -13.1450   20.8270 C   0  0  0  0  0  0  0  0  0  0  0  0
  -24.7420  -11.7770   20.7860 C   0  0  0  0  0  0  0  0  0  0  0  0
  -26.4260  -12.9560   20.1800 N   0  0  0  0  0  0  0  0  0  0  0  0
  -26.0230  -11.6880   20.4510 N   0  0  0  0  0  0  0  0  0  0  0  0
  -23.9730  -10.5430   20.9950 C   0  0  0  0  0  0  0  0  0  0  0  0
  -24.4040   -9.5490   21.9010 C   0  0  0  0  0  3  0  0  0  0  0  0
  -23.6390   -8.3800   22.0970 C   0  0  0  0  0  3  0  0  0  0  0  0
  -22.4290   -8.1970   21.3860 C   0  0  0  0  0  0  0  0  0  0  0  0
  -22.0170   -9.1790   20.4700 C   0  0  0  0  0  3  0  0  0  0  0  0
  -22.7820  -10.3400   20.2720 C   0  0  0  0  0  3  0  0  0  0  0  0
  -21.6330   -7.0810   21.4940 O   0  0  0  0  0  0  0  0  0  0  0  0
  -21.6160   -6.3150   22.6320 C   0  0  0  0  0  0  0  0  0  0  0  0
  -21.2980   -6.8640   23.8940 C   0  0  0  0  0  3  0  0  0  0  0  0
  -21.2220   -6.0280   25.0260 C   0  0  0  0  0  3  0  0  0  0  0  0
  -21.4570   -4.6450   24.8990 C   0  0  0  0  0  0  0  0  0  0  0  0
  -21.7700   -4.0970   23.6420 C   0  0  0  0  0  3  0  0  0  0  0  0
  -21.8470   -4.9300   22.5120 C   0  0  0  0  0  0  0  0  0  0  0  0
  -22.1260   -4.3930   21.3010 F   0  0  0  0  0  0  0  0  0  0  0  0
  -21.3780   -3.8410   25.9850 F   0  0  0  0  0  0  0  0  0  0  0  0
  -22.9610  -13.6750   21.1290 C   0  0  0  0  0  0  0  0  0  0  0  0
  -22.2290  -13.0110   22.0180 N   0  0  0  0  0  0  0  0  0  0  0  0
  -22.5490  -14.7140   20.6160 O   0  0  0  0  0  0  0  0  0  0  0  0
  -22.5750  -12.1710   22.4550 H   0  0  0  0  0  0  0  0  0  0  0  0
  -21.3100  -13.3500   22.2620 H   0  0  0  0  0  0  0  0  0  0  0  0
  -25.6320  -15.2400   20.2490 N   0  0  0  0  0  0  0  0  0  0  0  0
  -24.8890  -15.9190   20.3740 H   0  0  0  0  0  0  0  0  0  0  0  0
  -26.4850  -15.6520   19.8950 H   0  0  0  0  0  0  0  0  0  0  0  0
  -34.1410  -27.5580   20.2200 C   0  0  0  0  0  2  0  0  0  0  0  0
  -33.7240  -27.9380   21.6510 C   0  0  0  0  0  2  0  0  0  0  0  0
  -33.0470  -29.3160   21.7220 C   0  0  0  0  0  2  0  0  0  0  0  0
  -32.5180  -29.5190   23.0300 O   0  0  0  0  0  0  0  0  0  0  0  0
  -31.0910  -29.5800   23.0890 C   0  0  0  0  0  2  0  0  0  0  0  0
  -30.4130  -28.2040   22.9390 C   0  0  0  0  0  2  0  0  0  0  0  0
  -30.2110  -27.9340   21.5590 O   0  0  0  0  0  0  0  0  0  0  0  0
  -29.4890  -26.7340   21.3000 C   0  0  0  0  0  2  0  0  0  0  0  0
  -29.0590  -26.7500   19.8200 C   0  0  0  0  0  2  0  0  0  0  0  0
  -27.7430  -26.2350   19.6170 O   0  0  0  0  0  0  0  0  0  0  0  0
  -24.3970  -31.5630   23.0370 C   0  0  0  0  0  0  0  0  0  0  0  0
  -26.6590  -27.0800   19.7420 C   0  0  0  0  0  0  0  0  0  0  0  0
  -23.0430  -30.2980   21.3950 C   0  0  0  0  0  3  0  0  0  0  0  0
  -24.3450  -28.7070   19.8810 C   0  0  0  0  0  0  0  0  0  0  0  0
  -25.5730  -30.5020   21.1170 C   0  0  0  0  0  2  0  0  0  0  0  0
  -25.5480  -29.1470   20.4440 C   0  0  0  0  0  0  0  0  0  0  0  0
  -26.7040  -28.3440   20.3780 C   0  0  0  0  0  3  0  0  0  0  0  0
  -25.4330  -26.6400   19.1970 C   0  0  0  0  0  3  0  0  0  0  0  0
  -24.2790  -27.4490   19.2570 C   0  0  0  0  0  3  0  0  0  0  0  0
  -23.1620  -29.6440   19.9900 C   0  0  0  0  0  2  0  0  0  0  0  0
  -24.3580  -30.7990   21.9080 N   0  0  0  0  0  0  0  0  0  0  0  0
  -23.3560  -31.8900   23.6220 O   0  0  0  0  0  0  0  0  0  0  0  0
  -22.3560  -29.2920   22.3480 C   0  0  0  0  0  0  0  0  0  0  0  0
  -21.0170  -29.2210   22.2700 N   0  0  0  0  0  0  0  0  0  0  0  0
  -23.0190  -28.5850   23.1100 O   0  0  0  0  0  0  0  0  0  0  0  0
  -20.5460  -29.8480   21.6320 H   0  0  0  0  0  0  0  0  0  0  0  0
  -17.5790  -28.2720   22.8680 C   0  0  0  0  0  0  0  0  0  0  0  0
  -20.1610  -28.3180   23.0370 C   0  0  0  0  0  3  0  0  0  0  0  0
  -20.1220  -26.9060   22.4060 C   0  0  0  0  0  2  0  0  0  0  0  0
  -18.9580  -26.7120   21.4290 C   0  0  0  0  0  2  0  0  0  0  0  0
  -17.6200  -26.9370   22.1370 C   0  0  0  0  0  2  0  0  0  0  0  0
  -18.7740  -28.9250   23.2770 C   0  0  0  0  0  0  0  0  0  0  0  0
  -18.6800  -30.1780   23.9200 C   0  0  0  0  0  3  0  0  0  0  0  0
  -17.4280  -30.7770   24.1530 C   0  0  0  0  0  3  0  0  0  0  0  0
  -16.2500  -30.1180   23.7610 C   0  0  0  0  0  3  0  0  0  0  0  0
  -16.3260  -28.8660   23.1260 C   0  0  0  0  0  3  0  0  0  0  0  0
  -25.7440  -32.0800   23.6330 C   0  0  0  0  0  3  0  0  0  0  0  0
  -25.5350  -33.4720   24.0540 N   0  0  0  0  0  0  0  0  0  0  0  0
  -25.9050  -34.5420   23.3390 C   0  0  0  0  0  0  0  0  0  0  0  0
  -26.5320  -34.4570   22.2790 O   0  0  0  0  0  0  0  0  0  0  0  0
  -24.9750  -33.6170   24.8830 H   0  0  0  0  0  0  0  0  0  0  0  0
  -24.2810  -36.4490   23.1450 C   0  0  0  0  0  1  0  0  0  0  0  0
  -25.5230  -35.9290   23.8870 C   0  0  0  0  0  3  0  0  0  0  0  0
  -27.7390  -36.6320   24.6740 C   0  0  0  0  0  1  0  0  0  0  0  0
  -26.6140  -36.9230   23.7900 N   0  0  0  0  0  0  0  0  0  0  0  0
  -26.2740  -37.8580   24.0030 H   0  0  0  0  0  0  0  0  0  0  0  0
  -26.2710  -31.2030   24.8340 C   0  0  1  0  0  0  0  0  0  0  0  0
  -25.2170  -30.9680   25.9410 C   0  0  0  0  0  1  0  0  0  0  0  0
  -26.7510  -29.8200   24.3320 C   0  0  0  0  0  1  0  0  0  0  0  0
  -27.5000  -31.8860   25.4790 C   0  0  0  0  0  1  0  0  0  0  0  0
  1 52  1  0
  1  2  1  0
  1  3  1  0
  4  1  1  0
  5  6  1  0
  5  4  1  0
  7  8  1  0
  7  6  1  0
  9  8  1  0
  9 10  1  0
 11 10  1  0
 11 12  1  0
 13 12  1  0
 13 22  1  0
 14 22  1  0
 15 20  1  0
 16 17  1  0
 16 15  1  0
 18 17  1  0
 18 27  1  0
 18 19  1  0
 20 14  1  0
 20 19  1  0
 21 14  2  0
 22 23  1  0
 24 25  2  0
 25 44  1  0
 26 25  1  0
 26 29  1  0
 27 24  1  0
 27 28  1  0
 28 26  2  0
 29 30  1  0
 30 31  2  0
 32 35  1  0
 32 31  1  0
 33 32  2  0
 34 33  1  0
 34 29  2  0
 35 36  1  0
 36 37  1  0
 37 38  2  0
 39 38  1  0
 39 43  1  0
 40 39  2  0
 41 36  2  0
 41 40  1  0
 42 41  1  0
 44 45  1  0
 45 48  1  0
 45 47  1  0
 46 44  2  0
 49 50  1  0
 49 24  1  0
 51 49  1  0
 52 53  1  0
 53 54  1  0
 54 55  1  0
 55 56  1  0
 57 56  1  0
 58 57  1  0
 59 58  1  0
 60 59  1  0
 61 63  1  0
 61 60  1  0
 62 73  2  0
 63 68  1  0
 64 72  1  0
 64 74  1  0
 65 71  1  0
 65 67  1  0
 66 72  1  0
 67 66  1  0
 68 67  2  0
 69 70  1  0
 69 63  2  0
 70 65  2  0
 71 64  1  0
 72 62  1  0
 74 76  2  0
 75 74  1  0
 77 75  1  0
 78 87  2  0
 78 83  1  0
 79 75  1  0
 79 83  1  0
 80 79  1  0
 81 82  1  0
 81 80  1  0
 82 78  1  0
 83 84  2  0
 84 85  1  0
 86 85  2  0
 87 86  1  0
 88 62  1  0
 88 89  1  0
 88 98  1  0
 89 92  1  0
 90 94  1  0
 90 89  1  0
 91 90  2  0
 94 93  1  0
 96 94  1  0
 96 97  1  0
 96 95  1  0
 98101  1  1
 98 99  1  0
100 98  1  0
M  ISO  4  14 100  22 100  60 101  61 101
M  END
>  <TORSDO>  (30) 
F 35

>  <SCORE>  (30) 
-9.254

>  <name>  (30) 
30

>  <ligand_id>  (30) 
30

>  <original_smiles>  (30) 
[H]c1c([H])c([H])c2c(c1[H])C([H])([H])C([H])([H])C([H])([H])C2([H])N([H])C(=O)C1([H])N(C(=O)C([H])(N([H])C(=O)C([H])(N([H])C([H])([H])[H])C([H])([H])[H])C(C([H])([H])[H])(C([H])([H])[H])C([H])([H])[H])C([H])([H])c2c([H])c(OC([H])([H])C([H])([H])OC([H])([H])C([H])([H])OC([H])([H])C([H])([H])C([H])([H])[N+]([H])([H])C([H])([H])C([H])([H])OC([H])([H])C([H])([H])C([H])([H])OC([H])([H])C([H])([H])C([H])([H])N([H])C(=O)N3C([H])([H])C([H])([H])C([H])([H])C([H])(n4nc(-c5c([H])c([H])c(Oc6c([H])c([H])c(F)c([H])c6F)c([H])c5[H])c(C(=O)N([H])[H])c4N([H])[H])C3([H])[H])c([H])c([H])c2C1([H])[H]

>  <smiles>  (30) 
[H]c1c([H])c([H])c2c(c1[H])C([H])([H])C([H])([H])C([H])([H])C2([H])N([H])C(=O)C1([H])N(C(=O)C([H])(N([H])C(=O)C([H])(N([H])C([H])([H])[H])C([H])([H])[H])C(C([H])([H])[H])(C([H])([H])[H])C([H])([H])[H])C([H])([H])c2c([H])c(OC([H])([H])C([H])([H])OC([H])([H])C([H])([H])OC([H])([H])C([H])([H])C([H])([H])[N+]([H])([H])C([H])([H])C([H])([H])OC([H])([H])C([H])([H])C([H])([H])OC([H])([H])C([H])([H])C([H])([H])N([H])C(=O)N3C([H])([H])C([H])([H])C([H])([H])C([H])(n4nc(-c5c([H])c([H])c(Oc6c([H])c([H])c(F)c([H])c6F)c([H])c5[H])c(C(=O)N([H])[H])c4N([H])[H])C3([H])[H])c([H])c([H])c2C1([H])[H]

$$$$
31:0:0
     RDKit          3D

103110  0  0  1  0  0  0  0  0999 V2000
  -31.1090  -19.1960   19.0130 C   0  0  0  0  0  3  0  0  0  0  0  0
  -31.7190  -18.6380   20.0030 N   0  0  0  0  0  2  0  0  0  0  0  0
  -31.8830  -17.2600   20.0460 C   0  0  0  0  0  0  0  0  0  0  0  0
  -32.9410  -16.7010   20.3300 O   0  0  0  0  0  0  0  0  0  0  0  0
  -30.5570  -16.4530   20.0040 C   0  0  0  0  0  3  0  0  0  0  0  0
  -31.2610  -13.9990   19.6680 C   0  0  0  0  0  0  0  0  0  0  0  0
  -30.8750  -11.6950   18.8720 C   0  0  0  0  0  2  0  0  0  0  0  0
  -29.8810  -11.7400   17.6940 C   0  0  0  0  0  2  0  0  0  0  0  0
  -28.4190  -11.7480   18.1880 C   0  0  0  0  0  2  0  0  0  0  0  0
  -28.1730  -12.7970   19.3050 C   0  0  0  0  0  3  0  0  0  0  0  0
  -29.2550  -12.6650   20.3990 C   0  0  0  0  0  2  0  0  0  0  0  0
  -30.5770  -12.8280   19.7600 N   0  0  0  0  0  0  0  0  0  0  0  0
  -32.3000  -14.1260   19.0160 O   0  0  0  0  0  0  0  0  0  0  0  0
  -30.6200  -15.0110   20.2680 N   0  0  0  0  0  0  0  0  0  0  0  0
  -29.8620  -14.6890   20.8480 H   0  0  0  0  0  0  0  0  0  0  0  0
  -25.9020  -13.6820   20.1440 C   0  0  0  0  0  0  0  0  0  0  0  0
  -24.7780  -13.0390   20.5840 C   0  0  0  0  0  0  0  0  0  0  0  0
  -25.0780  -11.6420   20.5340 C   0  0  0  0  0  0  0  0  0  0  0  0
  -26.8250  -12.6860   19.8600 N   0  0  0  0  0  0  0  0  0  0  0  0
  -26.3320  -11.4540   20.1440 N   0  0  0  0  0  0  0  0  0  0  0  0
  -24.2250  -10.4710   20.7780 C   0  0  0  0  0  0  0  0  0  0  0  0
  -24.5850   -9.4820   21.7190 C   0  0  0  0  0  3  0  0  0  0  0  0
  -23.7420   -8.3720   21.9480 C   0  0  0  0  0  3  0  0  0  0  0  0
  -22.5260   -8.2460   21.2370 C   0  0  0  0  0  0  0  0  0  0  0  0
  -22.1840   -9.2230   20.2850 C   0  0  0  0  0  3  0  0  0  0  0  0
  -23.0260  -10.3230   20.0540 C   0  0  0  0  0  3  0  0  0  0  0  0
  -21.6570   -7.1920   21.3750 O   0  0  0  0  0  0  0  0  0  0  0  0
  -21.5610   -6.4900   22.5490 C   0  0  0  0  0  0  0  0  0  0  0  0
  -21.2100   -7.1150   23.7660 C   0  0  0  0  0  3  0  0  0  0  0  0
  -21.0530   -6.3420   24.9340 C   0  0  0  0  0  3  0  0  0  0  0  0
  -21.2370   -4.9480   24.8880 C   0  0  0  0  0  0  0  0  0  0  0  0
  -21.5800   -4.3230   23.6750 C   0  0  0  0  0  3  0  0  0  0  0  0
  -21.7380   -5.0920   22.5090 C   0  0  0  0  0  0  0  0  0  0  0  0
  -22.0480   -4.4830   21.3390 F   0  0  0  0  0  0  0  0  0  0  0  0
  -21.0790   -4.2050   26.0080 F   0  0  0  0  0  0  0  0  0  0  0  0
  -23.4640  -13.6710   20.9460 C   0  0  0  0  0  0  0  0  0  0  0  0
  -22.7350  -13.0820   21.8870 N   0  0  0  0  0  0  0  0  0  0  0  0
  -23.0980  -14.7240   20.4260 O   0  0  0  0  0  0  0  0  0  0  0  0
  -23.0420  -12.2290   22.3320 H   0  0  0  0  0  0  0  0  0  0  0  0
  -21.8540  -13.4910   22.1660 H   0  0  0  0  0  0  0  0  0  0  0  0
  -26.2130  -15.0250   19.9470 N   0  0  0  0  0  0  0  0  0  0  0  0
  -25.5360  -15.7630   20.1040 H   0  0  0  0  0  0  0  0  0  0  0  0
  -27.0890  -15.3650   19.5740 H   0  0  0  0  0  0  0  0  0  0  0  0
  -28.4050  -16.1400   21.4720 C   0  0  0  0  0  1  0  0  0  0  0  0
  -28.6280  -18.1490   19.9740 C   0  0  0  0  0  1  0  0  0  0  0  0
  -29.4040  -17.1220   20.8210 C   0  0  0  0  0  3  0  0  0  0  0  0
  -30.7600  -18.6180   17.6290 C   0  0  0  0  0  0  0  0  0  0  0  0
  -31.1420  -17.5050   17.2610 O   0  0  0  0  0  0  0  0  0  0  0  0
  -29.9850  -19.4310   16.8770 O   0  0  0  0  0  0  0  0  0  0  0  0
  -27.9590  -18.9350   15.6760 C   0  0  0  0  0  1  0  0  0  0  0  0
  -29.9770  -20.0030   14.5500 C   0  0  0  0  0  1  0  0  0  0  0  0
  -29.4900  -19.0100   15.6090 C   0  0  0  0  0  3  0  0  0  0  0  0
  -30.6560  -20.6460   19.2380 C   0  0  0  0  0  2  0  0  0  0  0  0
  -31.5450  -21.6710   18.5160 C   0  0  0  0  0  0  0  0  0  0  0  0
  -31.6150  -22.8930   19.0650 N   0  0  0  0  0  0  0  0  0  0  0  0
  -32.1460  -21.3880   17.4770 O   0  0  0  0  0  0  0  0  0  0  0  0
  -31.0790  -23.0740   19.9040 H   0  0  0  0  0  0  0  0  0  0  0  0
  -32.4350  -23.9990   18.5790 C   0  0  0  0  0  2  0  0  0  0  0  0
  -32.5240  -25.0980   19.6470 C   0  0  0  0  0  2  0  0  0  0  0  0
  -31.2840  -25.7930   19.7430 O   0  0  0  0  0  0  0  0  0  0  0  0
  -31.1780  -26.5480   20.9460 C   0  0  0  0  0  2  0  0  0  0  0  0
  -30.0150  -27.5500   20.8860 C   0  0  0  0  0  2  0  0  0  0  0  0
  -28.8090  -26.8800   20.5270 O   0  0  0  0  0  0  0  0  0  0  0  0
  -24.5730  -31.9640   23.2450 C   0  0  0  0  0  0  0  0  0  0  0  0
  -27.6360  -27.6030   20.4840 C   0  0  0  0  0  0  0  0  0  0  0  0
  -23.5330  -30.4460   21.5860 C   0  0  0  0  0  3  0  0  0  0  0  0
  -25.1450  -28.9380   20.3100 C   0  0  0  0  0  0  0  0  0  0  0  0
  -26.0370  -30.9440   21.5100 C   0  0  0  0  0  2  0  0  0  0  0  0
  -26.2330  -29.5590   20.9340 C   0  0  0  0  0  0  0  0  0  0  0  0
  -27.4770  -28.9040   21.0200 C   0  0  0  0  0  3  0  0  0  0  0  0
  -26.5250  -26.9830   19.8730 C   0  0  0  0  0  3  0  0  0  0  0  0
  -25.2840  -27.6430   19.7780 C   0  0  0  0  0  3  0  0  0  0  0  0
  -23.8550  -29.7250   20.2490 C   0  0  0  0  0  2  0  0  0  0  0  0
  -24.7280  -31.1350   22.1740 N   0  0  0  0  0  0  0  0  0  0  0  0
  -23.4510  -32.1970   23.7160 O   0  0  0  0  0  0  0  0  0  0  0  0
  -22.8810  -29.4270   22.5470 C   0  0  0  0  0  0  0  0  0  0  0  0
  -21.5740  -29.1820   22.3580 N   0  0  0  0  0  0  0  0  0  0  0  0
  -23.5480  -28.8590   23.4160 O   0  0  0  0  0  0  0  0  0  0  0  0
  -21.0960  -29.6960   21.6310 H   0  0  0  0  0  0  0  0  0  0  0  0
  -18.2190  -27.9140   22.7720 C   0  0  0  0  0  0  0  0  0  0  0  0
  -20.7610  -28.2310   23.1150 C   0  0  0  0  0  3  0  0  0  0  0  0
  -20.9120  -26.7970   22.5550 C   0  0  0  0  0  2  0  0  0  0  0  0
  -19.8480  -26.4410   21.5130 C   0  0  0  0  0  2  0  0  0  0  0  0
  -18.4450  -26.5620   22.1160 C   0  0  0  0  0  2  0  0  0  0  0  0
  -19.3070  -28.7040   23.2270 C   0  0  0  0  0  0  0  0  0  0  0  0
  -19.0450  -29.9680   23.7970 C   0  0  0  0  0  3  0  0  0  0  0  0
  -17.7260  -30.4440   23.9180 C   0  0  0  0  0  3  0  0  0  0  0  0
  -16.6510  -29.6500   23.4820 C   0  0  0  0  0  3  0  0  0  0  0  0
  -16.8970  -28.3880   22.9140 C   0  0  0  0  0  3  0  0  0  0  0  0
  -25.7920  -32.6780   23.9120 C   0  0  0  0  0  3  0  0  0  0  0  0
  -25.3920  -34.0620   24.1970 N   0  0  0  0  0  0  0  0  0  0  0  0
  -25.7060  -35.1160   23.4330 C   0  0  0  0  0  0  0  0  0  0  0  0
  -26.4360  -35.0310   22.4410 O   0  0  0  0  0  0  0  0  0  0  0  0
  -24.7480  -34.1980   24.9620 H   0  0  0  0  0  0  0  0  0  0  0  0
  -23.9040  -36.7990   22.9490 C   0  0  0  0  0  1  0  0  0  0  0  0
  -25.1200  -36.4820   23.8330 C   0  0  0  0  0  3  0  0  0  0  0  0
  -27.1630  -37.4940   24.7440 C   0  0  0  0  0  1  0  0  0  0  0  0
  -26.0970  -37.5900   23.7520 N   0  0  0  0  0  0  0  0  0  0  0  0
  -25.6340  -38.4870   23.8680 H   0  0  0  0  0  0  0  0  0  0  0  0
  -26.2940  -31.9580   25.2230 C   0  0  1  0  0  0  0  0  0  0  0  0
  -25.1590  -31.6110   26.2160 C   0  0  0  0  0  1  0  0  0  0  0  0
  -27.0360  -30.6470   24.8760 C   0  0  0  0  0  1  0  0  0  0  0  0
  -27.3100  -32.8610   25.9620 C   0  0  0  0  0  1  0  0  0  0  0  0
  1 53  1  0
  1  2  1  0
  2  3  1  0
  3  4  2  0
  5  3  1  0
  5 14  1  0
  5 46  1  0
  6 12  1  0
  6 14  1  0
  7 12  1  0
  8  9  1  0
  8  7  1  0
 10  9  1  0
 10 19  1  0
 10 11  1  0
 12 11  1  0
 13  6  2  0
 14 15  1  0
 16 17  2  0
 17 36  1  0
 18 17  1  0
 18 21  1  0
 19 20  1  0
 19 16  1  0
 20 18  2  0
 21 22  1  0
 22 23  2  0
 24 27  1  0
 24 23  1  0
 25 24  2  0
 26 25  1  0
 26 21  2  0
 27 28  1  0
 28 29  1  0
 29 30  2  0
 31 30  1  0
 31 35  1  0
 32 31  2  0
 33 28  2  0
 33 32  1  0
 34 33  1  0
 36 37  1  0
 37 40  1  0
 37 39  1  0
 38 36  2  0
 41 42  1  0
 41 16  1  0
 43 41  1  0
 45 46  1  0
 46 44  1  0
 47  1  1  0
 48 47  2  0
 49 47  1  0
 51 52  1  0
 52 50  1  0
 52 49  1  0
 54 55  1  0
 54 53  1  0
 55 57  1  0
 56 54  2  0
 58 55  1  0
 58 59  1  0
 59 60  1  0
 60 61  1  0
 62 61  1  0
 63 62  1  0
 64 75  2  0
 65 63  1  0
 65 70  1  0
 66 74  1  0
 66 76  1  0
 67 69  1  0
 68 74  1  0
 69 70  2  0
 69 68  1  0
 71 65  2  0
 72 71  1  0
 72 67  2  0
 73 67  1  0
 73 66  1  0
 74 64  1  0
 76 78  2  0
 77 76  1  0
 79 77  1  0
 80 89  2  0
 80 85  1  0
 81 77  1  0
 81 85  1  0
 82 81  1  0
 83 84  1  0
 83 82  1  0
 84 80  1  0
 85 86  2  0
 86 87  1  0
 88 87  2  0
 89 88  1  0
 90 64  1  0
 90 91  1  0
 90100  1  0
 91 94  1  0
 92 96  1  0
 92 91  1  0
 93 92  2  0
 96 95  1  0
 98 96  1  0
 98 99  1  0
 98 97  1  0
100103  1  1
100101  1  0
102100  1  0
M  ISO  4   6 100  14 100  62 101  63 101
M  END
>  <TORSDO>  (31) 
F 29

>  <SCORE>  (31) 
-10.424

>  <name>  (31) 
31

>  <ligand_id>  (31) 
31

>  <original_smiles>  (31) 
[H]c1c([H])c([H])c2c(c1[H])C([H])([H])C([H])([H])C([H])([H])C2([H])N([H])C(=O)C1([H])N(C(=O)C([H])(N([H])C(=O)C([H])(N([H])C([H])([H])[H])C([H])([H])[H])C(C([H])([H])[H])(C([H])([H])[H])C([H])([H])[H])C([H])([H])c2c([H])c(OC([H])([H])C([H])([H])OC([H])([H])C([H])([H])N([H])C(=O)C([H])([H])C(=NC(=O)C([H])(N([H])C(=O)N3C([H])([H])C([H])([H])C([H])([H])C([H])(n4nc(-c5c([H])c([H])c(Oc6c([H])c([H])c(F)c([H])c6F)c([H])c5[H])c(C(=O)N([H])[H])c4N([H])[H])C3([H])[H])C([H])(C([H])([H])[H])C([H])([H])[H])C(=O)OC([H])(C([H])([H])[H])C([H])([H])[H])c([H])c([H])c2C1([H])[H]

>  <smiles>  (31) 
[H]c1c([H])c([H])c2c(c1[H])C([H])([H])C([H])([H])C([H])([H])C2([H])N([H])C(=O)C1([H])N(C(=O)C([H])(N([H])C(=O)C([H])(N([H])C([H])([H])[H])C([H])([H])[H])C(C([H])([H])[H])(C([H])([H])[H])C([H])([H])[H])C([H])([H])c2c([H])c(OC([H])([H])C([H])([H])OC([H])([H])C([H])([H])N([H])C(=O)C([H])([H])C(=NC(=O)C([H])(N([H])C(=O)N3C([H])([H])C([H])([H])C([H])([H])C([H])(n4nc(-c5c([H])c([H])c(Oc6c([H])c([H])c(F)c([H])c6F)c([H])c5[H])c(C(=O)N([H])[H])c4N([H])[H])C3([H])[H])C([H])(C([H])([H])[H])C([H])([H])[H])C(=O)OC([H])(C([H])([H])[H])C([H])([H])[H])c([H])c([H])c2C1([H])[H]

$$$$
32:0:0
     RDKit          3D

 99106  0  0  1  0  0  0  0  0999 V2000
  -32.9840  -21.0390   18.9110 O   0  0  0  0  0  0  0  0  0  0  0  0
  -33.6900  -22.2320   19.2300 C   0  0  0  0  0  2  0  0  0  0  0  0
  -32.7020  -23.4030   19.3100 C   0  0  0  0  0  2  0  0  0  0  0  0
  -31.7190  -23.1760   20.3140 O   0  0  0  0  0  0  0  0  0  0  0  0
  -31.3180  -24.3650   20.9840 C   0  0  0  0  0  2  0  0  0  0  0  0
  -29.8850  -24.2020   21.5340 C   0  0  0  0  0  2  0  0  0  0  0  0
  -28.8940  -24.9500   20.8190 O   0  0  0  0  0  0  0  0  0  0  0  0
  -28.8150  -24.6930   19.4130 C   0  0  0  0  0  2  0  0  0  0  0  0
  -27.6060  -25.4060   18.7590 C   0  0  0  0  0  2  0  0  0  0  0  0
  -27.7150  -26.8240   18.9120 O   0  0  0  0  0  0  0  0  0  0  0  0
  -24.8050  -31.5200   23.3600 C   0  0  0  0  0  0  0  0  0  0  0  0
  -26.5810  -27.5610   19.2030 C   0  0  0  0  0  0  0  0  0  0  0  0
  -23.2540  -30.5630   21.6840 C   0  0  0  0  0  3  0  0  0  0  0  0
  -24.3490  -29.1980   19.8210 C   0  0  0  0  0  0  0  0  0  0  0  0
  -25.7530  -30.7560   21.1880 C   0  0  0  0  0  2  0  0  0  0  0  0
  -25.6190  -29.5250   20.3150 C   0  0  0  0  0  0  0  0  0  0  0  0
  -26.7300  -28.7180   19.9990 C   0  0  0  0  0  3  0  0  0  0  0  0
  -25.2940  -27.2360   18.7120 C   0  0  0  0  0  3  0  0  0  0  0  0
  -24.1820  -28.0550   19.0160 C   0  0  0  0  0  3  0  0  0  0  0  0
  -23.2130  -30.1260   20.1930 C   0  0  0  0  0  2  0  0  0  0  0  0
  -24.6300  -30.9490   22.1360 N   0  0  0  0  0  0  0  0  0  0  0  0
  -23.8370  -31.7720   24.0930 O   0  0  0  0  0  0  0  0  0  0  0  0
  -22.6240  -29.4370   22.5370 C   0  0  0  0  0  0  0  0  0  0  0  0
  -21.2960  -29.2710   22.4240 N   0  0  0  0  0  0  0  0  0  0  0  0
  -23.3240  -28.7230   23.2570 O   0  0  0  0  0  0  0  0  0  0  0  0
  -20.7870  -29.9030   21.8230 H   0  0  0  0  0  0  0  0  0  0  0  0
  -17.9850  -27.8460   22.6470 C   0  0  0  0  0  0  0  0  0  0  0  0
  -20.4990  -28.2440   23.0940 C   0  0  0  0  0  3  0  0  0  0  0  0
  -20.7290  -26.8550   22.4560 C   0  0  0  0  0  2  0  0  0  0  0  0
  -19.7130  -26.5200   21.3600 C   0  0  0  0  0  2  0  0  0  0  0  0
  -18.2880  -26.5460   21.9200 C   0  0  0  0  0  2  0  0  0  0  0  0
  -19.0250  -28.6500   23.1850 C   0  0  0  0  0  0  0  0  0  0  0  0
  -18.6900  -29.8650   23.8200 C   0  0  0  0  0  3  0  0  0  0  0  0
  -17.3490  -30.2790   23.9270 C   0  0  0  0  0  3  0  0  0  0  0  0
  -16.3230  -29.4700   23.4070 C   0  0  0  0  0  3  0  0  0  0  0  0
  -16.6410  -28.2550   22.7730 C   0  0  0  0  0  3  0  0  0  0  0  0
  -26.2190  -31.9120   23.8900 C   0  0  0  0  0  3  0  0  0  0  0  0
  -26.1240  -33.2740   24.4340 N   0  0  0  0  0  0  0  0  0  0  0  0
  -26.5270  -34.3780   23.7880 C   0  0  0  0  0  0  0  0  0  0  0  0
  -27.0850  -34.3450   22.6880 O   0  0  0  0  0  0  0  0  0  0  0  0
  -25.6220  -33.3800   25.3020 H   0  0  0  0  0  0  0  0  0  0  0  0
  -25.0170  -36.3890   23.8660 C   0  0  0  0  0  1  0  0  0  0  0  0
  -26.2680  -35.7330   24.4730 C   0  0  0  0  0  3  0  0  0  0  0  0
  -28.5690  -36.2470   25.1660 C   0  0  0  0  0  1  0  0  0  0  0  0
  -27.4110  -36.6670   24.3800 N   0  0  0  0  0  0  0  0  0  0  0  0
  -27.1410  -37.5970   24.6860 H   0  0  0  0  0  0  0  0  0  0  0  0
  -26.7750  -30.9160   24.9790 C   0  0  1  0  0  0  0  0  0  0  0  0
  -25.7940  -30.6670   26.1490 C   0  0  0  0  0  1  0  0  0  0  0  0
  -27.1150  -29.5450   24.3470 C   0  0  0  0  0  1  0  0  0  0  0  0
  -28.0970  -31.4650   25.5690 C   0  0  0  0  0  1  0  0  0  0  0  0
  -33.7410  -20.1690   18.0830 C   0  0  0  0  0  2  0  0  0  0  0  0
  -32.9840  -18.8480   17.9300 C   0  0  0  0  0  2  0  0  0  0  0  0
  -32.0940  -17.0800   19.3780 C   0  0  0  0  0  0  0  0  0  0  0  0
  -32.7550  -18.2270   19.2300 N   0  0  0  0  0  0  0  0  0  0  0  0
  -31.6470  -16.4630   18.4070 O   0  0  0  0  0  0  0  0  0  0  0  0
  -33.0850  -18.7220   20.0460 H   0  0  0  0  0  0  0  0  0  0  0  0
  -31.8510  -16.5480   20.8150 C   0  0  0  0  0  3  0  0  0  0  0  0
  -31.9530  -14.0850   20.2290 C   0  0  0  0  0  0  0  0  0  0  0  0
  -31.3440  -12.0350   19.0200 C   0  0  0  0  0  2  0  0  0  0  0  0
  -30.4610  -12.4400   17.8240 C   0  0  0  0  0  2  0  0  0  0  0  0
  -28.9740  -12.5100   18.2360 C   0  0  0  0  0  2  0  0  0  0  0  0
  -28.7520  -13.3220   19.5440 C   0  0  0  0  0  3  0  0  0  0  0  0
  -29.7610  -12.9020   20.6380 C   0  0  0  0  0  2  0  0  0  0  0  0
  -31.1210  -13.0240   20.0830 N   0  0  0  0  0  0  0  0  0  0  0  0
  -33.0850  -14.1280   19.7380 O   0  0  0  0  0  0  0  0  0  0  0  0
  -31.3980  -15.1490   20.8330 N   0  0  0  0  0  0  0  0  0  0  0  0
  -30.4890  -14.9980   21.2330 H   0  0  0  0  0  0  0  0  0  0  0  0
  -26.4570  -14.2370   20.2760 C   0  0  0  0  0  0  0  0  0  0  0  0
  -25.2930  -13.6120   20.6320 C   0  0  0  0  0  0  0  0  0  0  0  0
  -25.5620  -12.2100   20.5670 C   0  0  0  0  0  0  0  0  0  0  0  0
  -27.3720  -13.2260   20.0170 N   0  0  0  0  0  0  0  0  0  0  0  0
  -26.8330  -12.0000   20.2440 N   0  0  0  0  0  0  0  0  0  0  0  0
  -24.6650  -11.0580   20.7330 C   0  0  0  0  0  0  0  0  0  0  0  0
  -24.9990   -9.9790   21.5810 C   0  0  0  0  0  3  0  0  0  0  0  0
  -24.1160   -8.8910   21.7370 C   0  0  0  0  0  3  0  0  0  0  0  0
  -22.8820   -8.8750   21.0460 C   0  0  0  0  0  0  0  0  0  0  0  0
  -22.5620   -9.9420   20.1890 C   0  0  0  0  0  3  0  0  0  0  0  0
  -23.4450  -11.0230   20.0310 C   0  0  0  0  0  3  0  0  0  0  0  0
  -21.9690   -7.8510   21.1200 O   0  0  0  0  0  0  0  0  0  0  0  0
  -21.8970   -7.0260   22.2140 C   0  0  0  0  0  0  0  0  0  0  0  0
  -21.6660   -7.5310   23.5120 C   0  0  0  0  0  3  0  0  0  0  0  0
  -21.5290   -6.6420   24.5970 C   0  0  0  0  0  3  0  0  0  0  0  0
  -21.6140   -5.2530   24.3860 C   0  0  0  0  0  0  0  0  0  0  0  0
  -21.8330   -4.7490   23.0920 C   0  0  0  0  0  3  0  0  0  0  0  0
  -21.9710   -5.6340   22.0080 C   0  0  0  0  0  0  0  0  0  0  0  0
  -22.1650   -5.1400   20.7600 F   0  0  0  0  0  0  0  0  0  0  0  0
  -21.4710   -4.4010   25.4270 F   0  0  0  0  0  0  0  0  0  0  0  0
  -23.9770  -14.2760   20.9240 C   0  0  0  0  0  0  0  0  0  0  0  0
  -23.1720  -13.6940   21.8050 N   0  0  0  0  0  0  0  0  0  0  0  0
  -23.6750  -15.3510   20.4060 O   0  0  0  0  0  0  0  0  0  0  0  0
  -23.4250  -12.8280   22.2570 H   0  0  0  0  0  0  0  0  0  0  0  0
  -22.2900  -14.1290   22.0340 H   0  0  0  0  0  0  0  0  0  0  0  0
  -26.8080  -15.5740   20.1260 N   0  0  0  0  0  0  0  0  0  0  0  0
  -26.1340  -16.3240   20.2290 H   0  0  0  0  0  0  0  0  0  0  0  0
  -27.7100  -15.8940   19.8000 H   0  0  0  0  0  0  0  0  0  0  0  0
  -29.4280  -17.4180   21.0270 C   0  0  0  0  0  1  0  0  0  0  0  0
  -30.8510  -17.4310   21.6290 C   0  0  0  0  0  3  0  0  0  0  0  0
  -30.5100  -18.2770   24.0570 C   0  0  0  0  0  1  0  0  0  0  0  0
  -30.8090  -17.0800   23.1360 C   0  0  0  0  0  2  0  0  0  0  0  0
  1  2  1  0
  2  3  1  0
  3  4  1  0
  4  5  1  0
  5  6  1  0
  7  6  1  0
  8  7  1  0
  9 10  1  0
  9  8  1  0
 10 12  1  0
 11 22  2  0
 12 17  1  0
 13 21  1  0
 13 23  1  0
 14 20  1  0
 14 16  1  0
 15 21  1  0
 16 15  1  0
 17 16  2  0
 18 19  1  0
 18 12  2  0
 19 14  2  0
 20 13  1  0
 21 11  1  0
 23 25  2  0
 24 23  1  0
 26 24  1  0
 27 36  2  0
 27 32  1  0
 28 24  1  0
 28 32  1  0
 29 28  1  0
 30 31  1  0
 30 29  1  0
 31 27  1  0
 32 33  2  0
 33 34  1  0
 35 34  2  0
 36 35  1  0
 37 11  1  0
 37 38  1  0
 37 47  1  0
 38 41  1  0
 39 38  1  0
 39 43  1  0
 40 39  2  0
 43 42  1  0
 45 43  1  0
 45 46  1  0
 45 44  1  0
 47 50  1  1
 47 48  1  0
 49 47  1  0
 51  1  1  0
 52 51  1  0
 52 54  1  0
 54 53  1  0
 54 56  1  0
 55 53  2  0
 57 53  1  0
 57 66  1  0
 57 97  1  0
 58 66  1  0
 59 64  1  0
 60 61  1  0
 60 59  1  0
 62 61  1  0
 62 71  1  0
 62 63  1  0
 64 58  1  0
 64 63  1  0
 65 58  2  0
 66 67  1  0
 68 69  2  0
 69 88  1  0
 70 69  1  0
 70 73  1  0
 71 72  1  0
 71 68  1  0
 72 70  2  0
 73 74  1  0
 74 75  2  0
 76 79  1  0
 76 75  1  0
 77 76  2  0
 78 77  1  0
 78 73  2  0
 79 80  1  0
 80 81  1  0
 81 82  2  0
 83 82  1  0
 83 87  1  0
 84 83  2  0
 85 80  2  0
 85 84  1  0
 86 85  1  0
 88 89  1  0
 89 92  1  0
 89 91  1  0
 90 88  2  0
 93 94  1  0
 93 68  1  0
 95 93  1  0
 97 96  1  0
 97 99  1  0
 99 98  1  0
M  ISO  4   9 101  10 101  58 100  66 100
M  END
>  <TORSDO>  (32) 
F 30

>  <SCORE>  (32) 
-8.569

>  <name>  (32) 
32

>  <ligand_id>  (32) 
32

>  <original_smiles>  (32) 
[H]c1c([H])c([H])c2c(c1[H])C([H])([H])C([H])([H])C([H])([H])C2([H])N([H])C(=O)C1([H])N(C(=O)C([H])(N([H])C(=O)C([H])(N([H])C([H])([H])[H])C([H])([H])[H])C(C([H])([H])[H])(C([H])([H])[H])C([H])([H])[H])C([H])([H])c2c([H])c(OC([H])([H])C([H])([H])OC([H])([H])C([H])([H])OC([H])([H])C([H])([H])OC([H])([H])C([H])([H])N([H])C(=O)C([H])(N([H])C(=O)N3C([H])([H])C([H])([H])C([H])([H])C([H])(n4nc(-c5c([H])c([H])c(Oc6c([H])c([H])c(F)c([H])c6F)c([H])c5[H])c(C(=O)N([H])[H])c4N([H])[H])C3([H])[H])C([H])(C([H])([H])[H])C([H])([H])C([H])([H])[H])c([H])c([H])c2C1([H])[H]

>  <smiles>  (32) 
[H]c1c([H])c([H])c2c(c1[H])C([H])([H])C([H])([H])C([H])([H])C2([H])N([H])C(=O)C1([H])N(C(=O)C([H])(N([H])C(=O)C([H])(N([H])C([H])([H])[H])C([H])([H])[H])C(C([H])([H])[H])(C([H])([H])[H])C([H])([H])[H])C([H])([H])c2c([H])c(OC([H])([H])C([H])([H])OC([H])([H])C([H])([H])OC([H])([H])C([H])([H])OC([H])([H])C([H])([H])N([H])C(=O)C([H])(N([H])C(=O)N3C([H])([H])C([H])([H])C([H])([H])C([H])(n4nc(-c5c([H])c([H])c(Oc6c([H])c([H])c(F)c([H])c6F)c([H])c5[H])c(C(=O)N([H])[H])c4N([H])[H])C3([H])[H])C([H])(C([H])([H])[H])C([H])([H])C([H])([H])[H])c([H])c([H])c2C1([H])[H]

$$$$
33:0:0
     RDKit          3D

103110  0  0  1  0  0  0  0  0999 V2000
  -33.5580  -20.7220   16.2850 C   0  0  0  0  0  2  0  0  0  0  0  0
  -32.1940  -20.9550   15.9670 O   0  0  0  0  0  0  0  0  0  0  0  0
  -31.5710  -19.8750   15.2880 C   0  0  0  0  0  2  0  0  0  0  0  0
  -30.0550  -20.0910   15.3640 C   0  0  0  0  0  2  0  0  0  0  0  0
  -29.6970  -20.1130   16.7370 O   0  0  0  0  0  0  0  0  0  0  0  0
  -28.3050  -20.2700   16.9680 C   0  0  0  0  0  2  0  0  0  0  0  0
  -28.1410  -20.8670   18.3680 C   0  0  0  0  0  2  0  0  0  0  0  0
  -28.5410  -22.2320   18.3240 O   0  0  0  0  0  0  0  0  0  0  0  0
  -28.5480  -22.8440   19.6030 C   0  0  0  0  0  2  0  0  0  0  0  0
  -28.8200  -24.3450   19.4430 C   0  0  0  0  0  2  0  0  0  0  0  0
  -28.7550  -25.0880   20.7880 C   0  0  0  0  0  2  0  0  0  0  0  0
  -28.7380  -26.5070   20.6210 O   0  0  0  0  0  0  0  0  0  0  0  0
  -24.5050  -31.6050   23.1710 C   0  0  0  0  0  0  0  0  0  0  0  0
  -27.5120  -27.1290   20.5130 C   0  0  0  0  0  0  0  0  0  0  0  0
  -23.4470  -30.0380   21.5740 C   0  0  0  0  0  3  0  0  0  0  0  0
  -25.0400  -28.4910   20.3250 C   0  0  0  0  0  0  0  0  0  0  0  0
  -25.9570  -30.5190   21.4630 C   0  0  0  0  0  2  0  0  0  0  0  0
  -26.1410  -29.1170   20.9200 C   0  0  0  0  0  0  0  0  0  0  0  0
  -27.3780  -28.4450   21.0080 C   0  0  0  0  0  3  0  0  0  0  0  0
  -26.3860  -26.5090   19.9200 C   0  0  0  0  0  3  0  0  0  0  0  0
  -25.1560  -27.1830   19.8220 C   0  0  0  0  0  3  0  0  0  0  0  0
  -23.7540  -29.2800   20.2550 C   0  0  0  0  0  2  0  0  0  0  0  0
  -24.6520  -30.7390   22.1290 N   0  0  0  0  0  0  0  0  0  0  0  0
  -23.3880  -31.8550   23.6440 O   0  0  0  0  0  0  0  0  0  0  0  0
  -22.8030  -29.0490   22.5710 C   0  0  0  0  0  0  0  0  0  0  0  0
  -21.4910  -28.8120   22.4130 N   0  0  0  0  0  0  0  0  0  0  0  0
  -23.4810  -28.4950   23.4390 O   0  0  0  0  0  0  0  0  0  0  0  0
  -21.0040  -29.3120   21.6820 H   0  0  0  0  0  0  0  0  0  0  0  0
  -18.1380  -27.5530   22.8900 C   0  0  0  0  0  0  0  0  0  0  0  0
  -20.6800  -27.8920   23.2090 C   0  0  0  0  0  3  0  0  0  0  0  0
  -20.8340  -26.4380   22.7060 C   0  0  0  0  0  2  0  0  0  0  0  0
  -19.7660  -26.0380   21.6840 C   0  0  0  0  0  2  0  0  0  0  0  0
  -18.3650  -26.1770   22.2860 C   0  0  0  0  0  2  0  0  0  0  0  0
  -19.2260  -28.3640   23.3080 C   0  0  0  0  0  0  0  0  0  0  0  0
  -18.9610  -29.6500   23.8290 C   0  0  0  0  0  3  0  0  0  0  0  0
  -17.6420  -30.1260   23.9370 C   0  0  0  0  0  3  0  0  0  0  0  0
  -16.5670  -29.3120   23.5360 C   0  0  0  0  0  3  0  0  0  0  0  0
  -16.8160  -28.0280   23.0180 C   0  0  0  0  0  3  0  0  0  0  0  0
  -25.7290  -32.3390   23.8030 C   0  0  0  0  0  3  0  0  0  0  0  0
  -26.2950  -31.6140   25.0860 C   0  0  1  0  0  0  0  0  0  0  0  0
  -25.2140  -31.2800   26.1390 C   0  0  0  0  0  1  0  0  0  0  0  0
  -27.0010  -30.2940   24.6970 C   0  0  0  0  0  1  0  0  0  0  0  0
  -27.3640  -32.5030   25.7610 C   0  0  0  0  0  1  0  0  0  0  0  0
  -25.3050  -33.7080   24.1240 N   0  0  0  0  0  0  0  0  0  0  0  0
  -25.5650  -34.7810   23.3640 C   0  0  0  0  0  0  0  0  0  0  0  0
  -26.2560  -34.7280   22.3430 O   0  0  0  0  0  0  0  0  0  0  0  0
  -24.6890  -33.8170   24.9160 H   0  0  0  0  0  0  0  0  0  0  0  0
  -23.7040  -36.4250   22.9730 C   0  0  0  0  0  1  0  0  0  0  0  0
  -24.9600  -36.1270   23.8070 C   0  0  0  0  0  3  0  0  0  0  0  0
  -27.0030  -37.1810   24.6650 C   0  0  0  0  0  1  0  0  0  0  0  0
  -25.9060  -37.2600   23.7060 N   0  0  0  0  0  0  0  0  0  0  0  0
  -25.4250  -38.1430   23.8490 H   0  0  0  0  0  0  0  0  0  0  0  0
  -33.9800  -21.7760   17.3200 C   0  0  0  0  0  2  0  0  0  0  0  0
  -33.1700  -21.7390   18.4960 O   0  0  0  0  0  0  0  0  0  0  0  0
  -33.3600  -20.6230   19.3600 C   0  0  0  0  0  2  0  0  0  0  0  0
  -32.5110  -19.4040   18.9480 C   0  0  0  0  0  2  0  0  0  0  0  0
  -31.6550  -17.3720   20.0970 C   0  0  0  0  0  0  0  0  0  0  0  0
  -32.4910  -18.4130   20.0200 N   0  0  0  0  0  0  0  0  0  0  0  0
  -30.8440  -17.1100   19.2050 O   0  0  0  0  0  0  0  0  0  0  0  0
  -33.1410  -18.5460   20.7830 H   0  0  0  0  0  0  0  0  0  0  0  0
  -31.7340  -16.5010   21.3800 C   0  0  0  0  0  3  0  0  0  0  0  0
  -31.7420  -14.2200   20.3210 C   0  0  0  0  0  0  0  0  0  0  0  0
  -31.2480  -12.1330   19.1030 C   0  0  0  0  0  2  0  0  0  0  0  0
  -30.3480  -12.4320   17.8880 C   0  0  0  0  0  2  0  0  0  0  0  0
  -28.8600  -12.4360   18.2900 C   0  0  0  0  0  2  0  0  0  0  0  0
  -28.5830  -13.2960   19.5520 C   0  0  0  0  0  3  0  0  0  0  0  0
  -29.5880  -12.9550   20.6730 C   0  0  0  0  0  2  0  0  0  0  0  0
  -30.9520  -13.1310   20.1400 N   0  0  0  0  0  0  0  0  0  0  0  0
  -32.8300  -14.3730   19.7610 O   0  0  0  0  0  0  0  0  0  0  0  0
  -31.2290  -15.1470   21.1370 N   0  0  0  0  0  0  0  0  0  0  0  0
  -30.3310  -14.9350   21.5380 H   0  0  0  0  0  0  0  0  0  0  0  0
  -26.2140  -14.1190   20.1380 C   0  0  0  0  0  0  0  0  0  0  0  0
  -25.0850  -13.4510   20.5310 C   0  0  0  0  0  0  0  0  0  0  0  0
  -25.4510  -12.0730   20.6140 C   0  0  0  0  0  0  0  0  0  0  0  0
  -27.2010  -13.1540   20.0050 N   0  0  0  0  0  0  0  0  0  0  0  0
  -26.7430  -11.9220   20.3480 N   0  0  0  0  0  0  0  0  0  0  0  0
  -24.6330  -10.8810   20.8770 C   0  0  0  0  0  0  0  0  0  0  0  0
  -24.9780   -9.9600   21.8910 C   0  0  0  0  0  3  0  0  0  0  0  0
  -24.1690   -8.8300   22.1390 C   0  0  0  0  0  3  0  0  0  0  0  0
  -22.9980   -8.6150   21.3710 C   0  0  0  0  0  0  0  0  0  0  0  0
  -22.6720   -9.5220   20.3480 C   0  0  0  0  0  3  0  0  0  0  0  0
  -23.4820  -10.6440   20.1000 C   0  0  0  0  0  3  0  0  0  0  0  0
  -22.1660   -7.5330   21.5230 O   0  0  0  0  0  0  0  0  0  0  0  0
  -22.0370   -6.8850   22.7250 C   0  0  0  0  0  0  0  0  0  0  0  0
  -21.6330   -7.5610   23.8970 C   0  0  0  0  0  3  0  0  0  0  0  0
  -21.4480   -6.8430   25.0950 C   0  0  0  0  0  3  0  0  0  0  0  0
  -21.6560   -5.4510   25.1210 C   0  0  0  0  0  0  0  0  0  0  0  0
  -22.0510   -4.7750   23.9540 C   0  0  0  0  0  3  0  0  0  0  0  0
  -22.2390   -5.4910   22.7580 C   0  0  0  0  0  0  0  0  0  0  0  0
  -22.6000   -4.8310   21.6300 F   0  0  0  0  0  0  0  0  0  0  0  0
  -21.4700   -4.7590   26.2710 F   0  0  0  0  0  0  0  0  0  0  0  0
  -23.7170  -14.0410   20.7250 C   0  0  0  0  0  0  0  0  0  0  0  0
  -22.9320  -13.4760   21.6370 N   0  0  0  0  0  0  0  0  0  0  0  0
  -23.3540  -15.0360   20.1010 O   0  0  0  0  0  0  0  0  0  0  0  0
  -23.2380  -12.6730   22.1640 H   0  0  0  0  0  0  0  0  0  0  0  0
  -22.0100  -13.8540   21.8090 H   0  0  0  0  0  0  0  0  0  0  0  0
  -26.4800  -15.4590   19.8670 N   0  0  0  0  0  0  0  0  0  0  0  0
  -25.7620  -16.1740   19.9130 H   0  0  0  0  0  0  0  0  0  0  0  0
  -27.3750  -15.8130   19.5540 H   0  0  0  0  0  0  0  0  0  0  0  0
  -31.4290  -18.5580   22.8990 C   0  0  0  0  0  1  0  0  0  0  0  0
  -31.3160  -16.2840   23.8820 C   0  0  0  0  0  1  0  0  0  0  0  0
  -29.4430  -17.1060   22.4240 C   0  0  0  0  0  1  0  0  0  0  0  0
  -30.9790  -17.1070   22.6190 C   0  0  2  0  0  0  0  0  0  0  0  0
  1 53  1  0
  2  1  1  0
  3  4  1  0
  3  2  1  0
  4  5  1  0
  5  6  1  0
  6  7  1  0
  8  7  1  0
  8  9  1  0
 10  9  1  0
 10 11  1  0
 12 11  1  0
 13 24  2  0
 14 12  1  0
 14 19  1  0
 15 23  1  0
 15 25  1  0
 16 18  1  0
 17 23  1  0
 18 19  2  0
 18 17  1  0
 20 14  2  0
 21 20  1  0
 21 16  2  0
 22 16  1  0
 22 15  1  0
 23 13  1  0
 25 27  2  0
 26 25  1  0
 28 26  1  0
 29 38  2  0
 29 34  1  0
 30 26  1  0
 30 34  1  0
 31 30  1  0
 32 33  1  0
 32 31  1  0
 33 29  1  0
 34 35  2  0
 35 36  1  0
 37 36  2  0
 38 37  1  0
 39 13  1  0
 39 44  1  0
 39 40  1  0
 40 43  1  1
 40 41  1  0
 42 40  1  0
 44 47  1  0
 45 49  1  0
 45 44  1  0
 46 45  2  0
 49 48  1  0
 51 49  1  0
 51 52  1  0
 51 50  1  0
 53 54  1  0
 54 55  1  0
 56 55  1  0
 56 58  1  0
 58 57  1  0
 58 60  1  0
 59 57  2  0
 61 57  1  0
 61103  1  0
 62 70  1  0
 63 68  1  0
 64 65  1  0
 64 63  1  0
 66 65  1  0
 66 75  1  0
 66 67  1  0
 68 62  1  0
 68 67  1  0
 69 62  2  0
 70 61  1  0
 70 71  1  0
 72 73  2  0
 73 74  1  0
 73 92  1  0
 74 77  1  0
 75 72  1  0
 75 76  1  0
 76 74  2  0
 77 78  1  0
 78 79  2  0
 80 83  1  0
 80 79  1  0
 81 80  2  0
 82 81  1  0
 82 77  2  0
 83 84  1  0
 84 89  2  0
 84 85  1  0
 85 86  2  0
 86 87  1  0
 87 91  1  0
 88 87  2  0
 89 88  1  0
 90 89  1  0
 92 93  1  0
 93 96  1  0
 93 95  1  0
 94 92  2  0
 97 98  1  0
 97 72  1  0
 99 97  1  0
103102  1  6
103100  1  0
103101  1  0
M  ISO  4  11 101  12 101  62 100  70 100
M  END
>  <TORSDO>  (33) 
F 33

>  <SCORE>  (33) 
-5.832

>  <name>  (33) 
33

>  <ligand_id>  (33) 
33

>  <original_smiles>  (33) 
[H]c1c([H])c([H])c2c(c1[H])C([H])([H])C([H])([H])C([H])([H])C2([H])N([H])C(=O)C1([H])N(C(=O)C([H])(N([H])C(=O)C([H])(N([H])C([H])([H])[H])C([H])([H])[H])C(C([H])([H])[H])(C([H])([H])[H])C([H])([H])[H])C([H])([H])c2c([H])c(OC([H])([H])C([H])([H])C([H])([H])OC([H])([H])C([H])([H])OC([H])([H])C([H])([H])OC([H])([H])C([H])([H])OC([H])([H])C([H])([H])N([H])C(=O)C([H])(N([H])C(=O)N3C([H])([H])C([H])([H])C([H])([H])C([H])(n4nc(-c5c([H])c([H])c(Oc6c([H])c([H])c(F)c([H])c6F)c([H])c5[H])c(C(=O)N([H])[H])c4N([H])[H])C3([H])[H])C(C([H])([H])[H])(C([H])([H])[H])C([H])([H])[H])c([H])c([H])c2C1([H])[H]

>  <smiles>  (33) 
[H]c1c([H])c([H])c2c(c1[H])C([H])([H])C([H])([H])C([H])([H])C2([H])N([H])C(=O)C1([H])N(C(=O)C([H])(N([H])C(=O)C([H])(N([H])C([H])([H])[H])C([H])([H])[H])C(C([H])([H])[H])(C([H])([H])[H])C([H])([H])[H])C([H])([H])c2c([H])c(OC([H])([H])C([H])([H])C([H])([H])OC([H])([H])C([H])([H])OC([H])([H])C([H])([H])OC([H])([H])C([H])([H])OC([H])([H])C([H])([H])N([H])C(=O)C([H])(N([H])C(=O)N3C([H])([H])C([H])([H])C([H])([H])C([H])(n4nc(-c5c([H])c([H])c(Oc6c([H])c([H])c(F)c([H])c6F)c([H])c5[H])c(C(=O)N([H])[H])c4N([H])[H])C3([H])[H])C(C([H])([H])[H])(C([H])([H])[H])C([H])([H])[H])c([H])c([H])c2C1([H])[H]

$$$$
34:0:0
     RDKit          3D

101108  0  0  1  0  0  0  0  0999 V2000
  -27.8350  -20.3990   17.6420 C   0  0  0  0  0  0  0  0  0  0  0  0
  -27.7970  -19.9490   16.4900 O   0  0  0  0  0  0  0  0  0  0  0  0
  -28.3130  -21.8640   17.8840 C   0  0  0  0  0  0  0  0  0  0  0  0
  -29.0810  -22.3200   16.8830 N   0  0  0  0  0  0  0  0  0  0  0  0
  -28.0090  -22.5440   18.8670 O   0  0  0  0  0  0  0  0  0  0  0  0
  -29.2460  -21.6710   16.1220 H   0  0  0  0  0  0  0  0  0  0  0  0
  -29.5680  -23.6900   16.7640 C   0  0  0  0  0  2  0  0  0  0  0  0
  -30.7330  -23.9780   17.7300 C   0  0  0  0  0  2  0  0  0  0  0  0
  -30.9330  -25.3820   17.8640 O   0  0  0  0  0  0  0  0  0  0  0  0
  -30.4810  -25.9240   19.1060 C   0  0  0  0  0  2  0  0  0  0  0  0
  -28.9470  -26.0040   19.2190 C   0  0  0  0  0  2  0  0  0  0  0  0
  -28.6160  -26.8030   20.3480 O   0  0  0  0  0  0  0  0  0  0  0  0
  -24.6350  -31.8650   23.3110 C   0  0  0  0  0  0  0  0  0  0  0  0
  -27.4050  -27.4520   20.3230 C   0  0  0  0  0  0  0  0  0  0  0  0
  -23.4850  -30.4480   21.6370 C   0  0  0  0  0  3  0  0  0  0  0  0
  -24.9890  -28.9080   20.2700 C   0  0  0  0  0  0  0  0  0  0  0  0
  -26.0080  -30.8210   21.5160 C   0  0  0  0  0  2  0  0  0  0  0  0
  -26.1180  -29.4450   20.8980 C   0  0  0  0  0  0  0  0  0  0  0  0
  -27.3230  -28.7160   20.9380 C   0  0  0  0  0  3  0  0  0  0  0  0
  -26.2550  -26.9070   19.7080 C   0  0  0  0  0  3  0  0  0  0  0  0
  -25.0480  -27.6320   19.6800 C   0  0  0  0  0  3  0  0  0  0  0  0
  -23.7390  -29.7590   20.2700 C   0  0  0  0  0  2  0  0  0  0  0  0
  -24.7250  -31.0600   22.2150 N   0  0  0  0  0  0  0  0  0  0  0  0
  -23.5360  -32.1370   23.8160 O   0  0  0  0  0  0  0  0  0  0  0  0
  -22.8090  -29.4300   22.5830 C   0  0  0  0  0  0  0  0  0  0  0  0
  -21.4880  -29.2560   22.4240 N   0  0  0  0  0  0  0  0  0  0  0  0
  -23.4720  -28.8000   23.4110 O   0  0  0  0  0  0  0  0  0  0  0  0
  -21.0170  -29.8180   21.7280 H   0  0  0  0  0  0  0  0  0  0  0  0
  -18.0900  -28.1150   22.8600 C   0  0  0  0  0  0  0  0  0  0  0  0
  -20.6460  -28.3220   23.1720 C   0  0  0  0  0  3  0  0  0  0  0  0
  -20.7330  -26.8970   22.5780 C   0  0  0  0  0  2  0  0  0  0  0  0
  -19.6400  -26.6060   21.5460 C   0  0  0  0  0  2  0  0  0  0  0  0
  -18.2520  -26.7690   22.1720 C   0  0  0  0  0  2  0  0  0  0  0  0
  -19.2160  -28.8510   23.3140 C   0  0  0  0  0  0  0  0  0  0  0  0
  -19.0100  -30.1130   23.9140 C   0  0  0  0  0  3  0  0  0  0  0  0
  -17.7130  -30.6360   24.0660 C   0  0  0  0  0  3  0  0  0  0  0  0
  -16.6020  -29.8950   23.6290 C   0  0  0  0  0  3  0  0  0  0  0  0
  -16.7910  -28.6360   23.0320 C   0  0  0  0  0  3  0  0  0  0  0  0
  -25.9020  -32.5010   23.9670 C   0  0  0  0  0  3  0  0  0  0  0  0
  -25.5850  -33.9020   24.2700 N   0  0  0  0  0  0  0  0  0  0  0  0
  -25.9500  -34.9440   23.5110 C   0  0  0  0  0  0  0  0  0  0  0  0
  -26.6590  -34.8270   22.5080 O   0  0  0  0  0  0  0  0  0  0  0  0
  -24.9600  -34.0690   25.0440 H   0  0  0  0  0  0  0  0  0  0  0  0
  -24.2480  -36.7380   23.0550 C   0  0  0  0  0  1  0  0  0  0  0  0
  -25.4480  -36.3380   23.9300 C   0  0  0  0  0  3  0  0  0  0  0  0
  -27.5440  -37.2240   24.8550 C   0  0  0  0  0  1  0  0  0  0  0  0
  -26.4890  -37.3860   23.8550 N   0  0  0  0  0  0  0  0  0  0  0  0
  -26.0820  -38.3090   23.9720 H   0  0  0  0  0  0  0  0  0  0  0  0
  -26.3770  -31.7390   25.2650 C   0  0  1  0  0  0  0  0  0  0  0  0
  -25.2510  -31.5090   26.2990 C   0  0  0  0  0  1  0  0  0  0  0  0
  -26.9720  -30.3590   24.8990 C   0  0  0  0  0  1  0  0  0  0  0  0
  -27.5060  -32.5380   25.9580 C   0  0  0  0  0  1  0  0  0  0  0  0
  -26.5140  -20.1000   19.9100 C   0  0  0  0  0  1  0  0  0  0  0  0
  -27.4720  -19.5080   18.8590 C   0  0  0  0  0  3  0  0  0  0  0  0
  -28.7840  -17.6150   19.8110 C   0  0  0  0  0  0  0  0  0  0  0  0
  -28.6600  -18.9050   19.4770 N   0  0  0  0  0  0  0  0  0  0  0  0
  -27.8260  -16.8410   19.7760 O   0  0  0  0  0  0  0  0  0  0  0  0
  -29.4820  -19.4880   19.5680 H   0  0  0  0  0  0  0  0  0  0  0  0
  -30.1840  -17.1020   20.2190 C   0  0  0  0  0  3  0  0  0  0  0  0
  -30.7580  -14.7260   20.9160 C   0  0  0  0  0  0  0  0  0  0  0  0
  -30.5640  -12.5630   19.8030 C   0  0  0  0  0  2  0  0  0  0  0  0
  -29.7110  -12.7790   18.5370 C   0  0  0  0  0  2  0  0  0  0  0  0
  -28.2100  -12.6230   18.8570 C   0  0  0  0  0  2  0  0  0  0  0  0
  -27.7700  -13.4360   20.1040 C   0  0  0  0  0  3  0  0  0  0  0  0
  -28.7560  -13.2550   21.2830 C   0  0  0  0  0  2  0  0  0  0  0  0
  -30.1130  -13.5430   20.7970 N   0  0  0  0  0  0  0  0  0  0  0  0
  -31.9660  -14.8700   20.7400 O   0  0  0  0  0  0  0  0  0  0  0  0
  -29.9430  -15.7830   20.8360 N   0  0  0  0  0  0  0  0  0  0  0  0
  -28.9550  -15.5840   20.9100 H   0  0  0  0  0  0  0  0  0  0  0  0
  -25.3070  -13.9840   20.6160 C   0  0  0  0  0  0  0  0  0  0  0  0
  -24.2380  -13.1840   20.9150 C   0  0  0  0  0  0  0  0  0  0  0  0
  -24.7420  -11.8490   20.9520 C   0  0  0  0  0  0  0  0  0  0  0  0
  -26.3950  -13.1330   20.4860 N   0  0  0  0  0  0  0  0  0  0  0  0
  -26.0530  -11.8450   20.7470 N   0  0  0  0  0  0  0  0  0  0  0  0
  -24.0420  -10.5680   21.1100 C   0  0  0  0  0  0  0  0  0  0  0  0
  -24.4270   -9.6330   22.0950 C   0  0  0  0  0  3  0  0  0  0  0  0
  -23.7250   -8.4170   22.2400 C   0  0  0  0  0  3  0  0  0  0  0  0
  -22.6260   -8.1270   21.3990 C   0  0  0  0  0  0  0  0  0  0  0  0
  -22.2610   -9.0520   20.4050 C   0  0  0  0  0  3  0  0  0  0  0  0
  -22.9640  -10.2590   20.2580 C   0  0  0  0  0  3  0  0  0  0  0  0
  -21.9040   -6.9600   21.4490 O   0  0  0  0  0  0  0  0  0  0  0  0
  -21.7790   -6.2410   22.6120 C   0  0  0  0  0  0  0  0  0  0  0  0
  -21.2150   -6.8040   23.7780 C   0  0  0  0  0  3  0  0  0  0  0  0
  -21.0450   -6.0100   24.9300 C   0  0  0  0  0  3  0  0  0  0  0  0
  -21.4260   -4.6550   24.9150 C   0  0  0  0  0  0  0  0  0  0  0  0
  -21.9820   -4.0930   23.7530 C   0  0  0  0  0  3  0  0  0  0  0  0
  -22.1560   -4.8840   22.6040 C   0  0  0  0  0  0  0  0  0  0  0  0
  -22.6730   -4.3310   21.4800 F   0  0  0  0  0  0  0  0  0  0  0  0
  -21.2540   -3.8900   26.0180 F   0  0  0  0  0  0  0  0  0  0  0  0
  -22.8080  -13.6200   21.0670 C   0  0  0  0  0  0  0  0  0  0  0  0
  -22.0400  -12.9230   21.8970 N   0  0  0  0  0  0  0  0  0  0  0  0
  -22.3780  -14.6140   20.4860 O   0  0  0  0  0  0  0  0  0  0  0  0
  -22.3930  -12.1160   22.3890 H   0  0  0  0  0  0  0  0  0  0  0  0
  -21.0800  -13.2020   22.0470 H   0  0  0  0  0  0  0  0  0  0  0  0
  -25.4330  -15.3560   20.4260 N   0  0  0  0  0  0  0  0  0  0  0  0
  -24.6350  -15.9800   20.4780 H   0  0  0  0  0  0  0  0  0  0  0  0
  -26.2960  -15.8490   20.1840 H   0  0  0  0  0  0  0  0  0  0  0  0
  -31.0080  -17.9950   17.8170 C   0  0  0  0  0  1  0  0  0  0  0  0
  -31.1250  -16.9690   18.9580 C   0  0  0  0  0  3  0  0  0  0  0  0
  -32.4660  -17.0820   19.3960 O   0  0  0  0  0  0  0  0  0  0  0  0
  -32.5820  -16.3780   20.0450 H   0  0  0  0  0  0  0  0  0  0  0  0
  1  3  1  0
  1 54  1  0
  2  1  2  0
  3  5  2  0
  4  3  1  0
  6  4  1  0
  7  4  1  0
  7  8  1  0
  8  9  1  0
  9 10  1  0
 10 11  1  0
 11 12  1  0
 13 24  2  0
 14 12  1  0
 14 19  1  0
 15 23  1  0
 15 25  1  0
 16 22  1  0
 16 18  1  0
 17 23  1  0
 18 19  2  0
 18 17  1  0
 20 14  2  0
 21 20  1  0
 21 16  2  0
 22 15  1  0
 23 13  1  0
 25 27  2  0
 26 25  1  0
 28 26  1  0
 29 38  2  0
 29 34  1  0
 30 26  1  0
 30 34  1  0
 31 30  1  0
 32 33  1  0
 32 31  1  0
 33 29  1  0
 34 35  2  0
 35 36  1  0
 37 36  2  0
 38 37  1  0
 39 13  1  0
 39 40  1  0
 39 49  1  0
 40 43  1  0
 41 45  1  0
 41 40  1  0
 42 41  2  0
 45 44  1  0
 47 45  1  0
 47 48  1  0
 47 46  1  0
 49 52  1  1
 49 50  1  0
 51 49  1  0
 54 56  1  0
 54 53  1  0
 56 58  1  0
 56 55  1  0
 57 55  2  0
 59 55  1  0
 59 68  1  0
 61 66  1  0
 62 63  1  0
 62 61  1  0
 64 63  1  0
 64 73  1  0
 64 65  1  0
 66 60  1  0
 66 65  1  0
 67 60  2  0
 68 69  1  0
 68 60  1  0
 70 71  2  0
 71 72  1  0
 71 90  1  0
 72 75  1  0
 73 70  1  0
 73 74  1  0
 74 72  2  0
 75 76  1  0
 76 77  2  0
 78 81  1  0
 78 77  1  0
 79 78  2  0
 80 79  1  0
 80 75  2  0
 81 82  1  0
 82 83  1  0
 83 84  2  0
 85 84  1  0
 85 89  1  0
 86 85  2  0
 87 82  2  0
 87 86  1  0
 88 87  1  0
 90 91  1  0
 91 94  1  0
 91 93  1  0
 92 90  2  0
 95 96  1  0
 95 70  1  0
 97 95  1  0
 99 98  1  0
 99100  1  0
 99 59  1  0
100101  1  0
M  ISO  4  11 101  12 101  60 100  68 100
M  END
>  <TORSDO>  (34) 
F 27

>  <SCORE>  (34) 
-11.242

>  <name>  (34) 
34

>  <ligand_id>  (34) 
34

>  <original_smiles>  (34) 
[H]OC([H])(C([H])([H])[H])C([H])(C(=O)N([H])C([H])(C(=O)C(=O)N([H])C([H])([H])C([H])([H])OC([H])([H])C([H])([H])Oc1c([H])c([H])c2c(c1[H])C([H])([H])N(C(=O)C([H])(N([H])C(=O)C([H])(N([H])C([H])([H])[H])C([H])([H])[H])C(C([H])([H])[H])(C([H])([H])[H])C([H])([H])[H])C([H])(C(=O)N([H])C1([H])c3c([H])c([H])c([H])c([H])c3C([H])([H])C([H])([H])C1([H])[H])C2([H])[H])C([H])([H])[H])N([H])C(=O)N1C([H])([H])C([H])([H])C([H])([H])C([H])(n2nc(-c3c([H])c([H])c(Oc4c([H])c([H])c(F)c([H])c4F)c([H])c3[H])c(C(=O)N([H])[H])c2N([H])[H])C1([H])[H]

>  <smiles>  (34) 
[H]OC([H])(C([H])([H])[H])C([H])(C(=O)N([H])C([H])(C(=O)C(=O)N([H])C([H])([H])C([H])([H])OC([H])([H])C([H])([H])Oc1c([H])c([H])c2c(c1[H])C([H])([H])N(C(=O)C([H])(N([H])C(=O)C([H])(N([H])C([H])([H])[H])C([H])([H])[H])C(C([H])([H])[H])(C([H])([H])[H])C([H])([H])[H])C([H])(C(=O)N([H])C1([H])c3c([H])c([H])c([H])c([H])c3C([H])([H])C([H])([H])C1([H])[H])C2([H])[H])C([H])([H])[H])N([H])C(=O)N1C([H])([H])C([H])([H])C([H])([H])C([H])(n2nc(-c3c([H])c([H])c(Oc4c([H])c([H])c(F)c([H])c4F)c([H])c3[H])c(C(=O)N([H])[H])c2N([H])[H])C1([H])[H]

$$$$
36:0:0
     RDKit          3D

111118  0  0  1  0  0  0  0  0999 V2000
  -25.1000  -23.0710   19.9490 C   0  0  0  0  0  3  0  0  0  0  0  0
  -22.9330  -23.2950   18.6170 C   0  0  0  0  0  0  0  0  0  0  0  0
  -24.1820  -23.6500   18.9500 N   0  0  0  0  0  0  0  0  0  0  0  0
  -22.3630  -22.3120   19.0950 O   0  0  0  0  0  0  0  0  0  0  0  0
  -24.5440  -24.4620   18.4730 H   0  0  0  0  0  0  0  0  0  0  0  0
  -21.3450  -25.2300   18.3840 C   0  0  0  0  0  1  0  0  0  0  0  0
  -22.1940  -24.1940   17.6190 C   0  0  0  0  0  3  0  0  0  0  0  0
  -21.3670  -23.3790   16.7140 N   0  0  0  0  0  4  0  0  0  0  0  0
  -20.7270  -22.8200   17.2510 H   0  0  0  0  0  0  0  0  0  0  0  0
  -21.9570  -22.7540   16.1940 H   0  0  0  0  0  0  0  0  0  0  0  0
  -20.8600  -23.9480   16.0610 H   0  0  0  0  0  0  0  0  0  0  0  0
  -25.9500  -21.8960   19.4030 C   0  0  0  0  0  0  0  0  0  0  0  0
  -25.4160  -21.1860   18.4010 N   0  0  0  0  0  0  0  0  0  0  0  0
  -27.0500  -21.6050   19.8740 O   0  0  0  0  0  0  0  0  0  0  0  0
  -24.5590  -21.5620   17.9990 H   0  0  0  0  0  0  0  0  0  0  0  0
  -25.0370  -19.5230   16.6520 C   0  0  0  0  0  1  0  0  0  0  0  0
  -25.9330  -19.9480   17.8330 C   0  0  0  0  0  3  0  0  0  0  0  0
  -27.3850  -20.1480   17.3600 C   0  0  0  0  0  0  0  0  0  0  0  0
  -28.2970  -20.2530   18.3270 N   0  0  0  0  0  0  0  0  0  0  0  0
  -27.6780  -20.1860   16.1640 O   0  0  0  0  0  0  0  0  0  0  0  0
  -27.9360  -20.2850   19.2760 H   0  0  0  0  0  0  0  0  0  0  0  0
  -30.2730  -21.4690   17.4710 C   0  0  0  0  0  1  0  0  0  0  0  0
  -29.7450  -20.2040   18.1750 C   0  0  0  0  0  3  0  0  0  0  0  0
  -30.3420  -19.9130   19.5580 C   0  0  0  0  0  0  0  0  0  0  0  0
  -30.1950  -18.6680   20.0340 N   0  0  0  0  0  0  0  0  0  0  0  0
  -30.8670  -20.8160   20.2130 O   0  0  0  0  0  0  0  0  0  0  0  0
  -29.7810  -17.9810   19.4230 H   0  0  0  0  0  0  0  0  0  0  0  0
  -30.5660  -18.2120   21.3740 C   0  0  0  0  0  2  0  0  0  0  0  0
  -29.4230  -17.3940   22.0230 C   0  0  0  0  0  2  0  0  0  0  0  0
  -29.0800  -16.2200   21.2880 O   0  0  0  0  0  0  0  0  0  0  0  0
  -30.0440  -15.3620   20.9010 C   0  0  0  0  0  0  0  0  0  0  0  0
  -30.1040  -13.1570   19.7850 C   0  0  0  0  0  2  0  0  0  0  0  0
  -29.2330  -13.2440   18.5140 C   0  0  0  0  0  2  0  0  0  0  0  0
  -27.7550  -12.9500   18.8380 C   0  0  0  0  0  2  0  0  0  0  0  0
  -27.2180  -13.7440   20.0550 C   0  0  0  0  0  3  0  0  0  0  0  0
  -28.1970  -13.6540   21.2450 C   0  0  0  0  0  2  0  0  0  0  0  0
  -29.5300  -14.0670   20.7790 N   0  0  0  0  0  0  0  0  0  0  0  0
  -31.1600  -15.7300   20.5350 O   0  0  0  0  0  0  0  0  0  0  0  0
  -24.7070  -14.0280   20.5700 C   0  0  0  0  0  0  0  0  0  0  0  0
  -23.7250  -13.1220   20.8600 C   0  0  0  0  0  0  0  0  0  0  0  0
  -24.3690  -11.8460   20.8930 C   0  0  0  0  0  0  0  0  0  0  0  0
  -25.8780  -13.2990   20.4330 N   0  0  0  0  0  0  0  0  0  0  0  0
  -25.6720  -11.9820   20.6870 N   0  0  0  0  0  0  0  0  0  0  0  0
  -23.8140  -10.5000   21.0600 C   0  0  0  0  0  0  0  0  0  0  0  0
  -24.2590   -9.6310   22.0810 C   0  0  0  0  0  3  0  0  0  0  0  0
  -23.6850   -8.3500   22.2240 C   0  0  0  0  0  3  0  0  0  0  0  0
  -22.6640   -7.9250   21.3430 C   0  0  0  0  0  0  0  0  0  0  0  0
  -22.2450   -8.7840   20.3100 C   0  0  0  0  0  3  0  0  0  0  0  0
  -22.8160  -10.0590   20.1710 C   0  0  0  0  0  3  0  0  0  0  0  0
  -22.0720   -6.6850   21.3930 O   0  0  0  0  0  0  0  0  0  0  0  0
  -21.8730   -6.0300   22.5790 C   0  0  0  0  0  0  0  0  0  0  0  0
  -21.1410   -6.6140   23.6370 C   0  0  0  0  0  3  0  0  0  0  0  0
  -20.9040   -5.8810   24.8170 C   0  0  0  0  0  3  0  0  0  0  0  0
  -21.3840   -4.5630   24.9350 C   0  0  0  0  0  0  0  0  0  0  0  0
  -22.1070   -3.9780   23.8800 C   0  0  0  0  0  3  0  0  0  0  0  0
  -22.3480   -4.7090   22.7040 C   0  0  0  0  0  0  0  0  0  0  0  0
  -23.0300   -4.1370   21.6810 F   0  0  0  0  0  0  0  0  0  0  0  0
  -21.1440   -3.8510   26.0600 F   0  0  0  0  0  0  0  0  0  0  0  0
  -22.2580  -13.4070   21.0150 C   0  0  0  0  0  0  0  0  0  0  0  0
  -21.5730  -12.6600   21.8720 N   0  0  0  0  0  0  0  0  0  0  0  0
  -21.7180  -14.3310   20.4090 O   0  0  0  0  0  0  0  0  0  0  0  0
  -22.0180  -11.9160   22.3910 H   0  0  0  0  0  0  0  0  0  0  0  0
  -20.5880  -12.8330   22.0200 H   0  0  0  0  0  0  0  0  0  0  0  0
  -24.7100  -15.4050   20.4020 N   0  0  0  0  0  0  0  0  0  0  0  0
  -23.8560  -15.9470   20.3900 H   0  0  0  0  0  0  0  0  0  0  0  0
  -25.5420  -15.9480   20.2340 H   0  0  0  0  0  0  0  0  0  0  0  0
  -25.9290  -24.2680   20.4800 C   0  0  0  0  0  2  0  0  0  0  0  0
  -26.9140  -23.9800   21.4740 O   0  0  0  0  0  0  0  0  0  0  0  0
  -27.7220  -25.1000   21.8610 C   0  0  0  0  0  2  0  0  0  0  0  0
  -28.7130  -25.6350   20.7760 C   0  0  0  0  0  2  0  0  0  0  0  0
  -28.7910  -27.0690   20.7210 O   0  0  0  0  0  0  0  0  0  0  0  0
  -24.6940  -32.1230   23.4950 C   0  0  0  0  0  0  0  0  0  0  0  0
  -27.6080  -27.7610   20.5780 C   0  0  0  0  0  0  0  0  0  0  0  0
  -23.6050  -30.6590   21.8210 C   0  0  0  0  0  3  0  0  0  0  0  0
  -25.1640  -29.1670   20.4660 C   0  0  0  0  0  0  0  0  0  0  0  0
  -26.1210  -31.1110   21.7260 C   0  0  0  0  0  2  0  0  0  0  0  0
  -26.2730  -29.7400   21.1020 C   0  0  0  0  0  0  0  0  0  0  0  0
  -27.4950  -29.0380   21.1620 C   0  0  0  0  0  3  0  0  0  0  0  0
  -26.4970  -27.2240   19.8910 C   0  0  0  0  0  3  0  0  0  0  0  0
  -25.2710  -27.9080   19.8550 C   0  0  0  0  0  3  0  0  0  0  0  0
  -23.8910  -29.9780   20.4550 C   0  0  0  0  0  2  0  0  0  0  0  0
  -24.8210  -31.3150   22.4040 N   0  0  0  0  0  0  0  0  0  0  0  0
  -23.5820  -32.3630   23.9870 O   0  0  0  0  0  0  0  0  0  0  0  0
  -22.9570  -29.6240   22.7670 C   0  0  0  0  0  0  0  0  0  0  0  0
  -21.6680  -29.3270   22.5340 N   0  0  0  0  0  0  0  0  0  0  0  0
  -23.6120  -29.0910   23.6670 O   0  0  0  0  0  0  0  0  0  0  0  0
  -21.1980  -29.8320   21.7960 H   0  0  0  0  0  0  0  0  0  0  0  0
  -18.3750  -27.8410   22.7640 C   0  0  0  0  0  0  0  0  0  0  0  0
  -20.8560  -28.3540   23.2690 C   0  0  0  0  0  3  0  0  0  0  0  0
  -21.1430  -26.9090   22.7960 C   0  0  0  0  0  2  0  0  0  0  0  0
  -20.1880  -26.4310   21.6970 C   0  0  0  0  0  2  0  0  0  0  0  0
  -18.7370  -26.4800   22.1910 C   0  0  0  0  0  2  0  0  0  0  0  0
  -19.3700  -28.7280   23.2550 C   0  0  0  0  0  0  0  0  0  0  0  0
  -18.9800  -29.9900   23.7480 C   0  0  0  0  0  3  0  0  0  0  0  0
  -17.6270  -30.3760   23.7490 C   0  0  0  0  0  3  0  0  0  0  0  0
  -16.6440  -29.4910   23.2740 C   0  0  0  0  0  3  0  0  0  0  0  0
  -17.0180  -28.2230   22.7940 C   0  0  0  0  0  3  0  0  0  0  0  0
  -25.9320  -32.8080   24.1560 C   0  0  0  0  0  3  0  0  0  0  0  0
  -26.4090  -32.0950   25.4810 C   0  0  1  0  0  0  0  0  0  0  0  0
  -25.2690  -31.8140   26.4880 C   0  0  0  0  0  1  0  0  0  0  0  0
  -27.0990  -30.7480   25.1600 C   0  0  0  0  0  1  0  0  0  0  0  0
  -27.4680  -32.9700   26.1940 C   0  0  0  0  0  1  0  0  0  0  0  0
  -25.5780  -34.2100   24.4210 N   0  0  0  0  0  0  0  0  0  0  0  0
  -25.9020  -35.2400   23.6260 C   0  0  0  0  0  0  0  0  0  0  0  0
  -26.6040  -35.1130   22.6200 O   0  0  0  0  0  0  0  0  0  0  0  0
  -24.9780  -34.3820   25.2150 H   0  0  0  0  0  0  0  0  0  0  0  0
  -24.1320  -36.9590   23.1360 C   0  0  0  0  0  1  0  0  0  0  0  0
  -25.3570  -36.6310   24.0070 C   0  0  0  0  0  3  0  0  0  0  0  0
  -27.4450  -37.6120   24.8550 C   0  0  0  0  0  1  0  0  0  0  0  0
  -26.3640  -37.7090   23.8760 N   0  0  0  0  0  0  0  0  0  0  0  0
  -25.9280  -38.6220   23.9750 H   0  0  0  0  0  0  0  0  0  0  0  0
  1 67  1  0
  2  3  1  0
  2  4  2  0
  3  1  1  0
  5  3  1  0
  7  6  1  0
  7  2  1  0
  8  9  1  0
  8  7  1  0
 10  8  1  0
 11  8  1  0
 12 14  2  0
 12  1  1  0
 13 12  1  0
 15 13  1  0
 17 16  1  0
 17 13  1  0
 18 17  1  0
 18 19  1  0
 19 21  1  0
 20 18  2  0
 23 22  1  0
 23 19  1  0
 23 24  1  0
 24 25  1  0
 24 26  2  0
 25 28  1  0
 27 25  1  0
 28 29  1  0
 30 29  1  0
 31 30  1  0
 32 37  1  0
 33 34  1  0
 33 32  1  0
 35 34  1  0
 35 42  1  0
 35 36  1  0
 37 31  1  0
 37 36  1  0
 38 31  2  0
 39 40  2  0
 40 41  1  0
 40 59  1  0
 41 44  1  0
 42 39  1  0
 42 43  1  0
 43 41  2  0
 44 45  1  0
 45 46  2  0
 47 50  1  0
 47 46  1  0
 48 47  2  0
 49 48  1  0
 49 44  2  0
 50 51  1  0
 51 56  2  0
 51 52  1  0
 52 53  2  0
 53 54  1  0
 54 58  1  0
 55 54  2  0
 56 55  1  0
 57 56  1  0
 59 60  1  0
 60 63  1  0
 60 62  1  0
 61 59  2  0
 64 39  1  0
 65 64  1  0
 66 64  1  0
 67 68  1  0
 68 69  1  0
 70 69  1  0
 71 70  1  0
 72 83  2  0
 73 71  1  0
 73 78  1  0
 74 82  1  0
 74 84  1  0
 75 77  1  0
 76 82  1  0
 77 78  2  0
 77 76  1  0
 79 73  2  0
 80 79  1  0
 80 75  2  0
 81 75  1  0
 81 74  1  0
 82 72  1  0
 84 86  2  0
 85 84  1  0
 87 85  1  0
 88 97  2  0
 88 93  1  0
 89 85  1  0
 90 89  1  0
 91 92  1  0
 91 90  1  0
 92 88  1  0
 93 89  1  0
 93 94  2  0
 94 95  1  0
 96 95  2  0
 97 96  1  0
 98 72  1  0
 98103  1  0
 98 99  1  0
 99102  1  1
 99100  1  0
101 99  1  0
103106  1  0
104108  1  0
104103  1  0
105104  2  0
108107  1  0
110111  1  0
110108  1  0
110109  1  0
M  ISO  4  30 100  31 100  70 101  71 101
M  END
>  <TORSDO>  (35) 
F 31

>  <SCORE>  (35) 
-8.581

>  <name>  (35) 
36

>  <ligand_id>  (35) 
36

>  <original_smiles>  (35) 
[H]c1c([H])c([H])c2c(c1[H])C([H])([H])C([H])([H])C([H])([H])C2([H])N([H])C(=O)C1([H])N(C(=O)C([H])(N([H])C(=O)C([H])(N([H])C([H])([H])[H])C([H])([H])[H])C(C([H])([H])[H])(C([H])([H])[H])C([H])([H])[H])C([H])([H])c2c([H])c(OC([H])([H])C([H])([H])OC([H])([H])C([H])(C(=O)N([H])C([H])(C(=O)N([H])C([H])(C(=O)N([H])C([H])([H])C([H])([H])OC(=O)N3C([H])([H])C([H])([H])C([H])([H])C([H])(n4nc(-c5c([H])c([H])c(Oc6c([H])c([H])c(F)c([H])c6F)c([H])c5[H])c(C(=O)N([H])[H])c4N([H])[H])C3([H])[H])C([H])([H])[H])C([H])([H])[H])N([H])C(=O)C([H])(C([H])([H])[H])[N+]([H])([H])[H])c([H])c([H])c2C1([H])[H]

>  <smiles>  (35) 
[H]c1c([H])c([H])c2c(c1[H])C([H])([H])C([H])([H])C([H])([H])C2([H])N([H])C(=O)C1([H])N(C(=O)C([H])(N([H])C(=O)C([H])(N([H])C([H])([H])[H])C([H])([H])[H])C(C([H])([H])[H])(C([H])([H])[H])C([H])([H])[H])C([H])([H])c2c([H])c(OC([H])([H])C([H])([H])OC([H])([H])C([H])(C(=O)N([H])C([H])(C(=O)N([H])C([H])(C(=O)N([H])C([H])([H])C([H])([H])OC(=O)N3C([H])([H])C([H])([H])C([H])([H])C([H])(n4nc(-c5c([H])c([H])c(Oc6c([H])c([H])c(F)c([H])c6F)c([H])c5[H])c(C(=O)N([H])[H])c4N([H])[H])C3([H])[H])C([H])([H])[H])C([H])([H])[H])N([H])C(=O)C([H])(C([H])([H])[H])[N+]([H])([H])[H])c([H])c([H])c2C1([H])[H]

$$$$
37:0:0
     RDKit          3D

101108  0  0  1  0  0  0  0  0999 V2000
  -26.0040  -15.6980   18.5230 N   0  0  0  0  0  4  0  0  0  0  0  0
  -25.1000  -15.7380   18.0810 H   0  0  0  0  0  0  0  0  0  0  0  0
  -25.8340  -15.5760   19.5270 H   0  0  0  0  0  0  0  0  0  0  0  0
  -26.7100  -14.4880   17.9810 C   0  0  0  0  0  3  0  0  0  0  0  0
  -26.3030  -13.1100   18.6240 C   0  0  0  0  0  3  0  0  0  0  0  0
  -27.0500  -11.8390   18.0860 C   0  0  0  0  0  2  0  0  0  0  0  0
  -27.3120  -10.8750   19.1430 O   0  0  0  0  0  0  0  0  0  0  0  0
  -28.3630   -9.8920   18.9260 C   0  0  0  0  0  2  0  0  0  0  0  0
  -28.6680   -9.0690   20.2300 C   0  0  0  0  0  2  0  0  0  0  0  0
  -30.1530   -8.6530   20.4980 C   0  0  0  0  0  2  0  0  0  0  0  0
  -30.7340   -9.3960   21.5880 O   0  0  0  0  0  0  0  0  0  0  0  0
  -32.1690   -9.4830   21.5850 C   0  0  0  0  0  2  0  0  0  0  0  0
  -32.7060  -10.5810   22.5970 C   0  0  0  0  0  2  0  0  0  0  0  0
  -33.8390  -11.6320   22.1980 C   0  0  0  0  0  2  0  0  0  0  0  0
  -33.0760  -13.7580   21.0420 C   0  0  0  0  0  0  0  0  0  0  0  0
  -32.3270  -12.2760   19.4570 C   0  0  0  0  0  2  0  0  0  0  0  0
  -31.1500  -11.9430   18.5800 C   0  0  0  0  0  2  0  0  0  0  0  0
  -29.8580  -11.8620   19.3620 C   0  0  0  0  0  2  0  0  0  0  0  0
  -29.5670  -13.0670   20.2530 C   0  0  0  0  0  3  0  0  0  0  0  0
  -30.6890  -13.2600   21.2670 C   0  0  0  0  0  2  0  0  0  0  0  0
  -32.0070  -13.1290   20.6070 N   0  0  0  0  0  0  0  0  0  0  0  0
  -33.7850  -14.4900   20.3390 O   0  0  0  0  0  0  0  0  0  0  0  0
  -33.5180  -13.1010   22.1450 N   0  0  0  0  0  0  0  0  0  0  0  0
  -34.1570  -13.6540   22.6940 H   0  0  0  0  0  0  0  0  0  0  0  0
  -27.4540  -13.9000   21.4490 C   0  0  0  0  0  0  0  0  0  0  0  0
  -26.2610  -13.2910   21.7440 C   0  0  0  0  0  0  0  0  0  0  0  0
  -26.3900  -11.9320   21.3300 C   0  0  0  0  0  0  0  0  0  0  0  0
  -28.2520  -12.9180   20.8860 N   0  0  0  0  0  0  0  0  0  0  0  0
  -27.6140  -11.7180   20.8670 N   0  0  0  0  0  0  0  0  0  0  0  0
  -25.3960  -10.8470   21.2890 C   0  0  0  0  0  0  0  0  0  0  0  0
  -25.5050   -9.7110   22.1200 C   0  0  0  0  0  3  0  0  0  0  0  0
  -24.5230   -8.6970   22.0880 C   0  0  0  0  0  3  0  0  0  0  0  0
  -23.4040   -8.8110   21.2340 C   0  0  0  0  0  0  0  0  0  0  0  0
  -23.3080   -9.9290   20.3910 C   0  0  0  0  0  3  0  0  0  0  0  0
  -24.2940  -10.9290   20.4110 C   0  0  0  0  0  3  0  0  0  0  0  0
  -22.4170   -7.8570   21.1300 O   0  0  0  0  0  0  0  0  0  0  0  0
  -21.8420   -7.3000   22.2460 C   0  0  0  0  0  0  0  0  0  0  0  0
  -21.2590   -8.0890   23.2600 C   0  0  0  0  0  3  0  0  0  0  0  0
  -20.6110   -7.4760   24.3520 C   0  0  0  0  0  3  0  0  0  0  0  0
  -20.5420   -6.0720   24.4260 C   0  0  0  0  0  0  0  0  0  0  0  0
  -21.1160   -5.2800   23.4170 C   0  0  0  0  0  3  0  0  0  0  0  0
  -21.7680   -5.8950   22.3280 C   0  0  0  0  0  0  0  0  0  0  0  0
  -22.3000   -5.1290   21.3490 F   0  0  0  0  0  0  0  0  0  0  0  0
  -19.9170   -5.4760   25.4690 F   0  0  0  0  0  0  0  0  0  0  0  0
  -25.0370  -13.9730   22.2780 C   0  0  0  0  0  0  0  0  0  0  0  0
  -24.2220  -13.2550   23.0450 N   0  0  0  0  0  0  0  0  0  0  0  0
  -24.8170  -15.1590   22.0610 O   0  0  0  0  0  0  0  0  0  0  0  0
  -24.3910  -12.2790   23.2320 H   0  0  0  0  0  0  0  0  0  0  0  0
  -23.3890  -13.6940   23.4090 H   0  0  0  0  0  0  0  0  0  0  0  0
  -27.8970  -15.2070   21.5790 N   0  0  0  0  0  0  0  0  0  0  0  0
  -27.3370  -15.7410   22.2450 H   0  0  0  0  0  0  0  0  0  0  0  0
  -28.8760  -15.2500   21.8450 H   0  0  0  0  0  0  0  0  0  0  0  0
  -26.6430  -17.0400   18.2740 C   0  0  0  0  0  3  0  0  0  0  0  0
  -26.9600  -17.9000   19.5480 C   0  0  0  0  0  3  0  0  0  0  0  0
  -27.4490  -19.3660   19.2810 C   0  0  0  0  0  2  0  0  0  0  0  0
  -28.3240  -20.0170   20.3990 C   0  0  0  0  0  2  0  0  0  0  0  0
  -28.7010  -21.3660   20.0530 O   0  0  0  0  0  0  0  0  0  0  0  0
  -29.5940  -22.0400   20.9610 C   0  0  0  0  0  2  0  0  0  0  0  0
  -29.7410  -23.5350   20.5350 C   0  0  0  0  0  3  0  0  0  0  0  0
  -30.6110  -24.4710   21.4510 C   0  0  0  0  0  3  0  0  0  0  0  0
  -30.8630  -25.8680   21.0840 O   0  0  0  0  0  0  0  0  0  0  0  0
  -26.9200  -30.6010   24.7830 C   0  0  0  0  0  0  0  0  0  0  0  0
  -29.7960  -26.7520   21.1170 C   0  0  0  0  0  0  0  0  0  0  0  0
  -25.9510  -29.7450   22.6780 C   0  0  0  0  0  3  0  0  0  0  0  0
  -27.5510  -28.4870   21.1460 C   0  0  0  0  0  0  0  0  0  0  0  0
  -28.4920  -29.8930   22.9750 C   0  0  0  0  0  2  0  0  0  0  0  0
  -28.6130  -28.7100   22.0310 C   0  0  0  0  0  0  0  0  0  0  0  0
  -29.7480  -27.8540   22.0150 C   0  0  0  0  0  3  0  0  0  0  0  0
  -28.7460  -26.6020   20.1930 C   0  0  0  0  0  3  0  0  0  0  0  0
  -27.6180  -27.4380   20.2160 C   0  0  0  0  0  3  0  0  0  0  0  0
  -26.3630  -29.4150   21.2210 C   0  0  0  0  0  2  0  0  0  0  0  0
  -27.1310  -30.0800   23.5380 N   0  0  0  0  0  0  0  0  0  0  0  0
  -25.7750  -30.8300   25.1980 O   0  0  0  0  0  0  0  0  0  0  0  0
  -25.1050  -28.5750   23.2350 C   0  0  0  0  0  0  0  0  0  0  0  0
  -23.8570  -28.4550   22.7550 N   0  0  0  0  0  0  0  0  0  0  0  0
  -25.5770  -27.7930   24.0630 O   0  0  0  0  0  0  0  0  0  0  0  0
  -23.5330  -29.1470   22.0930 H   0  0  0  0  0  0  0  0  0  0  0  0
  -20.5470  -27.1900   22.0490 C   0  0  0  0  0  0  0  0  0  0  0  0
  -22.8940  -27.4110   23.1070 C   0  0  0  0  0  3  0  0  0  0  0  0
  -23.2300  -26.0770   22.4000 C   0  0  0  0  0  2  0  0  0  0  0  0
  -22.4960  -25.9020   21.0690 C   0  0  0  0  0  2  0  0  0  0  0  0
  -20.9780  -25.9510   21.2790 C   0  0  0  0  0  2  0  0  0  0  0  0
  -21.4510  -27.8840   22.8960 C   0  0  0  0  0  0  0  0  0  0  0  0
  -21.0110  -29.0500   23.5570 C   0  0  0  0  0  3  0  0  0  0  0  0
  -19.6970  -29.5200   23.3910 C   0  0  0  0  0  3  0  0  0  0  0  0
  -18.7990  -28.8170   22.5680 C   0  0  0  0  0  3  0  0  0  0  0  0
  -19.2230  -27.6550   21.8990 C   0  0  0  0  0  3  0  0  0  0  0  0
  -28.1080  -30.9610   25.7290 C   0  0  0  0  0  3  0  0  0  0  0  0
  -27.8350  -32.2870   26.3010 N   0  0  0  0  0  0  0  0  0  0  0  0
  -28.3900  -33.4300   25.8730 C   0  0  0  0  0  0  0  0  0  0  0  0
  -29.2570  -33.4650   24.9940 O   0  0  0  0  0  0  0  0  0  0  0  0
  -27.1020  -32.3370   26.9920 H   0  0  0  0  0  0  0  0  0  0  0  0
  -26.9210  -35.4540   25.5960 C   0  0  0  0  0  1  0  0  0  0  0  0
  -27.9120  -34.7410   26.5290 C   0  0  0  0  0  3  0  0  0  0  0  0
  -29.8640  -35.1650   27.9590 C   0  0  0  0  0  1  0  0  0  0  0  0
  -29.0160  -35.6610   26.8790 N   0  0  0  0  0  0  0  0  0  0  0  0
  -28.6490  -36.5670   27.1560 H   0  0  0  0  0  0  0  0  0  0  0  0
  -28.3330  -29.8980   26.8740 C   0  0  1  0  0  0  0  0  0  0  0  0
  -27.0530  -29.5650   27.6740 C   0  0  0  0  0  1  0  0  0  0  0  0
  -28.8820  -28.5730   26.2930 C   0  0  0  0  0  1  0  0  0  0  0  0
  -29.3900  -30.4180   27.8760 C   0  0  0  0  0  1  0  0  0  0  0  0
  1  3  1  0
  2  1  1  0
  4  1  1  0
  4  5  2  0
  6  5  1  0
  6  7  1  0
  8  7  1  0
  8  9  1  0
  9 10  1  0
 10 11  1  0
 12 11  1  0
 12 13  1  0
 14 13  1  0
 15 23  1  0
 16 21  1  0
 17 18  1  0
 17 16  1  0
 19 18  1  0
 19 28  1  0
 19 20  1  0
 21 15  1  0
 21 20  1  0
 22 15  2  0
 23 14  1  0
 23 24  1  0
 25 50  1  0
 25 26  2  0
 26 45  1  0
 27 26  1  0
 28 25  1  0
 29 28  1  0
 29 27  2  0
 30 27  1  0
 30 31  1  0
 32 31  2  0
 33 32  1  0
 34 35  1  0
 34 33  2  0
 35 30  2  0
 36 33  1  0
 36 37  1  0
 37 42  2  0
 37 38  1  0
 38 39  2  0
 39 40  1  0
 40 44  1  0
 41 40  2  0
 42 41  1  0
 43 42  1  0
 45 46  1  0
 46 48  1  0
 46 49  1  0
 47 45  2  0
 50 52  1  0
 50 51  1  0
 53  1  1  0
 53 54  2  0
 55 54  1  0
 55 56  1  0
 57 56  1  0
 57 58  1  0
 59 58  1  0
 59 60  2  0
 61 63  1  0
 61 60  1  0
 62 73  2  0
 63 68  1  0
 64 74  1  0
 64 72  1  0
 65 71  1  0
 65 67  1  0
 66 72  1  0
 67 66  1  0
 68 67  2  0
 69 70  1  0
 69 63  2  0
 70 65  2  0
 71 64  1  0
 72 62  1  0
 74 76  2  0
 75 74  1  0
 77 75  1  0
 78 83  1  0
 79 75  1  0
 80 79  1  0
 81 82  1  0
 81 80  1  0
 82 78  1  0
 83 79  1  0
 83 84  2  0
 85 84  1  0
 86 85  2  0
 87 78  2  0
 87 86  1  0
 88 62  1  0
 88 89  1  0
 88 98  1  0
 89 92  1  0
 90 89  1  0
 90 94  1  0
 91 90  2  0
 94 93  1  0
 94 96  1  0
 96 97  1  0
 96 95  1  0
 98 99  1  1
 98101  1  0
100 98  1  0
M  ISO  4  15 100  23 100  60 101  61 101
M  END
>  <TORSDO>  (36) 
F 35

>  <SCORE>  (36) 
0.701

>  <name>  (36) 
37

>  <ligand_id>  (36) 
37

>  <original_smiles>  (36) 
[H]c1c([H])c([H])c2c(c1[H])C([H])([H])C([H])([H])C([H])([H])C2([H])N([H])C(=O)C1([H])N(C(=O)C([H])(N([H])C(=O)C([H])(N([H])C([H])([H])[H])C([H])([H])[H])C(C([H])([H])[H])(C([H])([H])[H])C([H])([H])[H])C([H])([H])c2c([H])c(OC([H])([H])C([H])([H])C([H])([H])OC([H])([H])C([H])([H])C([H])([H])C([H])([H])[N+]([H])([H])C([H])([H])C([H])([H])C([H])([H])OC([H])([H])C([H])([H])C([H])([H])OC([H])([H])C([H])([H])C([H])([H])N([H])C(=O)N3C([H])([H])C([H])([H])C([H])([H])C([H])(n4nc(-c5c([H])c([H])c(Oc6c([H])c([H])c(F)c([H])c6F)c([H])c5[H])c(C(=O)N([H])[H])c4N([H])[H])C3([H])[H])c([H])c([H])c2C1([H])[H]

>  <smiles>  (36) 
[H]c1c([H])c([H])c2c(c1[H])C([H])([H])C([H])([H])C([H])([H])C2([H])N([H])C(=O)C1([H])N(C(=O)C([H])(N([H])C(=O)C([H])(N([H])C([H])([H])[H])C([H])([H])[H])C(C([H])([H])[H])(C([H])([H])[H])C([H])([H])[H])C([H])([H])c2c([H])c(OC([H])([H])C([H])([H])C([H])([H])OC([H])([H])C([H])([H])C([H])([H])C([H])([H])[N+]([H])([H])C([H])([H])C([H])([H])C([H])([H])OC([H])([H])C([H])([H])C([H])([H])OC([H])([H])C([H])([H])C([H])([H])N([H])C(=O)N3C([H])([H])C([H])([H])C([H])([H])C([H])(n4nc(-c5c([H])c([H])c(Oc6c([H])c([H])c(F)c([H])c6F)c([H])c5[H])c(C(=O)N([H])[H])c4N([H])[H])C3([H])[H])c([H])c([H])c2C1([H])[H]

$$$$
38:0:0
     RDKit          3D

108115  0  0  1  0  0  0  0  0999 V2000
  -24.9330  -18.8070   23.5430 C   0  0  0  0  0  2  0  0  0  0  0  0
  -25.4600  -18.4110   22.1470 C   0  0  0  0  0  2  0  0  0  0  0  0
  -26.8760  -18.7920   21.9430 N   0  0  0  0  0  4  0  0  0  0  0  0
  -27.4510  -18.2270   22.5490 H   0  0  0  0  0  0  0  0  0  0  0  0
  -27.0010  -19.7550   22.2110 H   0  0  0  0  0  0  0  0  0  0  0  0
  -27.3440  -18.5910   20.5540 C   0  0  0  0  0  2  0  0  0  0  0  0
  -28.6850  -19.2880   20.2720 C   0  0  0  0  0  2  0  0  0  0  0  0
  -29.1300  -19.0750   18.8210 C   0  0  0  0  0  2  0  0  0  0  0  0
  -30.3170  -19.8140   18.5890 O   0  0  0  0  0  0  0  0  0  0  0  0
  -30.7690  -19.7190   17.2450 C   0  0  0  0  0  2  0  0  0  0  0  0
  -31.7160  -20.9000   16.9910 C   0  0  0  0  0  2  0  0  0  0  0  0
  -31.0230  -22.1420   17.0930 O   0  0  0  0  0  0  0  0  0  0  0  0
  -30.4660  -22.6450   15.8810 C   0  0  0  0  0  2  0  0  0  0  0  0
  -29.0490  -23.1790   16.1580 C   0  0  0  0  0  2  0  0  0  0  0  0
  -28.7970  -24.3630   15.4040 O   0  0  0  0  0  0  0  0  0  0  0  0
  -26.4740  -27.4560   21.3630 C   0  0  0  0  0  0  0  0  0  0  0  0
  -27.8790  -25.1970   15.9870 C   0  0  0  0  0  0  0  0  0  0  0  0
  -24.9660  -27.6180   19.4050 C   0  0  0  0  0  3  0  0  0  0  0  0
  -25.9750  -26.9030   17.1710 C   0  0  0  0  0  0  0  0  0  0  0  0
  -27.4940  -27.4160   19.0940 C   0  0  0  0  0  2  0  0  0  0  0  0
  -27.2180  -26.7040   17.7880 C   0  0  0  0  0  0  0  0  0  0  0  0
  -28.1760  -25.8540   17.1990 C   0  0  0  0  0  3  0  0  0  0  0  0
  -26.6290  -25.4000   15.3710 C   0  0  0  0  0  3  0  0  0  0  0  0
  -25.6720  -26.2500   15.9610 C   0  0  0  0  0  3  0  0  0  0  0  0
  -25.0100  -27.8360   17.8670 C   0  0  0  0  0  2  0  0  0  0  0  0
  -26.3300  -27.4670   20.0070 N   0  0  0  0  0  0  0  0  0  0  0  0
  -25.4980  -27.6130   22.1100 O   0  0  0  0  0  0  0  0  0  0  0  0
  -24.0320  -26.4250   19.7020 C   0  0  0  0  0  0  0  0  0  0  0  0
  -22.7130  -26.6590   19.6090 N   0  0  0  0  0  0  0  0  0  0  0  0
  -24.4940  -25.3140   19.9790 O   0  0  0  0  0  0  0  0  0  0  0  0
  -22.4130  -27.5980   19.3840 H   0  0  0  0  0  0  0  0  0  0  0  0
  -19.1310  -26.2070   19.5630 C   0  0  0  0  0  0  0  0  0  0  0  0
  -21.6480  -25.6770   19.8030 C   0  0  0  0  0  3  0  0  0  0  0  0
  -21.4770  -24.7870   18.5500 C   0  0  0  0  0  2  0  0  0  0  0  0
  -20.4190  -25.3150   17.5760 C   0  0  0  0  0  2  0  0  0  0  0  0
  -19.0570  -25.4170   18.2670 C   0  0  0  0  0  2  0  0  0  0  0  0
  -20.3510  -26.3430   20.2750 C   0  0  0  0  0  0  0  0  0  0  0  0
  -20.3740  -27.1190   21.4550 C   0  0  0  0  0  3  0  0  0  0  0  0
  -19.2070  -27.7490   21.9250 C   0  0  0  0  0  3  0  0  0  0  0  0
  -17.9980  -27.5980   21.2240 C   0  0  0  0  0  3  0  0  0  0  0  0
  -17.9600  -26.8250   20.0500 C   0  0  0  0  0  3  0  0  0  0  0  0
  -27.8710  -27.2710   22.0370 C   0  0  0  0  0  3  0  0  0  0  0  0
  -28.0760  -25.8360   22.6570 C   0  0  1  0  0  0  0  0  0  0  0  0
  -26.9320  -25.4000   23.6010 C   0  0  0  0  0  1  0  0  0  0  0  0
  -28.2020  -24.7720   21.5420 C   0  0  0  0  0  1  0  0  0  0  0  0
  -29.3950  -25.7990   23.4640 C   0  0  0  0  0  1  0  0  0  0  0  0
  -28.0050  -28.3090   23.0660 N   0  0  0  0  0  0  0  0  0  0  0  0
  -28.7860  -29.3920   22.9570 C   0  0  0  0  0  0  0  0  0  0  0  0
  -29.5340  -29.5840   21.9940 O   0  0  0  0  0  0  0  0  0  0  0  0
  -27.3820  -28.2460   23.8590 H   0  0  0  0  0  0  0  0  0  0  0  0
  -27.9510  -31.6670   23.6300 C   0  0  0  0  0  1  0  0  0  0  0  0
  -28.7300  -30.4260   24.0970 C   0  0  0  0  0  3  0  0  0  0  0  0
  -30.7610  -29.7700   25.3080 C   0  0  0  0  0  1  0  0  0  0  0  0
  -30.0630  -30.8330   24.5900 N   0  0  0  0  0  0  0  0  0  0  0  0
  -29.9870  -31.6360   25.2090 H   0  0  0  0  0  0  0  0  0  0  0  0
  -23.4010  -18.6750   23.6510 C   0  0  0  0  0  2  0  0  0  0  0  0
  -22.9180  -18.1810   25.0280 C   0  0  0  0  0  2  0  0  0  0  0  0
  -21.5180  -18.5870   25.2740 N   0  0  0  0  0  4  0  0  0  0  0  0
  -21.2720  -19.2730   24.5740 H   0  0  0  0  0  0  0  0  0  0  0  0
  -21.4330  -19.0210   26.1800 H   0  0  0  0  0  0  0  0  0  0  0  0
  -20.5030  -17.5240   25.1090 C   0  0  0  0  0  2  0  0  0  0  0  0
  -19.1970  -18.1620   24.6230 C   0  0  0  0  0  2  0  0  0  0  0  0
  -19.4500  -19.5650   24.6050 O   0  0  0  0  0  0  0  0  0  0  0  0
  -18.4670  -20.3150   23.9060 C   0  0  0  0  0  2  0  0  0  0  0  0
  -18.2960  -21.6690   24.6190 C   0  0  0  0  0  2  0  0  0  0  0  0
  -17.1570  -21.6700   25.6500 C   0  0  0  0  0  2  0  0  0  0  0  0
  -16.4690  -22.9230   25.6760 O   0  0  0  0  0  0  0  0  0  0  0  0
  -15.0690  -22.7250   25.5220 C   0  0  0  0  0  2  0  0  0  0  0  0
  -14.3020  -23.9860   25.0830 C   0  0  0  0  0  2  0  0  0  0  0  0
  -13.3270  -23.8020   23.8880 C   0  0  0  0  0  2  0  0  0  0  0  0
  -11.7050  -22.0610   23.2430 C   0  0  0  0  0  0  0  0  0  0  0  0
  -12.5610  -20.3820   21.6370 C   0  0  0  0  0  2  0  0  0  0  0  0
  -12.1620  -18.9280   21.9240 C   0  0  0  0  0  2  0  0  0  0  0  0
  -13.1430  -18.2740   22.9090 C   0  0  0  0  0  2  0  0  0  0  0  0
  -13.3330  -19.1300   24.1830 C   0  0  0  0  0  3  0  0  0  0  0  0
  -13.6320  -20.5870   23.8180 C   0  0  0  0  0  2  0  0  0  0  0  0
  -12.6210  -21.1240   22.8980 N   0  0  0  0  0  0  0  0  0  0  0  0
  -10.5900  -22.1530   22.7150 O   0  0  0  0  0  0  0  0  0  0  0  0
  -12.1330  -22.9720   24.1360 N   0  0  0  0  0  0  0  0  0  0  0  0
  -11.3710  -23.4760   24.5740 H   0  0  0  0  0  0  0  0  0  0  0  0
  -14.5740  -18.7960   26.4200 C   0  0  0  0  0  0  0  0  0  0  0  0
  -15.6290  -17.9950   26.7660 C   0  0  0  0  0  0  0  0  0  0  0  0
  -16.0370  -17.3370   25.5680 C   0  0  0  0  0  0  0  0  0  0  0  0
  -14.3740  -18.5940   25.0630 N   0  0  0  0  0  0  0  0  0  0  0  0
  -15.3080  -17.7570   24.5410 N   0  0  0  0  0  0  0  0  0  0  0  0
  -17.0380  -16.2860   25.3510 C   0  0  0  0  0  0  0  0  0  0  0  0
  -17.1180  -15.5780   24.1340 C   0  0  0  0  0  3  0  0  0  0  0  0
  -18.0980  -14.5790   23.9510 C   0  0  0  0  0  3  0  0  0  0  0  0
  -19.0250  -14.2940   24.9820 C   0  0  0  0  0  0  0  0  0  0  0  0
  -18.9290  -14.9910   26.1990 C   0  0  0  0  0  3  0  0  0  0  0  0
  -17.9420  -15.9710   26.3860 C   0  0  0  0  0  3  0  0  0  0  0  0
  -19.9970  -13.3260   24.8990 O   0  0  0  0  0  0  0  0  0  0  0  0
  -20.7130  -13.1200   23.7460 C   0  0  0  0  0  0  0  0  0  0  0  0
  -20.7160  -14.0610   22.6950 C   0  0  0  0  0  3  0  0  0  0  0  0
  -21.5190  -13.8430   21.5570 C   0  0  0  0  0  3  0  0  0  0  0  0
  -22.3280  -12.6940   21.4730 C   0  0  0  0  0  0  0  0  0  0  0  0
  -22.3260  -11.7550   22.5200 C   0  0  0  0  0  3  0  0  0  0  0  0
  -21.5240  -11.9700   23.6550 C   0  0  0  0  0  0  0  0  0  0  0  0
  -21.5440  -11.0740   24.6710 F   0  0  0  0  0  0  0  0  0  0  0  0
  -23.1050  -12.4890   20.3850 F   0  0  0  0  0  0  0  0  0  0  0  0
  -16.1680  -17.7800   28.1510 C   0  0  0  0  0  0  0  0  0  0  0  0
  -17.3250  -17.1310   28.2560 N   0  0  0  0  0  0  0  0  0  0  0  0
  -15.6010  -18.2360   29.1410 O   0  0  0  0  0  0  0  0  0  0  0  0
  -17.7480  -16.7100   27.4420 H   0  0  0  0  0  0  0  0  0  0  0  0
  -17.6680  -16.8730   29.1690 H   0  0  0  0  0  0  0  0  0  0  0  0
  -13.7630  -19.6550   27.1520 N   0  0  0  0  0  0  0  0  0  0  0  0
  -13.8600  -19.7570   28.1550 H   0  0  0  0  0  0  0  0  0  0  0  0
  -12.9830  -20.1820   26.7820 H   0  0  0  0  0  0  0  0  0  0  0  0
  1 56  1  0
  2  1  1  0
  3  2  1  0
  3  5  1  0
  3  4  1  0
  6  3  1  0
  7  6  1  0
  8  7  1  0
  9  8  1  0
 10  9  1  0
 11 12  1  0
 11 10  1  0
 13 14  1  0
 13 12  1  0
 15 17  1  0
 15 14  1  0
 16 27  2  0
 17 22  1  0
 18 28  1  0
 18 26  1  0
 19 21  1  0
 19 25  1  0
 20 26  1  0
 21 20  1  0
 22 21  2  0
 23 24  1  0
 23 17  2  0
 24 19  2  0
 25 18  1  0
 26 16  1  0
 28 30  2  0
 29 28  1  0
 31 29  1  0
 32 41  2  0
 32 37  1  0
 33 29  1  0
 33 37  1  0
 34 33  1  0
 35 36  1  0
 35 34  1  0
 36 32  1  0
 37 38  2  0
 38 39  1  0
 40 39  2  0
 41 40  1  0
 42 16  1  0
 42 43  1  0
 42 47  1  0
 43 46  1  1
 43 44  1  0
 45 43  1  0
 47 50  1  0
 48 47  1  0
 48 52  1  0
 49 48  2  0
 52 51  1  0
 52 54  1  0
 54 55  1  0
 54 53  1  0
 56 57  1  0
 57 58  1  0
 58 60  1  0
 59 58  1  0
 61 58  1  0
 62 61  1  0
 63 62  1  0
 64 63  1  0
 64 65  1  0
 65 66  1  0
 66 67  1  0
 68 67  1  0
 69 68  1  0
 70 79  1  0
 70 69  1  0
 71 79  1  0
 72 73  1  0
 72 77  1  0
 73 74  1  0
 75 74  1  0
 75 84  1  0
 76 75  1  0
 77 71  1  0
 77 76  1  0
 78 71  2  0
 79 80  1  0
 81 82  2  0
 81106  1  0
 82101  1  0
 83 82  1  0
 84 81  1  0
 85 84  1  0
 85 83  2  0
 86 83  1  0
 86 91  1  0
 87 86  2  0
 88 87  1  0
 88 89  2  0
 89 90  1  0
 90 91  2  0
 92 89  1  0
 93 92  1  0
 94 93  2  0
 95 94  1  0
 96 95  2  0
 96 97  1  0
 97 98  2  0
 98 93  1  0
 98 99  1  0
100 96  1  0
101102  1  0
101103  2  0
102105  1  0
104102  1  0
106107  1  0
108106  1  0
M  ISO  4  14 101  15 101  71 100  79 100
M  END
>  <TORSDO>  (37) 
F 40

>  <SCORE>  (37) 
54.301

>  <name>  (37) 
38

>  <ligand_id>  (37) 
38

>  <original_smiles>  (37) 
[H]c1c([H])c([H])c2c(c1[H])C([H])([H])C([H])([H])C([H])([H])C2([H])N([H])C(=O)C1([H])N(C(=O)C([H])(N([H])C(=O)C([H])(N([H])C([H])([H])[H])C([H])([H])[H])C(C([H])([H])[H])(C([H])([H])[H])C([H])([H])[H])C([H])([H])c2c([H])c(OC([H])([H])C([H])([H])OC([H])([H])C([H])([H])OC([H])([H])C([H])([H])C([H])([H])[N+]([H])([H])C([H])([H])C([H])([H])C([H])([H])C([H])([H])[N+]([H])([H])C([H])([H])C([H])([H])OC([H])([H])C([H])([H])C([H])([H])OC([H])([H])C([H])([H])C([H])([H])N([H])C(=O)N3C([H])([H])C([H])([H])C([H])([H])C([H])(n4nc(-c5c([H])c([H])c(Oc6c([H])c([H])c(F)c([H])c6F)c([H])c5[H])c(C(=O)N([H])[H])c4N([H])[H])C3([H])[H])c([H])c([H])c2C1([H])[H]

>  <smiles>  (37) 
[H]c1c([H])c([H])c2c(c1[H])C([H])([H])C([H])([H])C([H])([H])C2([H])N([H])C(=O)C1([H])N(C(=O)C([H])(N([H])C(=O)C([H])(N([H])C([H])([H])[H])C([H])([H])[H])C(C([H])([H])[H])(C([H])([H])[H])C([H])([H])[H])C([H])([H])c2c([H])c(OC([H])([H])C([H])([H])OC([H])([H])C([H])([H])OC([H])([H])C([H])([H])C([H])([H])[N+]([H])([H])C([H])([H])C([H])([H])C([H])([H])C([H])([H])[N+]([H])([H])C([H])([H])C([H])([H])OC([H])([H])C([H])([H])C([H])([H])OC([H])([H])C([H])([H])C([H])([H])N([H])C(=O)N3C([H])([H])C([H])([H])C([H])([H])C([H])(n4nc(-c5c([H])c([H])c(Oc6c([H])c([H])c(F)c([H])c6F)c([H])c5[H])c(C(=O)N([H])[H])c4N([H])[H])C3([H])[H])c([H])c([H])c2C1([H])[H]

$$$$
39:0:0
     RDKit          3D

104111  0  0  1  0  0  0  0  0999 V2000
  -31.8780  -20.6060   21.4950 C   0  0  0  0  0  3  0  0  0  0  0  0
  -31.0050  -18.2440   21.1590 C   0  0  0  0  0  0  0  0  0  0  0  0
  -31.0350  -19.5590   20.9090 N   0  0  0  0  0  0  0  0  0  0  0  0
  -31.7740  -17.7040   21.9570 O   0  0  0  0  0  0  0  0  0  0  0  0
  -30.4380  -19.8650   20.1520 H   0  0  0  0  0  0  0  0  0  0  0  0
  -29.8840  -17.4420   20.4490 C   0  0  0  0  0  0  0  0  0  0  0  0
  -30.5440  -15.0590   21.0840 C   0  0  0  0  0  0  0  0  0  0  0  0
  -30.4880  -12.7850   20.1770 C   0  0  0  0  0  2  0  0  0  0  0  0
  -29.6860  -12.8280   18.8600 C   0  0  0  0  0  2  0  0  0  0  0  0
  -28.1790  -12.6420   19.1430 C   0  0  0  0  0  2  0  0  0  0  0  0
  -27.6460  -13.5410   20.2930 C   0  0  0  0  0  3  0  0  0  0  0  0
  -28.5940  -13.5170   21.5150 C   0  0  0  0  0  2  0  0  0  0  0  0
  -29.9530  -13.8370   21.0480 N   0  0  0  0  0  0  0  0  0  0  0  0
  -31.7520  -15.2240   20.9240 O   0  0  0  0  0  0  0  0  0  0  0  0
  -29.6890  -16.0910   21.0270 N   0  0  0  0  0  4  0  0  0  0  0  0
  -28.7280  -15.8470   21.2120 H   0  0  0  0  0  0  0  0  0  0  0  0
  -25.1760  -14.0190   20.8520 C   0  0  0  0  0  0  0  0  0  0  0  0
  -24.1190  -13.1880   21.1150 C   0  0  0  0  0  0  0  0  0  0  0  0
  -24.6430  -11.8580   21.0690 C   0  0  0  0  0  0  0  0  0  0  0  0
  -26.2740  -13.1930   20.6640 N   0  0  0  0  0  0  0  0  0  0  0  0
  -25.9530  -11.8870   20.8580 N   0  0  0  0  0  0  0  0  0  0  0  0
  -23.9600  -10.5610   21.1550 C   0  0  0  0  0  0  0  0  0  0  0  0
  -24.3500   -9.5840   22.0990 C   0  0  0  0  0  3  0  0  0  0  0  0
  -23.6730   -8.3490   22.1740 C   0  0  0  0  0  3  0  0  0  0  0  0
  -22.5850   -8.0830   21.3050 C   0  0  0  0  0  0  0  0  0  0  0  0
  -22.2140   -9.0490   20.3530 C   0  0  0  0  0  3  0  0  0  0  0  0
  -22.8950  -10.2760   20.2760 C   0  0  0  0  0  3  0  0  0  0  0  0
  -21.8800   -6.9040   21.2880 O   0  0  0  0  0  0  0  0  0  0  0  0
  -21.7500   -6.1290   22.4120 C   0  0  0  0  0  0  0  0  0  0  0  0
  -21.1430   -6.6190   23.5900 C   0  0  0  0  0  3  0  0  0  0  0  0
  -20.9660   -5.7670   24.6960 C   0  0  0  0  0  3  0  0  0  0  0  0
  -21.3880   -4.4250   24.6250 C   0  0  0  0  0  0  0  0  0  0  0  0
  -21.9880   -3.9350   23.4530 C   0  0  0  0  0  3  0  0  0  0  0  0
  -22.1650   -4.7860   22.3480 C   0  0  0  0  0  0  0  0  0  0  0  0
  -22.7240   -4.3020   21.2110 F   0  0  0  0  0  0  0  0  0  0  0  0
  -21.2090   -3.6020   25.6870 F   0  0  0  0  0  0  0  0  0  0  0  0
  -22.6850  -13.5950   21.2920 C   0  0  0  0  0  0  0  0  0  0  0  0
  -21.9190  -12.8340   22.0670 N   0  0  0  0  0  0  0  0  0  0  0  0
  -22.2420  -14.6200   20.7760 O   0  0  0  0  0  0  0  0  0  0  0  0
  -22.2830  -12.0080   22.5220 H   0  0  0  0  0  0  0  0  0  0  0  0
  -20.9550  -13.0890   22.2150 H   0  0  0  0  0  0  0  0  0  0  0  0
  -25.2810  -15.4030   20.7360 N   0  0  0  0  0  0  0  0  0  0  0  0
  -24.4770  -16.0040   20.8710 H   0  0  0  0  0  0  0  0  0  0  0  0
  -26.0980  -15.9040   20.4150 H   0  0  0  0  0  0  0  0  0  0  0  0
  -29.6290  -19.0260   18.3940 C   0  0  0  0  0  1  0  0  0  0  0  0
  -28.3910  -16.9180   18.4340 C   0  0  0  0  0  1  0  0  0  0  0  0
  -30.8760  -16.9150   18.0560 C   0  0  0  0  0  1  0  0  0  0  0  0
  -29.7290  -17.5560   18.8700 C   0  0  2  0  0  0  0  0  0  0  0  0
  -32.3950  -21.5150   20.3570 C   0  0  0  0  0  0  0  0  0  0  0  0
  -32.4110  -22.8410   20.5520 N   0  0  0  0  0  0  0  0  0  0  0  0
  -32.7830  -21.0140   19.2970 O   0  0  0  0  0  0  0  0  0  0  0  0
  -32.0860  -23.1890   21.4440 H   0  0  0  0  0  0  0  0  0  0  0  0
  -32.8580  -23.8330   19.5780 C   0  0  0  0  0  2  0  0  0  0  0  0
  -32.5140  -25.2610   20.0360 C   0  0  0  0  0  2  0  0  0  0  0  0
  -31.1550  -25.5910   19.7460 O   0  0  0  0  0  0  0  0  0  0  0  0
  -30.7980  -26.8920   20.2200 C   0  0  0  0  0  2  0  0  0  0  0  0
  -29.5910  -27.4730   19.4580 C   0  0  0  0  0  2  0  0  0  0  0  0
  -28.3770  -26.8820   19.9160 O   0  0  0  0  0  0  0  0  0  0  0  0
  -24.5790  -31.9820   23.2010 C   0  0  0  0  0  0  0  0  0  0  0  0
  -27.2410  -27.6590   19.9790 C   0  0  0  0  0  0  0  0  0  0  0  0
  -23.3550  -30.5830   21.5700 C   0  0  0  0  0  3  0  0  0  0  0  0
  -24.8030  -29.0910   20.0890 C   0  0  0  0  0  0  0  0  0  0  0  0
  -25.8660  -30.9960   21.3110 C   0  0  0  0  0  2  0  0  0  0  0  0
  -25.9630  -29.6380   20.6490 C   0  0  0  0  0  0  0  0  0  0  0  0
  -27.1850  -28.9310   20.5970 C   0  0  0  0  0  3  0  0  0  0  0  0
  -26.0570  -27.1110   19.4440 C   0  0  0  0  0  3  0  0  0  0  0  0
  -24.8410  -27.8210   19.4880 C   0  0  0  0  0  3  0  0  0  0  0  0
  -23.5410  -29.9200   20.1780 C   0  0  0  0  0  2  0  0  0  0  0  0
  -24.6180  -31.2010   22.0850 N   0  0  0  0  0  0  0  0  0  0  0  0
  -23.5080  -32.2280   23.7750 O   0  0  0  0  0  0  0  0  0  0  0  0
  -22.7460  -29.5380   22.5320 C   0  0  0  0  0  0  0  0  0  0  0  0
  -21.4250  -29.3220   22.4240 N   0  0  0  0  0  0  0  0  0  0  0  0
  -23.4590  -28.9260   23.3320 O   0  0  0  0  0  0  0  0  0  0  0  0
  -20.9110  -29.8680   21.7470 H   0  0  0  0  0  0  0  0  0  0  0  0
  -18.0960  -28.0200   22.9440 C   0  0  0  0  0  0  0  0  0  0  0  0
  -20.6440  -28.3590   23.2000 C   0  0  0  0  0  3  0  0  0  0  0  0
  -20.7900  -26.9320   22.6230 C   0  0  0  0  0  2  0  0  0  0  0  0
  -19.6940  -26.5750   21.6150 C   0  0  0  0  0  2  0  0  0  0  0  0
  -18.3110  -26.6780   22.2670 C   0  0  0  0  0  2  0  0  0  0  0  0
  -19.1910  -28.8170   23.3670 C   0  0  0  0  0  0  0  0  0  0  0  0
  -18.9380  -30.0740   23.9590 C   0  0  0  0  0  3  0  0  0  0  0  0
  -17.6200  -30.5340   24.1330 C   0  0  0  0  0  3  0  0  0  0  0  0
  -16.5370  -29.7340   23.7260 C   0  0  0  0  0  3  0  0  0  0  0  0
  -16.7760  -28.4800   23.1370 C   0  0  0  0  0  3  0  0  0  0  0  0
  -25.8710  -32.6260   23.7960 C   0  0  0  0  0  3  0  0  0  0  0  0
  -25.5530  -34.0170   24.1410 N   0  0  0  0  0  0  0  0  0  0  0  0
  -25.8630  -35.0790   23.3860 C   0  0  0  0  0  0  0  0  0  0  0  0
  -26.5210  -34.9920   22.3450 O   0  0  0  0  0  0  0  0  0  0  0  0
  -24.9670  -34.1590   24.9520 H   0  0  0  0  0  0  0  0  0  0  0  0
  -24.1200  -36.8600   23.0560 C   0  0  0  0  0  1  0  0  0  0  0  0
  -25.3660  -36.4570   23.8610 C   0  0  0  0  0  3  0  0  0  0  0  0
  -27.4920  -37.3500   24.7030 C   0  0  0  0  0  1  0  0  0  0  0  0
  -26.3890  -37.5190   23.7600 N   0  0  0  0  0  0  0  0  0  0  0  0
  -25.9750  -38.4340   23.9190 H   0  0  0  0  0  0  0  0  0  0  0  0
  -26.4320  -31.8520   25.0510 C   0  0  1  0  0  0  0  0  0  0  0  0
  -25.3700  -31.5910   26.1450 C   0  0  0  0  0  1  0  0  0  0  0  0
  -27.0220  -30.4850   24.6320 C   0  0  0  0  0  1  0  0  0  0  0  0
  -27.5880  -32.6570   25.6910 C   0  0  0  0  0  1  0  0  0  0  0  0
  -31.1120  -21.3690   22.6160 C   0  0  0  0  0  2  0  0  0  0  0  0
  -31.4450  -20.9050   24.0360 C   0  0  0  0  0  0  0  0  0  0  0  0
  -32.2640  -21.6600   24.7610 N   0  0  0  0  0  0  0  0  0  0  0  0
  -30.9430  -19.8830   24.4990 O   0  0  0  0  0  0  0  0  0  0  0  0
  -32.6680  -22.5070   24.3870 H   0  0  0  0  0  0  0  0  0  0  0  0
  -32.4850  -21.3970   25.7130 H   0  0  0  0  0  0  0  0  0  0  0  0
  1 99  1  0
  2  4  2  0
  3  2  1  0
  3  1  1  0
  5  3  1  0
  6 15  2  3
  6  2  1  0
  8 13  1  0
  9 10  1  0
  9  8  1  0
 11 10  1  0
 11 20  1  0
 11 12  1  0
 13  7  1  0
 13 12  1  0
 14  7  2  0
 15  7  1  0
 15 16  1  0
 17 18  2  0
 18 37  1  0
 19 18  1  0
 19 22  1  0
 20 17  1  0
 20 21  1  0
 21 19  2  0
 22 23  1  0
 23 24  2  0
 25 24  1  0
 26 25  2  0
 27 26  1  0
 27 22  2  0
 28 25  1  0
 28 29  1  0
 29 30  1  0
 30 31  2  0
 32 31  1  0
 32 36  1  0
 33 32  2  0
 34 29  2  0
 34 33  1  0
 35 34  1  0
 37 38  1  0
 38 41  1  0
 38 40  1  0
 39 37  2  0
 42 17  1  0
 42 43  1  0
 44 42  1  0
 48 45  1  1
 46 48  1  0
 47 48  1  0
 48  6  1  0
 49 50  1  0
 49  1  1  0
 50 52  1  0
 51 49  2  0
 53 54  1  0
 53 50  1  0
 55 54  1  0
 55 56  1  0
 57 58  1  0
 57 56  1  0
 58 60  1  0
 59 70  2  0
 60 65  1  0
 61 69  1  0
 61 71  1  0
 62 68  1  0
 62 64  1  0
 63 69  1  0
 64 63  1  0
 65 64  2  0
 66 67  1  0
 66 60  2  0
 67 62  2  0
 68 61  1  0
 69 59  1  0
 71 73  2  0
 72 71  1  0
 74 72  1  0
 75 84  2  0
 75 80  1  0
 76 72  1  0
 76 80  1  0
 77 76  1  0
 78 79  1  0
 78 77  1  0
 79 75  1  0
 80 81  2  0
 81 82  1  0
 83 82  2  0
 84 83  1  0
 85 59  1  0
 85 86  1  0
 85 95  1  0
 86 89  1  0
 87 91  1  0
 87 86  1  0
 88 87  2  0
 91 90  1  0
 93 91  1  0
 93 94  1  0
 93 92  1  0
 95 98  1  1
 95 96  1  0
 97 95  1  0
 99100  1  0
100102  2  0
100101  1  0
101104  1  0
103101  1  0
M  ISO  4   7 100  15 100  57 101  58 101
M  END
>  <TORSDO>  (38) 
F 27

>  <SCORE>  (38) 
-11.788

>  <name>  (38) 
39

>  <ligand_id>  (38) 
39

>  <original_smiles>  (38) 
[H]c1c([H])c([H])c2c(c1[H])C([H])([H])C([H])([H])C([H])([H])C2([H])N([H])C(=O)C1([H])N(C(=O)C([H])(N([H])C(=O)C([H])(N([H])C([H])([H])[H])C([H])([H])[H])C(C([H])([H])[H])(C([H])([H])[H])C([H])([H])[H])C([H])([H])c2c([H])c(OC([H])([H])C([H])([H])OC([H])([H])C([H])([H])N([H])C(=O)C([H])(N([H])C(=O)C([H])(N([H])C(=O)N3C([H])([H])C([H])([H])C([H])([H])C([H])(n4nc(-c5c([H])c([H])c(Oc6c([H])c([H])c(F)c([H])c6F)c([H])c5[H])c(C(=O)N([H])[H])c4N([H])[H])C3([H])[H])C(C([H])([H])[H])(C([H])([H])[H])C([H])([H])[H])C([H])([H])C(=O)N([H])[H])c([H])c([H])c2C1([H])[H]

>  <smiles>  (38) 
[H]c1c([H])c([H])c2c(c1[H])C([H])([H])C([H])([H])C([H])([H])C2([H])N([H])C(=O)C1([H])N(C(=O)C([H])(N([H])C(=O)C([H])(N([H])C([H])([H])[H])C([H])([H])[H])C(C([H])([H])[H])(C([H])([H])[H])C([H])([H])[H])C([H])([H])c2c([H])c(OC([H])([H])C([H])([H])OC([H])([H])C([H])([H])N([H])C(=O)C([H])(N([H])C(=O)C([H])(N([H])C(=O)N3C([H])([H])C([H])([H])C([H])([H])C([H])(n4nc(-c5c([H])c([H])c(Oc6c([H])c([H])c(F)c([H])c6F)c([H])c5[H])c(C(=O)N([H])[H])c4N([H])[H])C3([H])[H])C(C([H])([H])[H])(C([H])([H])[H])C([H])([H])[H])C([H])([H])C(=O)N([H])[H])c([H])c([H])c2C1([H])[H]

$$$$
40:0:0
     RDKit          3D

106113  0  0  1  0  0  0  0  0999 V2000
  -33.3600  -27.6340   16.8550 N   0  0  0  0  0  4  0  0  0  0  0  0
  -33.6110  -26.9220   17.5310 H   0  0  0  0  0  0  0  0  0  0  0  0
  -34.1760  -27.8870   16.3230 H   0  0  0  0  0  0  0  0  0  0  0  0
  -32.3650  -26.9800   15.9780 C   0  0  0  0  0  3  0  0  0  0  0  0
  -33.7670  -27.4750   13.9100 C   0  0  0  0  0  1  0  0  0  0  0  0
  -34.0340  -25.2270   14.9970 C   0  0  0  0  0  1  0  0  0  0  0  0
  -31.9390  -25.7960   13.7580 C   0  0  0  0  0  1  0  0  0  0  0  0
  -33.0290  -26.3620   14.6940 C   0  0  1  0  0  0  0  0  0  0  0  0
  -31.5570  -26.0190   16.8760 C   0  0  0  0  0  0  0  0  0  0  0  0
  -30.2300  -26.1960   16.9130 N   0  0  0  0  0  0  0  0  0  0  0  0
  -32.1450  -25.2200   17.6100 O   0  0  0  0  0  0  0  0  0  0  0  0
  -29.8130  -26.8120   16.2290 H   0  0  0  0  0  0  0  0  0  0  0  0
  -29.3730  -25.8090   18.0300 C   0  0  0  0  0  2  0  0  0  0  0  0
  -29.2940  -26.9830   19.0320 C   0  0  0  0  0  2  0  0  0  0  0  0
  -28.3840  -26.7050   20.0860 O   0  0  0  0  0  0  0  0  0  0  0  0
  -24.6100  -31.8690   23.2120 C   0  0  0  0  0  0  0  0  0  0  0  0
  -27.2430  -27.4630   20.0800 C   0  0  0  0  0  0  0  0  0  0  0  0
  -23.4010  -30.4890   21.5480 C   0  0  0  0  0  3  0  0  0  0  0  0
  -24.8520  -28.9580   20.1100 C   0  0  0  0  0  0  0  0  0  0  0  0
  -25.9270  -30.8420   21.3620 C   0  0  0  0  0  2  0  0  0  0  0  0
  -26.0080  -29.4770   20.7080 C   0  0  0  0  0  0  0  0  0  0  0  0
  -27.2100  -28.7350   20.6910 C   0  0  0  0  0  3  0  0  0  0  0  0
  -26.0710  -26.9430   19.4920 C   0  0  0  0  0  3  0  0  0  0  0  0
  -24.8770  -27.6890   19.5010 C   0  0  0  0  0  3  0  0  0  0  0  0
  -23.6110  -29.8170   20.1630 C   0  0  0  0  0  2  0  0  0  0  0  0
  -24.6630  -31.0810   22.1010 N   0  0  0  0  0  0  0  0  0  0  0  0
  -23.5300  -32.1430   23.7510 O   0  0  0  0  0  0  0  0  0  0  0  0
  -22.7400  -29.4650   22.4970 C   0  0  0  0  0  0  0  0  0  0  0  0
  -21.4130  -29.3000   22.3720 N   0  0  0  0  0  0  0  0  0  0  0  0
  -23.4170  -28.8140   23.2990 O   0  0  0  0  0  0  0  0  0  0  0  0
  -20.9260  -29.8800   21.7020 H   0  0  0  0  0  0  0  0  0  0  0  0
  -18.0290  -28.1320   22.8490 C   0  0  0  0  0  0  0  0  0  0  0  0
  -20.5890  -28.3610   23.1300 C   0  0  0  0  0  3  0  0  0  0  0  0
  -20.6750  -26.9340   22.5410 C   0  0  0  0  0  2  0  0  0  0  0  0
  -19.5740  -26.6330   21.5190 C   0  0  0  0  0  2  0  0  0  0  0  0
  -18.1920  -26.7880   22.1600 C   0  0  0  0  0  2  0  0  0  0  0  0
  -19.1540  -28.8790   23.2900 C   0  0  0  0  0  0  0  0  0  0  0  0
  -18.9450  -30.1400   23.8890 C   0  0  0  0  0  3  0  0  0  0  0  0
  -17.6460  -30.6530   24.0550 C   0  0  0  0  0  3  0  0  0  0  0  0
  -16.5340  -29.9040   23.6290 C   0  0  0  0  0  3  0  0  0  0  0  0
  -16.7280  -28.6460   23.0310 C   0  0  0  0  0  3  0  0  0  0  0  0
  -25.9000  -32.4830   23.8430 C   0  0  0  0  0  3  0  0  0  0  0  0
  -26.4440  -31.6600   25.0740 C   0  0  1  0  0  0  0  0  0  0  0  0
  -25.3710  -31.3680   26.1510 C   0  0  0  0  0  1  0  0  0  0  0  0
  -27.0280  -30.3050   24.6090 C   0  0  0  0  0  1  0  0  0  0  0  0
  -27.6020  -32.4340   25.7490 C   0  0  0  0  0  1  0  0  0  0  0  0
  -25.5860  -33.8610   24.2360 N   0  0  0  0  0  0  0  0  0  0  0  0
  -25.8990  -34.9460   23.5130 C   0  0  0  0  0  0  0  0  0  0  0  0
  -26.5550  -34.8910   22.4690 O   0  0  0  0  0  0  0  0  0  0  0  0
  -25.0020  -33.9810   25.0490 H   0  0  0  0  0  0  0  0  0  0  0  0
  -24.1480  -36.7320   23.2640 C   0  0  0  0  0  1  0  0  0  0  0  0
  -25.4080  -36.3090   24.0340 C   0  0  0  0  0  3  0  0  0  0  0  0
  -27.5570  -37.1810   24.8460 C   0  0  0  0  0  1  0  0  0  0  0  0
  -26.4270  -37.3780   23.9420 N   0  0  0  0  0  0  0  0  0  0  0  0
  -26.0150  -38.2870   24.1380 H   0  0  0  0  0  0  0  0  0  0  0  0
  -32.8520  -28.8070   17.6170 C   0  0  0  0  0  2  0  0  0  0  0  0
  -33.2820  -28.7390   19.0860 C   0  0  0  0  0  2  0  0  0  0  0  0
  -33.0270  -27.4120   19.5310 O   0  0  0  0  0  0  0  0  0  0  0  0
  -32.9650  -27.2930   20.9460 C   0  0  0  0  0  2  0  0  0  0  0  0
  -33.2820  -25.8470   21.3610 C   0  0  0  0  0  2  0  0  0  0  0  0
  -32.2460  -24.9220   21.0320 O   0  0  0  0  0  0  0  0  0  0  0  0
  -32.6000  -23.6080   21.4580 C   0  0  0  0  0  2  0  0  0  0  0  0
  -31.5410  -22.5440   21.1100 C   0  0  0  0  0  2  0  0  0  0  0  0
  -31.9480  -21.1750   21.6870 C   0  0  0  0  0  2  0  0  0  0  0  0
  -31.0750  -20.1230   21.2830 O   0  0  0  0  0  0  0  0  0  0  0  0
  -31.4140  -18.8950   21.9280 C   0  0  0  0  0  2  0  0  0  0  0  0
  -30.5710  -17.7170   21.4090 C   0  0  0  0  0  2  0  0  0  0  0  0
  -30.9410  -16.4040   22.1300 C   0  0  0  0  0  2  0  0  0  0  0  0
  -30.7570  -14.3920   20.6650 C   0  0  0  0  0  0  0  0  0  0  0  0
  -30.4210  -12.3010   19.3980 C   0  0  0  0  0  2  0  0  0  0  0  0
  -29.4870  -12.5230   18.1940 C   0  0  0  0  0  2  0  0  0  0  0  0
  -28.0100  -12.3850   18.6090 C   0  0  0  0  0  2  0  0  0  0  0  0
  -27.6660  -13.2070   19.8790 C   0  0  0  0  0  3  0  0  0  0  0  0
  -28.7060  -12.9540   20.9930 C   0  0  0  0  0  2  0  0  0  0  0  0
  -30.0450  -13.2540   20.4520 N   0  0  0  0  0  0  0  0  0  0  0  0
  -31.8060  -14.6550   20.0690 O   0  0  0  0  0  0  0  0  0  0  0  0
  -30.2610  -15.2230   21.5920 N   0  0  0  0  0  0  0  0  0  0  0  0
  -29.3890  -14.9510   22.0240 H   0  0  0  0  0  0  0  0  0  0  0  0
  -25.2610  -13.8170   20.5680 C   0  0  0  0  0  0  0  0  0  0  0  0
  -24.1850  -13.0450   20.9170 C   0  0  0  0  0  0  0  0  0  0  0  0
  -24.6410  -11.6910   20.8740 C   0  0  0  0  0  0  0  0  0  0  0  0
  -26.3050  -12.9340   20.3380 N   0  0  0  0  0  0  0  0  0  0  0  0
  -25.9330  -11.6490   20.5770 N   0  0  0  0  0  0  0  0  0  0  0  0
  -23.9070  -10.4300   21.0410 C   0  0  0  0  0  0  0  0  0  0  0  0
  -24.3630   -9.4220   21.9190 C   0  0  0  0  0  3  0  0  0  0  0  0
  -23.6300   -8.2260   22.0760 C   0  0  0  0  0  3  0  0  0  0  0  0
  -22.4280   -8.0300   21.3550 C   0  0  0  0  0  0  0  0  0  0  0  0
  -21.9930   -9.0270   20.4640 C   0  0  0  0  0  3  0  0  0  0  0  0
  -22.7260  -10.2140   20.3050 C   0  0  0  0  0  3  0  0  0  0  0  0
  -21.6640   -6.8900   21.4250 O   0  0  0  0  0  0  0  0  0  0  0  0
  -21.6850   -6.0750   22.5280 C   0  0  0  0  0  0  0  0  0  0  0  0
  -21.4010   -6.5650   23.8220 C   0  0  0  0  0  3  0  0  0  0  0  0
  -21.3650   -5.6800   24.9180 C   0  0  0  0  0  3  0  0  0  0  0  0
  -21.6050   -4.3060   24.7230 C   0  0  0  0  0  0  0  0  0  0  0  0
  -21.8820   -3.8160   23.4350 C   0  0  0  0  0  3  0  0  0  0  0  0
  -21.9200   -4.6980   22.3400 C   0  0  0  0  0  0  0  0  0  0  0  0
  -22.1660   -4.2170   21.0980 F   0  0  0  0  0  0  0  0  0  0  0  0
  -21.5630   -3.4540   25.7730 F   0  0  0  0  0  0  0  0  0  0  0  0
  -22.7870  -13.5250   21.1820 C   0  0  0  0  0  0  0  0  0  0  0  0
  -22.0480  -12.8240   22.0350 N   0  0  0  0  0  0  0  0  0  0  0  0
  -22.3570  -14.5560   20.6680 O   0  0  0  0  0  0  0  0  0  0  0  0
  -22.4070  -11.9890   22.4740 H   0  0  0  0  0  0  0  0  0  0  0  0
  -21.1090  -13.1270   22.2500 H   0  0  0  0  0  0  0  0  0  0  0  0
  -25.4330  -15.1890   20.4090 N   0  0  0  0  0  0  0  0  0  0  0  0
  -24.6720  -15.8500   20.5260 H   0  0  0  0  0  0  0  0  0  0  0  0
  -26.2940  -15.6270   20.1020 H   0  0  0  0  0  0  0  0  0  0  0  0
  1  2  1  0
  1 56  1  0
  3  1  1  0
  4  1  1  0
  4  9  1  0
  8  5  1  6
  7  8  1  0
  8  6  1  0
  8  4  1  0
  9 10  1  0
  9 11  2  0
 10 13  1  0
 12 10  1  0
 13 14  1  0
 14 15  1  0
 16 27  2  0
 17 15  1  0
 17 22  1  0
 18 26  1  0
 18 28  1  0
 19 25  1  0
 19 21  1  0
 20 26  1  0
 21 20  1  0
 22 21  2  0
 23 24  1  0
 23 17  2  0
 24 19  2  0
 25 18  1  0
 26 16  1  0
 28 30  2  0
 29 28  1  0
 31 29  1  0
 32 41  2  0
 32 37  1  0
 33 29  1  0
 33 37  1  0
 34 33  1  0
 35 36  1  0
 35 34  1  0
 36 32  1  0
 37 38  2  0
 38 39  1  0
 40 39  2  0
 41 40  1  0
 42 16  1  0
 42 47  1  0
 42 43  1  0
 43 46  1  1
 43 44  1  0
 45 43  1  0
 47 50  1  0
 48 52  1  0
 48 47  1  0
 49 48  2  0
 52 51  1  0
 54 52  1  0
 54 55  1  0
 54 53  1  0
 56 57  1  0
 57 58  1  0
 58 59  1  0
 59 60  1  0
 61 60  1  0
 61 62  1  0
 63 62  1  0
 63 64  1  0
 65 64  1  0
 65 66  1  0
 67 66  1  0
 67 68  1  0
 69 77  1  0
 70 75  1  0
 71 72  1  0
 71 70  1  0
 73 72  1  0
 73 82  1  0
 73 74  1  0
 75 69  1  0
 75 74  1  0
 76 69  2  0
 77 78  1  0
 77 68  1  0
 79 80  2  0
 80 99  1  0
 81 80  1  0
 81 84  1  0
 82 79  1  0
 82 83  1  0
 83 81  2  0
 84 85  1  0
 85 86  2  0
 87 90  1  0
 87 86  1  0
 88 87  2  0
 89 88  1  0
 89 84  2  0
 90 91  1  0
 91 92  1  0
 92 93  2  0
 94 93  1  0
 94 98  1  0
 95 94  2  0
 96 91  2  0
 96 95  1  0
 97 96  1  0
 99100  1  0
100103  1  0
100102  1  0
101 99  2  0
104105  1  0
104 79  1  0
106104  1  0
M  ISO  4  14 101  15 101  69 100  77 100
M  END
>  <TORSDO>  (39) 
F 34

>  <SCORE>  (39) 
-8.144

>  <name>  (39) 
40

>  <ligand_id>  (39) 
40

>  <original_smiles>  (39) 
[H]c1c([H])c([H])c2c(c1[H])C([H])([H])C([H])([H])C([H])([H])C2([H])N([H])C(=O)C1([H])N(C(=O)C([H])(N([H])C(=O)C([H])(N([H])C([H])([H])[H])C([H])([H])[H])C(C([H])([H])[H])(C([H])([H])[H])C([H])([H])[H])C([H])([H])c2c([H])c(OC([H])([H])C([H])([H])N([H])C(=O)C([H])(C(C([H])([H])[H])(C([H])([H])[H])C([H])([H])[H])[N+]([H])([H])C([H])([H])C([H])([H])OC([H])([H])C([H])([H])OC([H])([H])C([H])([H])C([H])([H])OC([H])([H])C([H])([H])C([H])([H])N([H])C(=O)N3C([H])([H])C([H])([H])C([H])([H])C([H])(n4nc(-c5c([H])c([H])c(Oc6c([H])c([H])c(F)c([H])c6F)c([H])c5[H])c(C(=O)N([H])[H])c4N([H])[H])C3([H])[H])c([H])c([H])c2C1([H])[H]

>  <smiles>  (39) 
[H]c1c([H])c([H])c2c(c1[H])C([H])([H])C([H])([H])C([H])([H])C2([H])N([H])C(=O)C1([H])N(C(=O)C([H])(N([H])C(=O)C([H])(N([H])C([H])([H])[H])C([H])([H])[H])C(C([H])([H])[H])(C([H])([H])[H])C([H])([H])[H])C([H])([H])c2c([H])c(OC([H])([H])C([H])([H])N([H])C(=O)C([H])(C(C([H])([H])[H])(C([H])([H])[H])C([H])([H])[H])[N+]([H])([H])C([H])([H])C([H])([H])OC([H])([H])C([H])([H])OC([H])([H])C([H])([H])C([H])([H])OC([H])([H])C([H])([H])C([H])([H])N([H])C(=O)N3C([H])([H])C([H])([H])C([H])([H])C([H])(n4nc(-c5c([H])c([H])c(Oc6c([H])c([H])c(F)c([H])c6F)c([H])c5[H])c(C(=O)N([H])[H])c4N([H])[H])C3([H])[H])c([H])c([H])c2C1([H])[H]

$$$$
41:0:0
     RDKit          3D

101108  0  0  1  0  0  0  0  0999 V2000
  -32.0910  -19.8970   18.9120 C   0  0  0  0  0  0  0  0  0  0  0  0
  -33.2500  -19.2550   19.0460 N   0  0  0  0  0  0  0  0  0  0  0  0
  -31.1620  -19.7620   19.7100 O   0  0  0  0  0  0  0  0  0  0  0  0
  -33.9650  -19.3840   18.3410 H   0  0  0  0  0  0  0  0  0  0  0  0
  -33.5430  -18.2550   20.0560 C   0  0  0  0  0  2  0  0  0  0  0  0
  -35.0060  -17.8320   19.9230 C   0  0  0  0  0  2  0  0  0  0  0  0
  -35.2780  -17.5610   18.5500 O   0  0  0  0  0  0  0  0  0  0  0  0
  -36.4800  -16.8240   18.3670 C   0  0  0  0  0  2  0  0  0  0  0  0
  -36.1880  -15.3450   18.0580 C   0  0  0  0  0  2  0  0  0  0  0  0
  -35.3860  -14.7230   19.0620 O   0  0  0  0  0  0  0  0  0  0  0  0
  -35.6410  -13.3220   19.1780 C   0  0  0  0  0  2  0  0  0  0  0  0
  -34.5930  -12.6120   20.0510 C   0  0  0  0  0  2  0  0  0  0  0  0
  -34.5090  -13.2320   21.3320 O   0  0  0  0  0  0  0  0  0  0  0  0
  -33.5540  -12.6230   22.1940 C   0  0  0  0  0  2  0  0  0  0  0  0
  -33.0670  -13.6410   23.2470 C   0  0  0  0  0  2  0  0  0  0  0  0
  -32.2080  -14.8230   22.7200 C   0  0  0  0  0  2  0  0  0  0  0  0
  -30.8750  -14.2090   20.7360 C   0  0  0  0  0  0  0  0  0  0  0  0
  -30.4100  -12.2840   19.3110 C   0  0  0  0  0  2  0  0  0  0  0  0
  -29.4560  -12.5600   18.1440 C   0  0  0  0  0  2  0  0  0  0  0  0
  -28.0040  -12.3590   18.5980 C   0  0  0  0  0  2  0  0  0  0  0  0
  -27.6700  -13.1910   19.8680 C   0  0  0  0  0  3  0  0  0  0  0  0
  -28.7200  -12.9410   20.9770 C   0  0  0  0  0  2  0  0  0  0  0  0
  -30.0660  -13.1770   20.4220 N   0  0  0  0  0  0  0  0  0  0  0  0
  -31.6950  -14.7070   19.9630 O   0  0  0  0  0  0  0  0  0  0  0  0
  -30.9890  -14.3680   22.0560 N   0  0  0  0  0  0  0  0  0  0  0  0
  -30.2730  -13.9350   22.6210 H   0  0  0  0  0  0  0  0  0  0  0  0
  -25.2680  -13.8100   20.5620 C   0  0  0  0  0  0  0  0  0  0  0  0
  -24.1900  -13.0410   20.9180 C   0  0  0  0  0  0  0  0  0  0  0  0
  -24.6460  -11.6890   20.8810 C   0  0  0  0  0  0  0  0  0  0  0  0
  -26.3100  -12.9260   20.3360 N   0  0  0  0  0  0  0  0  0  0  0  0
  -25.9370  -11.6440   20.5790 N   0  0  0  0  0  0  0  0  0  0  0  0
  -23.9120  -10.4280   21.0460 C   0  0  0  0  0  0  0  0  0  0  0  0
  -24.3640   -9.4160   21.9250 C   0  0  0  0  0  3  0  0  0  0  0  0
  -23.6330   -8.2190   22.0770 C   0  0  0  0  0  3  0  0  0  0  0  0
  -22.4290   -8.0280   21.3560 C   0  0  0  0  0  0  0  0  0  0  0  0
  -21.9930   -9.0270   20.4650 C   0  0  0  0  0  3  0  0  0  0  0  0
  -22.7290  -10.2150   20.3110 C   0  0  0  0  0  3  0  0  0  0  0  0
  -21.6630   -6.8880   21.4260 O   0  0  0  0  0  0  0  0  0  0  0  0
  -21.6810   -6.0750   22.5300 C   0  0  0  0  0  0  0  0  0  0  0  0
  -21.3980   -6.5650   23.8220 C   0  0  0  0  0  3  0  0  0  0  0  0
  -21.3660   -5.6790   24.9210 C   0  0  0  0  0  3  0  0  0  0  0  0
  -21.6040   -4.3070   24.7270 C   0  0  0  0  0  0  0  0  0  0  0  0
  -21.8810   -3.8150   23.4390 C   0  0  0  0  0  3  0  0  0  0  0  0
  -21.9180   -4.6960   22.3440 C   0  0  0  0  0  0  0  0  0  0  0  0
  -22.1630   -4.2140   21.1020 F   0  0  0  0  0  0  0  0  0  0  0  0
  -21.5660   -3.4560   25.7780 F   0  0  0  0  0  0  0  0  0  0  0  0
  -22.7930  -13.5240   21.1830 C   0  0  0  0  0  0  0  0  0  0  0  0
  -22.0490  -12.8290   22.0380 N   0  0  0  0  0  0  0  0  0  0  0  0
  -22.3680  -14.5550   20.6680 O   0  0  0  0  0  0  0  0  0  0  0  0
  -22.3990  -11.9930   22.4810 H   0  0  0  0  0  0  0  0  0  0  0  0
  -21.1170  -13.1490   22.2570 H   0  0  0  0  0  0  0  0  0  0  0  0
  -25.4470  -15.1810   20.4020 N   0  0  0  0  0  0  0  0  0  0  0  0
  -24.6880  -15.8470   20.4970 H   0  0  0  0  0  0  0  0  0  0  0  0
  -26.3230  -15.6180   20.1390 H   0  0  0  0  0  0  0  0  0  0  0  0
  -31.9830  -20.7860   17.6710 C   0  0  0  0  0  2  0  0  0  0  0  0
  -30.7410  -21.6800   17.6250 C   0  0  0  0  0  2  0  0  0  0  0  0
  -30.8750  -22.7940   18.5010 O   0  0  0  0  0  0  0  0  0  0  0  0
  -29.6670  -23.5300   18.5330 C   0  0  0  0  0  2  0  0  0  0  0  0
  -29.7780  -24.8100   19.3680 C   0  0  0  0  0  2  0  0  0  0  0  0
  -28.4090  -25.4980   19.3750 C   0  0  0  0  0  2  0  0  0  0  0  0
  -28.4130  -26.7530   20.0520 O   0  0  0  0  0  0  0  0  0  0  0  0
  -24.6140  -31.8710   23.2130 C   0  0  0  0  0  0  0  0  0  0  0  0
  -27.2220  -27.4510   20.0720 C   0  0  0  0  0  0  0  0  0  0  0  0
  -23.3970  -30.5000   21.5580 C   0  0  0  0  0  3  0  0  0  0  0  0
  -24.8350  -28.9720   20.1170 C   0  0  0  0  0  0  0  0  0  0  0  0
  -25.9260  -30.8390   21.3640 C   0  0  0  0  0  2  0  0  0  0  0  0
  -25.9980  -29.4760   20.7110 C   0  0  0  0  0  0  0  0  0  0  0  0
  -27.1930  -28.7210   20.6910 C   0  0  0  0  0  3  0  0  0  0  0  0
  -26.0270  -26.9540   19.4900 C   0  0  0  0  0  3  0  0  0  0  0  0
  -24.8430  -27.7070   19.5100 C   0  0  0  0  0  3  0  0  0  0  0  0
  -23.6000  -29.8400   20.1690 C   0  0  0  0  0  2  0  0  0  0  0  0
  -24.6650  -31.0820   22.1040 N   0  0  0  0  0  0  0  0  0  0  0  0
  -23.5350  -32.1460   23.7550 O   0  0  0  0  0  0  0  0  0  0  0  0
  -22.7390  -29.4680   22.5020 C   0  0  0  0  0  0  0  0  0  0  0  0
  -21.4120  -29.3040   22.3750 N   0  0  0  0  0  0  0  0  0  0  0  0
  -23.4180  -28.8210   23.3030 O   0  0  0  0  0  0  0  0  0  0  0  0
  -20.9270  -29.8810   21.7020 H   0  0  0  0  0  0  0  0  0  0  0  0
  -18.0260  -28.1380   22.8490 C   0  0  0  0  0  0  0  0  0  0  0  0
  -20.5850  -28.3660   23.1320 C   0  0  0  0  0  3  0  0  0  0  0  0
  -20.6740  -26.9400   22.5410 C   0  0  0  0  0  2  0  0  0  0  0  0
  -19.5730  -26.6380   21.5200 C   0  0  0  0  0  2  0  0  0  0  0  0
  -18.1910  -26.7910   22.1610 C   0  0  0  0  0  2  0  0  0  0  0  0
  -19.1500  -28.8830   23.2900 C   0  0  0  0  0  0  0  0  0  0  0  0
  -18.9440  -30.1430   23.8910 C   0  0  0  0  0  3  0  0  0  0  0  0
  -17.6450  -30.6580   24.0560 C   0  0  0  0  0  3  0  0  0  0  0  0
  -16.5340  -29.9090   23.6330 C   0  0  0  0  0  3  0  0  0  0  0  0
  -16.7250  -28.6510   23.0340 C   0  0  0  0  0  3  0  0  0  0  0  0
  -25.9060  -32.4820   23.8410 C   0  0  0  0  0  3  0  0  0  0  0  0
  -25.5920  -33.8630   24.2340 N   0  0  0  0  0  0  0  0  0  0  0  0
  -25.9040  -34.9480   23.5140 C   0  0  0  0  0  0  0  0  0  0  0  0
  -26.5600  -34.8940   22.4700 O   0  0  0  0  0  0  0  0  0  0  0  0
  -25.0060  -33.9790   25.0480 H   0  0  0  0  0  0  0  0  0  0  0  0
  -24.1490  -36.7330   23.2630 C   0  0  0  0  0  1  0  0  0  0  0  0
  -25.4090  -36.3120   24.0350 C   0  0  0  0  0  3  0  0  0  0  0  0
  -27.5600  -37.1770   24.8430 C   0  0  0  0  0  1  0  0  0  0  0  0
  -26.4260  -37.3810   23.9460 N   0  0  0  0  0  0  0  0  0  0  0  0
  -26.0150  -38.2860   24.1560 H   0  0  0  0  0  0  0  0  0  0  0  0
  -26.4480  -31.6600   25.0730 C   0  0  1  0  0  0  0  0  0  0  0  0
  -25.3750  -31.3730   26.1490 C   0  0  0  0  0  1  0  0  0  0  0  0
  -27.0300  -30.3030   24.6110 C   0  0  0  0  0  1  0  0  0  0  0  0
  -27.6070  -32.4300   25.7480 C   0  0  0  0  0  1  0  0  0  0  0  0
  1  2  1  0
  1  3  2  0
  2  5  1  0
  4  2  1  0
  6  5  1  0
  7  6  1  0
  8  7  1  0
  9  8  1  0
  9 10  1  0
 10 11  1  0
 11 12  1  0
 12 13  1  0
 13 14  1  0
 14 15  1  0
 16 15  1  0
 17 25  1  0
 18 23  1  0
 19 20  1  0
 19 18  1  0
 21 20  1  0
 21 30  1  0
 21 22  1  0
 23 17  1  0
 23 22  1  0
 24 17  2  0
 25 26  1  0
 25 16  1  0
 27 28  2  0
 28 47  1  0
 29 28  1  0
 29 32  1  0
 30 27  1  0
 30 31  1  0
 31 29  2  0
 32 33  1  0
 33 34  2  0
 35 38  1  0
 35 34  1  0
 36 35  2  0
 37 36  1  0
 37 32  2  0
 38 39  1  0
 39 40  1  0
 40 41  2  0
 42 41  1  0
 42 46  1  0
 43 42  2  0
 44 39  2  0
 44 43  1  0
 45 44  1  0
 47 48  1  0
 48 51  1  0
 48 50  1  0
 49 47  2  0
 52 53  1  0
 52 27  1  0
 54 52  1  0
 55  1  1  0
 56 55  1  0
 56 57  1  0
 57 58  1  0
 58 59  1  0
 59 60  1  0
 60 61  1  0
 61 63  1  0
 62 73  2  0
 63 68  1  0
 64 72  1  0
 64 74  1  0
 65 71  1  0
 65 67  1  0
 66 72  1  0
 67 66  1  0
 68 67  2  0
 69 70  1  0
 69 63  2  0
 70 65  2  0
 71 64  1  0
 72 62  1  0
 74 76  2  0
 75 74  1  0
 77 75  1  0
 78 87  2  0
 78 83  1  0
 79 75  1  0
 79 83  1  0
 80 79  1  0
 81 82  1  0
 81 80  1  0
 82 78  1  0
 83 84  2  0
 84 85  1  0
 86 85  2  0
 87 86  1  0
 88 62  1  0
 88 89  1  0
 88 98  1  0
 89 92  1  0
 90 94  1  0
 90 89  1  0
 91 90  2  0
 94 93  1  0
 96 94  1  0
 96 97  1  0
 96 95  1  0
 98101  1  1
 98 99  1  0
100 98  1  0
M  ISO  4  17 100  25 100  60 101  61 101
M  END
>  <TORSDO>  (40) 
F 34

>  <SCORE>  (40) 
-5.507

>  <name>  (40) 
41

>  <ligand_id>  (40) 
41

>  <original_smiles>  (40) 
[H]c1c([H])c([H])c2c(c1[H])C([H])([H])C([H])([H])C([H])([H])C2([H])N([H])C(=O)C1([H])N(C(=O)C([H])(N([H])C(=O)C([H])(N([H])C([H])([H])[H])C([H])([H])[H])C(C([H])([H])[H])(C([H])([H])[H])C([H])([H])[H])C([H])([H])c2c([H])c(OC([H])([H])C([H])([H])C([H])([H])OC([H])([H])C([H])([H])C(=O)N([H])C([H])([H])C([H])([H])OC([H])([H])C([H])([H])OC([H])([H])C([H])([H])OC([H])([H])C([H])([H])C([H])([H])N([H])C(=O)N3C([H])([H])C([H])([H])C([H])([H])C([H])(n4nc(-c5c([H])c([H])c(Oc6c([H])c([H])c(F)c([H])c6F)c([H])c5[H])c(C(=O)N([H])[H])c4N([H])[H])C3([H])[H])c([H])c([H])c2C1([H])[H]

>  <smiles>  (40) 
[H]c1c([H])c([H])c2c(c1[H])C([H])([H])C([H])([H])C([H])([H])C2([H])N([H])C(=O)C1([H])N(C(=O)C([H])(N([H])C(=O)C([H])(N([H])C([H])([H])[H])C([H])([H])[H])C(C([H])([H])[H])(C([H])([H])[H])C([H])([H])[H])C([H])([H])c2c([H])c(OC([H])([H])C([H])([H])C([H])([H])OC([H])([H])C([H])([H])C(=O)N([H])C([H])([H])C([H])([H])OC([H])([H])C([H])([H])OC([H])([H])C([H])([H])OC([H])([H])C([H])([H])C([H])([H])N([H])C(=O)N3C([H])([H])C([H])([H])C([H])([H])C([H])(n4nc(-c5c([H])c([H])c(Oc6c([H])c([H])c(F)c([H])c6F)c([H])c5[H])c(C(=O)N([H])[H])c4N([H])[H])C3([H])[H])c([H])c([H])c2C1([H])[H]

$$$$
42:0:0
     RDKit          3D

108117  0  0  1  0  0  0  0  0999 V2000
  -32.4590  -22.7440   14.0700 C   0  0  0  0  0  0  0  0  0  0  0  0
  -28.7430  -23.7790   14.6960 C   0  0  0  0  0  2  0  0  0  0  0  0
  -32.4060  -21.2740   13.6810 C   0  0  0  0  0  3  0  0  0  0  0  0
  -30.9830  -24.4130   15.2000 C   0  0  0  0  0  3  0  0  0  0  0  0
  -30.9150  -20.9350   13.8400 C   0  0  0  0  0  3  0  0  0  0  0  0
  -30.3350  -22.0770   14.7120 C   0  0  0  0  0  3  0  0  0  0  0  0
  -32.9730  -20.9610   12.2860 C   0  0  0  0  0  1  0  0  0  0  0  0
  -31.3650  -23.0800   14.7570 N   0  0  0  0  0  0  0  0  0  0  0  0
  -33.4070  -23.4880   13.7970 O   0  0  0  0  0  0  0  0  0  0  0  0
  -29.7130  -24.7840   14.6140 O   0  0  0  0  0  0  0  0  0  0  0  0
  -29.1930  -22.6030   14.0880 O   0  0  0  0  0  0  0  0  0  0  0  0
  -30.8520  -24.5320   16.7330 C   0  0  0  0  0  0  0  0  0  0  0  0
  -30.4640  -25.7260   17.1870 N   0  0  0  0  0  0  0  0  0  0  0  0
  -31.0600  -23.5690   17.4750 O   0  0  0  0  0  0  0  0  0  0  0  0
  -30.2760  -26.4330   16.4870 H   0  0  0  0  0  0  0  0  0  0  0  0
  -30.2030  -26.0830   18.5760 C   0  0  0  0  0  2  0  0  0  0  0  0
  -28.7030  -25.9950   18.8980 C   0  0  0  0  0  2  0  0  0  0  0  0
  -28.4360  -26.7920   20.0490 O   0  0  0  0  0  0  0  0  0  0  0  0
  -24.6100  -31.8690   23.2160 C   0  0  0  0  0  0  0  0  0  0  0  0
  -27.2380  -27.4690   20.0750 C   0  0  0  0  0  0  0  0  0  0  0  0
  -23.3960  -30.4920   21.5570 C   0  0  0  0  0  3  0  0  0  0  0  0
  -24.8400  -28.9590   20.1220 C   0  0  0  0  0  0  0  0  0  0  0  0
  -25.9200  -30.8380   21.3670 C   0  0  0  0  0  2  0  0  0  0  0  0
  -25.9970  -29.4720   20.7230 C   0  0  0  0  0  0  0  0  0  0  0  0
  -27.1930  -28.7260   20.7120 C   0  0  0  0  0  3  0  0  0  0  0  0
  -26.0570  -26.9500   19.4950 C   0  0  0  0  0  3  0  0  0  0  0  0
  -24.8610  -27.6940   19.5120 C   0  0  0  0  0  3  0  0  0  0  0  0
  -23.6030  -29.8250   20.1690 C   0  0  0  0  0  2  0  0  0  0  0  0
  -24.6600  -31.0800   22.1060 N   0  0  0  0  0  0  0  0  0  0  0  0
  -23.5310  -32.1450   23.7590 O   0  0  0  0  0  0  0  0  0  0  0  0
  -22.7380  -29.4640   22.5050 C   0  0  0  0  0  0  0  0  0  0  0  0
  -21.4120  -29.3020   22.3810 N   0  0  0  0  0  0  0  0  0  0  0  0
  -23.4180  -28.8170   23.3060 O   0  0  0  0  0  0  0  0  0  0  0  0
  -20.9260  -29.8780   21.7080 H   0  0  0  0  0  0  0  0  0  0  0  0
  -18.0270  -28.1360   22.8510 C   0  0  0  0  0  0  0  0  0  0  0  0
  -20.5860  -28.3620   23.1380 C   0  0  0  0  0  3  0  0  0  0  0  0
  -20.6740  -26.9360   22.5450 C   0  0  0  0  0  2  0  0  0  0  0  0
  -19.5740  -26.6360   21.5210 C   0  0  0  0  0  2  0  0  0  0  0  0
  -18.1920  -26.7920   22.1590 C   0  0  0  0  0  2  0  0  0  0  0  0
  -19.1520  -28.8800   23.2940 C   0  0  0  0  0  0  0  0  0  0  0  0
  -18.9450  -30.1430   23.8930 C   0  0  0  0  0  3  0  0  0  0  0  0
  -17.6440  -30.6560   24.0580 C   0  0  0  0  0  3  0  0  0  0  0  0
  -16.5340  -29.9060   23.6330 C   0  0  0  0  0  3  0  0  0  0  0  0
  -16.7260  -28.6490   23.0320 C   0  0  0  0  0  3  0  0  0  0  0  0
  -25.9020  -32.4830   23.8410 C   0  0  0  0  0  3  0  0  0  0  0  0
  -25.5910  -33.8640   24.2360 N   0  0  0  0  0  0  0  0  0  0  0  0
  -25.9030  -34.9470   23.5130 C   0  0  0  0  0  0  0  0  0  0  0  0
  -26.5570  -34.8920   22.4690 O   0  0  0  0  0  0  0  0  0  0  0  0
  -25.0100  -33.9860   25.0520 H   0  0  0  0  0  0  0  0  0  0  0  0
  -24.1490  -36.7300   23.2630 C   0  0  0  0  0  1  0  0  0  0  0  0
  -25.4110  -36.3100   24.0350 C   0  0  0  0  0  3  0  0  0  0  0  0
  -27.5600  -37.1790   24.8480 C   0  0  0  0  0  1  0  0  0  0  0  0
  -26.4290  -37.3810   23.9440 N   0  0  0  0  0  0  0  0  0  0  0  0
  -26.0160  -38.2880   24.1410 H   0  0  0  0  0  0  0  0  0  0  0  0
  -26.4470  -31.6600   25.0720 C   0  0  1  0  0  0  0  0  0  0  0  0
  -25.3730  -31.3750   26.1490 C   0  0  0  0  0  1  0  0  0  0  0  0
  -27.0240  -30.3050   24.6040 C   0  0  0  0  0  1  0  0  0  0  0  0
  -27.6060  -32.4330   25.7450 C   0  0  0  0  0  1  0  0  0  0  0  0
  -30.7650  -19.6760   14.4840 O   0  0  0  0  0  0  0  0  0  0  0  0
  -29.4300  -19.1820   14.5010 C   0  0  0  0  0  2  0  0  0  0  0  0
  -29.1820  -18.4900   15.8460 C   0  0  0  0  0  2  0  0  0  0  0  0
  -29.3030  -19.4760   16.8640 O   0  0  0  0  0  0  0  0  0  0  0  0
  -29.1190  -18.9560   18.1700 C   0  0  0  0  0  2  0  0  0  0  0  0
  -29.7150  -19.9400   19.1830 C   0  0  0  0  0  2  0  0  0  0  0  0
  -29.7740  -19.2780   20.4350 O   0  0  0  0  0  0  0  0  0  0  0  0
  -30.7350  -19.8290   21.3240 C   0  0  0  0  0  2  0  0  0  0  0  0
  -30.7340  -18.9610   22.5840 C   0  0  0  0  0  2  0  0  0  0  0  0
  -31.1300  -17.6450   22.2130 O   0  0  0  0  0  0  0  0  0  0  0  0
  -31.1840  -16.7590   23.3170 C   0  0  0  0  0  2  0  0  0  0  0  0
  -31.7090  -15.4020   22.8350 C   0  0  0  0  0  2  0  0  0  0  0  0
  -30.8430  -14.2790   20.7780 C   0  0  0  0  0  0  0  0  0  0  0  0
  -30.4110  -12.3000   19.3740 C   0  0  0  0  0  2  0  0  0  0  0  0
  -29.4720  -12.5430   18.1820 C   0  0  0  0  0  2  0  0  0  0  0  0
  -28.0050  -12.3790   18.6120 C   0  0  0  0  0  2  0  0  0  0  0  0
  -27.6650  -13.2060   19.8770 C   0  0  0  0  0  3  0  0  0  0  0  0
  -28.7040  -12.9700   20.9950 C   0  0  0  0  0  2  0  0  0  0  0  0
  -30.0550  -13.2240   20.4590 N   0  0  0  0  0  0  0  0  0  0  0  0
  -31.7620  -14.6890   20.0620 O   0  0  0  0  0  0  0  0  0  0  0  0
  -30.7150  -14.6700   22.0500 N   0  0  0  0  0  0  0  0  0  0  0  0
  -29.9560  -14.2450   22.5640 H   0  0  0  0  0  0  0  0  0  0  0  0
  -25.2600  -13.8160   20.5680 C   0  0  0  0  0  0  0  0  0  0  0  0
  -24.1850  -13.0450   20.9160 C   0  0  0  0  0  0  0  0  0  0  0  0
  -24.6400  -11.6910   20.8730 C   0  0  0  0  0  0  0  0  0  0  0  0
  -26.3050  -12.9340   20.3380 N   0  0  0  0  0  0  0  0  0  0  0  0
  -25.9330  -11.6500   20.5760 N   0  0  0  0  0  0  0  0  0  0  0  0
  -23.9060  -10.4300   21.0400 C   0  0  0  0  0  0  0  0  0  0  0  0
  -24.3610   -9.4210   21.9180 C   0  0  0  0  0  3  0  0  0  0  0  0
  -23.6290   -8.2250   22.0750 C   0  0  0  0  0  3  0  0  0  0  0  0
  -22.4270   -8.0280   21.3540 C   0  0  0  0  0  0  0  0  0  0  0  0
  -21.9910   -9.0260   20.4650 C   0  0  0  0  0  3  0  0  0  0  0  0
  -22.7230  -10.2140   20.3050 C   0  0  0  0  0  3  0  0  0  0  0  0
  -21.6640   -6.8880   21.4230 O   0  0  0  0  0  0  0  0  0  0  0  0
  -21.6850   -6.0740   22.5280 C   0  0  0  0  0  0  0  0  0  0  0  0
  -21.4010   -6.5640   23.8210 C   0  0  0  0  0  3  0  0  0  0  0  0
  -21.3660   -5.6790   24.9180 C   0  0  0  0  0  3  0  0  0  0  0  0
  -21.6040   -4.3060   24.7230 C   0  0  0  0  0  0  0  0  0  0  0  0
  -21.8820   -3.8150   23.4350 C   0  0  0  0  0  3  0  0  0  0  0  0
  -21.9190   -4.6960   22.3400 C   0  0  0  0  0  0  0  0  0  0  0  0
  -22.1660   -4.2150   21.0980 F   0  0  0  0  0  0  0  0  0  0  0  0
  -21.5630   -3.4540   25.7750 F   0  0  0  0  0  0  0  0  0  0  0  0
  -22.7870  -13.5240   21.1830 C   0  0  0  0  0  0  0  0  0  0  0  0
  -22.0520  -12.8240   22.0400 N   0  0  0  0  0  0  0  0  0  0  0  0
  -22.3560  -14.5550   20.6690 O   0  0  0  0  0  0  0  0  0  0  0  0
  -22.4120  -11.9890   22.4770 H   0  0  0  0  0  0  0  0  0  0  0  0
  -21.1140  -13.1280   22.2630 H   0  0  0  0  0  0  0  0  0  0  0  0
  -25.4340  -15.1890   20.4100 N   0  0  0  0  0  0  0  0  0  0  0  0
  -24.6730  -15.8500   20.5230 H   0  0  0  0  0  0  0  0  0  0  0  0
  -26.3000  -15.6260   20.1190 H   0  0  0  0  0  0  0  0  0  0  0  0
  1  8  1  0
  3  7  1  0
  3  5  1  0
  3  1  1  0
  4 12  1  0
  5 59  1  0
  5  6  1  0
  6 11  1  0
  6  8  1  0
  8  4  1  0
  9  1  2  0
 10  2  1  0
 10  4  1  0
 11  2  1  0
 12 13  1  0
 12 14  2  0
 13 16  1  0
 15 13  1  0
 16 17  1  0
 17 18  1  0
 18 20  1  0
 19 30  2  0
 20 25  1  0
 21 29  1  0
 21 31  1  0
 22 28  1  0
 22 24  1  0
 23 29  1  0
 24 23  1  0
 25 24  2  0
 26 27  1  0
 26 20  2  0
 27 22  2  0
 28 21  1  0
 29 19  1  0
 31 33  2  0
 32 31  1  0
 34 32  1  0
 35 44  2  0
 35 40  1  0
 36 32  1  0
 36 40  1  0
 37 36  1  0
 38 39  1  0
 38 37  1  0
 39 35  1  0
 40 41  2  0
 41 42  1  0
 43 42  2  0
 44 43  1  0
 45 19  1  0
 45 46  1  0
 45 55  1  0
 46 49  1  0
 47 51  1  0
 47 46  1  0
 48 47  2  0
 51 50  1  0
 53 51  1  0
 53 54  1  0
 53 52  1  0
 55 58  1  1
 55 56  1  0
 57 55  1  0
 59 60  1  0
 60 61  1  0
 61 62  1  0
 62 63  1  0
 63 64  1  0
 64 65  1  0
 65 66  1  0
 66 67  1  0
 68 67  1  0
 68 69  1  0
 70 69  1  0
 71 79  1  0
 72 77  1  0
 73 74  1  0
 73 72  1  0
 75 74  1  0
 75 84  1  0
 75 76  1  0
 77 71  1  0
 77 76  1  0
 78 71  2  0
 79 80  1  0
 79 70  1  0
 81 82  2  0
 82101  1  0
 83 82  1  0
 83 86  1  0
 84 81  1  0
 84 85  1  0
 85 83  2  0
 86 87  1  0
 87 88  2  0
 89 92  1  0
 89 88  1  0
 90 89  2  0
 91 90  1  0
 91 86  2  0
 92 93  1  0
 93 94  1  0
 94 95  2  0
 96 95  1  0
 96100  1  0
 97 96  2  0
 98 93  2  0
 98 97  1  0
 99 98  1  0
101102  1  0
102105  1  0
102104  1  0
103101  2  0
106107  1  0
106 81  1  0
108106  1  0
M  ISO  4  17 101  18 101  71 100  79 100
M  END
>  <TORSDO>  (41) 
F 31

>  <SCORE>  (41) 
-7.267

>  <name>  (41) 
42

>  <ligand_id>  (41) 
42

>  <original_smiles>  (41) 
[H]c1c([H])c([H])c2c(c1[H])C([H])([H])C([H])([H])C([H])([H])C2([H])N([H])C(=O)C1([H])N(C(=O)C([H])(N([H])C(=O)C([H])(N([H])C([H])([H])[H])C([H])([H])[H])C(C([H])([H])[H])(C([H])([H])[H])C([H])([H])[H])C([H])([H])c2c([H])c(OC([H])([H])C([H])([H])N([H])C(=O)C3([H])OC([H])([H])OC4([H])N3C(=O)C([H])(C([H])([H])[H])C4([H])OC([H])([H])C([H])([H])OC([H])([H])C([H])([H])OC([H])([H])C([H])([H])OC([H])([H])C([H])([H])N([H])C(=O)N3C([H])([H])C([H])([H])C([H])([H])C([H])(n4nc(-c5c([H])c([H])c(Oc6c([H])c([H])c(F)c([H])c6F)c([H])c5[H])c(C(=O)N([H])[H])c4N([H])[H])C3([H])[H])c([H])c([H])c2C1([H])[H]

>  <smiles>  (41) 
[H]c1c([H])c([H])c2c(c1[H])C([H])([H])C([H])([H])C([H])([H])C2([H])N([H])C(=O)C1([H])N(C(=O)C([H])(N([H])C(=O)C([H])(N([H])C([H])([H])[H])C([H])([H])[H])C(C([H])([H])[H])(C([H])([H])[H])C([H])([H])[H])C([H])([H])c2c([H])c(OC([H])([H])C([H])([H])N([H])C(=O)C3([H])OC([H])([H])OC4([H])N3C(=O)C([H])(C([H])([H])[H])C4([H])OC([H])([H])C([H])([H])OC([H])([H])C([H])([H])OC([H])([H])C([H])([H])OC([H])([H])C([H])([H])N([H])C(=O)N3C([H])([H])C([H])([H])C([H])([H])C([H])(n4nc(-c5c([H])c([H])c(Oc6c([H])c([H])c(F)c([H])c6F)c([H])c5[H])c(C(=O)N([H])[H])c4N([H])[H])C3([H])[H])c([H])c([H])c2C1([H])[H]

$$$$
43:0:0
     RDKit          3D

113121  0  0  1  0  0  0  0  0999 V2000
  -25.2510  -21.6230   18.1300 C   0  0  0  0  0  2  0  0  0  0  0  0
  -26.1070  -22.2210   19.2720 C   0  0  0  0  0  2  0  0  0  0  0  0
  -25.3640  -23.2050   19.9950 O   0  0  0  0  0  0  0  0  0  0  0  0
  -25.7380  -23.3080   21.3730 C   0  0  0  0  0  2  0  0  0  0  0  0
  -25.4110  -24.7050   21.9230 C   0  0  0  0  0  0  0  0  0  0  0  0
  -26.3570  -25.2470   22.6950 N   0  0  0  0  0  0  0  0  0  0  0  0
  -24.3530  -25.2710   21.6420 O   0  0  0  0  0  0  0  0  0  0  0  0
  -27.2250  -24.7310   22.7730 H   0  0  0  0  0  0  0  0  0  0  0  0
  -26.4860  -26.6200   23.1720 C   0  0  0  0  0  2  0  0  0  0  0  0
  -27.9810  -27.0270   23.0920 C   0  0  0  0  0  2  0  0  0  0  0  0
  -28.7380  -25.9310   22.5830 O   0  0  0  0  0  0  0  0  0  0  0  0
  -29.9890  -26.2680   22.0130 C   0  0  0  0  0  2  0  0  0  0  0  0
  -30.5400  -24.9780   21.3740 C   0  0  0  0  0  2  0  0  0  0  0  0
  -29.6150  -24.3860   20.4560 O   0  0  0  0  0  0  0  0  0  0  0  0
  -29.5050  -25.0240   19.1830 C   0  0  0  0  0  2  0  0  0  0  0  0
  -28.1150  -25.6450   19.0030 C   0  0  0  0  0  2  0  0  0  0  0  0
  -28.0940  -26.9090   19.6600 O   0  0  0  0  0  0  0  0  0  0  0  0
  -24.4930  -31.9050   23.1740 C   0  0  0  0  0  0  0  0  0  0  0  0
  -26.9050  -27.5940   19.7420 C   0  0  0  0  0  0  0  0  0  0  0  0
  -23.1740  -30.5730   21.5610 C   0  0  0  0  0  3  0  0  0  0  0  0
  -24.5180  -29.0900   19.9900 C   0  0  0  0  0  0  0  0  0  0  0  0
  -25.6840  -30.9300   21.2200 C   0  0  0  0  0  2  0  0  0  0  0  0
  -25.7140  -29.5890   20.5230 C   0  0  0  0  0  0  0  0  0  0  0  0
  -26.9040  -28.8490   20.3900 C   0  0  0  0  0  3  0  0  0  0  0  0
  -25.6870  -27.1030   19.2120 C   0  0  0  0  0  3  0  0  0  0  0  0
  -24.5040  -27.8480   19.3330 C   0  0  0  0  0  3  0  0  0  0  0  0
  -23.2840  -29.9460   20.1460 C   0  0  0  0  0  2  0  0  0  0  0  0
  -24.4720  -31.1500   22.0420 N   0  0  0  0  0  0  0  0  0  0  0  0
  -23.4490  -32.1640   23.7890 O   0  0  0  0  0  0  0  0  0  0  0  0
  -22.5790  -29.5200   22.5160 C   0  0  0  0  0  0  0  0  0  0  0  0
  -21.2540  -29.3230   22.4290 N   0  0  0  0  0  0  0  0  0  0  0  0
  -23.2980  -28.8880   23.2950 O   0  0  0  0  0  0  0  0  0  0  0  0
  -20.7380  -29.8880   21.7700 H   0  0  0  0  0  0  0  0  0  0  0  0
  -17.9150  -28.0460   22.9580 C   0  0  0  0  0  0  0  0  0  0  0  0
  -20.4700  -28.3600   23.2020 C   0  0  0  0  0  3  0  0  0  0  0  0
  -20.6010  -26.9370   22.6080 C   0  0  0  0  0  2  0  0  0  0  0  0
  -19.4930  -26.5980   21.6060 C   0  0  0  0  0  2  0  0  0  0  0  0
  -18.1170  -26.7040   22.2680 C   0  0  0  0  0  2  0  0  0  0  0  0
  -19.0200  -28.8290   23.3780 C   0  0  0  0  0  0  0  0  0  0  0  0
  -18.7800  -30.0850   23.9790 C   0  0  0  0  0  3  0  0  0  0  0  0
  -17.4660  -30.5520   24.1650 C   0  0  0  0  0  3  0  0  0  0  0  0
  -16.3760  -29.7660   23.7600 C   0  0  0  0  0  3  0  0  0  0  0  0
  -16.6000  -28.5130   23.1600 C   0  0  0  0  0  3  0  0  0  0  0  0
  -25.8200  -32.4970   23.7450 C   0  0  0  0  0  3  0  0  0  0  0  0
  -26.3890  -31.6860   24.9730 C   0  0  1  0  0  0  0  0  0  0  0  0
  -25.3520  -31.4570   26.0970 C   0  0  0  0  0  1  0  0  0  0  0  0
  -26.9090  -30.3040   24.5150 C   0  0  0  0  0  1  0  0  0  0  0  0
  -27.5980  -32.4370   25.5820 C   0  0  0  0  0  1  0  0  0  0  0  0
  -25.5550  -33.8910   24.1210 N   0  0  0  0  0  0  0  0  0  0  0  0
  -25.8800  -34.9550   23.3710 C   0  0  0  0  0  0  0  0  0  0  0  0
  -26.5030  -34.8610   22.3130 O   0  0  0  0  0  0  0  0  0  0  0  0
  -25.0080  -34.0420   24.9570 H   0  0  0  0  0  0  0  0  0  0  0  0
  -24.1780  -36.7840   23.1180 C   0  0  0  0  0  1  0  0  0  0  0  0
  -25.4360  -36.3400   23.8810 C   0  0  0  0  0  3  0  0  0  0  0  0
  -27.6120  -37.1570   24.6690 C   0  0  0  0  0  1  0  0  0  0  0  0
  -26.4860  -37.3750   23.7630 N   0  0  0  0  0  0  0  0  0  0  0  0
  -26.1060  -38.2990   23.9460 H   0  0  0  0  0  0  0  0  0  0  0  0
  -25.9670  -20.5200   17.3160 C   0  0  0  0  0  2  0  0  0  0  0  0
  -27.0370  -18.4700   18.2560 C   0  0  0  0  0  0  0  0  0  0  0  0
  -26.0010  -19.2990   18.1090 N   0  0  0  0  0  0  0  0  0  0  0  0
  -27.8230  -18.2140   17.3380 O   0  0  0  0  0  0  0  0  0  0  0  0
  -25.2810  -19.2190   18.8180 H   0  0  0  0  0  0  0  0  0  0  0  0
  -27.2450  -17.9680   19.7150 C   0  0  0  0  0  3  0  0  0  0  0  0
  -29.6920  -17.5340   19.3790 C   0  0  0  0  0  0  0  0  0  0  0  0
  -28.5200  -17.2820   19.9760 N   0  0  0  0  0  0  0  0  0  0  0  0
  -29.8300  -18.3990   18.5100 O   0  0  0  0  0  0  0  0  0  0  0  0
  -28.4930  -16.5640   20.6860 H   0  0  0  0  0  0  0  0  0  0  0  0
  -30.9070  -16.6950   19.8060 C   0  0  0  0  0  3  0  0  0  0  0  0
  -31.2370  -14.2190   19.4910 C   0  0  0  0  0  0  0  0  0  0  0  0
  -30.8930  -11.8770   18.8100 C   0  0  0  0  0  2  0  0  0  0  0  0
  -29.9300  -11.8540   17.6100 C   0  0  0  0  0  2  0  0  0  0  0  0
  -28.4560  -11.8570   18.0690 C   0  0  0  0  0  2  0  0  0  0  0  0
  -28.1690  -12.9270   19.1520 C   0  0  0  0  0  3  0  0  0  0  0  0
  -29.2380  -12.9050   20.2640 C   0  0  0  0  0  2  0  0  0  0  0  0
  -30.5580  -13.0530   19.6230 N   0  0  0  0  0  0  0  0  0  0  0  0
  -32.3450  -14.3200   18.9580 O   0  0  0  0  0  0  0  0  0  0  0  0
  -30.5260  -15.2860   19.8660 N   0  0  0  0  0  0  0  0  0  0  0  0
  -29.5940  -15.0830   20.1920 H   0  0  0  0  0  0  0  0  0  0  0  0
  -25.8570  -13.7770   19.8930 C   0  0  0  0  0  0  0  0  0  0  0  0
  -24.7520  -13.1350   20.3760 C   0  0  0  0  0  0  0  0  0  0  0  0
  -25.0890  -11.7480   20.3890 C   0  0  0  0  0  0  0  0  0  0  0  0
  -26.8150  -12.8000   19.6870 N   0  0  0  0  0  0  0  0  0  0  0  0
  -26.3550  -11.5700   20.0280 N   0  0  0  0  0  0  0  0  0  0  0  0
  -24.2630  -10.5720   20.6710 C   0  0  0  0  0  0  0  0  0  0  0  0
  -24.6620   -9.5960   21.6090 C   0  0  0  0  0  3  0  0  0  0  0  0
  -23.8420   -8.4760   21.8730 C   0  0  0  0  0  3  0  0  0  0  0  0
  -22.6080   -8.3290   21.1910 C   0  0  0  0  0  0  0  0  0  0  0  0
  -22.2260   -9.2930   20.2420 C   0  0  0  0  0  3  0  0  0  0  0  0
  -23.0460  -10.4030   19.9800 C   0  0  0  0  0  3  0  0  0  0  0  0
  -21.7560   -7.2630   21.3600 O   0  0  0  0  0  0  0  0  0  0  0  0
  -21.7070   -6.5650   22.5370 C   0  0  0  0  0  0  0  0  0  0  0  0
  -21.3690   -7.1850   23.7620 C   0  0  0  0  0  3  0  0  0  0  0  0
  -21.2590   -6.4140   24.9350 C   0  0  0  0  0  3  0  0  0  0  0  0
  -21.4800   -5.0230   24.8880 C   0  0  0  0  0  0  0  0  0  0  0  0
  -21.8170   -4.4030   23.6700 C   0  0  0  0  0  3  0  0  0  0  0  0
  -21.9260   -5.1720   22.5000 C   0  0  0  0  0  0  0  0  0  0  0  0
  -22.2210   -4.5680   21.3220 F   0  0  0  0  0  0  0  0  0  0  0  0
  -21.3710   -4.2770   26.0100 F   0  0  0  0  0  0  0  0  0  0  0  0
  -23.4180  -13.7520   20.6920 C   0  0  0  0  0  0  0  0  0  0  0  0
  -22.6890  -13.1860   21.6470 N   0  0  0  0  0  0  0  0  0  0  0  0
  -23.0340  -14.7780   20.1320 O   0  0  0  0  0  0  0  0  0  0  0  0
  -23.0140  -12.3600   22.1350 H   0  0  0  0  0  0  0  0  0  0  0  0
  -21.7920  -13.5870   21.8860 H   0  0  0  0  0  0  0  0  0  0  0  0
  -26.1170  -15.1010   19.5810 N   0  0  0  0  0  4  0  0  0  0  0  0
  -25.4110  -15.8160   19.7200 H   0  0  0  0  0  0  0  0  0  0  0  0
  -26.8920  -15.4300   19.0170 H   0  0  0  0  0  0  0  0  0  0  0  0
  -31.8890  -18.6740   21.1940 C   0  0  0  0  0  1  0  0  0  0  0  0
  -31.1430  -16.6010   22.4320 C   0  0  0  0  0  1  0  0  0  0  0  0
  -31.6850  -17.1430   21.0890 C   0  0  0  0  0  3  0  0  0  0  0  0
  -24.7250  -17.1280   19.6480 C   0  0  0  0  0  1  0  0  0  0  0  0
  -26.4090  -15.8090   20.9320 C   0  0  0  0  0  2  0  0  0  0  0  0
  -25.7230  -18.0950   21.7020 C   0  0  0  0  0  1  0  0  0  0  0  0
  -26.0460  -17.2390   20.4570 C   0  0  1  0  0  0  0  0  0  0  0  0
  1  2  1  0
  2  3  1  0
  3  4  1  0
  4  5  1  0
  5  6  1  0
  6  8  1  0
  6  9  1  0
  7  5  2  0
 10  9  1  0
 11 10  1  0
 12 11  1  0
 13 12  1  0
 14 13  1  0
 15 14  1  0
 16 15  1  0
 16 17  1  0
 17 19  1  0
 18 29  2  0
 19 24  1  0
 20 28  1  0
 20 30  1  0
 21 27  1  0
 21 23  1  0
 22 28  1  0
 23 22  1  0
 24 23  2  0
 25 26  1  0
 25 19  2  0
 26 21  2  0
 27 20  1  0
 28 18  1  0
 30 32  2  0
 31 30  1  0
 33 31  1  0
 34 43  2  0
 34 39  1  0
 35 31  1  0
 35 39  1  0
 36 35  1  0
 37 38  1  0
 37 36  1  0
 38 34  1  0
 39 40  2  0
 40 41  1  0
 42 41  2  0
 43 42  1  0
 44 18  1  0
 44 49  1  0
 44 45  1  0
 45 48  1  1
 45 46  1  0
 47 45  1  0
 49 52  1  0
 50 54  1  0
 50 49  1  0
 51 50  2  0
 54 53  1  0
 56 54  1  0
 56 57  1  0
 56 55  1  0
 58 60  1  0
 58  1  1  0
 60 59  1  0
 60 62  1  0
 61 59  2  0
 63 59  1  0
 63 65  1  0
 63113  1  0
 64 68  1  0
 64 65  1  0
 65 67  1  0
 66 64  2  0
 68 77  1  0
 68109  1  0
 69 75  1  0
 69 77  1  0
 70 75  1  0
 71 72  1  0
 71 70  1  0
 73 72  1  0
 73 82  1  0
 73 74  1  0
 75 74  1  0
 76 69  2  0
 77 78  1  0
 79 80  2  0
 80 81  1  0
 80 99  1  0
 81 84  1  0
 82 79  1  0
 82 83  1  0
 83 81  2  0
 84 85  1  0
 85 86  2  0
 87 90  1  0
 87 86  1  0
 88 87  2  0
 89 88  1  0
 89 84  2  0
 90 91  1  0
 91 92  1  0
 92 93  2  0
 94 93  1  0
 94 98  1  0
 95 94  2  0
 96 91  2  0
 96 95  1  0
 97 96  1  0
 99100  1  0
100103  1  0
100102  1  0
101 99  2  0
104105  1  0
104 79  1  0
104111  1  0
106104  1  0
109107  1  0
109108  1  0
113110  1  6
113111  1  0
113112  1  0
M  ISO  4  16 101  17 101  69 100  77 100
M  END
>  <TORSDO>  (42) 
F 35

>  <SCORE>  (42) 
-5.292

>  <name>  (42) 
43

>  <ligand_id>  (42) 
43

>  <original_smiles>  (42) 
[H]c1c([H])c([H])c2c(c1[H])C([H])([H])C([H])([H])C([H])([H])C2([H])N([H])C(=O)C1([H])N(C(=O)C([H])(N([H])C(=O)C([H])(N([H])C([H])([H])[H])C([H])([H])[H])C(C([H])([H])[H])(C([H])([H])[H])C([H])([H])[H])C([H])([H])c2c([H])c(OC([H])([H])C([H])([H])OC([H])([H])C([H])([H])OC([H])([H])C([H])([H])N([H])C(=O)C([H])([H])OC([H])([H])C([H])([H])C([H])([H])N([H])C(=O)C([H])(N([H])C(=O)C([H])(N([H])C(=O)N3C([H])([H])C([H])([H])C([H])([H])C([H])(n4nc(-c5c([H])c([H])c(Oc6c([H])c([H])c(F)c([H])c6F)c([H])c5[H])c(C(=O)N([H])[H])c4N([H])[H])C3([H])[H])C([H])(C([H])([H])[H])C([H])([H])[H])C(C([H])([H])[H])(C([H])([H])[H])C([H])([H])[H])c([H])c([H])c2C1([H])[H]

>  <smiles>  (42) 
[H]c1c([H])c([H])c2c(c1[H])C([H])([H])C([H])([H])C([H])([H])C2([H])N([H])C(=O)C1([H])N(C(=O)C([H])(N([H])C(=O)C([H])(N([H])C([H])([H])[H])C([H])([H])[H])C(C([H])([H])[H])(C([H])([H])[H])C([H])([H])[H])C([H])([H])c2c([H])c(OC([H])([H])C([H])([H])OC([H])([H])C([H])([H])OC([H])([H])C([H])([H])N([H])C(=O)C([H])([H])OC([H])([H])C([H])([H])C([H])([H])N([H])C(=O)C([H])(N([H])C(=O)C([H])(N([H])C(=O)N3C([H])([H])C([H])([H])C([H])([H])C([H])(n4nc(-c5c([H])c([H])c(Oc6c([H])c([H])c(F)c([H])c6F)c([H])c5[H])c(C(=O)N([H])[H])c4N([H])[H])C3([H])[H])C([H])(C([H])([H])[H])C([H])([H])[H])C(C([H])([H])[H])(C([H])([H])[H])C([H])([H])[H])c([H])c([H])c2C1([H])[H]

$$$$
44:0:0
     RDKit          3D

 98105  0  0  1  0  0  0  0  0999 V2000
  -24.5000  -21.4500   21.5560 C   0  0  0  0  0  2  0  0  0  0  0  0
  -25.7240  -22.1930   21.9160 N   0  0  0  0  0  4  0  0  0  0  0  0
  -26.3150  -22.2550   21.0980 H   0  0  0  0  0  0  0  0  0  0  0  0
  -26.2380  -21.6820   22.6150 H   0  0  0  0  0  0  0  0  0  0  0  0
  -25.4820  -23.5730   22.3910 C   0  0  0  0  0  2  0  0  0  0  0  0
  -26.8000  -24.3330   22.5580 C   0  0  0  0  0  2  0  0  0  0  0  0
  -27.4920  -24.2460   21.3180 O   0  0  0  0  0  0  0  0  0  0  0  0
  -28.8240  -24.7570   21.3530 C   0  0  0  0  0  2  0  0  0  0  0  0
  -28.8760  -26.2940   21.3130 C   0  0  0  0  0  2  0  0  0  0  0  0
  -28.3910  -26.7320   20.0470 O   0  0  0  0  0  0  0  0  0  0  0  0
  -24.6110  -31.8690   23.2120 C   0  0  0  0  0  0  0  0  0  0  0  0
  -27.2380  -27.4700   20.0970 C   0  0  0  0  0  0  0  0  0  0  0  0
  -23.3960  -30.4940   21.5500 C   0  0  0  0  0  3  0  0  0  0  0  0
  -24.8450  -28.9570   20.1200 C   0  0  0  0  0  0  0  0  0  0  0  0
  -25.9200  -30.8460   21.3590 C   0  0  0  0  0  2  0  0  0  0  0  0
  -26.0000  -29.4800   20.7160 C   0  0  0  0  0  0  0  0  0  0  0  0
  -27.2010  -28.7410   20.7090 C   0  0  0  0  0  3  0  0  0  0  0  0
  -26.0750  -26.9530   19.4940 C   0  0  0  0  0  3  0  0  0  0  0  0
  -24.8740  -27.6890   19.5110 C   0  0  0  0  0  3  0  0  0  0  0  0
  -23.6040  -29.8190   20.1670 C   0  0  0  0  0  2  0  0  0  0  0  0
  -24.6610  -31.0840   22.0990 N   0  0  0  0  0  0  0  0  0  0  0  0
  -23.5320  -32.1440   23.7550 O   0  0  0  0  0  0  0  0  0  0  0  0
  -22.7370  -29.4680   22.5000 C   0  0  0  0  0  0  0  0  0  0  0  0
  -21.4100  -29.3030   22.3730 N   0  0  0  0  0  0  0  0  0  0  0  0
  -23.4160  -28.8230   23.3030 O   0  0  0  0  0  0  0  0  0  0  0  0
  -20.9240  -29.8780   21.6980 H   0  0  0  0  0  0  0  0  0  0  0  0
  -18.0290  -28.1350   22.8530 C   0  0  0  0  0  0  0  0  0  0  0  0
  -20.5880  -28.3640   23.1330 C   0  0  0  0  0  3  0  0  0  0  0  0
  -20.6790  -26.9390   22.5400 C   0  0  0  0  0  2  0  0  0  0  0  0
  -19.5760  -26.6410   21.5190 C   0  0  0  0  0  2  0  0  0  0  0  0
  -18.1950  -26.7920   22.1610 C   0  0  0  0  0  2  0  0  0  0  0  0
  -19.1540  -28.8810   23.2950 C   0  0  0  0  0  0  0  0  0  0  0  0
  -18.9470  -30.1430   23.8930 C   0  0  0  0  0  3  0  0  0  0  0  0
  -17.6470  -30.6560   24.0590 C   0  0  0  0  0  3  0  0  0  0  0  0
  -16.5360  -29.9060   23.6350 C   0  0  0  0  0  3  0  0  0  0  0  0
  -16.7280  -28.6490   23.0350 C   0  0  0  0  0  3  0  0  0  0  0  0
  -25.9030  -32.4820   23.8400 C   0  0  0  0  0  3  0  0  0  0  0  0
  -25.5910  -33.8620   24.2350 N   0  0  0  0  0  0  0  0  0  0  0  0
  -25.9030  -34.9480   23.5130 C   0  0  0  0  0  0  0  0  0  0  0  0
  -26.5570  -34.8920   22.4680 O   0  0  0  0  0  0  0  0  0  0  0  0
  -25.0120  -33.9800   25.0530 H   0  0  0  0  0  0  0  0  0  0  0  0
  -24.1480  -36.7310   23.2630 C   0  0  0  0  0  1  0  0  0  0  0  0
  -25.4100  -36.3110   24.0340 C   0  0  0  0  0  3  0  0  0  0  0  0
  -27.5580  -37.1810   24.8470 C   0  0  0  0  0  1  0  0  0  0  0  0
  -26.4290  -37.3790   23.9410 N   0  0  0  0  0  0  0  0  0  0  0  0
  -26.0180  -38.2870   24.1410 H   0  0  0  0  0  0  0  0  0  0  0  0
  -26.4490  -31.6580   25.0710 C   0  0  1  0  0  0  0  0  0  0  0  0
  -25.3790  -31.3690   26.1480 C   0  0  0  0  0  1  0  0  0  0  0  0
  -27.0300  -30.3030   24.6050 C   0  0  0  0  0  1  0  0  0  0  0  0
  -27.6060  -32.4280   25.7480 C   0  0  0  0  0  1  0  0  0  0  0  0
  -24.6860  -19.9250   21.6740 C   0  0  0  0  0  2  0  0  0  0  0  0
  -24.1940  -19.3370   23.0100 C   0  0  0  0  0  2  0  0  0  0  0  0
  -25.1210  -19.5700   24.2190 C   0  0  0  0  0  2  0  0  0  0  0  0
  -24.6110  -18.8310   25.4700 C   0  0  0  0  0  2  0  0  0  0  0  0
  -24.5350  -17.4160   25.2890 O   0  0  0  0  0  0  0  0  0  0  0  0
  -25.7850  -16.7270   25.3140 C   0  0  0  0  0  2  0  0  0  0  0  0
  -26.2530  -16.3470   23.8970 C   0  0  0  0  0  2  0  0  0  0  0  0
  -27.6320  -15.9870   23.9350 O   0  0  0  0  0  0  0  0  0  0  0  0
  -28.2010  -15.9210   22.6370 C   0  0  0  0  0  2  0  0  0  0  0  0
  -29.6530  -15.4170   22.6970 C   0  0  0  0  0  2  0  0  0  0  0  0
  -30.7700  -14.3710   20.6720 C   0  0  0  0  0  0  0  0  0  0  0  0
  -30.4270  -12.2870   19.3980 C   0  0  0  0  0  2  0  0  0  0  0  0
  -29.4860  -12.5230   18.1970 C   0  0  0  0  0  2  0  0  0  0  0  0
  -28.0040  -12.4060   18.6060 C   0  0  0  0  0  2  0  0  0  0  0  0
  -27.6760  -13.1940   19.9000 C   0  0  0  0  0  3  0  0  0  0  0  0
  -28.7210  -12.8710   20.9880 C   0  0  0  0  0  2  0  0  0  0  0  0
  -30.0520  -13.2270   20.4700 N   0  0  0  0  0  0  0  0  0  0  0  0
  -31.8240  -14.6070   20.0800 O   0  0  0  0  0  0  0  0  0  0  0  0
  -30.2160  -15.3840   21.3490 N   0  0  0  0  0  0  0  0  0  0  0  0
  -30.6910  -16.2480   21.1270 H   0  0  0  0  0  0  0  0  0  0  0  0
  -25.2600  -13.8110   20.5650 C   0  0  0  0  0  0  0  0  0  0  0  0
  -24.1860  -13.0430   20.9190 C   0  0  0  0  0  0  0  0  0  0  0  0
  -24.6400  -11.6890   20.8800 C   0  0  0  0  0  0  0  0  0  0  0  0
  -26.3090  -12.9300   20.3520 N   0  0  0  0  0  0  0  0  0  0  0  0
  -25.9340  -11.6460   20.5880 N   0  0  0  0  0  0  0  0  0  0  0  0
  -23.9060  -10.4290   21.0480 C   0  0  0  0  0  0  0  0  0  0  0  0
  -24.3620   -9.4190   21.9240 C   0  0  0  0  0  3  0  0  0  0  0  0
  -23.6280   -8.2220   22.0780 C   0  0  0  0  0  3  0  0  0  0  0  0
  -22.4270   -8.0280   21.3560 C   0  0  0  0  0  0  0  0  0  0  0  0
  -21.9900   -9.0260   20.4680 C   0  0  0  0  0  3  0  0  0  0  0  0
  -22.7250  -10.2140   20.3110 C   0  0  0  0  0  3  0  0  0  0  0  0
  -21.6600   -6.8900   21.4280 O   0  0  0  0  0  0  0  0  0  0  0  0
  -21.6840   -6.0760   22.5320 C   0  0  0  0  0  0  0  0  0  0  0  0
  -21.4000   -6.5660   23.8250 C   0  0  0  0  0  3  0  0  0  0  0  0
  -21.3660   -5.6810   24.9210 C   0  0  0  0  0  3  0  0  0  0  0  0
  -21.6040   -4.3070   24.7260 C   0  0  0  0  0  0  0  0  0  0  0  0
  -21.8810   -3.8170   23.4380 C   0  0  0  0  0  3  0  0  0  0  0  0
  -21.9170   -4.6980   22.3430 C   0  0  0  0  0  0  0  0  0  0  0  0
  -22.1630   -4.2170   21.1010 F   0  0  0  0  0  0  0  0  0  0  0  0
  -21.5610   -3.4560   25.7770 F   0  0  0  0  0  0  0  0  0  0  0  0
  -22.7870  -13.5240   21.1810 C   0  0  0  0  0  0  0  0  0  0  0  0
  -22.0460  -12.8280   22.0340 N   0  0  0  0  0  0  0  0  0  0  0  0
  -22.3610  -14.5580   20.6660 O   0  0  0  0  0  0  0  0  0  0  0  0
  -22.4000  -11.9950   22.4790 H   0  0  0  0  0  0  0  0  0  0  0  0
  -21.1110  -13.1390   22.2550 H   0  0  0  0  0  0  0  0  0  0  0  0
  -25.4150  -15.1820   20.3890 N   0  0  0  0  0  0  0  0  0  0  0  0
  -24.6020  -15.7870   20.4220 H   0  0  0  0  0  0  0  0  0  0  0  0
  -26.2210  -15.6160   19.9590 H   0  0  0  0  0  0  0  0  0  0  0  0
  1 51  1  0
  1  2  1  0
  2  5  1  0
  2  4  1  0
  3  2  1  0
  5  6  1  0
  7  8  1  0
  7  6  1  0
  9  8  1  0
 10 12  1  0
 10  9  1  0
 11 22  2  0
 12 17  1  0
 13 21  1  0
 13 23  1  0
 14 20  1  0
 14 16  1  0
 15 21  1  0
 16 15  1  0
 17 16  2  0
 18 19  1  0
 18 12  2  0
 19 14  2  0
 20 13  1  0
 21 11  1  0
 23 25  2  0
 24 23  1  0
 26 24  1  0
 27 36  2  0
 27 32  1  0
 28 24  1  0
 28 32  1  0
 29 28  1  0
 30 31  1  0
 30 29  1  0
 31 27  1  0
 32 33  2  0
 33 34  1  0
 35 34  2  0
 36 35  1  0
 37 11  1  0
 37 38  1  0
 37 47  1  0
 38 41  1  0
 39 43  1  0
 39 38  1  0
 40 39  2  0
 43 42  1  0
 45 43  1  0
 45 46  1  0
 45 44  1  0
 47 50  1  1
 47 48  1  0
 49 47  1  0
 51 52  1  0
 52 53  1  0
 53 54  1  0
 55 56  1  0
 55 54  1  0
 57 58  1  0
 57 56  1  0
 59 60  1  0
 59 58  1  0
 61 69  1  0
 62 67  1  0
 63 64  1  0
 63 62  1  0
 65 64  1  0
 65 74  1  0
 65 66  1  0
 67 61  1  0
 67 66  1  0
 68 61  2  0
 69 60  1  0
 70 69  1  0
 71 72  2  0
 72 91  1  0
 73 72  1  0
 73 76  1  0
 74 71  1  0
 74 75  1  0
 75 73  2  0
 76 77  1  0
 77 78  2  0
 79 82  1  0
 79 78  1  0
 80 79  2  0
 81 80  1  0
 81 76  2  0
 82 83  1  0
 83 84  1  0
 84 85  2  0
 86 85  1  0
 86 90  1  0
 87 86  2  0
 88 83  2  0
 88 87  1  0
 89 88  1  0
 91 92  1  0
 92 95  1  0
 92 94  1  0
 93 91  2  0
 96 97  1  0
 96 71  1  0
 98 96  1  0
M  ISO  4   9 101  10 101  61 100  69 100
M  END
>  <TORSDO>  (43) 
F 32

>  <SCORE>  (43) 
51.991

>  <name>  (43) 
44

>  <ligand_id>  (43) 
44

>  <original_smiles>  (43) 
[H]c1c([H])c([H])c2c(c1[H])C([H])([H])C([H])([H])C([H])([H])C2([H])N([H])C(=O)C1([H])N(C(=O)C([H])(N([H])C(=O)C([H])(N([H])C([H])([H])[H])C([H])([H])[H])C(C([H])([H])[H])(C([H])([H])[H])C([H])([H])[H])C([H])([H])c2c([H])c(OC([H])([H])C([H])([H])OC([H])([H])C([H])([H])[N+]([H])([H])C([H])([H])C([H])([H])C([H])([H])C([H])([H])C([H])([H])OC([H])([H])C([H])([H])OC([H])([H])C([H])([H])N([H])C(=O)N3C([H])([H])C([H])([H])C([H])([H])C([H])(n4nc(-c5c([H])c([H])c(Oc6c([H])c([H])c(F)c([H])c6F)c([H])c5[H])c(C(=O)N([H])[H])c4N([H])[H])C3([H])[H])c([H])c([H])c2C1([H])[H]

>  <smiles>  (43) 
[H]c1c([H])c([H])c2c(c1[H])C([H])([H])C([H])([H])C([H])([H])C2([H])N([H])C(=O)C1([H])N(C(=O)C([H])(N([H])C(=O)C([H])(N([H])C([H])([H])[H])C([H])([H])[H])C(C([H])([H])[H])(C([H])([H])[H])C([H])([H])[H])C([H])([H])c2c([H])c(OC([H])([H])C([H])([H])OC([H])([H])C([H])([H])[N+]([H])([H])C([H])([H])C([H])([H])C([H])([H])C([H])([H])C([H])([H])OC([H])([H])C([H])([H])OC([H])([H])C([H])([H])N([H])C(=O)N3C([H])([H])C([H])([H])C([H])([H])C([H])(n4nc(-c5c([H])c([H])c(Oc6c([H])c([H])c(F)c([H])c6F)c([H])c5[H])c(C(=O)N([H])[H])c4N([H])[H])C3([H])[H])c([H])c([H])c2C1([H])[H]

$$$$
45:0:0
     RDKit          3D

109116  0  0  1  0  0  0  0  0999 V2000
  -25.8370  -25.3120   22.5790 C   0  0  0  0  0  3  0  0  0  0  0  0
  -26.0830  -26.4500   21.6650 N   0  0  0  0  0  4  0  0  0  0  0  0
  -25.7690  -26.1050   20.7660 H   0  0  0  0  0  0  0  0  0  0  0  0
  -25.4630  -27.2050   21.9070 H   0  0  0  0  0  0  0  0  0  0  0  0
  -27.4910  -26.9180   21.5700 C   0  0  0  0  0  2  0  0  0  0  0  0
  -27.6520  -28.2970   22.2270 C   0  0  0  0  0  2  0  0  0  0  0  0
  -28.8450  -28.9470   21.7940 O   0  0  0  0  0  0  0  0  0  0  0  0
  -29.7150  -29.2080   22.8940 C   0  0  0  0  0  2  0  0  0  0  0  0
  -30.9000  -30.1070   22.4910 C   0  0  0  0  0  2  0  0  0  0  0  0
  -32.0940  -29.3360   22.3260 O   0  0  0  0  0  0  0  0  0  0  0  0
  -32.8830  -30.8330   15.4160 C   0  0  0  0  0  0  0  0  0  0  0  0
  -32.2760  -28.8550   21.0550 C   0  0  0  0  0  0  0  0  0  0  0  0
  -32.4520  -28.4600   15.9700 C   0  0  0  0  0  3  0  0  0  0  0  0
  -32.6210  -27.8500   18.4420 C   0  0  0  0  0  0  0  0  0  0  0  0
  -33.6130  -30.0050   17.6460 C   0  0  0  0  0  2  0  0  0  0  0  0
  -33.0090  -29.1620   18.7470 C   0  0  0  0  0  0  0  0  0  0  0  0
  -32.8310  -29.6720   20.0500 C   0  0  0  0  0  3  0  0  0  0  0  0
  -31.9190  -27.5260   20.7470 C   0  0  0  0  0  3  0  0  0  0  0  0
  -32.0660  -27.0280   19.4390 C   0  0  0  0  0  3  0  0  0  0  0  0
  -32.8380  -27.3840   17.0210 C   0  0  0  0  0  2  0  0  0  0  0  0
  -32.9650  -29.8220   16.3280 N   0  0  0  0  0  0  0  0  0  0  0  0
  -32.4300  -30.6380   14.2800 O   0  0  0  0  0  0  0  0  0  0  0  0
  -30.9200  -28.4190   15.7630 C   0  0  0  0  0  0  0  0  0  0  0  0
  -30.4830  -27.7520   14.6820 N   0  0  0  0  0  0  0  0  0  0  0  0
  -30.1570  -28.9520   16.5700 O   0  0  0  0  0  0  0  0  0  0  0  0
  -31.1730  -27.3500   14.0640 H   0  0  0  0  0  0  0  0  0  0  0  0
  -28.2890  -27.0770   11.8900 C   0  0  0  0  0  0  0  0  0  0  0  0
  -29.0840  -27.5480   14.3060 C   0  0  0  0  0  3  0  0  0  0  0  0
  -28.6230  -26.1080   14.6310 C   0  0  0  0  0  2  0  0  0  0  0  0
  -28.7770  -25.1440   13.4500 C   0  0  0  0  0  2  0  0  0  0  0  0
  -27.9700  -25.6330   12.2430 C   0  0  0  0  0  2  0  0  0  0  0  0
  -28.8260  -27.9700   12.8550 C   0  0  0  0  0  0  0  0  0  0  0  0
  -29.1380  -29.2910   12.4680 C   0  0  0  0  0  3  0  0  0  0  0  0
  -28.9190  -29.7240   11.1470 C   0  0  0  0  0  3  0  0  0  0  0  0
  -28.3680  -28.8420   10.2010 C   0  0  0  0  0  3  0  0  0  0  0  0
  -28.0520  -27.5230   10.5740 C   0  0  0  0  0  3  0  0  0  0  0  0
  -33.3770  -32.2770   15.7480 C   0  0  0  0  0  3  0  0  0  0  0  0
  -32.2120  -33.3410   15.7940 C   0  0  1  0  0  0  0  0  0  0  0  0
  -31.8460  -33.9220   14.4080 C   0  0  0  0  0  1  0  0  0  0  0  0
  -30.9340  -32.7230   16.4040 C   0  0  0  0  0  1  0  0  0  0  0  0
  -32.6160  -34.5190   16.7130 C   0  0  0  0  0  1  0  0  0  0  0  0
  -34.3730  -32.6460   14.7360 N   0  0  0  0  0  0  0  0  0  0  0  0
  -35.6490  -32.2330   14.7370 C   0  0  0  0  0  0  0  0  0  0  0  0
  -36.1300  -31.5500   15.6440 O   0  0  0  0  0  0  0  0  0  0  0  0
  -34.0370  -33.1620   13.9360 H   0  0  0  0  0  0  0  0  0  0  0  0
  -36.4360  -31.5730   12.4440 C   0  0  0  0  0  1  0  0  0  0  0  0
  -36.5260  -32.6450   13.5400 C   0  0  0  0  0  3  0  0  0  0  0  0
  -38.1590  -34.1350   14.6030 C   0  0  0  0  0  1  0  0  0  0  0  0
  -37.9420  -32.8730   13.9010 N   0  0  0  0  0  0  0  0  0  0  0  0
  -38.5300  -32.8670   13.0730 H   0  0  0  0  0  0  0  0  0  0  0  0
  -25.7110  -24.0720   21.6730 C   0  0  0  0  0  0  0  0  0  0  0  0
  -26.6630  -23.3460   21.3680 O   0  0  0  0  0  0  0  0  0  0  0  0
  -24.4420  -23.8810   21.2670 O   0  0  0  0  0  0  0  0  0  0  0  0
  -22.7400  -23.7400   19.5530 C   0  0  0  0  0  1  0  0  0  0  0  0
  -24.1980  -23.4600   19.9300 C   0  0  0  0  0  2  0  0  0  0  0  0
  -24.5720  -25.5190   23.4530 C   0  0  0  0  0  2  0  0  0  0  0  0
  -24.1380  -26.9820   23.4740 C   0  0  0  0  0  0  0  0  0  0  0  0
  -24.5250  -27.7330   24.5110 N   0  0  0  0  0  0  0  0  0  0  0  0
  -23.4440  -27.4220   22.5560 O   0  0  0  0  0  0  0  0  0  0  0  0
  -25.1230  -27.3190   25.2140 H   0  0  0  0  0  0  0  0  0  0  0  0
  -24.2020  -29.1480   24.6840 C   0  0  0  0  0  2  0  0  0  0  0  0
  -25.4530  -30.0300   24.5590 C   0  0  0  0  0  2  0  0  0  0  0  0
  -25.1600  -31.3100   25.1020 O   0  0  0  0  0  0  0  0  0  0  0  0
  -26.3250  -32.0900   25.3200 C   0  0  0  0  0  2  0  0  0  0  0  0
  -26.7990  -32.6690   23.9820 C   0  0  0  0  0  2  0  0  0  0  0  0
  -25.6840  -33.1900   23.2740 O   0  0  0  0  0  0  0  0  0  0  0  0
  -25.9120  -34.4960   22.7580 C   0  0  0  0  0  2  0  0  0  0  0  0
  -24.7230  -35.3790   23.1530 C   0  0  0  0  0  2  0  0  0  0  0  0
  -25.0520  -36.7200   22.8240 O   0  0  0  0  0  0  0  0  0  0  0  0
  -25.5250  -37.4700   23.9330 C   0  0  0  0  0  2  0  0  0  0  0  0
  -25.8410  -36.4780   25.0560 C   0  0  0  0  0  2  0  0  0  0  0  0
  -28.1350  -37.4300   24.9450 C   0  0  0  0  0  0  0  0  0  0  0  0
  -30.4940  -38.1390   24.9610 C   0  0  0  0  0  2  0  0  0  0  0  0
  -31.3900  -37.0540   24.3350 C   0  0  0  0  0  2  0  0  0  0  0  0
  -31.8090  -36.0140   25.3900 C   0  0  0  0  0  2  0  0  0  0  0  0
  -30.6070  -35.4810   26.2120 C   0  0  0  0  0  3  0  0  0  0  0  0
  -29.7390  -36.6510   26.7300 C   0  0  0  0  0  2  0  0  0  0  0  0
  -29.3370  -37.4750   25.5740 N   0  0  0  0  0  0  0  0  0  0  0  0
  -27.8920  -38.0290   23.8940 O   0  0  0  0  0  0  0  0  0  0  0  0
  -27.2100  -36.6700   25.5340 N   0  0  0  0  0  0  0  0  0  0  0  0
  -27.4610  -36.2250   26.4040 H   0  0  0  0  0  0  0  0  0  0  0  0
  -30.3800  -33.5670   27.9210 C   0  0  0  0  0  0  0  0  0  0  0  0
  -31.2620  -33.0420   28.8280 C   0  0  0  0  0  0  0  0  0  0  0  0
  -32.4590  -33.8120   28.7030 C   0  0  0  0  0  0  0  0  0  0  0  0
  -31.0470  -34.6130   27.3020 N   0  0  0  0  0  0  0  0  0  0  0  0
  -32.2910  -34.7870   27.8190 N   0  0  0  0  0  0  0  0  0  0  0  0
  -33.7740  -33.6430   29.3350 C   0  0  0  0  0  0  0  0  0  0  0  0
  -34.0650  -34.2080   30.5970 C   0  0  0  0  0  3  0  0  0  0  0  0
  -35.3310  -34.0180   31.1920 C   0  0  0  0  0  3  0  0  0  0  0  0
  -36.3190  -33.2530   30.5280 C   0  0  0  0  0  0  0  0  0  0  0  0
  -36.0320  -32.7120   29.2620 C   0  0  0  0  0  3  0  0  0  0  0  0
  -34.7730  -32.9070   28.6690 C   0  0  0  0  0  3  0  0  0  0  0  0
  -37.5840  -33.0360   31.0170 O   0  0  0  0  0  0  0  0  0  0  0  0
  -37.8310  -32.0870   31.9770 C   0  0  0  0  0  0  0  0  0  0  0  0
  -37.9160  -30.7130   31.6620 C   0  0  0  0  0  3  0  0  0  0  0  0
  -38.2410  -29.7800   32.6660 C   0  0  0  0  0  3  0  0  0  0  0  0
  -38.4910  -30.2170   33.9800 C   0  0  0  0  0  0  0  0  0  0  0  0
  -38.4150  -31.5850   34.2940 C   0  0  0  0  0  3  0  0  0  0  0  0
  -38.0890  -32.5180   33.2950 C   0  0  0  0  0  0  0  0  0  0  0  0
  -38.0360  -33.8370   33.5980 F   0  0  0  0  0  0  0  0  0  0  0  0
  -38.8120  -29.3210   34.9430 F   0  0  0  0  0  0  0  0  0  0  0  0
  -31.0450  -31.8340   29.6920 C   0  0  0  0  0  0  0  0  0  0  0  0
  -31.5230  -31.8740   30.9300 N   0  0  0  0  0  0  0  0  0  0  0  0
  -30.4040  -30.8660   29.2870 O   0  0  0  0  0  0  0  0  0  0  0  0
  -32.0330  -32.6760   31.2680 H   0  0  0  0  0  0  0  0  0  0  0  0
  -31.3820  -31.0880   31.5480 H   0  0  0  0  0  0  0  0  0  0  0  0
  -29.0770  -33.2370   27.5620 N   0  0  0  0  0  0  0  0  0  0  0  0
  -28.5870  -32.4410   27.9570 H   0  0  0  0  0  0  0  0  0  0  0  0
  -28.5510  -33.7020   26.8320 H   0  0  0  0  0  0  0  0  0  0  0  0
  1 56  1  0
  2  4  1  0
  2  1  1  0
  3  2  1  0
  5  2  1  0
  5  6  1  0
  7  6  1  0
  7  8  1  0
  9  8  1  0
 10  9  1  0
 11 21  1  0
 12 10  1  0
 13 23  1  0
 13 21  1  0
 13 20  1  0
 14 16  2  0
 14 19  1  0
 15 16  1  0
 16 17  1  0
 17 12  2  0
 18 12  1  0
 19 18  2  0
 20 14  1  0
 21 15  1  0
 22 11  2  0
 23 25  2  0
 24 23  1  0
 26 24  1  0
 27 31  1  0
 27 32  1  0
 28 29  1  0
 28 24  1  0
 30 29  1  0
 31 30  1  0
 32 28  1  0
 33 32  2  0
 34 33  1  0
 35 36  1  0
 35 34  2  0
 36 27  2  0
 37 11  1  0
 37 38  1  0
 38 40  1  1
 38 41  1  0
 39 38  1  0
 42 43  1  0
 42 37  1  0
 43 44  2  0
 45 42  1  0
 47 46  1  0
 47 49  1  0
 47 43  1  0
 49 48  1  0
 50 49  1  0
 51  1  1  0
 52 51  2  0
 53 51  1  0
 54 55  1  0
 55 53  1  0
 56 57  1  0
 57 58  1  0
 58 61  1  0
 58 60  1  0
 59 57  2  0
 62 61  1  0
 62 63  1  0
 63 64  1  0
 65 64  1  0
 66 65  1  0
 67 68  1  0
 67 66  1  0
 69 68  1  0
 69 70  1  0
 70 71  1  0
 71 80  1  0
 72 80  1  0
 72 78  1  0
 73 78  1  0
 74 73  1  0
 74 75  1  0
 76 75  1  0
 76 77  1  0
 76 85  1  0
 78 77  1  0
 79 72  2  0
 80 81  1  0
 82 83  2  0
 83102  1  0
 84 83  1  0
 84 87  1  0
 85 86  1  0
 85 82  1  0
 86 84  2  0
 87 88  1  0
 88 89  2  0
 90 93  1  0
 90 89  1  0
 91 90  2  0
 92 91  1  0
 92 87  2  0
 93 94  1  0
 94 99  1  0
 95 94  2  0
 95 96  1  0
 96 97  2  0
 97 98  1  0
 97101  1  0
 99100  1  0
 99 98  2  0
102103  1  0
103105  1  0
103106  1  0
104102  2  0
107 82  1  0
107108  1  0
109107  1  0
M  ISO  4   9 101  10 101  72 100  80 100
M  END
>  <TORSDO>  (44) 
F 38

>  <SCORE>  (44) 
-5.188

>  <name>  (44) 
45

>  <ligand_id>  (44) 
45

>  <original_smiles>  (44) 
[H]c1c([H])c([H])c2c(c1[H])C([H])([H])C([H])([H])C([H])([H])C2([H])N([H])C(=O)C1([H])N(C(=O)C([H])(N([H])C(=O)C([H])(N([H])C([H])([H])[H])C([H])([H])[H])C(C([H])([H])[H])(C([H])([H])[H])C([H])([H])[H])C([H])([H])c2c([H])c(OC([H])([H])C([H])([H])OC([H])([H])C([H])([H])[N+]([H])([H])C([H])(C(=O)OC([H])([H])C([H])([H])[H])C([H])([H])C(=O)N([H])C([H])([H])C([H])([H])OC([H])([H])C([H])([H])OC([H])([H])C([H])([H])OC([H])([H])C([H])([H])N([H])C(=O)N3C([H])([H])C([H])([H])C([H])([H])C([H])(n4nc(-c5c([H])c([H])c(Oc6c([H])c([H])c(F)c([H])c6F)c([H])c5[H])c(C(=O)N([H])[H])c4N([H])[H])C3([H])[H])c([H])c([H])c2C1([H])[H]

>  <smiles>  (44) 
[H]c1c([H])c([H])c2c(c1[H])C([H])([H])C([H])([H])C([H])([H])C2([H])N([H])C(=O)C1([H])N(C(=O)C([H])(N([H])C(=O)C([H])(N([H])C([H])([H])[H])C([H])([H])[H])C(C([H])([H])[H])(C([H])([H])[H])C([H])([H])[H])C([H])([H])c2c([H])c(OC([H])([H])C([H])([H])OC([H])([H])C([H])([H])[N+]([H])([H])C([H])(C(=O)OC([H])([H])C([H])([H])[H])C([H])([H])C(=O)N([H])C([H])([H])C([H])([H])OC([H])([H])C([H])([H])OC([H])([H])C([H])([H])OC([H])([H])C([H])([H])N([H])C(=O)N3C([H])([H])C([H])([H])C([H])([H])C([H])(n4nc(-c5c([H])c([H])c(Oc6c([H])c([H])c(F)c([H])c6F)c([H])c5[H])c(C(=O)N([H])[H])c4N([H])[H])C3([H])[H])c([H])c([H])c2C1([H])[H]

$$$$
46:0:0
     RDKit          3D

122129  0  0  1  0  0  0  0  0999 V2000
  -27.6220  -23.7410    9.7230 C   0  0  0  0  0  2  0  0  0  0  0  0
  -27.1620  -25.0860    9.6920 O   0  0  0  0  0  0  0  0  0  0  0  0
  -26.8690  -25.5470    8.3740 C   0  0  0  0  0  2  0  0  0  0  0  0
  -26.1840  -26.9160    8.4930 C   0  0  0  0  0  2  0  0  0  0  0  0
  -27.1580  -27.8600    8.9200 O   0  0  0  0  0  0  0  0  0  0  0  0
  -26.6260  -29.1650    9.0890 C   0  0  0  0  0  2  0  0  0  0  0  0
  -27.7510  -30.1090    9.5430 C   0  0  0  0  0  2  0  0  0  0  0  0
  -28.3290  -29.7660   10.9290 C   0  0  0  0  0  2  0  0  0  0  0  0
  -29.2360  -30.8860   11.4650 C   0  0  0  0  0  2  0  0  0  0  0  0
  -29.6040  -30.7390   12.9570 C   0  0  0  0  0  2  0  0  0  0  0  0
  -30.7790  -29.8620   13.1910 N   0  0  0  0  0  4  0  0  0  0  0  0
  -31.3980  -30.3730   13.7970 H   0  0  0  0  0  0  0  0  0  0  0  0
  -31.2840  -29.7300   12.3280 H   0  0  0  0  0  0  0  0  0  0  0  0
  -30.5080  -28.5440   13.8170 C   0  0  0  0  0  2  0  0  0  0  0  0
  -31.3690  -28.3030   15.0820 C   0  0  0  0  0  2  0  0  0  0  0  0
  -31.0420  -26.9810   15.8130 C   0  0  0  0  0  2  0  0  0  0  0  0
  -30.8270  -27.2310   17.2040 O   0  0  0  0  0  0  0  0  0  0  0  0
  -29.9380  -26.2990   17.8290 C   0  0  0  0  0  2  0  0  0  0  0  0
  -29.2570  -26.9330   19.0590 C   0  0  0  0  0  2  0  0  0  0  0  0
  -27.8490  -26.3540   19.3410 C   0  0  0  0  0  2  0  0  0  0  0  0
  -27.2810  -26.9910   20.4820 O   0  0  0  0  0  0  0  0  0  0  0  0
  -25.8650  -26.8390   20.6220 C   0  0  0  0  0  2  0  0  0  0  0  0
  -25.4730  -27.4170   21.9950 C   0  0  0  0  0  2  0  0  0  0  0  0
  -23.9720  -27.7210   22.2380 C   0  0  0  0  0  2  0  0  0  0  0  0
  -22.9510  -25.4720   22.7760 C   0  0  0  0  0  0  0  0  0  0  0  0
  -21.7130  -23.3460   22.9630 C   0  0  0  0  0  2  0  0  0  0  0  0
  -21.8510  -22.5420   21.6560 C   0  0  0  0  0  2  0  0  0  0  0  0
  -20.7610  -22.9600   20.6500 C   0  0  0  0  0  2  0  0  0  0  0  0
  -20.6730  -24.4990   20.4670 C   0  0  0  0  0  3  0  0  0  0  0  0
  -20.6210  -25.2050   21.8400 C   0  0  0  0  0  2  0  0  0  0  0  0
  -21.7990  -24.7700   22.6140 N   0  0  0  0  0  0  0  0  0  0  0  0
  -23.9050  -25.0630   23.4430 O   0  0  0  0  0  0  0  0  0  0  0  0
  -23.0130  -26.6210   22.0940 N   0  0  0  0  0  0  0  0  0  0  0  0
  -22.1970  -26.8220   21.5350 H   0  0  0  0  0  0  0  0  0  0  0  0
  -19.5150  -25.6440   18.4710 C   0  0  0  0  0  0  0  0  0  0  0  0
  -18.2230  -25.6140   18.0240 C   0  0  0  0  0  0  0  0  0  0  0  0
  -17.5060  -24.7890   18.9450 C   0  0  0  0  0  0  0  0  0  0  0  0
  -19.5420  -24.8670   19.6180 N   0  0  0  0  0  0  0  0  0  0  0  0
  -18.3060  -24.3960   19.9280 N   0  0  0  0  0  0  0  0  0  0  0  0
  -16.1230  -24.3010   18.9170 C   0  0  0  0  0  0  0  0  0  0  0  0
  -15.2750  -24.4220   20.0400 C   0  0  0  0  0  3  0  0  0  0  0  0
  -13.9410  -23.9630   19.9840 C   0  0  0  0  0  3  0  0  0  0  0  0
  -13.4410  -23.3780   18.7960 C   0  0  0  0  0  0  0  0  0  0  0  0
  -14.2970  -23.2380   17.6880 C   0  0  0  0  0  3  0  0  0  0  0  0
  -15.6250  -23.6920   17.7470 C   0  0  0  0  0  3  0  0  0  0  0  0
  -12.1670  -22.8810   18.6580 O   0  0  0  0  0  0  0  0  0  0  0  0
  -11.1270  -23.3500   19.4170 C   0  0  0  0  0  0  0  0  0  0  0  0
  -10.7890  -24.7210   19.4530 C   0  0  0  0  0  3  0  0  0  0  0  0
   -9.6670  -25.1500   20.1920 C   0  0  0  0  0  3  0  0  0  0  0  0
   -8.8790  -24.2120   20.8850 C   0  0  0  0  0  0  0  0  0  0  0  0
   -9.2110  -22.8460   20.8440 C   0  0  0  0  0  3  0  0  0  0  0  0
  -10.3280  -22.4170   20.1090 C   0  0  0  0  0  0  0  0  0  0  0  0
  -10.6310  -21.0970   20.0570 F   0  0  0  0  0  0  0  0  0  0  0  0
   -7.7970  -24.6230   21.5870 F   0  0  0  0  0  0  0  0  0  0  0  0
  -17.6940  -26.2340   16.7620 C   0  0  0  0  0  0  0  0  0  0  0  0
  -16.4260  -26.6290   16.7570 N   0  0  0  0  0  0  0  0  0  0  0  0
  -18.4210  -26.4170   15.7850 O   0  0  0  0  0  0  0  0  0  0  0  0
  -15.8340  -26.4910   17.5610 H   0  0  0  0  0  0  0  0  0  0  0  0
  -16.0420  -27.0770   15.9360 H   0  0  0  0  0  0  0  0  0  0  0  0
  -20.6730  -26.2490   17.9890 N   0  0  0  0  0  0  0  0  0  0  0  0
  -20.6910  -26.7880   17.1310 H   0  0  0  0  0  0  0  0  0  0  0  0
  -21.5910  -26.1300   18.4000 H   0  0  0  0  0  0  0  0  0  0  0  0
  -27.9830  -23.3640   11.1730 C   0  0  0  0  0  2  0  0  0  0  0  0
  -27.0610  -23.9990   12.1470 N   0  0  0  0  0  4  0  0  0  0  0  0
  -26.1530  -24.0860   11.7170 H   0  0  0  0  0  0  0  0  0  0  0  0
  -27.3950  -24.9370   12.3140 H   0  0  0  0  0  0  0  0  0  0  0  0
  -26.8920  -23.2930   13.4450 C   0  0  0  0  0  2  0  0  0  0  0  0
  -26.4750  -24.2130   14.6370 C   0  0  0  0  0  3  0  0  0  0  0  0
  -26.1340  -25.6750   14.3040 C   0  0  0  0  0  0  0  0  0  0  0  0
  -24.8620  -26.0230   14.1550 N   0  0  0  0  0  0  0  0  0  0  0  0
  -27.0420  -26.4910   14.1540 O   0  0  0  0  0  0  0  0  0  0  0  0
  -24.1180  -25.3500   14.2700 H   0  0  0  0  0  0  0  0  0  0  0  0
  -24.6220  -26.9780   13.9320 H   0  0  0  0  0  0  0  0  0  0  0  0
  -27.7170  -23.4070   16.6840 C   0  0  0  0  0  0  0  0  0  0  0  0
  -27.5090  -24.2550   15.6680 N   0  0  0  0  0  0  0  0  0  0  0  0
  -27.0790  -22.3650   16.8270 O   0  0  0  0  0  0  0  0  0  0  0  0
  -28.0190  -25.1280   15.6940 H   0  0  0  0  0  0  0  0  0  0  0  0
  -28.7820  -23.8470   17.6990 C   0  0  0  0  0  2  0  0  0  0  0  0
  -29.8510  -22.8950   17.8760 O   0  0  0  0  0  0  0  0  0  0  0  0
  -30.9170  -23.5750   18.5450 C   0  0  0  0  0  2  0  0  0  0  0  0
  -32.1420  -22.8540   19.1660 C   0  0  0  0  0  2  0  0  0  0  0  0
  -33.3870  -23.5920   19.3520 O   0  0  0  0  0  0  0  0  0  0  0  0
  -36.9280  -28.2410   23.5520 C   0  0  0  0  0  0  0  0  0  0  0  0
  -33.4840  -24.8820   19.8710 C   0  0  0  0  0  0  0  0  0  0  0  0
  -34.8410  -29.0650   22.5250 C   0  0  0  0  0  3  0  0  0  0  0  0
  -33.8360  -27.5670   20.7500 C   0  0  0  0  0  0  0  0  0  0  0  0
  -36.2000  -27.1850   21.4140 C   0  0  0  0  0  2  0  0  0  0  0  0
  -34.9000  -26.6670   20.8330 C   0  0  0  0  0  0  0  0  0  0  0  0
  -34.7340  -25.3300   20.3880 C   0  0  0  0  0  3  0  0  0  0  0  0
  -32.4340  -25.8330   19.8430 C   0  0  0  0  0  3  0  0  0  0  0  0
  -32.6010  -27.1470   20.2720 C   0  0  0  0  0  3  0  0  0  0  0  0
  -34.0620  -28.9880   21.1950 C   0  0  0  0  0  2  0  0  0  0  0  0
  -36.0200  -28.1380   22.5420 N   0  0  0  0  0  0  0  0  0  0  0  0
  -36.8130  -29.1030   24.4330 O   0  0  0  0  0  0  0  0  0  0  0  0
  -33.8510  -28.8210   23.6850 C   0  0  0  0  0  0  0  0  0  0  0  0
  -33.0770  -29.8580   24.0430 N   0  0  0  0  0  0  0  0  0  0  0  0
  -33.7800  -27.7150   24.2280 O   0  0  0  0  0  0  0  0  0  0  0  0
  -33.2020  -30.7350   23.5560 H   0  0  0  0  0  0  0  0  0  0  0  0
  -30.6150  -31.9010   25.7160 C   0  0  0  0  0  0  0  0  0  0  0  0
  -32.0560  -29.8490   25.0900 C   0  0  0  0  0  3  0  0  0  0  0  0
  -30.7420  -29.2070   24.5880 C   0  0  0  0  0  2  0  0  0  0  0  0
  -29.7460  -30.2290   24.0280 C   0  0  0  0  0  2  0  0  0  0  0  0
  -29.3820  -31.2650   25.0950 C   0  0  0  0  0  2  0  0  0  0  0  0
  -31.8740  -31.2440   25.7000 C   0  0  0  0  0  0  0  0  0  0  0  0
  -32.9950  -31.8960   26.2550 C   0  0  0  0  0  3  0  0  0  0  0  0
  -32.8720  -33.1780   26.8250 C   0  0  0  0  0  3  0  0  0  0  0  0
  -31.6200  -33.8150   26.8570 C   0  0  0  0  0  3  0  0  0  0  0  0
  -30.4940  -33.1770   26.3070 C   0  0  0  0  0  3  0  0  0  0  0  0
  -38.1650  -27.2980   23.6360 C   0  0  0  0  0  3  0  0  0  0  0  0
  -37.9680  -26.0950   24.6390 C   0  0  1  0  0  0  0  0  0  0  0  0
  -37.4890  -26.5200   26.0460 C   0  0  0  0  0  1  0  0  0  0  0  0
  -36.9420  -25.0780   24.0910 C   0  0  0  0  0  1  0  0  0  0  0  0
  -39.3000  -25.3280   24.8040 C   0  0  0  0  0  1  0  0  0  0  0  0
  -39.3220  -28.1160   24.0250 N   0  0  0  0  0  0  0  0  0  0  0  0
  -40.2390  -28.5880   23.1690 C   0  0  0  0  0  0  0  0  0  0  0  0
  -40.2340  -28.3160   21.9640 O   0  0  0  0  0  0  0  0  0  0  0  0
  -39.3470  -28.4550   24.9760 H   0  0  0  0  0  0  0  0  0  0  0  0
  -40.9680  -30.9820   23.4570 C   0  0  0  0  0  1  0  0  0  0  0  0
  -41.3300  -29.5140   23.7460 C   0  0  0  0  0  3  0  0  0  0  0  0
  -43.2010  -27.9350   23.6790 C   0  0  0  0  0  1  0  0  0  0  0  0
  -42.6840  -29.2240   23.2270 N   0  0  0  0  0  0  0  0  0  0  0  0
  -43.3410  -29.9450   23.5100 H   0  0  0  0  0  0  0  0  0  0  0  0
  1 63  1  0
  2  1  1  0
  3  4  1  0
  3  2  1  0
  4  5  1  0
  5  6  1  0
  6  7  1  0
  7  8  1  0
  8  9  1  0
  9 10  1  0
 10 11  1  0
 11 12  1  0
 11 14  1  0
 13 11  1  0
 14 15  1  0
 15 16  1  0
 16 17  1  0
 17 18  1  0
 18 19  1  0
 19 20  1  0
 20 21  1  0
 21 22  1  0
 22 23  1  0
 23 24  1  0
 25 32  2  0
 27 26  1  0
 28 27  1  0
 29 38  1  0
 29 28  1  0
 29 30  1  0
 30 31  1  0
 31 25  1  0
 31 26  1  0
 33 24  1  0
 33 25  1  0
 34 33  1  0
 35 38  1  0
 36 35  2  0
 36 37  1  0
 37 39  2  0
 38 39  1  0
 40 37  1  0
 40 41  1  0
 42 41  2  0
 43 42  1  0
 44 45  1  0
 44 43  2  0
 45 40  2  0
 46 43  1  0
 46 47  1  0
 47 48  2  0
 47 52  1  0
 48 49  1  0
 49 50  2  0
 50 54  1  0
 51 50  1  0
 52 51  2  0
 53 52  1  0
 55 36  1  0
 56 55  1  0
 56 58  1  0
 57 55  2  0
 59 56  1  0
 60 62  1  0
 60 35  1  0
 61 60  1  0
 63 64  1  0
 64 66  1  0
 64 67  1  0
 65 64  1  0
 68 67  1  0
 68 75  1  0
 69 68  1  0
 70 72  1  0
 70 69  1  0
 71 69  2  0
 73 70  1  0
 74 76  2  0
 74 78  1  0
 75 77  1  0
 75 74  1  0
 78 79  1  0
 79 80  1  0
 80 81  1  0
 81 82  1  0
 82 84  1  0
 83 94  2  0
 84 89  1  0
 85 93  1  0
 85 95  1  0
 86 88  1  0
 86 92  1  0
 87 93  1  0
 88 87  1  0
 89 88  2  0
 90 84  2  0
 90 91  1  0
 91 86  2  0
 92 85  1  0
 93 83  1  0
 95 96  1  0
 95 97  2  0
 98 96  1  0
 99108  1  0
100 96  1  0
100104  1  0
101100  1  0
102101  1  0
102103  1  0
103 99  1  0
104 99  2  0
104105  1  0
105106  2  0
106107  1  0
108107  2  0
109 83  1  0
109114  1  0
109110  1  0
110113  1  1
110111  1  0
112110  1  0
114117  1  0
115119  1  0
115114  1  0
116115  2  0
119118  1  0
121122  1  0
121120  1  0
121119  1  0
M  ISO  4  25 100  33 100  81 101  82 101
M  END
>  <TORSDO>  (45) 
F 47

>  <SCORE>  (45) 
12.447

>  <name>  (45) 
46

>  <ligand_id>  (45) 
46

>  <original_smiles>  (45) 
[H]c1c([H])c([H])c2c(c1[H])C([H])([H])C([H])([H])C([H])([H])C2([H])N([H])C(=O)C1([H])N(C(=O)C([H])(N([H])C(=O)C([H])(N([H])C([H])([H])[H])C([H])([H])[H])C(C([H])([H])[H])(C([H])([H])[H])C([H])([H])[H])C([H])([H])c2c([H])c(OC([H])([H])C([H])([H])OC([H])([H])C(=O)N([H])C([H])(C(=O)N([H])[H])C([H])([H])[N+]([H])([H])C([H])([H])C([H])([H])OC([H])([H])C([H])([H])OC([H])([H])C([H])([H])C([H])([H])C([H])([H])C([H])([H])[N+]([H])([H])C([H])([H])C([H])([H])C([H])([H])OC([H])([H])C([H])([H])C([H])([H])OC([H])([H])C([H])([H])C([H])([H])N([H])C(=O)N3C([H])([H])C([H])([H])C([H])([H])C([H])(n4nc(-c5c([H])c([H])c(Oc6c([H])c([H])c(F)c([H])c6F)c([H])c5[H])c(C(=O)N([H])[H])c4N([H])[H])C3([H])[H])c([H])c([H])c2C1([H])[H]

>  <smiles>  (45) 
[H]c1c([H])c([H])c2c(c1[H])C([H])([H])C([H])([H])C([H])([H])C2([H])N([H])C(=O)C1([H])N(C(=O)C([H])(N([H])C(=O)C([H])(N([H])C([H])([H])[H])C([H])([H])[H])C(C([H])([H])[H])(C([H])([H])[H])C([H])([H])[H])C([H])([H])c2c([H])c(OC([H])([H])C([H])([H])OC([H])([H])C(=O)N([H])C([H])(C(=O)N([H])[H])C([H])([H])[N+]([H])([H])C([H])([H])C([H])([H])OC([H])([H])C([H])([H])OC([H])([H])C([H])([H])C([H])([H])C([H])([H])C([H])([H])[N+]([H])([H])C([H])([H])C([H])([H])C([H])([H])OC([H])([H])C([H])([H])C([H])([H])OC([H])([H])C([H])([H])C([H])([H])N([H])C(=O)N3C([H])([H])C([H])([H])C([H])([H])C([H])(n4nc(-c5c([H])c([H])c(Oc6c([H])c([H])c(F)c([H])c6F)c([H])c5[H])c(C(=O)N([H])[H])c4N([H])[H])C3([H])[H])c([H])c([H])c2C1([H])[H]

$$$$
47:0:0
     RDKit          3D

100107  0  0  1  0  0  0  0  0999 V2000
  -29.8840  -19.9220   19.1690 C   0  0  0  0  0  3  0  0  0  0  0  0
  -30.4010  -17.5790   19.8590 C   0  0  0  0  0  0  0  0  0  0  0  0
  -30.6100  -18.8950   19.9030 N   0  0  0  0  0  0  0  0  0  0  0  0
  -29.5650  -17.0510   19.1200 O   0  0  0  0  0  0  0  0  0  0  0  0
  -31.3280  -19.2230   20.5330 H   0  0  0  0  0  0  0  0  0  0  0  0
  -31.2830  -16.7370   20.8020 C   0  0  0  0  0  3  0  0  0  0  0  0
  -31.4870  -14.5250   19.5850 C   0  0  0  0  0  0  0  0  0  0  0  0
  -30.9970  -12.3880   18.4410 C   0  0  0  0  0  2  0  0  0  0  0  0
  -29.9410  -12.5980   17.3380 C   0  0  0  0  0  2  0  0  0  0  0  0
  -28.5050  -12.5740   17.9060 C   0  0  0  0  0  2  0  0  0  0  0  0
  -28.3460  -13.4790   19.1580 C   0  0  0  0  0  3  0  0  0  0  0  0
  -29.4680  -13.1500   20.1640 C   0  0  0  0  0  2  0  0  0  0  0  0
  -30.7640  -13.3830   19.4910 N   0  0  0  0  0  0  0  0  0  0  0  0
  -32.4600  -14.7960   18.8700 O   0  0  0  0  0  0  0  0  0  0  0  0
  -31.0210  -15.3330   20.5380 N   0  0  0  0  0  0  0  0  0  0  0  0
  -30.2110  -14.9760   21.0180 H   0  0  0  0  0  0  0  0  0  0  0  0
  -26.1280  -14.3130   20.1740 C   0  0  0  0  0  0  0  0  0  0  0  0
  -25.0160  -13.6420   20.6100 C   0  0  0  0  0  0  0  0  0  0  0  0
  -25.3020  -12.2530   20.4390 C   0  0  0  0  0  0  0  0  0  0  0  0
  -27.0260  -13.3360   19.7690 N   0  0  0  0  0  0  0  0  0  0  0  0
  -26.5360  -12.0890   19.9800 N   0  0  0  0  0  0  0  0  0  0  0  0
  -24.4530  -11.0690   20.6340 C   0  0  0  0  0  0  0  0  0  0  0  0
  -24.8660   -9.9890   21.4450 C   0  0  0  0  0  3  0  0  0  0  0  0
  -24.0260   -8.8700   21.6300 C   0  0  0  0  0  3  0  0  0  0  0  0
  -22.7590   -8.8230   21.0040 C   0  0  0  0  0  0  0  0  0  0  0  0
  -22.3610   -9.8900   20.1770 C   0  0  0  0  0  3  0  0  0  0  0  0
  -23.2010  -11.0000   19.9900 C   0  0  0  0  0  3  0  0  0  0  0  0
  -21.8870   -7.7670   21.1030 O   0  0  0  0  0  0  0  0  0  0  0  0
  -21.8330   -6.9810   22.2260 C   0  0  0  0  0  0  0  0  0  0  0  0
  -21.5740   -7.5220   23.5040 C   0  0  0  0  0  3  0  0  0  0  0  0
  -21.4590   -6.6700   24.6190 C   0  0  0  0  0  3  0  0  0  0  0  0
  -21.5960   -5.2780   24.4580 C   0  0  0  0  0  0  0  0  0  0  0  0
  -21.8490   -4.7360   23.1860 C   0  0  0  0  0  3  0  0  0  0  0  0
  -21.9660   -5.5860   22.0730 C   0  0  0  0  0  0  0  0  0  0  0  0
  -22.1870   -5.0580   20.8450 F   0  0  0  0  0  0  0  0  0  0  0  0
  -21.4780   -4.4580   25.5280 F   0  0  0  0  0  0  0  0  0  0  0  0
  -23.7250  -14.2520   21.0780 C   0  0  0  0  0  0  0  0  0  0  0  0
  -23.0380  -13.5980   22.0060 N   0  0  0  0  0  0  0  0  0  0  0  0
  -23.3420  -15.3420   20.6550 O   0  0  0  0  0  0  0  0  0  0  0  0
  -23.3590  -12.7120   22.3700 H   0  0  0  0  0  0  0  0  0  0  0  0
  -22.1730  -13.9840   22.3580 H   0  0  0  0  0  0  0  0  0  0  0  0
  -26.4470  -15.6640   20.0750 N   0  0  0  0  0  0  0  0  0  0  0  0
  -25.7900  -16.3970   20.3160 H   0  0  0  0  0  0  0  0  0  0  0  0
  -27.3550  -16.0200   19.7950 H   0  0  0  0  0  0  0  0  0  0  0  0
  -31.5280  -18.3630   22.7980 C   0  0  0  0  0  1  0  0  0  0  0  0
  -31.6840  -15.9030   23.1480 C   0  0  0  0  0  1  0  0  0  0  0  0
  -29.4600  -16.9810   22.6510 C   0  0  0  0  0  1  0  0  0  0  0  0
  -30.9760  -17.0020   22.3220 C   0  0  2  0  0  0  0  0  0  0  0  0
  -30.7850  -20.4890   18.0510 C   0  0  0  0  0  2  0  0  0  0  0  0
  -31.2570  -18.6170   16.4760 C   0  0  0  0  0  0  0  0  0  0  0  0
  -32.2460  -17.5230   16.0990 C   0  0  0  0  0  1  0  0  0  0  0  0
  -31.6270  -19.4480   17.4570 N   0  0  0  0  0  0  0  0  0  0  0  0
  -30.1770  -18.7080   15.8930 O   0  0  0  0  0  0  0  0  0  0  0  0
  -32.5260  -19.2840   17.8930 H   0  0  0  0  0  0  0  0  0  0  0  0
  -29.4260  -20.9730   20.1930 C   0  0  0  0  0  2  0  0  0  0  0  0
  -29.0780  -22.2090   19.5870 O   0  0  0  0  0  0  0  0  0  0  0  0
  -28.7740  -23.1850   20.5740 C   0  0  0  0  0  2  0  0  0  0  0  0
  -28.7950  -24.5900   19.9680 C   0  0  0  0  0  2  0  0  0  0  0  0
  -28.4140  -25.6330   21.0210 C   0  0  0  0  0  2  0  0  0  0  0  0
  -28.4740  -26.9380   20.4600 O   0  0  0  0  0  0  0  0  0  0  0  0
  -24.4790  -32.0170   23.3680 C   0  0  0  0  0  0  0  0  0  0  0  0
  -27.2780  -27.6030   20.4380 C   0  0  0  0  0  0  0  0  0  0  0  0
  -23.3280  -30.5560   21.7330 C   0  0  0  0  0  3  0  0  0  0  0  0
  -24.8420  -29.0150   20.3750 C   0  0  0  0  0  0  0  0  0  0  0  0
  -25.8440  -30.9750   21.5650 C   0  0  0  0  0  2  0  0  0  0  0  0
  -25.9720  -29.5920   20.9660 C   0  0  0  0  0  0  0  0  0  0  0  0
  -27.1950  -28.8930   20.9970 C   0  0  0  0  0  3  0  0  0  0  0  0
  -26.1380  -27.0230   19.8440 C   0  0  0  0  0  3  0  0  0  0  0  0
  -24.9190  -27.7280   19.8080 C   0  0  0  0  0  3  0  0  0  0  0  0
  -23.5760  -29.8400   20.3760 C   0  0  0  0  0  2  0  0  0  0  0  0
  -24.5680  -31.1980   22.2820 N   0  0  0  0  0  0  0  0  0  0  0  0
  -23.3830  -32.2760   23.8850 O   0  0  0  0  0  0  0  0  0  0  0  0
  -22.6840  -29.5440   22.7070 C   0  0  0  0  0  0  0  0  0  0  0  0
  -21.3710  -29.3180   22.5470 N   0  0  0  0  0  0  0  0  0  0  0  0
  -23.3620  -28.9620   23.5580 O   0  0  0  0  0  0  0  0  0  0  0  0
  -20.8830  -29.8430   21.8330 H   0  0  0  0  0  0  0  0  0  0  0  0
  -18.0080  -28.0790   23.0090 C   0  0  0  0  0  0  0  0  0  0  0  0
  -20.5580  -28.3770   23.3180 C   0  0  0  0  0  3  0  0  0  0  0  0
  -20.6920  -26.9410   22.7610 C   0  0  0  0  0  2  0  0  0  0  0  0
  -19.6110  -26.5870   21.7370 C   0  0  0  0  0  2  0  0  0  0  0  0
  -18.2160  -26.7250   22.3520 C   0  0  0  0  0  2  0  0  0  0  0  0
  -19.1100  -28.8620   23.4470 C   0  0  0  0  0  0  0  0  0  0  0  0
  -18.8660  -30.1320   24.0150 C   0  0  0  0  0  3  0  0  0  0  0  0
  -17.5520  -30.6190   24.1520 C   0  0  0  0  0  3  0  0  0  0  0  0
  -16.4650  -29.8320   23.7340 C   0  0  0  0  0  3  0  0  0  0  0  0
  -16.6940  -28.5660   23.1660 C   0  0  0  0  0  3  0  0  0  0  0  0
  -25.7440  -32.6850   23.9970 C   0  0  0  0  0  3  0  0  0  0  0  0
  -26.2580  -31.9420   25.2900 C   0  0  1  0  0  0  0  0  0  0  0  0
  -25.1420  -31.6180   26.3090 C   0  0  0  0  0  1  0  0  0  0  0  0
  -26.9560  -30.6160   24.9070 C   0  0  0  0  0  1  0  0  0  0  0  0
  -27.3160  -32.8130   26.0080 C   0  0  0  0  0  1  0  0  0  0  0  0
  -25.4020  -34.0800   24.3010 N   0  0  0  0  0  0  0  0  0  0  0  0
  -25.7170  -35.1260   23.5250 C   0  0  0  0  0  0  0  0  0  0  0  0
  -26.3980  -35.0200   22.5020 O   0  0  0  0  0  0  0  0  0  0  0  0
  -24.8090  -34.2380   25.1030 H   0  0  0  0  0  0  0  0  0  0  0  0
  -23.9500  -36.8620   23.1210 C   0  0  0  0  0  1  0  0  0  0  0  0
  -25.1920  -36.5090   23.9530 C   0  0  0  0  0  3  0  0  0  0  0  0
  -27.3050  -37.4490   24.7770 C   0  0  0  0  0  1  0  0  0  0  0  0
  -26.2000  -37.5870   23.8320 N   0  0  0  0  0  0  0  0  0  0  0  0
  -25.7700  -38.4960   23.9750 H   0  0  0  0  0  0  0  0  0  0  0  0
  1 49  1  0
  1  3  1  0
  1 55  1  0
  2  3  1  0
  3  5  1  0
  4  2  2  0
  6  2  1  0
  6 48  1  0
  7 15  1  0
  8 13  1  0
  9 10  1  0
  9  8  1  0
 11 10  1  0
 11 20  1  0
 11 12  1  0
 13  7  1  0
 13 12  1  0
 14  7  2  0
 15  6  1  0
 15 16  1  0
 17 18  2  0
 18 37  1  0
 19 18  1  0
 19 22  1  0
 20 21  1  0
 20 17  1  0
 21 19  2  0
 22 23  1  0
 23 24  2  0
 25 28  1  0
 25 24  1  0
 26 25  2  0
 27 26  1  0
 27 22  2  0
 28 29  1  0
 29 30  1  0
 30 31  2  0
 32 31  1  0
 32 36  1  0
 33 32  2  0
 34 29  2  0
 34 33  1  0
 35 34  1  0
 37 38  1  0
 38 41  1  0
 38 40  1  0
 39 37  2  0
 42 17  1  0
 42 43  1  0
 44 42  1  0
 48 47  1  6
 48 45  1  0
 48 46  1  0
 50 52  1  0
 51 50  1  0
 52 54  1  0
 52 49  1  0
 53 50  2  0
 56 55  1  0
 56 57  1  0
 58 57  1  0
 58 59  1  0
 60 59  1  0
 61 72  2  0
 62 60  1  0
 62 67  1  0
 63 71  1  0
 63 73  1  0
 64 70  1  0
 64 66  1  0
 65 71  1  0
 66 67  2  0
 66 65  1  0
 68 62  2  0
 69 68  1  0
 69 64  2  0
 70 63  1  0
 71 61  1  0
 73 75  2  0
 74 73  1  0
 76 74  1  0
 77 86  2  0
 77 82  1  0
 78 74  1  0
 78 82  1  0
 79 78  1  0
 80 81  1  0
 80 79  1  0
 81 77  1  0
 82 83  2  0
 83 84  1  0
 85 84  2  0
 86 85  1  0
 87 61  1  0
 87 92  1  0
 87 88  1  0
 88 91  1  1
 88 89  1  0
 90 88  1  0
 92 95  1  0
 93 97  1  0
 93 92  1  0
 94 93  2  0
 97 96  1  0
 99 97  1  0
 99100  1  0
 99 98  1  0
M  ISO  4   7 100  15 100  59 101  60 101
M  END
>  <TORSDO>  (46) 
F 26

>  <SCORE>  (46) 
-7.317

>  <name>  (46) 
47

>  <ligand_id>  (46) 
47

>  <original_smiles>  (46) 
[H]c1c([H])c([H])c2c(c1[H])C([H])([H])C([H])([H])C([H])([H])C2([H])N([H])C(=O)C1([H])N(C(=O)C([H])(N([H])C(=O)C([H])(N([H])C([H])([H])[H])C([H])([H])[H])C(C([H])([H])[H])(C([H])([H])[H])C([H])([H])[H])C([H])([H])c2c([H])c(OC([H])([H])C([H])([H])C([H])([H])OC([H])([H])C([H])(N([H])C(=O)C([H])(N([H])C(=O)N3C([H])([H])C([H])([H])C([H])([H])C([H])(n4nc(-c5c([H])c([H])c(Oc6c([H])c([H])c(F)c([H])c6F)c([H])c5[H])c(C(=O)N([H])[H])c4N([H])[H])C3([H])[H])C(C([H])([H])[H])(C([H])([H])[H])C([H])([H])[H])C([H])([H])N([H])C(=O)C([H])([H])[H])c([H])c([H])c2C1([H])[H]

>  <smiles>  (46) 
[H]c1c([H])c([H])c2c(c1[H])C([H])([H])C([H])([H])C([H])([H])C2([H])N([H])C(=O)C1([H])N(C(=O)C([H])(N([H])C(=O)C([H])(N([H])C([H])([H])[H])C([H])([H])[H])C(C([H])([H])[H])(C([H])([H])[H])C([H])([H])[H])C([H])([H])c2c([H])c(OC([H])([H])C([H])([H])C([H])([H])OC([H])([H])C([H])(N([H])C(=O)C([H])(N([H])C(=O)N3C([H])([H])C([H])([H])C([H])([H])C([H])(n4nc(-c5c([H])c([H])c(Oc6c([H])c([H])c(F)c([H])c6F)c([H])c5[H])c(C(=O)N([H])[H])c4N([H])[H])C3([H])[H])C(C([H])([H])[H])(C([H])([H])[H])C([H])([H])[H])C([H])([H])N([H])C(=O)C([H])([H])[H])c([H])c([H])c2C1([H])[H]

$$$$
48:0:0
     RDKit          3D

100107  0  0  1  0  0  0  0  0999 V2000
  -23.1710  -26.5070   24.7350 C   0  0  0  0  0  2  0  0  0  0  0  0
  -24.4090  -25.5840   24.1610 O   0  0  0  0  0  0  0  0  0  0  0  0
  -24.6040  -23.9660   23.8810 C   0  0  0  0  0  2  0  0  0  0  0  0
  -26.0410  -22.9270   23.5160 C   0  0  0  0  0  2  0  0  0  0  0  0
  -27.3400  -20.3540   22.9610 C   0  0  0  0  0  0  0  0  0  0  0  0
  -26.3060  -21.4150   22.8250 N   0  0  0  0  0  0  0  0  0  0  0  0
  -28.0880  -20.4880   23.9320 O   0  0  0  0  0  0  0  0  0  0  0  0
  -25.7130  -21.2330   22.0250 H   0  0  0  0  0  0  0  0  0  0  0  0
  -27.6690  -18.8730   21.9140 C   0  0  0  0  0  0  0  0  0  0  0  0
  -26.8260  -18.6880   21.0300 O   0  0  0  0  0  0  0  0  0  0  0  0
  -29.0280  -17.6540   21.9560 C   0  0  0  0  0  3  0  0  0  0  0  0
  -30.1500  -15.1260   20.7770 C   0  0  0  0  0  0  0  0  0  0  0  0
  -30.4160  -12.7940   19.5970 C   0  0  0  0  0  2  0  0  0  0  0  0
  -29.5330  -12.6270   18.3240 C   0  0  0  0  0  2  0  0  0  0  0  0
  -28.0620  -12.3370   18.6850 C   0  0  0  0  0  2  0  0  0  0  0  0
  -27.5880  -13.2320   19.8550 C   0  0  0  0  0  3  0  0  0  0  0  0
  -28.5560  -13.1910   21.0380 C   0  0  0  0  0  2  0  0  0  0  0  0
  -29.7740  -13.7900   20.5380 N   0  0  0  0  0  0  0  0  0  0  0  0
  -31.3390  -15.3460   20.4630 O   0  0  0  0  0  0  0  0  0  0  0  0
  -29.1530  -16.1360   21.2490 N   0  0  0  0  0  0  0  0  0  0  0  0
  -28.2450  -15.6990   21.2750 H   0  0  0  0  0  0  0  0  0  0  0  0
  -25.2210  -13.8110   20.5630 C   0  0  0  0  0  0  0  0  0  0  0  0
  -24.1610  -13.0430   20.9200 C   0  0  0  0  0  0  0  0  0  0  0  0
  -24.6200  -11.6860   20.8710 C   0  0  0  0  0  0  0  0  0  0  0  0
  -26.2510  -12.9310   20.2990 N   0  0  0  0  0  0  0  0  0  0  0  0
  -25.9070  -11.6470   20.5570 N   0  0  0  0  0  0  0  0  0  0  0  0
  -23.8950  -10.4260   21.0430 C   0  0  0  0  0  0  0  0  0  0  0  0
  -24.3560   -9.4190   21.9190 C   0  0  0  0  0  3  0  0  0  0  0  0
  -23.6270   -8.2220   22.0750 C   0  0  0  0  0  3  0  0  0  0  0  0
  -22.4240   -8.0240   21.3550 C   0  0  0  0  0  0  0  0  0  0  0  0
  -21.9850   -9.0200   20.4650 C   0  0  0  0  0  3  0  0  0  0  0  0
  -22.7150  -10.2080   20.3060 C   0  0  0  0  0  3  0  0  0  0  0  0
  -21.6610   -6.8840   21.4240 O   0  0  0  0  0  0  0  0  0  0  0  0
  -21.6850   -6.0710   22.5280 C   0  0  0  0  0  0  0  0  0  0  0  0
  -21.4010   -6.5630   23.8210 C   0  0  0  0  0  3  0  0  0  0  0  0
  -21.3650   -5.6790   24.9170 C   0  0  0  0  0  3  0  0  0  0  0  0
  -21.6040   -4.3050   24.7230 C   0  0  0  0  0  0  0  0  0  0  0  0
  -21.8830   -3.8140   23.4360 C   0  0  0  0  0  3  0  0  0  0  0  0
  -21.9190   -4.6940   22.3410 C   0  0  0  0  0  0  0  0  0  0  0  0
  -22.1660   -4.2140   21.0980 F   0  0  0  0  0  0  0  0  0  0  0  0
  -21.5620   -3.4520   25.7740 F   0  0  0  0  0  0  0  0  0  0  0  0
  -22.7640  -13.5170   21.1920 C   0  0  0  0  0  0  0  0  0  0  0  0
  -22.0340  -12.8200   22.0470 N   0  0  0  0  0  0  0  0  0  0  0  0
  -22.3360  -14.5540   20.6750 O   0  0  0  0  0  0  0  0  0  0  0  0
  -22.3980  -11.9860   22.4860 H   0  0  0  0  0  0  0  0  0  0  0  0
  -21.0960  -13.1220   22.2730 H   0  0  0  0  0  0  0  0  0  0  0  0
  -25.3980  -15.1900   20.4110 N   0  0  0  0  0  0  0  0  0  0  0  0
  -24.6220  -15.8330   20.5230 H   0  0  0  0  0  0  0  0  0  0  0  0
  -26.2050  -15.6220   19.9830 H   0  0  0  0  0  0  0  0  0  0  0  0
  -30.8050  -19.4770   22.5480 C   0  0  0  0  0  1  0  0  0  0  0  0
  -30.3350  -18.3890   21.5720 C   0  0  0  0  0  2  0  0  0  0  0  0
  -22.7790  -28.2810   25.1160 C   0  0  0  0  0  2  0  0  0  0  0  0
  -21.7780  -29.5480   24.5460 O   0  0  0  0  0  0  0  0  0  0  0  0
  -21.2980  -30.4630   23.1680 C   0  0  0  0  0  2  0  0  0  0  0  0
  -20.9310  -30.0090   21.4090 C   0  0  0  0  0  2  0  0  0  0  0  0
  -21.4730  -28.6850   20.2870 C   0  0  0  0  0  2  0  0  0  0  0  0
  -22.8240  -27.7990   20.0850 O   0  0  0  0  0  0  0  0  0  0  0  0
  -23.6610  -26.5880   20.7570 C   0  0  0  0  0  2  0  0  0  0  0  0
  -25.2270  -25.8770   20.5650 C   0  0  0  0  0  2  0  0  0  0  0  0
  -26.7410  -26.3200   20.6350 O   0  0  0  0  0  0  0  0  0  0  0  0
  -24.7610  -31.8930   23.2240 C   0  0  0  0  0  0  0  0  0  0  0  0
  -27.0250  -27.4430   19.9660 C   0  0  0  0  0  3  0  0  0  0  0  0
  -23.6530  -30.3910   21.5790 C   0  0  0  0  0  3  0  0  0  0  0  0
  -25.0860  -29.3010   19.8470 C   0  0  0  0  0  0  0  0  0  0  0  0
  -26.1470  -30.7960   21.5010 C   0  0  0  0  0  2  0  0  0  0  0  0
  -26.1650  -29.5340   20.6830 C   0  0  0  0  0  0  0  0  0  0  0  0
  -27.1760  -28.5800   20.7730 C   0  0  0  0  0  3  0  0  0  0  0  0
  -26.2180  -27.4480   18.8410 C   0  0  0  0  0  2  0  0  0  0  0  0
  -25.1160  -28.2890   18.8820 C   0  0  0  0  0  3  0  0  0  0  0  0
  -23.9360  -30.2110   20.0720 C   0  0  0  0  0  2  0  0  0  0  0  0
  -24.8460  -31.0690   22.1550 N   0  0  0  0  0  0  0  0  0  0  0  0
  -23.7070  -32.2120   23.7660 O   0  0  0  0  0  0  0  0  0  0  0  0
  -23.3330  -29.0190   22.4150 C   0  0  0  0  0  0  0  0  0  0  0  0
  -22.1710  -28.1550   22.6270 N   0  0  0  0  0  0  0  0  0  0  0  0
  -24.2880  -28.6060   23.0180 O   0  0  0  0  0  0  0  0  0  0  0  0
  -22.6300  -27.2830   22.8180 H   0  0  0  0  0  0  0  0  0  0  0  0
  -17.9950  -28.0700   22.7510 C   0  0  0  0  0  0  0  0  0  0  0  0
  -20.6280  -27.8430   23.0250 C   0  0  0  0  0  3  0  0  0  0  0  0
  -20.4360  -26.5080   22.3520 C   0  0  0  0  0  2  0  0  0  0  0  0
  -19.2450  -26.3660   21.4300 C   0  0  0  0  0  2  0  0  0  0  0  0
  -17.9810  -26.6920   22.1560 C   0  0  0  0  0  2  0  0  0  0  0  0
  -19.1980  -28.6340   23.2660 C   0  0  0  0  0  0  0  0  0  0  0  0
  -18.9060  -29.7350   24.1460 C   0  0  0  0  0  3  0  0  0  0  0  0
  -17.6780  -30.4240   24.2190 C   0  0  0  0  0  3  0  0  0  0  0  0
  -16.5640  -29.8950   23.5630 C   0  0  0  0  0  3  0  0  0  0  0  0
  -16.7270  -28.6800   22.8820 C   0  0  0  0  0  3  0  0  0  0  0  0
  -26.0230  -32.5050   23.8590 C   0  0  0  0  0  3  0  0  0  0  0  0
  -25.6510  -33.8760   24.2400 N   0  0  0  0  0  0  0  0  0  0  0  0
  -25.9170  -34.9610   23.5050 C   0  0  0  0  0  0  0  0  0  0  0  0
  -26.5760  -34.9090   22.4650 O   0  0  0  0  0  0  0  0  0  0  0  0
  -25.0120  -33.9700   25.0160 H   0  0  0  0  0  0  0  0  0  0  0  0
  -24.1470  -36.7390   23.2590 C   0  0  0  0  0  1  0  0  0  0  0  0
  -25.4070  -36.3190   24.0300 C   0  0  0  0  0  3  0  0  0  0  0  0
  -27.5540  -37.1870   24.8470 C   0  0  0  0  0  1  0  0  0  0  0  0
  -26.4240  -37.3920   23.9450 N   0  0  0  0  0  0  0  0  0  0  0  0
  -26.0120  -38.3000   24.1440 H   0  0  0  0  0  0  0  0  0  0  0  0
  -26.4940  -31.6770   25.1130 C   0  0  1  0  0  0  0  0  0  0  0  0
  -25.3720  -31.4080   26.1500 C   0  0  0  0  0  1  0  0  0  0  0  0
  -27.0670  -30.3080   24.6760 C   0  0  0  0  0  1  0  0  0  0  0  0
  -27.6420  -32.4510   25.7880 C   0  0  0  0  0  1  0  0  0  0  0  0
  1 52  1  0
  2  1  1  0
  3  2  1  0
  4  3  1  0
  5  7  2  0
  6  5  1  0
  6  4  1  0
  8  6  1  0
  9 11  1  0
  9  5  1  0
 10  9  2  0
 11 51  1  0
 12 20  1  0
 13 18  1  0
 14 15  1  0
 14 13  1  0
 16 15  1  0
 16 25  1  0
 16 17  1  0
 18 12  1  0
 18 17  1  0
 19 12  2  0
 20 21  1  0
 20 11  1  0
 22 23  2  0
 23 42  1  0
 24 23  1  0
 24 27  1  0
 25 26  1  0
 25 22  1  0
 26 24  2  0
 27 28  1  0
 28 29  2  0
 30 33  1  0
 30 29  1  0
 31 30  2  0
 32 31  1  0
 32 27  2  0
 33 34  1  0
 34 35  1  0
 35 36  2  0
 37 36  1  0
 37 41  1  0
 38 37  2  0
 39 34  2  0
 39 38  1  0
 40 39  1  0
 42 43  1  0
 43 46  1  0
 43 45  1  0
 44 42  2  0
 47 48  1  0
 47 22  1  0
 49 47  1  0
 51 50  1  0
 53 52  1  0
 54 53  1  0
 55 54  1  0
 56 55  1  0
 57 56  1  0
 57 58  1  0
 59 60  1  0
 59 58  1  0
 61 72  2  0
 62 60  1  0
 62 67  1  0
 63 71  1  0
 63 73  1  0
 64 70  1  0
 64 66  1  0
 65 71  1  0
 66 67  2  0
 66 65  1  0
 68 69  1  0
 68 62  1  0
 69 64  2  0
 70 63  1  0
 71 61  1  0
 73 74  1  0
 73 75  2  0
 74 76  1  0
 77 86  2  0
 77 82  1  0
 78 74  1  0
 78 82  1  0
 79 78  1  0
 80 81  1  0
 80 79  1  0
 81 77  1  0
 82 83  2  0
 83 84  1  0
 85 84  2  0
 86 85  1  0
 87 61  1  0
 87 88  1  0
 87 97  1  0
 88 91  1  0
 89 93  1  0
 89 88  1  0
 90 89  2  0
 93 92  1  0
 95 93  1  0
 95 96  1  0
 95 94  1  0
 97100  1  1
 97 98  1  0
 99 97  1  0
M  ISO  4  12 100  20 100  59 101  60 101
M  END
>  <TORSDO>  (47) 
F 31

>  <SCORE>  (47) 
18.379

>  <name>  (47) 
48

>  <ligand_id>  (47) 
48

>  <original_smiles>  (47) 
[H]c1c([H])c([H])c2c(c1[H])C([H])([H])C([H])([H])C([H])([H])C2([H])N([H])C(=O)C1([H])N(C(=O)C([H])(N([H])C(=O)C([H])(N([H])C([H])([H])[H])C([H])([H])[H])C(C([H])([H])[H])(C([H])([H])[H])C([H])([H])[H])C([H])([H])c2c([H])c(OC([H])([H])C([H])([H])OC([H])([H])C([H])([H])C([H])([H])OC([H])([H])C([H])([H])OC([H])([H])C([H])([H])N([H])C(=O)C(=O)C([H])(N([H])C(=O)N3C([H])([H])C([H])([H])C([H])([H])C([H])(n4nc(-c5c([H])c([H])c(Oc6c([H])c([H])c(F)c([H])c6F)c([H])c5[H])c(C(=O)N([H])[H])c4N([H])[H])C3([H])[H])C([H])([H])C([H])([H])[H])c([H])c([H])c2C1([H])[H]

>  <smiles>  (47) 
[H]c1c([H])c([H])c2c(c1[H])C([H])([H])C([H])([H])C([H])([H])C2([H])N([H])C(=O)C1([H])N(C(=O)C([H])(N([H])C(=O)C([H])(N([H])C([H])([H])[H])C([H])([H])[H])C(C([H])([H])[H])(C([H])([H])[H])C([H])([H])[H])C([H])([H])c2c([H])c(OC([H])([H])C([H])([H])OC([H])([H])C([H])([H])C([H])([H])OC([H])([H])C([H])([H])OC([H])([H])C([H])([H])N([H])C(=O)C(=O)C([H])(N([H])C(=O)N3C([H])([H])C([H])([H])C([H])([H])C([H])(n4nc(-c5c([H])c([H])c(Oc6c([H])c([H])c(F)c([H])c6F)c([H])c5[H])c(C(=O)N([H])[H])c4N([H])[H])C3([H])[H])C([H])([H])C([H])([H])[H])c([H])c([H])c2C1([H])[H]

$$$$
49:0:0
     RDKit          3D

 94101  0  0  1  0  0  0  0  0999 V2000
  -30.4470  -19.3530   23.0900 C   0  0  0  0  0  2  0  0  0  0  0  0
  -31.3650  -17.0230   23.5730 C   0  0  0  0  0  1  0  0  0  0  0  0
  -30.7010  -17.9360   22.5340 C   0  0  0  0  0  3  0  0  0  0  0  0
  -31.2800  -17.7930   20.0690 C   0  0  0  0  0  0  0  0  0  0  0  0
  -31.5590  -18.0410   21.3560 N   0  0  0  0  0  0  0  0  0  0  0  0
  -32.0720  -18.1670   19.2050 O   0  0  0  0  0  0  0  0  0  0  0  0
  -32.4410  -18.5080   21.5130 H   0  0  0  0  0  0  0  0  0  0  0  0
  -28.7450  -17.8440   19.7090 C   0  0  0  0  0  1  0  0  0  0  0  0
  -30.0300  -16.9970   19.6230 C   0  0  0  0  0  3  0  0  0  0  0  0
  -30.6710  -14.6740   20.1340 C   0  0  0  0  0  0  0  0  0  0  0  0
  -30.4130  -12.4570   19.1360 C   0  0  0  0  0  2  0  0  0  0  0  0
  -29.4320  -12.5930   17.9510 C   0  0  0  0  0  2  0  0  0  0  0  0
  -27.9750  -12.4370   18.4290 C   0  0  0  0  0  2  0  0  0  0  0  0
  -27.6450  -13.3180   19.6630 C   0  0  0  0  0  3  0  0  0  0  0  0
  -28.7380  -13.1840   20.7500 C   0  0  0  0  0  2  0  0  0  0  0  0
  -30.0430  -13.4720   20.1310 N   0  0  0  0  0  0  0  0  0  0  0  0
  -31.8110  -14.8420   19.6980 O   0  0  0  0  0  0  0  0  0  0  0  0
  -29.8470  -15.7160   20.3160 N   0  0  0  0  0  0  0  0  0  0  0  0
  -28.9280  -15.5030   20.6660 H   0  0  0  0  0  0  0  0  0  0  0  0
  -25.2770  -13.8830   20.5020 C   0  0  0  0  0  0  0  0  0  0  0  0
  -24.2340  -13.0900   20.8970 C   0  0  0  0  0  0  0  0  0  0  0  0
  -24.7030  -11.7430   20.8010 C   0  0  0  0  0  0  0  0  0  0  0  0
  -26.3160  -13.0190   20.1940 N   0  0  0  0  0  0  0  0  0  0  0  0
  -25.9770  -11.7270   20.4300 N   0  0  0  0  0  0  0  0  0  0  0  0
  -23.9990  -10.4670   20.9790 C   0  0  0  0  0  0  0  0  0  0  0  0
  -24.4220   -9.5170   21.9360 C   0  0  0  0  0  3  0  0  0  0  0  0
  -23.7150   -8.3080   22.1020 C   0  0  0  0  0  3  0  0  0  0  0  0
  -22.5750   -8.0370   21.3090 C   0  0  0  0  0  0  0  0  0  0  0  0
  -22.1730   -8.9750   20.3430 C   0  0  0  0  0  3  0  0  0  0  0  0
  -22.8800  -10.1770   20.1740 C   0  0  0  0  0  3  0  0  0  0  0  0
  -21.8430   -6.8770   21.3850 O   0  0  0  0  0  0  0  0  0  0  0  0
  -21.6930   -6.1950   22.5650 C   0  0  0  0  0  0  0  0  0  0  0  0
  -21.0920   -6.7880   23.6980 C   0  0  0  0  0  3  0  0  0  0  0  0
  -20.8950   -6.0290   24.8680 C   0  0  0  0  0  3  0  0  0  0  0  0
  -21.2880   -4.6780   24.9060 C   0  0  0  0  0  0  0  0  0  0  0  0
  -21.8810   -4.0840   23.7790 C   0  0  0  0  0  3  0  0  0  0  0  0
  -22.0800   -4.8400   22.6100 C   0  0  0  0  0  0  0  0  0  0  0  0
  -22.6320   -4.2570   21.5190 F   0  0  0  0  0  0  0  0  0  0  0  0
  -21.0910   -3.9460   26.0270 F   0  0  0  0  0  0  0  0  0  0  0  0
  -22.8440  -13.5430   21.2460 C   0  0  0  0  0  0  0  0  0  0  0  0
  -22.1640  -12.8140   22.1240 N   0  0  0  0  0  0  0  0  0  0  0  0
  -22.3730  -14.5780   20.7760 O   0  0  0  0  0  0  0  0  0  0  0  0
  -22.5570  -11.9760   22.5260 H   0  0  0  0  0  0  0  0  0  0  0  0
  -21.2350  -13.0990   22.4000 H   0  0  0  0  0  0  0  0  0  0  0  0
  -25.4220  -15.2610   20.3620 N   0  0  0  0  0  0  0  0  0  0  0  0
  -24.6530  -15.9020   20.5240 H   0  0  0  0  0  0  0  0  0  0  0  0
  -26.2430  -15.7190   19.9870 H   0  0  0  0  0  0  0  0  0  0  0  0
  -30.1120  -20.2480   22.0310 O   0  0  0  0  0  0  0  0  0  0  0  0
  -29.9660  -21.5970   22.4600 C   0  0  0  0  0  2  0  0  0  0  0  0
  -29.8090  -22.5300   21.2450 C   0  0  0  0  0  2  0  0  0  0  0  0
  -29.5800  -23.8660   21.6840 O   0  0  0  0  0  0  0  0  0  0  0  0
  -29.5140  -24.8230   20.6260 C   0  0  0  0  0  2  0  0  0  0  0  0
  -29.1030  -26.1890   21.2080 C   0  0  0  0  0  2  0  0  0  0  0  0
  -28.9900  -27.1880   20.1890 O   0  0  0  0  0  0  0  0  0  0  0  0
  -24.7860  -31.9630   23.3800 C   0  0  0  0  0  0  0  0  0  0  0  0
  -27.7900  -27.8520   20.1980 C   0  0  0  0  0  0  0  0  0  0  0  0
  -23.7140  -30.5610   21.6440 C   0  0  0  0  0  3  0  0  0  0  0  0
  -25.3030  -29.1810   20.2020 C   0  0  0  0  0  0  0  0  0  0  0  0
  -26.2130  -31.0930   21.5350 C   0  0  0  0  0  2  0  0  0  0  0  0
  -26.4060  -29.7570   20.8450 C   0  0  0  0  0  0  0  0  0  0  0  0
  -27.6540  -29.0980   20.8450 C   0  0  0  0  0  3  0  0  0  0  0  0
  -26.6750  -27.2800   19.5520 C   0  0  0  0  0  3  0  0  0  0  0  0
  -25.4300  -27.9390   19.5540 C   0  0  0  0  0  3  0  0  0  0  0  0
  -24.0040  -29.9540   20.2440 C   0  0  0  0  0  2  0  0  0  0  0  0
  -24.9200  -31.2180   22.2450 N   0  0  0  0  0  0  0  0  0  0  0  0
  -23.6760  -32.1420   23.8990 O   0  0  0  0  0  0  0  0  0  0  0  0
  -23.1050  -29.4600   22.5410 C   0  0  0  0  0  0  0  0  0  0  0  0
  -21.7960  -29.2110   22.3740 N   0  0  0  0  0  0  0  0  0  0  0  0
  -23.8070  -28.8360   23.3430 O   0  0  0  0  0  0  0  0  0  0  0  0
  -21.2910  -29.7680   21.6990 H   0  0  0  0  0  0  0  0  0  0  0  0
  -18.4830  -27.8170   22.7420 C   0  0  0  0  0  0  0  0  0  0  0  0
  -21.0170  -28.1960   23.0810 C   0  0  0  0  0  3  0  0  0  0  0  0
  -21.2090  -26.8020   22.4380 C   0  0  0  0  0  2  0  0  0  0  0  0
  -20.1430  -26.4740   21.3850 C   0  0  0  0  0  2  0  0  0  0  0  0
  -18.7440  -26.5140   22.0060 C   0  0  0  0  0  2  0  0  0  0  0  0
  -19.5510  -28.6140   23.2340 C   0  0  0  0  0  0  0  0  0  0  0  0
  -19.2540  -29.8340   23.8800 C   0  0  0  0  0  3  0  0  0  0  0  0
  -17.9220  -30.2580   24.0410 C   0  0  0  0  0  3  0  0  0  0  0  0
  -16.8680  -29.4570   23.5680 C   0  0  0  0  0  3  0  0  0  0  0  0
  -17.1490  -28.2390   22.9240 C   0  0  0  0  0  3  0  0  0  0  0  0
  -26.0140  -32.6420   24.0620 C   0  0  0  0  0  3  0  0  0  0  0  0
  -26.4730  -31.9140   25.3850 C   0  0  1  0  0  0  0  0  0  0  0  0
  -25.3140  -31.6450   26.3740 C   0  0  0  0  0  1  0  0  0  0  0  0
  -27.1450  -30.5590   25.0600 C   0  0  0  0  0  1  0  0  0  0  0  0
  -27.5370  -32.7690   26.1150 C   0  0  0  0  0  1  0  0  0  0  0  0
  -25.6520  -34.0390   24.3350 N   0  0  0  0  0  0  0  0  0  0  0  0
  -25.9910  -35.0760   23.5580 C   0  0  0  0  0  0  0  0  0  0  0  0
  -26.7120  -34.9610   22.5630 O   0  0  0  0  0  0  0  0  0  0  0  0
  -25.0160  -34.2010   25.1020 H   0  0  0  0  0  0  0  0  0  0  0  0
  -24.2200  -36.7950   23.0750 C   0  0  0  0  0  1  0  0  0  0  0  0
  -25.4420  -36.4620   23.9470 C   0  0  0  0  0  3  0  0  0  0  0  0
  -27.5110  -37.4490   24.8270 C   0  0  0  0  0  1  0  0  0  0  0  0
  -26.4440  -37.5450   23.8350 N   0  0  0  0  0  0  0  0  0  0  0  0
  -26.0030  -38.4560   23.9300 H   0  0  0  0  0  0  0  0  0  0  0  0
  3  1  1  0
  3  2  1  0
  4  5  1  0
  5  7  1  0
  5  3  1  0
  6  4  2  0
  9  8  1  0
  9  4  1  0
  9 18  1  0
 10 18  1  0
 11 16  1  0
 12 13  1  0
 12 11  1  0
 14 13  1  0
 14 23  1  0
 14 15  1  0
 16 10  1  0
 16 15  1  0
 17 10  2  0
 18 19  1  0
 20 21  2  0
 21 40  1  0
 22 21  1  0
 22 25  1  0
 23 24  1  0
 23 20  1  0
 24 22  2  0
 25 26  1  0
 26 27  2  0
 28 31  1  0
 28 27  1  0
 29 28  2  0
 30 29  1  0
 30 25  2  0
 31 32  1  0
 32 37  2  0
 32 33  1  0
 33 34  2  0
 34 35  1  0
 35 39  1  0
 36 35  2  0
 37 36  1  0
 38 37  1  0
 40 41  1  0
 41 44  1  0
 41 43  1  0
 42 40  2  0
 45 20  1  0
 45 46  1  0
 47 45  1  0
 48 49  1  0
 48  1  1  0
 50 51  1  0
 50 49  1  0
 52 53  1  0
 52 51  1  0
 54 56  1  0
 54 53  1  0
 55 66  2  0
 56 61  1  0
 57 65  1  0
 57 67  1  0
 58 64  1  0
 58 60  1  0
 59 65  1  0
 60 61  2  0
 60 59  1  0
 62 63  1  0
 62 56  2  0
 63 58  2  0
 64 57  1  0
 65 55  1  0
 67 69  2  0
 68 67  1  0
 70 68  1  0
 71 80  2  0
 71 76  1  0
 72 68  1  0
 72 76  1  0
 73 72  1  0
 74 75  1  0
 74 73  1  0
 75 71  1  0
 76 77  2  0
 77 78  1  0
 79 78  2  0
 80 79  1  0
 81 55  1  0
 81 86  1  0
 81 82  1  0
 82 85  1  1
 82 83  1  0
 84 82  1  0
 86 89  1  0
 87 91  1  0
 87 86  1  0
 88 87  2  0
 91 90  1  0
 93 94  1  0
 93 91  1  0
 93 92  1  0
M  ISO  4  10 100  18 100  53 101  54 101
M  END
>  <TORSDO>  (48) 
F 25

>  <SCORE>  (48) 
-10.088

>  <name>  (48) 
49

>  <ligand_id>  (48) 
49

>  <original_smiles>  (48) 
[H]c1c([H])c([H])c2c(c1[H])C([H])([H])C([H])([H])C([H])([H])C2([H])N([H])C(=O)C1([H])N(C(=O)C([H])(N([H])C(=O)C([H])(N([H])C([H])([H])[H])C([H])([H])[H])C(C([H])([H])[H])(C([H])([H])[H])C([H])([H])[H])C([H])([H])c2c([H])c(OC([H])([H])C([H])([H])OC([H])([H])C([H])([H])OC([H])([H])C([H])(N([H])C(=O)C([H])(N([H])C(=O)N3C([H])([H])C([H])([H])C([H])([H])C([H])(n4nc(-c5c([H])c([H])c(Oc6c([H])c([H])c(F)c([H])c6F)c([H])c5[H])c(C(=O)N([H])[H])c4N([H])[H])C3([H])[H])C([H])([H])[H])C([H])([H])[H])c([H])c([H])c2C1([H])[H]

>  <smiles>  (48) 
[H]c1c([H])c([H])c2c(c1[H])C([H])([H])C([H])([H])C([H])([H])C2([H])N([H])C(=O)C1([H])N(C(=O)C([H])(N([H])C(=O)C([H])(N([H])C([H])([H])[H])C([H])([H])[H])C(C([H])([H])[H])(C([H])([H])[H])C([H])([H])[H])C([H])([H])c2c([H])c(OC([H])([H])C([H])([H])OC([H])([H])C([H])([H])OC([H])([H])C([H])(N([H])C(=O)C([H])(N([H])C(=O)N3C([H])([H])C([H])([H])C([H])([H])C([H])(n4nc(-c5c([H])c([H])c(Oc6c([H])c([H])c(F)c([H])c6F)c([H])c5[H])c(C(=O)N([H])[H])c4N([H])[H])C3([H])[H])C([H])([H])[H])C([H])([H])[H])c([H])c([H])c2C1([H])[H]

$$$$
51:0:0
     RDKit          3D

101108  0  0  1  0  0  0  0  0999 V2000
  -26.6150  -18.8480   25.5600 C   0  0  0  0  0  2  0  0  0  0  0  0
  -27.9410  -18.3240   25.6400 O   0  0  0  0  0  0  0  0  0  0  0  0
  -28.8200  -19.0240   26.5170 C   0  0  0  0  0  2  0  0  0  0  0  0
  -29.9370  -19.7130   25.7210 C   0  0  0  0  0  2  0  0  0  0  0  0
  -29.4620  -20.9740   25.2740 O   0  0  0  0  0  0  0  0  0  0  0  0
  -30.4080  -21.6780   24.4840 C   0  0  0  0  0  2  0  0  0  0  0  0
  -29.8480  -23.0710   24.1780 C   0  0  0  0  0  2  0  0  0  0  0  0
  -30.5010  -23.6130   23.0410 O   0  0  0  0  0  0  0  0  0  0  0  0
  -29.8250  -24.7500   22.5200 C   0  0  0  0  0  2  0  0  0  0  0  0
  -30.6460  -25.3660   21.3750 C   0  0  0  0  0  2  0  0  0  0  0  0
  -30.4170  -26.7670   21.2680 O   0  0  0  0  0  0  0  0  0  0  0  0
  -25.3790  -31.3170   23.2980 C   0  0  0  0  0  0  0  0  0  0  0  0
  -29.1410  -27.2260   21.0250 C   0  0  0  0  0  0  0  0  0  0  0  0
  -24.6940  -29.6790   21.5750 C   0  0  0  0  0  3  0  0  0  0  0  0
  -26.5820  -28.3160   20.5330 C   0  0  0  0  0  0  0  0  0  0  0  0
  -27.1340  -30.4170   21.7780 C   0  0  0  0  0  2  0  0  0  0  0  0
  -27.5260  -29.0490   21.2630 C   0  0  0  0  0  0  0  0  0  0  0  0
  -28.8060  -28.5100   21.5030 C   0  0  0  0  0  3  0  0  0  0  0  0
  -28.1730  -26.4900   20.3020 C   0  0  0  0  0  3  0  0  0  0  0  0
  -26.8980  -27.0320   20.0560 C   0  0  0  0  0  3  0  0  0  0  0  0
  -25.2390  -28.9740   20.3020 C   0  0  0  0  0  2  0  0  0  0  0  0
  -25.7410  -30.4910   22.2760 N   0  0  0  0  0  0  0  0  0  0  0  0
  -24.1910  -31.4450   23.6280 O   0  0  0  0  0  0  0  0  0  0  0  0
  -24.0360  -28.6140   22.4790 C   0  0  0  0  0  0  0  0  0  0  0  0
  -22.7680  -28.2840   22.1870 N   0  0  0  0  0  0  0  0  0  0  0  0
  -24.6700  -28.0840   23.3950 O   0  0  0  0  0  0  0  0  0  0  0  0
  -22.3170  -28.7710   21.4260 H   0  0  0  0  0  0  0  0  0  0  0  0
  -19.4680  -26.8270   22.3510 C   0  0  0  0  0  0  0  0  0  0  0  0
  -21.9580  -27.2800   22.8750 C   0  0  0  0  0  3  0  0  0  0  0  0
  -22.2290  -25.8660   22.3100 C   0  0  0  0  0  2  0  0  0  0  0  0
  -21.2600  -25.4660   21.1930 C   0  0  0  0  0  2  0  0  0  0  0  0
  -19.8150  -25.4980   21.6990 C   0  0  0  0  0  2  0  0  0  0  0  0
  -20.4760  -27.6710   22.8880 C   0  0  0  0  0  0  0  0  0  0  0  0
  -20.1030  -28.9110   23.4500 C   0  0  0  0  0  3  0  0  0  0  0  0
  -18.7540  -29.3090   23.4860 C   0  0  0  0  0  3  0  0  0  0  0  0
  -17.7580  -28.4620   22.9700 C   0  0  0  0  0  3  0  0  0  0  0  0
  -18.1150  -27.2240   22.4070 C   0  0  0  0  0  3  0  0  0  0  0  0
  -26.4320  -32.1600   24.0840 C   0  0  0  0  0  3  0  0  0  0  0  0
  -25.8570  -33.4920   24.3030 N   0  0  0  0  0  0  0  0  0  0  0  0
  -26.1260  -34.5700   23.5540 C   0  0  0  0  0  0  0  0  0  0  0  0
  -26.9530  -34.5590   22.6360 O   0  0  0  0  0  0  0  0  0  0  0  0
  -25.1280  -33.5610   24.9990 H   0  0  0  0  0  0  0  0  0  0  0  0
  -24.1970  -36.0330   22.8790 C   0  0  0  0  0  1  0  0  0  0  0  0
  -25.3570  -35.8650   23.8730 C   0  0  0  0  0  3  0  0  0  0  0  0
  -27.1790  -37.1160   24.9440 C   0  0  0  0  0  1  0  0  0  0  0  0
  -26.2080  -37.0760   23.8540 N   0  0  0  0  0  0  0  0  0  0  0  0
  -25.6380  -37.9160   23.9050 H   0  0  0  0  0  0  0  0  0  0  0  0
  -26.8580  -31.5040   25.4540 C   0  0  1  0  0  0  0  0  0  0  0  0
  -25.6630  -31.0970   26.3470 C   0  0  0  0  0  1  0  0  0  0  0  0
  -27.7160  -30.2410   25.2070 C   0  0  0  0  0  1  0  0  0  0  0  0
  -27.7370  -32.4890   26.2590 C   0  0  0  0  0  1  0  0  0  0  0  0
  -26.4990  -19.8050   24.3670 C   0  0  0  0  0  2  0  0  0  0  0  0
  -26.9520  -19.1320   23.1300 N   0  0  0  0  0  4  0  0  0  0  0  0
  -27.8930  -18.7930   23.2880 H   0  0  0  0  0  0  0  0  0  0  0  0
  -26.3760  -18.3230   22.9530 H   0  0  0  0  0  0  0  0  0  0  0  0
  -26.9910  -19.9830   21.9220 C   0  0  0  0  0  2  0  0  0  0  0  0
  -27.2300  -19.1150   20.6830 C   0  0  0  0  0  2  0  0  0  0  0  0
  -28.5630  -18.6310   20.7820 O   0  0  0  0  0  0  0  0  0  0  0  0
  -28.9920  -17.9580   19.6060 C   0  0  0  0  0  2  0  0  0  0  0  0
  -30.4620  -17.5640   19.7790 C   0  0  0  0  0  2  0  0  0  0  0  0
  -30.5540  -16.4410   20.6480 O   0  0  0  0  0  0  0  0  0  0  0  0
  -31.8910  -15.9750   20.7740 C   0  0  0  0  0  2  0  0  0  0  0  0
  -31.9210  -14.7320   21.6770 C   0  0  0  0  0  2  0  0  0  0  0  0
  -31.3820  -12.9020   20.0750 C   0  0  0  0  0  0  0  0  0  0  0  0
  -30.6130  -11.0730   18.6100 C   0  0  0  0  0  2  0  0  0  0  0  0
  -29.6610  -11.5960   17.5180 C   0  0  0  0  0  2  0  0  0  0  0  0
  -28.2110  -11.6500   18.0320 C   0  0  0  0  0  2  0  0  0  0  0  0
  -28.0930  -12.3630   19.4070 C   0  0  0  0  0  3  0  0  0  0  0  0
  -29.1350  -11.8030   20.3990 C   0  0  0  0  0  2  0  0  0  0  0  0
  -30.4730  -11.9360   19.7920 N   0  0  0  0  0  0  0  0  0  0  0  0
  -32.4120  -13.0850   19.4210 O   0  0  0  0  0  0  0  0  0  0  0  0
  -31.0980  -13.6480   21.1470 N   0  0  0  0  0  0  0  0  0  0  0  0
  -30.2340  -13.4470   21.6270 H   0  0  0  0  0  0  0  0  0  0  0  0
  -25.7950  -13.2690   20.1330 C   0  0  0  0  0  0  0  0  0  0  0  0
  -24.6670  -12.6400   20.5890 C   0  0  0  0  0  0  0  0  0  0  0  0
  -24.9850  -11.2480   20.6420 C   0  0  0  0  0  0  0  0  0  0  0  0
  -26.7360  -12.2690   19.9390 N   0  0  0  0  0  0  0  0  0  0  0  0
  -26.2520  -11.0520   20.2990 N   0  0  0  0  0  0  0  0  0  0  0  0
  -24.1420  -10.0850   20.9460 C   0  0  0  0  0  0  0  0  0  0  0  0
  -24.5200   -9.1320   21.9160 C   0  0  0  0  0  3  0  0  0  0  0  0
  -23.6840   -8.0320   22.2040 C   0  0  0  0  0  3  0  0  0  0  0  0
  -22.4530   -7.8780   21.5210 C   0  0  0  0  0  0  0  0  0  0  0  0
  -22.0930   -8.8180   20.5390 C   0  0  0  0  0  3  0  0  0  0  0  0
  -22.9280   -9.9100   20.2510 C   0  0  0  0  0  3  0  0  0  0  0  0
  -21.5900   -6.8280   21.7140 O   0  0  0  0  0  0  0  0  0  0  0  0
  -21.5230   -6.1630   22.9120 C   0  0  0  0  0  0  0  0  0  0  0  0
  -21.2510   -6.8340   24.1240 C   0  0  0  0  0  3  0  0  0  0  0  0
  -21.1240   -6.1010   25.3210 C   0  0  0  0  0  3  0  0  0  0  0  0
  -21.2580   -4.7010   25.3080 C   0  0  0  0  0  0  0  0  0  0  0  0
  -21.5230   -4.0300   24.1020 C   0  0  0  0  0  3  0  0  0  0  0  0
  -21.6520   -4.7590   22.9060 C   0  0  0  0  0  0  0  0  0  0  0  0
  -21.8870   -4.1050   21.7430 F   0  0  0  0  0  0  0  0  0  0  0  0
  -21.1270   -3.9950   26.4560 F   0  0  0  0  0  0  0  0  0  0  0  0
  -23.3370  -13.2800   20.8690 C   0  0  0  0  0  0  0  0  0  0  0  0
  -22.5900  -12.7430   21.8270 N   0  0  0  0  0  0  0  0  0  0  0  0
  -22.9750  -14.2920   20.2710 O   0  0  0  0  0  0  0  0  0  0  0  0
  -22.8950  -11.9240   22.3310 H   0  0  0  0  0  0  0  0  0  0  0  0
  -21.6980  -13.1570   22.0580 H   0  0  0  0  0  0  0  0  0  0  0  0
  -26.0920  -14.5990   19.8520 N   0  0  0  0  0  0  0  0  0  0  0  0
  -25.3880  -15.3260   19.8970 H   0  0  0  0  0  0  0  0  0  0  0  0
  -26.9750  -14.9140   19.4690 H   0  0  0  0  0  0  0  0  0  0  0  0
  1  2  1  0
  2  3  1  0
  4  3  1  0
  5  4  1  0
  6  5  1  0
  7  6  1  0
  8  7  1  0
  9  8  1  0
 10  9  1  0
 11 10  1  0
 12 23  2  0
 13 11  1  0
 13 18  1  0
 14 22  1  0
 14 24  1  0
 15 17  1  0
 16 22  1  0
 17 18  2  0
 17 16  1  0
 19 13  2  0
 20 19  1  0
 20 15  2  0
 21 15  1  0
 21 14  1  0
 22 12  1  0
 24 26  2  0
 25 24  1  0
 27 25  1  0
 28 37  2  0
 28 33  1  0
 29 25  1  0
 29 33  1  0
 30 29  1  0
 31 32  1  0
 31 30  1  0
 32 28  1  0
 33 34  2  0
 34 35  1  0
 36 35  2  0
 37 36  1  0
 38 12  1  0
 38 39  1  0
 38 48  1  0
 39 42  1  0
 40 44  1  0
 40 39  1  0
 41 40  2  0
 44 43  1  0
 46 44  1  0
 46 47  1  0
 46 45  1  0
 48 51  1  1
 48 49  1  0
 50 48  1  0
 52  1  1  0
 53 54  1  0
 53 52  1  0
 55 53  1  0
 56 53  1  0
 57 58  1  0
 57 56  1  0
 59 60  1  0
 59 58  1  0
 60 61  1  0
 61 62  1  0
 62 63  1  0
 64 72  1  0
 65 70  1  0
 66 67  1  0
 66 65  1  0
 68 67  1  0
 68 77  1  0
 68 69  1  0
 70 64  1  0
 70 69  1  0
 71 64  2  0
 72 73  1  0
 72 63  1  0
 74 75  2  0
 75 76  1  0
 75 94  1  0
 76 79  1  0
 77 74  1  0
 77 78  1  0
 78 76  2  0
 79 80  1  0
 80 81  2  0
 82 85  1  0
 82 81  1  0
 83 82  2  0
 84 83  1  0
 84 79  2  0
 85 86  1  0
 86 87  1  0
 87 88  2  0
 89 88  1  0
 89 93  1  0
 90 89  2  0
 91 86  2  0
 91 90  1  0
 92 91  1  0
 94 95  1  0
 95 98  1  0
 95 97  1  0
 96 94  2  0
 99100  1  0
 99 74  1  0
101 99  1  0
M  ISO  4  10 101  11 101  64 100  72 100
M  END
>  <TORSDO>  (49) 
F 35

>  <SCORE>  (49) 
22.214

>  <name>  (49) 
51

>  <ligand_id>  (49) 
51

>  <original_smiles>  (49) 
[H]c1c([H])c([H])c2c(c1[H])C([H])([H])C([H])([H])C([H])([H])C2([H])N([H])C(=O)C1([H])N(C(=O)C([H])(N([H])C(=O)C([H])(N([H])C([H])([H])[H])C([H])([H])[H])C(C([H])([H])[H])(C([H])([H])[H])C([H])([H])[H])C([H])([H])c2c([H])c(OC([H])([H])C([H])([H])OC([H])([H])C([H])([H])OC([H])([H])C([H])([H])OC([H])([H])C([H])([H])[N+]([H])([H])C([H])([H])C([H])([H])OC([H])([H])C([H])([H])OC([H])([H])C([H])([H])N([H])C(=O)N3C([H])([H])C([H])([H])C([H])([H])C([H])(n4nc(-c5c([H])c([H])c(Oc6c([H])c([H])c(F)c([H])c6F)c([H])c5[H])c(C(=O)N([H])[H])c4N([H])[H])C3([H])[H])c([H])c([H])c2C1([H])[H]

>  <smiles>  (49) 
[H]c1c([H])c([H])c2c(c1[H])C([H])([H])C([H])([H])C([H])([H])C2([H])N([H])C(=O)C1([H])N(C(=O)C([H])(N([H])C(=O)C([H])(N([H])C([H])([H])[H])C([H])([H])[H])C(C([H])([H])[H])(C([H])([H])[H])C([H])([H])[H])C([H])([H])c2c([H])c(OC([H])([H])C([H])([H])OC([H])([H])C([H])([H])OC([H])([H])C([H])([H])OC([H])([H])C([H])([H])[N+]([H])([H])C([H])([H])C([H])([H])OC([H])([H])C([H])([H])OC([H])([H])C([H])([H])N([H])C(=O)N3C([H])([H])C([H])([H])C([H])([H])C([H])(n4nc(-c5c([H])c([H])c(Oc6c([H])c([H])c(F)c([H])c6F)c([H])c5[H])c(C(=O)N([H])[H])c4N([H])[H])C3([H])[H])c([H])c([H])c2C1([H])[H]

$$$$
52:0:0
     RDKit          3D

114123  0  0  1  0  0  0  0  0999 V2000
  -28.1210  -19.4640   17.8470 C   0  0  0  0  0  1  0  0  0  0  0  0
  -28.3310  -19.8230   19.3500 C   0  0  1  0  0  0  0  0  0  0  0  0
  -27.0970  -20.6050   19.8860 C   0  0  0  0  0  0  0  0  0  0  0  0
  -26.7610  -21.7580   19.2870 N   0  0  0  0  0  0  0  0  0  0  0  0
  -26.3420  -20.0460   20.6850 O   0  0  0  0  0  0  0  0  0  0  0  0
  -27.4740  -22.1780   18.7030 H   0  0  0  0  0  0  0  0  0  0  0  0
  -25.4290  -22.0960   18.7700 C   0  0  0  0  0  3  0  0  0  0  0  0
  -25.6090  -22.1420   17.2280 C   0  0  0  0  0  0  0  0  0  0  0  0
  -24.6010  -21.8070   16.4310 N   0  0  0  0  0  0  0  0  0  0  0  0
  -26.6870  -22.4710   16.7300 O   0  0  0  0  0  0  0  0  0  0  0  0
  -23.6910  -21.5800   16.8060 H   0  0  0  0  0  0  0  0  0  0  0  0
  -24.7260  -21.8330   15.4280 H   0  0  0  0  0  0  0  0  0  0  0  0
  -25.0370  -23.4730   20.9500 C   0  0  0  0  0  1  0  0  0  0  0  0
  -25.2390  -24.6730   18.7700 C   0  0  0  0  0  1  0  0  0  0  0  0
  -23.2260  -23.2910   19.2710 C   0  0  0  0  0  1  0  0  0  0  0  0
  -24.7620  -23.3640   19.4320 C   0  0  1  0  0  0  0  0  0  0  0  0
  -27.8460  -17.2380   19.9000 C   0  0  0  0  0  0  0  0  0  0  0  0
  -28.2980  -18.5320   20.1840 N   0  0  0  0  0  0  0  0  0  0  0  0
  -27.7860  -16.8490   18.7360 O   0  0  0  0  0  0  0  0  0  0  0  0
  -28.4990  -18.7180   21.1560 H   0  0  0  0  0  0  0  0  0  0  0  0
  -27.6890  -16.0640   21.0000 C   0  0  0  0  0  3  0  0  0  0  0  0
  -30.2170  -15.8810   20.7250 C   0  0  0  0  0  0  0  0  0  0  0  0
  -28.9970  -15.3790   21.0470 N   0  0  0  0  0  0  0  0  0  0  0  0
  -30.5100  -17.0660   20.8830 O   0  0  0  0  0  0  0  0  0  0  0  0
  -28.9170  -14.3860   21.1650 H   0  0  0  0  0  0  0  0  0  0  0  0
  -32.6880  -15.2690   20.3970 C   0  0  0  0  0  1  0  0  0  0  0  0
  -31.2380  -14.9490   20.0350 C   0  0  0  0  0  3  0  0  0  0  0  0
  -31.4040  -12.4380   19.8920 C   0  0  0  0  0  0  0  0  0  0  0  0
  -31.1040   -9.9800   20.1430 C   0  0  0  0  0  2  0  0  0  0  0  0
  -30.2810   -9.3670   18.9840 C   0  0  0  0  0  2  0  0  0  0  0  0
  -28.7790   -9.5750   19.1700 C   0  0  0  0  0  2  0  0  0  0  0  0
  -28.5360  -11.0470   19.4680 C   0  0  0  0  0  3  0  0  0  0  0  0
  -29.3120  -11.4660   20.7240 C   0  0  0  0  0  2  0  0  0  0  0  0
  -30.7090  -11.3760   20.3600 N   0  0  0  0  0  0  0  0  0  0  0  0
  -32.3740  -12.3550   19.1540 O   0  0  0  0  0  0  0  0  0  0  0  0
  -30.9730  -13.5810   20.4380 N   0  0  0  0  0  0  0  0  0  0  0  0
  -30.2540  -13.4660   21.1360 H   0  0  0  0  0  0  0  0  0  0  0  0
  -25.8400  -12.4070   19.4280 C   0  0  0  0  0  0  0  0  0  0  0  0
  -24.4280  -11.8270   20.2340 C   0  0  0  0  0  3  0  0  0  0  0  0
  -24.7820  -10.2470   21.0670 C   0  0  0  0  0  3  0  0  0  0  0  0
  -27.2170  -11.1890   19.7780 N   0  0  0  0  0  0  0  0  0  0  0  0
  -26.4830   -9.8380   20.8150 N   0  0  0  0  0  2  0  0  0  0  0  0
  -23.8900   -9.1620   21.3050 C   0  0  0  0  0  0  0  0  0  0  0  0
  -24.2500   -8.1940   22.2430 C   0  0  0  0  0  3  0  0  0  0  0  0
  -23.3480   -7.1640   22.5350 C   0  0  0  0  0  3  0  0  0  0  0  0
  -22.0900   -7.1200   21.8900 C   0  0  0  0  0  0  0  0  0  0  0  0
  -21.7840   -8.0490   20.8760 C   0  0  0  0  0  3  0  0  0  0  0  0
  -22.6900   -9.0730   20.5770 C   0  0  0  0  0  3  0  0  0  0  0  0
  -21.1480   -6.1680   22.1770 O   0  0  0  0  0  0  0  0  0  0  0  0
  -21.2940   -5.3680   23.2770 C   0  0  0  0  0  0  0  0  0  0  0  0
  -21.2180   -5.8740   24.5970 C   0  0  0  0  0  3  0  0  0  0  0  0
  -21.3110   -4.9940   25.6930 C   0  0  0  0  0  3  0  0  0  0  0  0
  -21.4860   -3.6160   25.4770 C   0  0  0  0  0  0  0  0  0  0  0  0
  -21.5840   -3.1140   24.1640 C   0  0  0  0  0  3  0  0  0  0  0  0
  -21.4850   -3.9870   23.0730 C   0  0  0  0  0  0  0  0  0  0  0  0
  -21.5550   -3.4980   21.8100 F   0  0  0  0  0  0  0  0  0  0  0  0
  -21.5720   -2.7720   26.5310 F   0  0  0  0  0  0  0  0  0  0  0  0
  -23.0840  -12.4090   20.1500 C   0  0  0  0  0  0  0  0  0  0  0  0
  -22.2780  -12.1440   21.1620 N   0  0  0  0  0  0  0  0  0  0  0  0
  -22.8260  -13.1450   19.2090 O   0  0  0  0  0  0  0  0  0  0  0  0
  -22.5800  -11.5640   21.9360 H   0  0  0  0  0  0  0  0  0  0  0  0
  -21.3600  -12.5800   21.2200 H   0  0  0  0  0  0  0  0  0  0  0  0
  -26.0480  -13.4900   18.6470 N   0  0  0  0  0  4  0  0  0  0  0  0
  -25.8900  -13.3110   17.6560 H   0  0  0  0  0  0  0  0  0  0  0  0
  -25.3330  -14.1540   18.8930 H   0  0  0  0  0  0  0  0  0  0  0  0
  -25.8500  -13.5560   20.4180 C   0  0  0  0  0  3  0  0  0  0  0  0
  -26.8610  -14.3340   22.6920 C   0  0  0  0  0  1  0  0  0  0  0  0
  -25.1920  -15.7660   21.6580 C   0  0  0  0  0  1  0  0  0  0  0  0
  -26.4370  -14.9340   21.2860 C   0  0  1  0  0  0  0  0  0  0  0  0
  -29.7140  -20.7000   19.2940 C   0  0  0  0  0  2  0  0  0  0  0  0
  -30.1660  -21.8350   20.1380 O   0  0  0  0  0  0  0  0  0  0  0  0
  -30.0480  -23.2020   19.5380 C   0  0  0  0  0  3  0  0  0  0  0  0
  -30.5180  -24.5180   20.3230 C   0  0  0  0  0  3  0  0  0  0  0  0
  -30.0890  -25.8890   19.8930 O   0  0  0  0  0  0  0  0  0  0  0  0
  -27.8740  -30.7960   24.6250 C   0  0  0  0  0  0  0  0  0  0  0  0
  -29.0210  -26.4230   20.6120 C   0  0  0  0  0  0  0  0  0  0  0  0
  -26.5840  -28.6970   24.4830 C   0  0  0  0  0  3  0  0  0  0  0  0
  -26.9900  -27.2620   22.4110 C   0  0  0  0  0  0  0  0  0  0  0  0
  -27.7540  -29.6380   22.4030 C   0  0  0  0  0  2  0  0  0  0  0  0
  -27.8900  -28.2060   21.9000 C   0  0  0  0  0  0  0  0  0  0  0  0
  -28.9010  -27.7950   20.9810 C   0  0  0  0  0  3  0  0  0  0  0  0
  -28.0470  -25.5260   21.0860 C   0  0  0  0  0  3  0  0  0  0  0  0
  -27.0480  -25.9270   21.9860 C   0  0  0  0  0  3  0  0  0  0  0  0
  -25.9790  -27.7340   23.4290 C   0  0  0  0  0  2  0  0  0  0  0  0
  -27.4470  -29.7520   23.8590 N   0  0  0  0  0  0  0  0  0  0  0  0
  -27.5350  -30.9040   25.8150 O   0  0  0  0  0  0  0  0  0  0  0  0
  -27.3190  -27.8650   25.5630 C   0  0  0  0  0  0  0  0  0  0  0  0
  -26.7670  -27.8500   26.7880 N   0  0  0  0  0  0  0  0  0  0  0  0
  -28.3420  -27.2360   25.2850 O   0  0  0  0  0  0  0  0  0  0  0  0
  -25.9310  -28.3960   26.9330 H   0  0  0  0  0  0  0  0  0  0  0  0
  -26.8020  -27.7610   30.4060 C   0  0  0  0  0  0  0  0  0  0  0  0
  -27.2640  -27.1060   27.9480 C   0  0  0  0  0  3  0  0  0  0  0  0
  -26.3900  -25.8600   28.2260 C   0  0  0  0  0  2  0  0  0  0  0  0
  -25.2720  -26.1180   29.2400 C   0  0  0  0  0  2  0  0  0  0  0  0
  -25.8560  -26.5850   30.5760 C   0  0  0  0  0  2  0  0  0  0  0  0
  -27.4510  -28.0170   29.1690 C   0  0  0  0  0  0  0  0  0  0  0  0
  -28.2950  -29.1430   29.0590 C   0  0  0  0  0  3  0  0  0  0  0  0
  -28.4960  -30.0020   30.1560 C   0  0  0  0  0  3  0  0  0  0  0  0
  -27.8620  -29.7370   31.3810 C   0  0  0  0  0  3  0  0  0  0  0  0
  -27.0210  -28.6170   31.5060 C   0  0  0  0  0  3  0  0  0  0  0  0
  -28.7860  -31.9190   24.0420 C   0  0  0  0  0  3  0  0  0  0  0  0
  -30.3190  -31.6840   24.3360 C   0  0  1  0  0  0  0  0  0  0  0  0
  -30.6290  -31.3450   25.8140 C   0  0  0  0  0  1  0  0  0  0  0  0
  -30.8630  -30.5310   23.4650 C   0  0  0  0  0  1  0  0  0  0  0  0
  -31.1240  -32.9440   23.9450 C   0  0  0  0  0  1  0  0  0  0  0  0
  -28.3410  -33.1980   24.6180 N   0  0  0  0  0  0  0  0  0  0  0  0
  -27.6570  -34.1350   23.9500 C   0  0  0  0  0  0  0  0  0  0  0  0
  -27.3940  -34.0410   22.7470 O   0  0  0  0  0  0  0  0  0  0  0  0
  -28.4790  -33.3150   25.6120 H   0  0  0  0  0  0  0  0  0  0  0  0
  -25.6660  -35.3360   24.9080 C   0  0  0  0  0  1  0  0  0  0  0  0
  -27.1930  -35.3790   24.7370 C   0  0  0  0  0  3  0  0  0  0  0  0
  -29.0270  -36.9110   24.1700 C   0  0  0  0  0  1  0  0  0  0  0  0
  -27.5900  -36.6580   24.1040 N   0  0  0  0  0  0  0  0  0  0  0  0
  -27.1090  -37.4400   24.5410 H   0  0  0  0  0  0  0  0  0  0  0  0
  2  1  1  6
  2  3  1  0
  2 18  1  0
  3  5  2  0
  4  3  1  0
  6  4  1  0
  7  8  1  0
  7  4  1  0
  7 16  1  0
  9 11  1  0
  9  8  1  0
 10  8  2  0
 12  9  1  0
 16 14  1  6
 15 16  1  0
 16 13  1  0
 17 18  1  0
 18 20  1  0
 19 17  2  0
 21 17  1  0
 21 23  1  0
 21 69  1  0
 22 24  2  0
 22 23  1  0
 23 25  1  0
 27 26  1  0
 27 36  1  0
 27 22  1  0
 28 34  1  0
 28 36  1  0
 29 34  1  0
 30 31  1  0
 30 29  1  0
 32 31  1  0
 32 41  1  0
 32 33  1  0
 34 33  1  0
 35 28  2  0
 36 37  1  0
 38 63  1  0
 38 41  1  0
 38 39  1  0
 38 66  1  0
 39 58  1  0
 39 40  1  0
 40 43  1  0
 41 42  1  0
 42 40  1  0
 43 44  1  0
 44 45  2  0
 46 49  1  0
 46 45  1  0
 47 46  2  0
 48 47  1  0
 48 43  2  0
 49 50  1  0
 50 51  1  0
 51 52  2  0
 53 52  1  0
 53 57  1  0
 54 53  2  0
 55 50  2  0
 55 54  1  0
 56 55  1  0
 58 59  1  0
 59 62  1  0
 59 61  1  0
 60 58  2  0
 63 65  1  0
 63 66  1  0
 64 63  1  0
 66 69  1  0
 69 68  1  1
 69 67  1  0
 70  2  1  0
 70 71  1  0
 72 71  1  0
 72 73  2  0
 74 73  1  0
 74 76  1  0
 75 86  2  0
 76 81  2  0
 76 82  1  0
 77 87  1  0
 78 84  1  0
 79 85  1  0
 80 79  1  0
 80 78  2  0
 81 80  1  0
 82 83  2  0
 83 78  1  0
 84 77  1  0
 85 77  1  0
 85 75  1  0
 87 88  1  0
 88 90  1  0
 89 87  2  0
 91 95  1  0
 91100  1  0
 92 88  1  0
 92 93  1  0
 92 96  1  0
 93 94  1  0
 94 95  1  0
 96 91  2  0
 97 96  1  0
 97 98  2  0
 98 99  1  0
 99100  2  0
101102  1  0
101106  1  0
101 75  1  0
102103  1  1
104102  1  0
105102  1  0
106109  1  0
107106  1  0
107111  1  0
108107  2  0
111110  1  0
113112  1  0
113114  1  0
113111  1  0
M  ISO  4  28 100  36 100  73 101  74 101
M  END
>  <TORSDO>  (50) 
F 29

>  <SCORE>  (50) 
1.283

>  <name>  (50) 
52

>  <ligand_id>  (50) 
52

>  <original_smiles>  (50) 
[H]c1c([H])c([H])c2c(c1[H])C([H])([H])C([H])([H])C([H])([H])C2([H])N([H])C(=O)C1([H])N(C(=O)C([H])(N([H])C(=O)C([H])(N([H])C([H])([H])[H])C([H])([H])[H])C(C([H])([H])[H])(C([H])([H])[H])C([H])([H])[H])C([H])([H])c2c([H])c(OC([H])([H])C([H])([H])OC([H])([H])C(C(=O)N([H])C([H])(C(=O)N([H])[H])C(C([H])([H])[H])(C([H])([H])[H])C([H])([H])[H])(N([H])C(=O)C([H])(N([H])C(=O)C([H])(N([H])C(=O)N3C([H])([H])C([H])([H])C([H])([H])C([H])(n4nc(-c5c([H])c([H])c(Oc6c([H])c([H])c(F)c([H])c6F)c([H])c5[H])c(C(=O)N([H])[H])c4N([H])[H])C3([H])[H])C([H])([H])[H])C(C([H])([H])[H])(C([H])([H])[H])C([H])([H])[H])C([H])([H])[H])c([H])c([H])c2C1([H])[H]

>  <smiles>  (50) 
[H]c1c([H])c([H])c2c(c1[H])C([H])([H])C([H])([H])C([H])([H])C2([H])N([H])C(=O)C1([H])N(C(=O)C([H])(N([H])C(=O)C([H])(N([H])C([H])([H])[H])C([H])([H])[H])C(C([H])([H])[H])(C([H])([H])[H])C([H])([H])[H])C([H])([H])c2c([H])c(OC([H])([H])C([H])([H])OC([H])([H])C(C(=O)N([H])C([H])(C(=O)N([H])[H])C(C([H])([H])[H])(C([H])([H])[H])C([H])([H])[H])(N([H])C(=O)C([H])(N([H])C(=O)C([H])(N([H])C(=O)N3C([H])([H])C([H])([H])C([H])([H])C([H])(n4nc(-c5c([H])c([H])c(Oc6c([H])c([H])c(F)c([H])c6F)c([H])c5[H])c(C(=O)N([H])[H])c4N([H])[H])C3([H])[H])C([H])([H])[H])C(C([H])([H])[H])(C([H])([H])[H])C([H])([H])[H])C([H])([H])[H])c([H])c([H])c2C1([H])[H]

$$$$
54:0:0
     RDKit          3D

105112  0  0  1  0  0  0  0  0999 V2000
  -27.4970  -20.7150   20.4980 C   0  0  0  0  0  0  0  0  0  0  0  0
  -28.5970  -21.0850   21.1610 N   0  0  0  0  0  0  0  0  0  0  0  0
  -27.2260  -19.5520   20.1960 O   0  0  0  0  0  0  0  0  0  0  0  0
  -28.6800  -22.0650   21.3880 H   0  0  0  0  0  0  0  0  0  0  0  0
  -25.5600  -21.8440   19.4950 C   0  0  0  0  0  3  0  0  0  0  0  0
  -26.6940  -21.8800   20.2210 C   0  0  0  0  0  3  0  0  0  0  0  0
  -24.8180  -23.0810   19.3690 C   0  0  0  0  0  0  0  0  0  0  0  0
  -24.4790  -23.5450   20.5780 N   0  0  0  0  0  0  0  0  0  0  0  0
  -24.5990  -23.6860   18.3200 O   0  0  0  0  0  0  0  0  0  0  0  0
  -24.6440  -22.9030   21.3400 H   0  0  0  0  0  0  0  0  0  0  0  0
  -24.3440  -24.9460   20.9590 C   0  0  0  0  0  2  0  0  0  0  0  0
  -25.5280  -25.3230   21.8680 C   0  0  0  0  0  2  0  0  0  0  0  0
  -26.7410  -25.1040   21.1580 O   0  0  0  0  0  0  0  0  0  0  0  0
  -27.9330  -25.3550   21.8970 C   0  0  0  0  0  2  0  0  0  0  0  0
  -29.0540  -25.7720   20.9050 C   0  0  0  0  0  2  0  0  0  0  0  0
  -29.1520  -27.1890   20.6850 O   0  0  0  0  0  0  0  0  0  0  0  0
  -24.8150  -31.9760   23.5590 C   0  0  0  0  0  0  0  0  0  0  0  0
  -27.9710  -27.8710   20.5300 C   0  0  0  0  0  0  0  0  0  0  0  0
  -23.8460  -30.6030   21.7430 C   0  0  0  0  0  3  0  0  0  0  0  0
  -25.5070  -29.2270   20.3900 C   0  0  0  0  0  0  0  0  0  0  0  0
  -26.3550  -31.1130   21.8000 C   0  0  0  0  0  2  0  0  0  0  0  0
  -26.5750  -29.7870   21.1030 C   0  0  0  0  0  0  0  0  0  0  0  0
  -27.8130  -29.1180   21.1700 C   0  0  0  0  0  3  0  0  0  0  0  0
  -26.8980  -27.3350   19.7860 C   0  0  0  0  0  3  0  0  0  0  0  0
  -25.6590  -27.9960   19.7320 C   0  0  0  0  0  3  0  0  0  0  0  0
  -24.2180  -30.0110   20.3590 C   0  0  0  0  0  2  0  0  0  0  0  0
  -25.0180  -31.2430   22.4270 N   0  0  0  0  0  0  0  0  0  0  0  0
  -23.6740  -32.1630   24.0040 O   0  0  0  0  0  0  0  0  0  0  0  0
  -23.1710  -29.4960   22.5910 C   0  0  0  0  0  0  0  0  0  0  0  0
  -21.8600  -29.3050   22.3790 N   0  0  0  0  0  0  0  0  0  0  0  0
  -23.8280  -28.8140   23.3810 O   0  0  0  0  0  0  0  0  0  0  0  0
  -21.3950  -29.9030   21.7100 H   0  0  0  0  0  0  0  0  0  0  0  0
  -18.4650  -28.1090   22.7040 C   0  0  0  0  0  0  0  0  0  0  0  0
  -21.0210  -28.3010   23.0330 C   0  0  0  0  0  3  0  0  0  0  0  0
  -21.1150  -26.9370   22.3120 C   0  0  0  0  0  2  0  0  0  0  0  0
  -20.0240  -26.7380   21.2550 C   0  0  0  0  0  2  0  0  0  0  0  0
  -18.6360  -26.8310   21.8980 C   0  0  0  0  0  2  0  0  0  0  0  0
  -19.5860  -28.8040   23.2260 C   0  0  0  0  0  0  0  0  0  0  0  0
  -19.3770  -29.9980   23.9490 C   0  0  0  0  0  3  0  0  0  0  0  0
  -18.0780  -30.4960   24.1560 C   0  0  0  0  0  3  0  0  0  0  0  0
  -16.9690  -29.7970   23.6510 C   0  0  0  0  0  3  0  0  0  0  0  0
  -17.1620  -28.6050   22.9340 C   0  0  0  0  0  3  0  0  0  0  0  0
  -26.0010  -32.6380   24.3310 C   0  0  0  0  0  3  0  0  0  0  0  0
  -26.3320  -31.9240   25.6980 C   0  0  1  0  0  0  0  0  0  0  0  0
  -25.0950  -31.7180   26.6030 C   0  0  0  0  0  1  0  0  0  0  0  0
  -26.9740  -30.5380   25.4490 C   0  0  0  0  0  1  0  0  0  0  0  0
  -27.3710  -32.7520   26.4860 C   0  0  0  0  0  1  0  0  0  0  0  0
  -25.6550  -34.0490   24.5490 N   0  0  0  0  0  0  0  0  0  0  0  0
  -26.0770  -35.0620   23.7810 C   0  0  0  0  0  0  0  0  0  0  0  0
  -26.8720  -34.9090   22.8490 O   0  0  0  0  0  0  0  0  0  0  0  0
  -24.9640  -34.2430   25.2590 H   0  0  0  0  0  0  0  0  0  0  0  0
  -24.3970  -36.8140   23.1310 C   0  0  0  0  0  1  0  0  0  0  0  0
  -25.5370  -36.4680   24.1010 C   0  0  0  0  0  3  0  0  0  0  0  0
  -27.5640  -37.4110   25.1150 C   0  0  0  0  0  1  0  0  0  0  0  0
  -26.5740  -37.5230   24.0470 N   0  0  0  0  0  0  0  0  0  0  0  0
  -26.1510  -38.4460   24.1030 H   0  0  0  0  0  0  0  0  0  0  0  0
  -29.7410  -20.2570   21.5160 C   0  0  0  0  0  2  0  0  0  0  0  0
  -31.0200  -20.8070   20.8740 C   0  0  0  0  0  2  0  0  0  0  0  0
  -30.8580  -20.7390   19.4680 O   0  0  0  0  0  0  0  0  0  0  0  0
  -31.9840  -21.1650   18.7140 C   0  0  0  0  0  2  0  0  0  0  0  0
  -32.1570  -20.1950   17.5340 C   0  0  0  0  0  2  0  0  0  0  0  0
  -31.0140  -20.2350   16.6840 O   0  0  0  0  0  0  0  0  0  0  0  0
  -30.3870  -18.9730   16.4810 C   0  0  0  0  0  2  0  0  0  0  0  0
  -29.4940  -18.5640   17.6690 C   0  0  0  0  0  2  0  0  0  0  0  0
  -30.2820  -18.1390   18.7790 O   0  0  0  0  0  0  0  0  0  0  0  0
  -29.9180  -16.8740   19.3000 C   0  0  0  0  0  2  0  0  0  0  0  0
  -30.7060  -16.5900   20.5940 C   0  0  0  0  0  2  0  0  0  0  0  0
  -31.1800  -14.2120   20.3850 C   0  0  0  0  0  0  0  0  0  0  0  0
  -30.7150  -12.1750   19.1100 C   0  0  0  0  0  2  0  0  0  0  0  0
  -29.7940  -12.5570   17.9350 C   0  0  0  0  0  2  0  0  0  0  0  0
  -28.3110  -12.5240   18.3590 C   0  0  0  0  0  2  0  0  0  0  0  0
  -28.0460  -13.2890   19.6840 C   0  0  0  0  0  3  0  0  0  0  0  0
  -29.0750  -12.8850   20.7640 C   0  0  0  0  0  2  0  0  0  0  0  0
  -30.4290  -13.0970   20.2160 N   0  0  0  0  0  0  0  0  0  0  0  0
  -32.2770  -14.3980   19.8550 O   0  0  0  0  0  0  0  0  0  0  0  0
  -30.5280  -15.2040   20.9860 N   0  0  0  0  0  0  0  0  0  0  0  0
  -29.6590  -14.9620   21.4350 H   0  0  0  0  0  0  0  0  0  0  0  0
  -25.6650  -14.0210   20.3480 C   0  0  0  0  0  0  0  0  0  0  0  0
  -24.5600  -13.3050   20.7250 C   0  0  0  0  0  0  0  0  0  0  0  0
  -24.9620  -11.9350   20.7280 C   0  0  0  0  0  0  0  0  0  0  0  0
  -26.6740  -13.0910   20.1500 N   0  0  0  0  0  0  0  0  0  0  0  0
  -26.2500  -11.8310   20.4280 N   0  0  0  0  0  0  0  0  0  0  0  0
  -24.1820  -10.7090   20.9420 C   0  0  0  0  0  0  0  0  0  0  0  0
  -24.5760   -9.7390   21.8900 C   0  0  0  0  0  3  0  0  0  0  0  0
  -23.8010   -8.5760   22.0920 C   0  0  0  0  0  3  0  0  0  0  0  0
  -22.6190   -8.3750   21.3410 C   0  0  0  0  0  0  0  0  0  0  0  0
  -22.2430   -9.3320   20.3790 C   0  0  0  0  0  3  0  0  0  0  0  0
  -23.0200  -10.4840   20.1780 C   0  0  0  0  0  3  0  0  0  0  0  0
  -21.8190   -7.2630   21.4450 O   0  0  0  0  0  0  0  0  0  0  0  0
  -21.7360   -6.5420   22.6100 C   0  0  0  0  0  0  0  0  0  0  0  0
  -21.3420   -7.1360   23.8280 C   0  0  0  0  0  3  0  0  0  0  0  0
  -21.2070   -6.3460   24.9870 C   0  0  0  0  0  3  0  0  0  0  0  0
  -21.4550   -4.9610   24.9270 C   0  0  0  0  0  0  0  0  0  0  0  0
  -21.8450   -4.3670   23.7140 C   0  0  0  0  0  3  0  0  0  0  0  0
  -21.9830   -5.1560   22.5580 C   0  0  0  0  0  0  0  0  0  0  0  0
  -22.3370   -4.5750   21.3870 F   0  0  0  0  0  0  0  0  0  0  0  0
  -21.3170   -4.1990   26.0360 F   0  0  0  0  0  0  0  0  0  0  0  0
  -23.1830  -13.8470   20.9790 C   0  0  0  0  0  0  0  0  0  0  0  0
  -22.4280  -13.2110   21.8690 N   0  0  0  0  0  0  0  0  0  0  0  0
  -22.7850  -14.8710   20.4230 O   0  0  0  0  0  0  0  0  0  0  0  0
  -22.7610  -12.3860   22.3440 H   0  0  0  0  0  0  0  0  0  0  0  0
  -21.5020  -13.5580   22.0810 H   0  0  0  0  0  0  0  0  0  0  0  0
  -25.8870  -15.3810   20.1470 N   0  0  0  0  0  0  0  0  0  0  0  0
  -25.1460  -16.0650   20.2510 H   0  0  0  0  0  0  0  0  0  0  0  0
  -26.7630  -15.7880   19.8490 H   0  0  0  0  0  0  0  0  0  0  0  0
  1  2  1  0
  2  4  1  0
  2 57  1  0
  3  1  2  0
  5  6  2  0
  6  1  1  0
  7  5  1  0
  7  8  1  0
  8 11  1  0
  8 10  1  0
  9  7  2  0
 11 12  1  0
 13 12  1  0
 13 14  1  0
 15 14  1  0
 16 15  1  0
 17 28  2  0
 18 16  1  0
 18 23  1  0
 19 27  1  0
 19 29  1  0
 20 22  1  0
 21 27  1  0
 22 23  2  0
 22 21  1  0
 24 18  2  0
 25 24  1  0
 25 20  2  0
 26 20  1  0
 26 19  1  0
 27 17  1  0
 29 31  2  0
 30 29  1  0
 32 30  1  0
 33 42  2  0
 33 38  1  0
 34 30  1  0
 34 38  1  0
 35 34  1  0
 36 37  1  0
 36 35  1  0
 37 33  1  0
 38 39  2  0
 39 40  1  0
 41 40  2  0
 42 41  1  0
 43 17  1  0
 43 48  1  0
 43 44  1  0
 44 47  1  1
 44 45  1  0
 46 44  1  0
 48 51  1  0
 49 53  1  0
 49 48  1  0
 50 49  2  0
 53 52  1  0
 55 53  1  0
 55 56  1  0
 55 54  1  0
 58 57  1  0
 59 58  1  0
 60 59  1  0
 61 60  1  0
 62 61  1  0
 63 62  1  0
 63 64  1  0
 64 65  1  0
 65 66  1  0
 66 67  1  0
 67 76  1  0
 68 76  1  0
 69 74  1  0
 70 71  1  0
 70 69  1  0
 72 71  1  0
 72 81  1  0
 72 73  1  0
 74 68  1  0
 74 73  1  0
 75 68  2  0
 76 77  1  0
 78 79  2  0
 79 80  1  0
 79 98  1  0
 80 83  1  0
 81 78  1  0
 81 82  1  0
 82 80  2  0
 83 84  1  0
 84 85  2  0
 86 89  1  0
 86 85  1  0
 87 86  2  0
 88 87  1  0
 88 83  2  0
 89 90  1  0
 90 91  1  0
 91 92  2  0
 93 92  1  0
 93 97  1  0
 94 93  2  0
 95 90  2  0
 95 94  1  0
 96 95  1  0
 98 99  1  0
 99102  1  0
 99101  1  0
100 98  2  0
103104  1  0
103 78  1  0
105103  1  0
M  ISO  4  15 101  16 101  68 100  76 100
M  END
>  <TORSDO>  (51) 
F 34

>  <SCORE>  (51) 
-9.027

>  <name>  (51) 
54

>  <ligand_id>  (51) 
54

>  <original_smiles>  (51) 
[H]C(C(=O)N([H])C([H])([H])C([H])([H])OC([H])([H])C([H])([H])Oc1c([H])c([H])c2c(c1[H])C([H])([H])N(C(=O)C([H])(N([H])C(=O)C([H])(N([H])C([H])([H])[H])C([H])([H])[H])C(C([H])([H])[H])(C([H])([H])[H])C([H])([H])[H])C([H])(C(=O)N([H])C1([H])c3c([H])c([H])c([H])c([H])c3C([H])([H])C([H])([H])C1([H])[H])C2([H])[H])=C([H])C(=O)N([H])C([H])([H])C([H])([H])OC([H])([H])C([H])([H])OC([H])([H])C([H])([H])OC([H])([H])C([H])([H])N([H])C(=O)N1C([H])([H])C([H])([H])C([H])([H])C([H])(n2nc(-c3c([H])c([H])c(Oc4c([H])c([H])c(F)c([H])c4F)c([H])c3[H])c(C(=O)N([H])[H])c2N([H])[H])C1([H])[H]

>  <smiles>  (51) 
[H]C(C(=O)N([H])C([H])([H])C([H])([H])OC([H])([H])C([H])([H])Oc1c([H])c([H])c2c(c1[H])C([H])([H])N(C(=O)C([H])(N([H])C(=O)C([H])(N([H])C([H])([H])[H])C([H])([H])[H])C(C([H])([H])[H])(C([H])([H])[H])C([H])([H])[H])C([H])(C(=O)N([H])C1([H])c3c([H])c([H])c([H])c([H])c3C([H])([H])C([H])([H])C1([H])[H])C2([H])[H])=C([H])C(=O)N([H])C([H])([H])C([H])([H])OC([H])([H])C([H])([H])OC([H])([H])C([H])([H])OC([H])([H])C([H])([H])N([H])C(=O)N1C([H])([H])C([H])([H])C([H])([H])C([H])(n2nc(-c3c([H])c([H])c(Oc4c([H])c([H])c(F)c([H])c4F)c([H])c3[H])c(C(=O)N([H])[H])c2N([H])[H])C1([H])[H]

$$$$
55:0:0
     RDKit          3D

102109  0  0  1  0  0  0  0  0999 V2000
  -31.7300  -21.2060   16.7260 C   0  0  0  0  0  2  0  0  0  0  0  0
  -30.3110  -21.2840   16.7700 O   0  0  0  0  0  0  0  0  0  0  0  0
  -29.7130  -20.8910   15.5410 C   0  0  0  0  0  2  0  0  0  0  0  0
  -28.2650  -20.4270   15.7790 C   0  0  0  0  0  2  0  0  0  0  0  0
  -28.1720  -19.0810   16.2460 O   0  0  0  0  0  0  0  0  0  0  0  0
  -28.7200  -18.8630   17.5390 C   0  0  0  0  0  2  0  0  0  0  0  0
  -28.3200  -17.4620   18.0320 C   0  0  0  0  0  2  0  0  0  0  0  0
  -30.2950  -16.7010   19.3190 C   0  0  0  0  0  0  0  0  0  0  0  0
  -29.0190  -17.0970   19.2630 N   0  0  0  0  0  0  0  0  0  0  0  0
  -30.9890  -16.6310   18.3010 O   0  0  0  0  0  0  0  0  0  0  0  0
  -28.5100  -17.1690   20.1350 H   0  0  0  0  0  0  0  0  0  0  0  0
  -30.0940  -16.8890   21.8720 C   0  0  0  0  0  1  0  0  0  0  0  0
  -32.3530  -16.7320   20.8080 C   0  0  0  0  0  1  0  0  0  0  0  0
  -30.8800  -16.2720   20.6930 C   0  0  2  0  0  0  0  0  0  0  0  0
  -31.3350  -13.8350   20.1490 C   0  0  0  0  0  0  0  0  0  0  0  0
  -30.8210  -11.7510   18.9480 C   0  0  0  0  0  2  0  0  0  0  0  0
  -29.8710  -12.0740   17.7760 C   0  0  0  0  0  2  0  0  0  0  0  0
  -28.4000  -12.0860   18.2410 C   0  0  0  0  0  2  0  0  0  0  0  0
  -28.1780  -12.9300   19.5250 C   0  0  0  0  0  3  0  0  0  0  0  0
  -29.2190  -12.5430   20.5980 C   0  0  0  0  0  2  0  0  0  0  0  0
  -30.5640  -12.7260   20.0160 N   0  0  0  0  0  0  0  0  0  0  0  0
  -32.4290  -13.9730   19.5950 O   0  0  0  0  0  0  0  0  0  0  0  0
  -30.7240  -14.8190   20.8220 N   0  0  0  0  0  0  0  0  0  0  0  0
  -29.8510  -14.5240   21.2300 H   0  0  0  0  0  0  0  0  0  0  0  0
  -25.8510  -13.7680   20.2560 C   0  0  0  0  0  0  0  0  0  0  0  0
  -24.7280  -13.1030   20.6640 C   0  0  0  0  0  0  0  0  0  0  0  0
  -25.0670  -11.7130   20.6530 C   0  0  0  0  0  0  0  0  0  0  0  0
  -26.8110  -12.7930   20.0270 N   0  0  0  0  0  0  0  0  0  0  0  0
  -26.3400  -11.5550   20.3180 N   0  0  0  0  0  0  0  0  0  0  0  0
  -24.2390  -10.5240   20.8860 C   0  0  0  0  0  0  0  0  0  0  0  0
  -24.6090   -9.5400   21.8300 C   0  0  0  0  0  3  0  0  0  0  0  0
  -23.7860   -8.4140   22.0510 C   0  0  0  0  0  3  0  0  0  0  0  0
  -22.5820   -8.2630   21.3240 C   0  0  0  0  0  0  0  0  0  0  0  0
  -22.2300   -9.2330   20.3710 C   0  0  0  0  0  3  0  0  0  0  0  0
  -23.0510  -10.3510   20.1500 C   0  0  0  0  0  3  0  0  0  0  0  0
  -21.7370   -7.1870   21.4480 O   0  0  0  0  0  0  0  0  0  0  0  0
  -21.6480   -6.4740   22.6160 C   0  0  0  0  0  0  0  0  0  0  0  0
  -21.3180   -7.0920   23.8420 C   0  0  0  0  0  3  0  0  0  0  0  0
  -21.1680   -6.3120   25.0060 C   0  0  0  0  0  3  0  0  0  0  0  0
  -21.3390   -4.9150   24.9450 C   0  0  0  0  0  0  0  0  0  0  0  0
  -21.6610   -4.2980   23.7250 C   0  0  0  0  0  3  0  0  0  0  0  0
  -21.8140   -5.0750   22.5630 C   0  0  0  0  0  0  0  0  0  0  0  0
  -22.1050   -4.4730   21.3860 F   0  0  0  0  0  0  0  0  0  0  0  0
  -21.1890   -4.1640   26.0610 F   0  0  0  0  0  0  0  0  0  0  0  0
  -23.3840  -13.7080   20.9550 C   0  0  0  0  0  0  0  0  0  0  0  0
  -22.6230  -13.1040   21.8610 N   0  0  0  0  0  0  0  0  0  0  0  0
  -23.0210  -14.7490   20.4110 O   0  0  0  0  0  0  0  0  0  0  0  0
  -22.9300  -12.2620   22.3260 H   0  0  0  0  0  0  0  0  0  0  0  0
  -21.7200  -13.4870   22.0950 H   0  0  0  0  0  0  0  0  0  0  0  0
  -26.1350  -15.1140   20.0420 N   0  0  0  0  0  0  0  0  0  0  0  0
  -25.4190  -15.8280   20.1210 H   0  0  0  0  0  0  0  0  0  0  0  0
  -26.9940  -15.4480   19.6300 H   0  0  0  0  0  0  0  0  0  0  0  0
  -32.2620  -21.5600   18.1160 C   0  0  0  0  0  2  0  0  0  0  0  0
  -31.9690  -22.9660   18.4750 N   0  0  0  0  0  4  0  0  0  0  0  0
  -32.4990  -23.5800   17.8750 H   0  0  0  0  0  0  0  0  0  0  0  0
  -30.9910  -23.1550   18.2990 H   0  0  0  0  0  0  0  0  0  0  0  0
  -32.2530  -23.2920   19.8880 C   0  0  0  0  0  2  0  0  0  0  0  0
  -32.2220  -24.8030   20.1400 C   0  0  0  0  0  2  0  0  0  0  0  0
  -30.9660  -25.3270   19.7190 O   0  0  0  0  0  0  0  0  0  0  0  0
  -30.8240  -26.6950   20.0870 C   0  0  0  0  0  2  0  0  0  0  0  0
  -29.5530  -27.3010   19.4790 C   0  0  0  0  0  2  0  0  0  0  0  0
  -28.4060  -26.6950   20.0690 O   0  0  0  0  0  0  0  0  0  0  0  0
  -24.6180  -31.8680   23.1970 C   0  0  0  0  0  0  0  0  0  0  0  0
  -27.2620  -27.4530   20.1030 C   0  0  0  0  0  0  0  0  0  0  0  0
  -23.4000  -30.4560   21.5680 C   0  0  0  0  0  3  0  0  0  0  0  0
  -24.8480  -28.9140   20.1420 C   0  0  0  0  0  0  0  0  0  0  0  0
  -25.9190  -30.8300   21.3450 C   0  0  0  0  0  2  0  0  0  0  0  0
  -26.0060  -29.4570   20.7150 C   0  0  0  0  0  0  0  0  0  0  0  0
  -27.2140  -28.7320   20.7010 C   0  0  0  0  0  3  0  0  0  0  0  0
  -26.0860  -26.9040   19.5530 C   0  0  0  0  0  3  0  0  0  0  0  0
  -24.8810  -27.6330   19.5610 C   0  0  0  0  0  3  0  0  0  0  0  0
  -23.5990  -29.7650   20.1920 C   0  0  0  0  0  2  0  0  0  0  0  0
  -24.6650  -31.0640   22.0970 N   0  0  0  0  0  0  0  0  0  0  0  0
  -23.5410  -32.1410   23.7450 O   0  0  0  0  0  0  0  0  0  0  0  0
  -22.7580  -29.4400   22.5390 C   0  0  0  0  0  0  0  0  0  0  0  0
  -21.4320  -29.2640   22.4280 N   0  0  0  0  0  0  0  0  0  0  0  0
  -23.4500  -28.8130   23.3460 O   0  0  0  0  0  0  0  0  0  0  0  0
  -20.9370  -29.8240   21.7480 H   0  0  0  0  0  0  0  0  0  0  0  0
  -18.0590  -28.0880   22.9610 C   0  0  0  0  0  0  0  0  0  0  0  0
  -20.6190  -28.3310   23.2080 C   0  0  0  0  0  3  0  0  0  0  0  0
  -20.7080  -26.8990   22.6310 C   0  0  0  0  0  2  0  0  0  0  0  0
  -19.5940  -26.5820   21.6280 C   0  0  0  0  0  2  0  0  0  0  0  0
  -18.2200  -26.7370   22.2870 C   0  0  0  0  0  2  0  0  0  0  0  0
  -19.1860  -28.8440   23.3800 C   0  0  0  0  0  0  0  0  0  0  0  0
  -18.9820  -30.1110   23.9690 C   0  0  0  0  0  3  0  0  0  0  0  0
  -17.6820  -30.6210   24.1460 C   0  0  0  0  0  3  0  0  0  0  0  0
  -16.5700  -29.8610   23.7460 C   0  0  0  0  0  3  0  0  0  0  0  0
  -16.7580  -28.5980   23.1600 C   0  0  0  0  0  3  0  0  0  0  0  0
  -25.9100  -32.4990   23.8040 C   0  0  0  0  0  3  0  0  0  0  0  0
  -26.4600  -31.7130   25.0580 C   0  0  1  0  0  0  0  0  0  0  0  0
  -25.3910  -31.4490   26.1440 C   0  0  0  0  0  1  0  0  0  0  0  0
  -27.0450  -30.3470   24.6290 C   0  0  0  0  0  1  0  0  0  0  0  0
  -27.6170  -32.5050   25.7100 C   0  0  0  0  0  1  0  0  0  0  0  0
  -25.5990  -33.8900   24.1600 N   0  0  0  0  0  0  0  0  0  0  0  0
  -25.9130  -34.9540   23.4080 C   0  0  0  0  0  0  0  0  0  0  0  0
  -26.5700  -34.8690   22.3660 O   0  0  0  0  0  0  0  0  0  0  0  0
  -25.0150  -34.0300   24.9710 H   0  0  0  0  0  0  0  0  0  0  0  0
  -24.1640  -36.7360   23.1020 C   0  0  0  0  0  1  0  0  0  0  0  0
  -25.4210  -36.3320   23.8890 C   0  0  0  0  0  3  0  0  0  0  0  0
  -27.5650  -37.2200   24.6930 C   0  0  0  0  0  1  0  0  0  0  0  0
  -26.4430  -37.3950   23.7750 N   0  0  0  0  0  0  0  0  0  0  0  0
  -26.0310  -38.3100   23.9480 H   0  0  0  0  0  0  0  0  0  0  0  0
  1  2  1  0
  1 53  1  0
  3  4  1  0
  3  2  1  0
  4  5  1  0
  5  6  1  0
  6  7  1  0
  7  9  1  0
  8 14  1  0
  9  8  1  0
  9 11  1  0
 10  8  2  0
 14 13  1  6
 14 23  1  0
 14 12  1  0
 15 23  1  0
 16 21  1  0
 17 18  1  0
 17 16  1  0
 19 18  1  0
 19 28  1  0
 19 20  1  0
 21 15  1  0
 21 20  1  0
 22 15  2  0
 23 24  1  0
 25 26  2  0
 26 45  1  0
 27 26  1  0
 27 30  1  0
 28 25  1  0
 28 29  1  0
 29 27  2  0
 30 31  1  0
 31 32  2  0
 33 36  1  0
 33 32  1  0
 34 33  2  0
 35 34  1  0
 35 30  2  0
 36 37  1  0
 37 38  1  0
 38 39  2  0
 40 39  1  0
 40 44  1  0
 41 40  2  0
 42 37  2  0
 42 41  1  0
 43 42  1  0
 45 46  1  0
 46 49  1  0
 46 48  1  0
 47 45  2  0
 50 51  1  0
 50 25  1  0
 52 50  1  0
 53 54  1  0
 54 57  1  0
 55 54  1  0
 56 54  1  0
 57 58  1  0
 59 60  1  0
 59 58  1  0
 61 62  1  0
 61 60  1  0
 62 64  1  0
 63 74  2  0
 64 69  1  0
 65 73  1  0
 65 75  1  0
 66 72  1  0
 66 68  1  0
 67 73  1  0
 68 67  1  0
 69 68  2  0
 70 71  1  0
 70 64  2  0
 71 66  2  0
 72 65  1  0
 73 63  1  0
 75 77  2  0
 76 75  1  0
 78 76  1  0
 79 88  2  0
 79 84  1  0
 80 76  1  0
 80 84  1  0
 81 80  1  0
 82 83  1  0
 82 81  1  0
 83 79  1  0
 84 85  2  0
 85 86  1  0
 87 86  2  0
 88 87  1  0
 89 63  1  0
 89 94  1  0
 89 90  1  0
 90 93  1  1
 90 91  1  0
 92 90  1  0
 94 97  1  0
 95 99  1  0
 95 94  1  0
 96 95  2  0
 99 98  1  0
101 99  1  0
101102  1  0
101100  1  0
M  ISO  4  15 100  23 100  61 101  62 101
M  END
>  <TORSDO>  (52) 
F 31

>  <SCORE>  (52) 
-9.558

>  <name>  (52) 
55

>  <ligand_id>  (52) 
55

>  <original_smiles>  (52) 
[H]c1c([H])c([H])c2c(c1[H])C([H])([H])C([H])([H])C([H])([H])C2([H])N([H])C(=O)C1([H])N(C(=O)C([H])(N([H])C(=O)C([H])(N([H])C([H])([H])[H])C([H])([H])[H])C(C([H])([H])[H])(C([H])([H])[H])C([H])([H])[H])C([H])([H])c2c([H])c(OC([H])([H])C([H])([H])OC([H])([H])C([H])([H])[N+]([H])([H])C([H])([H])C([H])([H])OC([H])([H])C([H])([H])OC([H])([H])C([H])([H])N([H])C(=O)C(N([H])C(=O)N3C([H])([H])C([H])([H])C([H])([H])C([H])(n4nc(-c5c([H])c([H])c(Oc6c([H])c([H])c(F)c([H])c6F)c([H])c5[H])c(C(=O)N([H])[H])c4N([H])[H])C3([H])[H])(C([H])([H])[H])C([H])([H])[H])c([H])c([H])c2C1([H])[H]

>  <smiles>  (52) 
[H]c1c([H])c([H])c2c(c1[H])C([H])([H])C([H])([H])C([H])([H])C2([H])N([H])C(=O)C1([H])N(C(=O)C([H])(N([H])C(=O)C([H])(N([H])C([H])([H])[H])C([H])([H])[H])C(C([H])([H])[H])(C([H])([H])[H])C([H])([H])[H])C([H])([H])c2c([H])c(OC([H])([H])C([H])([H])OC([H])([H])C([H])([H])[N+]([H])([H])C([H])([H])C([H])([H])OC([H])([H])C([H])([H])OC([H])([H])C([H])([H])N([H])C(=O)C(N([H])C(=O)N3C([H])([H])C([H])([H])C([H])([H])C([H])(n4nc(-c5c([H])c([H])c(Oc6c([H])c([H])c(F)c([H])c6F)c([H])c5[H])c(C(=O)N([H])[H])c4N([H])[H])C3([H])[H])(C([H])([H])[H])C([H])([H])[H])c([H])c([H])c2C1([H])[H]

$$$$
56:0:0
     RDKit          3D

103110  0  0  1  0  0  0  0  0999 V2000
  -30.9150  -20.0150   19.3470 C   0  0  0  0  0  3  0  0  0  0  0  0
  -30.7780  -17.6210   20.0900 C   0  0  0  0  0  0  0  0  0  0  0  0
  -31.3340  -18.8360   20.1230 N   0  0  0  0  0  0  0  0  0  0  0  0
  -29.8730  -17.3220   19.3060 O   0  0  0  0  0  0  0  0  0  0  0  0
  -32.0170  -19.0050   20.8470 H   0  0  0  0  0  0  0  0  0  0  0  0
  -31.3180  -16.5900   21.1100 C   0  0  0  0  0  3  0  0  0  0  0  0
  -31.2080  -14.3810   19.9500 C   0  0  0  0  0  0  0  0  0  0  0  0
  -30.6950  -12.2850   18.7520 C   0  0  0  0  0  2  0  0  0  0  0  0
  -29.6870  -12.5480   17.6160 C   0  0  0  0  0  2  0  0  0  0  0  0
  -28.2400  -12.4820   18.1410 C   0  0  0  0  0  2  0  0  0  0  0  0
  -28.0310  -13.3380   19.4170 C   0  0  0  0  0  3  0  0  0  0  0  0
  -29.1330  -13.0380   20.4570 C   0  0  0  0  0  2  0  0  0  0  0  0
  -30.4440  -13.2650   19.8180 N   0  0  0  0  0  0  0  0  0  0  0  0
  -32.2260  -14.5920   19.2840 O   0  0  0  0  0  0  0  0  0  0  0  0
  -30.7690  -15.2580   20.8580 N   0  0  0  0  0  0  0  0  0  0  0  0
  -29.9190  -15.0240   21.3440 H   0  0  0  0  0  0  0  0  0  0  0  0
  -25.7460  -14.0880   20.3420 C   0  0  0  0  0  0  0  0  0  0  0  0
  -24.6430  -13.3780   20.7380 C   0  0  0  0  0  0  0  0  0  0  0  0
  -24.9830  -12.0000   20.5810 C   0  0  0  0  0  0  0  0  0  0  0  0
  -26.6940  -13.1430   19.9760 N   0  0  0  0  0  0  0  0  0  0  0  0
  -26.2400  -11.8790   20.1730 N   0  0  0  0  0  0  0  0  0  0  0  0
  -24.1670  -10.7900   20.7430 C   0  0  0  0  0  0  0  0  0  0  0  0
  -24.5810   -9.7260   21.5750 C   0  0  0  0  0  3  0  0  0  0  0  0
  -23.7710   -8.5800   21.7270 C   0  0  0  0  0  3  0  0  0  0  0  0
  -22.5330   -8.4900   21.0470 C   0  0  0  0  0  0  0  0  0  0  0  0
  -22.1370   -9.5410   20.2010 C   0  0  0  0  0  3  0  0  0  0  0  0
  -22.9470  -10.6790   20.0470 C   0  0  0  0  0  3  0  0  0  0  0  0
  -21.6930   -7.4050   21.1150 O   0  0  0  0  0  0  0  0  0  0  0  0
  -21.6450   -6.6000   22.2240 C   0  0  0  0  0  0  0  0  0  0  0  0
  -21.3330   -7.1110   23.5030 C   0  0  0  0  0  3  0  0  0  0  0  0
  -21.2270   -6.2370   24.6030 C   0  0  0  0  0  3  0  0  0  0  0  0
  -21.4200   -4.8550   24.4260 C   0  0  0  0  0  0  0  0  0  0  0  0
  -21.7250   -4.3430   23.1530 C   0  0  0  0  0  3  0  0  0  0  0  0
  -21.8340   -5.2130   22.0550 C   0  0  0  0  0  0  0  0  0  0  0  0
  -22.1070   -4.7130   20.8260 F   0  0  0  0  0  0  0  0  0  0  0  0
  -21.3100   -4.0140   25.4810 F   0  0  0  0  0  0  0  0  0  0  0  0
  -23.3160  -13.9450   21.1510 C   0  0  0  0  0  0  0  0  0  0  0  0
  -22.6010  -13.2530   22.0310 N   0  0  0  0  0  0  0  0  0  0  0  0
  -22.9240  -15.0330   20.7290 O   0  0  0  0  0  0  0  0  0  0  0  0
  -22.9300  -12.3700   22.3920 H   0  0  0  0  0  0  0  0  0  0  0  0
  -21.7120  -13.6110   22.3510 H   0  0  0  0  0  0  0  0  0  0  0  0
  -26.0180  -15.4490   20.2440 N   0  0  0  0  0  0  0  0  0  0  0  0
  -25.3230  -16.1580   20.4570 H   0  0  0  0  0  0  0  0  0  0  0  0
  -26.8900  -15.8370   19.9080 H   0  0  0  0  0  0  0  0  0  0  0  0
  -29.4330  -17.0010   22.8620 C   0  0  0  0  0  1  0  0  0  0  0  0
  -31.6990  -16.1550   23.5940 C   0  0  0  0  0  1  0  0  0  0  0  0
  -30.9480  -17.0110   22.5600 C   0  0  0  0  0  3  0  0  0  0  0  0
  -30.2830  -21.0590   20.2900 C   0  0  0  0  0  0  0  0  0  0  0  0
  -29.6460  -22.0970   19.7320 N   0  0  0  0  0  0  0  0  0  0  0  0
  -30.3920  -20.9500   21.5160 O   0  0  0  0  0  0  0  0  0  0  0  0
  -29.5430  -22.2880   18.7430 H   0  0  0  0  0  0  0  0  0  0  0  0
  -28.8730  -24.3530   20.0280 C   0  0  0  0  0  0  0  0  0  0  0  0
  -29.1540  -23.1470   20.5400 N   0  0  0  0  0  0  0  0  0  0  0  0
  -28.9770  -24.5920   18.8200 O   0  0  0  0  0  0  0  0  0  0  0  0
  -29.1240  -22.8910   21.5200 H   0  0  0  0  0  0  0  0  0  0  0  0
  -28.4090  -25.4310   21.0200 C   0  0  0  0  0  2  0  0  0  0  0  0
  -28.5240  -26.7470   20.4590 O   0  0  0  0  0  0  0  0  0  0  0  0
  -24.5940  -31.9390   23.3110 C   0  0  0  0  0  0  0  0  0  0  0  0
  -27.3500  -27.4570   20.4190 C   0  0  0  0  0  0  0  0  0  0  0  0
  -23.4380  -30.4880   21.6720 C   0  0  0  0  0  3  0  0  0  0  0  0
  -24.9410  -28.9230   20.3290 C   0  0  0  0  0  0  0  0  0  0  0  0
  -25.9630  -30.8670   21.5260 C   0  0  0  0  0  2  0  0  0  0  0  0
  -26.0770  -29.4800   20.9290 C   0  0  0  0  0  0  0  0  0  0  0  0
  -27.2870  -28.7540   20.9680 C   0  0  0  0  0  3  0  0  0  0  0  0
  -26.1990  -26.9040   19.8170 C   0  0  0  0  0  3  0  0  0  0  0  0
  -24.9950  -27.6330   19.7700 C   0  0  0  0  0  3  0  0  0  0  0  0
  -23.6890  -29.7700   20.3180 C   0  0  0  0  0  2  0  0  0  0  0  0
  -24.6820  -31.1130   22.2290 N   0  0  0  0  0  0  0  0  0  0  0  0
  -23.4980  -32.2170   23.8170 O   0  0  0  0  0  0  0  0  0  0  0  0
  -22.7690  -29.4880   22.6410 C   0  0  0  0  0  0  0  0  0  0  0  0
  -21.4530  -29.2790   22.4680 N   0  0  0  0  0  0  0  0  0  0  0  0
  -23.4300  -28.9010   23.5020 O   0  0  0  0  0  0  0  0  0  0  0  0
  -20.9820  -29.8040   21.7460 H   0  0  0  0  0  0  0  0  0  0  0  0
  -18.0910  -28.0140   22.8390 C   0  0  0  0  0  0  0  0  0  0  0  0
  -20.6230  -28.3520   23.2360 C   0  0  0  0  0  3  0  0  0  0  0  0
  -20.7920  -26.9010   22.7300 C   0  0  0  0  0  2  0  0  0  0  0  0
  -19.7550  -26.5050   21.6740 C   0  0  0  0  0  2  0  0  0  0  0  0
  -18.3380  -26.6410   22.2360 C   0  0  0  0  0  2  0  0  0  0  0  0
  -19.1650  -28.8240   23.2940 C   0  0  0  0  0  0  0  0  0  0  0  0
  -18.8840  -30.1070   23.8130 C   0  0  0  0  0  3  0  0  0  0  0  0
  -17.5600  -30.5800   23.8850 C   0  0  0  0  0  3  0  0  0  0  0  0
  -16.4990  -29.7680   23.4490 C   0  0  0  0  0  3  0  0  0  0  0  0
  -16.7650  -28.4870   22.9320 C   0  0  0  0  0  3  0  0  0  0  0  0
  -25.8610  -32.5910   23.9490 C   0  0  0  0  0  3  0  0  0  0  0  0
  -26.3460  -31.8570   25.2580 C   0  0  1  0  0  0  0  0  0  0  0  0
  -25.2230  -31.6280   26.2950 C   0  0  0  0  0  1  0  0  0  0  0  0
  -26.9600  -30.4800   24.9120 C   0  0  0  0  0  1  0  0  0  0  0  0
  -27.4650  -32.6810   25.9380 C   0  0  0  0  0  1  0  0  0  0  0  0
  -25.5410  -33.9970   24.2280 N   0  0  0  0  0  0  0  0  0  0  0  0
  -25.8820  -35.0250   23.4400 C   0  0  0  0  0  0  0  0  0  0  0  0
  -26.5700  -34.8920   22.4250 O   0  0  0  0  0  0  0  0  0  0  0  0
  -24.9330  -34.1750   25.0140 H   0  0  0  0  0  0  0  0  0  0  0  0
  -24.1420  -36.7870   23.0040 C   0  0  0  0  0  1  0  0  0  0  0  0
  -25.3780  -36.4240   23.8430 C   0  0  0  0  0  3  0  0  0  0  0  0
  -27.4980  -37.3540   24.6610 C   0  0  0  0  0  1  0  0  0  0  0  0
  -26.4030  -37.4820   23.7030 N   0  0  0  0  0  0  0  0  0  0  0  0
  -25.9890  -38.4030   23.8150 H   0  0  0  0  0  0  0  0  0  0  0  0
  -32.1540  -20.6680   18.6780 C   0  0  0  0  0  2  0  0  0  0  0  0
  -32.7440  -19.8280   17.5430 C   0  0  0  0  0  0  0  0  0  0  0  0
  -33.9420  -19.2850   17.7240 N   0  0  0  0  0  0  0  0  0  0  0  0
  -32.1200  -19.6640   16.4970 O   0  0  0  0  0  0  0  0  0  0  0  0
  -34.4500  -19.4240   18.5860 H   0  0  0  0  0  0  0  0  0  0  0  0
  -34.3620  -18.7250   16.9950 H   0  0  0  0  0  0  0  0  0  0  0  0
  1 98  1  0
  1  3  1  0
  1 48  1  0
  2  3  1  0
  3  5  1  0
  4  2  2  0
  6  2  1  0
  6 47  1  0
  7 15  1  0
  8 13  1  0
  9 10  1  0
  9  8  1  0
 11 10  1  0
 11 20  1  0
 11 12  1  0
 13  7  1  0
 13 12  1  0
 14  7  2  0
 15  6  1  0
 15 16  1  0
 17 18  2  0
 18 37  1  0
 19 18  1  0
 19 22  1  0
 20 21  1  0
 20 17  1  0
 21 19  2  0
 22 23  1  0
 23 24  2  0
 25 28  1  0
 25 24  1  0
 26 25  2  0
 27 26  1  0
 27 22  2  0
 28 29  1  0
 29 30  1  0
 30 31  2  0
 32 31  1  0
 32 36  1  0
 33 32  2  0
 34 29  2  0
 34 33  1  0
 35 34  1  0
 37 38  1  0
 38 41  1  0
 38 40  1  0
 39 37  2  0
 42 17  1  0
 42 43  1  0
 44 42  1  0
 47 45  1  0
 47 46  1  0
 48 50  2  0
 49 48  1  0
 49 53  1  0
 51 49  1  0
 52 53  1  0
 52 56  1  0
 53 55  1  0
 54 52  2  0
 57 56  1  0
 58 69  2  0
 59 57  1  0
 59 64  1  0
 60 68  1  0
 60 70  1  0
 61 63  1  0
 62 68  1  0
 63 64  2  0
 63 62  1  0
 65 59  2  0
 66 65  1  0
 66 61  2  0
 67 61  1  0
 67 60  1  0
 68 58  1  0
 70 72  2  0
 71 70  1  0
 73 71  1  0
 74 83  2  0
 74 79  1  0
 75 71  1  0
 75 79  1  0
 76 75  1  0
 77 78  1  0
 77 76  1  0
 78 74  1  0
 79 80  2  0
 80 81  1  0
 82 81  2  0
 83 82  1  0
 84 58  1  0
 84 89  1  0
 84 85  1  0
 85 88  1  1
 85 86  1  0
 87 85  1  0
 89 92  1  0
 90 94  1  0
 90 89  1  0
 91 90  2  0
 94 93  1  0
 96 97  1  0
 96 94  1  0
 96 95  1  0
 99100  1  0
 99 98  1  0
100102  1  0
101 99  2  0
103100  1  0
M  ISO  4   7 100  15 100  56 101  57 101
M  END
>  <TORSDO>  (53) 
F 24

>  <SCORE>  (53) 
-7.862

>  <name>  (53) 
56

>  <ligand_id>  (53) 
56

>  <original_smiles>  (53) 
[H]c1c([H])c([H])c2c(c1[H])C([H])([H])C([H])([H])C([H])([H])C2([H])N([H])C(=O)C1([H])N(C(=O)C([H])(N([H])C(=O)C([H])(N([H])C([H])([H])[H])C([H])([H])[H])C(C([H])([H])[H])(C([H])([H])[H])C([H])([H])[H])C([H])([H])c2c([H])c(OC([H])([H])C(=O)N([H])N([H])C(=O)C([H])(N([H])C(=O)C([H])(N([H])C(=O)N3C([H])([H])C([H])([H])C([H])([H])C([H])(n4nc(-c5c([H])c([H])c(Oc6c([H])c([H])c(F)c([H])c6F)c([H])c5[H])c(C(=O)N([H])[H])c4N([H])[H])C3([H])[H])C([H])(C([H])([H])[H])C([H])([H])[H])C([H])([H])C(=O)N([H])[H])c([H])c([H])c2C1([H])[H]

>  <smiles>  (53) 
[H]c1c([H])c([H])c2c(c1[H])C([H])([H])C([H])([H])C([H])([H])C2([H])N([H])C(=O)C1([H])N(C(=O)C([H])(N([H])C(=O)C([H])(N([H])C([H])([H])[H])C([H])([H])[H])C(C([H])([H])[H])(C([H])([H])[H])C([H])([H])[H])C([H])([H])c2c([H])c(OC([H])([H])C(=O)N([H])N([H])C(=O)C([H])(N([H])C(=O)C([H])(N([H])C(=O)N3C([H])([H])C([H])([H])C([H])([H])C([H])(n4nc(-c5c([H])c([H])c(Oc6c([H])c([H])c(F)c([H])c6F)c([H])c5[H])c(C(=O)N([H])[H])c4N([H])[H])C3([H])[H])C([H])(C([H])([H])[H])C([H])([H])[H])C([H])([H])C(=O)N([H])[H])c([H])c([H])c2C1([H])[H]

$$$$
57:0:0
     RDKit          3D

103110  0  0  1  0  0  0  0  0999 V2000
  -31.1050  -20.1090   23.4980 C   0  0  0  0  0  0  0  0  0  0  0  0
  -30.4520  -21.1470   24.0230 N   0  0  0  0  0  0  0  0  0  0  0  0
  -32.2070  -20.2190   22.9500 O   0  0  0  0  0  0  0  0  0  0  0  0
  -29.5530  -20.9680   24.4490 H   0  0  0  0  0  0  0  0  0  0  0  0
  -30.5900  -18.0580   24.9530 C   0  0  0  0  0  1  0  0  0  0  0  0
  -30.4280  -18.7370   23.5850 C   0  0  0  0  0  3  0  0  0  0  0  0
  -30.3550  -16.8610   21.9370 C   0  0  0  0  0  0  0  0  0  0  0  0
  -30.9600  -17.9030   22.5150 N   0  0  0  0  0  0  0  0  0  0  0  0
  -29.2950  -16.3940   22.3720 O   0  0  0  0  0  0  0  0  0  0  0  0
  -31.8190  -18.2560   22.1100 H   0  0  0  0  0  0  0  0  0  0  0  0
  -31.0450  -16.2360   20.7080 C   0  0  0  0  0  3  0  0  0  0  0  0
  -31.1630  -13.8860   19.8890 C   0  0  0  0  0  0  0  0  0  0  0  0
  -30.7030  -11.6710   18.9170 C   0  0  0  0  0  2  0  0  0  0  0  0
  -29.6290  -11.8110   17.8190 C   0  0  0  0  0  2  0  0  0  0  0  0
  -28.2090  -11.7510   18.4180 C   0  0  0  0  0  2  0  0  0  0  0  0
  -28.0350  -12.6930   19.6400 C   0  0  0  0  0  3  0  0  0  0  0  0
  -29.1980  -12.5010   20.6360 C   0  0  0  0  0  2  0  0  0  0  0  0
  -30.4640  -12.7250   19.9100 N   0  0  0  0  0  0  0  0  0  0  0  0
  -32.1830  -14.0680   19.2160 O   0  0  0  0  0  0  0  0  0  0  0  0
  -30.5930  -14.8650   20.5790 N   0  0  0  0  0  0  0  0  0  0  0  0
  -29.7510  -14.6510   21.0890 H   0  0  0  0  0  0  0  0  0  0  0  0
  -25.8890  -13.4370   20.8560 C   0  0  0  0  0  0  0  0  0  0  0  0
  -24.7750  -12.7440   21.2470 C   0  0  0  0  0  0  0  0  0  0  0  0
  -25.0070  -11.3820   20.8770 C   0  0  0  0  0  0  0  0  0  0  0  0
  -26.7370  -12.5000   20.2830 N   0  0  0  0  0  0  0  0  0  0  0  0
  -26.2150  -11.2490   20.3470 N   0  0  0  0  0  0  0  0  0  0  0  0
  -24.1270  -10.2090   20.9470 C   0  0  0  0  0  0  0  0  0  0  0  0
  -24.4660   -9.0770   21.7200 C   0  0  0  0  0  3  0  0  0  0  0  0
  -23.5960   -7.9670   21.7860 C   0  0  0  0  0  3  0  0  0  0  0  0
  -22.3720   -7.9830   21.0770 C   0  0  0  0  0  0  0  0  0  0  0  0
  -22.0500   -9.1030   20.2910 C   0  0  0  0  0  3  0  0  0  0  0  0
  -22.9180  -10.2050   20.2230 C   0  0  0  0  0  3  0  0  0  0  0  0
  -21.4770   -6.9410   21.0600 O   0  0  0  0  0  0  0  0  0  0  0  0
  -21.2660   -6.1550   22.1640 C   0  0  0  0  0  0  0  0  0  0  0  0
  -20.8280   -6.6960   23.3910 C   0  0  0  0  0  3  0  0  0  0  0  0
  -20.5560   -5.8440   24.4810 C   0  0  0  0  0  3  0  0  0  0  0  0
  -20.7150   -4.4520   24.3430 C   0  0  0  0  0  0  0  0  0  0  0  0
  -21.1470   -3.9100   23.1200 C   0  0  0  0  0  3  0  0  0  0  0  0
  -21.4190   -4.7590   22.0320 C   0  0  0  0  0  0  0  0  0  0  0  0
  -21.8150   -4.2300   20.8500 F   0  0  0  0  0  0  0  0  0  0  0  0
  -20.4480   -3.6320   25.3860 F   0  0  0  0  0  0  0  0  0  0  0  0
  -23.5250  -13.3200   21.8500 C   0  0  0  0  0  0  0  0  0  0  0  0
  -22.8550  -12.5620   22.7100 N   0  0  0  0  0  0  0  0  0  0  0  0
  -23.1620  -14.4680   21.5930 O   0  0  0  0  0  0  0  0  0  0  0  0
  -23.1650  -11.6280   22.9360 H   0  0  0  0  0  0  0  0  0  0  0  0
  -22.0200  -12.9200   23.1520 H   0  0  0  0  0  0  0  0  0  0  0  0
  -26.2460  -14.7800   20.9270 N   0  0  0  0  0  0  0  0  0  0  0  0
  -25.6350  -15.4840   21.3270 H   0  0  0  0  0  0  0  0  0  0  0  0
  -27.1500  -15.1530   20.6570 H   0  0  0  0  0  0  0  0  0  0  0  0
  -30.5860  -16.9940   19.4470 C   0  0  0  0  0  0  0  0  0  0  0  0
  -31.3890  -17.9250   18.9430 N   0  0  0  0  0  0  0  0  0  0  0  0
  -29.5280  -16.7100   18.8830 O   0  0  0  0  0  0  0  0  0  0  0  0
  -32.2790  -18.1420   19.3700 H   0  0  0  0  0  0  0  0  0  0  0  0
  -31.1300  -18.4080   18.0950 H   0  0  0  0  0  0  0  0  0  0  0  0
  -30.8930  -22.5380   23.9560 C   0  0  0  0  0  2  0  0  0  0  0  0
  -30.6580  -23.1570   22.5640 C   0  0  0  0  0  2  0  0  0  0  0  0
  -29.4410  -22.6370   22.0390 O   0  0  0  0  0  0  0  0  0  0  0  0
  -28.7610  -23.4950   21.1300 C   0  0  0  0  0  2  0  0  0  0  0  0
  -29.4910  -23.7340   19.7950 C   0  0  0  0  0  2  0  0  0  0  0  0
  -30.0490  -25.0450   19.7970 O   0  0  0  0  0  0  0  0  0  0  0  0
  -29.9550  -25.7390   18.5510 C   0  0  0  0  0  2  0  0  0  0  0  0
  -28.5010  -26.0710   18.1460 C   0  0  0  0  0  2  0  0  0  0  0  0
  -28.3250  -27.4830   18.0140 O   0  0  0  0  0  0  0  0  0  0  0  0
  -24.5690  -30.8050   23.0210 C   0  0  0  0  0  0  0  0  0  0  0  0
  -27.0870  -27.9390   18.3900 C   0  0  0  0  0  0  0  0  0  0  0  0
  -23.2440  -29.6770   21.2600 C   0  0  0  0  0  3  0  0  0  0  0  0
  -24.5620  -28.8740   19.2280 C   0  0  0  0  0  0  0  0  0  0  0  0
  -25.5910  -30.5590   20.7670 C   0  0  0  0  0  2  0  0  0  0  0  0
  -25.7290  -29.4500   19.7470 C   0  0  0  0  0  0  0  0  0  0  0  0
  -26.9930  -28.9920   19.3230 C   0  0  0  0  0  3  0  0  0  0  0  0
  -25.9040  -27.3690   17.8690 C   0  0  0  0  0  3  0  0  0  0  0  0
  -24.6430  -27.8330   18.2870 C   0  0  0  0  0  3  0  0  0  0  0  0
  -23.2470  -29.4280   19.7270 C   0  0  0  0  0  2  0  0  0  0  0  0
  -24.4960  -30.3500   21.7390 N   0  0  0  0  0  0  0  0  0  0  0  0
  -23.6010  -30.7120   23.7890 O   0  0  0  0  0  0  0  0  0  0  0  0
  -22.9560  -28.3370   21.9730 C   0  0  0  0  0  0  0  0  0  0  0  0
  -21.7270  -27.8230   21.8070 N   0  0  0  0  0  0  0  0  0  0  0  0
  -23.8340  -27.7670   22.6260 O   0  0  0  0  0  0  0  0  0  0  0  0
  -21.0630  -28.3570   21.2660 H   0  0  0  0  0  0  0  0  0  0  0  0
  -18.9640  -25.4970   21.7360 C   0  0  0  0  0  0  0  0  0  0  0  0
  -21.2430  -26.5520   22.3450 C   0  0  0  0  0  3  0  0  0  0  0  0
  -21.8820  -25.3530   21.6070 C   0  0  0  0  0  2  0  0  0  0  0  0
  -21.0360  -24.8470   20.4360 C   0  0  0  0  0  2  0  0  0  0  0  0
  -19.6500  -24.4130   20.9210 C   0  0  0  0  0  2  0  0  0  0  0  0
  -19.7120  -26.5100   22.3910 C   0  0  0  0  0  0  0  0  0  0  0  0
  -19.0270  -27.5160   23.1040 C   0  0  0  0  0  3  0  0  0  0  0  0
  -17.6210  -27.5200   23.1730 C   0  0  0  0  0  3  0  0  0  0  0  0
  -16.8840  -26.5030   22.5400 C   0  0  0  0  0  3  0  0  0  0  0  0
  -17.5550  -25.4940   21.8280 C   0  0  0  0  0  3  0  0  0  0  0  0
  -25.8620  -31.4790   23.5790 C   0  0  0  0  0  3  0  0  0  0  0  0
  -25.4930  -32.8220   24.0440 N   0  0  0  0  0  0  0  0  0  0  0  0
  -25.7810  -33.9580   23.3940 C   0  0  0  0  0  0  0  0  0  0  0  0
  -26.4570  -33.9850   22.3610 O   0  0  0  0  0  0  0  0  0  0  0  0
  -24.8920  -32.8690   24.8520 H   0  0  0  0  0  0  0  0  0  0  0  0
  -23.9880  -35.7070   23.1910 C   0  0  0  0  0  1  0  0  0  0  0  0
  -25.2310  -35.2700   23.9830 C   0  0  0  0  0  3  0  0  0  0  0  0
  -27.3190  -36.1400   24.9360 C   0  0  0  0  0  1  0  0  0  0  0  0
  -26.2210  -36.3690   24.0010 N   0  0  0  0  0  0  0  0  0  0  0  0
  -25.7770  -37.2520   24.2430 H   0  0  0  0  0  0  0  0  0  0  0  0
  -26.5460  -30.6570   24.7370 C   0  0  1  0  0  0  0  0  0  0  0  0
  -25.5800  -30.2730   25.8820 C   0  0  0  0  0  1  0  0  0  0  0  0
  -27.1690  -29.3530   24.1840 C   0  0  0  0  0  1  0  0  0  0  0  0
  -27.7030  -31.4820   25.3510 C   0  0  0  0  0  1  0  0  0  0  0  0
  1  6  1  0
  1  2  1  0
  2  4  1  0
  3  1  2  0
  6  5  1  0
  7  9  2  0
  7  8  1  0
  8  6  1  0
 10  8  1  0
 11 50  1  0
 11  7  1  0
 12 18  1  0
 12 20  1  0
 13 18  1  0
 14 15  1  0
 14 13  1  0
 16 15  1  0
 16 25  1  0
 16 17  1  0
 18 17  1  0
 19 12  2  0
 20 11  1  0
 20 21  1  0
 22 47  1  0
 22 23  2  0
 23 42  1  0
 24 27  1  0
 24 23  1  0
 25 26  1  0
 25 22  1  0
 26 24  2  0
 27 28  1  0
 28 29  2  0
 30 29  1  0
 31 30  2  0
 32 31  1  0
 32 27  2  0
 33 30  1  0
 33 34  1  0
 34 35  1  0
 35 36  2  0
 37 36  1  0
 37 41  1  0
 38 37  2  0
 39 34  2  0
 39 38  1  0
 40 39  1  0
 42 43  1  0
 43 45  1  0
 43 46  1  0
 44 42  2  0
 47 48  1  0
 49 47  1  0
 51 53  1  0
 51 50  1  0
 52 50  2  0
 54 51  1  0
 55  2  1  0
 56 55  1  0
 57 56  1  0
 58 57  1  0
 59 60  1  0
 59 58  1  0
 61 60  1  0
 62 61  1  0
 63 62  1  0
 63 65  1  0
 64 75  2  0
 65 70  1  0
 66 74  1  0
 66 76  1  0
 67 73  1  0
 67 69  1  0
 68 74  1  0
 69 68  1  0
 70 69  2  0
 71 72  1  0
 71 65  2  0
 72 67  2  0
 73 66  1  0
 74 64  1  0
 76 78  2  0
 77 76  1  0
 79 77  1  0
 80 89  2  0
 80 85  1  0
 81 77  1  0
 81 85  1  0
 82 81  1  0
 83 84  1  0
 83 82  1  0
 84 80  1  0
 85 86  2  0
 86 87  1  0
 88 87  2  0
 89 88  1  0
 90 64  1  0
 90 91  1  0
 90100  1  0
 91 94  1  0
 92 96  1  0
 92 91  1  0
 93 92  2  0
 96 95  1  0
 96 98  1  0
 98 99  1  0
 98 97  1  0
100103  1  1
100101  1  0
102100  1  0
M  ISO  4  12 100  20 100  62 101  63 101
M  END
>  <TORSDO>  (54) 
F 28

>  <SCORE>  (54) 
-4.957

>  <name>  (54) 
57

>  <ligand_id>  (54) 
57

>  <original_smiles>  (54) 
[H]c1c([H])c([H])c2c(c1[H])C([H])([H])C([H])([H])C([H])([H])C2([H])N([H])C(=O)C1([H])N(C(=O)C([H])(N([H])C(=O)C([H])(N([H])C([H])([H])[H])C([H])([H])[H])C(C([H])([H])[H])(C([H])([H])[H])C([H])([H])[H])C([H])([H])c2c([H])c(OC([H])([H])C([H])([H])OC([H])([H])C([H])([H])OC([H])([H])C([H])([H])N([H])C(=O)C([H])(N([H])C(=O)C([H])(C(=O)N([H])[H])N([H])C(=O)N3C([H])([H])C([H])([H])C([H])([H])C([H])(n4nc(-c5c([H])c([H])c(Oc6c([H])c([H])c(F)c([H])c6F)c([H])c5[H])c(C(=O)N([H])[H])c4N([H])[H])C3([H])[H])C([H])([H])[H])c([H])c([H])c2C1([H])[H]

>  <smiles>  (54) 
[H]c1c([H])c([H])c2c(c1[H])C([H])([H])C([H])([H])C([H])([H])C2([H])N([H])C(=O)C1([H])N(C(=O)C([H])(N([H])C(=O)C([H])(N([H])C([H])([H])[H])C([H])([H])[H])C(C([H])([H])[H])(C([H])([H])[H])C([H])([H])[H])C([H])([H])c2c([H])c(OC([H])([H])C([H])([H])OC([H])([H])C([H])([H])OC([H])([H])C([H])([H])N([H])C(=O)C([H])(N([H])C(=O)C([H])(C(=O)N([H])[H])N([H])C(=O)N3C([H])([H])C([H])([H])C([H])([H])C([H])(n4nc(-c5c([H])c([H])c(Oc6c([H])c([H])c(F)c([H])c6F)c([H])c5[H])c(C(=O)N([H])[H])c4N([H])[H])C3([H])[H])C([H])([H])[H])c([H])c([H])c2C1([H])[H]

$$$$
58:0:0
     RDKit          3D

101108  0  0  1  0  0  0  0  0999 V2000
  -32.0750  -27.9660   18.2820 C   0  0  0  0  0  2  0  0  0  0  0  0
  -32.6300  -25.9900   19.6570 C   0  0  0  0  0  0  0  0  0  0  0  0
  -32.0400  -27.1920   19.5270 N   0  0  0  0  0  0  0  0  0  0  0  0
  -33.4460  -25.5760   18.8300 O   0  0  0  0  0  0  0  0  0  0  0  0
  -31.3980  -27.4850   20.2540 H   0  0  0  0  0  0  0  0  0  0  0  0
  -32.1960  -25.0830   20.8210 C   0  0  0  0  0  2  0  0  0  0  0  0
  -31.6380  -23.8860   20.2770 O   0  0  0  0  0  0  0  0  0  0  0  0
  -31.2090  -22.9160   21.2310 C   0  0  0  0  0  2  0  0  0  0  0  0
  -30.7440  -21.6810   20.4390 C   0  0  0  0  0  2  0  0  0  0  0  0
  -30.5260  -20.5370   21.2710 O   0  0  0  0  0  0  0  0  0  0  0  0
  -30.5980  -19.3340   20.5120 C   0  0  0  0  0  2  0  0  0  0  0  0
  -30.0980  -18.0780   21.2610 C   0  0  0  0  0  2  0  0  0  0  0  0
  -30.7050  -16.8270   20.6040 C   0  0  0  0  0  2  0  0  0  0  0  0
  -30.7740  -14.4050   20.5510 C   0  0  0  0  0  0  0  0  0  0  0  0
  -30.3980  -12.2480   19.4480 C   0  0  0  0  0  2  0  0  0  0  0  0
  -29.4960  -12.4810   18.2200 C   0  0  0  0  0  2  0  0  0  0  0  0
  -28.0170  -12.3540   18.6190 C   0  0  0  0  0  2  0  0  0  0  0  0
  -27.6600  -13.2160   19.8580 C   0  0  0  0  0  3  0  0  0  0  0  0
  -28.6930  -13.0420   20.9980 C   0  0  0  0  0  2  0  0  0  0  0  0
  -30.0390  -13.2660   20.4490 N   0  0  0  0  0  0  0  0  0  0  0  0
  -31.9090  -14.4970   20.0870 O   0  0  0  0  0  0  0  0  0  0  0  0
  -30.1460  -15.5160   20.9710 N   0  0  0  0  0  0  0  0  0  0  0  0
  -29.1950  -15.4430   21.3020 H   0  0  0  0  0  0  0  0  0  0  0  0
  -25.2580  -13.8210   20.5620 C   0  0  0  0  0  0  0  0  0  0  0  0
  -24.1830  -13.0480   20.9140 C   0  0  0  0  0  0  0  0  0  0  0  0
  -24.6380  -11.6960   20.8720 C   0  0  0  0  0  0  0  0  0  0  0  0
  -26.2990  -12.9400   20.3240 N   0  0  0  0  0  0  0  0  0  0  0  0
  -25.9290  -11.6580   20.5730 N   0  0  0  0  0  0  0  0  0  0  0  0
  -23.9070  -10.4310   21.0400 C   0  0  0  0  0  0  0  0  0  0  0  0
  -24.3620   -9.4210   21.9180 C   0  0  0  0  0  3  0  0  0  0  0  0
  -23.6290   -8.2260   22.0760 C   0  0  0  0  0  3  0  0  0  0  0  0
  -22.4270   -8.0290   21.3550 C   0  0  0  0  0  0  0  0  0  0  0  0
  -21.9900   -9.0290   20.4660 C   0  0  0  0  0  3  0  0  0  0  0  0
  -22.7250  -10.2160   20.3050 C   0  0  0  0  0  3  0  0  0  0  0  0
  -21.6660   -6.8880   21.4250 O   0  0  0  0  0  0  0  0  0  0  0  0
  -21.6870   -6.0720   22.5290 C   0  0  0  0  0  0  0  0  0  0  0  0
  -21.4020   -6.5620   23.8220 C   0  0  0  0  0  3  0  0  0  0  0  0
  -21.3660   -5.6770   24.9180 C   0  0  0  0  0  3  0  0  0  0  0  0
  -21.6040   -4.3030   24.7240 C   0  0  0  0  0  0  0  0  0  0  0  0
  -21.8820   -3.8130   23.4360 C   0  0  0  0  0  3  0  0  0  0  0  0
  -21.9180   -4.6950   22.3410 C   0  0  0  0  0  0  0  0  0  0  0  0
  -22.1680   -4.2120   21.0990 F   0  0  0  0  0  0  0  0  0  0  0  0
  -21.5650   -3.4500   25.7760 F   0  0  0  0  0  0  0  0  0  0  0  0
  -22.7840  -13.5260   21.1820 C   0  0  0  0  0  0  0  0  0  0  0  0
  -22.0430  -12.8290   22.0370 N   0  0  0  0  0  0  0  0  0  0  0  0
  -22.3520  -14.5550   20.6630 O   0  0  0  0  0  0  0  0  0  0  0  0
  -22.4040  -12.0020   22.4870 H   0  0  0  0  0  0  0  0  0  0  0  0
  -21.1050  -13.1390   22.2520 H   0  0  0  0  0  0  0  0  0  0  0  0
  -25.4330  -15.1920   20.4100 N   0  0  0  0  0  0  0  0  0  0  0  0
  -24.6690  -15.8510   20.5200 H   0  0  0  0  0  0  0  0  0  0  0  0
  -26.2980  -15.6310   20.1220 H   0  0  0  0  0  0  0  0  0  0  0  0
  -31.2170  -29.2610   18.3280 C   0  0  0  0  0  2  0  0  0  0  0  0
  -30.8550  -29.7320   16.9650 N   0  0  0  0  0  4  0  0  0  0  0  0
  -31.5670  -29.4560   16.3050 H   0  0  0  0  0  0  0  0  0  0  0  0
  -30.8710  -30.7410   16.9850 H   0  0  0  0  0  0  0  0  0  0  0  0
  -29.5050  -29.3200   16.4770 C   0  0  0  0  0  2  0  0  0  0  0  0
  -29.2850  -27.7950   16.3840 C   0  0  0  0  0  2  0  0  0  0  0  0
  -29.2310  -27.2680   17.7010 O   0  0  0  0  0  0  0  0  0  0  0  0
  -28.7460  -25.9350   17.8050 C   0  0  0  0  0  2  0  0  0  0  0  0
  -28.6120  -25.5950   19.3030 C   0  0  0  0  0  2  0  0  0  0  0  0
  -28.4270  -26.7660   20.1050 O   0  0  0  0  0  0  0  0  0  0  0  0
  -24.6150  -31.8650   23.2120 C   0  0  0  0  0  0  0  0  0  0  0  0
  -27.2320  -27.4450   20.0840 C   0  0  0  0  0  0  0  0  0  0  0  0
  -23.4010  -30.4850   21.5570 C   0  0  0  0  0  3  0  0  0  0  0  0
  -24.8450  -28.9580   20.1090 C   0  0  0  0  0  0  0  0  0  0  0  0
  -25.9320  -30.8230   21.3740 C   0  0  0  0  0  2  0  0  0  0  0  0
  -26.0020  -29.4640   20.7150 C   0  0  0  0  0  0  0  0  0  0  0  0
  -27.1920  -28.7110   20.7000 C   0  0  0  0  0  3  0  0  0  0  0  0
  -26.0580  -26.9420   19.4740 C   0  0  0  0  0  3  0  0  0  0  0  0
  -24.8710  -27.6990   19.4820 C   0  0  0  0  0  3  0  0  0  0  0  0
  -23.6060  -29.8220   20.1650 C   0  0  0  0  0  2  0  0  0  0  0  0
  -24.6650  -31.0790   22.1030 N   0  0  0  0  0  0  0  0  0  0  0  0
  -23.5370  -32.1440   23.7540 O   0  0  0  0  0  0  0  0  0  0  0  0
  -22.7460  -29.4590   22.5070 C   0  0  0  0  0  0  0  0  0  0  0  0
  -21.4200  -29.2940   22.3800 N   0  0  0  0  0  0  0  0  0  0  0  0
  -23.4230  -28.8190   23.3160 O   0  0  0  0  0  0  0  0  0  0  0  0
  -20.9390  -29.8580   21.6950 H   0  0  0  0  0  0  0  0  0  0  0  0
  -18.0260  -28.1330   22.8570 C   0  0  0  0  0  0  0  0  0  0  0  0
  -20.5880  -28.3600   23.1390 C   0  0  0  0  0  3  0  0  0  0  0  0
  -20.6740  -26.9350   22.5460 C   0  0  0  0  0  2  0  0  0  0  0  0
  -19.5700  -26.6350   21.5270 C   0  0  0  0  0  2  0  0  0  0  0  0
  -18.1870  -26.7880   22.1690 C   0  0  0  0  0  2  0  0  0  0  0  0
  -19.1520  -28.8790   23.2950 C   0  0  0  0  0  0  0  0  0  0  0  0
  -18.9430  -30.1390   23.8940 C   0  0  0  0  0  3  0  0  0  0  0  0
  -17.6420  -30.6530   24.0560 C   0  0  0  0  0  3  0  0  0  0  0  0
  -16.5320  -29.9040   23.6300 C   0  0  0  0  0  3  0  0  0  0  0  0
  -16.7250  -28.6440   23.0370 C   0  0  0  0  0  3  0  0  0  0  0  0
  -25.9080  -32.4780   23.8400 C   0  0  0  0  0  3  0  0  0  0  0  0
  -26.4570  -31.6570   25.0710 C   0  0  1  0  0  0  0  0  0  0  0  0
  -25.3920  -31.3650   26.1530 C   0  0  0  0  0  1  0  0  0  0  0  0
  -27.0330  -30.2970   24.6100 C   0  0  0  0  0  1  0  0  0  0  0  0
  -27.6170  -32.4320   25.7380 C   0  0  0  0  0  1  0  0  0  0  0  0
  -25.5910  -33.8570   24.2330 N   0  0  0  0  0  0  0  0  0  0  0  0
  -25.9060  -34.9460   23.5150 C   0  0  0  0  0  0  0  0  0  0  0  0
  -26.5630  -34.8930   22.4710 O   0  0  0  0  0  0  0  0  0  0  0  0
  -24.9890  -33.9670   25.0360 H   0  0  0  0  0  0  0  0  0  0  0  0
  -24.1480  -36.7300   23.2620 C   0  0  0  0  0  1  0  0  0  0  0  0
  -25.4100  -36.3090   24.0350 C   0  0  0  0  0  3  0  0  0  0  0  0
  -27.5610  -37.1800   24.8460 C   0  0  0  0  0  1  0  0  0  0  0  0
  -26.4280  -37.3790   23.9440 N   0  0  0  0  0  0  0  0  0  0  0  0
  -26.0160  -38.2860   24.1460 H   0  0  0  0  0  0  0  0  0  0  0  0
  1 52  1  0
  1  3  1  0
  2  6  1  0
  3  2  1  0
  3  5  1  0
  4  2  2  0
  7  6  1  0
  7  8  1  0
  9  8  1  0
  9 10  1  0
 11 12  1  0
 11 10  1  0
 13 22  1  0
 13 12  1  0
 14 22  1  0
 15 20  1  0
 16 17  1  0
 16 15  1  0
 18 17  1  0
 18 27  1  0
 18 19  1  0
 20 14  1  0
 20 19  1  0
 21 14  2  0
 22 23  1  0
 24 25  2  0
 25 44  1  0
 26 25  1  0
 26 29  1  0
 27 24  1  0
 27 28  1  0
 28 26  2  0
 29 30  1  0
 30 31  2  0
 32 35  1  0
 32 31  1  0
 33 32  2  0
 34 33  1  0
 34 29  2  0
 35 36  1  0
 36 37  1  0
 37 38  2  0
 39 38  1  0
 39 43  1  0
 40 39  2  0
 41 36  2  0
 41 40  1  0
 42 41  1  0
 44 45  1  0
 45 48  1  0
 45 47  1  0
 46 44  2  0
 49 50  1  0
 49 24  1  0
 51 49  1  0
 53 55  1  0
 53 52  1  0
 54 53  1  0
 56 53  1  0
 57 56  1  0
 57 58  1  0
 58 59  1  0
 59 60  1  0
 60 61  1  0
 62 73  2  0
 63 61  1  0
 63 68  1  0
 64 72  1  0
 64 74  1  0
 65 71  1  0
 65 67  1  0
 66 72  1  0
 67 66  1  0
 68 67  2  0
 69 70  1  0
 69 63  2  0
 70 65  2  0
 71 64  1  0
 72 62  1  0
 74 76  2  0
 75 74  1  0
 77 75  1  0
 78 87  2  0
 78 83  1  0
 79 75  1  0
 79 83  1  0
 80 79  1  0
 81 82  1  0
 81 80  1  0
 82 78  1  0
 83 84  2  0
 84 85  1  0
 86 85  2  0
 87 86  1  0
 88 62  1  0
 88 93  1  0
 88 89  1  0
 89 92  1  1
 89 90  1  0
 91 89  1  0
 93 96  1  0
 94 98  1  0
 94 93  1  0
 95 94  2  0
 98 97  1  0
100 98  1  0
100101  1  0
100 99  1  0
M  ISO  4  14 100  22 100  60 101  61 101
M  END
>  <TORSDO>  (55) 
F 32

>  <SCORE>  (55) 
-9.297

>  <name>  (55) 
58

>  <ligand_id>  (55) 
58

>  <original_smiles>  (55) 
[H]c1c([H])c([H])c2c(c1[H])C([H])([H])C([H])([H])C([H])([H])C2([H])N([H])C(=O)C1([H])N(C(=O)C([H])(N([H])C(=O)C([H])(N([H])C([H])([H])[H])C([H])([H])[H])C(C([H])([H])[H])(C([H])([H])[H])C([H])([H])[H])C([H])([H])c2c([H])c(OC([H])([H])C([H])([H])OC([H])([H])C([H])([H])[N+]([H])([H])C([H])([H])C([H])([H])N([H])C(=O)C([H])([H])OC([H])([H])C([H])([H])OC([H])([H])C([H])([H])C([H])([H])N([H])C(=O)N3C([H])([H])C([H])([H])C([H])([H])C([H])(n4nc(-c5c([H])c([H])c(Oc6c([H])c([H])c(F)c([H])c6F)c([H])c5[H])c(C(=O)N([H])[H])c4N([H])[H])C3([H])[H])c([H])c([H])c2C1([H])[H]

>  <smiles>  (55) 
[H]c1c([H])c([H])c2c(c1[H])C([H])([H])C([H])([H])C([H])([H])C2([H])N([H])C(=O)C1([H])N(C(=O)C([H])(N([H])C(=O)C([H])(N([H])C([H])([H])[H])C([H])([H])[H])C(C([H])([H])[H])(C([H])([H])[H])C([H])([H])[H])C([H])([H])c2c([H])c(OC([H])([H])C([H])([H])OC([H])([H])C([H])([H])[N+]([H])([H])C([H])([H])C([H])([H])N([H])C(=O)C([H])([H])OC([H])([H])C([H])([H])OC([H])([H])C([H])([H])C([H])([H])N([H])C(=O)N3C([H])([H])C([H])([H])C([H])([H])C([H])(n4nc(-c5c([H])c([H])c(Oc6c([H])c([H])c(F)c([H])c6F)c([H])c5[H])c(C(=O)N([H])[H])c4N([H])[H])C3([H])[H])c([H])c([H])c2C1([H])[H]

$$$$
59:0:0
     RDKit          3D

103110  0  0  1  0  0  0  0  0999 V2000
  -24.6070  -20.5510   25.5520 N   0  0  0  0  0  4  0  0  0  0  0  0
  -24.9480  -20.0010   24.7800 H   0  0  0  0  0  0  0  0  0  0  0  0
  -24.3090  -21.4440   25.1860 H   0  0  0  0  0  0  0  0  0  0  0  0
  -23.3700  -19.9270   26.0620 C   0  0  0  0  0  2  0  0  0  0  0  0
  -22.4890  -19.5780   24.8550 C   0  0  0  0  0  2  0  0  0  0  0  0
  -21.9110  -20.8180   24.4520 O   0  0  0  0  0  0  0  0  0  0  0  0
  -20.7690  -20.7110   23.6120 C   0  0  0  0  0  2  0  0  0  0  0  0
  -20.4080  -22.0970   23.0430 C   0  0  0  0  0  2  0  0  0  0  0  0
  -21.2440  -22.5670   21.8330 C   0  0  0  0  0  2  0  0  0  0  0  0
  -20.9730  -24.0210   21.3970 C   0  0  0  0  0  2  0  0  0  0  0  0
  -21.4020  -24.2380   19.9420 C   0  0  0  0  0  2  0  0  0  0  0  0
  -20.7140  -25.3050   19.2850 O   0  0  0  0  0  0  0  0  0  0  0  0
  -20.8430  -25.1480   17.8740 C   0  0  0  0  0  2  0  0  0  0  0  0
  -20.1630  -26.2080   16.9830 C   0  0  0  0  0  2  0  0  0  0  0  0
  -20.3850  -25.8280   15.4980 C   0  0  0  0  0  2  0  0  0  0  0  0
  -20.1370  -26.6200   13.2150 C   0  0  0  0  0  0  0  0  0  0  0  0
  -21.6630  -26.3920   11.2850 C   0  0  0  0  0  2  0  0  0  0  0  0
  -22.4100  -25.0450   11.2760 C   0  0  0  0  0  2  0  0  0  0  0  0
  -23.7040  -25.1230   12.1000 C   0  0  0  0  0  2  0  0  0  0  0  0
  -23.4630  -25.7330   13.5030 C   0  0  0  0  0  3  0  0  0  0  0  0
  -22.6340  -27.0410   13.4210 C   0  0  0  0  0  2  0  0  0  0  0  0
  -21.3850  -26.7630   12.6830 N   0  0  0  0  0  0  0  0  0  0  0  0
  -19.1440  -26.3390   12.5400 O   0  0  0  0  0  0  0  0  0  0  0  0
  -19.9900  -26.8520   14.5270 N   0  0  0  0  0  0  0  0  0  0  0  0
  -19.0630  -27.2030   14.7220 H   0  0  0  0  0  0  0  0  0  0  0  0
  -25.2030  -25.2580   15.3420 C   0  0  0  0  0  0  0  0  0  0  0  0
  -26.4350  -25.7980   15.5950 C   0  0  0  0  0  0  0  0  0  0  0  0
  -26.6470  -26.7780   14.5810 C   0  0  0  0  0  0  0  0  0  0  0  0
  -24.7100  -25.9330   14.2380 N   0  0  0  0  0  0  0  0  0  0  0  0
  -25.5750  -26.8870   13.8110 N   0  0  0  0  0  0  0  0  0  0  0  0
  -27.8360  -27.5780   14.2570 C   0  0  0  0  0  0  0  0  0  0  0  0
  -27.7800  -28.9840   14.1540 C   0  0  0  0  0  3  0  0  0  0  0  0
  -28.9430  -29.7230   13.8520 C   0  0  0  0  0  3  0  0  0  0  0  0
  -30.1790  -29.0620   13.6600 C   0  0  0  0  0  0  0  0  0  0  0  0
  -30.2220  -27.6610   13.7380 C   0  0  0  0  0  3  0  0  0  0  0  0
  -29.0620  -26.9240   14.0320 C   0  0  0  0  0  3  0  0  0  0  0  0
  -31.3510  -29.7010   13.3380 O   0  0  0  0  0  0  0  0  0  0  0  0
  -31.5890  -30.9960   13.7210 C   0  0  0  0  0  0  0  0  0  0  0  0
  -31.5970  -31.3810   15.0800 C   0  0  0  0  0  3  0  0  0  0  0  0
  -31.9120  -32.7080   15.4340 C   0  0  0  0  0  3  0  0  0  0  0  0
  -32.2300  -33.6460   14.4320 C   0  0  0  0  0  0  0  0  0  0  0  0
  -32.2290  -33.2630   13.0780 C   0  0  0  0  0  3  0  0  0  0  0  0
  -31.9140  -31.9400   12.7240 C   0  0  0  0  0  0  0  0  0  0  0  0
  -31.9320  -31.5690   11.4210 F   0  0  0  0  0  0  0  0  0  0  0  0
  -32.5460  -34.9170   14.7700 F   0  0  0  0  0  0  0  0  0  0  0  0
  -27.4020  -25.3460   16.6500 C   0  0  0  0  0  0  0  0  0  0  0  0
  -28.2270  -26.2570   17.1540 N   0  0  0  0  0  0  0  0  0  0  0  0
  -27.4070  -24.1870   17.0570 O   0  0  0  0  0  0  0  0  0  0  0  0
  -28.2160  -27.2130   16.8270 H   0  0  0  0  0  0  0  0  0  0  0  0
  -28.8890  -25.9930   17.8730 H   0  0  0  0  0  0  0  0  0  0  0  0
  -24.4950  -24.2250   15.9340 N   0  0  0  0  0  0  0  0  0  0  0  0
  -25.0010  -23.6110   16.5630 H   0  0  0  0  0  0  0  0  0  0  0  0
  -23.7730  -23.7480   15.4100 H   0  0  0  0  0  0  0  0  0  0  0  0
  -25.7130  -20.7730   26.5030 C   0  0  0  0  0  2  0  0  0  0  0  0
  -26.8450  -21.5520   25.8000 C   0  0  0  0  0  2  0  0  0  0  0  0
  -28.1500  -21.6150   26.6090 C   0  0  0  0  0  2  0  0  0  0  0  0
  -29.0600  -22.5570   26.0460 O   0  0  0  0  0  0  0  0  0  0  0  0
  -29.6800  -22.1360   24.8340 C   0  0  0  0  0  2  0  0  0  0  0  0
  -30.1580  -23.3720   24.0580 C   0  0  0  0  0  2  0  0  0  0  0  0
  -29.1070  -23.9280   23.2790 O   0  0  0  0  0  0  0  0  0  0  0  0
  -29.4530  -25.2060   22.7470 C   0  0  0  0  0  2  0  0  0  0  0  0
  -28.6750  -25.4870   21.4520 C   0  0  0  0  0  2  0  0  0  0  0  0
  -28.8310  -26.8630   21.0810 O   0  0  0  0  0  0  0  0  0  0  0  0
  -24.9280  -32.1040   23.8470 C   0  0  0  0  0  0  0  0  0  0  0  0
  -27.6730  -27.5950   20.9930 C   0  0  0  0  0  0  0  0  0  0  0  0
  -23.7900  -30.6920   22.1630 C   0  0  0  0  0  3  0  0  0  0  0  0
  -25.3000  -29.1180   20.8420 C   0  0  0  0  0  0  0  0  0  0  0  0
  -26.3260  -31.0210   22.0960 C   0  0  0  0  0  2  0  0  0  0  0  0
  -26.4290  -29.6420   21.4830 C   0  0  0  0  0  0  0  0  0  0  0  0
  -27.6210  -28.8890   21.5530 C   0  0  0  0  0  3  0  0  0  0  0  0
  -26.5340  -27.0870   20.3290 C   0  0  0  0  0  3  0  0  0  0  0  0
  -25.3470  -27.8390   20.2600 C   0  0  0  0  0  3  0  0  0  0  0  0
  -24.0630  -29.9880   20.8080 C   0  0  0  0  0  2  0  0  0  0  0  0
  -25.0290  -31.2880   22.7600 N   0  0  0  0  0  0  0  0  0  0  0  0
  -23.8230  -32.4030   24.3240 O   0  0  0  0  0  0  0  0  0  0  0  0
  -23.0770  -29.6950   23.1030 C   0  0  0  0  0  0  0  0  0  0  0  0
  -21.7650  -29.5110   22.8920 N   0  0  0  0  0  0  0  0  0  0  0  0
  -23.7030  -29.0880   23.9760 O   0  0  0  0  0  0  0  0  0  0  0  0
  -21.3240  -30.0540   22.1640 H   0  0  0  0  0  0  0  0  0  0  0  0
  -18.3960  -28.2310   23.0880 C   0  0  0  0  0  0  0  0  0  0  0  0
  -20.8950  -28.5930   23.6290 C   0  0  0  0  0  3  0  0  0  0  0  0
  -21.0990  -27.1290   23.1720 C   0  0  0  0  0  2  0  0  0  0  0  0
  -20.1380  -26.7030   22.0580 C   0  0  0  0  0  2  0  0  0  0  0  0
  -18.6840  -26.8530   22.5170 C   0  0  0  0  0  2  0  0  0  0  0  0
  -19.4350  -29.0540   23.5900 C   0  0  0  0  0  0  0  0  0  0  0  0
  -19.1190  -30.3450   24.0670 C   0  0  0  0  0  3  0  0  0  0  0  0
  -17.7930  -30.8110   24.0570 C   0  0  0  0  0  3  0  0  0  0  0  0
  -16.7620  -29.9850   23.5790 C   0  0  0  0  0  3  0  0  0  0  0  0
  -17.0630  -28.6960   23.1000 C   0  0  0  0  0  3  0  0  0  0  0  0
  -26.1880  -32.7280   24.5230 C   0  0  0  0  0  3  0  0  0  0  0  0
  -25.9430  -34.1670   24.6810 N   0  0  0  0  0  0  0  0  0  0  0  0
  -26.4330  -35.1150   23.8700 C   0  0  0  0  0  0  0  0  0  0  0  0
  -27.2130  -34.8690   22.9470 O   0  0  0  0  0  0  0  0  0  0  0  0
  -25.2710  -34.4350   25.3850 H   0  0  0  0  0  0  0  0  0  0  0  0
  -24.9110  -36.9650   23.1070 C   0  0  0  0  0  1  0  0  0  0  0  0
  -25.9890  -36.5680   24.1280 C   0  0  0  0  0  3  0  0  0  0  0  0
  -28.0440  -37.3930   25.1890 C   0  0  0  0  0  1  0  0  0  0  0  0
  -27.1040  -37.5400   24.0810 N   0  0  0  0  0  0  0  0  0  0  0  0
  -26.7500  -38.4930   24.0900 H   0  0  0  0  0  0  0  0  0  0  0  0
  -26.5380  -32.0670   25.9130 C   0  0  1  0  0  0  0  0  0  0  0  0
  -25.3270  -31.9570   26.8670 C   0  0  0  0  0  1  0  0  0  0  0  0
  -27.1170  -30.6470   25.7130 C   0  0  0  0  0  1  0  0  0  0  0  0
  -27.6350  -32.8920   26.6260 C   0  0  0  0  0  1  0  0  0  0  0  0
  1  4  1  0
  1 54  1  0
  2  1  1  0
  3  1  1  0
  5  4  1  0
  6  5  1  0
  7  6  1  0
  8  7  1  0
  9  8  1  0
 10  9  1  0
 11 10  1  0
 12 11  1  0
 13 12  1  0
 14 13  1  0
 15 14  1  0
 16 24  1  0
 17 22  1  0
 18 17  1  0
 18 19  1  0
 20 19  1  0
 20 29  1  0
 21 20  1  0
 22 16  1  0
 22 21  1  0
 23 16  2  0
 24 25  1  0
 24 15  1  0
 26 27  2  0
 26 51  1  0
 27 46  1  0
 28 27  1  0
 29 26  1  0
 30 29  1  0
 30 28  2  0
 31 28  1  0
 32 31  1  0
 33 32  2  0
 34 35  2  0
 34 33  1  0
 35 36  1  0
 36 31  2  0
 37 34  1  0
 37 38  1  0
 38 39  1  0
 39 40  2  0
 41 45  1  0
 41 40  1  0
 42 41  2  0
 43 42  1  0
 43 38  2  0
 44 43  1  0
 46 48  2  0
 46 47  1  0
 47 50  1  0
 49 47  1  0
 51 52  1  0
 53 51  1  0
 55 54  1  0
 55 56  1  0
 57 56  1  0
 58 57  1  0
 59 58  1  0
 60 59  1  0
 61 60  1  0
 62 61  1  0
 63 62  1  0
 64 75  2  0
 65 63  1  0
 65 70  1  0
 66 74  1  0
 66 76  1  0
 67 69  1  0
 68 74  1  0
 69 70  2  0
 69 68  1  0
 71 65  2  0
 72 71  1  0
 72 67  2  0
 73 67  1  0
 73 66  1  0
 74 64  1  0
 76 78  2  0
 77 76  1  0
 79 77  1  0
 80 89  2  0
 80 85  1  0
 81 77  1  0
 82 81  1  0
 83 84  1  0
 83 82  1  0
 84 80  1  0
 85 81  1  0
 85 86  2  0
 87 86  1  0
 88 87  2  0
 89 88  1  0
 90 64  1  0
 90 91  1  0
 90100  1  0
 91 94  1  0
 92 96  1  0
 92 91  1  0
 93 92  2  0
 96 95  1  0
 98 99  1  0
 98 96  1  0
 98 97  1  0
100103  1  1
100101  1  0
102100  1  0
M  ISO  4  16 100  24 100  62 101  63 101
M  END
>  <TORSDO>  (56) 
F 37

>  <SCORE>  (56) 
30.436

>  <name>  (56) 
59

>  <ligand_id>  (56) 
59

>  <original_smiles>  (56) 
[H]c1c([H])c([H])c2c(c1[H])C([H])([H])C([H])([H])C([H])([H])C2([H])N([H])C(=O)C1([H])N(C(=O)C([H])(N([H])C(=O)C([H])(N([H])C([H])([H])[H])C([H])([H])[H])C(C([H])([H])[H])(C([H])([H])[H])C([H])([H])[H])C([H])([H])c2c([H])c(OC([H])([H])C([H])([H])OC([H])([H])C([H])([H])OC([H])([H])C([H])([H])C([H])([H])[N+]([H])([H])C([H])([H])C([H])([H])OC([H])([H])C([H])([H])C([H])([H])C([H])([H])C([H])([H])OC([H])([H])C([H])([H])C([H])([H])N([H])C(=O)N3C([H])([H])C([H])([H])C([H])([H])C([H])(n4nc(-c5c([H])c([H])c(Oc6c([H])c([H])c(F)c([H])c6F)c([H])c5[H])c(C(=O)N([H])[H])c4N([H])[H])C3([H])[H])c([H])c([H])c2C1([H])[H]

>  <smiles>  (56) 
[H]c1c([H])c([H])c2c(c1[H])C([H])([H])C([H])([H])C([H])([H])C2([H])N([H])C(=O)C1([H])N(C(=O)C([H])(N([H])C(=O)C([H])(N([H])C([H])([H])[H])C([H])([H])[H])C(C([H])([H])[H])(C([H])([H])[H])C([H])([H])[H])C([H])([H])c2c([H])c(OC([H])([H])C([H])([H])OC([H])([H])C([H])([H])OC([H])([H])C([H])([H])C([H])([H])[N+]([H])([H])C([H])([H])C([H])([H])OC([H])([H])C([H])([H])C([H])([H])C([H])([H])C([H])([H])OC([H])([H])C([H])([H])C([H])([H])N([H])C(=O)N3C([H])([H])C([H])([H])C([H])([H])C([H])(n4nc(-c5c([H])c([H])c(Oc6c([H])c([H])c(F)c([H])c6F)c([H])c5[H])c(C(=O)N([H])[H])c4N([H])[H])C3([H])[H])c([H])c([H])c2C1([H])[H]

$$$$
60:0:0
     RDKit          3D

 93100  0  0  1  0  0  0  0  0999 V2000
  -28.1850  -19.4420   20.8170 C   0  0  0  0  0  2  0  0  0  0  0  0
  -28.1860  -20.5270   19.7020 C   0  0  0  0  0  2  0  0  0  0  0  0
  -28.7290  -21.7710   20.1740 O   0  0  0  0  0  0  0  0  0  0  0  0
  -28.6700  -22.8670   19.2440 C   0  0  0  0  0  2  0  0  0  0  0  0
  -28.8000  -24.2140   20.0110 C   0  0  0  0  0  2  0  0  0  0  0  0
  -28.6270  -25.5070   19.1650 C   0  0  0  0  0  2  0  0  0  0  0  0
  -28.5190  -26.7070   19.9910 O   0  0  0  0  0  0  0  0  0  0  0  0
  -24.6660  -31.8370   23.2680 C   0  0  0  0  0  0  0  0  0  0  0  0
  -27.3290  -27.4260   20.0640 C   0  0  0  0  0  0  0  0  0  0  0  0
  -23.4750  -30.4530   21.6090 C   0  0  0  0  0  3  0  0  0  0  0  0
  -24.9310  -28.9530   20.1660 C   0  0  0  0  0  0  0  0  0  0  0  0
  -26.0090  -30.8190   21.4210 C   0  0  0  0  0  2  0  0  0  0  0  0
  -26.0990  -29.4610   20.7460 C   0  0  0  0  0  0  0  0  0  0  0  0
  -27.3020  -28.7060   20.6910 C   0  0  0  0  0  3  0  0  0  0  0  0
  -26.1120  -26.9300   19.5370 C   0  0  0  0  0  3  0  0  0  0  0  0
  -24.9330  -27.6870   19.5740 C   0  0  0  0  0  3  0  0  0  0  0  0
  -23.6890  -29.8080   20.2190 C   0  0  0  0  0  2  0  0  0  0  0  0
  -24.7360  -31.0520   22.1550 N   0  0  0  0  0  0  0  0  0  0  0  0
  -23.5800  -32.0930   23.8070 O   0  0  0  0  0  0  0  0  0  0  0  0
  -22.8290  -29.4080   22.5460 C   0  0  0  0  0  0  0  0  0  0  0  0
  -21.5120  -29.1970   22.3980 N   0  0  0  0  0  0  0  0  0  0  0  0
  -23.5130  -28.7900   23.3670 O   0  0  0  0  0  0  0  0  0  0  0  0
  -21.0190  -29.7540   21.7140 H   0  0  0  0  0  0  0  0  0  0  0  0
  -18.1640  -27.8970   22.8110 C   0  0  0  0  0  0  0  0  0  0  0  0
  -20.7050  -28.2340   23.1480 C   0  0  0  0  0  3  0  0  0  0  0  0
  -20.8680  -26.8050   22.5780 C   0  0  0  0  0  2  0  0  0  0  0  0
  -19.8030  -26.4520   21.5350 C   0  0  0  0  0  2  0  0  0  0  0  0
  -18.3970  -26.5560   22.1360 C   0  0  0  0  0  2  0  0  0  0  0  0
  -19.2460  -28.6930   23.2700 C   0  0  0  0  0  0  0  0  0  0  0  0
  -18.9700  -29.9500   23.8540 C   0  0  0  0  0  3  0  0  0  0  0  0
  -17.6470  -30.4100   23.9860 C   0  0  0  0  0  3  0  0  0  0  0  0
  -16.5780  -29.6110   23.5410 C   0  0  0  0  0  3  0  0  0  0  0  0
  -16.8370  -28.3560   22.9610 C   0  0  0  0  0  3  0  0  0  0  0  0
  -25.9410  -32.4710   23.9010 C   0  0  0  0  0  3  0  0  0  0  0  0
  -26.4620  -31.6900   25.1700 C   0  0  1  0  0  0  0  0  0  0  0  0
  -25.3670  -31.4220   26.2310 C   0  0  0  0  0  1  0  0  0  0  0  0
  -27.0680  -30.3270   24.7620 C   0  0  0  0  0  1  0  0  0  0  0  0
  -27.5990  -32.4920   25.8480 C   0  0  0  0  0  1  0  0  0  0  0  0
  -25.6170  -33.8620   24.2470 N   0  0  0  0  0  0  0  0  0  0  0  0
  -25.9390  -34.9260   23.4990 C   0  0  0  0  0  0  0  0  0  0  0  0
  -26.6070  -34.8410   22.4650 O   0  0  0  0  0  0  0  0  0  0  0  0
  -25.0200  -34.0010   25.0500 H   0  0  0  0  0  0  0  0  0  0  0  0
  -24.1860  -36.7030   23.1710 C   0  0  0  0  0  1  0  0  0  0  0  0
  -25.4350  -36.3040   23.9730 C   0  0  0  0  0  3  0  0  0  0  0  0
  -27.5620  -37.2040   24.8070 C   0  0  0  0  0  1  0  0  0  0  0  0
  -26.4560  -37.3700   23.8680 N   0  0  0  0  0  0  0  0  0  0  0  0
  -26.0410  -38.2840   24.0250 H   0  0  0  0  0  0  0  0  0  0  0  0
  -29.0740  -18.3340   20.5870 O   0  0  0  0  0  0  0  0  0  0  0  0
  -28.9300  -17.3020   21.5840 C   0  0  0  0  0  2  0  0  0  0  0  0
  -29.8460  -16.0490   21.4050 C   0  0  0  0  0  3  0  0  0  0  0  0
  -30.2590  -14.3800   19.5950 C   0  0  0  0  0  0  0  0  0  0  0  0
  -29.7950  -12.2630   18.4200 C   0  0  0  0  0  2  0  0  0  0  0  0
  -28.7030  -12.5090   17.3590 C   0  0  0  0  0  2  0  0  0  0  0  0
  -27.3060  -12.3250   17.9880 C   0  0  0  0  0  2  0  0  0  0  0  0
  -27.1360  -13.1230   19.3100 C   0  0  0  0  0  3  0  0  0  0  0  0
  -28.3330  -12.8920   20.2560 C   0  0  0  0  0  2  0  0  0  0  0  0
  -29.5660  -13.2120   19.5200 N   0  0  0  0  0  0  0  0  0  0  0  0
  -31.3010  -14.5780   18.9750 O   0  0  0  0  0  0  0  0  0  0  0  0
  -29.5840  -15.4270   20.1000 N   0  0  0  0  0  0  0  0  0  0  0  0
  -29.6130  -16.1860   19.4340 H   0  0  0  0  0  0  0  0  0  0  0  0
  -24.8460  -13.6700   20.3320 C   0  0  0  0  0  0  0  0  0  0  0  0
  -23.8500  -12.8690   20.8290 C   0  0  0  0  0  0  0  0  0  0  0  0
  -24.3310  -11.5290   20.7260 C   0  0  0  0  0  0  0  0  0  0  0  0
  -25.8670  -12.8130   19.9590 N   0  0  0  0  0  0  0  0  0  0  0  0
  -25.5700  -11.5200   20.2510 N   0  0  0  0  0  0  0  0  0  0  0  0
  -23.6650  -10.2490   21.0010 C   0  0  0  0  0  0  0  0  0  0  0  0
  -24.2030   -9.3180   21.9170 C   0  0  0  0  0  3  0  0  0  0  0  0
  -23.5350   -8.1020   22.1750 C   0  0  0  0  0  3  0  0  0  0  0  0
  -22.3120   -7.8090   21.5250 C   0  0  0  0  0  0  0  0  0  0  0  0
  -21.7930   -8.7300   20.6010 C   0  0  0  0  0  3  0  0  0  0  0  0
  -22.4620   -9.9380   20.3390 C   0  0  0  0  0  3  0  0  0  0  0  0
  -21.6100   -6.6410   21.6930 O   0  0  0  0  0  0  0  0  0  0  0  0
  -21.6400   -5.9490   22.8780 C   0  0  0  0  0  0  0  0  0  0  0  0
  -21.2500   -6.5420   24.0990 C   0  0  0  0  0  3  0  0  0  0  0  0
  -21.2260   -5.7720   25.2800 C   0  0  0  0  0  3  0  0  0  0  0  0
  -21.5840   -4.4110   25.2410 C   0  0  0  0  0  0  0  0  0  0  0  0
  -21.9710   -3.8190   24.0260 C   0  0  0  0  0  3  0  0  0  0  0  0
  -21.9920   -4.5850   22.8480 C   0  0  0  0  0  0  0  0  0  0  0  0
  -22.3440   -4.0030   21.6760 F   0  0  0  0  0  0  0  0  0  0  0  0
  -21.5550   -3.6690   26.3740 F   0  0  0  0  0  0  0  0  0  0  0  0
  -22.4930  -13.3170   21.2870 C   0  0  0  0  0  0  0  0  0  0  0  0
  -21.9140  -12.6040   22.2490 N   0  0  0  0  0  0  0  0  0  0  0  0
  -21.9620  -14.3270   20.8320 O   0  0  0  0  0  0  0  0  0  0  0  0
  -22.3650  -11.7880   22.6380 H   0  0  0  0  0  0  0  0  0  0  0  0
  -21.0150  -12.8820   22.6170 H   0  0  0  0  0  0  0  0  0  0  0  0
  -24.9550  -15.0450   20.1450 N   0  0  0  0  0  0  0  0  0  0  0  0
  -24.1880  -15.6830   20.3310 H   0  0  0  0  0  0  0  0  0  0  0  0
  -25.7560  -15.4990   19.7230 H   0  0  0  0  0  0  0  0  0  0  0  0
  -31.3390  -16.3860   21.6140 C   0  0  0  0  0  0  0  0  0  0  0  0
  -31.9800  -15.8290   22.6370 N   0  0  0  0  0  0  0  0  0  0  0  0
  -31.9260  -17.1370   20.8410 O   0  0  0  0  0  0  0  0  0  0  0  0
  -31.5070  -15.2040   23.2770 H   0  0  0  0  0  0  0  0  0  0  0  0
  -32.9610  -16.0250   22.7820 H   0  0  0  0  0  0  0  0  0  0  0  0
  2  3  1  0
  2  1  1  0
  4  5  1  0
  4  3  1  0
  6  7  1  0
  6  5  1  0
  7  9  1  0
  8 19  2  0
  9 14  1  0
 10 18  1  0
 10 20  1  0
 11 17  1  0
 11 13  1  0
 12 18  1  0
 13 12  1  0
 14 13  2  0
 15 16  1  0
 15  9  2  0
 16 11  2  0
 17 10  1  0
 18  8  1  0
 20 22  2  0
 21 20  1  0
 23 21  1  0
 24 33  2  0
 24 29  1  0
 25 21  1  0
 25 29  1  0
 26 25  1  0
 27 28  1  0
 27 26  1  0
 28 24  1  0
 29 30  2  0
 30 31  1  0
 32 31  2  0
 33 32  1  0
 34  8  1  0
 34 39  1  0
 34 35  1  0
 35 38  1  1
 35 36  1  0
 37 35  1  0
 39 42  1  0
 40 44  1  0
 40 39  1  0
 41 40  2  0
 44 43  1  0
 46 44  1  0
 46 47  1  0
 46 45  1  0
 48  1  1  0
 48 49  1  0
 50 49  1  0
 50 89  1  0
 51 59  1  0
 52 57  1  0
 53 54  1  0
 53 52  1  0
 55 54  1  0
 55 64  1  0
 55 56  1  0
 57 51  1  0
 57 56  1  0
 58 51  2  0
 59 50  1  0
 60 59  1  0
 61 62  2  0
 62 81  1  0
 63 62  1  0
 63 66  1  0
 64 65  1  0
 64 61  1  0
 65 63  2  0
 66 67  1  0
 67 68  2  0
 69 72  1  0
 69 68  1  0
 70 69  2  0
 71 70  1  0
 71 66  2  0
 72 73  1  0
 73 74  1  0
 74 75  2  0
 76 75  1  0
 76 80  1  0
 77 76  2  0
 78 73  2  0
 78 77  1  0
 79 78  1  0
 81 82  1  0
 82 85  1  0
 82 84  1  0
 83 81  2  0
 86 87  1  0
 86 61  1  0
 88 86  1  0
 89 90  1  0
 90 93  1  0
 90 92  1  0
 91 89  2  0
M  ISO  4   6 101   7 101  51 100  59 100
M  END
>  <TORSDO>  (57) 
F 25

>  <SCORE>  (57) 
-8.847

>  <name>  (57) 
60

>  <ligand_id>  (57) 
60

>  <original_smiles>  (57) 
[H]c1c([H])c([H])c2c(c1[H])C([H])([H])C([H])([H])C([H])([H])C2([H])N([H])C(=O)C1([H])N(C(=O)C([H])(N([H])C(=O)C([H])(N([H])C([H])([H])[H])C([H])([H])[H])C(C([H])([H])[H])(C([H])([H])[H])C([H])([H])[H])C([H])([H])c2c([H])c(OC([H])([H])C([H])([H])C([H])([H])OC([H])([H])C([H])([H])OC([H])([H])C([H])(C(=O)N([H])[H])N([H])C(=O)N3C([H])([H])C([H])([H])C([H])([H])C([H])(n4nc(-c5c([H])c([H])c(Oc6c([H])c([H])c(F)c([H])c6F)c([H])c5[H])c(C(=O)N([H])[H])c4N([H])[H])C3([H])[H])c([H])c([H])c2C1([H])[H]

>  <smiles>  (57) 
[H]c1c([H])c([H])c2c(c1[H])C([H])([H])C([H])([H])C([H])([H])C2([H])N([H])C(=O)C1([H])N(C(=O)C([H])(N([H])C(=O)C([H])(N([H])C([H])([H])[H])C([H])([H])[H])C(C([H])([H])[H])(C([H])([H])[H])C([H])([H])[H])C([H])([H])c2c([H])c(OC([H])([H])C([H])([H])C([H])([H])OC([H])([H])C([H])([H])OC([H])([H])C([H])(C(=O)N([H])[H])N([H])C(=O)N3C([H])([H])C([H])([H])C([H])([H])C([H])(n4nc(-c5c([H])c([H])c(Oc6c([H])c([H])c(F)c([H])c6F)c([H])c5[H])c(C(=O)N([H])[H])c4N([H])[H])C3([H])[H])c([H])c([H])c2C1([H])[H]

$$$$
61:0:0
     RDKit          3D

110117  0  0  1  0  0  0  0  0999 V2000
  -33.1330  -16.3020   25.8850 C   0  0  0  0  0  3  0  0  0  0  0  0
  -34.2720  -17.3300   26.0930 C   0  0  0  0  0  0  0  0  0  0  0  0
  -34.4370  -18.2800   25.1770 N   0  0  0  0  0  0  0  0  0  0  0  0
  -34.9890  -17.2970   27.0930 O   0  0  0  0  0  0  0  0  0  0  0  0
  -33.8150  -18.2960   24.3850 H   0  0  0  0  0  0  0  0  0  0  0  0
  -35.1140  -19.0160   25.3040 H   0  0  0  0  0  0  0  0  0  0  0  0
  -31.2600  -17.1560   24.4650 C   0  0  0  0  0  0  0  0  0  0  0  0
  -32.4270  -16.5160   24.6180 N   0  0  0  0  0  0  0  0  0  0  0  0
  -30.6230  -17.6070   25.4180 O   0  0  0  0  0  0  0  0  0  0  0  0
  -32.9060  -16.1440   23.8070 H   0  0  0  0  0  0  0  0  0  0  0  0
  -30.7190  -17.2940   23.0420 C   0  0  0  0  0  2  0  0  0  0  0  0
  -31.3900  -18.4220   22.2290 C   0  0  0  0  0  2  0  0  0  0  0  0
  -31.1750  -19.7280   22.7700 O   0  0  0  0  0  0  0  0  0  0  0  0
  -31.4070  -20.7430   21.7940 C   0  0  0  0  0  2  0  0  0  0  0  0
  -31.1580  -22.1650   22.3270 C   0  0  0  0  0  2  0  0  0  0  0  0
  -30.7070  -22.9740   21.2400 O   0  0  0  0  0  0  0  0  0  0  0  0
  -30.5530  -24.3590   21.5400 C   0  0  0  0  0  2  0  0  0  0  0  0
  -29.8730  -25.0570   20.3450 C   0  0  0  0  0  2  0  0  0  0  0  0
  -29.9320  -26.5960   20.3990 C   0  0  0  0  0  2  0  0  0  0  0  0
  -29.2950  -27.1340   19.2370 O   0  0  0  0  0  0  0  0  0  0  0  0
  -24.6790  -31.0960   22.9820 C   0  0  0  0  0  0  0  0  0  0  0  0
  -28.0300  -27.6460   19.3910 C   0  0  0  0  0  0  0  0  0  0  0  0
  -23.7210  -29.7610   21.1300 C   0  0  0  0  0  3  0  0  0  0  0  0
  -25.4150  -28.6940   19.5470 C   0  0  0  0  0  0  0  0  0  0  0  0
  -26.1480  -30.5570   21.0450 C   0  0  0  0  0  2  0  0  0  0  0  0
  -26.4590  -29.3180   20.2360 C   0  0  0  0  0  0  0  0  0  0  0  0
  -27.7720  -28.8020   20.1580 C   0  0  0  0  0  3  0  0  0  0  0  0
  -26.9730  -27.0320   18.6910 C   0  0  0  0  0  3  0  0  0  0  0  0
  -25.6630  -27.5480   18.7710 C   0  0  0  0  0  3  0  0  0  0  0  0
  -24.0460  -29.3210   19.6760 C   0  0  0  0  0  2  0  0  0  0  0  0
  -24.8630  -30.4810   21.7790 N   0  0  0  0  0  0  0  0  0  0  0  0
  -23.5690  -31.1100   23.5310 O   0  0  0  0  0  0  0  0  0  0  0  0
  -23.2430  -28.5250   21.9240 C   0  0  0  0  0  0  0  0  0  0  0  0
  -21.9580  -28.1730   21.7640 N   0  0  0  0  0  0  0  0  0  0  0  0
  -24.0260  -27.8900   22.6370 O   0  0  0  0  0  0  0  0  0  0  0  0
  -21.3780  -28.7480   21.1690 H   0  0  0  0  0  0  0  0  0  0  0  0
  -18.7990  -26.4440   22.0730 C   0  0  0  0  0  0  0  0  0  0  0  0
  -21.2990  -27.0230   22.3830 C   0  0  0  0  0  3  0  0  0  0  0  0
  -21.5910  -25.7240   21.5950 C   0  0  0  0  0  2  0  0  0  0  0  0
  -20.5250  -25.4050   20.5420 C   0  0  0  0  0  2  0  0  0  0  0  0
  -19.1510  -25.2510   21.2000 C   0  0  0  0  0  2  0  0  0  0  0  0
  -19.8070  -27.2850   22.6160 C   0  0  0  0  0  0  0  0  0  0  0  0
  -19.4230  -28.3980   23.3940 C   0  0  0  0  0  3  0  0  0  0  0  0
  -18.0640  -28.6760   23.6340 C   0  0  0  0  0  3  0  0  0  0  0  0
  -17.0720  -27.8320   23.1070 C   0  0  0  0  0  3  0  0  0  0  0  0
  -17.4400  -26.7170   22.3310 C   0  0  0  0  0  3  0  0  0  0  0  0
  -25.8470  -31.8310   23.7140 C   0  0  0  0  0  3  0  0  0  0  0  0
  -26.3650  -31.0630   24.9910 C   0  0  1  0  0  0  0  0  0  0  0  0
  -25.2450  -30.6860   25.9890 C   0  0  0  0  0  1  0  0  0  0  0  0
  -27.0920  -29.7590   24.5860 C   0  0  0  0  0  1  0  0  0  0  0  0
  -27.3990  -31.9330   25.7460 C   0  0  0  0  0  1  0  0  0  0  0  0
  -25.3710  -33.1740   24.0740 N   0  0  0  0  0  0  0  0  0  0  0  0
  -25.6450  -34.2870   23.3800 C   0  0  0  0  0  0  0  0  0  0  0  0
  -26.3970  -34.2970   22.4010 O   0  0  0  0  0  0  0  0  0  0  0  0
  -24.7100  -33.2310   24.8350 H   0  0  0  0  0  0  0  0  0  0  0  0
  -23.7730  -35.9080   22.9490 C   0  0  0  0  0  1  0  0  0  0  0  0
  -24.9800  -35.5950   23.8470 C   0  0  0  0  0  3  0  0  0  0  0  0
  -26.9420  -36.6500   24.8830 C   0  0  0  0  0  1  0  0  0  0  0  0
  -25.9020  -36.7520   23.8630 N   0  0  0  0  0  0  0  0  0  0  0  0
  -25.3920  -37.6170   24.0170 H   0  0  0  0  0  0  0  0  0  0  0  0
  -33.6920  -14.8620   25.8710 C   0  0  0  0  0  2  0  0  0  0  0  0
  -34.1500  -14.5110   24.5660 O   0  0  0  0  0  0  0  0  0  0  0  0
  -34.4790  -13.1310   24.4030 C   0  0  0  0  0  2  0  0  0  0  0  0
  -35.9720  -12.9100   24.1150 C   0  0  0  0  0  2  0  0  0  0  0  0
  -36.2250  -12.9940   22.7190 O   0  0  0  0  0  0  0  0  0  0  0  0
  -37.4790  -12.4190   22.3700 C   0  0  0  0  0  2  0  0  0  0  0  0
  -37.5500  -12.1010   20.8680 C   0  0  0  0  0  2  0  0  0  0  0  0
  -37.6720  -13.3520   19.9850 C   0  0  0  0  0  2  0  0  0  0  0  0
  -36.3810  -13.9200   19.8590 O   0  0  0  0  0  0  0  0  0  0  0  0
  -36.3340  -15.2590   19.4030 C   0  0  0  0  0  2  0  0  0  0  0  0
  -34.8680  -15.6910   19.1690 C   0  0  0  0  0  2  0  0  0  0  0  0
  -33.8630  -15.2730   20.2690 C   0  0  0  0  0  2  0  0  0  0  0  0
  -32.8600  -13.2760   18.9850 C   0  0  0  0  0  0  0  0  0  0  0  0
  -31.7880  -11.2060   18.1920 C   0  0  0  0  0  2  0  0  0  0  0  0
  -30.6410  -11.5270   17.2160 C   0  0  0  0  0  2  0  0  0  0  0  0
  -29.3280  -11.7680   17.9820 C   0  0  0  0  0  2  0  0  0  0  0  0
  -29.5000  -12.7750   19.1500 C   0  0  0  0  0  3  0  0  0  0  0  0
  -30.7260  -12.4090   20.0170 C   0  0  0  0  0  2  0  0  0  0  0  0
  -31.9090  -12.3210   19.1430 N   0  0  0  0  0  0  0  0  0  0  0  0
  -33.6280  -13.2810   18.0240 O   0  0  0  0  0  0  0  0  0  0  0  0
  -32.9150  -14.1790   19.9780 N   0  0  0  0  0  0  0  0  0  0  0  0
  -32.1960  -14.0460   20.6740 H   0  0  0  0  0  0  0  0  0  0  0  0
  -27.7730  -13.9480   20.6600 C   0  0  0  0  0  0  0  0  0  0  0  0
  -26.5760  -13.5270   21.1750 C   0  0  0  0  0  0  0  0  0  0  0  0
  -26.4090  -12.1780   20.7360 C   0  0  0  0  0  0  0  0  0  0  0  0
  -28.2810  -12.8690   19.9520 N   0  0  0  0  0  0  0  0  0  0  0  0
  -27.4720  -11.7840   20.0480 N   0  0  0  0  0  0  0  0  0  0  0  0
  -25.2750  -11.2570   20.8810 C   0  0  0  0  0  0  0  0  0  0  0  0
  -25.4540   -9.9220   21.3080 C   0  0  0  0  0  3  0  0  0  0  0  0
  -24.3450   -9.0640   21.4610 C   0  0  0  0  0  3  0  0  0  0  0  0
  -23.0390   -9.5380   21.1900 C   0  0  0  0  0  0  0  0  0  0  0  0
  -22.8680  -10.8580   20.7390 C   0  0  0  0  0  3  0  0  0  0  0  0
  -23.9740  -11.7090   20.5820 C   0  0  0  0  0  3  0  0  0  0  0  0
  -21.9060   -8.7660   21.2830 O   0  0  0  0  0  0  0  0  0  0  0  0
  -21.8780   -7.6180   22.0340 C   0  0  0  0  0  0  0  0  0  0  0  0
  -22.0770   -7.6350   23.4310 C   0  0  0  0  0  3  0  0  0  0  0  0
  -21.9710   -6.4420   24.1730 C   0  0  0  0  0  3  0  0  0  0  0  0
  -21.6560   -5.2330   23.5220 C   0  0  0  0  0  0  0  0  0  0  0  0
  -21.4500   -5.2150   22.1310 C   0  0  0  0  0  3  0  0  0  0  0  0
  -21.5560   -6.4050   21.3910 C   0  0  0  0  0  0  0  0  0  0  0  0
  -21.3380   -6.3840   20.0550 F   0  0  0  0  0  0  0  0  0  0  0  0
  -21.5430   -4.0890   24.2360 F   0  0  0  0  0  0  0  0  0  0  0  0
  -25.5960  -14.3550   21.9540 C   0  0  0  0  0  0  0  0  0  0  0  0
  -24.8430  -13.7250   22.8510 N   0  0  0  0  0  0  0  0  0  0  0  0
  -25.5320  -15.5740   21.8100 O   0  0  0  0  0  0  0  0  0  0  0  0
  -24.9130  -12.7250   22.9750 H   0  0  0  0  0  0  0  0  0  0  0  0
  -24.1890  -14.2480   23.4170 H   0  0  0  0  0  0  0  0  0  0  0  0
  -28.4600  -15.1580   20.7180 N   0  0  0  0  0  0  0  0  0  0  0  0
  -28.0860  -15.9700   21.1960 H   0  0  0  0  0  0  0  0  0  0  0  0
  -29.3360  -15.3420   20.2430 H   0  0  0  0  0  0  0  0  0  0  0  0
  1 61  1  0
  1  2  1  0
  2  4  2  0
  3  6  1  0
  3  2  1  0
  5  3  1  0
  7  8  1  0
  7  9  2  0
  8  1  1  0
 10  8  1  0
 11  7  1  0
 12 13  1  0
 12 11  1  0
 14 15  1  0
 14 13  1  0
 16 17  1  0
 16 15  1  0
 18 19  1  0
 18 17  1  0
 20 22  1  0
 20 19  1  0
 21 32  2  0
 22 27  1  0
 23 31  1  0
 23 33  1  0
 24 30  1  0
 24 26  1  0
 25 31  1  0
 26 25  1  0
 27 26  2  0
 28 29  1  0
 28 22  2  0
 29 24  2  0
 30 23  1  0
 31 21  1  0
 33 35  2  0
 34 33  1  0
 36 34  1  0
 37 46  2  0
 37 42  1  0
 38 34  1  0
 38 42  1  0
 39 38  1  0
 40 41  1  0
 40 39  1  0
 41 37  1  0
 42 43  2  0
 43 44  1  0
 45 44  2  0
 46 45  1  0
 47 21  1  0
 47 52  1  0
 47 48  1  0
 48 51  1  1
 48 49  1  0
 50 48  1  0
 52 55  1  0
 53 57  1  0
 53 52  1  0
 54 53  2  0
 57 56  1  0
 57 59  1  0
 59 60  1  0
 59 58  1  0
 62 61  1  0
 63 62  1  0
 64 63  1  0
 65 64  1  0
 66 65  1  0
 67 66  1  0
 68 67  1  0
 69 68  1  0
 70 69  1  0
 71 70  1  0
 71 72  1  0
 73 79  1  0
 73 81  1  0
 74 79  1  0
 75 76  1  0
 75 74  1  0
 77 76  1  0
 77 86  1  0
 77 78  1  0
 79 78  1  0
 80 73  2  0
 81 72  1  0
 81 82  1  0
 83108  1  0
 83 84  2  0
 84103  1  0
 85 88  1  0
 85 84  1  0
 86 87  1  0
 86 83  1  0
 87 85  2  0
 88 89  1  0
 89 90  2  0
 91 94  1  0
 91 90  1  0
 92 91  2  0
 93 92  1  0
 93 88  2  0
 94 95  1  0
 95 96  1  0
 96 97  2  0
 98 97  1  0
 98102  1  0
 99 98  2  0
100 95  2  0
100 99  1  0
101100  1  0
103104  1  0
104106  1  0
104107  1  0
105103  2  0
108109  1  0
110108  1  0
M  ISO  4  19 101  20 101  73 100  81 100
M  END
>  <TORSDO>  (58) 
F 39

>  <SCORE>  (58) 
35.634

>  <name>  (58) 
61

>  <ligand_id>  (58) 
61

>  <original_smiles>  (58) 
[H]c1c([H])c([H])c2c(c1[H])C([H])([H])C([H])([H])C([H])([H])C2([H])N([H])C(=O)C1([H])N(C(=O)C([H])(N([H])C(=O)C([H])(N([H])C([H])([H])[H])C([H])([H])[H])C(C([H])([H])[H])(C([H])([H])[H])C([H])([H])[H])C([H])([H])c2c([H])c(OC([H])([H])C([H])([H])C([H])([H])OC([H])([H])C([H])([H])OC([H])([H])C([H])([H])C(=O)N([H])C([H])(C(=O)N([H])[H])C([H])([H])OC([H])([H])C([H])([H])OC([H])([H])C([H])([H])C([H])([H])OC([H])([H])C([H])([H])C([H])([H])N([H])C(=O)N3C([H])([H])C([H])([H])C([H])([H])C([H])(n4nc(-c5c([H])c([H])c(Oc6c([H])c([H])c(F)c([H])c6F)c([H])c5[H])c(C(=O)N([H])[H])c4N([H])[H])C3([H])[H])c([H])c([H])c2C1([H])[H]

>  <smiles>  (58) 
[H]c1c([H])c([H])c2c(c1[H])C([H])([H])C([H])([H])C([H])([H])C2([H])N([H])C(=O)C1([H])N(C(=O)C([H])(N([H])C(=O)C([H])(N([H])C([H])([H])[H])C([H])([H])[H])C(C([H])([H])[H])(C([H])([H])[H])C([H])([H])[H])C([H])([H])c2c([H])c(OC([H])([H])C([H])([H])C([H])([H])OC([H])([H])C([H])([H])OC([H])([H])C([H])([H])C(=O)N([H])C([H])(C(=O)N([H])[H])C([H])([H])OC([H])([H])C([H])([H])OC([H])([H])C([H])([H])C([H])([H])OC([H])([H])C([H])([H])C([H])([H])N([H])C(=O)N3C([H])([H])C([H])([H])C([H])([H])C([H])(n4nc(-c5c([H])c([H])c(Oc6c([H])c([H])c(F)c([H])c6F)c([H])c5[H])c(C(=O)N([H])[H])c4N([H])[H])C3([H])[H])c([H])c([H])c2C1([H])[H]

$$$$
62:0:0
     RDKit          3D

 99106  0  0  1  0  0  0  0  0999 V2000
  -28.4740  -20.7780   17.8700 O   0  0  0  0  0  0  0  0  0  0  0  0
  -27.9080  -21.8110   17.0700 C   0  0  0  0  0  2  0  0  0  0  0  0
  -28.1660  -23.1830   17.7050 C   0  0  0  0  0  2  0  0  0  0  0  0
  -29.4450  -23.6770   17.3260 O   0  0  0  0  0  0  0  0  0  0  0  0
  -29.7110  -24.9780   17.8440 C   0  0  0  0  0  2  0  0  0  0  0  0
  -30.7330  -24.8980   18.9880 C   0  0  0  0  0  2  0  0  0  0  0  0
  -30.2310  -24.1420   20.0860 O   0  0  0  0  0  0  0  0  0  0  0  0
  -29.7820  -24.9050   21.2020 C   0  0  0  0  0  2  0  0  0  0  0  0
  -28.3900  -25.5180   20.9900 C   0  0  0  0  0  2  0  0  0  0  0  0
  -28.4920  -26.7660   20.3100 O   0  0  0  0  0  0  0  0  0  0  0  0
  -24.5960  -31.9000   23.2590 C   0  0  0  0  0  0  0  0  0  0  0  0
  -27.3150  -27.4670   20.2730 C   0  0  0  0  0  0  0  0  0  0  0  0
  -23.4180  -30.4660   21.6210 C   0  0  0  0  0  3  0  0  0  0  0  0
  -24.9010  -28.9220   20.2360 C   0  0  0  0  0  0  0  0  0  0  0  0
  -25.9390  -30.8540   21.4420 C   0  0  0  0  0  2  0  0  0  0  0  0
  -26.0440  -29.4770   20.8250 C   0  0  0  0  0  0  0  0  0  0  0  0
  -27.2560  -28.7570   20.8380 C   0  0  0  0  0  3  0  0  0  0  0  0
  -26.1590  -26.9160   19.6800 C   0  0  0  0  0  3  0  0  0  0  0  0
  -24.9500  -27.6400   19.6600 C   0  0  0  0  0  3  0  0  0  0  0  0
  -23.6480  -29.7660   20.2540 C   0  0  0  0  0  2  0  0  0  0  0  0
  -24.6690  -31.0890   22.1670 N   0  0  0  0  0  0  0  0  0  0  0  0
  -23.5070  -32.1700   23.7850 O   0  0  0  0  0  0  0  0  0  0  0  0
  -22.7650  -29.4530   22.5890 C   0  0  0  0  0  0  0  0  0  0  0  0
  -21.4430  -29.2630   22.4510 N   0  0  0  0  0  0  0  0  0  0  0  0
  -23.4450  -28.8410   23.4160 O   0  0  0  0  0  0  0  0  0  0  0  0
  -20.9570  -29.8110   21.7540 H   0  0  0  0  0  0  0  0  0  0  0  0
  -18.0670  -28.0770   22.9360 C   0  0  0  0  0  0  0  0  0  0  0  0
  -20.6230  -28.3330   23.2240 C   0  0  0  0  0  3  0  0  0  0  0  0
  -20.7270  -26.8970   22.6570 C   0  0  0  0  0  2  0  0  0  0  0  0
  -19.6310  -26.5700   21.6380 C   0  0  0  0  0  2  0  0  0  0  0  0
  -18.2460  -26.7210   22.2730 C   0  0  0  0  0  2  0  0  0  0  0  0
  -19.1840  -28.8390   23.3680 C   0  0  0  0  0  0  0  0  0  0  0  0
  -18.9630  -30.1080   23.9470 C   0  0  0  0  0  3  0  0  0  0  0  0
  -17.6580  -30.6130   24.1000 C   0  0  0  0  0  3  0  0  0  0  0  0
  -16.5550  -29.8470   23.6840 C   0  0  0  0  0  3  0  0  0  0  0  0
  -16.7610  -28.5810   23.1080 C   0  0  0  0  0  3  0  0  0  0  0  0
  -25.8720  -32.5450   23.8860 C   0  0  0  0  0  3  0  0  0  0  0  0
  -25.5490  -33.9430   24.2020 N   0  0  0  0  0  0  0  0  0  0  0  0
  -25.8910  -34.9920   23.4400 C   0  0  0  0  0  0  0  0  0  0  0  0
  -26.5800  -34.8850   22.4230 O   0  0  0  0  0  0  0  0  0  0  0  0
  -24.9390  -34.0990   24.9900 H   0  0  0  0  0  0  0  0  0  0  0  0
  -24.1640  -36.7730   23.0330 C   0  0  0  0  0  1  0  0  0  0  0  0
  -25.3840  -36.3800   23.8780 C   0  0  0  0  0  3  0  0  0  0  0  0
  -27.4950  -37.2760   24.7570 C   0  0  0  0  0  1  0  0  0  0  0  0
  -26.4160  -37.4370   23.7870 N   0  0  0  0  0  0  0  0  0  0  0  0
  -26.0010  -38.3550   23.9210 H   0  0  0  0  0  0  0  0  0  0  0  0
  -26.3880  -31.7870   25.1700 C   0  0  1  0  0  0  0  0  0  0  0  0
  -25.2900  -31.5420   26.2300 C   0  0  0  0  0  1  0  0  0  0  0  0
  -26.9900  -30.4140   24.7860 C   0  0  0  0  0  1  0  0  0  0  0  0
  -27.5260  -32.5960   25.8360 C   0  0  0  0  0  1  0  0  0  0  0  0
  -28.2570  -19.4790   17.3290 C   0  0  0  0  0  2  0  0  0  0  0  0
  -27.9310  -18.5040   18.4680 C   0  0  0  0  0  2  0  0  0  0  0  0
  -29.7700  -16.9820   19.1590 C   0  0  0  0  0  0  0  0  0  0  0  0
  -29.1110  -18.1410   19.2530 N   0  0  0  0  0  0  0  0  0  0  0  0
  -29.4880  -16.1850   18.2620 O   0  0  0  0  0  0  0  0  0  0  0  0
  -29.4020  -18.7870   19.9760 H   0  0  0  0  0  0  0  0  0  0  0  0
  -30.8960  -16.6330   20.1840 C   0  0  0  0  0  3  0  0  0  0  0  0
  -31.3400  -14.1780   19.9900 C   0  0  0  0  0  0  0  0  0  0  0  0
  -30.8860  -11.9790   18.9920 C   0  0  0  0  0  2  0  0  0  0  0  0
  -29.9280  -12.1800   17.7990 C   0  0  0  0  0  2  0  0  0  0  0  0
  -28.4570  -12.1770   18.2630 C   0  0  0  0  0  2  0  0  0  0  0  0
  -28.2110  -13.1120   19.4770 C   0  0  0  0  0  3  0  0  0  0  0  0
  -29.2710  -12.8660   20.5750 C   0  0  0  0  0  2  0  0  0  0  0  0
  -30.6070  -13.0360   19.9720 N   0  0  0  0  0  0  0  0  0  0  0  0
  -32.4330  -14.3040   19.4300 O   0  0  0  0  0  0  0  0  0  0  0  0
  -30.7030  -15.2210   20.5330 N   0  0  0  0  0  0  0  0  0  0  0  0
  -29.8200  -15.0040   20.9630 H   0  0  0  0  0  0  0  0  0  0  0  0
  -25.9150  -13.9570   20.2820 C   0  0  0  0  0  0  0  0  0  0  0  0
  -24.7830  -13.2930   20.6720 C   0  0  0  0  0  0  0  0  0  0  0  0
  -25.0950  -11.9020   20.5890 C   0  0  0  0  0  0  0  0  0  0  0  0
  -26.8520  -12.9750   19.9930 N   0  0  0  0  0  0  0  0  0  0  0  0
  -26.3610  -11.7340   20.2320 N   0  0  0  0  0  0  0  0  0  0  0  0
  -24.2470  -10.7170   20.7760 C   0  0  0  0  0  0  0  0  0  0  0  0
  -24.5970   -9.6960   21.6860 C   0  0  0  0  0  3  0  0  0  0  0  0
  -23.7570   -8.5740   21.8610 C   0  0  0  0  0  3  0  0  0  0  0  0
  -22.5520   -8.4680   21.1250 C   0  0  0  0  0  0  0  0  0  0  0  0
  -22.2210   -9.4770   20.2030 C   0  0  0  0  0  3  0  0  0  0  0  0
  -23.0610  -10.5900   20.0270 C   0  0  0  0  0  3  0  0  0  0  0  0
  -21.6880   -7.4040   21.2090 O   0  0  0  0  0  0  0  0  0  0  0  0
  -21.5720   -6.6610   22.3560 C   0  0  0  0  0  0  0  0  0  0  0  0
  -21.2180   -7.2470   23.5910 C   0  0  0  0  0  3  0  0  0  0  0  0
  -21.0420   -6.4360   24.7310 C   0  0  0  0  0  3  0  0  0  0  0  0
  -21.2110   -5.0410   24.6360 C   0  0  0  0  0  0  0  0  0  0  0  0
  -21.5580   -4.4560   23.4060 C   0  0  0  0  0  3  0  0  0  0  0  0
  -21.7360   -5.2640   22.2690 C   0  0  0  0  0  0  0  0  0  0  0  0
  -22.0500   -4.6920   21.0810 F   0  0  0  0  0  0  0  0  0  0  0  0
  -21.0340   -4.2620   25.7280 F   0  0  0  0  0  0  0  0  0  0  0  0
  -23.4540  -13.9070   21.0090 C   0  0  0  0  0  0  0  0  0  0  0  0
  -22.7020  -13.2850   21.9100 N   0  0  0  0  0  0  0  0  0  0  0  0
  -23.0950  -14.9720   20.5070 O   0  0  0  0  0  0  0  0  0  0  0  0
  -23.0030  -12.4230   22.3380 H   0  0  0  0  0  0  0  0  0  0  0  0
  -21.8110  -13.6800   22.1770 H   0  0  0  0  0  0  0  0  0  0  0  0
  -26.2210  -15.3070   20.1310 N   0  0  0  0  0  0  0  0  0  0  0  0
  -25.5320  -16.0360   20.2810 H   0  0  0  0  0  0  0  0  0  0  0  0
  -27.0940  -15.6550   19.7550 H   0  0  0  0  0  0  0  0  0  0  0  0
  -31.4050  -18.9080   21.3380 C   0  0  0  0  0  1  0  0  0  0  0  0
  -31.9360  -16.7990   22.4980 C   0  0  0  0  0  1  0  0  0  0  0  0
  -29.5400  -17.4740   22.2450 C   0  0  0  0  0  1  0  0  0  0  0  0
  -30.9140  -17.4520   21.5340 C   0  0  2  0  0  0  0  0  0  0  0  0
  2  3  1  0
  2  1  1  0
  4  3  1  0
  4  5  1  0
  5  6  1  0
  6  7  1  0
  7  8  1  0
  9  8  1  0
 10  9  1  0
 11 22  2  0
 12 10  1  0
 12 17  1  0
 13 21  1  0
 13 23  1  0
 14 20  1  0
 14 16  1  0
 15 21  1  0
 16 17  2  0
 16 15  1  0
 18 12  2  0
 19 18  1  0
 19 14  2  0
 20 13  1  0
 21 11  1  0
 23 25  2  0
 24 23  1  0
 26 24  1  0
 27 36  2  0
 27 32  1  0
 28 24  1  0
 28 32  1  0
 29 28  1  0
 30 31  1  0
 30 29  1  0
 31 27  1  0
 32 33  2  0
 33 34  1  0
 35 34  2  0
 36 35  1  0
 37 11  1  0
 37 38  1  0
 37 47  1  0
 38 41  1  0
 39 43  1  0
 39 38  1  0
 40 39  2  0
 43 42  1  0
 45 43  1  0
 45 46  1  0
 45 44  1  0
 47 50  1  1
 47 48  1  0
 49 47  1  0
 51  1  1  0
 51 52  1  0
 52 54  1  0
 53 54  1  0
 54 56  1  0
 55 53  2  0
 57 53  1  0
 57 66  1  0
 57 99  1  0
 58 66  1  0
 59 64  1  0
 60 61  1  0
 60 59  1  0
 62 61  1  0
 62 71  1  0
 62 63  1  0
 64 58  1  0
 64 63  1  0
 65 58  2  0
 66 67  1  0
 68 69  2  0
 69 88  1  0
 70 69  1  0
 70 73  1  0
 71 72  1  0
 71 68  1  0
 72 70  2  0
 73 74  1  0
 74 75  2  0
 76 79  1  0
 76 75  1  0
 77 76  2  0
 78 77  1  0
 78 73  2  0
 79 80  1  0
 80 81  1  0
 81 82  2  0
 83 82  1  0
 83 87  1  0
 84 83  2  0
 85 80  2  0
 85 84  1  0
 86 85  1  0
 88 89  1  0
 89 92  1  0
 89 91  1  0
 90 88  2  0
 93 94  1  0
 93 68  1  0
 95 93  1  0
 99 96  1  6
 99 98  1  0
 99 97  1  0
M  ISO  4   9 101  10 101  58 100  66 100
M  END
>  <TORSDO>  (59) 
F 29

>  <SCORE>  (59) 
-8.447

>  <name>  (59) 
62

>  <ligand_id>  (59) 
62

>  <original_smiles>  (59) 
[H]c1c([H])c([H])c2c(c1[H])C([H])([H])C([H])([H])C([H])([H])C2([H])N([H])C(=O)C1([H])N(C(=O)C([H])(N([H])C(=O)C([H])(N([H])C([H])([H])[H])C([H])([H])[H])C(C([H])([H])[H])(C([H])([H])[H])C([H])([H])[H])C([H])([H])c2c([H])c(OC([H])([H])C([H])([H])OC([H])([H])C([H])([H])OC([H])([H])C([H])([H])OC([H])([H])C([H])([H])N([H])C(=O)C([H])(N([H])C(=O)N3C([H])([H])C([H])([H])C([H])([H])C([H])(n4nc(-c5c([H])c([H])c(Oc6c([H])c([H])c(F)c([H])c6F)c([H])c5[H])c(C(=O)N([H])[H])c4N([H])[H])C3([H])[H])C(C([H])([H])[H])(C([H])([H])[H])C([H])([H])[H])c([H])c([H])c2C1([H])[H]

>  <smiles>  (59) 
[H]c1c([H])c([H])c2c(c1[H])C([H])([H])C([H])([H])C([H])([H])C2([H])N([H])C(=O)C1([H])N(C(=O)C([H])(N([H])C(=O)C([H])(N([H])C([H])([H])[H])C([H])([H])[H])C(C([H])([H])[H])(C([H])([H])[H])C([H])([H])[H])C([H])([H])c2c([H])c(OC([H])([H])C([H])([H])OC([H])([H])C([H])([H])OC([H])([H])C([H])([H])OC([H])([H])C([H])([H])N([H])C(=O)C([H])(N([H])C(=O)N3C([H])([H])C([H])([H])C([H])([H])C([H])(n4nc(-c5c([H])c([H])c(Oc6c([H])c([H])c(F)c([H])c6F)c([H])c5[H])c(C(=O)N([H])[H])c4N([H])[H])C3([H])[H])C(C([H])([H])[H])(C([H])([H])[H])C([H])([H])[H])c([H])c([H])c2C1([H])[H]

$$$$
63:0:0
     RDKit          3D

102109  0  0  1  0  0  0  0  0999 V2000
  -32.8670  -23.6170   11.8460 C   0  0  0  0  0  2  0  0  0  0  0  0
  -33.3970  -22.3240   12.3280 N   0  0  0  0  0  4  0  0  0  0  0  0
  -33.2530  -22.2770   13.3260 H   0  0  0  0  0  0  0  0  0  0  0  0
  -34.3890  -22.2710   12.1560 H   0  0  0  0  0  0  0  0  0  0  0  0
  -32.7260  -21.1420   11.7450 C   0  0  0  0  0  2  0  0  0  0  0  0
  -32.9150  -19.9170   12.6450 C   0  0  0  0  0  2  0  0  0  0  0  0
  -32.2870  -20.2080   13.8910 O   0  0  0  0  0  0  0  0  0  0  0  0
  -32.4240  -19.1460   14.8240 C   0  0  0  0  0  2  0  0  0  0  0  0
  -31.6170  -19.4550   16.0940 C   0  0  0  0  0  2  0  0  0  0  0  0
  -31.8110  -18.3670   17.1590 C   0  0  0  0  0  2  0  0  0  0  0  0
  -31.0240  -18.6350   18.3150 O   0  0  0  0  0  0  0  0  0  0  0  0
  -31.1340  -17.5790   19.2620 C   0  0  0  0  0  2  0  0  0  0  0  0
  -30.3150  -17.8730   20.5310 C   0  0  0  0  0  2  0  0  0  0  0  0
  -30.5370  -16.8570   21.6780 C   0  0  0  0  0  2  0  0  0  0  0  0
  -30.7050  -14.5420   20.7460 C   0  0  0  0  0  0  0  0  0  0  0  0
  -30.4170  -12.4060   19.5540 C   0  0  0  0  0  2  0  0  0  0  0  0
  -29.5180  -12.6180   18.3200 C   0  0  0  0  0  2  0  0  0  0  0  0
  -28.0290  -12.4930   18.7010 C   0  0  0  0  0  2  0  0  0  0  0  0
  -27.6540  -13.3370   19.9490 C   0  0  0  0  0  3  0  0  0  0  0  0
  -28.6670  -13.1010   21.0900 C   0  0  0  0  0  2  0  0  0  0  0  0
  -30.0150  -13.3880   20.5690 N   0  0  0  0  0  0  0  0  0  0  0  0
  -31.8280  -14.7380   20.2750 O   0  0  0  0  0  0  0  0  0  0  0  0
  -30.0380  -15.5120   21.3850 N   0  0  0  0  0  0  0  0  0  0  0  0
  -29.1120  -15.2790   21.7110 H   0  0  0  0  0  0  0  0  0  0  0  0
  -25.2300  -13.9570   20.5550 C   0  0  0  0  0  0  0  0  0  0  0  0
  -24.1500  -13.1890   20.8980 C   0  0  0  0  0  0  0  0  0  0  0  0
  -24.6120  -11.8370   20.9070 C   0  0  0  0  0  0  0  0  0  0  0  0
  -26.2840  -13.0710   20.3810 N   0  0  0  0  0  0  0  0  0  0  0  0
  -25.9120  -11.7930   20.6460 N   0  0  0  0  0  0  0  0  0  0  0  0
  -23.8800  -10.5770   21.0940 C   0  0  0  0  0  0  0  0  0  0  0  0
  -24.3050   -9.6060   22.0270 C   0  0  0  0  0  3  0  0  0  0  0  0
  -23.5740   -8.4120   22.2000 C   0  0  0  0  0  3  0  0  0  0  0  0
  -22.4030   -8.1800   21.4390 C   0  0  0  0  0  0  0  0  0  0  0  0
  -21.9970   -9.1390   20.4960 C   0  0  0  0  0  3  0  0  0  0  0  0
  -22.7300  -10.3260   20.3210 C   0  0  0  0  0  3  0  0  0  0  0  0
  -21.6450   -7.0370   21.5210 O   0  0  0  0  0  0  0  0  0  0  0  0
  -21.6160   -6.2730   22.6610 C   0  0  0  0  0  0  0  0  0  0  0  0
  -21.2490   -6.8160   23.9100 C   0  0  0  0  0  3  0  0  0  0  0  0
  -21.1630   -5.9800   25.0430 C   0  0  0  0  0  3  0  0  0  0  0  0
  -21.4350   -4.6040   24.9260 C   0  0  0  0  0  0  0  0  0  0  0  0
  -21.7960   -4.0610   23.6800 C   0  0  0  0  0  3  0  0  0  0  0  0
  -21.8830   -4.8930   22.5500 C   0  0  0  0  0  0  0  0  0  0  0  0
  -22.2100   -4.3610   21.3480 F   0  0  0  0  0  0  0  0  0  0  0  0
  -21.3460   -3.8000   26.0120 F   0  0  0  0  0  0  0  0  0  0  0  0
  -22.7440  -13.6690   21.1150 C   0  0  0  0  0  0  0  0  0  0  0  0
  -21.9900  -12.9890   21.9700 N   0  0  0  0  0  0  0  0  0  0  0  0
  -22.3240  -14.6830   20.5600 O   0  0  0  0  0  0  0  0  0  0  0  0
  -22.3420  -12.1680   22.4390 H   0  0  0  0  0  0  0  0  0  0  0  0
  -21.0460  -13.2950   22.1590 H   0  0  0  0  0  0  0  0  0  0  0  0
  -25.4050  -15.3240   20.3590 N   0  0  0  0  0  0  0  0  0  0  0  0
  -24.6350  -15.9840   20.4180 H   0  0  0  0  0  0  0  0  0  0  0  0
  -26.2700  -15.7540   20.0540 H   0  0  0  0  0  0  0  0  0  0  0  0
  -33.6440  -24.8150   12.4240 C   0  0  0  0  0  2  0  0  0  0  0  0
  -32.8520  -26.1260   12.3490 C   0  0  0  0  0  2  0  0  0  0  0  0
  -31.7330  -25.9930   13.2120 O   0  0  0  0  0  0  0  0  0  0  0  0
  -31.0100  -27.1970   13.4160 C   0  0  0  0  0  2  0  0  0  0  0  0
  -29.7730  -26.8620   14.2590 C   0  0  0  0  0  2  0  0  0  0  0  0
  -30.1500  -26.4330   15.5670 O   0  0  0  0  0  0  0  0  0  0  0  0
  -30.0240  -27.4380   16.5650 C   0  0  0  0  0  2  0  0  0  0  0  0
  -30.2860  -26.8230   17.9630 C   0  0  0  0  0  2  0  0  0  0  0  0
  -29.3550  -27.3960   19.0650 C   0  0  0  0  0  2  0  0  0  0  0  0
  -28.4540  -26.7350   19.9630 O   0  0  0  0  0  0  0  0  0  0  0  0
  -24.6410  -31.8470   23.2070 C   0  0  0  0  0  0  0  0  0  0  0  0
  -27.2730  -27.4250   20.1250 C   0  0  0  0  0  0  0  0  0  0  0  0
  -23.4220  -30.4370   21.5780 C   0  0  0  0  0  3  0  0  0  0  0  0
  -24.8680  -28.8850   20.1680 C   0  0  0  0  0  0  0  0  0  0  0  0
  -25.9440  -30.8020   21.3630 C   0  0  0  0  0  2  0  0  0  0  0  0
  -26.0260  -29.4260   20.7400 C   0  0  0  0  0  0  0  0  0  0  0  0
  -27.2360  -28.7030   20.7180 C   0  0  0  0  0  3  0  0  0  0  0  0
  -26.0960  -26.8710   19.5840 C   0  0  0  0  0  3  0  0  0  0  0  0
  -24.8920  -27.6000   19.5950 C   0  0  0  0  0  3  0  0  0  0  0  0
  -23.6260  -29.7430   20.2040 C   0  0  0  0  0  2  0  0  0  0  0  0
  -24.6870  -31.0450   22.1070 N   0  0  0  0  0  0  0  0  0  0  0  0
  -23.5630  -32.1250   23.7500 O   0  0  0  0  0  0  0  0  0  0  0  0
  -22.7770  -29.4220   22.5470 C   0  0  0  0  0  0  0  0  0  0  0  0
  -21.4510  -29.2500   22.4320 N   0  0  0  0  0  0  0  0  0  0  0  0
  -23.4660  -28.7910   23.3530 O   0  0  0  0  0  0  0  0  0  0  0  0
  -20.9580  -29.8100   21.7490 H   0  0  0  0  0  0  0  0  0  0  0  0
  -18.0720  -28.0910   22.9650 C   0  0  0  0  0  0  0  0  0  0  0  0
  -20.6340  -28.3210   23.2100 C   0  0  0  0  0  3  0  0  0  0  0  0
  -20.7160  -26.8890   22.6310 C   0  0  0  0  0  2  0  0  0  0  0  0
  -19.6010  -26.5790   21.6280 C   0  0  0  0  0  2  0  0  0  0  0  0
  -18.2280  -26.7390   22.2870 C   0  0  0  0  0  2  0  0  0  0  0  0
  -19.2030  -28.8410   23.3840 C   0  0  0  0  0  0  0  0  0  0  0  0
  -19.0040  -30.1090   23.9730 C   0  0  0  0  0  3  0  0  0  0  0  0
  -17.7070  -30.6250   24.1500 C   0  0  0  0  0  3  0  0  0  0  0  0
  -16.5910  -29.8700   23.7480 C   0  0  0  0  0  3  0  0  0  0  0  0
  -16.7730  -28.6050   23.1610 C   0  0  0  0  0  3  0  0  0  0  0  0
  -25.9330  -32.4750   23.8170 C   0  0  0  0  0  3  0  0  0  0  0  0
  -25.6250  -33.8670   24.1710 N   0  0  0  0  0  0  0  0  0  0  0  0
  -25.9380  -34.9280   23.4160 C   0  0  0  0  0  0  0  0  0  0  0  0
  -26.5920  -34.8400   22.3730 O   0  0  0  0  0  0  0  0  0  0  0  0
  -25.0420  -34.0110   24.9820 H   0  0  0  0  0  0  0  0  0  0  0  0
  -24.1880  -36.7070   23.1120 C   0  0  0  0  0  1  0  0  0  0  0  0
  -25.4490  -36.3070   23.8960 C   0  0  0  0  0  3  0  0  0  0  0  0
  -27.5970  -37.1960   24.6850 C   0  0  0  0  0  1  0  0  0  0  0  0
  -26.4700  -37.3710   23.7710 N   0  0  0  0  0  0  0  0  0  0  0  0
  -26.0600  -38.2860   23.9420 H   0  0  0  0  0  0  0  0  0  0  0  0
  -26.4780  -31.6870   25.0700 C   0  0  1  0  0  0  0  0  0  0  0  0
  -25.4040  -31.4220   26.1520 C   0  0  0  0  0  1  0  0  0  0  0  0
  -27.0650  -30.3200   24.6440 C   0  0  0  0  0  1  0  0  0  0  0  0
  -27.6360  -32.4770   25.7240 C   0  0  0  0  0  1  0  0  0  0  0  0
  1  2  1  0
  1 53  1  0
  2  3  1  0
  4  2  1  0
  5  2  1  0
  5  6  1  0
  6  7  1  0
  7  8  1  0
  8  9  1  0
  9 10  1  0
 10 11  1  0
 11 12  1  0
 12 13  1  0
 13 14  1  0
 15 23  1  0
 16 21  1  0
 17 18  1  0
 17 16  1  0
 19 18  1  0
 19 28  1  0
 19 20  1  0
 21 15  1  0
 21 20  1  0
 22 15  2  0
 23 14  1  0
 23 24  1  0
 25 26  2  0
 26 27  1  0
 26 45  1  0
 27 30  1  0
 28 25  1  0
 28 29  1  0
 29 27  2  0
 30 31  1  0
 31 32  2  0
 33 36  1  0
 33 32  1  0
 34 33  2  0
 35 34  1  0
 35 30  2  0
 36 37  1  0
 37 38  1  0
 38 39  2  0
 40 39  1  0
 40 44  1  0
 41 40  2  0
 42 37  2  0
 42 41  1  0
 43 42  1  0
 45 46  1  0
 46 49  1  0
 46 48  1  0
 47 45  2  0
 50 51  1  0
 50 25  1  0
 52 50  1  0
 54 53  1  0
 54 55  1  0
 55 56  1  0
 56 57  1  0
 57 58  1  0
 58 59  1  0
 59 60  1  0
 60 61  1  0
 61 62  1  0
 62 64  1  0
 63 74  2  0
 64 69  1  0
 65 73  1  0
 65 75  1  0
 66 72  1  0
 66 68  1  0
 67 73  1  0
 68 67  1  0
 69 68  2  0
 70 71  1  0
 70 64  2  0
 71 66  2  0
 72 65  1  0
 73 63  1  0
 75 77  2  0
 76 75  1  0
 78 76  1  0
 79 88  2  0
 79 84  1  0
 80 76  1  0
 80 84  1  0
 81 80  1  0
 82 83  1  0
 82 81  1  0
 83 79  1  0
 84 85  2  0
 85 86  1  0
 87 86  2  0
 88 87  1  0
 89 63  1  0
 89 90  1  0
 89 99  1  0
 90 93  1  0
 91 95  1  0
 91 90  1  0
 92 91  2  0
 95 94  1  0
 97 95  1  0
 97 98  1  0
 97 96  1  0
 99102  1  1
 99100  1  0
101 99  1  0
M  ISO  4  15 100  23 100  61 101  62 101
M  END
>  <TORSDO>  (60) 
F 36

>  <SCORE>  (60) 
-9.593

>  <name>  (60) 
63

>  <ligand_id>  (60) 
63

>  <original_smiles>  (60) 
[H]c1c([H])c([H])c2c(c1[H])C([H])([H])C([H])([H])C([H])([H])C2([H])N([H])C(=O)C1([H])N(C(=O)C([H])(N([H])C(=O)C([H])(N([H])C([H])([H])[H])C([H])([H])[H])C(C([H])([H])[H])(C([H])([H])[H])C([H])([H])[H])C([H])([H])c2c([H])c(OC([H])([H])C([H])([H])C([H])([H])OC([H])([H])C([H])([H])OC([H])([H])C([H])([H])C([H])([H])[N+]([H])([H])C([H])([H])C([H])([H])OC([H])([H])C([H])([H])C([H])([H])OC([H])([H])C([H])([H])C([H])([H])N([H])C(=O)N3C([H])([H])C([H])([H])C([H])([H])C([H])(n4nc(-c5c([H])c([H])c(Oc6c([H])c([H])c(F)c([H])c6F)c([H])c5[H])c(C(=O)N([H])[H])c4N([H])[H])C3([H])[H])c([H])c([H])c2C1([H])[H]

>  <smiles>  (60) 
[H]c1c([H])c([H])c2c(c1[H])C([H])([H])C([H])([H])C([H])([H])C2([H])N([H])C(=O)C1([H])N(C(=O)C([H])(N([H])C(=O)C([H])(N([H])C([H])([H])[H])C([H])([H])[H])C(C([H])([H])[H])(C([H])([H])[H])C([H])([H])[H])C([H])([H])c2c([H])c(OC([H])([H])C([H])([H])C([H])([H])OC([H])([H])C([H])([H])OC([H])([H])C([H])([H])C([H])([H])[N+]([H])([H])C([H])([H])C([H])([H])OC([H])([H])C([H])([H])C([H])([H])OC([H])([H])C([H])([H])C([H])([H])N([H])C(=O)N3C([H])([H])C([H])([H])C([H])([H])C([H])(n4nc(-c5c([H])c([H])c(Oc6c([H])c([H])c(F)c([H])c6F)c([H])c5[H])c(C(=O)N([H])[H])c4N([H])[H])C3([H])[H])c([H])c([H])c2C1([H])[H]

$$$$
64:0:0
     RDKit          3D

107114  0  0  1  0  0  0  0  0999 V2000
  -29.7100  -28.8600   12.8830 C   0  0  0  0  0  2  0  0  0  0  0  0
  -30.3880  -29.9130   13.5520 O   0  0  0  0  0  0  0  0  0  0  0  0
  -29.8090  -31.1850   13.2890 C   0  0  0  0  0  2  0  0  0  0  0  0
  -30.6420  -32.2800   13.9730 C   0  0  0  0  0  2  0  0  0  0  0  0
  -32.0560  -31.4640   15.8570 C   0  0  0  0  0  0  0  0  0  0  0  0
  -30.9050  -31.9490   15.3730 N   0  0  0  0  0  0  0  0  0  0  0  0
  -33.0430  -31.2680   15.1430 O   0  0  0  0  0  0  0  0  0  0  0  0
  -30.1460  -32.0930   16.0240 H   0  0  0  0  0  0  0  0  0  0  0  0
  -32.1210  -31.2010   17.3670 C   0  0  0  0  0  2  0  0  0  0  0  0
  -32.8770  -29.9170   17.7560 C   0  0  0  0  0  2  0  0  0  0  0  0
  -32.1980  -28.7590   17.2790 O   0  0  0  0  0  0  0  0  0  0  0  0
  -32.9340  -27.5650   17.5220 C   0  0  0  0  0  2  0  0  0  0  0  0
  -32.2510  -26.3460   16.8740 C   0  0  0  0  0  2  0  0  0  0  0  0
  -31.2790  -25.7740   17.7470 O   0  0  0  0  0  0  0  0  0  0  0  0
  -25.2520  -27.7760   20.9420 C   0  0  0  0  0  0  0  0  0  0  0  0
  -30.0170  -26.2850   17.6100 C   0  0  0  0  0  0  0  0  0  0  0  0
  -25.1730  -27.6430   18.4700 C   0  0  0  0  0  3  0  0  0  0  0  0
  -27.4250  -27.3430   17.3070 C   0  0  0  0  0  0  0  0  0  0  0  0
  -27.3700  -28.1260   19.6840 C   0  0  0  0  0  2  0  0  0  0  0  0
  -28.0810  -27.4370   18.5400 C   0  0  0  0  0  0  0  0  0  0  0  0
  -29.3740  -26.9000   18.7020 C   0  0  0  0  0  3  0  0  0  0  0  0
  -29.3470  -26.1800   16.3740 C   0  0  0  0  0  3  0  0  0  0  0  0
  -28.0490  -26.7050   16.2190 C   0  0  0  0  0  3  0  0  0  0  0  0
  -26.0440  -27.9540   17.2230 C   0  0  0  0  0  2  0  0  0  0  0  0
  -25.9220  -27.8270   19.7560 N   0  0  0  0  0  0  0  0  0  0  0  0
  -24.0230  -27.6280   20.9760 O   0  0  0  0  0  0  0  0  0  0  0  0
  -24.5730  -26.2290   18.3090 C   0  0  0  0  0  0  0  0  0  0  0  0
  -23.4740  -26.1320   17.5410 N   0  0  0  0  0  0  0  0  0  0  0  0
  -25.1040  -25.2500   18.8410 O   0  0  0  0  0  0  0  0  0  0  0  0
  -23.0980  -26.9820   17.1450 H   0  0  0  0  0  0  0  0  0  0  0  0
  -20.5960  -24.8110   15.8060 C   0  0  0  0  0  0  0  0  0  0  0  0
  -22.7590  -24.8990   17.2170 C   0  0  0  0  0  3  0  0  0  0  0  0
  -23.4370  -24.1560   16.0430 C   0  0  0  0  0  2  0  0  0  0  0  0
  -22.8430  -24.5190   14.6780 C   0  0  0  0  0  2  0  0  0  0  0  0
  -21.3460  -24.1930   14.6380 C   0  0  0  0  0  2  0  0  0  0  0  0
  -21.2620  -25.1560   17.0120 C   0  0  0  0  0  0  0  0  0  0  0  0
  -20.5260  -25.7600   18.0540 C   0  0  0  0  0  3  0  0  0  0  0  0
  -19.1490  -26.0140   17.9090 C   0  0  0  0  0  3  0  0  0  0  0  0
  -18.4900  -25.6540   16.7200 C   0  0  0  0  0  3  0  0  0  0  0  0
  -19.2130  -25.0500   15.6750 C   0  0  0  0  0  3  0  0  0  0  0  0
  -25.9940  -27.9300   22.3090 C   0  0  0  0  0  3  0  0  0  0  0  0
  -26.3430  -26.5490   22.9870 C   0  0  1  0  0  0  0  0  0  0  0  0
  -25.1340  -25.5960   23.1180 C   0  0  0  0  0  1  0  0  0  0  0  0
  -27.4400  -25.8100   22.1860 C   0  0  0  0  0  1  0  0  0  0  0  0
  -26.9150  -26.7910   24.4040 C   0  0  0  0  0  1  0  0  0  0  0  0
  -25.1410  -28.7410   23.1860 N   0  0  0  0  0  0  0  0  0  0  0  0
  -25.3030  -30.0540   23.4020 C   0  0  0  0  0  0  0  0  0  0  0  0
  -26.2460  -30.6990   22.9300 O   0  0  0  0  0  0  0  0  0  0  0  0
  -24.3240  -28.2880   23.5700 H   0  0  0  0  0  0  0  0  0  0  0  0
  -23.2450  -31.4960   23.3770 C   0  0  0  0  0  1  0  0  0  0  0  0
  -24.2540  -30.7630   24.2770 C   0  0  0  0  0  3  0  0  0  0  0  0
  -25.6030  -31.0600   26.3060 C   0  0  0  0  0  1  0  0  0  0  0  0
  -24.8430  -31.7140   25.2450 N   0  0  0  0  0  0  0  0  0  0  0  0
  -24.1190  -32.2800   25.6790 H   0  0  0  0  0  0  0  0  0  0  0  0
  -30.2980  -27.5200   13.3430 C   0  0  0  0  0  2  0  0  0  0  0  0
  -29.7520  -26.3390   12.5320 C   0  0  0  0  0  2  0  0  0  0  0  0
  -30.3280  -25.1350   13.0200 O   0  0  0  0  0  0  0  0  0  0  0  0
  -29.8750  -23.9930   12.3060 C   0  0  0  0  0  2  0  0  0  0  0  0
  -30.2960  -22.7270   13.0620 C   0  0  0  0  0  2  0  0  0  0  0  0
  -29.7790  -22.6980   14.5090 C   0  0  0  0  0  2  0  0  0  0  0  0
  -30.0610  -21.3680   15.2130 C   0  0  0  0  0  2  0  0  0  0  0  0
  -29.4090  -21.3770   16.4730 O   0  0  0  0  0  0  0  0  0  0  0  0
  -29.4650  -20.1180   17.1300 C   0  0  0  0  0  2  0  0  0  0  0  0
  -28.6580  -20.2020   18.4310 C   0  0  0  0  0  2  0  0  0  0  0  0
  -28.5690  -18.8620   19.1730 C   0  0  0  0  0  2  0  0  0  0  0  0
  -29.8620  -18.4840   19.6260 O   0  0  0  0  0  0  0  0  0  0  0  0
  -29.8360  -17.3250   20.4440 C   0  0  0  0  0  2  0  0  0  0  0  0
  -31.2820  -16.9270   20.7760 C   0  0  0  0  0  2  0  0  0  0  0  0
  -31.4020  -15.7600   21.7750 C   0  0  0  0  0  2  0  0  0  0  0  0
  -31.0940  -13.7190   20.3640 C   0  0  0  0  0  0  0  0  0  0  0  0
  -30.5790  -11.6350   19.1520 C   0  0  0  0  0  2  0  0  0  0  0  0
  -29.6330  -11.8850   17.9630 C   0  0  0  0  0  2  0  0  0  0  0  0
  -28.1610  -11.8610   18.4160 C   0  0  0  0  0  2  0  0  0  0  0  0
  -27.9060  -12.7500   19.6600 C   0  0  0  0  0  3  0  0  0  0  0  0
  -28.9480  -12.4530   20.7610 C   0  0  0  0  0  2  0  0  0  0  0  0
  -30.2960  -12.6370   20.1900 N   0  0  0  0  0  0  0  0  0  0  0  0
  -32.1200  -13.9270   19.7090 O   0  0  0  0  0  0  0  0  0  0  0  0
  -30.7070  -14.5500   21.3410 N   0  0  0  0  0  0  0  0  0  0  0  0
  -29.8770  -14.2830   21.8490 H   0  0  0  0  0  0  0  0  0  0  0  0
  -25.5660  -13.5540   20.3760 C   0  0  0  0  0  0  0  0  0  0  0  0
  -24.4470  -12.8710   20.7720 C   0  0  0  0  0  0  0  0  0  0  0  0
  -24.8040  -11.4890   20.7620 C   0  0  0  0  0  0  0  0  0  0  0  0
  -26.5400  -12.5920   20.1540 N   0  0  0  0  0  0  0  0  0  0  0  0
  -26.0830  -11.3460   20.4410 N   0  0  0  0  0  0  0  0  0  0  0  0
  -23.9890  -10.2880   20.9860 C   0  0  0  0  0  0  0  0  0  0  0  0
  -24.3830   -9.2890   21.9040 C   0  0  0  0  0  3  0  0  0  0  0  0
  -23.5730   -8.1510   22.1140 C   0  0  0  0  0  3  0  0  0  0  0  0
  -22.3560   -8.0060   21.4060 C   0  0  0  0  0  0  0  0  0  0  0  0
  -21.9810   -8.9930   20.4770 C   0  0  0  0  0  3  0  0  0  0  0  0
  -22.7900  -10.1220   20.2660 C   0  0  0  0  0  3  0  0  0  0  0  0
  -21.5180   -6.9240   21.5270 O   0  0  0  0  0  0  0  0  0  0  0  0
  -21.4920   -6.1570   22.6640 C   0  0  0  0  0  0  0  0  0  0  0  0
  -21.1940   -6.7090   23.9300 C   0  0  0  0  0  3  0  0  0  0  0  0
  -21.1100   -5.8740   25.0610 C   0  0  0  0  0  3  0  0  0  0  0  0
  -21.3130   -4.4870   24.9290 C   0  0  0  0  0  0  0  0  0  0  0  0
  -21.6040   -3.9340   23.6690 C   0  0  0  0  0  3  0  0  0  0  0  0
  -21.6900   -4.7670   22.5400 C   0  0  0  0  0  0  0  0  0  0  0  0
  -21.9500   -4.2270   21.3250 F   0  0  0  0  0  0  0  0  0  0  0  0
  -21.2240   -3.6820   26.0140 F   0  0  0  0  0  0  0  0  0  0  0  0
  -23.0920  -13.4560   21.0500 C   0  0  0  0  0  0  0  0  0  0  0  0
  -22.3400  -12.8530   21.9650 N   0  0  0  0  0  0  0  0  0  0  0  0
  -22.7110  -14.4840   20.4900 O   0  0  0  0  0  0  0  0  0  0  0  0
  -22.6620  -12.0210   22.4380 H   0  0  0  0  0  0  0  0  0  0  0  0
  -21.4320  -13.2290   22.1960 H   0  0  0  0  0  0  0  0  0  0  0  0
  -25.8320  -14.9040   20.1680 N   0  0  0  0  0  0  0  0  0  0  0  0
  -25.1190  -15.6180   20.2690 H   0  0  0  0  0  0  0  0  0  0  0  0
  -26.7090  -15.2640   19.8160 H   0  0  0  0  0  0  0  0  0  0  0  0
  1 55  1  0
  1  2  1  0
  3  2  1  0
  3  4  1  0
  4  6  1  0
  5  9  1  0
  6  5  1  0
  6  8  1  0
  7  5  2  0
  9 10  1  0
 11 12  1  0
 11 10  1  0
 13 12  1  0
 13 14  1  0
 15 26  2  0
 16 14  1  0
 16 21  1  0
 17 27  1  0
 17 25  1  0
 18 20  1  0
 19 25  1  0
 20 21  2  0
 20 19  1  0
 22 16  2  0
 23 22  1  0
 23 18  2  0
 24 18  1  0
 24 17  1  0
 25 15  1  0
 27 29  2  0
 28 27  1  0
 30 28  1  0
 31 36  1  0
 32 28  1  0
 33 32  1  0
 34 33  1  0
 35 34  1  0
 35 31  1  0
 36 32  1  0
 36 37  2  0
 38 37  1  0
 39 38  2  0
 40 31  2  0
 40 39  1  0
 41 15  1  0
 41 42  1  0
 41 46  1  0
 42 43  1  1
 42 45  1  0
 44 42  1  0
 46 47  1  0
 46 49  1  0
 47 51  1  0
 48 47  2  0
 51 50  1  0
 51 53  1  0
 53 54  1  0
 53 52  1  0
 56 57  1  0
 56 55  1  0
 58 57  1  0
 58 59  1  0
 59 60  1  0
 60 61  1  0
 61 62  1  0
 62 63  1  0
 63 64  1  0
 64 65  1  0
 65 66  1  0
 66 67  1  0
 67 68  1  0
 68 69  1  0
 70 78  1  0
 71 76  1  0
 72 73  1  0
 72 71  1  0
 74 73  1  0
 74 83  1  0
 74 75  1  0
 76 70  1  0
 76 75  1  0
 77 70  2  0
 78 69  1  0
 78 79  1  0
 80 81  2  0
 81100  1  0
 82 81  1  0
 82 85  1  0
 83 80  1  0
 83 84  1  0
 84 82  2  0
 85 86  1  0
 86 87  2  0
 88 91  1  0
 88 87  1  0
 89 88  2  0
 90 89  1  0
 90 85  2  0
 91 92  1  0
 92 93  1  0
 93 94  2  0
 95 94  1  0
 95 99  1  0
 96 95  2  0
 97 92  2  0
 97 96  1  0
 98 97  1  0
100101  1  0
101104  1  0
101103  1  0
102100  2  0
105106  1  0
105 80  1  0
107105  1  0
M  ISO  4  13 101  14 101  70 100  78 100
M  END
>  <TORSDO>  (61) 
F 40

>  <SCORE>  (61) 
-6.587

>  <name>  (61) 
64

>  <ligand_id>  (61) 
64

>  <original_smiles>  (61) 
[H]c1c([H])c([H])c2c(c1[H])C([H])([H])C([H])([H])C([H])([H])C2([H])N([H])C(=O)C1([H])N(C(=O)C([H])(N([H])C(=O)C([H])(N([H])C([H])([H])[H])C([H])([H])[H])C(C([H])([H])[H])(C([H])([H])[H])C([H])([H])[H])C([H])([H])c2c([H])c(OC([H])([H])C([H])([H])OC([H])([H])C([H])([H])C(=O)N([H])C([H])([H])C([H])([H])OC([H])([H])C([H])([H])C([H])([H])OC([H])([H])C([H])([H])C([H])([H])C([H])([H])OC([H])([H])C([H])([H])C([H])([H])OC([H])([H])C([H])([H])C([H])([H])N([H])C(=O)N3C([H])([H])C([H])([H])C([H])([H])C([H])(n4nc(-c5c([H])c([H])c(Oc6c([H])c([H])c(F)c([H])c6F)c([H])c5[H])c(C(=O)N([H])[H])c4N([H])[H])C3([H])[H])c([H])c([H])c2C1([H])[H]

>  <smiles>  (61) 
[H]c1c([H])c([H])c2c(c1[H])C([H])([H])C([H])([H])C([H])([H])C2([H])N([H])C(=O)C1([H])N(C(=O)C([H])(N([H])C(=O)C([H])(N([H])C([H])([H])[H])C([H])([H])[H])C(C([H])([H])[H])(C([H])([H])[H])C([H])([H])[H])C([H])([H])c2c([H])c(OC([H])([H])C([H])([H])OC([H])([H])C([H])([H])C(=O)N([H])C([H])([H])C([H])([H])OC([H])([H])C([H])([H])C([H])([H])OC([H])([H])C([H])([H])C([H])([H])C([H])([H])OC([H])([H])C([H])([H])C([H])([H])OC([H])([H])C([H])([H])C([H])([H])N([H])C(=O)N3C([H])([H])C([H])([H])C([H])([H])C([H])(n4nc(-c5c([H])c([H])c(Oc6c([H])c([H])c(F)c([H])c6F)c([H])c5[H])c(C(=O)N([H])[H])c4N([H])[H])C3([H])[H])c([H])c([H])c2C1([H])[H]

$$$$
65:0:0
     RDKit          3D

101106  0  0  1  0  0  0  0  0999 V2000
  -20.8940  -26.8720   19.3940 C   0  0  0  0  0  2  0  0  0  0  0  0
  -21.6500  -25.5150   19.0420 O   0  0  0  0  0  0  0  0  0  0  0  0
  -23.1460  -25.1030   18.9590 C   0  0  0  0  0  3  0  0  0  0  0  0
  -23.7900  -23.6160   18.5550 C   0  0  0  0  0  3  0  0  0  0  0  0
  -25.2200  -23.1740   18.8940 O   0  0  0  0  0  0  0  0  0  0  0  0
  -25.8250  -21.8220   18.4880 C   0  0  0  0  0  3  0  0  0  0  0  0
  -27.2790  -21.2300   19.0500 C   0  0  0  0  0  3  0  0  0  0  0  0
  -28.4920  -18.8410   19.6170 C   0  0  0  0  0  0  0  0  0  0  0  0
  -27.7780  -19.7620   18.8270 N   0  0  0  0  0  0  0  0  0  0  0  0
  -28.5900  -19.0350   20.8290 O   0  0  0  0  0  0  0  0  0  0  0  0
  -27.6850  -19.4500   17.8710 H   0  0  0  0  0  0  0  0  0  0  0  0
  -28.4940  -16.9790   17.8160 C   0  0  0  0  0  1  0  0  0  0  0  0
  -29.2660  -17.5210   19.0330 C   0  0  0  0  0  3  0  0  0  0  0  0
  -30.7870  -15.4550   20.1110 C   0  0  0  0  0  0  0  0  0  0  0  0
  -31.0990  -13.0000   19.7420 C   0  0  0  0  0  2  0  0  0  0  0  0
  -30.2710  -12.6910   18.4750 C   0  0  0  0  0  2  0  0  0  0  0  0
  -28.7910  -12.4340   18.8330 C   0  0  0  0  0  2  0  0  0  0  0  0
  -28.2340  -13.5250   19.7850 C   0  0  0  0  0  3  0  0  0  0  0  0
  -29.1760  -13.7580   20.9810 C   0  0  0  0  0  2  0  0  0  0  0  0
  -30.4610  -14.1550   20.4120 N   0  0  0  0  0  0  0  0  0  0  0  0
  -31.9690  -15.7160   19.8310 O   0  0  0  0  0  0  0  0  0  0  0  0
  -29.6780  -16.3190   19.9350 N   0  0  0  0  0  0  0  0  0  0  0  0
  -28.8550  -15.9000   20.3450 H   0  0  0  0  0  0  0  0  0  0  0  0
  -25.8510  -14.1650   20.4680 C   0  0  0  0  0  0  0  0  0  0  0  0
  -24.7710  -13.4030   20.8190 C   0  0  0  0  0  0  0  0  0  0  0  0
  -25.2150  -12.0440   20.7830 C   0  0  0  0  0  0  0  0  0  0  0  0
  -26.8790  -13.2650   20.2290 N   0  0  0  0  0  0  0  0  0  0  0  0
  -26.5090  -11.9890   20.4890 N   0  0  0  0  0  0  0  0  0  0  0  0
  -24.4730  -10.7930   20.9400 C   0  0  0  0  0  0  0  0  0  0  0  0
  -24.8350   -9.8390   21.9170 C   0  0  0  0  0  3  0  0  0  0  0  0
  -24.0930   -8.6490   22.0640 C   0  0  0  0  0  3  0  0  0  0  0  0
  -22.9760   -8.4070   21.2280 C   0  0  0  0  0  0  0  0  0  0  0  0
  -22.6340   -9.3480   20.2420 C   0  0  0  0  0  3  0  0  0  0  0  0
  -23.3770  -10.5300   20.0960 C   0  0  0  0  0  3  0  0  0  0  0  0
  -22.2110   -7.2670   21.2770 O   0  0  0  0  0  0  0  0  0  0  0  0
  -21.9670   -6.6160   22.4580 C   0  0  0  0  0  0  0  0  0  0  0  0
  -21.3710   -7.2690   23.5600 C   0  0  0  0  0  3  0  0  0  0  0  0
  -21.0760   -6.5440   24.7300 C   0  0  0  0  0  3  0  0  0  0  0  0
  -21.3660   -5.1690   24.8020 C   0  0  0  0  0  0  0  0  0  0  0  0
  -21.9530   -4.5150   23.7020 C   0  0  0  0  0  3  0  0  0  0  0  0
  -22.2510   -5.2380   22.5350 C   0  0  0  0  0  0  0  0  0  0  0  0
  -22.7970   -4.6000   21.4710 F   0  0  0  0  0  0  0  0  0  0  0  0
  -21.0770   -4.4720   25.9240 F   0  0  0  0  0  0  0  0  0  0  0  0
  -23.3750  -13.8940   21.0690 C   0  0  0  0  0  0  0  0  0  0  0  0
  -22.6350  -13.2310   21.9480 N   0  0  0  0  0  0  0  0  0  0  0  0
  -22.9480  -14.9110   20.5180 O   0  0  0  0  0  0  0  0  0  0  0  0
  -22.9890  -12.4090   22.4130 H   0  0  0  0  0  0  0  0  0  0  0  0
  -21.6990  -13.5440   22.1610 H   0  0  0  0  0  0  0  0  0  0  0  0
  -26.0350  -15.5390   20.3140 N   0  0  0  0  0  0  0  0  0  0  0  0
  -25.2530  -16.1800   20.4110 H   0  0  0  0  0  0  0  0  0  0  0  0
  -26.8430  -15.9640   19.8830 H   0  0  0  0  0  0  0  0  0  0  0  0
  -20.0140  -27.3970   20.8920 C   0  0  0  0  0  3  0  0  0  0  0  0
  -19.9700  -26.2960   22.9630 N   0  0  0  0  0  0  0  0  0  0  0  0
  -19.2290  -26.7950   23.4520 H   0  0  0  0  0  0  0  0  0  0  0  0
  -19.5380  -25.4170   22.7070 H   0  0  0  0  0  0  0  0  0  0  0  0
  -21.1300  -25.8830   24.0920 C   0  0  0  0  0  2  0  0  0  0  0  0
  -22.8600  -26.2610   24.2160 C   0  0  0  0  0  2  0  0  0  0  0  0
  -24.0520  -25.9330   23.2460 O   0  0  0  0  0  0  0  0  0  0  0  0
  -25.5180  -26.4140   23.1660 C   0  0  0  0  0  2  0  0  0  0  0  0
  -26.5550  -25.9590   21.9210 C   0  0  0  0  0  2  0  0  0  0  0  0
  -27.7660  -26.6690   21.2280 O   0  0  0  0  0  0  0  0  0  0  0  0
  -24.7020  -32.0180   23.2640 C   0  0  0  0  0  0  0  0  0  0  0  0
  -27.3640  -27.6770   20.4150 C   0  0  0  0  0  0  0  0  0  0  0  0
  -23.7090  -30.8110   21.3760 C   0  0  0  0  0  3  0  0  0  0  0  0
  -25.2290  -29.3500   19.9720 C   0  0  0  0  0  0  0  0  0  0  0  0
  -26.1960  -31.1330   21.4560 C   0  0  0  0  0  2  0  0  0  0  0  0
  -26.3060  -29.8010   20.7490 C   0  0  0  0  0  0  0  0  0  0  0  0
  -27.4170  -28.9720   20.9510 C   0  0  0  0  0  3  0  0  0  0  0  0
  -26.4330  -27.3260   19.4250 C   0  0  0  0  0  3  0  0  0  0  0  0
  -25.3090  -28.1420   19.2570 C   0  0  0  0  0  3  0  0  0  0  0  0
  -24.0060  -30.2230   19.9710 C   0  0  0  0  0  2  0  0  0  0  0  0
  -24.8860  -31.3460   22.0910 N   0  0  0  0  0  0  0  0  0  0  0  0
  -23.5690  -32.2160   23.7340 O   0  0  0  0  0  0  0  0  0  0  0  0
  -23.1040  -29.7200   22.1980 C   0  0  0  0  0  0  0  0  0  0  0  0
  -21.8040  -29.7220   22.1650 N   0  0  0  0  0  0  0  0  0  0  0  0
  -23.7790  -28.9210   22.8390 O   0  0  0  0  0  0  0  0  0  0  0  0
  -21.2710  -30.4550   21.7220 H   0  0  0  0  0  0  0  0  0  0  0  0
  -17.9540  -28.5810   23.0020 C   0  0  0  0  0  0  0  0  0  0  0  0
  -21.1990  -28.6670   22.8050 C   0  0  0  0  0  2  0  0  0  0  0  0
  -21.3630  -26.7480   21.5890 C   0  0  0  0  0  1  0  0  0  0  0  0
  -19.3220  -25.8370   21.2110 C   0  0  0  0  0  1  0  0  0  0  0  0
  -17.6720  -26.9420   21.9670 C   0  0  0  0  0  1  0  0  0  0  0  0
  -19.4270  -29.3040   23.3540 C   0  0  0  0  0  0  0  0  0  0  0  0
  -19.3790  -30.4500   24.1540 C   0  0  0  0  0  3  0  0  0  0  0  0
  -18.1570  -31.0050   24.5710 C   0  0  0  0  0  3  0  0  0  0  0  0
  -16.9180  -30.4370   24.2170 C   0  0  0  0  0  3  0  0  0  0  0  0
  -16.8160  -29.2530   23.4590 C   0  0  0  0  0  3  0  0  0  0  0  0
  -25.9120  -32.5950   24.0460 C   0  0  0  0  0  3  0  0  0  0  0  0
  -26.2720  -31.7730   25.3400 C   0  0  1  0  0  0  0  0  0  0  0  0
  -25.0710  -31.5190   26.2790 C   0  0  0  0  0  1  0  0  0  0  0  0
  -26.8770  -30.4010   24.9610 C   0  0  0  0  0  1  0  0  0  0  0  0
  -27.3540  -32.5270   26.1480 C   0  0  0  0  0  1  0  0  0  0  0  0
  -25.5760  -33.9820   24.3780 N   0  0  0  0  0  0  0  0  0  0  0  0
  -25.9520  -35.0400   23.6480 C   0  0  0  0  0  0  0  0  0  0  0  0
  -26.6910  -34.9450   22.6650 O   0  0  0  0  0  0  0  0  0  0  0  0
  -24.9370  -34.1260   25.1470 H   0  0  0  0  0  0  0  0  0  0  0  0
  -24.2480  -36.8290   23.1850 C   0  0  0  0  0  1  0  0  0  0  0  0
  -25.4280  -36.4200   24.0810 C   0  0  0  0  0  3  0  0  0  0  0  0
  -27.4970  -37.3020   25.0660 C   0  0  0  0  0  1  0  0  0  0  0  0
  -26.4640  -37.4740   24.0490 N   0  0  0  0  0  0  0  0  0  0  0  0
  -26.0470  -38.3910   24.1740 H   0  0  0  0  0  0  0  0  0  0  0  0
  1 52  1  0
  2  1  1  0
  3  2  1  0
  4  5  1  0
  4  3  2  0
  6  5  1  0
  6  7  2  0
  8 10  2  0
  9  7  1  0
  9  8  1  0
 11  9  1  0
 13 12  1  0
 13  8  1  0
 13 22  1  0
 14 20  1  0
 15 20  1  0
 16 17  1  0
 16 15  1  0
 18 17  1  0
 18 27  1  0
 18 19  1  0
 20 19  1  0
 21 14  2  0
 22 14  1  0
 22 23  1  0
 24 25  2  0
 25 44  1  0
 26 25  1  0
 26 29  1  0
 27 24  1  0
 27 28  1  0
 28 26  2  0
 29 30  1  0
 30 31  2  0
 32 35  1  0
 32 31  1  0
 33 32  2  0
 34 33  1  0
 34 29  2  0
 35 36  1  0
 36 41  2  0
 36 37  1  0
 37 38  2  0
 38 39  1  0
 39 43  1  0
 40 39  2  0
 41 40  1  0
 42 41  1  0
 44 45  1  0
 45 48  1  0
 45 47  1  0
 46 44  2  0
 49 50  1  0
 49 24  1  0
 51 49  1  0
 52 81  1  0
 52 80  1  0
 53 54  1  0
 53 56  1  0
 55 53  1  0
 56 57  1  0
 58 57  1  0
 59 58  1  0
 60 59  1  0
 61 60  1  0
 62 73  2  0
 63 68  1  0
 63 61  1  0
 64 72  1  0
 64 74  1  0
 65 67  1  0
 66 72  1  0
 67 68  2  0
 67 66  1  0
 69 63  2  0
 70 69  1  0
 70 65  2  0
 71 65  1  0
 71 64  1  0
 72 62  1  0
 74 76  2  0
 75 74  1  0
 75 79  1  0
 77 75  1  0
 78 83  2  0
 78 87  1  0
 79 83  1  0
 82 78  1  0
 83 84  1  0
 84 85  2  0
 86 85  1  0
 87 86  2  0
 88 62  1  0
 88 93  1  0
 88 89  1  0
 89 92  1  1
 89 90  1  0
 91 89  1  0
 93 96  1  0
 94 98  1  0
 94 93  1  0
 95 94  2  0
 98 97  1  0
100 98  1  0
100101  1  0
100 99  1  0
M  ISO  4  14 100  22 100  60 101  61 101
M  END
>  <TORSDO>  (62) 
F 31

>  <SCORE>  (62) 
-9.078

>  <name>  (62) 
65

>  <ligand_id>  (62) 
65

>  <original_smiles>  (62) 
[H]c1c([H])c([H])c2c(c1[H])C([H])([H])C([H])([H])C([H])([H])C2([H])N([H])C(=O)C1([H])N(C(=O)C([H])(N([H])C(=O)C([H])(N([H])C([H])([H])[H])C([H])([H])[H])C(C([H])([H])[H])(C([H])([H])[H])C([H])([H])[H])C([H])([H])c2c([H])c(OC([H])([H])C([H])([H])OC([H])([H])C([H])([H])[N+]([H])([H])C([H])([H])C([H])([H])OC([H])([H])C([H])([H])OC([H])([H])C([H])([H])N([H])C(=O)C([H])(N([H])C(=O)N3C([H])([H])C([H])([H])C([H])([H])C([H])(n4nc(-c5c([H])c([H])c(Oc6c([H])c([H])c(F)c([H])c6F)c([H])c5[H])c(C(=O)N([H])[H])c4N([H])[H])C3([H])[H])C([H])([H])[H])c([H])c([H])c2C1([H])[H]

>  <smiles>  (62) 
[H]c1c([H])c([H])c2c(c1[H])C([H])([H])C([H])([H])C([H])([H])C2([H])N([H])C(=O)C1([H])N(C(=O)C([H])(N([H])C(=O)C([H])(N([H])C([H])([H])[H])C([H])([H])[H])C(C([H])([H])[H])(C([H])([H])[H])C([H])([H])[H])C([H])([H])c2c([H])c(OC([H])([H])C([H])([H])OC([H])([H])C([H])([H])[N+]([H])([H])C([H])([H])C([H])([H])OC([H])([H])C([H])([H])OC([H])([H])C([H])([H])N([H])C(=O)C([H])(N([H])C(=O)N3C([H])([H])C([H])([H])C([H])([H])C([H])(n4nc(-c5c([H])c([H])c(Oc6c([H])c([H])c(F)c([H])c6F)c([H])c5[H])c(C(=O)N([H])[H])c4N([H])[H])C3([H])[H])C([H])([H])[H])c([H])c([H])c2C1([H])[H]

$$$$
66:0:0
     RDKit          3D

105112  0  0  1  0  0  0  0  0999 V2000
  -27.4970  -20.7150   20.4980 C   0  0  0  0  0  0  0  0  0  0  0  0
  -28.5970  -21.0850   21.1610 N   0  0  0  0  0  0  0  0  0  0  0  0
  -27.2260  -19.5520   20.1960 O   0  0  0  0  0  0  0  0  0  0  0  0
  -28.6800  -22.0650   21.3880 H   0  0  0  0  0  0  0  0  0  0  0  0
  -25.5600  -21.8440   19.4950 C   0  0  0  0  0  3  0  0  0  0  0  0
  -26.6940  -21.8800   20.2210 C   0  0  0  0  0  3  0  0  0  0  0  0
  -24.8180  -23.0810   19.3690 C   0  0  0  0  0  0  0  0  0  0  0  0
  -24.4790  -23.5450   20.5780 N   0  0  0  0  0  0  0  0  0  0  0  0
  -24.5990  -23.6860   18.3200 O   0  0  0  0  0  0  0  0  0  0  0  0
  -24.6440  -22.9030   21.3400 H   0  0  0  0  0  0  0  0  0  0  0  0
  -24.3440  -24.9460   20.9590 C   0  0  0  0  0  2  0  0  0  0  0  0
  -25.5280  -25.3230   21.8680 C   0  0  0  0  0  2  0  0  0  0  0  0
  -26.7410  -25.1040   21.1580 O   0  0  0  0  0  0  0  0  0  0  0  0
  -27.9330  -25.3550   21.8970 C   0  0  0  0  0  2  0  0  0  0  0  0
  -29.0540  -25.7720   20.9050 C   0  0  0  0  0  2  0  0  0  0  0  0
  -29.1520  -27.1890   20.6850 O   0  0  0  0  0  0  0  0  0  0  0  0
  -24.8150  -31.9760   23.5590 C   0  0  0  0  0  0  0  0  0  0  0  0
  -27.9710  -27.8710   20.5300 C   0  0  0  0  0  0  0  0  0  0  0  0
  -23.8460  -30.6030   21.7430 C   0  0  0  0  0  3  0  0  0  0  0  0
  -25.5070  -29.2270   20.3900 C   0  0  0  0  0  0  0  0  0  0  0  0
  -26.3550  -31.1130   21.8000 C   0  0  0  0  0  2  0  0  0  0  0  0
  -26.5750  -29.7870   21.1030 C   0  0  0  0  0  0  0  0  0  0  0  0
  -27.8130  -29.1180   21.1700 C   0  0  0  0  0  3  0  0  0  0  0  0
  -26.8980  -27.3350   19.7860 C   0  0  0  0  0  3  0  0  0  0  0  0
  -25.6590  -27.9960   19.7320 C   0  0  0  0  0  3  0  0  0  0  0  0
  -24.2180  -30.0110   20.3590 C   0  0  0  0  0  2  0  0  0  0  0  0
  -25.0180  -31.2430   22.4270 N   0  0  0  0  0  0  0  0  0  0  0  0
  -23.6740  -32.1630   24.0040 O   0  0  0  0  0  0  0  0  0  0  0  0
  -23.1710  -29.4960   22.5910 C   0  0  0  0  0  0  0  0  0  0  0  0
  -21.8600  -29.3050   22.3790 N   0  0  0  0  0  0  0  0  0  0  0  0
  -23.8280  -28.8140   23.3810 O   0  0  0  0  0  0  0  0  0  0  0  0
  -21.3950  -29.9030   21.7100 H   0  0  0  0  0  0  0  0  0  0  0  0
  -18.4650  -28.1090   22.7040 C   0  0  0  0  0  0  0  0  0  0  0  0
  -21.0210  -28.3010   23.0330 C   0  0  0  0  0  3  0  0  0  0  0  0
  -21.1150  -26.9370   22.3120 C   0  0  0  0  0  2  0  0  0  0  0  0
  -20.0240  -26.7380   21.2550 C   0  0  0  0  0  2  0  0  0  0  0  0
  -18.6360  -26.8310   21.8980 C   0  0  0  0  0  2  0  0  0  0  0  0
  -19.5860  -28.8040   23.2260 C   0  0  0  0  0  0  0  0  0  0  0  0
  -19.3770  -29.9980   23.9490 C   0  0  0  0  0  3  0  0  0  0  0  0
  -18.0780  -30.4960   24.1560 C   0  0  0  0  0  3  0  0  0  0  0  0
  -16.9690  -29.7970   23.6510 C   0  0  0  0  0  3  0  0  0  0  0  0
  -17.1620  -28.6050   22.9340 C   0  0  0  0  0  3  0  0  0  0  0  0
  -26.0010  -32.6380   24.3310 C   0  0  0  0  0  3  0  0  0  0  0  0
  -26.3320  -31.9240   25.6980 C   0  0  1  0  0  0  0  0  0  0  0  0
  -25.0950  -31.7180   26.6030 C   0  0  0  0  0  1  0  0  0  0  0  0
  -26.9740  -30.5380   25.4490 C   0  0  0  0  0  1  0  0  0  0  0  0
  -27.3710  -32.7520   26.4860 C   0  0  0  0  0  1  0  0  0  0  0  0
  -25.6550  -34.0490   24.5490 N   0  0  0  0  0  0  0  0  0  0  0  0
  -26.0770  -35.0620   23.7810 C   0  0  0  0  0  0  0  0  0  0  0  0
  -26.8720  -34.9090   22.8490 O   0  0  0  0  0  0  0  0  0  0  0  0
  -24.9640  -34.2430   25.2590 H   0  0  0  0  0  0  0  0  0  0  0  0
  -24.3970  -36.8140   23.1310 C   0  0  0  0  0  1  0  0  0  0  0  0
  -25.5370  -36.4680   24.1010 C   0  0  0  0  0  3  0  0  0  0  0  0
  -27.5640  -37.4110   25.1150 C   0  0  0  0  0  1  0  0  0  0  0  0
  -26.5740  -37.5230   24.0470 N   0  0  0  0  0  0  0  0  0  0  0  0
  -26.1510  -38.4460   24.1030 H   0  0  0  0  0  0  0  0  0  0  0  0
  -29.7410  -20.2570   21.5160 C   0  0  0  0  0  2  0  0  0  0  0  0
  -31.0200  -20.8070   20.8740 C   0  0  0  0  0  2  0  0  0  0  0  0
  -30.8580  -20.7390   19.4680 O   0  0  0  0  0  0  0  0  0  0  0  0
  -31.9840  -21.1650   18.7140 C   0  0  0  0  0  2  0  0  0  0  0  0
  -32.1570  -20.1950   17.5340 C   0  0  0  0  0  2  0  0  0  0  0  0
  -31.0140  -20.2350   16.6840 O   0  0  0  0  0  0  0  0  0  0  0  0
  -30.3870  -18.9730   16.4810 C   0  0  0  0  0  2  0  0  0  0  0  0
  -29.4940  -18.5640   17.6690 C   0  0  0  0  0  2  0  0  0  0  0  0
  -30.2820  -18.1390   18.7790 O   0  0  0  0  0  0  0  0  0  0  0  0
  -29.9180  -16.8740   19.3000 C   0  0  0  0  0  2  0  0  0  0  0  0
  -30.7060  -16.5900   20.5940 C   0  0  0  0  0  2  0  0  0  0  0  0
  -31.1800  -14.2120   20.3850 C   0  0  0  0  0  0  0  0  0  0  0  0
  -30.7150  -12.1750   19.1100 C   0  0  0  0  0  2  0  0  0  0  0  0
  -29.7940  -12.5570   17.9350 C   0  0  0  0  0  2  0  0  0  0  0  0
  -28.3110  -12.5240   18.3590 C   0  0  0  0  0  2  0  0  0  0  0  0
  -28.0460  -13.2890   19.6840 C   0  0  0  0  0  3  0  0  0  0  0  0
  -29.0750  -12.8850   20.7640 C   0  0  0  0  0  2  0  0  0  0  0  0
  -30.4290  -13.0970   20.2160 N   0  0  0  0  0  0  0  0  0  0  0  0
  -32.2770  -14.3980   19.8550 O   0  0  0  0  0  0  0  0  0  0  0  0
  -30.5280  -15.2040   20.9860 N   0  0  0  0  0  0  0  0  0  0  0  0
  -29.6590  -14.9620   21.4350 H   0  0  0  0  0  0  0  0  0  0  0  0
  -25.6650  -14.0210   20.3480 C   0  0  0  0  0  0  0  0  0  0  0  0
  -24.5600  -13.3050   20.7250 C   0  0  0  0  0  0  0  0  0  0  0  0
  -24.9620  -11.9350   20.7280 C   0  0  0  0  0  0  0  0  0  0  0  0
  -26.6740  -13.0910   20.1500 N   0  0  0  0  0  0  0  0  0  0  0  0
  -26.2500  -11.8310   20.4280 N   0  0  0  0  0  0  0  0  0  0  0  0
  -24.1820  -10.7090   20.9420 C   0  0  0  0  0  0  0  0  0  0  0  0
  -24.5760   -9.7390   21.8900 C   0  0  0  0  0  3  0  0  0  0  0  0
  -23.8010   -8.5760   22.0920 C   0  0  0  0  0  3  0  0  0  0  0  0
  -22.6190   -8.3750   21.3410 C   0  0  0  0  0  0  0  0  0  0  0  0
  -22.2430   -9.3320   20.3790 C   0  0  0  0  0  3  0  0  0  0  0  0
  -23.0200  -10.4840   20.1780 C   0  0  0  0  0  3  0  0  0  0  0  0
  -21.8190   -7.2630   21.4450 O   0  0  0  0  0  0  0  0  0  0  0  0
  -21.7360   -6.5420   22.6100 C   0  0  0  0  0  0  0  0  0  0  0  0
  -21.3420   -7.1360   23.8280 C   0  0  0  0  0  3  0  0  0  0  0  0
  -21.2070   -6.3460   24.9870 C   0  0  0  0  0  3  0  0  0  0  0  0
  -21.4550   -4.9610   24.9270 C   0  0  0  0  0  0  0  0  0  0  0  0
  -21.8450   -4.3670   23.7140 C   0  0  0  0  0  3  0  0  0  0  0  0
  -21.9830   -5.1560   22.5580 C   0  0  0  0  0  0  0  0  0  0  0  0
  -22.3370   -4.5750   21.3870 F   0  0  0  0  0  0  0  0  0  0  0  0
  -21.3170   -4.1990   26.0360 F   0  0  0  0  0  0  0  0  0  0  0  0
  -23.1830  -13.8470   20.9790 C   0  0  0  0  0  0  0  0  0  0  0  0
  -22.4280  -13.2110   21.8690 N   0  0  0  0  0  0  0  0  0  0  0  0
  -22.7850  -14.8710   20.4230 O   0  0  0  0  0  0  0  0  0  0  0  0
  -22.7610  -12.3860   22.3440 H   0  0  0  0  0  0  0  0  0  0  0  0
  -21.5020  -13.5580   22.0810 H   0  0  0  0  0  0  0  0  0  0  0  0
  -25.8870  -15.3810   20.1470 N   0  0  0  0  0  0  0  0  0  0  0  0
  -25.1460  -16.0650   20.2510 H   0  0  0  0  0  0  0  0  0  0  0  0
  -26.7630  -15.7880   19.8490 H   0  0  0  0  0  0  0  0  0  0  0  0
  1  2  1  0
  2  4  1  0
  2 57  1  0
  3  1  2  0
  5  6  2  0
  6  1  1  0
  7  5  1  0
  7  8  1  0
  8 11  1  0
  8 10  1  0
  9  7  2  0
 11 12  1  0
 13 12  1  0
 13 14  1  0
 15 14  1  0
 16 15  1  0
 17 28  2  0
 18 16  1  0
 18 23  1  0
 19 27  1  0
 19 29  1  0
 20 22  1  0
 21 27  1  0
 22 23  2  0
 22 21  1  0
 24 18  2  0
 25 24  1  0
 25 20  2  0
 26 20  1  0
 26 19  1  0
 27 17  1  0
 29 31  2  0
 30 29  1  0
 32 30  1  0
 33 42  2  0
 33 38  1  0
 34 30  1  0
 34 38  1  0
 35 34  1  0
 36 37  1  0
 36 35  1  0
 37 33  1  0
 38 39  2  0
 39 40  1  0
 41 40  2  0
 42 41  1  0
 43 17  1  0
 43 48  1  0
 43 44  1  0
 44 47  1  1
 44 45  1  0
 46 44  1  0
 48 51  1  0
 49 53  1  0
 49 48  1  0
 50 49  2  0
 53 52  1  0
 55 53  1  0
 55 56  1  0
 55 54  1  0
 58 57  1  0
 59 58  1  0
 60 59  1  0
 61 60  1  0
 62 61  1  0
 63 62  1  0
 63 64  1  0
 64 65  1  0
 65 66  1  0
 66 67  1  0
 67 76  1  0
 68 76  1  0
 69 74  1  0
 70 71  1  0
 70 69  1  0
 72 71  1  0
 72 81  1  0
 72 73  1  0
 74 68  1  0
 74 73  1  0
 75 68  2  0
 76 77  1  0
 78 79  2  0
 79 80  1  0
 79 98  1  0
 80 83  1  0
 81 78  1  0
 81 82  1  0
 82 80  2  0
 83 84  1  0
 84 85  2  0
 86 89  1  0
 86 85  1  0
 87 86  2  0
 88 87  1  0
 88 83  2  0
 89 90  1  0
 90 91  1  0
 91 92  2  0
 93 92  1  0
 93 97  1  0
 94 93  2  0
 95 90  2  0
 95 94  1  0
 96 95  1  0
 98 99  1  0
 99102  1  0
 99101  1  0
100 98  2  0
103104  1  0
103 78  1  0
105103  1  0
M  ISO  4  15 101  16 101  68 100  76 100
M  END
>  <TORSDO>  (63) 
F 34

>  <SCORE>  (63) 
-9.027

>  <name>  (63) 
66

>  <ligand_id>  (63) 
66

>  <original_smiles>  (63) 
[H]C(C(=O)N([H])C([H])([H])C([H])([H])OC([H])([H])C([H])([H])Oc1c([H])c([H])c2c(c1[H])C([H])([H])N(C(=O)C([H])(N([H])C(=O)C([H])(N([H])C([H])([H])[H])C([H])([H])[H])C(C([H])([H])[H])(C([H])([H])[H])C([H])([H])[H])C([H])(C(=O)N([H])C1([H])c3c([H])c([H])c([H])c([H])c3C([H])([H])C([H])([H])C1([H])[H])C2([H])[H])=C([H])C(=O)N([H])C([H])([H])C([H])([H])OC([H])([H])C([H])([H])OC([H])([H])C([H])([H])OC([H])([H])C([H])([H])N([H])C(=O)N1C([H])([H])C([H])([H])C([H])([H])C([H])(n2nc(-c3c([H])c([H])c(Oc4c([H])c([H])c(F)c([H])c4F)c([H])c3[H])c(C(=O)N([H])[H])c2N([H])[H])C1([H])[H]

>  <smiles>  (63) 
[H]C(C(=O)N([H])C([H])([H])C([H])([H])OC([H])([H])C([H])([H])Oc1c([H])c([H])c2c(c1[H])C([H])([H])N(C(=O)C([H])(N([H])C(=O)C([H])(N([H])C([H])([H])[H])C([H])([H])[H])C(C([H])([H])[H])(C([H])([H])[H])C([H])([H])[H])C([H])(C(=O)N([H])C1([H])c3c([H])c([H])c([H])c([H])c3C([H])([H])C([H])([H])C1([H])[H])C2([H])[H])=C([H])C(=O)N([H])C([H])([H])C([H])([H])OC([H])([H])C([H])([H])OC([H])([H])C([H])([H])OC([H])([H])C([H])([H])N([H])C(=O)N1C([H])([H])C([H])([H])C([H])([H])C([H])(n2nc(-c3c([H])c([H])c(Oc4c([H])c([H])c(F)c([H])c4F)c([H])c3[H])c(C(=O)N([H])[H])c2N([H])[H])C1([H])[H]

$$$$
67:0:0
     RDKit          3D

104111  0  0  1  0  0  0  0  0999 V2000
  -27.6700  -21.7250   18.9180 C   0  0  0  0  0  2  0  0  0  0  0  0
  -28.2330  -22.5070   20.1160 C   0  0  0  0  0  2  0  0  0  0  0  0
  -29.6470  -22.6200   20.0450 O   0  0  0  0  0  0  0  0  0  0  0  0
  -30.1840  -23.1330   21.2600 C   0  0  0  0  0  2  0  0  0  0  0  0
  -31.6750  -23.4450   21.0940 C   0  0  0  0  0  2  0  0  0  0  0  0
  -31.7510  -24.6920   20.4250 O   0  0  0  0  0  0  0  0  0  0  0  0
  -33.0550  -25.1040   20.0390 C   0  0  0  0  0  2  0  0  0  0  0  0
  -32.9490  -26.6070   19.7540 C   0  0  0  0  0  2  0  0  0  0  0  0
  -31.8840  -26.8050   18.8270 O   0  0  0  0  0  0  0  0  0  0  0  0
  -31.1170  -27.9750   19.0850 C   0  0  0  0  0  2  0  0  0  0  0  0
  -29.8250  -27.9440   18.2530 C   0  0  0  0  0  2  0  0  0  0  0  0
  -28.8620  -26.7860   18.6040 C   0  0  0  0  0  2  0  0  0  0  0  0
  -28.2990  -26.9120   19.9150 O   0  0  0  0  0  0  0  0  0  0  0  0
  -24.5300  -31.9770   23.2010 C   0  0  0  0  0  0  0  0  0  0  0  0
  -27.1140  -27.6050   19.9800 C   0  0  0  0  0  0  0  0  0  0  0  0
  -23.2810  -30.5990   21.5680 C   0  0  0  0  0  3  0  0  0  0  0  0
  -24.6990  -29.0620   20.1080 C   0  0  0  0  0  0  0  0  0  0  0  0
  -25.7980  -30.9580   21.3120 C   0  0  0  0  0  2  0  0  0  0  0  0
  -25.8680  -29.5900   20.6680 C   0  0  0  0  0  0  0  0  0  0  0  0
  -27.0780  -28.8650   20.6110 C   0  0  0  0  0  3  0  0  0  0  0  0
  -25.9280  -27.0670   19.4420 C   0  0  0  0  0  3  0  0  0  0  0  0
  -24.7170  -27.7870   19.5070 C   0  0  0  0  0  3  0  0  0  0  0  0
  -23.4640  -29.9340   20.1770 C   0  0  0  0  0  2  0  0  0  0  0  0
  -24.5560  -31.1890   22.0870 N   0  0  0  0  0  0  0  0  0  0  0  0
  -23.4620  -32.2470   23.7680 O   0  0  0  0  0  0  0  0  0  0  0  0
  -22.6410  -29.5710   22.5300 C   0  0  0  0  0  0  0  0  0  0  0  0
  -21.3150  -29.3970   22.4300 N   0  0  0  0  0  0  0  0  0  0  0  0
  -23.3380  -28.9340   23.3260 O   0  0  0  0  0  0  0  0  0  0  0  0
  -20.8100  -29.9740   21.7710 H   0  0  0  0  0  0  0  0  0  0  0  0
  -17.9490  -28.1980   22.9600 C   0  0  0  0  0  0  0  0  0  0  0  0
  -20.5070  -28.4560   23.2060 C   0  0  0  0  0  3  0  0  0  0  0  0
  -20.6030  -27.0240   22.6300 C   0  0  0  0  0  2  0  0  0  0  0  0
  -19.4930  -26.7040   21.6230 C   0  0  0  0  0  2  0  0  0  0  0  0
  -18.1200  -26.8480   22.2820 C   0  0  0  0  0  2  0  0  0  0  0  0
  -19.0710  -28.9590   23.3810 C   0  0  0  0  0  0  0  0  0  0  0  0
  -18.8590  -30.2210   23.9750 C   0  0  0  0  0  3  0  0  0  0  0  0
  -17.5550  -30.7260   24.1490 C   0  0  0  0  0  3  0  0  0  0  0  0
  -16.4470  -29.9620   23.7410 C   0  0  0  0  0  3  0  0  0  0  0  0
  -16.6450  -28.7000   23.1540 C   0  0  0  0  0  3  0  0  0  0  0  0
  -25.8310  -32.5930   23.8010 C   0  0  0  0  0  3  0  0  0  0  0  0
  -25.5300  -33.9830   24.1690 N   0  0  0  0  0  0  0  0  0  0  0  0
  -25.8510  -35.0530   23.4270 C   0  0  0  0  0  0  0  0  0  0  0  0
  -26.4990  -34.9730   22.3810 O   0  0  0  0  0  0  0  0  0  0  0  0
  -24.9440  -34.1180   24.9790 H   0  0  0  0  0  0  0  0  0  0  0  0
  -24.1160  -36.8570   23.1510 C   0  0  0  0  0  1  0  0  0  0  0  0
  -25.3710  -36.4290   23.9270 C   0  0  0  0  0  3  0  0  0  0  0  0
  -27.5280  -37.2890   24.7300 C   0  0  0  0  0  1  0  0  0  0  0  0
  -26.4020  -37.4850   23.8190 N   0  0  0  0  0  0  0  0  0  0  0  0
  -26.0010  -38.4000   24.0020 H   0  0  0  0  0  0  0  0  0  0  0  0
  -26.3900  -31.7910   25.0390 C   0  0  1  0  0  0  0  0  0  0  0  0
  -25.3390  -31.5300   26.1420 C   0  0  0  0  0  1  0  0  0  0  0  0
  -26.9480  -30.4210   24.5840 C   0  0  0  0  0  1  0  0  0  0  0  0
  -27.5660  -32.5630   25.6800 C   0  0  0  0  0  1  0  0  0  0  0  0
  -26.6680  -20.6100   19.2940 C   0  0  0  0  0  2  0  0  0  0  0  0
  -28.0300  -18.5290   19.4820 C   0  0  0  0  0  0  0  0  0  0  0  0
  -27.2280  -19.4580   20.0180 N   0  0  0  0  0  0  0  0  0  0  0  0
  -28.5800  -18.7070   18.3870 O   0  0  0  0  0  0  0  0  0  0  0  0
  -26.8160  -19.2550   20.9210 H   0  0  0  0  0  0  0  0  0  0  0  0
  -28.1860  -17.1650   20.2130 C   0  0  0  0  0  3  0  0  0  0  0  0
  -27.2570  -15.3770   18.7470 C   0  0  0  0  0  0  0  0  0  0  0  0
  -27.4630  -14.5660   17.4740 C   0  0  0  0  0  1  0  0  0  0  0  0
  -28.2820  -16.1280   19.1770 N   0  0  0  0  0  0  0  0  0  0  0  0
  -26.1750  -15.3250   19.3310 O   0  0  0  0  0  0  0  0  0  0  0  0
  -29.0950  -16.1710   18.5830 H   0  0  0  0  0  0  0  0  0  0  0  0
  -30.7510  -17.6250   20.5300 C   0  0  0  0  0  1  0  0  0  0  0  0
  -29.4390  -17.0850   21.1560 C   0  0  0  0  0  3  0  0  0  0  0  0
  -30.4580  -14.7460   21.5950 C   0  0  0  0  0  0  0  0  0  0  0  0
  -30.4790  -12.5310   20.5560 C   0  0  0  0  0  2  0  0  0  0  0  0
  -29.6580  -12.6590   19.2540 C   0  0  0  0  0  2  0  0  0  0  0  0
  -28.1650  -12.3890   19.5290 C   0  0  0  0  0  2  0  0  0  0  0  0
  -27.6290  -13.1900   20.7450 C   0  0  0  0  0  3  0  0  0  0  0  0
  -28.5850  -13.0970   21.9600 C   0  0  0  0  0  2  0  0  0  0  0  0
  -29.9290  -13.4940   21.5120 N   0  0  0  0  0  0  0  0  0  0  0  0
  -31.6280  -14.9850   21.3000 O   0  0  0  0  0  0  0  0  0  0  0  0
  -29.5290  -15.7190   21.7400 N   0  0  0  0  0  0  0  0  0  0  0  0
  -28.6400  -15.3700   22.0680 H   0  0  0  0  0  0  0  0  0  0  0  0
  -25.1520  -13.6150   21.2780 C   0  0  0  0  0  0  0  0  0  0  0  0
  -24.1170  -12.7650   21.5470 C   0  0  0  0  0  0  0  0  0  0  0  0
  -24.6620  -11.4470   21.4750 C   0  0  0  0  0  0  0  0  0  0  0  0
  -26.2670  -12.8100   21.0930 N   0  0  0  0  0  0  0  0  0  0  0  0
  -25.9710  -11.4970   21.2630 N   0  0  0  0  0  0  0  0  0  0  0  0
  -23.9990  -10.1420   21.5260 C   0  0  0  0  0  0  0  0  0  0  0  0
  -24.4450   -9.1270   22.4010 C   0  0  0  0  0  3  0  0  0  0  0  0
  -23.7820   -7.8830   22.4440 C   0  0  0  0  0  3  0  0  0  0  0  0
  -22.6640   -7.6420   21.6110 C   0  0  0  0  0  0  0  0  0  0  0  0
  -22.2400   -8.6510   20.7270 C   0  0  0  0  0  3  0  0  0  0  0  0
  -22.9020   -9.8880   20.6810 C   0  0  0  0  0  3  0  0  0  0  0  0
  -21.9780   -6.4540   21.5620 O   0  0  0  0  0  0  0  0  0  0  0  0
  -21.9100   -5.6170   22.6490 C   0  0  0  0  0  0  0  0  0  0  0  0
  -21.3990   -6.0570   23.8880 C   0  0  0  0  0  3  0  0  0  0  0  0
  -21.2910   -5.1540   24.9660 C   0  0  0  0  0  3  0  0  0  0  0  0
  -21.6780   -3.8120   24.7970 C   0  0  0  0  0  0  0  0  0  0  0  0
  -22.1810   -3.3690   23.5620 C   0  0  0  0  0  3  0  0  0  0  0  0
  -22.2970   -4.2730   22.4890 C   0  0  0  0  0  0  0  0  0  0  0  0
  -22.7660   -3.8410   21.2920 F   0  0  0  0  0  0  0  0  0  0  0  0
  -21.5620   -2.9390   25.8270 F   0  0  0  0  0  0  0  0  0  0  0  0
  -22.6810  -13.1510   21.7400 C   0  0  0  0  0  0  0  0  0  0  0  0
  -21.9370  -12.3740   22.5190 N   0  0  0  0  0  0  0  0  0  0  0  0
  -22.2300  -14.1860   21.2510 O   0  0  0  0  0  0  0  0  0  0  0  0
  -22.3140  -11.5440   22.9530 H   0  0  0  0  0  0  0  0  0  0  0  0
  -20.9730  -12.6220   22.6880 H   0  0  0  0  0  0  0  0  0  0  0  0
  -25.2160  -14.9960   21.1290 N   0  0  0  0  0  0  0  0  0  0  0  0
  -24.2820  -15.3970   21.1520 H   0  0  0  0  0  0  0  0  0  0  0  0
  -25.6310  -15.2180   20.2220 H   0  0  0  0  0  0  0  0  0  0  0  0
  1 54  1  0
  1  2  1  0
  3  2  1  0
  3  4  1  0
  5  4  1  0
  6  5  1  0
  7  6  1  0
  8  7  1  0
  9 10  1  0
  9  8  1  0
 11 12  1  0
 11 10  1  0
 12 13  1  0
 13 15  1  0
 14 25  2  0
 15 20  1  0
 16 24  1  0
 16 26  1  0
 17 23  1  0
 17 19  1  0
 18 24  1  0
 19 18  1  0
 20 19  2  0
 21 22  1  0
 21 15  2  0
 22 17  2  0
 23 16  1  0
 24 14  1  0
 26 28  2  0
 27 26  1  0
 29 27  1  0
 30 39  2  0
 30 35  1  0
 31 27  1  0
 31 35  1  0
 32 31  1  0
 33 34  1  0
 33 32  1  0
 34 30  1  0
 35 36  2  0
 36 37  1  0
 38 37  2  0
 39 38  1  0
 40 14  1  0
 40 41  1  0
 40 50  1  0
 41 44  1  0
 42 46  1  0
 42 41  1  0
 43 42  2  0
 46 45  1  0
 48 46  1  0
 48 49  1  0
 48 47  1  0
 50 53  1  1
 50 51  1  0
 52 50  1  0
 54 56  1  0
 55 56  1  0
 56 58  1  0
 57 55  2  0
 59 55  1  0
 59 66  1  0
 60 62  1  0
 60 63  2  0
 61 60  1  0
 62 59  1  0
 64 62  1  0
 66 65  1  0
 66 75  1  0
 67 75  1  0
 68 73  1  0
 69 70  1  0
 69 68  1  0
 71 70  1  0
 71 80  1  0
 71 72  1  0
 73 67  1  0
 73 72  1  0
 74 67  2  0
 75 76  1  0
 77 78  2  0
 78 97  1  0
 79 82  1  0
 79 78  1  0
 80 81  1  0
 80 77  1  0
 81 79  2  0
 82 83  1  0
 83 84  2  0
 85 84  1  0
 86 85  2  0
 87 86  1  0
 87 82  2  0
 88 85  1  0
 88 89  1  0
 89 90  1  0
 90 91  2  0
 92 91  1  0
 92 96  1  0
 93 92  2  0
 94 89  2  0
 94 93  1  0
 95 94  1  0
 97 98  1  0
 98101  1  0
 98100  1  0
 99 97  2  0
102103  1  0
102 77  1  0
104102  1  0
M  ISO  4  12 101  13 101  67 100  75 100
M  END
>  <TORSDO>  (64) 
F 32

>  <SCORE>  (64) 
-5.774

>  <name>  (64) 
67

>  <ligand_id>  (64) 
67

>  <original_smiles>  (64) 
[H]c1c([H])c([H])c2c(c1[H])C([H])([H])C([H])([H])C([H])([H])C2([H])N([H])C(=O)C1([H])N(C(=O)C([H])(N([H])C(=O)C([H])(N([H])C([H])([H])[H])C([H])([H])[H])C(C([H])([H])[H])(C([H])([H])[H])C([H])([H])[H])C([H])([H])c2c([H])c(OC([H])([H])C([H])([H])C([H])([H])OC([H])([H])C([H])([H])OC([H])([H])C([H])([H])OC([H])([H])C([H])([H])C([H])([H])N([H])C(=O)C([H])(N([H])C(=O)C([H])([H])[H])C([H])(N([H])C(=O)N3C([H])([H])C([H])([H])C([H])([H])C([H])(n4nc(-c5c([H])c([H])c(Oc6c([H])c([H])c(F)c([H])c6F)c([H])c5[H])c(C(=O)N([H])[H])c4N([H])[H])C3([H])[H])C([H])([H])[H])c([H])c([H])c2C1([H])[H]

>  <smiles>  (64) 
[H]c1c([H])c([H])c2c(c1[H])C([H])([H])C([H])([H])C([H])([H])C2([H])N([H])C(=O)C1([H])N(C(=O)C([H])(N([H])C(=O)C([H])(N([H])C([H])([H])[H])C([H])([H])[H])C(C([H])([H])[H])(C([H])([H])[H])C([H])([H])[H])C([H])([H])c2c([H])c(OC([H])([H])C([H])([H])C([H])([H])OC([H])([H])C([H])([H])OC([H])([H])C([H])([H])OC([H])([H])C([H])([H])C([H])([H])N([H])C(=O)C([H])(N([H])C(=O)C([H])([H])[H])C([H])(N([H])C(=O)N3C([H])([H])C([H])([H])C([H])([H])C([H])(n4nc(-c5c([H])c([H])c(Oc6c([H])c([H])c(F)c([H])c6F)c([H])c5[H])c(C(=O)N([H])[H])c4N([H])[H])C3([H])[H])C([H])([H])[H])c([H])c([H])c2C1([H])[H]

$$$$
68:0:0
     RDKit          3D

 98105  0  0  1  0  0  0  0  0999 V2000
  -23.5650  -25.9050   24.1600 C   0  0  0  0  0  2  0  0  0  0  0  0
  -25.0870  -25.3950   23.9250 O   0  0  0  0  0  0  0  0  0  0  0  0
  -25.6860  -24.2200   22.9730 C   0  0  0  0  0  2  0  0  0  0  0  0
  -27.3350  -23.6350   22.6130 C   0  0  0  0  0  3  0  0  0  0  0  0
  -28.0400  -22.7680   21.2180 C   0  0  0  0  0  3  0  0  0  0  0  0
  -30.3330  -21.7850   19.7370 C   0  0  0  0  0  0  0  0  0  0  0  0
  -29.5290  -22.0920   20.9340 N   0  0  0  0  0  0  0  0  0  0  0  0
  -29.8150  -22.1030   18.6670 O   0  0  0  0  0  0  0  0  0  0  0  0
  -29.9990  -21.8180   21.7870 H   0  0  0  0  0  0  0  0  0  0  0  0
  -32.6950  -21.3370   20.8250 C   0  0  0  0  0  1  0  0  0  0  0  0
  -31.8960  -21.0480   19.5430 C   0  0  0  0  0  3  0  0  0  0  0  0
  -34.1070  -20.4570   17.6640 C   0  0  0  0  0  0  0  0  0  0  0  0
  -36.3300  -20.8100   16.3420 C   0  0  0  0  0  2  0  0  0  0  0  0
  -37.2450  -21.8920   16.9870 C   0  0  0  0  0  2  0  0  0  0  0  0
  -36.7670  -23.3100   16.6180 C   0  0  0  0  0  2  0  0  0  0  0  0
  -35.2290  -23.4340   16.7390 C   0  0  0  0  0  3  0  0  0  0  0  0
  -34.5010  -22.3060   15.9950 C   0  0  0  0  0  2  0  0  0  0  0  0
  -34.8860  -21.0870   16.6810 N   0  0  0  0  0  0  0  0  0  0  0  0
  -34.5520  -19.3400   18.0010 O   0  0  0  0  0  0  0  0  0  0  0  0
  -32.9720  -21.1670   18.2930 N   0  0  0  0  0  0  0  0  0  0  0  0
  -32.8130  -22.0380   17.8060 H   0  0  0  0  0  0  0  0  0  0  0  0
  -33.8490  -25.5570   16.9820 C   0  0  0  0  0  0  0  0  0  0  0  0
  -33.7190  -26.6590   16.1910 C   0  0  0  0  0  0  0  0  0  0  0  0
  -34.5400  -26.4220   15.0450 C   0  0  0  0  0  0  0  0  0  0  0  0
  -34.7230  -24.7210   16.3160 N   0  0  0  0  0  0  0  0  0  0  0  0
  -35.0900  -25.2180   15.1100 N   0  0  0  0  0  0  0  0  0  0  0  0
  -34.8830  -27.2970   13.9210 C   0  0  0  0  0  0  0  0  0  0  0  0
  -34.7610  -26.8630   12.5820 C   0  0  0  0  0  3  0  0  0  0  0  0
  -35.0810  -27.7310   11.5170 C   0  0  0  0  0  3  0  0  0  0  0  0
  -35.5250  -29.0480   11.7850 C   0  0  0  0  0  0  0  0  0  0  0  0
  -35.6660  -29.4680   13.1190 C   0  0  0  0  0  3  0  0  0  0  0  0
  -35.3520  -28.6000   14.1780 C   0  0  0  0  0  3  0  0  0  0  0  0
  -35.8850  -29.9520   10.8170 O   0  0  0  0  0  0  0  0  0  0  0  0
  -35.3700  -29.8890    9.5480 C   0  0  0  0  0  0  0  0  0  0  0  0
  -33.9790  -29.8970    9.3070 C   0  0  0  0  0  3  0  0  0  0  0  0
  -33.4930  -29.8990    7.9840 C   0  0  0  0  0  3  0  0  0  0  0  0
  -34.3950  -29.9040    6.9030 C   0  0  0  0  0  0  0  0  0  0  0  0
  -35.7810  -29.9010    7.1420 C   0  0  0  0  0  3  0  0  0  0  0  0
  -36.2660  -29.8960    8.4610 C   0  0  0  0  0  0  0  0  0  0  0  0
  -37.6020  -29.9150    8.6860 F   0  0  0  0  0  0  0  0  0  0  0  0
  -33.9300  -29.9150    5.6320 F   0  0  0  0  0  0  0  0  0  0  0  0
  -32.9600  -27.9080   16.5240 C   0  0  0  0  0  0  0  0  0  0  0  0
  -32.4550  -28.6050   15.5160 N   0  0  0  0  0  0  0  0  0  0  0  0
  -32.7690  -28.2460   17.6930 O   0  0  0  0  0  0  0  0  0  0  0  0
  -32.5910  -28.3140   14.5580 H   0  0  0  0  0  0  0  0  0  0  0  0
  -31.9210  -29.4420   15.7000 H   0  0  0  0  0  0  0  0  0  0  0  0
  -33.3170  -25.2030   18.2240 N   0  0  0  0  0  0  0  0  0  0  0  0
  -32.7180  -25.8410   18.7380 H   0  0  0  0  0  0  0  0  0  0  0  0
  -33.5590  -24.3740   18.7500 H   0  0  0  0  0  0  0  0  0  0  0  0
  -22.7300  -27.4140   24.7110 C   0  0  0  0  0  2  0  0  0  0  0  0
  -21.6910  -28.5730   24.1010 O   0  0  0  0  0  0  0  0  0  0  0  0
  -21.5620  -29.7440   22.9210 C   0  0  0  0  0  2  0  0  0  0  0  0
  -21.1600  -29.6630   21.0930 C   0  0  0  0  0  2  0  0  0  0  0  0
  -21.7710  -28.7660   19.8240 O   0  0  0  0  0  0  0  0  0  0  0  0
  -22.5740  -27.3810   19.3340 C   0  0  0  0  0  2  0  0  0  0  0  0
  -24.0050  -26.3440   19.6520 C   0  0  0  0  0  2  0  0  0  0  0  0
  -25.7430  -26.3290   19.9130 C   0  0  0  0  0  2  0  0  0  0  0  0
  -27.0890  -26.4880   19.0860 O   0  0  0  0  0  0  0  0  0  0  0  0
  -26.4740  -30.0420   24.3600 C   0  0  0  0  0  0  0  0  0  0  0  0
  -27.4520  -27.7560   18.9120 C   0  0  0  0  0  3  0  0  0  0  0  0
  -24.8520  -29.4130   22.5500 C   0  0  0  0  0  3  0  0  0  0  0  0
  -25.7120  -29.3870   20.2000 C   0  0  0  0  0  0  0  0  0  0  0  0
  -27.2820  -29.9050   22.0470 C   0  0  0  0  0  2  0  0  0  0  0  0
  -26.9880  -29.2300   20.7310 C   0  0  0  0  0  0  0  0  0  0  0  0
  -27.9140  -28.4110   20.0720 C   0  0  0  0  0  2  0  0  0  0  0  0
  -26.3670  -28.2260   18.1850 C   0  0  0  0  0  3  0  0  0  0  0  0
  -25.4200  -28.9730   18.8930 C   0  0  0  0  0  3  0  0  0  0  0  0
  -24.7410  -30.0370   21.1190 C   0  0  0  0  0  2  0  0  0  0  0  0
  -26.2130  -29.7620   23.0530 N   0  0  0  0  0  0  0  0  0  0  0  0
  -25.5930  -30.2200   25.2070 O   0  0  0  0  0  0  0  0  0  0  0  0
  -24.6110  -27.7870   22.6720 C   0  0  0  0  0  0  0  0  0  0  0  0
  -23.5840  -26.8320   22.2500 N   0  0  0  0  0  0  0  0  0  0  0  0
  -25.4040  -27.2840   23.4140 O   0  0  0  0  0  0  0  0  0  0  0  0
  -24.0960  -25.9730   22.3780 H   0  0  0  0  0  0  0  0  0  0  0  0
  -19.5430  -26.4840   21.1910 C   0  0  0  0  0  0  0  0  0  0  0  0
  -22.0400  -26.2980   22.1370 C   0  0  0  0  0  3  0  0  0  0  0  0
  -22.1540  -25.2340   21.0970 C   0  0  0  0  0  2  0  0  0  0  0  0
  -21.4360  -25.6140   19.8410 C   0  0  0  0  0  2  0  0  0  0  0  0
  -19.9560  -25.5350   20.0920 C   0  0  0  0  0  2  0  0  0  0  0  0
  -20.4690  -26.8690   22.2080 C   0  0  0  0  0  0  0  0  0  0  0  0
  -19.8170  -27.6380   23.2450 C   0  0  0  0  0  3  0  0  0  0  0  0
  -18.5410  -28.2330   23.1360 C   0  0  0  0  0  3  0  0  0  0  0  0
  -17.7110  -27.8550   22.0800 C   0  0  0  0  0  3  0  0  0  0  0  0
  -18.2010  -26.9310   21.1490 C   0  0  0  0  0  3  0  0  0  0  0  0
  -27.9300  -30.2270   24.8590 C   0  0  0  0  0  3  0  0  0  0  0  0
  -27.8770  -31.2500   25.9150 N   0  0  0  0  0  0  0  0  0  0  0  0
  -28.2320  -32.5260   25.7420 C   0  0  0  0  0  0  0  0  0  0  0  0
  -28.7510  -32.9380   24.7020 O   0  0  0  0  0  0  0  0  0  0  0  0
  -27.4090  -30.9940   26.7720 H   0  0  0  0  0  0  0  0  0  0  0  0
  -26.7740  -34.3830   26.6180 C   0  0  0  0  0  1  0  0  0  0  0  0
  -27.9920  -33.4930   26.9140 C   0  0  0  0  0  3  0  0  0  0  0  0
  -30.2900  -33.5840   27.7660 C   0  0  0  0  0  1  0  0  0  0  0  0
  -29.1650  -34.3390   27.2200 N   0  0  0  0  0  0  0  0  0  0  0  0
  -28.9180  -35.0560   27.8950 H   0  0  0  0  0  0  0  0  0  0  0  0
  -28.5640  -28.8950   25.4100 C   0  0  1  0  0  0  0  0  0  0  0  0
  -27.6810  -28.1750   26.4530 C   0  0  0  0  0  1  0  0  0  0  0  0
  -28.8700  -27.8880   24.2780 C   0  0  0  0  0  1  0  0  0  0  0  0
  -29.9230  -29.2180   26.0700 C   0  0  0  0  0  1  0  0  0  0  0  0
  1 50  1  0
  2  1  1  0
  3  2  1  0
  4  3  1  0
  5  4  2  0
  6  7  1  0
  7  5  1  0
  7  9  1  0
  8  6  2  0
 11  6  1  0
 11 10  1  0
 12 19  2  0
 12 20  1  0
 13 18  1  0
 13 14  1  0
 15 16  1  0
 15 14  1  0
 16 17  1  0
 17 18  1  0
 18 12  1  0
 20 11  1  0
 21 20  1  0
 22 47  1  0
 23 42  1  0
 23 22  2  0
 24 26  2  0
 24 23  1  0
 25 16  1  0
 25 22  1  0
 26 25  1  0
 27 32  1  0
 27 24  1  0
 28 27  2  0
 29 30  2  0
 29 28  1  0
 30 31  1  0
 31 32  2  0
 33 30  1  0
 34 33  1  0
 35 34  1  0
 36 35  2  0
 37 38  2  0
 37 36  1  0
 38 39  1  0
 39 40  1  0
 39 34  2  0
 41 37  1  0
 42 44  2  0
 43 46  1  0
 43 42  1  0
 45 43  1  0
 47 48  1  0
 47 49  1  0
 51 50  1  0
 52 51  1  0
 53 52  1  0
 54 53  1  0
 55 56  1  0
 55 54  1  0
 56 57  1  0
 58 57  1  0
 59 70  2  0
 60 58  1  0
 60 65  1  0
 61 71  1  0
 61 69  1  0
 62 64  2  0
 62 68  1  0
 63 69  1  0
 64 63  1  0
 65 64  1  0
 66 67  2  0
 66 60  1  0
 67 62  1  0
 68 61  1  0
 69 59  1  0
 71 73  2  0
 72 74  1  0
 72 71  1  0
 75 80  1  0
 76 80  1  0
 76 72  1  0
 77 76  1  0
 78 79  1  0
 78 77  1  0
 79 75  1  0
 80 81  2  0
 82 81  1  0
 83 82  2  0
 84 75  2  0
 84 83  1  0
 85 59  1  0
 85 95  1  0
 85 86  1  0
 86 89  1  0
 87 86  1  0
 87 91  1  0
 88 87  2  0
 91 90  1  0
 91 93  1  0
 93 92  1  0
 93 94  1  0
 95 98  1  1
 95 96  1  0
 97 95  1  0
M  ISO  4  12 100  20 100  57 101  58 101
M  END
>  <TORSDO>  (65) 
F 30

>  <SCORE>  (65) 
-2.502

>  <name>  (65) 
68

>  <ligand_id>  (65) 
68

>  <original_smiles>  (65) 
[H]c1c([H])c([H])c2c(c1[H])C([H])([H])C([H])([H])C([H])([H])C2([H])N([H])C(=O)C1([H])N(C(=O)C([H])(N([H])C(=O)C([H])(N([H])C([H])([H])[H])C([H])([H])[H])C(C([H])([H])[H])(C([H])([H])[H])C([H])([H])[H])C([H])([H])c2c([H])c(OC([H])([H])C([H])([H])C([H])([H])OC([H])([H])C([H])([H])OC([H])([H])C([H])([H])OC([H])([H])C([H])([H])C([H])([H])N([H])C(=O)C([H])(N([H])C(=O)N3C([H])([H])C([H])([H])C([H])([H])C([H])(n4nc(-c5c([H])c([H])c(Oc6c([H])c([H])c(F)c([H])c6F)c([H])c5[H])c(C(=O)N([H])[H])c4N([H])[H])C3([H])[H])C([H])([H])[H])c([H])c([H])c2C1([H])[H]

>  <smiles>  (65) 
[H]c1c([H])c([H])c2c(c1[H])C([H])([H])C([H])([H])C([H])([H])C2([H])N([H])C(=O)C1([H])N(C(=O)C([H])(N([H])C(=O)C([H])(N([H])C([H])([H])[H])C([H])([H])[H])C(C([H])([H])[H])(C([H])([H])[H])C([H])([H])[H])C([H])([H])c2c([H])c(OC([H])([H])C([H])([H])C([H])([H])OC([H])([H])C([H])([H])OC([H])([H])C([H])([H])OC([H])([H])C([H])([H])C([H])([H])N([H])C(=O)C([H])(N([H])C(=O)N3C([H])([H])C([H])([H])C([H])([H])C([H])(n4nc(-c5c([H])c([H])c(Oc6c([H])c([H])c(F)c([H])c6F)c([H])c5[H])c(C(=O)N([H])[H])c4N([H])[H])C3([H])[H])C([H])([H])[H])c([H])c([H])c2C1([H])[H]

$$$$
69:0:0
     RDKit          3D

101108  0  0  1  0  0  0  0  0999 V2000
  -26.8060  -17.9440   25.2200 O   0  0  0  0  0  0  0  0  0  0  0  0
  -27.9410  -17.5810   26.0050 C   0  0  0  0  0  2  0  0  0  0  0  0
  -28.9570  -18.7370   26.1550 C   0  0  0  0  0  2  0  0  0  0  0  0
  -29.9760  -18.6590   25.1610 O   0  0  0  0  0  0  0  0  0  0  0  0
  -30.5320  -19.9220   24.8020 C   0  0  0  0  0  2  0  0  0  0  0  0
  -31.0820  -19.8650   23.3570 C   0  0  0  0  0  2  0  0  0  0  0  0
  -31.9310  -20.9760   23.0620 O   0  0  0  0  0  0  0  0  0  0  0  0
  -31.2490  -22.2110   22.8680 C   0  0  0  0  0  2  0  0  0  0  0  0
  -31.1640  -22.5790   21.3730 C   0  0  0  0  0  2  0  0  0  0  0  0
  -30.5420  -23.9680   21.1340 C   0  0  0  0  0  2  0  0  0  0  0  0
  -30.1370  -24.0950   19.7730 O   0  0  0  0  0  0  0  0  0  0  0  0
  -25.6590  -29.0580   22.2860 C   0  0  0  0  0  0  0  0  0  0  0  0
  -29.0490  -24.9110   19.5670 C   0  0  0  0  0  0  0  0  0  0  0  0
  -24.9820  -27.9430   20.1820 C   0  0  0  0  0  3  0  0  0  0  0  0
  -26.7780  -26.5090   19.0650 C   0  0  0  0  0  0  0  0  0  0  0  0
  -27.4520  -28.1870   20.7910 C   0  0  0  0  0  2  0  0  0  0  0  0
  -27.7050  -26.8990   20.0370 C   0  0  0  0  0  0  0  0  0  0  0  0
  -28.8450  -26.1040   20.2970 C   0  0  0  0  0  3  0  0  0  0  0  0
  -28.1140  -24.5350   18.5830 C   0  0  0  0  0  3  0  0  0  0  0  0
  -26.9730  -25.3240   18.3320 C   0  0  0  0  0  3  0  0  0  0  0  0
  -25.5910  -27.4240   18.8490 C   0  0  0  0  0  2  0  0  0  0  0  0
  -26.0300  -28.4000   21.1530 N   0  0  0  0  0  0  0  0  0  0  0  0
  -24.4710  -29.3280   22.5150 O   0  0  0  0  0  0  0  0  0  0  0  0
  -24.0540  -26.8500   20.7560 C   0  0  0  0  0  0  0  0  0  0  0  0
  -22.8580  -26.7120   20.1660 N   0  0  0  0  0  0  0  0  0  0  0  0
  -24.4220  -26.1320   21.6930 O   0  0  0  0  0  0  0  0  0  0  0  0
  -22.6230  -27.3460   19.4160 H   0  0  0  0  0  0  0  0  0  0  0  0
  -19.5890  -25.4670   19.2650 C   0  0  0  0  0  0  0  0  0  0  0  0
  -21.8380  -25.7230   20.5130 C   0  0  0  0  0  3  0  0  0  0  0  0
  -22.1940  -24.3270   19.9460 C   0  0  0  0  0  2  0  0  0  0  0  0
  -21.5760  -24.0590   18.5690 C   0  0  0  0  0  2  0  0  0  0  0  0
  -20.0500  -24.1600   18.6400 C   0  0  0  0  0  2  0  0  0  0  0  0
  -20.4360  -26.2070   20.1350 C   0  0  0  0  0  0  0  0  0  0  0  0
  -19.9730  -27.4300   20.6620 C   0  0  0  0  0  3  0  0  0  0  0  0
  -18.6950  -27.9180   20.3370 C   0  0  0  0  0  3  0  0  0  0  0  0
  -17.8530  -27.1720   19.4930 C   0  0  0  0  0  3  0  0  0  0  0  0
  -18.3000  -25.9490   18.9630 C   0  0  0  0  0  3  0  0  0  0  0  0
  -26.7140  -29.5320   23.3360 C   0  0  0  0  0  3  0  0  0  0  0  0
  -26.8630  -28.5440   24.5580 C   0  0  1  0  0  0  0  0  0  0  0  0
  -25.5200  -28.1930   25.2360 C   0  0  0  0  0  1  0  0  0  0  0  0
  -27.5290  -27.2220   24.1100 C   0  0  0  0  0  1  0  0  0  0  0  0
  -27.7790  -29.1720   25.6350 C   0  0  0  0  0  1  0  0  0  0  0  0
  -26.3150  -30.8690   23.7920 N   0  0  0  0  0  0  0  0  0  0  0  0
  -26.8570  -32.0140   23.3560 C   0  0  0  0  0  0  0  0  0  0  0  0
  -27.8100  -32.0500   22.5730 O   0  0  0  0  0  0  0  0  0  0  0  0
  -25.5080  -30.9150   24.3960 H   0  0  0  0  0  0  0  0  0  0  0  0
  -25.3150  -33.9210   22.8050 C   0  0  0  0  0  1  0  0  0  0  0  0
  -26.2450  -33.3280   23.8750 C   0  0  0  0  0  3  0  0  0  0  0  0
  -28.0050  -33.9680   25.4660 C   0  0  0  0  0  1  0  0  0  0  0  0
  -27.2560  -34.3340   24.2670 N   0  0  0  0  0  0  0  0  0  0  0  0
  -26.8160  -35.2320   24.4350 H   0  0  0  0  0  0  0  0  0  0  0  0
  -26.5870  -17.1660   24.0430 C   0  0  0  0  0  2  0  0  0  0  0  0
  -27.0510  -17.9200   22.7860 C   0  0  0  0  0  2  0  0  0  0  0  0
  -28.5360  -17.7340   22.4380 C   0  0  0  0  0  2  0  0  0  0  0  0
  -29.8720  -16.2910   20.9570 C   0  0  0  0  0  0  0  0  0  0  0  0
  -28.7520  -16.9730   21.2140 N   0  0  0  0  0  0  0  0  0  0  0  0
  -30.6610  -15.9560   21.8430 O   0  0  0  0  0  0  0  0  0  0  0  0
  -28.1170  -17.1490   20.4450 H   0  0  0  0  0  0  0  0  0  0  0  0
  -30.1990  -16.0070   19.4730 C   0  0  0  0  0  3  0  0  0  0  0  0
  -31.5270  -13.8610   20.0380 C   0  0  0  0  0  0  0  0  0  0  0  0
  -30.9490  -11.7480   18.9630 C   0  0  0  0  0  2  0  0  0  0  0  0
  -30.0460  -12.0710   17.7600 C   0  0  0  0  0  2  0  0  0  0  0  0
  -28.5630  -12.0780   18.1890 C   0  0  0  0  0  2  0  0  0  0  0  0
  -28.3040  -12.8870   19.4850 C   0  0  0  0  0  3  0  0  0  0  0  0
  -29.3740  -12.6630   20.5790 C   0  0  0  0  0  2  0  0  0  0  0  0
  -30.6910  -12.7990   19.9500 N   0  0  0  0  0  0  0  0  0  0  0  0
  -32.7450  -13.7390   20.0400 O   0  0  0  0  0  0  0  0  0  0  0  0
  -31.1570  -14.9100   19.2910 N   0  0  0  0  0  0  0  0  0  0  0  0
  -31.9950  -15.3020   18.8940 H   0  0  0  0  0  0  0  0  0  0  0  0
  -25.9530  -13.6500   20.1680 C   0  0  0  0  0  0  0  0  0  0  0  0
  -24.8430  -12.9460   20.5500 C   0  0  0  0  0  0  0  0  0  0  0  0
  -25.2320  -11.5730   20.5700 C   0  0  0  0  0  0  0  0  0  0  0  0
  -26.9490  -12.7040   19.9810 N   0  0  0  0  0  0  0  0  0  0  0  0
  -26.5230  -11.4530   20.2870 N   0  0  0  0  0  0  0  0  0  0  0  0
  -24.4350  -10.3570   20.7830 C   0  0  0  0  0  0  0  0  0  0  0  0
  -24.7630   -9.4340   21.8000 C   0  0  0  0  0  3  0  0  0  0  0  0
  -23.9760   -8.2800   22.0010 C   0  0  0  0  0  3  0  0  0  0  0  0
  -22.8430   -8.0440   21.1890 C   0  0  0  0  0  0  0  0  0  0  0  0
  -22.5310   -8.9580   20.1670 C   0  0  0  0  0  3  0  0  0  0  0  0
  -23.3210  -10.1010   19.9630 C   0  0  0  0  0  3  0  0  0  0  0  0
  -22.0280   -6.9430   21.2980 O   0  0  0  0  0  0  0  0  0  0  0  0
  -21.7970   -6.3350   22.5080 C   0  0  0  0  0  0  0  0  0  0  0  0
  -21.2400   -7.0350   23.6000 C   0  0  0  0  0  3  0  0  0  0  0  0
  -20.9690   -6.3580   24.8030 C   0  0  0  0  0  3  0  0  0  0  0  0
  -21.2320   -4.9810   24.9140 C   0  0  0  0  0  0  0  0  0  0  0  0
  -21.7830   -4.2790   23.8260 C   0  0  0  0  0  3  0  0  0  0  0  0
  -22.0660   -4.9560   22.6250 C   0  0  0  0  0  0  0  0  0  0  0  0
  -22.5780   -4.2730   21.5740 F   0  0  0  0  0  0  0  0  0  0  0  0
  -20.9610   -4.3290   26.0690 F   0  0  0  0  0  0  0  0  0  0  0  0
  -23.4620  -13.5010   20.7630 C   0  0  0  0  0  0  0  0  0  0  0  0
  -22.6950  -12.9060   21.6700 N   0  0  0  0  0  0  0  0  0  0  0  0
  -23.0740  -14.4910   20.1480 O   0  0  0  0  0  0  0  0  0  0  0  0
  -23.0380  -12.1220   22.2060 H   0  0  0  0  0  0  0  0  0  0  0  0
  -21.7630  -13.2560   21.8550 H   0  0  0  0  0  0  0  0  0  0  0  0
  -26.1820  -15.0030   19.9390 N   0  0  0  0  0  0  0  0  0  0  0  0
  -25.3580  -15.5910   19.9900 H   0  0  0  0  0  0  0  0  0  0  0  0
  -26.7440  -15.2240   19.1270 H   0  0  0  0  0  0  0  0  0  0  0  0
  -29.5560  -18.2160   18.3090 C   0  0  0  0  0  1  0  0  0  0  0  0
  -31.2870  -16.7800   17.2780 C   0  0  0  0  0  1  0  0  0  0  0  0
  -31.8100  -18.0140   19.4100 C   0  0  0  0  0  1  0  0  0  0  0  0
  -30.7120  -17.2420   18.6410 C   0  0  2  0  0  0  0  0  0  0  0  0
  1  2  1  0
  2  3  1  0
  4  3  1  0
  5  4  1  0
  6  5  1  0
  7  6  1  0
  8  7  1  0
  9  8  1  0
 10  9  1  0
 11 10  1  0
 12 23  2  0
 13 11  1  0
 13 18  1  0
 14 24  1  0
 14 22  1  0
 15 17  1  0
 16 22  1  0
 17 18  2  0
 17 16  1  0
 19 13  2  0
 20 19  1  0
 20 15  2  0
 21 15  1  0
 21 14  1  0
 22 12  1  0
 24 26  2  0
 25 24  1  0
 27 25  1  0
 28 33  1  0
 29 25  1  0
 30 29  1  0
 31 32  1  0
 31 30  1  0
 32 28  1  0
 33 29  1  0
 33 34  2  0
 35 34  1  0
 36 35  2  0
 37 28  2  0
 37 36  1  0
 38 12  1  0
 38 43  1  0
 38 39  1  0
 39 40  1  1
 39 42  1  0
 41 39  1  0
 43 46  1  0
 44 43  1  0
 44 48  1  0
 45 44  2  0
 48 47  1  0
 48 50  1  0
 50 51  1  0
 50 49  1  0
 52  1  1  0
 53 52  1  0
 54 53  1  0
 55 56  1  0
 55 57  2  0
 56 54  1  0
 58 56  1  0
 59 55  1  0
 60 67  2  0
 61 66  1  0
 62 63  1  0
 62 61  1  0
 64 63  1  0
 64 73  1  0
 64 65  1  0
 66 60  1  0
 66 65  1  0
 68 59  1  0
 68 60  1  0
 69 68  1  0
 70 71  2  0
 71 72  1  0
 71 90  1  0
 72 75  1  0
 73 70  1  0
 73 74  1  0
 74 72  2  0
 75 76  1  0
 76 77  2  0
 78 81  1  0
 78 77  1  0
 79 78  2  0
 80 79  1  0
 80 75  2  0
 81 82  1  0
 82 87  2  0
 82 83  1  0
 83 84  2  0
 84 85  1  0
 85 89  1  0
 86 85  2  0
 87 86  1  0
 88 87  1  0
 90 91  1  0
 91 94  1  0
 91 93  1  0
 92 90  2  0
 95 96  1  0
 95 70  1  0
 97 95  1  0
101 98  1  6
 99101  1  0
101100  1  0
101 59  1  0
M  ISO  4  10 101  11 101  60 100  68 100
M  END
>  <TORSDO>  (66) 
F 31

>  <SCORE>  (66) 
21.174

>  <name>  (66) 
69

>  <ligand_id>  (66) 
69

>  <original_smiles>  (66) 
[H]c1c([H])c([H])c2c(c1[H])C([H])([H])C([H])([H])C([H])([H])C2([H])N([H])C(=O)C1([H])N(C(=O)C([H])(N([H])C(=O)C([H])(N([H])C([H])([H])[H])C([H])([H])[H])C(C([H])([H])[H])(C([H])([H])[H])C([H])([H])[H])C([H])([H])c2c([H])c(OC([H])([H])C([H])([H])C([H])([H])OC([H])([H])C([H])([H])OC([H])([H])C([H])([H])OC([H])([H])C([H])([H])C([H])([H])N([H])C(=O)C([H])(N([H])C(=O)N3C([H])([H])C([H])([H])C([H])([H])C([H])(n4nc(-c5c([H])c([H])c(Oc6c([H])c([H])c(F)c([H])c6F)c([H])c5[H])c(C(=O)N([H])[H])c4N([H])[H])C3([H])[H])C(C([H])([H])[H])(C([H])([H])[H])C([H])([H])[H])c([H])c([H])c2C1([H])[H]

>  <smiles>  (66) 
[H]c1c([H])c([H])c2c(c1[H])C([H])([H])C([H])([H])C([H])([H])C2([H])N([H])C(=O)C1([H])N(C(=O)C([H])(N([H])C(=O)C([H])(N([H])C([H])([H])[H])C([H])([H])[H])C(C([H])([H])[H])(C([H])([H])[H])C([H])([H])[H])C([H])([H])c2c([H])c(OC([H])([H])C([H])([H])C([H])([H])OC([H])([H])C([H])([H])OC([H])([H])C([H])([H])OC([H])([H])C([H])([H])C([H])([H])N([H])C(=O)C([H])(N([H])C(=O)N3C([H])([H])C([H])([H])C([H])([H])C([H])(n4nc(-c5c([H])c([H])c(Oc6c([H])c([H])c(F)c([H])c6F)c([H])c5[H])c(C(=O)N([H])[H])c4N([H])[H])C3([H])[H])C(C([H])([H])[H])(C([H])([H])[H])C([H])([H])[H])c([H])c([H])c2C1([H])[H]

$$$$
70:0:0
     RDKit          3D

 95102  0  0  1  0  0  0  0  0999 V2000
  -28.2600  -20.3210   21.3570 C   0  0  0  0  0  2  0  0  0  0  0  0
  -29.1790  -19.3910   20.5500 C   0  0  0  0  0  2  0  0  0  0  0  0
  -29.7810  -18.4250   21.4040 O   0  0  0  0  0  0  0  0  0  0  0  0
  -31.0760  -17.9790   20.9900 C   0  0  0  0  0  2  0  0  0  0  0  0
  -31.0880  -16.8740   19.9010 C   0  0  0  0  0  3  0  0  0  0  0  0
  -32.4230  -14.8480   19.4950 C   0  0  0  0  0  0  0  0  0  0  0  0
  -31.9730  -12.5210   18.8320 C   0  0  0  0  0  2  0  0  0  0  0  0
  -30.9530  -12.4460   17.6850 C   0  0  0  0  0  2  0  0  0  0  0  0
  -29.5160  -12.4310   18.2380 C   0  0  0  0  0  2  0  0  0  0  0  0
  -29.2630  -13.5640   19.2650 C   0  0  0  0  0  3  0  0  0  0  0  0
  -30.3830  -13.6070   20.3270 C   0  0  0  0  0  2  0  0  0  0  0  0
  -31.6780  -13.7220   19.6310 N   0  0  0  0  0  0  0  0  0  0  0  0
  -33.4200  -14.9240   18.7810 O   0  0  0  0  0  0  0  0  0  0  0  0
  -32.0950  -15.8780   20.2830 N   0  0  0  0  0  0  0  0  0  0  0  0
  -32.9350  -16.3690   20.5470 H   0  0  0  0  0  0  0  0  0  0  0  0
  -27.0670  -14.4330   20.2900 C   0  0  0  0  0  0  0  0  0  0  0  0
  -25.9430  -13.7850   20.7280 C   0  0  0  0  0  0  0  0  0  0  0  0
  -26.2010  -12.3920   20.5550 C   0  0  0  0  0  0  0  0  0  0  0  0
  -27.9440  -13.4400   19.8800 N   0  0  0  0  0  0  0  0  0  0  0  0
  -27.4310  -12.2040   20.0930 N   0  0  0  0  0  0  0  0  0  0  0  0
  -25.3270  -11.2280   20.7480 C   0  0  0  0  0  0  0  0  0  0  0  0
  -25.6280  -10.2310   21.7020 C   0  0  0  0  0  3  0  0  0  0  0  0
  -24.7640   -9.1290   21.8840 C   0  0  0  0  0  3  0  0  0  0  0  0
  -23.5820   -9.0200   21.1120 C   0  0  0  0  0  0  0  0  0  0  0  0
  -23.2990  -10.0030   20.1470 C   0  0  0  0  0  3  0  0  0  0  0  0
  -24.1630  -11.0960   19.9640 C   0  0  0  0  0  3  0  0  0  0  0  0
  -22.6960   -7.9740   21.2020 O   0  0  0  0  0  0  0  0  0  0  0  0
  -22.3670   -7.4110   22.4090 C   0  0  0  0  0  0  0  0  0  0  0  0
  -21.7860   -8.1670   23.4510 C   0  0  0  0  0  3  0  0  0  0  0  0
  -21.3990   -7.5320   24.6490 C   0  0  0  0  0  3  0  0  0  0  0  0
  -21.5840   -6.1450   24.8030 C   0  0  0  0  0  0  0  0  0  0  0  0
  -22.1570   -5.3910   23.7650 C   0  0  0  0  0  3  0  0  0  0  0  0
  -22.5460   -6.0220   22.5700 C   0  0  0  0  0  0  0  0  0  0  0  0
  -23.0770   -5.2870   21.5650 F   0  0  0  0  0  0  0  0  0  0  0  0
  -21.2060   -5.5350   25.9510 F   0  0  0  0  0  0  0  0  0  0  0  0
  -24.6660  -14.4230   21.1940 C   0  0  0  0  0  0  0  0  0  0  0  0
  -23.9590  -13.7790   22.1160 N   0  0  0  0  0  0  0  0  0  0  0  0
  -24.3130  -15.5250   20.7760 O   0  0  0  0  0  0  0  0  0  0  0  0
  -24.2660  -12.8910   22.4850 H   0  0  0  0  0  0  0  0  0  0  0  0
  -23.1010  -14.1820   22.4630 H   0  0  0  0  0  0  0  0  0  0  0  0
  -27.4070  -15.7780   20.1930 N   0  0  0  0  0  0  0  0  0  0  0  0
  -26.7620  -16.5140   20.4600 H   0  0  0  0  0  0  0  0  0  0  0  0
  -28.2900  -16.1310   19.8530 H   0  0  0  0  0  0  0  0  0  0  0  0
  -31.4250  -17.4200   18.4930 C   0  0  0  0  0  0  0  0  0  0  0  0
  -30.6010  -17.1200   17.4960 N   0  0  0  0  0  0  0  0  0  0  0  0
  -32.4470  -18.0760   18.3030 O   0  0  0  0  0  0  0  0  0  0  0  0
  -30.7960  -17.4450   16.5590 H   0  0  0  0  0  0  0  0  0  0  0  0
  -29.7720  -16.5660   17.6480 H   0  0  0  0  0  0  0  0  0  0  0  0
  -28.4260  -21.6460   20.8730 O   0  0  0  0  0  0  0  0  0  0  0  0
  -27.3150  -22.4860   21.1490 C   0  0  0  0  0  2  0  0  0  0  0  0
  -27.7410  -23.9450   20.9530 C   0  0  0  0  0  2  0  0  0  0  0  0
  -27.8170  -24.2160   19.5590 O   0  0  0  0  0  0  0  0  0  0  0  0
  -28.0940  -25.5790   19.2830 C   0  0  0  0  0  2  0  0  0  0  0  0
  -27.9600  -25.8350   17.7710 C   0  0  0  0  0  2  0  0  0  0  0  0
  -27.7720  -27.2250   17.5120 O   0  0  0  0  0  0  0  0  0  0  0  0
  -24.6700  -30.9990   22.6590 C   0  0  0  0  0  0  0  0  0  0  0  0
  -26.6050  -27.8000   17.9600 C   0  0  0  0  0  0  0  0  0  0  0  0
  -23.1440  -30.0610   20.9550 C   0  0  0  0  0  3  0  0  0  0  0  0
  -24.2640  -29.0760   18.8880 C   0  0  0  0  0  0  0  0  0  0  0  0
  -25.5730  -30.6080   20.3720 C   0  0  0  0  0  2  0  0  0  0  0  0
  -25.5190  -29.4850   19.3600 C   0  0  0  0  0  0  0  0  0  0  0  0
  -26.6900  -28.8550   18.8920 C   0  0  0  0  0  3  0  0  0  0  0  0
  -25.3330  -27.3950   17.4920 C   0  0  0  0  0  3  0  0  0  0  0  0
  -24.1660  -28.0300   17.9540 C   0  0  0  0  0  3  0  0  0  0  0  0
  -23.0600  -29.8160   19.4240 C   0  0  0  0  0  2  0  0  0  0  0  0
  -24.4920  -30.5530   21.3830 N   0  0  0  0  0  0  0  0  0  0  0  0
  -23.7260  -31.0490   23.4580 O   0  0  0  0  0  0  0  0  0  0  0  0
  -22.6990  -28.7750   21.6850 C   0  0  0  0  0  0  0  0  0  0  0  0
  -21.3860  -28.4960   21.6510 N   0  0  0  0  0  0  0  0  0  0  0  0
  -23.5230  -28.0450   22.2400 O   0  0  0  0  0  0  0  0  0  0  0  0
  -20.7740  -29.1470   21.1790 H   0  0  0  0  0  0  0  0  0  0  0  0
  -18.2230  -26.7970   22.0340 C   0  0  0  0  0  0  0  0  0  0  0  0
  -20.7450  -27.3220   22.2380 C   0  0  0  0  0  3  0  0  0  0  0  0
  -20.9770  -26.0690   21.3630 C   0  0  0  0  0  2  0  0  0  0  0  0
  -19.8500  -25.8240   20.3560 C   0  0  0  0  0  2  0  0  0  0  0  0
  -18.5110  -25.6500   21.0790 C   0  0  0  0  0  2  0  0  0  0  0  0
  -19.2720  -27.5900   22.5670 C   0  0  0  0  0  0  0  0  0  0  0  0
  -18.9500  -28.6650   23.4250 C   0  0  0  0  0  3  0  0  0  0  0  0
  -17.6110  -28.9470   23.7540 C   0  0  0  0  0  3  0  0  0  0  0  0
  -16.5780  -28.1500   23.2340 C   0  0  0  0  0  3  0  0  0  0  0  0
  -16.8850  -27.0770   22.3780 C   0  0  0  0  0  3  0  0  0  0  0  0
  -26.0610  -31.4940   23.1680 C   0  0  0  0  0  3  0  0  0  0  0  0
  -26.7910  -30.4490   24.0960 C   0  0  1  0  0  0  0  0  0  0  0  0
  -25.9160  -29.9280   25.2590 C   0  0  0  0  0  1  0  0  0  0  0  0
  -27.2610  -29.2270   23.2710 C   0  0  0  0  0  1  0  0  0  0  0  0
  -28.0630  -31.0870   24.7020 C   0  0  0  0  0  1  0  0  0  0  0  0
  -25.8450  -32.7620   23.8770 N   0  0  0  0  0  0  0  0  0  0  0  0
  -26.1250  -33.9710   23.3720 C   0  0  0  0  0  0  0  0  0  0  0  0
  -26.6670  -34.1290   22.2740 O   0  0  0  0  0  0  0  0  0  0  0  0
  -25.3500  -32.7110   24.7550 H   0  0  0  0  0  0  0  0  0  0  0  0
  -24.4570  -35.8300   23.6660 C   0  0  0  0  0  1  0  0  0  0  0  0
  -25.7440  -35.1990   24.2220 C   0  0  0  0  0  3  0  0  0  0  0  0
  -27.9790  -35.7840   25.0510 C   0  0  0  0  0  1  0  0  0  0  0  0
  -26.8110  -36.2210   24.2900 N   0  0  0  0  0  0  0  0  0  0  0  0
  -26.4610  -37.0800   24.7070 H   0  0  0  0  0  0  0  0  0  0  0  0
  2  1  1  0
  2  3  1  0
  4  3  1  0
  5 14  1  0
  5  4  1  0
  6 12  1  0
  6 14  1  0
  7 12  1  0
  8  9  1  0
  8  7  1  0
 10  9  1  0
 10 19  1  0
 10 11  1  0
 12 11  1  0
 13  6  2  0
 14 15  1  0
 16 17  2  0
 17 36  1  0
 18 17  1  0
 18 21  1  0
 19 20  1  0
 19 16  1  0
 20 18  2  0
 21 22  1  0
 22 23  2  0
 24 27  1  0
 24 23  1  0
 25 24  2  0
 26 25  1  0
 26 21  2  0
 27 28  1  0
 28 33  2  0
 28 29  1  0
 29 30  2  0
 30 31  1  0
 31 35  1  0
 32 31  2  0
 33 32  1  0
 34 33  1  0
 36 37  1  0
 37 40  1  0
 37 39  1  0
 38 36  2  0
 41 16  1  0
 41 42  1  0
 43 41  1  0
 44  5  1  0
 45 48  1  0
 45 44  1  0
 46 44  2  0
 47 45  1  0
 49 50  1  0
 49  1  1  0
 51 50  1  0
 52 51  1  0
 53 52  1  0
 54 53  1  0
 55 54  1  0
 55 57  1  0
 56 67  2  0
 57 62  1  0
 58 66  1  0
 58 68  1  0
 59 61  1  0
 59 65  1  0
 60 66  1  0
 61 60  1  0
 62 61  2  0
 63 64  1  0
 63 57  2  0
 64 59  2  0
 65 58  1  0
 66 56  1  0
 68 70  2  0
 69 68  1  0
 71 69  1  0
 72 81  2  0
 72 77  1  0
 73 69  1  0
 73 77  1  0
 74 73  1  0
 75 76  1  0
 75 74  1  0
 76 72  1  0
 77 78  2  0
 78 79  1  0
 80 79  2  0
 81 80  1  0
 82 56  1  0
 82 87  1  0
 82 83  1  0
 83 86  1  1
 83 84  1  0
 85 83  1  0
 87 90  1  0
 88 87  1  0
 88 92  1  0
 89 88  2  0
 92 91  1  0
 92 94  1  0
 94 95  1  0
 94 93  1  0
M  ISO  4   6 100  14 100  54 101  55 101
M  END
>  <TORSDO>  (67) 
F 27

>  <SCORE>  (67) 
-6.637

>  <name>  (67) 
70

>  <ligand_id>  (67) 
70

>  <original_smiles>  (67) 
[H]c1c([H])c([H])c2c(c1[H])C([H])([H])C([H])([H])C([H])([H])C2([H])N([H])C(=O)C1([H])N(C(=O)C([H])(N([H])C(=O)C([H])(N([H])C([H])([H])[H])C([H])([H])[H])C(C([H])([H])[H])(C([H])([H])[H])C([H])([H])[H])C([H])([H])c2c([H])c(OC([H])([H])C([H])([H])OC([H])([H])C([H])([H])OC([H])([H])C([H])([H])OC([H])([H])C([H])(C(=O)N([H])[H])N([H])C(=O)N3C([H])([H])C([H])([H])C([H])([H])C([H])(n4nc(-c5c([H])c([H])c(Oc6c([H])c([H])c(F)c([H])c6F)c([H])c5[H])c(C(=O)N([H])[H])c4N([H])[H])C3([H])[H])c([H])c([H])c2C1([H])[H]

>  <smiles>  (67) 
[H]c1c([H])c([H])c2c(c1[H])C([H])([H])C([H])([H])C([H])([H])C2([H])N([H])C(=O)C1([H])N(C(=O)C([H])(N([H])C(=O)C([H])(N([H])C([H])([H])[H])C([H])([H])[H])C(C([H])([H])[H])(C([H])([H])[H])C([H])([H])[H])C([H])([H])c2c([H])c(OC([H])([H])C([H])([H])OC([H])([H])C([H])([H])OC([H])([H])C([H])([H])OC([H])([H])C([H])(C(=O)N([H])[H])N([H])C(=O)N3C([H])([H])C([H])([H])C([H])([H])C([H])(n4nc(-c5c([H])c([H])c(Oc6c([H])c([H])c(F)c([H])c6F)c([H])c5[H])c(C(=O)N([H])[H])c4N([H])[H])C3([H])[H])c([H])c([H])c2C1([H])[H]

$$$$
71:0:0
     RDKit          3D

 96103  0  0  1  0  0  0  0  0999 V2000
  -25.5250  -22.6530   19.5500 N   0  0  0  0  0  4  0  0  0  0  0  0
  -26.5220  -22.5870   19.7070 H   0  0  0  0  0  0  0  0  0  0  0  0
  -25.3640  -23.4730   18.9820 H   0  0  0  0  0  0  0  0  0  0  0  0
  -25.0920  -21.4410   18.8220 C   0  0  0  0  0  2  0  0  0  0  0  0
  -26.2410  -20.8420   17.9980 C   0  0  0  0  0  2  0  0  0  0  0  0
  -27.2170  -20.3260   18.8990 O   0  0  0  0  0  0  0  0  0  0  0  0
  -28.2930  -19.6670   18.2390 C   0  0  0  0  0  2  0  0  0  0  0  0
  -29.3260  -19.2040   19.2810 C   0  0  0  0  0  2  0  0  0  0  0  0
  -28.8290  -18.0580   19.9680 O   0  0  0  0  0  0  0  0  0  0  0  0
  -29.5670  -17.7200   21.1400 C   0  0  0  0  0  2  0  0  0  0  0  0
  -30.7630  -16.7890   20.8560 C   0  0  0  0  0  2  0  0  0  0  0  0
  -31.0100  -14.4800   19.9090 C   0  0  0  0  0  0  0  0  0  0  0  0
  -30.7590  -12.2090   18.9660 C   0  0  0  0  0  2  0  0  0  0  0  0
  -29.7070  -12.2240   17.8350 C   0  0  0  0  0  2  0  0  0  0  0  0
  -28.2740  -12.1040   18.3900 C   0  0  0  0  0  2  0  0  0  0  0  0
  -28.0030  -13.0990   19.5450 C   0  0  0  0  0  3  0  0  0  0  0  0
  -29.1280  -12.9670   20.5960 C   0  0  0  0  0  2  0  0  0  0  0  0
  -30.4000  -13.2700   19.9160 N   0  0  0  0  0  0  0  0  0  0  0  0
  -32.0640  -14.7130   19.3050 O   0  0  0  0  0  0  0  0  0  0  0  0
  -30.3300  -15.4260   20.5690 N   0  0  0  0  0  0  0  0  0  0  0  0
  -29.4500  -15.1370   20.9710 H   0  0  0  0  0  0  0  0  0  0  0  0
  -25.7250  -13.8270   20.5030 C   0  0  0  0  0  0  0  0  0  0  0  0
  -24.6400  -13.1040   20.9200 C   0  0  0  0  0  0  0  0  0  0  0  0
  -25.0050  -11.7310   20.7770 C   0  0  0  0  0  0  0  0  0  0  0  0
  -26.6830  -12.8940   20.1330 N   0  0  0  0  0  0  0  0  0  0  0  0
  -26.2560  -11.6270   20.3530 N   0  0  0  0  0  0  0  0  0  0  0  0
  -24.2200  -10.5050   20.9630 C   0  0  0  0  0  0  0  0  0  0  0  0
  -24.6060   -9.5230   21.9030 C   0  0  0  0  0  3  0  0  0  0  0  0
  -23.8340   -8.3550   22.0760 C   0  0  0  0  0  3  0  0  0  0  0  0
  -22.6610   -8.1610   21.3090 C   0  0  0  0  0  0  0  0  0  0  0  0
  -22.2930   -9.1280   20.3580 C   0  0  0  0  0  3  0  0  0  0  0  0
  -23.0650  -10.2890   20.1840 C   0  0  0  0  0  3  0  0  0  0  0  0
  -21.8610   -7.0470   21.3920 O   0  0  0  0  0  0  0  0  0  0  0  0
  -21.6590   -6.3920   22.5810 C   0  0  0  0  0  0  0  0  0  0  0  0
  -21.1000   -7.0410   23.7040 C   0  0  0  0  0  3  0  0  0  0  0  0
  -20.8460   -6.3110   24.8810 C   0  0  0  0  0  3  0  0  0  0  0  0
  -21.1410   -4.9360   24.9360 C   0  0  0  0  0  0  0  0  0  0  0  0
  -21.6950   -4.2880   23.8190 C   0  0  0  0  0  3  0  0  0  0  0  0
  -21.9510   -5.0140   22.6430 C   0  0  0  0  0  0  0  0  0  0  0  0
  -22.4630   -4.3840   21.5600 F   0  0  0  0  0  0  0  0  0  0  0  0
  -20.8910   -4.2320   26.0650 F   0  0  0  0  0  0  0  0  0  0  0  0
  -23.3050  -13.6450   21.3440 C   0  0  0  0  0  0  0  0  0  0  0  0
  -22.6230  -12.9460   22.2450 N   0  0  0  0  0  0  0  0  0  0  0  0
  -22.8830  -14.7170   20.9140 O   0  0  0  0  0  0  0  0  0  0  0  0
  -22.9760  -12.0750   22.6100 H   0  0  0  0  0  0  0  0  0  0  0  0
  -21.7330  -13.2910   22.5790 H   0  0  0  0  0  0  0  0  0  0  0  0
  -25.9750  -15.1900   20.3850 N   0  0  0  0  0  0  0  0  0  0  0  0
  -25.3010  -15.9060   20.6280 H   0  0  0  0  0  0  0  0  0  0  0  0
  -26.8500  -15.5730   20.0460 H   0  0  0  0  0  0  0  0  0  0  0  0
  -24.9230  -22.8340   20.8920 C   0  0  0  0  0  2  0  0  0  0  0  0
  -25.4840  -24.0890   21.5750 C   0  0  0  0  0  2  0  0  0  0  0  0
  -26.8650  -24.1480   21.2360 O   0  0  0  0  0  0  0  0  0  0  0  0
  -27.5690  -25.2130   21.8570 C   0  0  0  0  0  2  0  0  0  0  0  0
  -28.9090  -25.3430   21.1180 C   0  0  0  0  0  2  0  0  0  0  0  0
  -28.8010  -25.8030   19.6510 C   0  0  0  0  0  2  0  0  0  0  0  0
  -28.6190  -27.2080   19.5630 O   0  0  0  0  0  0  0  0  0  0  0  0
  -24.6010  -31.8120   23.1340 C   0  0  0  0  0  0  0  0  0  0  0  0
  -27.3600  -27.7540   19.6810 C   0  0  0  0  0  0  0  0  0  0  0  0
  -23.4010  -30.4610   21.4400 C   0  0  0  0  0  3  0  0  0  0  0  0
  -24.8790  -29.0870   19.8790 C   0  0  0  0  0  0  0  0  0  0  0  0
  -25.8880  -30.9750   21.1690 C   0  0  0  0  0  2  0  0  0  0  0  0
  -26.0220  -29.6470   20.4590 C   0  0  0  0  0  0  0  0  0  0  0  0
  -27.2590  -28.9810   20.3660 C   0  0  0  0  0  3  0  0  0  0  0  0
  -26.2030  -27.1950   19.0970 C   0  0  0  0  0  3  0  0  0  0  0  0
  -24.9620  -27.8560   19.2010 C   0  0  0  0  0  3  0  0  0  0  0  0
  -23.5940  -29.8730   20.0160 C   0  0  0  0  0  2  0  0  0  0  0  0
  -24.6510  -31.0930   21.9760 N   0  0  0  0  0  0  0  0  0  0  0  0
  -23.5310  -31.9890   23.7320 O   0  0  0  0  0  0  0  0  0  0  0  0
  -22.8330  -29.3530   22.3550 C   0  0  0  0  0  0  0  0  0  0  0  0
  -21.5170  -29.1080   22.2510 N   0  0  0  0  0  0  0  0  0  0  0  0
  -23.5730  -28.7120   23.1060 O   0  0  0  0  0  0  0  0  0  0  0  0
  -20.9800  -29.6820   21.6150 H   0  0  0  0  0  0  0  0  0  0  0  0
  -18.2250  -27.7050   22.7310 C   0  0  0  0  0  0  0  0  0  0  0  0
  -20.7690  -28.0830   22.9780 C   0  0  0  0  0  3  0  0  0  0  0  0
  -20.9410  -26.7000   22.3120 C   0  0  0  0  0  2  0  0  0  0  0  0
  -19.8370  -26.3760   21.3000 C   0  0  0  0  0  2  0  0  0  0  0  0
  -18.4610  -26.4080   21.9740 C   0  0  0  0  0  2  0  0  0  0  0  0
  -19.3100  -28.4990   23.1860 C   0  0  0  0  0  0  0  0  0  0  0  0
  -19.0390  -29.7100   23.8560 C   0  0  0  0  0  3  0  0  0  0  0  0
  -17.7150  -30.1310   24.0780 C   0  0  0  0  0  3  0  0  0  0  0  0
  -16.6440  -29.3340   23.6400 C   0  0  0  0  0  3  0  0  0  0  0  0
  -16.8980  -28.1260   22.9690 C   0  0  0  0  0  3  0  0  0  0  0  0
  -25.8790  -32.4620   23.7540 C   0  0  0  0  0  3  0  0  0  0  0  0
  -25.5460  -33.8490   24.1100 N   0  0  0  0  0  0  0  0  0  0  0  0
  -25.8590  -34.9190   23.3660 C   0  0  0  0  0  0  0  0  0  0  0  0
  -26.5310  -34.8440   22.3350 O   0  0  0  0  0  0  0  0  0  0  0  0
  -24.9560  -33.9760   24.9190 H   0  0  0  0  0  0  0  0  0  0  0  0
  -24.1060  -36.6910   23.0200 C   0  0  0  0  0  1  0  0  0  0  0  0
  -25.3410  -36.2920   23.8440 C   0  0  0  0  0  3  0  0  0  0  0  0
  -27.4440  -37.1940   24.7280 C   0  0  0  0  0  1  0  0  0  0  0  0
  -26.3590  -37.3610   23.7660 N   0  0  0  0  0  0  0  0  0  0  0  0
  -25.9370  -38.2730   23.9220 H   0  0  0  0  0  0  0  0  0  0  0  0
  -26.4260  -31.6790   25.0090 C   0  0  1  0  0  0  0  0  0  0  0  0
  -25.3490  -31.3940   26.0830 C   0  0  0  0  0  1  0  0  0  0  0  0
  -27.0330  -30.3260   24.5750 C   0  0  0  0  0  1  0  0  0  0  0  0
  -27.5700  -32.4800   25.6730 C   0  0  0  0  0  1  0  0  0  0  0  0
  1  2  1  0
  1 50  1  0
  3  1  1  0
  4  1  1  0
  5  4  1  0
  5  6  1  0
  7  6  1  0
  7  8  1  0
  8  9  1  0
  9 10  1  0
 11 10  1  0
 12 18  1  0
 12 20  1  0
 13 18  1  0
 14 15  1  0
 14 13  1  0
 16 15  1  0
 16 25  1  0
 16 17  1  0
 18 17  1  0
 19 12  2  0
 20 11  1  0
 20 21  1  0
 22 23  2  0
 23 42  1  0
 24 23  1  0
 24 27  1  0
 25 26  1  0
 25 22  1  0
 26 24  2  0
 27 28  1  0
 28 29  2  0
 30 33  1  0
 30 29  1  0
 31 30  2  0
 32 31  1  0
 32 27  2  0
 33 34  1  0
 34 39  2  0
 34 35  1  0
 35 36  2  0
 36 37  1  0
 37 41  1  0
 38 37  2  0
 39 38  1  0
 40 39  1  0
 42 43  1  0
 43 46  1  0
 43 45  1  0
 44 42  2  0
 47 22  1  0
 47 48  1  0
 49 47  1  0
 50 51  1  0
 52 51  1  0
 52 53  1  0
 54 53  1  0
 55 54  1  0
 56 55  1  0
 56 58  1  0
 57 68  2  0
 58 63  1  0
 59 67  1  0
 59 69  1  0
 60 66  1  0
 60 62  1  0
 61 67  1  0
 62 61  1  0
 63 62  2  0
 64 65  1  0
 64 58  2  0
 65 60  2  0
 66 59  1  0
 67 57  1  0
 69 71  2  0
 70 69  1  0
 72 70  1  0
 73 82  2  0
 73 78  1  0
 74 70  1  0
 74 78  1  0
 75 74  1  0
 76 77  1  0
 76 75  1  0
 77 73  1  0
 78 79  2  0
 79 80  1  0
 81 80  2  0
 82 81  1  0
 83 57  1  0
 83 84  1  0
 83 93  1  0
 84 87  1  0
 85 89  1  0
 85 84  1  0
 86 85  2  0
 89 88  1  0
 91 89  1  0
 91 92  1  0
 91 90  1  0
 93 96  1  1
 93 94  1  0
 95 93  1  0
M  ISO  4  12 100  20 100  55 101  56 101
M  END
>  <TORSDO>  (68) 
F 30

>  <SCORE>  (68) 
-9.824

>  <name>  (68) 
71

>  <ligand_id>  (68) 
71

>  <original_smiles>  (68) 
[H]c1c([H])c([H])c2c(c1[H])C([H])([H])C([H])([H])C([H])([H])C2([H])N([H])C(=O)C1([H])N(C(=O)C([H])(N([H])C(=O)C([H])(N([H])C([H])([H])[H])C([H])([H])[H])C(C([H])([H])[H])(C([H])([H])[H])C([H])([H])[H])C([H])([H])c2c([H])c(OC([H])([H])C([H])([H])C([H])([H])OC([H])([H])C([H])([H])[N+]([H])([H])C([H])([H])C([H])([H])OC([H])([H])C([H])([H])OC([H])([H])C([H])([H])N([H])C(=O)N3C([H])([H])C([H])([H])C([H])([H])C([H])(n4nc(-c5c([H])c([H])c(Oc6c([H])c([H])c(F)c([H])c6F)c([H])c5[H])c(C(=O)N([H])[H])c4N([H])[H])C3([H])[H])c([H])c([H])c2C1([H])[H]

>  <smiles>  (68) 
[H]c1c([H])c([H])c2c(c1[H])C([H])([H])C([H])([H])C([H])([H])C2([H])N([H])C(=O)C1([H])N(C(=O)C([H])(N([H])C(=O)C([H])(N([H])C([H])([H])[H])C([H])([H])[H])C(C([H])([H])[H])(C([H])([H])[H])C([H])([H])[H])C([H])([H])c2c([H])c(OC([H])([H])C([H])([H])C([H])([H])OC([H])([H])C([H])([H])[N+]([H])([H])C([H])([H])C([H])([H])OC([H])([H])C([H])([H])OC([H])([H])C([H])([H])N([H])C(=O)N3C([H])([H])C([H])([H])C([H])([H])C([H])(n4nc(-c5c([H])c([H])c(Oc6c([H])c([H])c(F)c([H])c6F)c([H])c5[H])c(C(=O)N([H])[H])c4N([H])[H])C3([H])[H])c([H])c([H])c2C1([H])[H]

$$$$
72:0:0
     RDKit          3D

 98105  0  0  1  0  0  0  0  0999 V2000
  -23.7110  -19.3270   19.0970 C   0  0  0  0  0  2  0  0  0  0  0  0
  -24.9550  -18.6080   19.4660 N   0  0  0  0  0  4  0  0  0  0  0  0
  -25.2840  -18.9330   20.3660 H   0  0  0  0  0  0  0  0  0  0  0  0
  -24.7830  -17.6200   19.5600 H   0  0  0  0  0  0  0  0  0  0  0  0
  -26.1360  -18.7930   18.5930 C   0  0  0  0  0  2  0  0  0  0  0  0
  -27.3080  -18.2060   19.3760 C   0  0  0  0  0  0  0  0  0  0  0  0
  -27.2100  -18.0090   20.5920 O   0  0  0  0  0  0  0  0  0  0  0  0
  -28.3890  -17.9110   18.6250 O   0  0  0  0  0  0  0  0  0  0  0  0
  -29.2920  -16.8740   19.0150 C   0  0  0  0  0  3  0  0  0  0  0  0
  -30.1280  -17.1380   20.2930 C   0  0  0  0  0  3  0  0  0  0  0  0
  -31.2490  -16.1150   20.5970 C   0  0  0  0  0  2  0  0  0  0  0  0
  -31.3920  -13.6590   20.1540 C   0  0  0  0  0  0  0  0  0  0  0  0
  -30.7630  -11.7410   18.7690 C   0  0  0  0  0  2  0  0  0  0  0  0
  -29.8220  -12.2780   17.6710 C   0  0  0  0  0  2  0  0  0  0  0  0
  -28.3580  -12.2430   18.1580 C   0  0  0  0  0  2  0  0  0  0  0  0
  -28.1800  -12.9150   19.5450 C   0  0  0  0  0  3  0  0  0  0  0  0
  -29.2440  -12.4030   20.5460 C   0  0  0  0  0  2  0  0  0  0  0  0
  -30.5750  -12.5960   19.9440 N   0  0  0  0  0  0  0  0  0  0  0  0
  -32.5370  -13.7440   19.6950 O   0  0  0  0  0  0  0  0  0  0  0  0
  -30.7730  -14.7270   20.6820 N   0  0  0  0  0  0  0  0  0  0  0  0
  -29.8490  -14.5670   21.0530 H   0  0  0  0  0  0  0  0  0  0  0  0
  -25.8820  -13.7310   20.3790 C   0  0  0  0  0  0  0  0  0  0  0  0
  -24.7510  -13.0600   20.7570 C   0  0  0  0  0  0  0  0  0  0  0  0
  -25.0750  -11.6740   20.6600 C   0  0  0  0  0  0  0  0  0  0  0  0
  -26.8220  -12.7610   20.0640 N   0  0  0  0  0  0  0  0  0  0  0  0
  -26.3410  -11.5160   20.2960 N   0  0  0  0  0  0  0  0  0  0  0  0
  -24.2390  -10.4850   20.8430 C   0  0  0  0  0  0  0  0  0  0  0  0
  -24.5890   -9.4760   21.7650 C   0  0  0  0  0  3  0  0  0  0  0  0
  -23.7610   -8.3460   21.9350 C   0  0  0  0  0  3  0  0  0  0  0  0
  -22.5690   -8.2220   21.1810 C   0  0  0  0  0  0  0  0  0  0  0  0
  -22.2370   -9.2210   20.2500 C   0  0  0  0  0  3  0  0  0  0  0  0
  -23.0640  -10.3430   20.0780 C   0  0  0  0  0  3  0  0  0  0  0  0
  -21.7160   -7.1480   21.2610 O   0  0  0  0  0  0  0  0  0  0  0  0
  -21.5370   -6.4600   22.4320 C   0  0  0  0  0  0  0  0  0  0  0  0
  -21.0690   -7.0940   23.6040 C   0  0  0  0  0  3  0  0  0  0  0  0
  -20.8330   -6.3350   24.7680 C   0  0  0  0  0  3  0  0  0  0  0  0
  -21.0500   -4.9450   24.7600 C   0  0  0  0  0  0  0  0  0  0  0  0
  -21.5120   -4.3110   23.5910 C   0  0  0  0  0  3  0  0  0  0  0  0
  -21.7520   -5.0660   22.4310 C   0  0  0  0  0  0  0  0  0  0  0  0
  -22.1760   -4.4500   21.3020 F   0  0  0  0  0  0  0  0  0  0  0  0
  -20.8140   -4.2120   25.8740 F   0  0  0  0  0  0  0  0  0  0  0  0
  -23.4210  -13.6680   21.1000 C   0  0  0  0  0  0  0  0  0  0  0  0
  -22.6590  -13.0290   21.9790 N   0  0  0  0  0  0  0  0  0  0  0  0
  -23.0690  -14.7450   20.6180 O   0  0  0  0  0  0  0  0  0  0  0  0
  -22.9580  -12.1620   22.3990 H   0  0  0  0  0  0  0  0  0  0  0  0
  -21.7610  -13.4110   22.2400 H   0  0  0  0  0  0  0  0  0  0  0  0
  -26.1800  -15.0810   20.2770 N   0  0  0  0  0  0  0  0  0  0  0  0
  -25.5820  -15.6880   20.8220 H   0  0  0  0  0  0  0  0  0  0  0  0
  -27.1480  -15.3560   20.3630 H   0  0  0  0  0  0  0  0  0  0  0  0
  -23.8120  -20.8190   19.4480 C   0  0  0  0  0  2  0  0  0  0  0  0
  -24.8080  -21.3320   18.5900 O   0  0  0  0  0  0  0  0  0  0  0  0
  -25.4760  -22.4850   19.0600 C   0  0  0  0  0  2  0  0  0  0  0  0
  -26.5940  -22.7060   18.0460 C   0  0  0  0  0  2  0  0  0  0  0  0
  -27.8360  -22.9240   18.6910 O   0  0  0  0  0  0  0  0  0  0  0  0
  -28.7950  -23.4540   17.7900 C   0  0  0  0  0  2  0  0  0  0  0  0
  -29.7530  -24.3340   18.5830 C   0  0  0  0  0  2  0  0  0  0  0  0
  -30.1500  -25.5980   17.7980 C   0  0  0  0  0  2  0  0  0  0  0  0
  -30.0990  -26.7390   18.6410 O   0  0  0  0  0  0  0  0  0  0  0  0
  -26.1920  -29.2940   23.9410 C   0  0  0  0  0  0  0  0  0  0  0  0
  -28.8770  -27.2910   18.9660 C   0  0  0  0  0  0  0  0  0  0  0  0
  -24.9940  -29.0170   21.7930 C   0  0  0  0  0  3  0  0  0  0  0  0
  -26.4560  -28.5040   19.7700 C   0  0  0  0  0  0  0  0  0  0  0  0
  -27.5140  -29.4340   21.8390 C   0  0  0  0  0  2  0  0  0  0  0  0
  -27.6030  -28.6330   20.5590 C   0  0  0  0  0  0  0  0  0  0  0  0
  -28.8100  -28.0300   20.1610 C   0  0  0  0  0  3  0  0  0  0  0  0
  -27.7040  -27.1590   18.1770 C   0  0  0  0  0  3  0  0  0  0  0  0
  -26.4960  -27.7620   18.5770 C   0  0  0  0  0  3  0  0  0  0  0  0
  -25.2040  -29.1910   20.2630 C   0  0  0  0  0  2  0  0  0  0  0  0
  -26.2490  -29.2300   22.5810 N   0  0  0  0  0  0  0  0  0  0  0  0
  -25.1080  -29.2320   24.5370 O   0  0  0  0  0  0  0  0  0  0  0  0
  -24.3400  -27.6390   22.0440 C   0  0  0  0  0  0  0  0  0  0  0  0
  -23.0600  -27.5110   21.6620 N   0  0  0  0  0  0  0  0  0  0  0  0
  -24.9830  -26.7110   22.5370 O   0  0  0  0  0  0  0  0  0  0  0  0
  -22.6130  -28.3160   21.2530 H   0  0  0  0  0  0  0  0  0  0  0  0
  -19.8420  -26.0850   20.8450 C   0  0  0  0  0  0  0  0  0  0  0  0
  -22.2470  -26.3000   21.7640 C   0  0  0  0  0  3  0  0  0  0  0  0
  -22.6450  -25.2770   20.6730 C   0  0  0  0  0  2  0  0  0  0  0  0
  -21.8010  -25.4000   19.4000 C   0  0  0  0  0  2  0  0  0  0  0  0
  -20.3190  -25.1840   19.7180 C   0  0  0  0  0  2  0  0  0  0  0  0
  -20.7490  -26.6240   21.7940 C   0  0  0  0  0  0  0  0  0  0  0  0
  -20.2600  -27.4880   22.7970 C   0  0  0  0  0  3  0  0  0  0  0  0
  -18.8940  -27.8120   22.8660 C   0  0  0  0  0  3  0  0  0  0  0  0
  -17.9950  -27.2570   21.9380 C   0  0  0  0  0  3  0  0  0  0  0  0
  -18.4670  -26.3950   20.9330 C   0  0  0  0  0  3  0  0  0  0  0  0
  -27.4750  -29.4780   24.8120 C   0  0  0  0  0  3  0  0  0  0  0  0
  -27.2500  -30.6330   25.6910 N   0  0  0  0  0  0  0  0  0  0  0  0
  -27.7700  -31.8530   25.4880 C   0  0  0  0  0  0  0  0  0  0  0  0
  -28.5530  -32.1030   24.5690 O   0  0  0  0  0  0  0  0  0  0  0  0
  -26.5830  -30.5160   26.4390 H   0  0  0  0  0  0  0  0  0  0  0  0
  -26.2980  -33.8690   25.7920 C   0  0  0  0  0  1  0  0  0  0  0  0
  -27.3510  -32.9720   26.4630 C   0  0  0  0  0  3  0  0  0  0  0  0
  -29.4050  -33.0780   27.8080 C   0  0  0  0  0  1  0  0  0  0  0  0
  -28.4850  -33.7990   26.9310 N   0  0  0  0  0  0  0  0  0  0  0  0
  -28.1510  -34.6240   27.4230 H   0  0  0  0  0  0  0  0  0  0  0  0
  -27.8460  -28.1960   25.6550 C   0  0  1  0  0  0  0  0  0  0  0  0
  -26.6830  -27.6600   26.5240 C   0  0  0  0  0  1  0  0  0  0  0  0
  -28.3120  -27.0500   24.7270 C   0  0  0  0  0  1  0  0  0  0  0  0
  -29.0300  -28.5140   26.5990 C   0  0  0  0  0  1  0  0  0  0  0  0
  1 50  1  0
  1  2  1  0
  2  4  1  0
  2  3  1  0
  5  6  1  0
  5  2  1  0
  6  7  2  0
  8  9  1  0
  8  6  1  0
  9 10  2  0
 10 11  1  0
 11 20  1  0
 12 20  1  0
 13 18  1  0
 14 15  1  0
 14 13  1  0
 16 15  1  0
 16 25  1  0
 16 17  1  0
 18 12  1  0
 18 17  1  0
 19 12  2  0
 20 21  1  0
 22 23  2  0
 23 42  1  0
 24 23  1  0
 24 27  1  0
 25 26  1  0
 25 22  1  0
 26 24  2  0
 27 28  1  0
 28 29  2  0
 30 33  1  0
 30 29  1  0
 31 30  2  0
 32 31  1  0
 32 27  2  0
 33 34  1  0
 34 35  1  0
 35 36  2  0
 37 36  1  0
 37 41  1  0
 38 37  2  0
 39 34  2  0
 39 38  1  0
 40 39  1  0
 42 43  1  0
 43 46  1  0
 43 45  1  0
 44 42  2  0
 47 49  1  0
 47 22  1  0
 47 48  1  0
 51 52  1  0
 51 50  1  0
 53 54  1  0
 53 52  1  0
 55 56  1  0
 55 54  1  0
 57 56  1  0
 57 58  1  0
 58 60  1  0
 59 70  2  0
 60 65  1  0
 61 71  1  0
 61 69  1  0
 62 68  1  0
 62 64  1  0
 63 69  1  0
 64 63  1  0
 65 64  2  0
 66 67  1  0
 66 60  2  0
 67 62  2  0
 68 61  1  0
 69 59  1  0
 71 73  2  0
 72 71  1  0
 74 72  1  0
 75 84  2  0
 75 80  1  0
 76 72  1  0
 76 80  1  0
 77 76  1  0
 78 79  1  0
 78 77  1  0
 79 75  1  0
 80 81  2  0
 81 82  1  0
 83 82  2  0
 84 83  1  0
 85 59  1  0
 85 95  1  0
 85 86  1  0
 86 89  1  0
 87 86  1  0
 87 91  1  0
 88 87  2  0
 91 90  1  0
 91 93  1  0
 93 94  1  0
 93 92  1  0
 95 96  1  1
 95 98  1  0
 97 95  1  0
M  ISO  4  12 100  20 100  57 101  58 101
M  END
>  <TORSDO>  (69) 
F 31

>  <SCORE>  (69) 
-4.044

>  <name>  (69) 
72

>  <ligand_id>  (69) 
72

>  <original_smiles>  (69) 
[H]c1c([H])c([H])c2c(c1[H])C([H])([H])C([H])([H])C([H])([H])C2([H])N([H])C(=O)C1([H])N(C(=O)C([H])(N([H])C(=O)C([H])(N([H])C([H])([H])[H])C([H])([H])[H])C(C([H])([H])[H])(C([H])([H])[H])C([H])([H])[H])C([H])([H])c2c([H])c(OC([H])([H])C([H])([H])C([H])([H])OC([H])([H])C([H])([H])OC([H])([H])C([H])([H])[N+]([H])([H])C([H])([H])C(=O)OC([H])([H])C([H])([H])C([H])([H])N([H])C(=O)N3C([H])([H])C([H])([H])C([H])([H])C([H])(n4nc(-c5c([H])c([H])c(Oc6c([H])c([H])c(F)c([H])c6F)c([H])c5[H])c(C(=O)N([H])[H])c4N([H])[H])C3([H])[H])c([H])c([H])c2C1([H])[H]

>  <smiles>  (69) 
[H]c1c([H])c([H])c2c(c1[H])C([H])([H])C([H])([H])C([H])([H])C2([H])N([H])C(=O)C1([H])N(C(=O)C([H])(N([H])C(=O)C([H])(N([H])C([H])([H])[H])C([H])([H])[H])C(C([H])([H])[H])(C([H])([H])[H])C([H])([H])[H])C([H])([H])c2c([H])c(OC([H])([H])C([H])([H])C([H])([H])OC([H])([H])C([H])([H])OC([H])([H])C([H])([H])[N+]([H])([H])C([H])([H])C(=O)OC([H])([H])C([H])([H])C([H])([H])N([H])C(=O)N3C([H])([H])C([H])([H])C([H])([H])C([H])(n4nc(-c5c([H])c([H])c(Oc6c([H])c([H])c(F)c([H])c6F)c([H])c5[H])c(C(=O)N([H])[H])c4N([H])[H])C3([H])[H])c([H])c([H])c2C1([H])[H]

$$$$
73:0:0
     RDKit          3D

111118  0  0  1  0  0  0  0  0999 V2000
  -30.0980  -21.2390   19.2640 C   0  0  0  0  0  0  0  0  0  0  0  0
  -29.2910  -22.1340   18.6810 N   0  0  0  0  0  0  0  0  0  0  0  0
  -29.6820  -20.3090   19.9630 O   0  0  0  0  0  0  0  0  0  0  0  0
  -29.7260  -22.8700   18.1400 H   0  0  0  0  0  0  0  0  0  0  0  0
  -31.6010  -21.3680   18.9860 C   0  0  0  0  0  3  0  0  0  0  0  0
  -33.4470  -19.6480   18.8550 C   0  0  0  0  0  0  0  0  0  0  0  0
  -33.9100  -18.4810   19.2930 N   0  0  0  0  0  0  0  0  0  0  0  0
  -34.1440  -20.3090   17.9310 N   0  0  0  0  0  4  0  0  0  0  0  0
  -32.2980  -20.1270   19.3440 N   0  0  0  0  0  0  0  0  0  0  0  0
  -34.7680  -18.0730   18.9480 H   0  0  0  0  0  0  0  0  0  0  0  0
  -33.4270  -17.9640   20.0160 H   0  0  0  0  0  0  0  0  0  0  0  0
  -35.0020  -19.9460   17.5440 H   0  0  0  0  0  0  0  0  0  0  0  0
  -33.8580  -21.2210   17.6110 H   0  0  0  0  0  0  0  0  0  0  0  0
  -31.7440  -19.5670   19.9800 H   0  0  0  0  0  0  0  0  0  0  0  0
  -32.3460  -23.7870   19.2250 C   0  0  0  0  0  3  0  0  0  0  0  0
  -32.2860  -22.5260   19.6920 C   0  0  0  0  0  3  0  0  0  0  0  0
  -33.0620  -24.9290   19.9240 C   0  0  0  0  0  2  0  0  0  0  0  0
  -32.1030  -25.9910   20.4760 C   0  0  0  0  0  2  0  0  0  0  0  0
  -31.4230  -26.5980   19.3830 O   0  0  0  0  0  0  0  0  0  0  0  0
  -27.1420  -29.6470   24.2020 C   0  0  0  0  0  0  0  0  0  0  0  0
  -30.2050  -27.1450   19.6930 C   0  0  0  0  0  0  0  0  0  0  0  0
  -26.0800  -28.9770   22.0700 C   0  0  0  0  0  3  0  0  0  0  0  0
  -27.6810  -28.2880   20.2060 C   0  0  0  0  0  0  0  0  0  0  0  0
  -28.5600  -29.5820   22.1600 C   0  0  0  0  0  2  0  0  0  0  0  0
  -28.7750  -28.6090   21.0210 C   0  0  0  0  0  0  0  0  0  0  0  0
  -30.0390  -28.0390   20.7720 C   0  0  0  0  0  3  0  0  0  0  0  0
  -29.1040  -26.8340   18.8730 C   0  0  0  0  0  3  0  0  0  0  0  0
  -27.8380  -27.3950   19.1310 C   0  0  0  0  0  3  0  0  0  0  0  0
  -26.3630  -28.9460   20.5420 C   0  0  0  0  0  2  0  0  0  0  0  0
  -27.2770  -29.3930   22.8700 N   0  0  0  0  0  0  0  0  0  0  0  0
  -26.0370  -29.5850   24.7560 O   0  0  0  0  0  0  0  0  0  0  0  0
  -25.5100  -27.6030   22.4860 C   0  0  0  0  0  0  0  0  0  0  0  0
  -24.2450  -27.3470   22.1180 N   0  0  0  0  0  0  0  0  0  0  0  0
  -26.2070  -26.7900   23.0990 O   0  0  0  0  0  0  0  0  0  0  0  0
  -23.7420  -28.0680   21.6210 H   0  0  0  0  0  0  0  0  0  0  0  0
  -21.1050  -25.6560   21.5450 C   0  0  0  0  0  0  0  0  0  0  0  0
  -23.5150  -26.1050   22.3630 C   0  0  0  0  0  3  0  0  0  0  0  0
  -23.9480  -24.9990   21.3750 C   0  0  0  0  0  2  0  0  0  0  0  0
  -23.0670  -24.9300   20.1230 C   0  0  0  0  0  2  0  0  0  0  0  0
  -21.6070  -24.6700   20.5040 C   0  0  0  0  0  2  0  0  0  0  0  0
  -22.0020  -26.3440   22.4060 C   0  0  0  0  0  0  0  0  0  0  0  0
  -21.4840  -27.2780   23.3280 C   0  0  0  0  0  3  0  0  0  0  0  0
  -20.1010  -27.5280   23.4020 C   0  0  0  0  0  3  0  0  0  0  0  0
  -19.2170  -26.8340   22.5570 C   0  0  0  0  0  3  0  0  0  0  0  0
  -19.7190  -25.8970   21.6370 C   0  0  0  0  0  3  0  0  0  0  0  0
  -28.3650  -30.0490   25.0870 C   0  0  0  0  0  3  0  0  0  0  0  0
  -27.9410  -31.1680   25.9400 N   0  0  0  0  0  0  0  0  0  0  0  0
  -28.2050  -32.4580   25.6880 C   0  0  0  0  0  0  0  0  0  0  0  0
  -28.9000  -32.8270   24.7380 O   0  0  0  0  0  0  0  0  0  0  0  0
  -27.3170  -30.9460   26.7030 H   0  0  0  0  0  0  0  0  0  0  0  0
  -26.3410  -34.1180   26.0040 C   0  0  0  0  0  1  0  0  0  0  0  0
  -27.5980  -33.5050   26.6420 C   0  0  0  0  0  3  0  0  0  0  0  0
  -29.6400  -34.1160   27.8590 C   0  0  0  0  0  1  0  0  0  0  0  0
  -28.5420  -34.5810   27.0160 N   0  0  0  0  0  0  0  0  0  0  0  0
  -28.0600  -35.3290   27.5060 H   0  0  0  0  0  0  0  0  0  0  0  0
  -28.9230  -28.8590   25.9610 C   0  0  1  0  0  0  0  0  0  0  0  0
  -27.8370  -28.1340   26.7900 C   0  0  0  0  0  1  0  0  0  0  0  0
  -29.6140  -27.8010   25.0680 C   0  0  0  0  0  1  0  0  0  0  0  0
  -30.0040  -29.3850   26.9360 C   0  0  0  0  0  1  0  0  0  0  0  0
  -27.8300  -22.1110   18.7070 C   0  0  0  0  0  2  0  0  0  0  0  0
  -27.2680  -23.1750   19.6560 C   0  0  0  0  0  2  0  0  0  0  0  0
  -28.2230  -23.4680   20.6660 O   0  0  0  0  0  0  0  0  0  0  0  0
  -27.7770  -24.4950   21.5420 C   0  0  0  0  0  2  0  0  0  0  0  0
  -28.7860  -24.6730   22.6820 C   0  0  0  0  0  2  0  0  0  0  0  0
  -29.0760  -23.4040   23.2560 O   0  0  0  0  0  0  0  0  0  0  0  0
  -30.1770  -23.4530   24.1530 C   0  0  0  0  0  2  0  0  0  0  0  0
  -30.4420  -22.0460   24.7050 C   0  0  0  0  0  2  0  0  0  0  0  0
  -30.8230  -21.1910   23.6370 O   0  0  0  0  0  0  0  0  0  0  0  0
  -31.0800  -19.8570   24.0580 C   0  0  0  0  0  2  0  0  0  0  0  0
  -31.5950  -19.0610   22.8520 C   0  0  0  0  0  2  0  0  0  0  0  0
  -30.4820  -18.6190   22.0840 O   0  0  0  0  0  0  0  0  0  0  0  0
  -30.8450  -18.2090   20.7730 C   0  0  0  0  0  2  0  0  0  0  0  0
  -29.6270  -17.5510   20.1170 C   0  0  0  0  0  2  0  0  0  0  0  0
  -30.2810  -15.1530   20.2170 C   0  0  0  0  0  0  0  0  0  0  0  0
  -30.4580  -12.7070   19.9770 C   0  0  0  0  0  2  0  0  0  0  0  0
  -29.6500  -12.2430   18.7490 C   0  0  0  0  0  2  0  0  0  0  0  0
  -28.1730  -12.0020   19.1210 C   0  0  0  0  0  2  0  0  0  0  0  0
  -27.5590  -13.1840   19.9190 C   0  0  0  0  0  3  0  0  0  0  0  0
  -28.4870  -13.6060   21.0780 C   0  0  0  0  0  2  0  0  0  0  0  0
  -29.8150  -13.9140   20.5160 N   0  0  0  0  0  0  0  0  0  0  0  0
  -31.3450  -15.3560   19.6260 O   0  0  0  0  0  0  0  0  0  0  0  0
  -29.4660  -16.1630   20.5440 N   0  0  0  0  0  0  0  0  0  0  0  0
  -28.6270  -15.9310   21.0540 H   0  0  0  0  0  0  0  0  0  0  0  0
  -25.1660  -13.7150   20.7120 C   0  0  0  0  0  0  0  0  0  0  0  0
  -24.1100  -12.9060   21.0360 C   0  0  0  0  0  0  0  0  0  0  0  0
  -24.5800  -11.5660   20.8870 C   0  0  0  0  0  0  0  0  0  0  0  0
  -26.2140  -12.8630   20.3940 N   0  0  0  0  0  0  0  0  0  0  0  0
  -25.8640  -11.5620   20.5520 N   0  0  0  0  0  0  0  0  0  0  0  0
  -23.8680  -10.2850   20.9910 C   0  0  0  0  0  0  0  0  0  0  0  0
  -24.2580   -9.2960   21.9210 C   0  0  0  0  0  3  0  0  0  0  0  0
  -23.5470   -8.0800   22.0140 C   0  0  0  0  0  3  0  0  0  0  0  0
  -22.4330   -7.8440   21.1740 C   0  0  0  0  0  0  0  0  0  0  0  0
  -22.0650   -8.8220   20.2340 C   0  0  0  0  0  3  0  0  0  0  0  0
  -22.7760  -10.0290   20.1390 C   0  0  0  0  0  3  0  0  0  0  0  0
  -21.7000   -6.6830   21.1740 O   0  0  0  0  0  0  0  0  0  0  0  0
  -21.4840   -5.9680   22.3240 C   0  0  0  0  0  0  0  0  0  0  0  0
  -20.8760   -6.5470   23.4590 C   0  0  0  0  0  3  0  0  0  0  0  0
  -20.6110   -5.7580   24.5960 C   0  0  0  0  0  3  0  0  0  0  0  0
  -20.9440   -4.3910   24.5990 C   0  0  0  0  0  0  0  0  0  0  0  0
  -21.5440   -3.8110   23.4660 C   0  0  0  0  0  3  0  0  0  0  0  0
  -21.8110   -4.5970   22.3320 C   0  0  0  0  0  0  0  0  0  0  0  0
  -22.3720   -4.0290   21.2370 F   0  0  0  0  0  0  0  0  0  0  0  0
  -20.6810   -3.6300   25.6870 F   0  0  0  0  0  0  0  0  0  0  0  0
  -22.7160  -13.3460   21.3770 C   0  0  0  0  0  0  0  0  0  0  0  0
  -22.0170  -12.5790   22.2070 N   0  0  0  0  0  0  0  0  0  0  0  0
  -22.2550  -14.4030   20.9460 O   0  0  0  0  0  0  0  0  0  0  0  0
  -22.4040  -11.7240   22.5770 H   0  0  0  0  0  0  0  0  0  0  0  0
  -21.0830  -12.8530   22.4770 H   0  0  0  0  0  0  0  0  0  0  0  0
  -25.3190  -15.0970   20.6430 N   0  0  0  0  0  0  0  0  0  0  0  0
  -24.5530  -15.7370   20.8230 H   0  0  0  0  0  0  0  0  0  0  0  0
  -26.1690  -15.5650   20.3520 H   0  0  0  0  0  0  0  0  0  0  0  0
  1  3  2  0
  2 60  1  0
  2  1  1  0
  4  2  1  0
  5  1  1  0
  5  9  1  0
  5 16  1  0
  6  7  1  0
  6  9  1  0
  7 11  1  0
  8  6  2  0
  9 14  1  0
 10  7  1  0
 12  8  1  0
 13  8  1  0
 15 16  2  0
 15 17  1  0
 17 18  1  0
 19 21  1  0
 19 18  1  0
 20 31  2  0
 21 26  1  0
 22 32  1  0
 22 30  1  0
 23 29  1  0
 23 25  1  0
 24 30  1  0
 25 24  1  0
 26 25  2  0
 27 28  1  0
 27 21  2  0
 28 23  2  0
 29 22  1  0
 30 20  1  0
 32 34  2  0
 33 32  1  0
 35 33  1  0
 36 45  2  0
 36 41  1  0
 37 33  1  0
 37 41  1  0
 38 37  1  0
 39 40  1  0
 39 38  1  0
 40 36  1  0
 41 42  2  0
 42 43  1  0
 44 43  2  0
 45 44  1  0
 46 20  1  0
 46 47  1  0
 46 56  1  0
 47 50  1  0
 48 47  1  0
 48 52  1  0
 49 48  2  0
 52 51  1  0
 52 54  1  0
 54 55  1  0
 54 53  1  0
 56 57  1  1
 56 59  1  0
 58 56  1  0
 60 61  1  0
 61 62  1  0
 62 63  1  0
 63 64  1  0
 64 65  1  0
 65 66  1  0
 66 67  1  0
 68 69  1  0
 68 67  1  0
 70 69  1  0
 71 70  1  0
 72 71  1  0
 73 82  1  0
 73 72  1  0
 74 80  1  0
 74 82  1  0
 75 80  1  0
 76 77  1  0
 76 75  1  0
 78 77  1  0
 78 87  1  0
 78 79  1  0
 80 79  1  0
 81 74  2  0
 82 83  1  0
 84 85  2  0
 85104  1  0
 86 89  1  0
 86 85  1  0
 87 88  1  0
 87 84  1  0
 88 86  2  0
 89 90  1  0
 90 91  2  0
 92 95  1  0
 92 91  1  0
 93 92  2  0
 94 93  1  0
 94 89  2  0
 95 96  1  0
 96101  2  0
 96 97  1  0
 97 98  2  0
 98 99  1  0
 99103  1  0
100 99  2  0
101100  1  0
102101  1  0
104105  1  0
105108  1  0
105107  1  0
106104  2  0
109 84  1  0
109110  1  0
111109  1  0
M  ISO  4  18 101  19 101  74 100  82 100
M  END
>  <TORSDO>  (70) 
F 35

>  <SCORE>  (70) 
-6.748

>  <name>  (70) 
73

>  <ligand_id>  (70) 
73

>  <original_smiles>  (70) 
[H]C(=C([H])C([H])([H])C([H])([H])Oc1c([H])c([H])c2c(c1[H])C([H])([H])N(C(=O)C([H])(N([H])C(=O)C([H])(N([H])C([H])([H])[H])C([H])([H])[H])C(C([H])([H])[H])(C([H])([H])[H])C([H])([H])[H])C([H])(C(=O)N([H])C1([H])c3c([H])c([H])c([H])c([H])c3C([H])([H])C([H])([H])C1([H])[H])C2([H])[H])C([H])(C(=O)N([H])C([H])([H])C([H])([H])OC([H])([H])C([H])([H])OC([H])([H])C([H])([H])OC([H])([H])C([H])([H])OC([H])([H])C([H])([H])N([H])C(=O)N1C([H])([H])C([H])([H])C([H])([H])C([H])(n2nc(-c3c([H])c([H])c(Oc4c([H])c([H])c(F)c([H])c4F)c([H])c3[H])c(C(=O)N([H])[H])c2N([H])[H])C1([H])[H])N([H])C(N([H])[H])=[N+]([H])[H]

>  <smiles>  (70) 
[H]C(=C([H])C([H])([H])C([H])([H])Oc1c([H])c([H])c2c(c1[H])C([H])([H])N(C(=O)C([H])(N([H])C(=O)C([H])(N([H])C([H])([H])[H])C([H])([H])[H])C(C([H])([H])[H])(C([H])([H])[H])C([H])([H])[H])C([H])(C(=O)N([H])C1([H])c3c([H])c([H])c([H])c([H])c3C([H])([H])C([H])([H])C1([H])[H])C2([H])[H])C([H])(C(=O)N([H])C([H])([H])C([H])([H])OC([H])([H])C([H])([H])OC([H])([H])C([H])([H])OC([H])([H])C([H])([H])OC([H])([H])C([H])([H])N([H])C(=O)N1C([H])([H])C([H])([H])C([H])([H])C([H])(n2nc(-c3c([H])c([H])c(Oc4c([H])c([H])c(F)c([H])c4F)c([H])c3[H])c(C(=O)N([H])[H])c2N([H])[H])C1([H])[H])N([H])C(N([H])[H])=[N+]([H])[H]

$$$$
74:0:0
     RDKit          3D

102109  0  0  1  0  0  0  0  0999 V2000
  -32.3800  -21.3650   19.4850 C   0  0  0  0  0  3  0  0  0  0  0  0
  -31.7970  -22.7060   19.7340 N   0  0  0  0  0  4  0  0  0  0  0  0
  -32.1720  -23.3300   19.0370 H   0  0  0  0  0  0  0  0  0  0  0  0
  -30.8080  -22.6450   19.5450 H   0  0  0  0  0  0  0  0  0  0  0  0
  -31.9950  -23.3180   21.0690 C   0  0  0  0  0  2  0  0  0  0  0  0
  -31.4910  -24.7670   21.0610 C   0  0  0  0  0  2  0  0  0  0  0  0
  -30.1330  -24.7620   20.6310 O   0  0  0  0  0  0  0  0  0  0  0  0
  -29.5310  -26.0470   20.7010 C   0  0  0  0  0  2  0  0  0  0  0  0
  -28.0340  -25.8930   20.4150 C   0  0  0  0  0  2  0  0  0  0  0  0
  -27.6840  -26.5900   19.2230 O   0  0  0  0  0  0  0  0  0  0  0  0
  -24.3560  -31.5710   23.0250 C   0  0  0  0  0  0  0  0  0  0  0  0
  -26.5630  -27.3550   19.3800 C   0  0  0  0  0  0  0  0  0  0  0  0
  -22.9610  -30.3500   21.3820 C   0  0  0  0  0  3  0  0  0  0  0  0
  -24.2310  -28.8920   19.7170 C   0  0  0  0  0  0  0  0  0  0  0  0
  -25.4710  -30.6500   21.0000 C   0  0  0  0  0  2  0  0  0  0  0  0
  -25.4490  -29.3360   20.2520 C   0  0  0  0  0  0  0  0  0  0  0  0
  -26.6180  -28.5720   20.0880 C   0  0  0  0  0  3  0  0  0  0  0  0
  -25.3410  -26.9120   18.8380 C   0  0  0  0  0  3  0  0  0  0  0  0
  -24.1700  -27.6750   19.0100 C   0  0  0  0  0  3  0  0  0  0  0  0
  -23.0260  -29.7780   19.9400 C   0  0  0  0  0  2  0  0  0  0  0  0
  -24.2860  -30.8660   21.8590 N   0  0  0  0  0  0  0  0  0  0  0  0
  -23.3380  -31.8300   23.6770 O   0  0  0  0  0  0  0  0  0  0  0  0
  -22.3600  -29.2730   22.3110 C   0  0  0  0  0  0  0  0  0  0  0  0
  -21.0280  -29.1010   22.2480 N   0  0  0  0  0  0  0  0  0  0  0  0
  -23.0840  -28.5920   23.0430 O   0  0  0  0  0  0  0  0  0  0  0  0
  -20.5040  -29.7060   21.6310 H   0  0  0  0  0  0  0  0  0  0  0  0
  -17.6870  -27.8510   22.7810 C   0  0  0  0  0  0  0  0  0  0  0  0
  -20.2460  -28.1200   23.0010 C   0  0  0  0  0  3  0  0  0  0  0  0
  -20.3460  -26.7180   22.3540 C   0  0  0  0  0  2  0  0  0  0  0  0
  -19.2210  -26.4330   21.3560 C   0  0  0  0  0  2  0  0  0  0  0  0
  -17.8560  -26.5360   22.0430 C   0  0  0  0  0  2  0  0  0  0  0  0
  -18.8070  -28.6040   23.2170 C   0  0  0  0  0  0  0  0  0  0  0  0
  -18.5920  -29.8430   23.8600 C   0  0  0  0  0  3  0  0  0  0  0  0
  -17.2840  -30.3200   24.0810 C   0  0  0  0  0  3  0  0  0  0  0  0
  -16.1780  -29.5590   23.6660 C   0  0  0  0  0  3  0  0  0  0  0  0
  -16.3810  -28.3280   23.0170 C   0  0  0  0  0  3  0  0  0  0  0  0
  -25.7160  -32.1040   23.5770 C   0  0  0  0  0  3  0  0  0  0  0  0
  -25.4930  -33.4800   24.0390 N   0  0  0  0  0  0  0  0  0  0  0  0
  -25.8280  -34.5760   23.3450 C   0  0  0  0  0  0  0  0  0  0  0  0
  -26.4290  -34.5320   22.2690 O   0  0  0  0  0  0  0  0  0  0  0  0
  -24.9520  -33.5900   24.8850 H   0  0  0  0  0  0  0  0  0  0  0  0
  -24.1620  -36.4550   23.2480 C   0  0  0  0  0  1  0  0  0  0  0  0
  -25.4340  -35.9390   23.9380 C   0  0  0  0  0  3  0  0  0  0  0  0
  -27.6560  -36.6740   24.6860 C   0  0  0  0  0  1  0  0  0  0  0  0
  -26.5040  -36.9560   23.8350 N   0  0  0  0  0  0  0  0  0  0  0  0
  -26.1470  -37.8780   24.0720 H   0  0  0  0  0  0  0  0  0  0  0  0
  -26.3070  -31.2160   24.7410 C   0  0  1  0  0  0  0  0  0  0  0  0
  -25.3030  -30.9430   25.8840 C   0  0  0  0  0  1  0  0  0  0  0  0
  -26.7830  -29.8510   24.1960 C   0  0  0  0  0  1  0  0  0  0  0  0
  -27.5490  -31.9080   25.3540 C   0  0  0  0  0  1  0  0  0  0  0  0
  -31.6420  -20.2370   20.2340 C   0  0  0  0  0  0  0  0  0  0  0  0
  -32.2460  -19.6320   21.1190 O   0  0  0  0  0  0  0  0  0  0  0  0
  -29.6680  -18.9810   20.0420 C   0  0  0  0  0  0  0  0  0  0  0  0
  -30.3310  -20.0590   19.8070 N   0  0  0  0  0  0  0  0  0  0  0  0
  -30.1200  -17.6550   20.7070 C   0  0  0  0  0  2  0  0  0  0  0  0
  -30.5960  -16.5790   19.7050 C   0  0  0  0  0  2  0  0  0  0  0  0
  -30.9260  -14.1110   19.6170 C   0  0  0  0  0  0  0  0  0  0  0  0
  -30.4440  -11.9170   18.6260 C   0  0  0  0  0  2  0  0  0  0  0  0
  -29.4100  -12.1180   17.4990 C   0  0  0  0  0  2  0  0  0  0  0  0
  -27.9770  -12.0510   18.0600 C   0  0  0  0  0  2  0  0  0  0  0  0
  -27.7790  -12.9470   19.3170 C   0  0  0  0  0  3  0  0  0  0  0  0
  -28.9250  -12.7350   20.3360 C   0  0  0  0  0  2  0  0  0  0  0  0
  -30.2030  -12.9580   19.6370 N   0  0  0  0  0  0  0  0  0  0  0  0
  -31.9920  -14.2250   19.0090 O   0  0  0  0  0  0  0  0  0  0  0  0
  -30.3170  -15.1920   20.1340 N   0  0  0  0  0  0  0  0  0  0  0  0
  -29.4540  -15.0170   20.6240 H   0  0  0  0  0  0  0  0  0  0  0  0
  -25.5220  -13.6700   20.3210 C   0  0  0  0  0  0  0  0  0  0  0  0
  -24.4410  -12.9550   20.7570 C   0  0  0  0  0  0  0  0  0  0  0  0
  -24.7810  -11.5800   20.5810 C   0  0  0  0  0  0  0  0  0  0  0  0
  -26.4640  -12.7350   19.9180 N   0  0  0  0  0  0  0  0  0  0  0  0
  -26.0260  -11.4680   20.1280 N   0  0  0  0  0  0  0  0  0  0  0  0
  -23.9740  -10.3650   20.7670 C   0  0  0  0  0  0  0  0  0  0  0  0
  -24.4220   -9.3100   21.5930 C   0  0  0  0  0  3  0  0  0  0  0  0
  -23.6290   -8.1550   21.7760 C   0  0  0  0  0  3  0  0  0  0  0  0
  -22.3730   -8.0490   21.1310 C   0  0  0  0  0  0  0  0  0  0  0  0
  -21.9410   -9.0910   20.2910 C   0  0  0  0  0  3  0  0  0  0  0  0
  -22.7330  -10.2370   20.1080 C   0  0  0  0  0  3  0  0  0  0  0  0
  -21.5440   -6.9590   21.2270 O   0  0  0  0  0  0  0  0  0  0  0  0
  -21.5420   -6.1490   22.3350 C   0  0  0  0  0  0  0  0  0  0  0  0
  -21.2530   -6.6520   23.6220 C   0  0  0  0  0  3  0  0  0  0  0  0
  -21.2000   -5.7740   24.7240 C   0  0  0  0  0  3  0  0  0  0  0  0
  -21.4230   -4.3960   24.5370 C   0  0  0  0  0  0  0  0  0  0  0  0
  -21.7060   -3.8930   23.2550 C   0  0  0  0  0  3  0  0  0  0  0  0
  -21.7660   -4.7690   22.1550 C   0  0  0  0  0  0  0  0  0  0  0  0
  -22.0200   -4.2800   20.9170 F   0  0  0  0  0  0  0  0  0  0  0  0
  -21.3630   -3.5500   25.5930 F   0  0  0  0  0  0  0  0  0  0  0  0
  -23.1250  -13.5110   21.2210 C   0  0  0  0  0  0  0  0  0  0  0  0
  -22.4470  -12.8160   22.1280 N   0  0  0  0  0  0  0  0  0  0  0  0
  -22.7130  -14.5980   20.8150 O   0  0  0  0  0  0  0  0  0  0  0  0
  -22.7980  -11.9420   22.4860 H   0  0  0  0  0  0  0  0  0  0  0  0
  -21.5630  -13.1640   22.4710 H   0  0  0  0  0  0  0  0  0  0  0  0
  -25.7740  -15.0330   20.2190 N   0  0  0  0  0  0  0  0  0  0  0  0
  -25.0820  -15.7260   20.4830 H   0  0  0  0  0  0  0  0  0  0  0  0
  -26.6170  -15.4370   19.8300 H   0  0  0  0  0  0  0  0  0  0  0  0
  -28.2170  -18.9220   19.5800 C   0  0  0  0  0  2  0  0  0  0  0  0
  -28.1120  -18.3310   18.2880 O   0  0  0  0  0  0  0  0  0  0  0  0
  -28.2200  -18.5530   15.9110 C   0  0  0  0  0  1  0  0  0  0  0  0
  -28.0430  -19.2840   17.2400 C   0  0  0  0  0  2  0  0  0  0  0  0
  -32.4490  -21.1010   17.9580 C   0  0  0  0  0  2  0  0  0  0  0  0
  -31.5840  -21.9960   17.2420 O   0  0  0  0  0  0  0  0  0  0  0  0
  -30.9510  -23.0170   15.1390 C   0  0  0  0  0  1  0  0  0  0  0  0
  -31.7280  -21.8900   15.8300 C   0  0  0  0  0  2  0  0  0  0  0  0
  1 99  1  0
  1  2  1  0
  1 51  1  0
  2  5  1  0
  3  2  1  0
  4  2  1  0
  6  5  1  0
  7  8  1  0
  7  6  1  0
  9  8  1  0
 10 12  1  0
 10  9  1  0
 11 22  2  0
 12 17  1  0
 13 21  1  0
 13 23  1  0
 14 20  1  0
 14 16  1  0
 15 21  1  0
 16 15  1  0
 17 16  2  0
 18 19  1  0
 18 12  2  0
 19 14  2  0
 20 13  1  0
 21 11  1  0
 23 25  2  0
 24 23  1  0
 26 24  1  0
 27 36  2  0
 27 32  1  0
 28 24  1  0
 28 32  1  0
 29 28  1  0
 30 31  1  0
 30 29  1  0
 31 27  1  0
 32 33  2  0
 33 34  1  0
 35 34  2  0
 36 35  1  0
 37 11  1  0
 37 38  1  0
 37 47  1  0
 38 41  1  0
 39 43  1  0
 39 38  1  0
 40 39  2  0
 43 42  1  0
 45 43  1  0
 45 46  1  0
 45 44  1  0
 47 50  1  1
 47 48  1  0
 49 47  1  0
 51 52  2  0
 53 55  1  0
 54 53  2  0
 54 51  1  0
 56 65  1  0
 56 55  1  0
 57 63  1  0
 57 65  1  0
 58 63  1  0
 59 60  1  0
 59 58  1  0
 61 60  1  0
 61 70  1  0
 61 62  1  0
 63 62  1  0
 64 57  2  0
 65 66  1  0
 67 68  2  0
 68 87  1  0
 69 68  1  0
 69 72  1  0
 70 71  1  0
 70 67  1  0
 71 69  2  0
 72 73  1  0
 73 74  2  0
 75 78  1  0
 75 74  1  0
 76 75  2  0
 77 76  1  0
 77 72  2  0
 78 79  1  0
 79 80  1  0
 80 81  2  0
 82 81  1  0
 82 86  1  0
 83 82  2  0
 84 79  2  0
 84 83  1  0
 85 84  1  0
 87 88  1  0
 88 91  1  0
 88 90  1  0
 89 87  2  0
 92 67  1  0
 92 93  1  0
 94 92  1  0
 95 53  1  0
 96 95  1  0
 97 98  1  0
 98 96  1  0
100 99  1  0
101102  1  0
102100  1  0
M  ISO  4   9 101  10 101  57 100  65 100
M  END
>  <TORSDO>  (71) 
F 32

>  <SCORE>  (71) 
-9.081

>  <name>  (71) 
74

>  <ligand_id>  (71) 
74

>  <original_smiles>  (71) 
[H]c1c([H])c([H])c2c(c1[H])C([H])([H])C([H])([H])C([H])([H])C2([H])N([H])C(=O)C1([H])N(C(=O)C([H])(N([H])C(=O)C([H])(N([H])C([H])([H])[H])C([H])([H])[H])C(C([H])([H])[H])(C([H])([H])[H])C([H])([H])[H])C([H])([H])c2c([H])c(OC([H])([H])C([H])([H])OC([H])([H])C([H])([H])[N+]([H])([H])C([H])(C(=O)N=C(C([H])([H])OC([H])([H])C([H])([H])[H])C([H])([H])C([H])([H])N([H])C(=O)N3C([H])([H])C([H])([H])C([H])([H])C([H])(n4nc(-c5c([H])c([H])c(Oc6c([H])c([H])c(F)c([H])c6F)c([H])c5[H])c(C(=O)N([H])[H])c4N([H])[H])C3([H])[H])C([H])([H])OC([H])([H])C([H])([H])[H])c([H])c([H])c2C1([H])[H]

>  <smiles>  (71) 
[H]c1c([H])c([H])c2c(c1[H])C([H])([H])C([H])([H])C([H])([H])C2([H])N([H])C(=O)C1([H])N(C(=O)C([H])(N([H])C(=O)C([H])(N([H])C([H])([H])[H])C([H])([H])[H])C(C([H])([H])[H])(C([H])([H])[H])C([H])([H])[H])C([H])([H])c2c([H])c(OC([H])([H])C([H])([H])OC([H])([H])C([H])([H])[N+]([H])([H])C([H])(C(=O)N=C(C([H])([H])OC([H])([H])C([H])([H])[H])C([H])([H])C([H])([H])N([H])C(=O)N3C([H])([H])C([H])([H])C([H])([H])C([H])(n4nc(-c5c([H])c([H])c(Oc6c([H])c([H])c(F)c([H])c6F)c([H])c5[H])c(C(=O)N([H])[H])c4N([H])[H])C3([H])[H])C([H])([H])OC([H])([H])C([H])([H])[H])c([H])c([H])c2C1([H])[H]

$$$$
75:0:0
     RDKit          3D

114114  0  0  1  0  0  0  0  0999 V2000
  -21.9240  -23.7800   21.7300 C   0  0  0  0  0  3  0  0  0  0  0  0
  -23.2540  -22.9000   21.4220 C   0  0  0  0  0  0  0  0  0  0  0  0
  -24.4170  -23.5610   20.9150 N   0  0  0  0  0  0  0  0  0  0  0  0
  -23.2320  -21.7090   21.7240 O   0  0  0  0  0  0  0  0  0  0  0  0
  -24.1660  -24.5240   20.7350 H   0  0  0  0  0  0  0  0  0  0  0  0
  -25.9450  -23.3950   20.6570 C   0  0  0  0  0  3  0  0  0  0  0  0
  -26.1960  -22.0020   19.9650 C   0  0  0  0  0  0  0  0  0  0  0  0
  -25.1870  -21.1050   20.0050 N   0  0  0  0  0  0  0  0  0  0  0  0
  -27.2720  -21.7470   19.4260 O   0  0  0  0  0  0  0  0  0  0  0  0
  -24.4310  -21.4270   20.6080 H   0  0  0  0  0  0  0  0  0  0  0  0
  -24.7120  -18.7440   20.5800 C   0  0  0  0  0  1  0  0  0  0  0  0
  -23.5390  -19.8940   18.7240 C   0  0  0  0  0  1  0  0  0  0  0  0
  -25.9810  -19.2260   18.4940 C   0  0  0  0  0  1  0  0  0  0  0  0
  -24.8980  -19.7700   19.4420 C   0  0  1  0  0  0  0  0  0  0  0  0
  -26.9640  -24.6080   19.9810 C   0  0  0  0  0  2  0  0  0  0  0  0
  -27.6250  -25.9790   20.3770 O   0  0  0  0  0  0  0  0  0  0  0  0
  -24.6230  -31.8600   23.1900 C   0  0  0  0  0  0  0  0  0  0  0  0
  -26.9860  -27.1930   20.0810 C   0  0  0  0  0  0  0  0  0  0  0  0
  -23.4270  -30.5320   21.4790 C   0  0  0  0  0  3  0  0  0  0  0  0
  -24.9160  -29.1240   19.9310 C   0  0  0  0  0  0  0  0  0  0  0  0
  -26.0070  -30.7460   21.4320 C   0  0  0  0  0  2  0  0  0  0  0  0
  -26.0540  -29.4200   20.6890 C   0  0  0  0  0  0  0  0  0  0  0  0
  -27.1170  -28.4540   20.7700 C   0  0  0  0  0  3  0  0  0  0  0  0
  -25.9520  -27.0860   19.1440 C   0  0  0  0  0  3  0  0  0  0  0  0
  -24.9260  -28.0190   19.0940 C   0  0  0  0  0  3  0  0  0  0  0  0
  -23.6760  -29.9790   20.0510 C   0  0  0  0  0  2  0  0  0  0  0  0
  -24.7000  -31.0680   22.0830 N   0  0  0  0  0  0  0  0  0  0  0  0
  -23.5330  -32.1570   23.7040 O   0  0  0  0  0  0  0  0  0  0  0  0
  -22.8070  -29.4060   22.3280 C   0  0  0  0  0  0  0  0  0  0  0  0
  -21.5160  -29.0090   22.0740 N   0  0  0  0  0  0  0  0  0  0  0  0
  -23.5290  -28.8630   23.1610 O   0  0  0  0  0  0  0  0  0  0  0  0
  -20.9740  -29.6060   21.4650 H   0  0  0  0  0  0  0  0  0  0  0  0
  -18.5600  -28.3170   22.4200 C   0  0  0  0  0  0  0  0  0  0  0  0
  -20.7860  -27.7370   22.5300 C   0  0  0  0  0  3  0  0  0  0  0  0
  -20.5220  -27.0000   21.2380 C   0  0  0  0  0  3  0  0  0  0  0  0
  -19.1700  -26.7420   20.6710 C   0  0  0  0  0  3  0  0  0  0  0  0
  -18.0500  -27.2830   21.4510 C   0  0  0  0  0  2  0  0  0  0  0  0
  -19.4960  -27.6150   23.5060 C   0  0  0  0  0  0  0  0  0  0  0  0
  -19.2210  -28.0990   25.2670 C   0  0  0  0  0  3  0  0  0  0  0  0
  -18.0960  -29.4170   25.4540 C   0  0  0  0  0  3  0  0  0  0  0  0
  -17.3480  -30.0230   24.1840 C   0  0  0  0  0  3  0  0  0  0  0  0
  -17.5770  -29.4820   22.7580 C   0  0  0  0  0  3  0  0  0  0  0  0
  -25.9080  -32.4690   23.8370 C   0  0  0  0  0  3  0  0  0  0  0  0
  -26.4450  -31.6590   25.0790 C   0  0  1  0  0  0  0  0  0  0  0  0
  -25.3670  -31.3890   26.1530 C   0  0  0  0  0  1  0  0  0  0  0  0
  -27.0260  -30.2910   24.6480 C   0  0  0  0  0  1  0  0  0  0  0  0
  -27.6020  -32.4340   25.7510 C   0  0  0  0  0  1  0  0  0  0  0  0
  -25.5880  -33.8520   24.2230 N   0  0  0  0  0  0  0  0  0  0  0  0
  -25.9070  -34.9380   23.5080 C   0  0  0  0  0  0  0  0  0  0  0  0
  -26.5630  -34.8830   22.4630 O   0  0  0  0  0  0  0  0  0  0  0  0
  -25.0000  -33.9710   25.0360 H   0  0  0  0  0  0  0  0  0  0  0  0
  -24.1510  -36.7320   23.2620 C   0  0  0  0  0  1  0  0  0  0  0  0
  -25.4130  -36.3060   24.0300 C   0  0  0  0  0  3  0  0  0  0  0  0
  -27.5600  -37.1800   24.8430 C   0  0  0  0  0  1  0  0  0  0  0  0
  -26.4340  -37.3720   23.9340 N   0  0  0  0  0  0  0  0  0  0  0  0
  -26.0230  -38.2800   24.1310 H   0  0  0  0  0  0  0  0  0  0  0  0
  -20.7350  -23.4780   22.7290 N   0  0  0  0  0  4  0  0  0  0  0  0
  -20.2960  -22.6290   22.4020 H   0  0  0  0  0  0  0  0  0  0  0  0
  -21.1300  -23.2790   23.6340 H   0  0  0  0  0  0  0  0  0  0  0  0
  -19.6310  -24.5920   22.8840 C   0  0  0  0  0  2  0  0  0  0  0  0
  -18.4110  -24.8220   23.9590 C   0  0  0  0  0  2  0  0  0  0  0  0
  -17.6770  -26.0810   24.5270 O   0  0  0  0  0  0  0  0  0  0  0  0
  -17.3170  -27.5880   24.2150 C   0  0  0  0  0  1  0  0  0  0  0  0
  -19.8370  -29.7620   23.9580 C   0  0  0  0  0 15  0  0  0  0  0  0
  -21.4160  -28.8640   24.6230 O   0  0  0  0  0 15  0  0  0  0  0  0
  -22.2150  -27.1980   24.9330 C   0  0  0  0  0 15  0  0  0  0  0  0
  -23.7430  -25.8460   24.9660 C   0  0  0  0  0 15  0  0  0  0  0  0
  -25.0010  -24.3520   24.3280 C   0  0  0  0  0  1  0  0  0  0  0  0
  -25.3420  -22.6730   23.7380 O   0  0  0  0  0  0  0  0  0  0  0  0
  -26.6510  -21.4300   23.4710 C   0  0  0  0  0  1  0  0  0  0  0  0
  -27.1170  -19.6960   22.5710 C   0  0  0  0  0 15  0  0  0  0  0  0
  -28.5160  -18.2830   22.2930 C   0  0  0  0  0  1  0  0  0  0  0  0
  -29.8600  -15.5880   20.9580 C   0  0  0  0  0  0  0  0  0  0  0  0
  -30.3580  -13.2000   19.7390 C   0  0  0  0  0  2  0  0  0  0  0  0
  -29.5730  -12.7750   18.4460 C   0  0  0  0  0  2  0  0  0  0  0  0
  -28.1340  -12.3490   18.7750 C   0  0  0  0  0  2  0  0  0  0  0  0
  -27.5500  -13.2900   19.8510 C   0  0  0  0  0  3  0  0  0  0  0  0
  -28.4480  -13.4610   21.0970 C   0  0  0  0  0  2  0  0  0  0  0  0
  -29.6070  -14.1940   20.6550 N   0  0  0  0  0  0  0  0  0  0  0  0
  -31.0410  -15.8040   20.5680 O   0  0  0  0  0  0  0  0  0  0  0  0
  -28.8290  -16.6440   21.5690 N   0  0  0  0  0  0  0  0  0  0  0  0
  -27.9920  -16.1100   21.8050 H   0  0  0  0  0  0  0  0  0  0  0  0
  -25.2050  -13.8240   20.5670 C   0  0  0  0  0  0  0  0  0  0  0  0
  -24.1490  -13.0410   20.9240 C   0  0  0  0  0  0  0  0  0  0  0  0
  -24.6200  -11.6920   20.8740 C   0  0  0  0  0  0  0  0  0  0  0  0
  -26.2250  -12.9430   20.2820 N   0  0  0  0  0  0  0  0  0  0  0  0
  -25.9040  -11.6560   20.5510 N   0  0  0  0  0  0  0  0  0  0  0  0
  -23.8980  -10.4270   21.0410 C   0  0  0  0  0  0  0  0  0  0  0  0
  -24.3620   -9.4190   21.9130 C   0  0  0  0  0  3  0  0  0  0  0  0
  -23.6300   -8.2230   22.0730 C   0  0  0  0  0  3  0  0  0  0  0  0
  -22.4250   -8.0280   21.3570 C   0  0  0  0  0  0  0  0  0  0  0  0
  -21.9880   -9.0230   20.4640 C   0  0  0  0  0  3  0  0  0  0  0  0
  -22.7200  -10.2100   20.3030 C   0  0  0  0  0  3  0  0  0  0  0  0
  -21.6640   -6.8870   21.4250 O   0  0  0  0  0  0  0  0  0  0  0  0
  -21.6840   -6.0760   22.5300 C   0  0  0  0  0  0  0  0  0  0  0  0
  -21.4000   -6.5650   23.8240 C   0  0  0  0  0  3  0  0  0  0  0  0
  -21.3640   -5.6790   24.9180 C   0  0  0  0  0  3  0  0  0  0  0  0
  -21.6040   -4.3060   24.7220 C   0  0  0  0  0  0  0  0  0  0  0  0
  -21.8830   -3.8160   23.4340 C   0  0  0  0  0  3  0  0  0  0  0  0
  -21.9210   -4.6990   22.3410 C   0  0  0  0  0  0  0  0  0  0  0  0
  -22.1680   -4.2180   21.0980 F   0  0  0  0  0  0  0  0  0  0  0  0
  -21.5640   -3.4520   25.7730 F   0  0  0  0  0  0  0  0  0  0  0  0
  -22.7550  -13.5180   21.1940 C   0  0  0  0  0  0  0  0  0  0  0  0
  -22.0230  -12.8180   22.0520 N   0  0  0  0  0  0  0  0  0  0  0  0
  -22.3240  -14.5470   20.6770 O   0  0  0  0  0  0  0  0  0  0  0  0
  -22.3980  -11.9900   22.4920 H   0  0  0  0  0  0  0  0  0  0  0  0
  -21.0860  -13.1180   22.2780 H   0  0  0  0  0  0  0  0  0  0  0  0
  -25.3850  -15.1980   20.4430 N   0  0  0  0  0  0  0  0  0  0  0  0
  -24.6130  -15.8420   20.5820 H   0  0  0  0  0  0  0  0  0  0  0  0
  -26.2060  -15.6370   20.0550 H   0  0  0  0  0  0  0  0  0  0  0  0
  -22.6270  -25.0190   22.2310 C   0  0  0  0  0  2  0  0  0  0  0  0
  -23.0500  -25.7550   19.7030 C   0  0  0  0  0  1  0  0  0  0  0  0
  -24.6210  -26.4090   21.8050 C   0  0  0  0  0  1  0  0  0  0  0  0
  -23.2740  -26.0180   21.2310 C   0  0  0  0  0  3  0  0  0  0  0  0
  1111  1  0
  1 57  1  0
  2  4  2  0
  2  1  1  0
  3  2  1  0
  5  3  1  0
  6 15  1  0
  6  3  1  0
  7  8  1  0
  7  6  1  0
  8 10  1  0
  9  7  2  0
 14 12  1  6
 13 14  1  0
 14  8  1  0
 14 11  1  0
 15 16  1  0
 17 28  2  0
 18 16  1  0
 18 23  1  0
 19 27  1  0
 19 29  1  0
 20 26  1  0
 20 22  1  0
 21 27  1  0
 22 23  2  0
 22 21  1  0
 24 18  2  0
 25 24  1  0
 25 20  2  0
 26 19  1  0
 27 17  1  0
 29 31  2  0
 30 29  1  0
 32 30  1  0
 33 42  2  0
 33 38  1  0
 34 30  1  0
 34 38  1  0
 35 34  1  0
 36 35  2  0
 36 37  1  0
 37 33  1  0
 38 39  2  0
 39 40  1  0
 41 40  2  0
 42 41  1  0
 43 17  1  0
 43 48  1  0
 43 44  1  0
 44 47  1  1
 44 45  1  0
 46 44  1  0
 48 51  1  0
 49 53  1  0
 49 48  1  0
 50 49  2  0
 53 52  1  0
 55 53  1  0
 55 56  1  0
 55 54  1  0
 57 60  1  0
 57 59  1  0
 58 57  1  0
 60 61  1  0
 61 62  1  0
 63 62  1  0
 69 68  1  0
 70 69  1  0
 73 81  1  0
 74 79  1  0
 75 76  1  0
 75 74  1  0
 77 76  1  0
 77 86  1  0
 77 78  1  0
 79 73  1  0
 79 78  1  0
 80 73  2  0
 81 82  1  0
 81 72  1  0
 83 84  2  0
 84103  1  0
 85 84  1  0
 85 88  1  0
 86 87  1  0
 86 83  1  0
 87 85  2  0
 88 89  1  0
 89 90  2  0
 91 94  1  0
 91 90  1  0
 92 91  2  0
 93 92  1  0
 93 88  2  0
 94 95  1  0
 95 96  1  0
 96 97  2  0
 98 97  1  0
 98102  1  0
 99 98  2  0
100 95  2  0
100 99  1  0
101100  1  0
103104  1  0
104107  1  0
104106  1  0
105103  2  0
108 83  1  0
108109  1  0
110108  1  0
112114  1  0
114113  1  0
114111  1  0
M  ISO  4  15 101  16 101  73 100  81 100
M  END
>  <TORSDO>  (72) 
F 37

>  <SCORE>  (72) 
36.165

>  <name>  (72) 
75

>  <ligand_id>  (72) 
75

>  <original_smiles>  (72) 
[H]c1c([H])c([H])c2c(c1[H])C([H])([H])C([H])([H])C([H])([H])C2([H])N([H])C(=O)C1([H])N(C(=O)C([H])(N([H])C(=O)C([H])(N([H])C([H])([H])[H])C([H])([H])[H])C(C([H])([H])[H])(C([H])([H])[H])C([H])([H])[H])C([H])([H])c2c([H])c(OC([H])([H])C([H])(C(=O)N([H])C(C([H])([H])[H])(C([H])([H])[H])C([H])([H])[H])N([H])C(=O)C([H])(C([H])([H])C([H])(C([H])([H])[H])C([H])([H])[H])[N+]([H])([H])C([H])([H])C([H])([H])OC([H])([H])C([H])([H])OC([H])([H])C([H])([H])C([H])([H])OC([H])([H])C([H])([H])C([H])([H])N([H])C(=O)N3C([H])([H])C([H])([H])C([H])([H])C([H])(n4nc(-c5c([H])c([H])c(Oc6c([H])c([H])c(F)c([H])c6F)c([H])c5[H])c(C(=O)N([H])[H])c4N([H])[H])C3([H])[H])c([H])c([H])c2C1([H])[H]

>  <smiles>  (72) 
[H]c1c([H])c([H])c2c(c1[H])C([H])([H])C([H])([H])C([H])([H])C2([H])N([H])C(=O)C1([H])N(C(=O)C([H])(N([H])C(=O)C([H])(N([H])C([H])([H])[H])C([H])([H])[H])C(C([H])([H])[H])(C([H])([H])[H])C([H])([H])[H])C([H])([H])c2c([H])c(OC([H])([H])C([H])(C(=O)N([H])C(C([H])([H])[H])(C([H])([H])[H])C([H])([H])[H])N([H])C(=O)C([H])(C([H])([H])C([H])(C([H])([H])[H])C([H])([H])[H])[N+]([H])([H])C([H])([H])C([H])([H])OC([H])([H])C([H])([H])OC([H])([H])C([H])([H])C([H])([H])OC([H])([H])C([H])([H])C([H])([H])N([H])C(=O)N3C([H])([H])C([H])([H])C([H])([H])C([H])(n4nc(-c5c([H])c([H])c(Oc6c([H])c([H])c(F)c([H])c6F)c([H])c5[H])c(C(=O)N([H])[H])c4N([H])[H])C3([H])[H])c([H])c([H])c2C1([H])[H]

$$$$
76:0:0
     RDKit          3D

 94101  0  0  1  0  0  0  0  0999 V2000
  -28.3060  -23.7550   22.9330 N   0  0  0  0  0  4  0  0  0  0  0  0
  -27.9920  -22.8080   22.7960 H   0  0  0  0  0  0  0  0  0  0  0  0
  -27.9400  -24.0620   23.8230 H   0  0  0  0  0  0  0  0  0  0  0  0
  -29.7840  -23.7470   23.0040 C   0  0  0  0  0  2  0  0  0  0  0  0
  -30.3080  -22.3580   23.3840 C   0  0  0  0  0  2  0  0  0  0  0  0
  -30.0970  -21.5170   22.2540 O   0  0  0  0  0  0  0  0  0  0  0  0
  -30.8160  -20.2900   22.3200 C   0  0  0  0  0  2  0  0  0  0  0  0
  -30.3870  -19.3820   21.1450 C   0  0  0  0  0  2  0  0  0  0  0  0
  -30.5420  -17.9830   21.4060 O   0  0  0  0  0  0  0  0  0  0  0  0
  -31.8330  -17.4400   21.1280 C   0  0  0  0  0  2  0  0  0  0  0  0
  -31.8530  -16.5520   19.8690 C   0  0  0  0  0  2  0  0  0  0  0  0
  -31.6140  -14.1360   19.3890 C   0  0  0  0  0  0  0  0  0  0  0  0
  -31.1870  -11.7520   18.9260 C   0  0  0  0  0  2  0  0  0  0  0  0
  -30.1690  -11.5880   17.7820 C   0  0  0  0  0  2  0  0  0  0  0  0
  -28.7250  -11.6320   18.3150 C   0  0  0  0  0  2  0  0  0  0  0  0
  -28.4750  -12.8300   19.2700 C   0  0  0  0  0  3  0  0  0  0  0  0
  -29.5960  -12.9430   20.3290 C   0  0  0  0  0  2  0  0  0  0  0  0
  -30.8950  -13.0110   19.6320 N   0  0  0  0  0  0  0  0  0  0  0  0
  -32.5570  -14.1710   18.5950 O   0  0  0  0  0  0  0  0  0  0  0  0
  -31.2610  -15.2280   20.0840 N   0  0  0  0  0  0  0  0  0  0  0  0
  -30.5340  -15.1390   20.7780 H   0  0  0  0  0  0  0  0  0  0  0  0
  -26.3140  -13.7780   20.3040 C   0  0  0  0  0  0  0  0  0  0  0  0
  -25.1730  -13.1720   20.7550 C   0  0  0  0  0  0  0  0  0  0  0  0
  -25.3750  -11.7690   20.5810 C   0  0  0  0  0  0  0  0  0  0  0  0
  -27.1530  -12.7540   19.8900 N   0  0  0  0  0  0  0  0  0  0  0  0
  -26.5940  -11.5350   20.1070 N   0  0  0  0  0  0  0  0  0  0  0  0
  -24.4610  -10.6390   20.7850 C   0  0  0  0  0  0  0  0  0  0  0  0
  -24.7970   -9.5650   21.6380 C   0  0  0  0  0  3  0  0  0  0  0  0
  -23.8980   -8.4960   21.8320 C   0  0  0  0  0  3  0  0  0  0  0  0
  -22.6430   -8.4950   21.1760 C   0  0  0  0  0  0  0  0  0  0  0  0
  -22.3220   -9.5560   20.3100 C   0  0  0  0  0  3  0  0  0  0  0  0
  -23.2210  -10.6170   20.1130 C   0  0  0  0  0  3  0  0  0  0  0  0
  -21.7170   -7.4850   21.2840 O   0  0  0  0  0  0  0  0  0  0  0  0
  -21.5670   -6.7610   22.4400 C   0  0  0  0  0  0  0  0  0  0  0  0
  -21.2680   -7.3810   23.6730 C   0  0  0  0  0  3  0  0  0  0  0  0
  -21.0550   -6.5950   24.8230 C   0  0  0  0  0  3  0  0  0  0  0  0
  -21.1320   -5.1920   24.7410 C   0  0  0  0  0  0  0  0  0  0  0  0
  -21.4200   -4.5730   23.5130 C   0  0  0  0  0  3  0  0  0  0  0  0
  -21.6360   -5.3560   22.3650 C   0  0  0  0  0  0  0  0  0  0  0  0
  -21.8950   -4.7520   21.1800 F   0  0  0  0  0  0  0  0  0  0  0  0
  -20.9190   -4.4370   25.8430 F   0  0  0  0  0  0  0  0  0  0  0  0
  -23.9250  -13.8570   21.2370 C   0  0  0  0  0  0  0  0  0  0  0  0
  -23.2060  -13.2400   22.1690 N   0  0  0  0  0  0  0  0  0  0  0  0
  -23.6040  -14.9690   20.8200 O   0  0  0  0  0  0  0  0  0  0  0  0
  -23.4790  -12.3390   22.5350 H   0  0  0  0  0  0  0  0  0  0  0  0
  -22.3690  -13.6770   22.5250 H   0  0  0  0  0  0  0  0  0  0  0  0
  -26.7060  -15.1090   20.1920 N   0  0  0  0  0  0  0  0  0  0  0  0
  -26.1030  -15.8840   20.4430 H   0  0  0  0  0  0  0  0  0  0  0  0
  -27.5990  -15.4080   19.8200 H   0  0  0  0  0  0  0  0  0  0  0  0
  -27.7450  -24.6100   21.8640 C   0  0  0  0  0  2  0  0  0  0  0  0
  -27.8440  -23.9510   20.4680 C   0  0  0  0  0  2  0  0  0  0  0  0
  -28.9200  -24.5560   19.5430 C   0  0  0  0  0  2  0  0  0  0  0  0
  -28.5070  -25.8420   18.8130 C   0  0  0  0  0  2  0  0  0  0  0  0
  -28.2890  -26.8780   19.7640 O   0  0  0  0  0  0  0  0  0  0  0  0
  -24.5540  -31.7940   23.2390 C   0  0  0  0  0  0  0  0  0  0  0  0
  -27.0680  -27.5070   19.8560 C   0  0  0  0  0  0  0  0  0  0  0  0
  -23.2690  -30.4390   21.6140 C   0  0  0  0  0  3  0  0  0  0  0  0
  -24.6510  -28.9550   20.0750 C   0  0  0  0  0  0  0  0  0  0  0  0
  -25.7760  -30.8240   21.2990 C   0  0  0  0  0  2  0  0  0  0  0  0
  -25.8320  -29.4780   20.6120 C   0  0  0  0  0  0  0  0  0  0  0  0
  -27.0370  -28.7570   20.5070 C   0  0  0  0  0  3  0  0  0  0  0  0
  -25.8590  -26.9700   19.3510 C   0  0  0  0  0  3  0  0  0  0  0  0
  -24.6550  -27.6940   19.4520 C   0  0  0  0  0  3  0  0  0  0  0  0
  -23.4080  -29.8030   20.2060 C   0  0  0  0  0  2  0  0  0  0  0  0
  -24.5540  -31.0330   22.1070 N   0  0  0  0  0  0  0  0  0  0  0  0
  -23.5030  -32.0430   23.8430 O   0  0  0  0  0  0  0  0  0  0  0  0
  -22.6750  -29.3860   22.5740 C   0  0  0  0  0  0  0  0  0  0  0  0
  -21.3680  -29.1130   22.4280 N   0  0  0  0  0  0  0  0  0  0  0  0
  -23.3850  -28.8120   23.4040 O   0  0  0  0  0  0  0  0  0  0  0  0
  -20.8490  -29.6390   21.7380 H   0  0  0  0  0  0  0  0  0  0  0  0
  -18.1050  -27.6040   22.7770 C   0  0  0  0  0  0  0  0  0  0  0  0
  -20.6020  -28.1260   23.1900 C   0  0  0  0  0  3  0  0  0  0  0  0
  -20.8800  -26.6910   22.6860 C   0  0  0  0  0  2  0  0  0  0  0  0
  -19.8810  -26.2200   21.6240 C   0  0  0  0  0  2  0  0  0  0  0  0
  -18.4550  -26.2540   22.1780 C   0  0  0  0  0  2  0  0  0  0  0  0
  -19.1140  -28.4900   23.2400 C   0  0  0  0  0  0  0  0  0  0  0  0
  -18.7380  -29.7500   23.7540 C   0  0  0  0  0  3  0  0  0  0  0  0
  -17.3820  -30.1240   23.8190 C   0  0  0  0  0  3  0  0  0  0  0  0
  -16.3860  -29.2350   23.3780 C   0  0  0  0  0  3  0  0  0  0  0  0
  -16.7490  -27.9800   22.8600 C   0  0  0  0  0  3  0  0  0  0  0  0
  -25.8700  -32.4070   23.8140 C   0  0  0  0  0  3  0  0  0  0  0  0
  -26.4310  -31.6190   25.0600 C   0  0  1  0  0  0  0  0  0  0  0  0
  -25.3800  -31.3760   26.1670 C   0  0  0  0  0  1  0  0  0  0  0  0
  -26.9890  -30.2410   24.6290 C   0  0  0  0  0  1  0  0  0  0  0  0
  -27.6120  -32.3970   25.6850 C   0  0  0  0  0  1  0  0  0  0  0  0
  -25.5890  -33.8050   24.1630 N   0  0  0  0  0  0  0  0  0  0  0  0
  -25.9110  -34.8590   23.4010 C   0  0  0  0  0  0  0  0  0  0  0  0
  -26.5490  -34.7580   22.3490 O   0  0  0  0  0  0  0  0  0  0  0  0
  -25.0130  -33.9590   24.9780 H   0  0  0  0  0  0  0  0  0  0  0  0
  -24.1900  -36.6710   23.1150 C   0  0  0  0  0  1  0  0  0  0  0  0
  -25.4530  -36.2490   23.8830 C   0  0  0  0  0  3  0  0  0  0  0  0
  -27.6210  -37.1090   24.6500 C   0  0  0  0  0  1  0  0  0  0  0  0
  -26.4900  -37.2920   23.7440 N   0  0  0  0  0  0  0  0  0  0  0  0
  -26.0970  -38.2140   23.9100 H   0  0  0  0  0  0  0  0  0  0  0  0
  1  4  1  0
  1  3  1  0
  2  1  1  0
  4  5  1  0
  6  7  1  0
  6  5  1  0
  8  9  1  0
  8  7  1  0
 10  9  1  0
 11 20  1  0
 11 10  1  0
 12 18  1  0
 12 20  1  0
 13 18  1  0
 14 15  1  0
 14 13  1  0
 16 15  1  0
 16 25  1  0
 16 17  1  0
 18 17  1  0
 19 12  2  0
 20 21  1  0
 22 23  2  0
 23 42  1  0
 24 23  1  0
 24 27  1  0
 25 26  1  0
 25 22  1  0
 26 24  2  0
 27 28  1  0
 28 29  2  0
 30 33  1  0
 30 29  1  0
 31 30  2  0
 32 31  1  0
 32 27  2  0
 33 34  1  0
 34 35  1  0
 35 36  2  0
 37 36  1  0
 37 41  1  0
 38 37  2  0
 39 34  2  0
 39 38  1  0
 40 39  1  0
 42 43  1  0
 43 46  1  0
 43 45  1  0
 44 42  2  0
 47 22  1  0
 47 48  1  0
 49 47  1  0
 50  1  1  0
 51 50  1  0
 52 51  1  0
 53 52  1  0
 53 54  1  0
 54 56  1  0
 55 66  2  0
 56 61  1  0
 57 65  1  0
 57 67  1  0
 58 64  1  0
 58 60  1  0
 59 65  1  0
 60 59  1  0
 61 60  2  0
 62 63  1  0
 62 56  2  0
 63 58  2  0
 64 57  1  0
 65 55  1  0
 67 69  2  0
 68 67  1  0
 70 68  1  0
 71 80  2  0
 71 76  1  0
 72 68  1  0
 72 76  1  0
 73 72  1  0
 74 75  1  0
 74 73  1  0
 75 71  1  0
 76 77  2  0
 77 78  1  0
 79 78  2  0
 80 79  1  0
 81 55  1  0
 81 86  1  0
 81 82  1  0
 82 85  1  1
 82 83  1  0
 84 82  1  0
 86 89  1  0
 87 91  1  0
 87 86  1  0
 88 87  2  0
 91 90  1  0
 93 91  1  0
 93 94  1  0
 93 92  1  0
M  ISO  4  12 100  20 100  53 101  54 101
M  END
>  <TORSDO>  (73) 
F 28

>  <SCORE>  (73) 
-10.257

>  <name>  (73) 
76

>  <ligand_id>  (73) 
76

>  <original_smiles>  (73) 
[H]c1c([H])c([H])c2c(c1[H])C([H])([H])C([H])([H])C([H])([H])C2([H])N([H])C(=O)C1([H])N(C(=O)C([H])(N([H])C(=O)C([H])(N([H])C([H])([H])[H])C([H])([H])[H])C(C([H])([H])[H])(C([H])([H])[H])C([H])([H])[H])C([H])([H])c2c([H])c(OC([H])([H])C([H])([H])C([H])([H])C([H])([H])[N+]([H])([H])C([H])([H])C([H])([H])OC([H])([H])C([H])([H])OC([H])([H])C([H])([H])N([H])C(=O)N3C([H])([H])C([H])([H])C([H])([H])C([H])(n4nc(-c5c([H])c([H])c(Oc6c([H])c([H])c(F)c([H])c6F)c([H])c5[H])c(C(=O)N([H])[H])c4N([H])[H])C3([H])[H])c([H])c([H])c2C1([H])[H]

>  <smiles>  (73) 
[H]c1c([H])c([H])c2c(c1[H])C([H])([H])C([H])([H])C([H])([H])C2([H])N([H])C(=O)C1([H])N(C(=O)C([H])(N([H])C(=O)C([H])(N([H])C([H])([H])[H])C([H])([H])[H])C(C([H])([H])[H])(C([H])([H])[H])C([H])([H])[H])C([H])([H])c2c([H])c(OC([H])([H])C([H])([H])C([H])([H])C([H])([H])[N+]([H])([H])C([H])([H])C([H])([H])OC([H])([H])C([H])([H])OC([H])([H])C([H])([H])N([H])C(=O)N3C([H])([H])C([H])([H])C([H])([H])C([H])(n4nc(-c5c([H])c([H])c(Oc6c([H])c([H])c(F)c([H])c6F)c([H])c5[H])c(C(=O)N([H])[H])c4N([H])[H])C3([H])[H])c([H])c([H])c2C1([H])[H]

$$$$
77:0:0
     RDKit          3D

107114  0  0  1  0  0  0  0  0999 V2000
  -27.4220  -24.5300   26.6450 C   0  0  0  0  0  0  0  0  0  0  0  0
  -26.7010  -24.6460   27.7630 N   0  0  0  0  0  0  0  0  0  0  0  0
  -28.5830  -24.9310   26.5440 O   0  0  0  0  0  0  0  0  0  0  0  0
  -25.7520  -24.2970   27.7420 H   0  0  0  0  0  0  0  0  0  0  0  0
  -26.6640  -23.8830   25.5950 C   0  0  0  0  0  3  0  0  0  0  0  0
  -27.2980  -23.1550   24.6610 C   0  0  0  0  0  3  0  0  0  0  0  0
  -26.6640  -20.9450   23.6330 C   0  0  0  0  0  1  0  0  0  0  0  0
  -26.6150  -22.4700   23.4950 C   0  0  0  0  0  3  0  0  0  0  0  0
  -26.9070  -23.8430   21.4310 C   0  0  0  0  0  0  0  0  0  0  0  0
  -27.2940  -22.8810   22.2760 N   0  0  0  0  0  0  0  0  0  0  0  0
  -25.7730  -24.3230   21.4290 O   0  0  0  0  0  0  0  0  0  0  0  0
  -28.2480  -22.5700   22.1380 H   0  0  0  0  0  0  0  0  0  0  0  0
  -27.9960  -24.3600   20.4710 C   0  0  0  0  0  3  0  0  0  0  0  0
  -29.0380  -23.3930   20.3410 O   0  0  0  0  0  0  0  0  0  0  0  0
  -28.6520  -22.6320   19.9170 H   0  0  0  0  0  0  0  0  0  0  0  0
  -28.5720  -25.7200   20.9530 C   0  0  0  0  0  2  0  0  0  0  0  0
  -28.4150  -26.7710   20.0010 O   0  0  0  0  0  0  0  0  0  0  0  0
  -24.6110  -31.8700   23.2130 C   0  0  0  0  0  0  0  0  0  0  0  0
  -27.2370  -27.4680   20.0810 C   0  0  0  0  0  0  0  0  0  0  0  0
  -23.3970  -30.4960   21.5510 C   0  0  0  0  0  3  0  0  0  0  0  0
  -24.8450  -28.9600   20.1230 C   0  0  0  0  0  0  0  0  0  0  0  0
  -25.9250  -30.8410   21.3660 C   0  0  0  0  0  2  0  0  0  0  0  0
  -26.0030  -29.4770   20.7160 C   0  0  0  0  0  0  0  0  0  0  0  0
  -27.2040  -28.7370   20.6970 C   0  0  0  0  0  3  0  0  0  0  0  0
  -26.0650  -26.9560   19.4880 C   0  0  0  0  0  3  0  0  0  0  0  0
  -24.8670  -27.6920   19.5150 C   0  0  0  0  0  3  0  0  0  0  0  0
  -23.6060  -29.8250   20.1680 C   0  0  0  0  0  2  0  0  0  0  0  0
  -24.6620  -31.0840   22.1010 N   0  0  0  0  0  0  0  0  0  0  0  0
  -23.5320  -32.1440   23.7550 O   0  0  0  0  0  0  0  0  0  0  0  0
  -22.7380  -29.4690   22.4990 C   0  0  0  0  0  0  0  0  0  0  0  0
  -21.4100  -29.3050   22.3730 N   0  0  0  0  0  0  0  0  0  0  0  0
  -23.4160  -28.8230   23.3010 O   0  0  0  0  0  0  0  0  0  0  0  0
  -20.9270  -29.8810   21.6980 H   0  0  0  0  0  0  0  0  0  0  0  0
  -18.0260  -28.1370   22.8490 C   0  0  0  0  0  0  0  0  0  0  0  0
  -20.5850  -28.3660   23.1320 C   0  0  0  0  0  3  0  0  0  0  0  0
  -20.6760  -26.9400   22.5420 C   0  0  0  0  0  2  0  0  0  0  0  0
  -19.5740  -26.6380   21.5210 C   0  0  0  0  0  2  0  0  0  0  0  0
  -18.1920  -26.7920   22.1620 C   0  0  0  0  0  2  0  0  0  0  0  0
  -19.1510  -28.8830   23.2910 C   0  0  0  0  0  0  0  0  0  0  0  0
  -18.9440  -30.1440   23.8910 C   0  0  0  0  0  3  0  0  0  0  0  0
  -17.6450  -30.6580   24.0560 C   0  0  0  0  0  3  0  0  0  0  0  0
  -16.5340  -29.9080   23.6320 C   0  0  0  0  0  3  0  0  0  0  0  0
  -16.7260  -28.6500   23.0340 C   0  0  0  0  0  3  0  0  0  0  0  0
  -25.9040  -32.4810   23.8420 C   0  0  0  0  0  3  0  0  0  0  0  0
  -26.4490  -31.6570   25.0730 C   0  0  1  0  0  0  0  0  0  0  0  0
  -25.3770  -31.3660   26.1490 C   0  0  0  0  0  1  0  0  0  0  0  0
  -27.0330  -30.3010   24.6100 C   0  0  0  0  0  1  0  0  0  0  0  0
  -27.6070  -32.4290   25.7490 C   0  0  0  0  0  1  0  0  0  0  0  0
  -25.5920  -33.8610   24.2350 N   0  0  0  0  0  0  0  0  0  0  0  0
  -25.9040  -34.9460   23.5130 C   0  0  0  0  0  0  0  0  0  0  0  0
  -26.5580  -34.8900   22.4680 O   0  0  0  0  0  0  0  0  0  0  0  0
  -25.0080  -33.9780   25.0500 H   0  0  0  0  0  0  0  0  0  0  0  0
  -24.1500  -36.7320   23.2640 C   0  0  0  0  0  1  0  0  0  0  0  0
  -25.4110  -36.3090   24.0340 C   0  0  0  0  0  3  0  0  0  0  0  0
  -27.5580  -37.1800   24.8460 C   0  0  0  0  0  1  0  0  0  0  0  0
  -26.4280  -37.3780   23.9420 N   0  0  0  0  0  0  0  0  0  0  0  0
  -26.0170  -38.2860   24.1400 H   0  0  0  0  0  0  0  0  0  0  0  0
  -27.2040  -25.0990   29.0550 C   0  0  0  0  0  2  0  0  0  0  0  0
  -27.8260  -23.9290   29.8330 C   0  0  0  0  0  2  0  0  0  0  0  0
  -29.0480  -23.5360   29.2190 O   0  0  0  0  0  0  0  0  0  0  0  0
  -29.5240  -22.2680   29.6530 C   0  0  0  0  0  2  0  0  0  0  0  0
  -28.9150  -21.1370   28.8060 C   0  0  0  0  0  2  0  0  0  0  0  0
  -29.5250  -21.1330   27.5200 O   0  0  0  0  0  0  0  0  0  0  0  0
  -28.9900  -20.1320   26.6660 C   0  0  0  0  0  2  0  0  0  0  0  0
  -29.8890  -19.9630   25.4340 C   0  0  0  0  0  2  0  0  0  0  0  0
  -29.4960  -18.7730   24.7640 O   0  0  0  0  0  0  0  0  0  0  0  0
  -30.3360  -18.4180   23.6760 C   0  0  0  0  0  2  0  0  0  0  0  0
  -29.8600  -17.0500   23.1640 C   0  0  0  0  0  2  0  0  0  0  0  0
  -30.7330  -16.4730   22.0370 C   0  0  0  0  0  2  0  0  0  0  0  0
  -30.7480  -14.3710   20.6860 C   0  0  0  0  0  0  0  0  0  0  0  0
  -30.4200  -12.2930   19.3940 C   0  0  0  0  0  2  0  0  0  0  0  0
  -29.4880  -12.5310   18.1920 C   0  0  0  0  0  2  0  0  0  0  0  0
  -28.0100  -12.3850   18.6050 C   0  0  0  0  0  2  0  0  0  0  0  0
  -27.6650  -13.2010   19.8780 C   0  0  0  0  0  3  0  0  0  0  0  0
  -28.7000  -12.9310   20.9910 C   0  0  0  0  0  2  0  0  0  0  0  0
  -30.0440  -13.2320   20.4600 N   0  0  0  0  0  0  0  0  0  0  0  0
  -31.7820  -14.6730   20.0820 O   0  0  0  0  0  0  0  0  0  0  0  0
  -30.2310  -15.1620   21.6330 N   0  0  0  0  0  0  0  0  0  0  0  0
  -29.3990  -14.8190   22.0900 H   0  0  0  0  0  0  0  0  0  0  0  0
  -25.2580  -13.8160   20.5650 C   0  0  0  0  0  0  0  0  0  0  0  0
  -24.1830  -13.0430   20.9160 C   0  0  0  0  0  0  0  0  0  0  0  0
  -24.6390  -11.6900   20.8730 C   0  0  0  0  0  0  0  0  0  0  0  0
  -26.3020  -12.9310   20.3350 N   0  0  0  0  0  0  0  0  0  0  0  0
  -25.9310  -11.6470   20.5740 N   0  0  0  0  0  0  0  0  0  0  0  0
  -23.9080  -10.4290   21.0430 C   0  0  0  0  0  0  0  0  0  0  0  0
  -24.3640   -9.4200   21.9210 C   0  0  0  0  0  3  0  0  0  0  0  0
  -23.6310   -8.2230   22.0770 C   0  0  0  0  0  3  0  0  0  0  0  0
  -22.4280   -8.0290   21.3570 C   0  0  0  0  0  0  0  0  0  0  0  0
  -21.9930   -9.0260   20.4660 C   0  0  0  0  0  3  0  0  0  0  0  0
  -22.7270  -10.2140   20.3070 C   0  0  0  0  0  3  0  0  0  0  0  0
  -21.6640   -6.8890   21.4250 O   0  0  0  0  0  0  0  0  0  0  0  0
  -21.6840   -6.0740   22.5290 C   0  0  0  0  0  0  0  0  0  0  0  0
  -21.4010   -6.5650   23.8220 C   0  0  0  0  0  3  0  0  0  0  0  0
  -21.3660   -5.6800   24.9180 C   0  0  0  0  0  3  0  0  0  0  0  0
  -21.6050   -4.3070   24.7230 C   0  0  0  0  0  0  0  0  0  0  0  0
  -21.8820   -3.8160   23.4350 C   0  0  0  0  0  3  0  0  0  0  0  0
  -21.9190   -4.6970   22.3410 C   0  0  0  0  0  0  0  0  0  0  0  0
  -22.1660   -4.2160   21.0990 F   0  0  0  0  0  0  0  0  0  0  0  0
  -21.5630   -3.4560   25.7740 F   0  0  0  0  0  0  0  0  0  0  0  0
  -22.7850  -13.5220   21.1840 C   0  0  0  0  0  0  0  0  0  0  0  0
  -22.0500  -12.8200   22.0390 N   0  0  0  0  0  0  0  0  0  0  0  0
  -22.3520  -14.5540   20.6700 O   0  0  0  0  0  0  0  0  0  0  0  0
  -22.4120  -11.9870   22.4770 H   0  0  0  0  0  0  0  0  0  0  0  0
  -21.1110  -13.1190   22.2580 H   0  0  0  0  0  0  0  0  0  0  0  0
  -25.4330  -15.1870   20.4080 N   0  0  0  0  0  0  0  0  0  0  0  0
  -24.6710  -15.8500   20.5130 H   0  0  0  0  0  0  0  0  0  0  0  0
  -26.2980  -15.6250   20.1150 H   0  0  0  0  0  0  0  0  0  0  0  0
  1  2  1  0
  2 58  1  0
  3  1  2  0
  4  2  1  0
  5  1  1  0
  6  5  2  0
  8  7  1  0
  8  6  1  0
  9 10  1  0
 10  8  1  0
 11  9  2  0
 12 10  1  0
 13 16  1  0
 13  9  1  0
 14 13  1  0
 15 14  1  0
 17 19  1  0
 17 16  1  0
 18 29  2  0
 19 24  1  0
 20 28  1  0
 20 30  1  0
 21 27  1  0
 21 23  1  0
 22 28  1  0
 23 22  1  0
 24 23  2  0
 25 26  1  0
 25 19  2  0
 26 21  2  0
 27 20  1  0
 28 18  1  0
 30 32  2  0
 31 30  1  0
 33 31  1  0
 34 43  2  0
 34 39  1  0
 35 31  1  0
 35 39  1  0
 36 35  1  0
 37 38  1  0
 37 36  1  0
 38 34  1  0
 39 40  2  0
 40 41  1  0
 42 41  2  0
 43 42  1  0
 44 18  1  0
 44 49  1  0
 44 45  1  0
 45 48  1  1
 45 46  1  0
 47 45  1  0
 49 52  1  0
 50 54  1  0
 50 49  1  0
 51 50  2  0
 54 53  1  0
 56 54  1  0
 56 57  1  0
 56 55  1  0
 58 59  1  0
 60 61  1  0
 60 59  1  0
 62 61  1  0
 63 62  1  0
 64 63  1  0
 65 64  1  0
 66 65  1  0
 67 66  1  0
 68 67  1  0
 69 68  1  0
 70 78  1  0
 71 76  1  0
 72 73  1  0
 72 71  1  0
 74 73  1  0
 74 83  1  0
 74 75  1  0
 76 70  1  0
 76 75  1  0
 77 70  2  0
 78 69  1  0
 78 79  1  0
 80 81  2  0
 81100  1  0
 82 81  1  0
 82 85  1  0
 83 80  1  0
 83 84  1  0
 84 82  2  0
 85 86  1  0
 86 87  2  0
 88 91  1  0
 88 87  1  0
 89 88  2  0
 90 89  1  0
 90 85  2  0
 91 92  1  0
 92 93  1  0
 93 94  2  0
 95 94  1  0
 95 99  1  0
 96 95  2  0
 97 92  2  0
 97 96  1  0
 98 97  1  0
100101  1  0
101104  1  0
101103  1  0
102100  2  0
105106  1  0
105 80  1  0
107105  1  0
M  ISO  4  16 101  17 101  70 100  78 100
M  END
>  <TORSDO>  (74) 
F 34

>  <SCORE>  (74) 
52.149

>  <name>  (74) 
77

>  <ligand_id>  (74) 
77

>  <original_smiles>  (74) 
[H]OC([H])(C(=O)N([H])C([H])(C([H])=C([H])C(=O)N([H])C([H])([H])C([H])([H])OC([H])([H])C([H])([H])OC([H])([H])C([H])([H])OC([H])([H])C([H])([H])C([H])([H])N([H])C(=O)N1C([H])([H])C([H])([H])C([H])([H])C([H])(n2nc(-c3c([H])c([H])c(Oc4c([H])c([H])c(F)c([H])c4F)c([H])c3[H])c(C(=O)N([H])[H])c2N([H])[H])C1([H])[H])C([H])([H])[H])C([H])([H])Oc1c([H])c([H])c2c(c1[H])C([H])([H])N(C(=O)C([H])(N([H])C(=O)C([H])(N([H])C([H])([H])[H])C([H])([H])[H])C(C([H])([H])[H])(C([H])([H])[H])C([H])([H])[H])C([H])(C(=O)N([H])C1([H])c3c([H])c([H])c([H])c([H])c3C([H])([H])C([H])([H])C1([H])[H])C2([H])[H]

>  <smiles>  (74) 
[H]OC([H])(C(=O)N([H])C([H])(C([H])=C([H])C(=O)N([H])C([H])([H])C([H])([H])OC([H])([H])C([H])([H])OC([H])([H])C([H])([H])OC([H])([H])C([H])([H])C([H])([H])N([H])C(=O)N1C([H])([H])C([H])([H])C([H])([H])C([H])(n2nc(-c3c([H])c([H])c(Oc4c([H])c([H])c(F)c([H])c4F)c([H])c3[H])c(C(=O)N([H])[H])c2N([H])[H])C1([H])[H])C([H])([H])[H])C([H])([H])Oc1c([H])c([H])c2c(c1[H])C([H])([H])N(C(=O)C([H])(N([H])C(=O)C([H])(N([H])C([H])([H])[H])C([H])([H])[H])C(C([H])([H])[H])(C([H])([H])[H])C([H])([H])[H])C([H])(C(=O)N([H])C1([H])c3c([H])c([H])c([H])c([H])c3C([H])([H])C([H])([H])C1([H])[H])C2([H])[H]

$$$$
78:0:0
     RDKit          3D

115122  0  0  1  0  0  0  0  0999 V2000
  -29.7680  -18.1120   25.4750 C   0  0  0  0  0  3  0  0  0  0  0  0
  -30.8390  -16.7980   23.6460 C   0  0  0  0  0  0  0  0  0  0  0  0
  -29.7640  -17.2980   24.2580 N   0  0  0  0  0  0  0  0  0  0  0  0
  -31.9390  -16.7170   24.1970 O   0  0  0  0  0  0  0  0  0  0  0  0
  -28.9040  -17.3410   23.7250 H   0  0  0  0  0  0  0  0  0  0  0  0
  -30.5570  -16.4500   22.2660 C   0  0  0  0  0  3  0  0  0  0  0  0
  -31.5310  -15.9870   21.4570 C   0  0  0  0  0  3  0  0  0  0  0  0
  -31.3960  -15.6750   19.9730 C   0  0  0  0  0  3  0  0  0  0  0  0
  -30.9450  -13.4730   18.8740 C   0  0  0  0  0  0  0  0  0  0  0  0
  -30.0240  -11.5110   17.6960 C   0  0  0  0  0  2  0  0  0  0  0  0
  -28.9030  -11.9540   16.7350 C   0  0  0  0  0  2  0  0  0  0  0  0
  -27.5500  -12.0280   17.4680 C   0  0  0  0  0  2  0  0  0  0  0  0
  -27.6330  -12.8190   18.8010 C   0  0  0  0  0  3  0  0  0  0  0  0
  -28.8300  -12.3360   19.6470 C   0  0  0  0  0  2  0  0  0  0  0  0
  -30.0490  -12.4530   18.8250 N   0  0  0  0  0  0  0  0  0  0  0  0
  -31.9020  -13.5740   18.0980 O   0  0  0  0  0  0  0  0  0  0  0  0
  -30.6790  -14.4150   19.7880 N   0  0  0  0  0  0  0  0  0  0  0  0
  -29.8750  -14.2520   20.3740 H   0  0  0  0  0  0  0  0  0  0  0  0
  -25.5430  -13.7600   19.9750 C   0  0  0  0  0  0  0  0  0  0  0  0
  -24.4690  -13.1460   20.5590 C   0  0  0  0  0  0  0  0  0  0  0  0
  -24.7090  -11.7420   20.4500 C   0  0  0  0  0  0  0  0  0  0  0  0
  -26.3780  -12.7400   19.5470 N   0  0  0  0  0  0  0  0  0  0  0  0
  -25.8890  -11.5200   19.8840 N   0  0  0  0  0  0  0  0  0  0  0  0
  -23.8600  -10.5960   20.7980 C   0  0  0  0  0  0  0  0  0  0  0  0
  -24.3490   -9.5260   21.5790 C   0  0  0  0  0  3  0  0  0  0  0  0
  -23.5070   -8.4430   21.9170 C   0  0  0  0  0  3  0  0  0  0  0  0
  -22.1630   -8.4260   21.4760 C   0  0  0  0  0  0  0  0  0  0  0  0
  -21.6890   -9.4830   20.6800 C   0  0  0  0  0  3  0  0  0  0  0  0
  -22.5290  -10.5560   20.3410 C   0  0  0  0  0  3  0  0  0  0  0  0
  -21.2810   -7.4050   21.7330 O   0  0  0  0  0  0  0  0  0  0  0  0
  -21.4610   -6.5450   22.7870 C   0  0  0  0  0  0  0  0  0  0  0  0
  -21.4490   -6.9950   24.1250 C   0  0  0  0  0  3  0  0  0  0  0  0
  -21.5690   -6.0680   25.1810 C   0  0  0  0  0  3  0  0  0  0  0  0
  -21.6910   -4.6950   24.9010 C   0  0  0  0  0  0  0  0  0  0  0  0
  -21.6970   -4.2440   23.5700 C   0  0  0  0  0  3  0  0  0  0  0  0
  -21.5790   -5.1670   22.5160 C   0  0  0  0  0  0  0  0  0  0  0  0
  -21.5640   -4.7260   21.2340 F   0  0  0  0  0  0  0  0  0  0  0  0
  -21.7970   -3.8030   25.9140 F   0  0  0  0  0  0  0  0  0  0  0  0
  -23.2420  -13.8170   21.1100 C   0  0  0  0  0  0  0  0  0  0  0  0
  -22.6220  -13.2230   22.1230 N   0  0  0  0  0  0  0  0  0  0  0  0
  -22.8580  -14.9020   20.6750 O   0  0  0  0  0  0  0  0  0  0  0  0
  -22.9490  -12.3440   22.4930 H   0  0  0  0  0  0  0  0  0  0  0  0
  -21.8060  -13.6550   22.5350 H   0  0  0  0  0  0  0  0  0  0  0  0
  -25.8780  -15.0950   19.7650 N   0  0  0  0  0  0  0  0  0  0  0  0
  -25.3090  -15.8460   20.1390 H   0  0  0  0  0  0  0  0  0  0  0  0
  -26.7930  -15.3910   19.4560 H   0  0  0  0  0  0  0  0  0  0  0  0
  -30.7470  -16.8150   19.1570 C   0  0  0  0  0  2  0  0  0  0  0  0
  -31.4300  -17.1160   17.8090 C   0  0  0  0  0  2  0  0  0  0  0  0
  -31.1350  -18.5570   17.3440 C   0  0  0  0  0  2  0  0  0  0  0  0
  -32.2100  -19.1930   16.4400 C   0  0  0  0  0  2  0  0  0  0  0  0
  -32.1510  -18.7300   15.0420 N   0  0  0  0  0  4  0  0  0  0  0  0
  -32.3230  -17.7430   14.9710 H   0  0  0  0  0  0  0  0  0  0  0  0
  -32.8560  -19.2050   14.5070 H   0  0  0  0  0  0  0  0  0  0  0  0
  -31.2610  -18.9450   14.6290 H   0  0  0  0  0  0  0  0  0  0  0  0
  -29.8220  -19.5640   24.9750 C   0  0  0  0  0  0  0  0  0  0  0  0
  -30.8630  -19.8930   24.1990 N   0  0  0  0  0  0  0  0  0  0  0  0
  -28.8890  -20.3300   25.2260 O   0  0  0  0  0  0  0  0  0  0  0  0
  -31.5570  -19.1730   24.0560 H   0  0  0  0  0  0  0  0  0  0  0  0
  -30.7680  -22.4180   24.0770 C   0  0  0  0  0  1  0  0  0  0  0  0
  -31.0190  -21.0800   23.3410 C   0  0  0  0  0  3  0  0  0  0  0  0
  -30.2250  -20.8940   22.0210 C   0  0  0  0  0  0  0  0  0  0  0  0
  -29.9290  -19.7910   21.5520 O   0  0  0  0  0  0  0  0  0  0  0  0
  -29.9390  -22.0710   21.4230 O   0  0  0  0  0  0  0  0  0  0  0  0
  -29.5780  -22.1050   20.0400 C   0  0  0  0  0  2  0  0  0  0  0  0
  -28.0890  -21.7660   19.7870 C   0  0  0  0  0  2  0  0  0  0  0  0
  -27.2640  -22.9320   19.7360 O   0  0  0  0  0  0  0  0  0  0  0  0
  -27.2790  -23.6390   18.4910 C   0  0  0  0  0  2  0  0  0  0  0  0
  -27.1270  -25.1490   18.7810 C   0  0  0  0  0  2  0  0  0  0  0  0
  -26.3050  -25.8730   17.8430 O   0  0  0  0  0  0  0  0  0  0  0  0
  -25.5300  -29.9110   23.6080 C   0  0  0  0  0  0  0  0  0  0  0  0
  -25.6070  -26.9060   18.4300 C   0  0  0  0  0  0  0  0  0  0  0  0
  -23.6180  -29.9270   22.0280 C   0  0  0  0  0  3  0  0  0  0  0  0
  -24.0710  -28.8850   19.7390 C   0  0  0  0  0  0  0  0  0  0  0  0
  -25.9980  -29.5470   21.1910 C   0  0  0  0  0  2  0  0  0  0  0  0
  -25.4100  -28.6890   20.0940 C   0  0  0  0  0  0  0  0  0  0  0  0
  -26.1810  -27.7040   19.4440 C   0  0  0  0  0  3  0  0  0  0  0  0
  -24.2670  -27.1340   18.0560 C   0  0  0  0  0  3  0  0  0  0  0  0
  -23.4900  -28.1110   18.7150 C   0  0  0  0  0  3  0  0  0  0  0  0
  -23.3210  -29.9540   20.5020 C   0  0  0  0  0  2  0  0  0  0  0  0
  -25.0780  -29.7700   22.3290 N   0  0  0  0  0  0  0  0  0  0  0  0
  -24.7570  -30.2110   24.5300 O   0  0  0  0  0  0  0  0  0  0  0  0
  -22.7420  -28.8340   22.6840 C   0  0  0  0  0  0  0  0  0  0  0  0
  -21.4140  -28.9560   22.5210 N   0  0  0  0  0  0  0  0  0  0  0  0
  -23.2570  -27.8920   23.2930 O   0  0  0  0  0  0  0  0  0  0  0  0
  -21.0700  -29.7590   22.0140 H   0  0  0  0  0  0  0  0  0  0  0  0
  -17.9040  -28.1230   22.3510 C   0  0  0  0  0  0  0  0  0  0  0  0
  -20.4000  -28.0240   23.0140 C   0  0  0  0  0  3  0  0  0  0  0  0
  -20.4520  -26.6880   22.2360 C   0  0  0  0  0  2  0  0  0  0  0  0
  -19.4960  -26.6500   21.0410 C   0  0  0  0  0  2  0  0  0  0  0  0
  -18.0520  -26.8710   21.5000 C   0  0  0  0  0  2  0  0  0  0  0  0
  -19.0130  -28.6720   23.0490 C   0  0  0  0  0  0  0  0  0  0  0  0
  -18.8350  -29.8550   23.7980 C   0  0  0  0  0  3  0  0  0  0  0  0
  -17.5790  -30.4850   23.8600 C   0  0  0  0  0  3  0  0  0  0  0  0
  -16.4810  -29.9280   23.1810 C   0  0  0  0  0  3  0  0  0  0  0  0
  -16.6430  -28.7490   22.4320 C   0  0  0  0  0  3  0  0  0  0  0  0
  -27.0380  -29.7280   23.9710 C   0  0  0  0  0  3  0  0  0  0  0  0
  -27.3740  -30.7340   24.9860 N   0  0  0  0  0  0  0  0  0  0  0  0
  -28.2130  -31.7600   24.7870 C   0  0  0  0  0  0  0  0  0  0  0  0
  -28.8440  -31.9160   23.7380 O   0  0  0  0  0  0  0  0  0  0  0  0
  -26.8540  -30.6980   25.8510 H   0  0  0  0  0  0  0  0  0  0  0  0
  -27.6210  -34.0700   25.5860 C   0  0  0  0  0  1  0  0  0  0  0  0
  -28.3760  -32.7780   25.9340 C   0  0  0  0  0  3  0  0  0  0  0  0
  -30.5080  -31.9740   26.8500 C   0  0  0  0  0  1  0  0  0  0  0  0
  -29.7870  -33.0920   26.2450 N   0  0  0  0  0  0  0  0  0  0  0  0
  -29.8480  -33.8870   26.8760 H   0  0  0  0  0  0  0  0  0  0  0  0
  -27.3810  -28.2770   24.4870 C   0  0  1  0  0  0  0  0  0  0  0  0
  -26.4680  -27.7940   25.6390 C   0  0  0  0  0  1  0  0  0  0  0  0
  -27.2710  -27.2510   23.3340 C   0  0  0  0  0  1  0  0  0  0  0  0
  -28.8450  -28.2270   24.9810 C   0  0  0  0  0  1  0  0  0  0  0  0
  -28.4960  -17.8140   26.3020 C   0  0  0  0  0  2  0  0  0  0  0  0
  -28.5330  -18.4670   27.6880 C   0  0  0  0  0  0  0  0  0  0  0  0
  -29.2490  -17.8810   28.6380 N   0  0  0  0  0  0  0  0  0  0  0  0
  -27.9060  -19.5000   27.9110 O   0  0  0  0  0  0  0  0  0  0  0  0
  -29.7550  -17.0260   28.4520 H   0  0  0  0  0  0  0  0  0  0  0  0
  -29.3010  -18.2840   29.5660 H   0  0  0  0  0  0  0  0  0  0  0  0
  1110  1  0
  2  4  2  0
  2  3  1  0
  3  1  1  0
  5  3  1  0
  6  2  1  0
  7  6  2  0
  8 47  1  0
  8  7  1  0
  9 17  1  0
 10 15  1  0
 11 12  1  0
 11 10  1  0
 13 12  1  0
 13 22  1  0
 13 14  1  0
 15  9  1  0
 15 14  1  0
 16  9  2  0
 17  8  1  0
 17 18  1  0
 19 20  2  0
 20 39  1  0
 21 20  1  0
 21 24  1  0
 22 23  1  0
 22 19  1  0
 23 21  2  0
 24 25  1  0
 25 26  2  0
 27 30  1  0
 27 26  1  0
 28 27  2  0
 29 28  1  0
 29 24  2  0
 30 31  1  0
 31 32  1  0
 32 33  2  0
 34 33  1  0
 34 38  1  0
 35 34  2  0
 36 31  2  0
 36 35  1  0
 37 36  1  0
 39 40  1  0
 40 42  1  0
 40 43  1  0
 41 39  2  0
 44 19  1  0
 44 45  1  0
 46 44  1  0
 48 47  1  0
 49 48  1  0
 50 49  1  0
 51 50  1  0
 52 51  1  0
 53 51  1  0
 54 51  1  0
 55 57  2  0
 55  1  1  0
 56 55  1  0
 58 56  1  0
 60 59  1  0
 60 56  1  0
 61 60  1  0
 62 61  2  0
 63 61  1  0
 64 63  1  0
 65 64  1  0
 66 65  1  0
 67 68  1  0
 67 66  1  0
 69 71  1  0
 69 68  1  0
 70 81  2  0
 71 76  1  0
 72 80  1  0
 72 82  1  0
 73 75  1  0
 73 79  1  0
 74 80  1  0
 75 74  1  0
 76 75  2  0
 77 71  2  0
 77 78  1  0
 78 73  2  0
 79 72  1  0
 80 70  1  0
 82 84  2  0
 83 82  1  0
 85 83  1  0
 86 95  2  0
 86 91  1  0
 87 83  1  0
 87 91  1  0
 88 87  1  0
 89 90  1  0
 89 88  1  0
 90 86  1  0
 91 92  2  0
 92 93  1  0
 94 93  2  0
 95 94  1  0
 96 70  1  0
 96106  1  0
 96 97  1  0
 97100  1  0
 98 97  1  0
 98102  1  0
 99 98  2  0
102101  1  0
102104  1  0
104103  1  0
104105  1  0
106109  1  1
106107  1  0
108106  1  0
110111  1  0
111113  2  0
111112  1  0
112115  1  0
114112  1  0
M  ISO  4   9 100  17 100  68 101  69 101
M  END
>  <TORSDO>  (75) 
F 35

>  <SCORE>  (75) 
8.975

>  <name>  (75) 
78

>  <ligand_id>  (75) 
78

>  <original_smiles>  (75) 
[H]C(C(=O)N([H])C([H])(C(=O)N([H])C([H])(C(=O)OC([H])([H])C([H])([H])OC([H])([H])C([H])([H])Oc1c([H])c([H])c2c(c1[H])C([H])([H])N(C(=O)C([H])(N([H])C(=O)C([H])(N([H])C([H])([H])[H])C([H])([H])[H])C(C([H])([H])[H])(C([H])([H])[H])C([H])([H])[H])C([H])(C(=O)N([H])C1([H])c3c([H])c([H])c([H])c([H])c3C([H])([H])C([H])([H])C1([H])[H])C2([H])[H])C([H])([H])[H])C([H])([H])C(=O)N([H])[H])=C([H])C([H])(N([H])C(=O)N1C([H])([H])C([H])([H])C([H])([H])C([H])(n2nc(-c3c([H])c([H])c(Oc4c([H])c([H])c(F)c([H])c4F)c([H])c3[H])c(C(=O)N([H])[H])c2N([H])[H])C1([H])[H])C([H])([H])C([H])([H])C([H])([H])C([H])([H])[N+]([H])([H])[H]

>  <smiles>  (75) 
[H]C(C(=O)N([H])C([H])(C(=O)N([H])C([H])(C(=O)OC([H])([H])C([H])([H])OC([H])([H])C([H])([H])Oc1c([H])c([H])c2c(c1[H])C([H])([H])N(C(=O)C([H])(N([H])C(=O)C([H])(N([H])C([H])([H])[H])C([H])([H])[H])C(C([H])([H])[H])(C([H])([H])[H])C([H])([H])[H])C([H])(C(=O)N([H])C1([H])c3c([H])c([H])c([H])c([H])c3C([H])([H])C([H])([H])C1([H])[H])C2([H])[H])C([H])([H])[H])C([H])([H])C(=O)N([H])[H])=C([H])C([H])(N([H])C(=O)N1C([H])([H])C([H])([H])C([H])([H])C([H])(n2nc(-c3c([H])c([H])c(Oc4c([H])c([H])c(F)c([H])c4F)c([H])c3[H])c(C(=O)N([H])[H])c2N([H])[H])C1([H])[H])C([H])([H])C([H])([H])C([H])([H])C([H])([H])[N+]([H])([H])[H]

$$$$
79:0:0
     RDKit          3D

 99107  0  0  1  0  0  0  0  0999 V2000
  -32.3970  -20.7990   19.7260 C   0  0  0  0  0  0  0  0  0  0  0  0
  -32.5970  -23.0390   16.8150 C   0  0  0  0  0  2  0  0  0  0  0  0
  -31.7730  -23.8890   17.7650 C   0  0  0  0  0  2  0  0  0  0  0  0
  -33.3040  -22.0180   17.7150 C   0  0  0  0  0  2  0  0  0  0  0  0
  -31.5130  -22.9920   18.9820 C   0  0  0  0  0  3  0  0  0  0  0  0
  -32.4630  -21.8760   18.9040 N   0  0  0  0  0  0  0  0  0  0  0  0
  -31.6400  -20.7700   20.7040 O   0  0  0  0  0  0  0  0  0  0  0  0
  -33.2680  -19.5640   19.4390 C   0  0  0  0  0  2  0  0  0  0  0  0
  -32.0800  -17.4560   20.0390 C   0  0  0  0  0  0  0  0  0  0  0  0
  -32.9410  -18.4440   20.3300 N   0  0  0  0  0  0  0  0  0  0  0  0
  -31.5270  -17.3660   18.9430 O   0  0  0  0  0  0  0  0  0  0  0  0
  -33.3140  -18.4920   21.2700 H   0  0  0  0  0  0  0  0  0  0  0  0
  -31.7730  -16.4270   21.1560 C   0  0  0  0  0  3  0  0  0  0  0  0
  -31.6610  -14.2620   19.8330 C   0  0  0  0  0  0  0  0  0  0  0  0
  -31.0620  -12.2770   18.4980 C   0  0  0  0  0  2  0  0  0  0  0  0
  -30.0590  -12.6680   17.3960 C   0  0  0  0  0  2  0  0  0  0  0  0
  -28.6120  -12.6530   17.9300 C   0  0  0  0  0  2  0  0  0  0  0  0
  -28.4540  -13.4090   19.2780 C   0  0  0  0  0  3  0  0  0  0  0  0
  -29.5450  -12.9640   20.2750 C   0  0  0  0  0  2  0  0  0  0  0  0
  -30.8530  -13.1890   19.6320 N   0  0  0  0  0  0  0  0  0  0  0  0
  -32.7500  -14.4070   19.2690 O   0  0  0  0  0  0  0  0  0  0  0  0
  -31.1570  -15.1860   20.6660 N   0  0  0  0  0  0  0  0  0  0  0  0
  -30.2250  -14.9990   21.0050 H   0  0  0  0  0  0  0  0  0  0  0  0
  -26.1570  -14.2170   20.1120 C   0  0  0  0  0  0  0  0  0  0  0  0
  -25.0500  -13.5430   20.5520 C   0  0  0  0  0  0  0  0  0  0  0  0
  -25.3900  -12.1550   20.4990 C   0  0  0  0  0  0  0  0  0  0  0  0
  -27.1090  -13.2500   19.8300 N   0  0  0  0  0  0  0  0  0  0  0  0
  -26.6510  -12.0050   20.1150 N   0  0  0  0  0  0  0  0  0  0  0  0
  -24.5700  -10.9610   20.7390 C   0  0  0  0  0  0  0  0  0  0  0  0
  -24.9510   -9.9880   21.6900 C   0  0  0  0  0  3  0  0  0  0  0  0
  -24.1440   -8.8540   21.9160 C   0  0  0  0  0  3  0  0  0  0  0  0
  -22.9390   -8.6870   21.1880 C   0  0  0  0  0  0  0  0  0  0  0  0
  -22.5740   -9.6470   20.2290 C   0  0  0  0  0  3  0  0  0  0  0  0
  -23.3820  -10.7740   20.0050 C   0  0  0  0  0  3  0  0  0  0  0  0
  -22.1010   -7.6050   21.3210 O   0  0  0  0  0  0  0  0  0  0  0  0
  -21.9790   -6.9310   22.5110 C   0  0  0  0  0  0  0  0  0  0  0  0
  -21.6010   -7.5840   23.7030 C   0  0  0  0  0  3  0  0  0  0  0  0
  -21.4330   -6.8450   24.8910 C   0  0  0  0  0  3  0  0  0  0  0  0
  -21.6180   -5.4490   24.8800 C   0  0  0  0  0  0  0  0  0  0  0  0
  -21.9830   -4.7930   23.6910 C   0  0  0  0  0  3  0  0  0  0  0  0
  -22.1610   -5.5340   22.5090 C   0  0  0  0  0  0  0  0  0  0  0  0
  -22.4980   -4.8980   21.3610 F   0  0  0  0  0  0  0  0  0  0  0  0
  -21.4430   -4.7320   26.0150 F   0  0  0  0  0  0  0  0  0  0  0  0
  -23.7180  -14.1390   20.9080 C   0  0  0  0  0  0  0  0  0  0  0  0
  -23.0030  -13.5230   21.8420 N   0  0  0  0  0  0  0  0  0  0  0  0
  -23.3280  -15.1870   20.3910 O   0  0  0  0  0  0  0  0  0  0  0  0
  -23.3310  -12.6760   22.2820 H   0  0  0  0  0  0  0  0  0  0  0  0
  -22.1110  -13.9050   22.1210 H   0  0  0  0  0  0  0  0  0  0  0  0
  -26.4280  -15.5660   19.9020 N   0  0  0  0  0  0  0  0  0  0  0  0
  -25.7090  -16.2770   19.9790 H   0  0  0  0  0  0  0  0  0  0  0  0
  -27.2700  -15.8930   19.4430 H   0  0  0  0  0  0  0  0  0  0  0  0
  -29.5720  -17.6540   21.8100 C   0  0  0  0  0  1  0  0  0  0  0  0
  -30.5990  -15.9810   23.4140 C   0  0  0  0  0  1  0  0  0  0  0  0
  -30.8870  -17.0100   22.3000 C   0  0  0  0  0  3  0  0  0  0  0  0
  -31.5870  -23.7870   20.3110 C   0  0  0  0  0  2  0  0  0  0  0  0
  -30.6210  -24.8290   20.2520 O   0  0  0  0  0  0  0  0  0  0  0  0
  -29.3180  -24.3800   20.6160 C   0  0  0  0  0  2  0  0  0  0  0  0
  -28.2300  -25.1920   19.9170 C   0  0  0  0  0  2  0  0  0  0  0  0
  -28.3350  -26.5960   20.1680 O   0  0  0  0  0  0  0  0  0  0  0  0
  -24.6670  -31.8300   23.2170 C   0  0  0  0  0  0  0  0  0  0  0  0
  -27.1710  -27.3310   20.1250 C   0  0  0  0  0  0  0  0  0  0  0  0
  -23.4060  -30.4440   21.5990 C   0  0  0  0  0  3  0  0  0  0  0  0
  -24.8090  -28.8820   20.1550 C   0  0  0  0  0  0  0  0  0  0  0  0
  -25.9340  -30.7540   21.3640 C   0  0  0  0  0  2  0  0  0  0  0  0
  -25.9810  -29.3800   20.7350 C   0  0  0  0  0  0  0  0  0  0  0  0
  -27.1630  -28.6100   20.7210 C   0  0  0  0  0  3  0  0  0  0  0  0
  -25.9820  -26.8540   19.5200 C   0  0  0  0  0  3  0  0  0  0  0  0
  -24.8040  -27.6180   19.5450 C   0  0  0  0  0  3  0  0  0  0  0  0
  -23.5800  -29.7560   20.2180 C   0  0  0  0  0  2  0  0  0  0  0  0
  -24.6880  -31.0260   22.1160 N   0  0  0  0  0  0  0  0  0  0  0  0
  -23.6010  -32.1230   23.7730 O   0  0  0  0  0  0  0  0  0  0  0  0
  -22.7550  -29.4370   22.5760 C   0  0  0  0  0  0  0  0  0  0  0  0
  -21.4310  -29.2500   22.4470 N   0  0  0  0  0  0  0  0  0  0  0  0
  -23.4380  -28.8260   23.4030 O   0  0  0  0  0  0  0  0  0  0  0  0
  -20.9450  -29.7890   21.7460 H   0  0  0  0  0  0  0  0  0  0  0  0
  -18.0620  -28.0390   22.9360 C   0  0  0  0  0  0  0  0  0  0  0  0
  -20.6140  -28.3260   23.2320 C   0  0  0  0  0  3  0  0  0  0  0  0
  -20.7370  -26.8820   22.6930 C   0  0  0  0  0  2  0  0  0  0  0  0
  -19.6490  -26.5250   21.6760 C   0  0  0  0  0  2  0  0  0  0  0  0
  -18.2580  -26.6750   22.2980 C   0  0  0  0  0  2  0  0  0  0  0  0
  -19.1680  -28.8210   23.3600 C   0  0  0  0  0  0  0  0  0  0  0  0
  -18.9340  -30.0970   23.9160 C   0  0  0  0  0  3  0  0  0  0  0  0
  -17.6240  -30.5950   24.0490 C   0  0  0  0  0  3  0  0  0  0  0  0
  -16.5300  -29.8110   23.6380 C   0  0  0  0  0  3  0  0  0  0  0  0
  -16.7510  -28.5340   23.0920 C   0  0  0  0  0  3  0  0  0  0  0  0
  -25.9770  -32.4370   23.8100 C   0  0  0  0  0  3  0  0  0  0  0  0
  -25.6950  -33.8340   24.1650 N   0  0  0  0  0  0  0  0  0  0  0  0
  -26.0230  -34.8900   23.4110 C   0  0  0  0  0  0  0  0  0  0  0  0
  -26.6710  -34.7920   22.3640 O   0  0  0  0  0  0  0  0  0  0  0  0
  -25.1210  -33.9870   24.9830 H   0  0  0  0  0  0  0  0  0  0  0  0
  -24.3110  -36.7030   23.1060 C   0  0  0  0  0  1  0  0  0  0  0  0
  -25.5620  -36.2780   23.8930 C   0  0  0  0  0  3  0  0  0  0  0  0
  -27.7220  -37.1250   24.6950 C   0  0  0  0  0  1  0  0  0  0  0  0
  -26.6050  -37.3200   23.7720 N   0  0  0  0  0  0  0  0  0  0  0  0
  -26.2140  -38.2430   23.9380 H   0  0  0  0  0  0  0  0  0  0  0  0
  -26.5220  -31.6430   25.0580 C   0  0  1  0  0  0  0  0  0  0  0  0
  -25.4520  -31.3960   26.1470 C   0  0  0  0  0  1  0  0  0  0  0  0
  -27.0830  -30.2680   24.6300 C   0  0  0  0  0  1  0  0  0  0  0  0
  -27.6980  -32.4150   25.7020 C   0  0  0  0  0  1  0  0  0  0  0  0
  1  7  2  0
  2  4  1  0
  2  3  1  0
  3  5  1  0
  4  6  1  0
  5 55  1  0
  6  5  1  0
  6  1  1  0
  8  1  1  0
  8 10  1  0
  9 10  1  0
 10 12  1  0
 11  9  2  0
 13  9  1  0
 13 54  1  0
 14 22  1  0
 15 20  1  0
 16 17  1  0
 16 15  1  0
 18 17  1  0
 18 27  1  0
 18 19  1  0
 20 14  1  0
 20 19  1  0
 21 14  2  0
 22 23  1  0
 22 13  1  0
 24 25  2  0
 25 44  1  0
 26 25  1  0
 26 29  1  0
 27 24  1  0
 27 28  1  0
 28 26  2  0
 29 30  1  0
 30 31  2  0
 32 35  1  0
 32 31  1  0
 33 32  2  0
 34 33  1  0
 34 29  2  0
 35 36  1  0
 36 37  1  0
 37 38  2  0
 39 38  1  0
 39 43  1  0
 40 39  2  0
 41 36  2  0
 41 40  1  0
 42 41  1  0
 44 45  1  0
 45 48  1  0
 45 47  1  0
 46 44  2  0
 49 50  1  0
 49 24  1  0
 51 49  1  0
 52 54  1  0
 54 53  1  0
 56 55  1  0
 56 57  1  0
 58 59  1  0
 58 57  1  0
 60 71  2  0
 61 59  1  0
 61 66  1  0
 62 70  1  0
 62 72  1  0
 63 69  1  0
 63 65  1  0
 64 70  1  0
 65 64  1  0
 66 65  2  0
 67 68  1  0
 67 61  2  0
 68 63  2  0
 69 62  1  0
 70 60  1  0
 72 74  2  0
 73 72  1  0
 75 73  1  0
 76 85  2  0
 76 81  1  0
 77 73  1  0
 77 81  1  0
 78 77  1  0
 79 80  1  0
 79 78  1  0
 80 76  1  0
 81 82  2  0
 82 83  1  0
 84 83  2  0
 85 84  1  0
 86 60  1  0
 86 87  1  0
 86 96  1  0
 87 90  1  0
 88 92  1  0
 88 87  1  0
 89 88  2  0
 92 91  1  0
 94 92  1  0
 94 95  1  0
 94 93  1  0
 96 99  1  1
 96 97  1  0
 98 96  1  0
M  ISO  4  14 100  22 100  58 101  59 101
M  END
>  <TORSDO>  (76) 
F 24

>  <SCORE>  (76) 
-8.820

>  <name>  (76) 
79

>  <ligand_id>  (76) 
79

>  <original_smiles>  (76) 
[H]c1c([H])c([H])c2c(c1[H])C([H])([H])C([H])([H])C([H])([H])C2([H])N([H])C(=O)C1([H])N(C(=O)C([H])(N([H])C(=O)C([H])(N([H])C([H])([H])[H])C([H])([H])[H])C(C([H])([H])[H])(C([H])([H])[H])C([H])([H])[H])C([H])([H])c2c([H])c(OC([H])([H])C([H])([H])OC([H])([H])C3([H])N(C(=O)C([H])([H])N([H])C(=O)C([H])(N([H])C(=O)N4C([H])([H])C([H])([H])C([H])([H])C([H])(n5nc(-c6c([H])c([H])c(Oc7c([H])c([H])c(F)c([H])c7F)c([H])c6[H])c(C(=O)N([H])[H])c5N([H])[H])C4([H])[H])C([H])(C([H])([H])[H])C([H])([H])[H])C([H])([H])C([H])([H])C3([H])[H])c([H])c([H])c2C1([H])[H]

>  <smiles>  (76) 
[H]c1c([H])c([H])c2c(c1[H])C([H])([H])C([H])([H])C([H])([H])C2([H])N([H])C(=O)C1([H])N(C(=O)C([H])(N([H])C(=O)C([H])(N([H])C([H])([H])[H])C([H])([H])[H])C(C([H])([H])[H])(C([H])([H])[H])C([H])([H])[H])C([H])([H])c2c([H])c(OC([H])([H])C([H])([H])OC([H])([H])C3([H])N(C(=O)C([H])([H])N([H])C(=O)C([H])(N([H])C(=O)N4C([H])([H])C([H])([H])C([H])([H])C([H])(n5nc(-c6c([H])c([H])c(Oc7c([H])c([H])c(F)c([H])c7F)c([H])c6[H])c(C(=O)N([H])[H])c5N([H])[H])C4([H])[H])C([H])(C([H])([H])[H])C([H])([H])[H])C([H])([H])C([H])([H])C3([H])[H])c([H])c([H])c2C1([H])[H]

$$$$
80:0:0
     RDKit          3D

 99106  0  0  1  0  0  0  0  0999 V2000
  -29.7470  -23.0430   20.2430 O   0  0  0  0  0  0  0  0  0  0  0  0
  -30.2210  -22.9570   18.9000 C   0  0  0  0  0  2  0  0  0  0  0  0
  -30.0920  -24.3310   18.2250 C   0  0  0  0  0  2  0  0  0  0  0  0
  -31.0770  -25.1990   18.7640 O   0  0  0  0  0  0  0  0  0  0  0  0
  -31.0110  -26.5250   18.2590 C   0  0  0  0  0  2  0  0  0  0  0  0
  -32.0280  -27.3520   19.0580 C   0  0  0  0  0  2  0  0  0  0  0  0
  -31.7160  -27.4130   20.4500 O   0  0  0  0  0  0  0  0  0  0  0  0
  -30.4830  -28.0450   20.7890 C   0  0  0  0  0  2  0  0  0  0  0  0
  -29.4360  -27.0130   21.2620 C   0  0  0  0  0  2  0  0  0  0  0  0
  -28.4360  -26.7270   20.2780 O   0  0  0  0  0  0  0  0  0  0  0  0
  -24.5560  -31.9000   23.2570 C   0  0  0  0  0  0  0  0  0  0  0  0
  -27.2900  -27.4880   20.2750 C   0  0  0  0  0  0  0  0  0  0  0  0
  -23.3720  -30.4710   21.6140 C   0  0  0  0  0  3  0  0  0  0  0  0
  -24.8590  -28.9330   20.2210 C   0  0  0  0  0  0  0  0  0  0  0  0
  -25.8850  -30.8710   21.4250 C   0  0  0  0  0  2  0  0  0  0  0  0
  -25.9940  -29.4930   20.8140 C   0  0  0  0  0  0  0  0  0  0  0  0
  -27.2070  -28.7810   20.8430 C   0  0  0  0  0  3  0  0  0  0  0  0
  -26.1420  -26.9410   19.6650 C   0  0  0  0  0  3  0  0  0  0  0  0
  -24.9240  -27.6520   19.6410 C   0  0  0  0  0  3  0  0  0  0  0  0
  -23.6000  -29.7700   20.2440 C   0  0  0  0  0  2  0  0  0  0  0  0
  -24.6230  -31.0940   22.1590 N   0  0  0  0  0  0  0  0  0  0  0  0
  -23.4710  -32.1680   23.7890 O   0  0  0  0  0  0  0  0  0  0  0  0
  -22.7240  -29.4580   22.5830 C   0  0  0  0  0  0  0  0  0  0  0  0
  -21.4040  -29.2590   22.4420 N   0  0  0  0  0  0  0  0  0  0  0  0
  -23.4060  -28.8530   23.4160 O   0  0  0  0  0  0  0  0  0  0  0  0
  -20.9160  -29.8040   21.7430 H   0  0  0  0  0  0  0  0  0  0  0  0
  -18.0340  -28.0520   22.9090 C   0  0  0  0  0  0  0  0  0  0  0  0
  -20.5860  -28.3240   23.2140 C   0  0  0  0  0  3  0  0  0  0  0  0
  -20.7060  -26.8880   22.6540 C   0  0  0  0  0  2  0  0  0  0  0  0
  -19.6190  -26.5490   21.6290 C   0  0  0  0  0  2  0  0  0  0  0  0
  -18.2270  -26.6960   22.2510 C   0  0  0  0  0  2  0  0  0  0  0  0
  -19.1420  -28.8230   23.3470 C   0  0  0  0  0  0  0  0  0  0  0  0
  -18.9100  -30.0930   23.9180 C   0  0  0  0  0  3  0  0  0  0  0  0
  -17.6010  -30.5910   24.0590 C   0  0  0  0  0  3  0  0  0  0  0  0
  -16.5060  -29.8150   23.6390 C   0  0  0  0  0  3  0  0  0  0  0  0
  -16.7230  -28.5490   23.0670 C   0  0  0  0  0  3  0  0  0  0  0  0
  -25.8360  -32.5430   23.8790 C   0  0  0  0  0  3  0  0  0  0  0  0
  -25.5230  -33.9420   24.1850 N   0  0  0  0  0  0  0  0  0  0  0  0
  -25.8720  -34.9850   23.4190 C   0  0  0  0  0  0  0  0  0  0  0  0
  -26.5620  -34.8680   22.4030 O   0  0  0  0  0  0  0  0  0  0  0  0
  -24.9090  -34.1070   24.9710 H   0  0  0  0  0  0  0  0  0  0  0  0
  -24.1600  -36.7750   22.9940 C   0  0  0  0  0  1  0  0  0  0  0  0
  -25.3750  -36.3780   23.8470 C   0  0  0  0  0  3  0  0  0  0  0  0
  -27.4850  -37.2700   24.7290 C   0  0  0  0  0  1  0  0  0  0  0  0
  -26.4110  -37.4270   23.7530 N   0  0  0  0  0  0  0  0  0  0  0  0
  -26.0020  -38.3490   23.8760 H   0  0  0  0  0  0  0  0  0  0  0  0
  -26.3470  -31.7870   25.1670 C   0  0  1  0  0  0  0  0  0  0  0  0
  -25.2470  -31.5640   26.2310 C   0  0  0  0  0  1  0  0  0  0  0  0
  -26.9360  -30.4090   24.7860 C   0  0  0  0  0  1  0  0  0  0  0  0
  -27.4870  -32.5960   25.8290 C   0  0  0  0  0  1  0  0  0  0  0  0
  -29.7270  -21.8030   20.9400 C   0  0  0  0  0  2  0  0  0  0  0  0
  -31.1040  -21.4300   21.5360 C   0  0  0  0  0  2  0  0  0  0  0  0
  -31.0620  -20.2060   22.4760 C   0  0  0  0  0  2  0  0  0  0  0  0
  -30.7110  -17.8460   21.6530 C   0  0  0  0  0  0  0  0  0  0  0  0
  -30.3390  -19.1150   21.8410 N   0  0  0  0  0  0  0  0  0  0  0  0
  -31.7410  -17.3480   22.1130 O   0  0  0  0  0  0  0  0  0  0  0  0
  -29.4510  -19.3650   21.4310 H   0  0  0  0  0  0  0  0  0  0  0  0
  -29.7500  -17.0640   20.7530 C   0  0  0  0  0  0  0  0  0  0  0  0
  -30.5040  -14.6510   20.4210 C   0  0  0  0  0  0  0  0  0  0  0  0
  -30.2390  -12.5420   19.1820 C   0  0  0  0  0  2  0  0  0  0  0  0
  -29.2680  -12.7810   18.0070 C   0  0  0  0  0  2  0  0  0  0  0  0
  -27.7980  -12.6350   18.4490 C   0  0  0  0  0  2  0  0  0  0  0  0
  -27.4750  -13.3750   19.7770 C   0  0  0  0  0  3  0  0  0  0  0  0
  -28.5610  -13.0960   20.8410 C   0  0  0  0  0  2  0  0  0  0  0  0
  -29.8700  -13.4600   20.2660 N   0  0  0  0  0  0  0  0  0  0  0  0
  -31.6220  -14.8880   19.9570 O   0  0  0  0  0  0  0  0  0  0  0  0
  -29.7290  -15.6060   20.9440 N   0  0  0  0  0  4  0  0  0  0  0  0
  -28.8740  -15.2570   21.3520 H   0  0  0  0  0  0  0  0  0  0  0  0
  -25.0520  -13.8720   20.5040 C   0  0  0  0  0  0  0  0  0  0  0  0
  -24.0260  -13.0470   20.8860 C   0  0  0  0  0  0  0  0  0  0  0  0
  -24.5480  -11.7180   20.8430 C   0  0  0  0  0  0  0  0  0  0  0  0
  -26.1390  -13.0410   20.2660 N   0  0  0  0  0  0  0  0  0  0  0  0
  -25.8360  -11.7420   20.5240 N   0  0  0  0  0  0  0  0  0  0  0  0
  -23.8850  -10.4240   21.0380 C   0  0  0  0  0  0  0  0  0  0  0  0
  -24.3450   -9.5020   22.0020 C   0  0  0  0  0  3  0  0  0  0  0  0
  -23.6830   -8.2670   22.1840 C   0  0  0  0  0  3  0  0  0  0  0  0
  -22.5470   -7.9480   21.4060 C   0  0  0  0  0  0  0  0  0  0  0  0
  -22.1030   -8.8620   20.4340 C   0  0  0  0  0  3  0  0  0  0  0  0
  -22.7660  -10.0890   20.2490 C   0  0  0  0  0  3  0  0  0  0  0  0
  -21.8560   -6.7620   21.4940 O   0  0  0  0  0  0  0  0  0  0  0  0
  -21.7920   -6.0550   22.6660 C   0  0  0  0  0  0  0  0  0  0  0  0
  -21.2650   -6.6150   23.8490 C   0  0  0  0  0  3  0  0  0  0  0  0
  -21.1560   -5.8300   25.0130 C   0  0  0  0  0  3  0  0  0  0  0  0
  -21.5640   -4.4830   24.9960 C   0  0  0  0  0  0  0  0  0  0  0  0
  -22.0830   -3.9200   23.8170 C   0  0  0  0  0  3  0  0  0  0  0  0
  -22.1940   -4.7050   22.6550 C   0  0  0  0  0  0  0  0  0  0  0  0
  -22.6770   -4.1530   21.5150 F   0  0  0  0  0  0  0  0  0  0  0  0
  -21.4510   -3.7260   26.1130 F   0  0  0  0  0  0  0  0  0  0  0  0
  -22.6110  -13.4580   21.1770 C   0  0  0  0  0  0  0  0  0  0  0  0
  -21.9220  -12.7270   22.0460 N   0  0  0  0  0  0  0  0  0  0  0  0
  -22.1240  -14.4670   20.6700 O   0  0  0  0  0  0  0  0  0  0  0  0
  -22.3190  -11.9120   22.4910 H   0  0  0  0  0  0  0  0  0  0  0  0
  -20.9750  -12.9930   22.2790 H   0  0  0  0  0  0  0  0  0  0  0  0
  -25.1490  -15.2460   20.3240 N   0  0  0  0  0  0  0  0  0  0  0  0
  -24.3500  -15.8650   20.4270 H   0  0  0  0  0  0  0  0  0  0  0  0
  -25.9780  -15.7260   20.0050 H   0  0  0  0  0  0  0  0  0  0  0  0
  -30.9620  -17.7110   18.4890 C   0  0  0  0  0  1  0  0  0  0  0  0
  -28.5080  -16.9520   18.4830 C   0  0  0  0  0  1  0  0  0  0  0  0
  -29.6450  -17.6010   19.2870 C   0  0  0  0  0  3  0  0  0  0  0  0
  1 51  1  0
  2  1  1  0
  3  4  1  0
  3  2  1  0
  5  4  1  0
  5  6  1  0
  6  7  1  0
  7  8  1  0
  8  9  1  0
 10  9  1  0
 11 22  2  0
 12 10  1  0
 12 17  1  0
 13 21  1  0
 13 23  1  0
 14 20  1  0
 14 16  1  0
 15 21  1  0
 16 17  2  0
 16 15  1  0
 18 12  2  0
 19 18  1  0
 19 14  2  0
 20 13  1  0
 21 11  1  0
 23 25  2  0
 24 23  1  0
 26 24  1  0
 27 36  2  0
 27 32  1  0
 28 24  1  0
 28 32  1  0
 29 28  1  0
 30 31  1  0
 30 29  1  0
 31 27  1  0
 32 33  2  0
 33 34  1  0
 35 34  2  0
 36 35  1  0
 37 11  1  0
 37 38  1  0
 37 47  1  0
 38 41  1  0
 39 43  1  0
 39 38  1  0
 40 39  2  0
 43 42  1  0
 45 43  1  0
 45 46  1  0
 45 44  1  0
 47 50  1  1
 47 48  1  0
 49 47  1  0
 51 52  1  0
 52 53  1  0
 54 55  1  0
 54 56  2  0
 55 53  1  0
 57 55  1  0
 58 67  2  3
 58 54  1  0
 59 67  1  0
 60 65  1  0
 61 62  1  0
 61 60  1  0
 63 62  1  0
 63 72  1  0
 63 64  1  0
 65 59  1  0
 65 64  1  0
 66 59  2  0
 67 68  1  0
 69 70  2  0
 70 89  1  0
 71 70  1  0
 71 74  1  0
 72 69  1  0
 72 73  1  0
 73 71  2  0
 74 75  1  0
 75 76  2  0
 77 80  1  0
 77 76  1  0
 78 77  2  0
 79 78  1  0
 79 74  2  0
 80 81  1  0
 81 82  1  0
 82 83  2  0
 84 83  1  0
 84 88  1  0
 85 84  2  0
 86 81  2  0
 86 85  1  0
 87 86  1  0
 89 90  1  0
 90 93  1  0
 90 92  1  0
 91 89  2  0
 94 95  1  0
 94 69  1  0
 96 94  1  0
 97 99  1  0
 98 99  1  0
 99 58  1  0
M  ISO  4   9 101  10 101  59 100  67 100
M  END
>  <TORSDO>  (77) 
F 30

>  <SCORE>  (77) 
-11.015

>  <name>  (77) 
80

>  <ligand_id>  (77) 
80

>  <original_smiles>  (77) 
[H]c1c([H])c([H])c2c(c1[H])C([H])([H])C([H])([H])C([H])([H])C2([H])N([H])C(=O)C1([H])N(C(=O)C([H])(N([H])C(=O)C([H])(N([H])C([H])([H])[H])C([H])([H])[H])C(C([H])([H])[H])(C([H])([H])[H])C([H])([H])[H])C([H])([H])c2c([H])c(OC([H])([H])C([H])([H])OC([H])([H])C([H])([H])OC([H])([H])C([H])([H])OC([H])([H])C([H])([H])C([H])([H])N([H])C(=O)C([H])(N([H])C(=O)N3C([H])([H])C([H])([H])C([H])([H])C([H])(n4nc(-c5c([H])c([H])c(Oc6c([H])c([H])c(F)c([H])c6F)c([H])c5[H])c(C(=O)N([H])[H])c4N([H])[H])C3([H])[H])C([H])(C([H])([H])[H])C([H])([H])[H])c([H])c([H])c2C1([H])[H]

>  <smiles>  (77) 
[H]c1c([H])c([H])c2c(c1[H])C([H])([H])C([H])([H])C([H])([H])C2([H])N([H])C(=O)C1([H])N(C(=O)C([H])(N([H])C(=O)C([H])(N([H])C([H])([H])[H])C([H])([H])[H])C(C([H])([H])[H])(C([H])([H])[H])C([H])([H])[H])C([H])([H])c2c([H])c(OC([H])([H])C([H])([H])OC([H])([H])C([H])([H])OC([H])([H])C([H])([H])OC([H])([H])C([H])([H])C([H])([H])N([H])C(=O)C([H])(N([H])C(=O)N3C([H])([H])C([H])([H])C([H])([H])C([H])(n4nc(-c5c([H])c([H])c(Oc6c([H])c([H])c(F)c([H])c6F)c([H])c5[H])c(C(=O)N([H])[H])c4N([H])[H])C3([H])[H])C([H])(C([H])([H])[H])C([H])([H])[H])c([H])c([H])c2C1([H])[H]

$$$$
81:0:0
     RDKit          3D

102109  0  0  1  0  0  0  0  0999 V2000
  -31.2470  -20.1200   21.6560 C   0  0  0  0  0  0  0  0  0  0  0  0
  -32.7640  -20.8160   23.5910 C   0  0  0  0  0  1  0  0  0  0  0  0
  -30.5570  -21.9170   23.2850 C   0  0  0  0  0  1  0  0  0  0  0  0
  -30.6580  -19.5960   24.2020 C   0  0  0  0  0  1  0  0  0  0  0  0
  -31.3030  -20.5630   23.1690 C   0  0  1  0  0  0  0  0  0  0  0  0
  -31.7050  -17.5890   21.4870 C   0  0  0  0  0  0  0  0  0  0  0  0
  -31.9140  -18.8880   21.2150 N   0  0  0  0  0  4  0  0  0  0  0  0
  -31.1770  -17.1600   22.5140 O   0  0  0  0  0  0  0  0  0  0  0  0
  -32.4680  -19.0380   20.3860 H   0  0  0  0  0  0  0  0  0  0  0  0
  -32.1170  -16.6120   20.3610 C   0  0  0  0  0  3  0  0  0  0  0  0
  -32.1950  -14.1350   20.0890 C   0  0  0  0  0  0  0  0  0  0  0  0
  -31.7840  -11.7640   19.5440 C   0  0  0  0  0  2  0  0  0  0  0  0
  -30.8850  -11.6660   18.2950 C   0  0  0  0  0  2  0  0  0  0  0  0
  -29.3970  -11.7120   18.6930 C   0  0  0  0  0  2  0  0  0  0  0  0
  -29.0770  -12.8980   19.6420 C   0  0  0  0  0  3  0  0  0  0  0  0
  -30.0880  -12.9520   20.8130 C   0  0  0  0  0  2  0  0  0  0  0  0
  -31.4530  -13.0060   20.2580 N   0  0  0  0  0  0  0  0  0  0  0  0
  -33.2350  -14.1700   19.4260 O   0  0  0  0  0  0  0  0  0  0  0  0
  -31.6990  -15.2360   20.6550 N   0  0  0  0  0  0  0  0  0  0  0  0
  -30.9660  -15.1200   21.3340 H   0  0  0  0  0  0  0  0  0  0  0  0
  -26.7990  -13.8750   20.3510 C   0  0  0  0  0  0  0  0  0  0  0  0
  -25.6250  -13.2750   20.7240 C   0  0  0  0  0  0  0  0  0  0  0  0
  -25.8700  -11.8690   20.6920 C   0  0  0  0  0  0  0  0  0  0  0  0
  -27.6950  -12.8420   20.1180 N   0  0  0  0  0  0  0  0  0  0  0  0
  -27.1370  -11.6320   20.3770 N   0  0  0  0  0  0  0  0  0  0  0  0
  -24.9600  -10.7360   20.8880 C   0  0  0  0  0  0  0  0  0  0  0  0
  -25.1700   -9.7850   21.9090 C   0  0  0  0  0  3  0  0  0  0  0  0
  -24.2690   -8.7120   22.0850 C   0  0  0  0  0  3  0  0  0  0  0  0
  -23.1420   -8.5840   21.2380 C   0  0  0  0  0  0  0  0  0  0  0  0
  -22.9510   -9.5220   20.2070 C   0  0  0  0  0  3  0  0  0  0  0  0
  -23.8530  -10.5850   20.0310 C   0  0  0  0  0  3  0  0  0  0  0  0
  -22.2280   -7.5620   21.3200 O   0  0  0  0  0  0  0  0  0  0  0  0
  -21.8400   -7.0390   22.5280 C   0  0  0  0  0  0  0  0  0  0  0  0
  -21.2300   -7.8350   23.5230 C   0  0  0  0  0  3  0  0  0  0  0  0
  -20.7810   -7.2440   24.7200 C   0  0  0  0  0  3  0  0  0  0  0  0
  -20.9330   -5.8580   24.9230 C   0  0  0  0  0  0  0  0  0  0  0  0
  -21.5360   -5.0640   23.9310 C   0  0  0  0  0  3  0  0  0  0  0  0
  -21.9850   -5.6550   22.7360 C   0  0  0  0  0  0  0  0  0  0  0  0
  -22.5460   -4.8800   21.7760 F   0  0  0  0  0  0  0  0  0  0  0  0
  -20.4960   -5.2880   26.0710 F   0  0  0  0  0  0  0  0  0  0  0  0
  -24.3190  -13.9630   21.0060 C   0  0  0  0  0  0  0  0  0  0  0  0
  -23.5210  -13.4170   21.9190 N   0  0  0  0  0  0  0  0  0  0  0  0
  -24.0200  -15.0190   20.4520 O   0  0  0  0  0  0  0  0  0  0  0  0
  -23.7800  -12.5630   22.3950 H   0  0  0  0  0  0  0  0  0  0  0  0
  -22.6390  -13.8590   22.1460 H   0  0  0  0  0  0  0  0  0  0  0  0
  -27.1690  -15.2030   20.1690 N   0  0  0  0  0  0  0  0  0  0  0  0
  -26.5030  -15.9570   20.2770 H   0  0  0  0  0  0  0  0  0  0  0  0
  -28.0590  -15.5120   19.8030 H   0  0  0  0  0  0  0  0  0  0  0  0
  -32.2420  -16.5500   17.7550 C   0  0  0  0  0  1  0  0  0  0  0  0
  -31.4790  -17.0340   19.0020 C   0  0  0  0  0  3  0  0  0  0  0  0
  -30.1290  -16.6020   18.8910 O   0  0  0  0  0  0  0  0  0  0  0  0
  -30.1170  -15.6540   18.9060 H   0  0  0  0  0  0  0  0  0  0  0  0
  -29.9060  -20.2070   20.8960 C   0  0  0  0  0  0  0  0  0  0  0  0
  -29.8990  -20.9240   19.7650 N   0  0  0  0  0  0  0  0  0  0  0  0
  -28.9140  -19.5800   21.2710 O   0  0  0  0  0  0  0  0  0  0  0  0
  -30.7330  -21.4350   19.5130 H   0  0  0  0  0  0  0  0  0  0  0  0
  -28.7420  -21.0190   18.8870 C   0  0  0  0  0  2  0  0  0  0  0  0
  -28.8510  -22.1960   17.9190 C   0  0  0  0  0  2  0  0  0  0  0  0
  -27.6300  -22.9010   18.0290 O   0  0  0  0  0  0  0  0  0  0  0  0
  -27.6280  -24.1130   17.3020 C   0  0  0  0  0  2  0  0  0  0  0  0
  -26.6670  -25.0520   18.0250 C   0  0  0  0  0  2  0  0  0  0  0  0
  -26.5800  -26.2870   17.3360 O   0  0  0  0  0  0  0  0  0  0  0  0
  -25.6530  -29.7620   23.4520 C   0  0  0  0  0  0  0  0  0  0  0  0
  -25.8320  -27.1840   18.0430 C   0  0  0  0  0  0  0  0  0  0  0  0
  -23.7670  -29.8570   21.8540 C   0  0  0  0  0  3  0  0  0  0  0  0
  -24.2600  -28.9930   19.5070 C   0  0  0  0  0  0  0  0  0  0  0  0
  -26.1650  -29.5670   21.0250 C   0  0  0  0  0  2  0  0  0  0  0  0
  -25.6030  -28.7930   19.8550 C   0  0  0  0  0  0  0  0  0  0  0  0
  -26.3970  -27.8870   19.1230 C   0  0  0  0  0  3  0  0  0  0  0  0
  -24.4810  -27.3810   17.7010 C   0  0  0  0  0  3  0  0  0  0  0  0
  -23.6890  -28.2860   18.4340 C   0  0  0  0  0  3  0  0  0  0  0  0
  -23.4880  -29.9950   20.3350 C   0  0  0  0  0  2  0  0  0  0  0  0
  -25.2240  -29.6980   22.1590 N   0  0  0  0  0  0  0  0  0  0  0  0
  -24.8630  -29.9920   24.3750 O   0  0  0  0  0  0  0  0  0  0  0  0
  -22.9010  -28.7060   22.4090 C   0  0  0  0  0  0  0  0  0  0  0  0
  -21.5710  -28.8800   22.3530 N   0  0  0  0  0  0  0  0  0  0  0  0
  -23.4220  -27.6790   22.8460 O   0  0  0  0  0  0  0  0  0  0  0  0
  -21.2270  -29.7560   21.9890 H   0  0  0  0  0  0  0  0  0  0  0  0
  -18.0210  -28.2110   22.3570 C   0  0  0  0  0  0  0  0  0  0  0  0
  -20.5540  -27.9170   22.7770 C   0  0  0  0  0  3  0  0  0  0  0  0
  -20.4740  -26.7170   21.8060 C   0  0  0  0  0  2  0  0  0  0  0  0
  -19.4230  -26.9010   20.7070 C   0  0  0  0  0  2  0  0  0  0  0  0
  -18.0340  -27.1000   21.3210 C   0  0  0  0  0  2  0  0  0  0  0  0
  -19.2080  -28.6070   23.0290 C   0  0  0  0  0  0  0  0  0  0  0  0
  -19.1500  -29.6690   23.9540 C   0  0  0  0  0  3  0  0  0  0  0  0
  -17.9310  -30.3240   24.2200 C   0  0  0  0  0  3  0  0  0  0  0  0
  -16.7570  -29.9180   23.5620 C   0  0  0  0  0  3  0  0  0  0  0  0
  -16.8030  -28.8630   22.6330 C   0  0  0  0  0  3  0  0  0  0  0  0
  -27.1570  -29.5770   23.8260 C   0  0  0  0  0  3  0  0  0  0  0  0
  -27.4890  -30.6100   24.8160 N   0  0  0  0  0  0  0  0  0  0  0  0
  -28.2080  -31.7090   24.5560 C   0  0  0  0  0  0  0  0  0  0  0  0
  -28.7260  -31.9270   23.4550 O   0  0  0  0  0  0  0  0  0  0  0  0
  -27.0540  -30.5240   25.7230 H   0  0  0  0  0  0  0  0  0  0  0  0
  -27.4320  -33.9100   25.4840 C   0  0  0  0  0  1  0  0  0  0  0  0
  -28.3840  -32.7240   25.7000 C   0  0  0  0  0  3  0  0  0  0  0  0
  -30.6990  -32.2010   26.3310 C   0  0  0  0  0  1  0  0  0  0  0  0
  -29.7710  -33.2150   25.8430 N   0  0  0  0  0  0  0  0  0  0  0  0
  -29.8030  -34.0070   26.4820 H   0  0  0  0  0  0  0  0  0  0  0  0
  -27.4890  -28.1390   24.3790 C   0  0  1  0  0  0  0  0  0  0  0  0
  -26.5860  -27.7040   25.5560 C   0  0  0  0  0  1  0  0  0  0  0  0
  -27.3530  -27.0820   23.2570 C   0  0  0  0  0  1  0  0  0  0  0  0
  -28.9580  -28.0910   24.8610 C   0  0  0  0  0  1  0  0  0  0  0  0
  1  5  1  0
  5  3  1  6
  5  2  1  0
  5  4  1  0
  6  8  2  0
  7  6  1  0
  7  1  2  3
  9  7  1  0
 10 19  1  0
 10  6  1  0
 11 17  1  0
 11 19  1  0
 12 17  1  0
 13 14  1  0
 13 12  1  0
 15 14  1  0
 15 24  1  0
 15 16  1  0
 17 16  1  0
 18 11  2  0
 19 20  1  0
 21 22  2  0
 22 41  1  0
 23 22  1  0
 23 26  1  0
 24 21  1  0
 24 25  1  0
 25 23  2  0
 26 27  1  0
 27 28  2  0
 29 32  1  0
 29 28  1  0
 30 29  2  0
 31 30  1  0
 31 26  2  0
 32 33  1  0
 33 38  2  0
 33 34  1  0
 34 35  2  0
 35 36  1  0
 36 40  1  0
 37 36  2  0
 38 37  1  0
 39 38  1  0
 41 42  1  0
 42 45  1  0
 42 44  1  0
 43 41  2  0
 46 47  1  0
 46 21  1  0
 48 46  1  0
 50 49  1  0
 50 10  1  0
 51 52  1  0
 51 50  1  0
 53 55  2  0
 53  1  1  0
 54 53  1  0
 56 54  1  0
 57 54  1  0
 58 59  1  0
 58 57  1  0
 60 61  1  0
 60 59  1  0
 62 61  1  0
 62 64  1  0
 63 74  2  0
 64 69  1  0
 65 73  1  0
 65 75  1  0
 66 68  1  0
 66 72  1  0
 67 73  1  0
 68 67  1  0
 69 68  2  0
 70 64  2  0
 70 71  1  0
 71 66  2  0
 72 65  1  0
 73 63  1  0
 75 77  2  0
 76 75  1  0
 78 76  1  0
 79 88  2  0
 79 84  1  0
 80 76  1  0
 80 84  1  0
 81 80  1  0
 82 83  1  0
 82 81  1  0
 83 79  1  0
 84 85  2  0
 85 86  1  0
 87 86  2  0
 88 87  1  0
 89 63  1  0
 89 99  1  0
 89 90  1  0
 90 93  1  0
 91 90  1  0
 91 95  1  0
 92 91  2  0
 95 94  1  0
 95 97  1  0
 97 96  1  0
 97 98  1  0
 99102  1  1
 99100  1  0
101 99  1  0
M  ISO  4  11 100  19 100  61 101  62 101
M  END
>  <TORSDO>  (78) 
F 27

>  <SCORE>  (78) 
-8.868

>  <name>  (78) 
81

>  <ligand_id>  (78) 
81

>  <original_smiles>  (78) 
[H]OC([H])(C([H])([H])[H])C([H])(C(=O)N([H])C([H])(C(=O)N([H])C([H])([H])C([H])([H])OC([H])([H])C([H])([H])Oc1c([H])c([H])c2c(c1[H])C([H])([H])N(C(=O)C([H])(N([H])C(=O)C([H])(N([H])C([H])([H])[H])C([H])([H])[H])C(C([H])([H])[H])(C([H])([H])[H])C([H])([H])[H])C([H])(C(=O)N([H])C1([H])c3c([H])c([H])c([H])c([H])c3C([H])([H])C([H])([H])C1([H])[H])C2([H])[H])C(C([H])([H])[H])(C([H])([H])[H])C([H])([H])[H])N([H])C(=O)N1C([H])([H])C([H])([H])C([H])([H])C([H])(n2nc(-c3c([H])c([H])c(Oc4c([H])c([H])c(F)c([H])c4F)c([H])c3[H])c(C(=O)N([H])[H])c2N([H])[H])C1([H])[H]

>  <smiles>  (78) 
[H]OC([H])(C([H])([H])[H])C([H])(C(=O)N([H])C([H])(C(=O)N([H])C([H])([H])C([H])([H])OC([H])([H])C([H])([H])Oc1c([H])c([H])c2c(c1[H])C([H])([H])N(C(=O)C([H])(N([H])C(=O)C([H])(N([H])C([H])([H])[H])C([H])([H])[H])C(C([H])([H])[H])(C([H])([H])[H])C([H])([H])[H])C([H])(C(=O)N([H])C1([H])c3c([H])c([H])c([H])c([H])c3C([H])([H])C([H])([H])C1([H])[H])C2([H])[H])C(C([H])([H])[H])(C([H])([H])[H])C([H])([H])[H])N([H])C(=O)N1C([H])([H])C([H])([H])C([H])([H])C([H])(n2nc(-c3c([H])c([H])c(Oc4c([H])c([H])c(F)c([H])c4F)c([H])c3[H])c(C(=O)N([H])[H])c2N([H])[H])C1([H])[H]

$$$$
82:0:0
     RDKit          3D

106113  0  0  1  0  0  0  0  0999 V2000
  -27.5960  -22.2370   20.1340 C   0  0  0  0  0  0  0  0  0  0  0  0
  -28.7440  -22.6170   20.7080 N   0  0  0  0  0  0  0  0  0  0  0  0
  -26.8140  -21.4110   20.6080 O   0  0  0  0  0  0  0  0  0  0  0  0
  -29.2520  -23.3540   20.2370 H   0  0  0  0  0  0  0  0  0  0  0  0
  -27.3190  -22.9200   18.7670 C   0  0  0  0  0  0  0  0  0  0  0  0
  -28.3480  -22.8620   17.9120 N   0  0  0  0  0  0  0  0  0  0  0  0
  -26.2410  -23.4710   18.5330 O   0  0  0  0  0  0  0  0  0  0  0  0
  -29.1400  -22.3070   18.2080 H   0  0  0  0  0  0  0  0  0  0  0  0
  -28.4960  -23.6370   16.6850 C   0  0  0  0  0  2  0  0  0  0  0  0
  -29.5900  -24.6960   16.8830 C   0  0  0  0  0  2  0  0  0  0  0  0
  -29.1630  -25.6070   17.8880 O   0  0  0  0  0  0  0  0  0  0  0  0
  -30.2360  -26.2130   18.5970 C   0  0  0  0  0  2  0  0  0  0  0  0
  -29.6880  -27.3360   19.4860 C   0  0  0  0  0  2  0  0  0  0  0  0
  -28.7550  -26.8000   20.4240 O   0  0  0  0  0  0  0  0  0  0  0  0
  -24.6660  -31.8810   23.2930 C   0  0  0  0  0  0  0  0  0  0  0  0
  -27.5640  -27.4760   20.4310 C   0  0  0  0  0  0  0  0  0  0  0  0
  -23.5710  -30.4200   21.6210 C   0  0  0  0  0  3  0  0  0  0  0  0
  -25.1280  -28.8840   20.3100 C   0  0  0  0  0  0  0  0  0  0  0  0
  -26.0920  -30.8400   21.5390 C   0  0  0  0  0  2  0  0  0  0  0  0
  -26.2400  -29.4590   20.9420 C   0  0  0  0  0  0  0  0  0  0  0  0
  -27.4610  -28.7580   21.0080 C   0  0  0  0  0  3  0  0  0  0  0  0
  -26.4390  -26.8960   19.8140 C   0  0  0  0  0  3  0  0  0  0  0  0
  -25.2190  -27.5970   19.7490 C   0  0  0  0  0  3  0  0  0  0  0  0
  -23.8640  -29.7120   20.2700 C   0  0  0  0  0  2  0  0  0  0  0  0
  -24.7910  -31.0620   22.2100 N   0  0  0  0  0  0  0  0  0  0  0  0
  -23.5540  -32.1390   23.7740 O   0  0  0  0  0  0  0  0  0  0  0  0
  -22.8960  -29.4050   22.5690 C   0  0  0  0  0  0  0  0  0  0  0  0
  -21.5790  -29.2100   22.3930 N   0  0  0  0  0  0  0  0  0  0  0  0
  -23.5540  -28.7940   23.4160 O   0  0  0  0  0  0  0  0  0  0  0  0
  -21.1110  -29.7550   21.6820 H   0  0  0  0  0  0  0  0  0  0  0  0
  -18.1930  -28.0170   22.7900 C   0  0  0  0  0  0  0  0  0  0  0  0
  -20.7400  -28.2750   23.1420 C   0  0  0  0  0  3  0  0  0  0  0  0
  -20.8620  -26.8420   22.5730 C   0  0  0  0  0  2  0  0  0  0  0  0
  -19.7920  -26.5150   21.5260 C   0  0  0  0  0  2  0  0  0  0  0  0
  -18.3910  -26.6640   22.1260 C   0  0  0  0  0  2  0  0  0  0  0  0
  -19.2980  -28.7810   23.2510 C   0  0  0  0  0  0  0  0  0  0  0  0
  -19.0610  -30.0480   23.8280 C   0  0  0  0  0  3  0  0  0  0  0  0
  -17.7530  -30.5510   23.9490 C   0  0  0  0  0  3  0  0  0  0  0  0
  -16.6620  -29.7850   23.5040 C   0  0  0  0  0  3  0  0  0  0  0  0
  -16.8830  -28.5190   22.9310 C   0  0  0  0  0  3  0  0  0  0  0  0
  -25.9090  -32.5480   23.9630 C   0  0  0  0  0  3  0  0  0  0  0  0
  -26.3790  -31.8110   25.2760 C   0  0  1  0  0  0  0  0  0  0  0  0
  -25.2400  -31.5690   26.2950 C   0  0  0  0  0  1  0  0  0  0  0  0
  -27.0070  -30.4400   24.9360 C   0  0  0  0  0  1  0  0  0  0  0  0
  -27.4790  -32.6410   25.9790 C   0  0  0  0  0  1  0  0  0  0  0  0
  -25.5590  -33.9460   24.2470 N   0  0  0  0  0  0  0  0  0  0  0  0
  -25.9140  -34.9870   23.4810 C   0  0  0  0  0  0  0  0  0  0  0  0
  -26.6410  -34.8740   22.4900 O   0  0  0  0  0  0  0  0  0  0  0  0
  -24.9200  -34.1070   25.0110 H   0  0  0  0  0  0  0  0  0  0  0  0
  -24.1730  -36.7350   22.9960 C   0  0  0  0  0  1  0  0  0  0  0  0
  -25.3770  -36.3740   23.8800 C   0  0  0  0  0  3  0  0  0  0  0  0
  -27.4530  -37.3170   24.7940 C   0  0  0  0  0  1  0  0  0  0  0  0
  -26.3950  -37.4450   23.7950 N   0  0  0  0  0  0  0  0  0  0  0  0
  -25.9650  -38.3610   23.9040 H   0  0  0  0  0  0  0  0  0  0  0  0
  -29.3930  -21.9930   21.8550 C   0  0  0  0  0  2  0  0  0  0  0  0
  -30.8660  -21.7160   21.5200 C   0  0  0  0  0  2  0  0  0  0  0  0
  -30.9210  -20.8130   20.4260 O   0  0  0  0  0  0  0  0  0  0  0  0
  -32.2200  -20.6970   19.8580 C   0  0  0  0  0  2  0  0  0  0  0  0
  -32.2200  -19.5190   18.8790 C   0  0  0  0  0  2  0  0  0  0  0  0
  -31.2690  -19.7630   17.8550 O   0  0  0  0  0  0  0  0  0  0  0  0
  -30.9710  -18.5980   17.0950 C   0  0  0  0  0  2  0  0  0  0  0  0
  -29.7460  -18.8830   16.2160 C   0  0  0  0  0  2  0  0  0  0  0  0
  -28.6460  -19.4210   16.9490 O   0  0  0  0  0  0  0  0  0  0  0  0
  -27.9340  -18.5090   17.7820 C   0  0  0  0  0  2  0  0  0  0  0  0
  -28.4390  -18.5190   19.2360 C   0  0  0  0  0  2  0  0  0  0  0  0
  -29.0310  -17.2740   19.5720 O   0  0  0  0  0  0  0  0  0  0  0  0
  -29.6210  -17.2790   20.8680 C   0  0  0  0  0  2  0  0  0  0  0  0
  -29.9440  -15.8270   21.2320 C   0  0  0  0  0  2  0  0  0  0  0  0
  -31.4370  -14.0850   20.1210 C   0  0  0  0  0  0  0  0  0  0  0  0
  -30.9500  -11.9390   19.0320 C   0  0  0  0  0  2  0  0  0  0  0  0
  -29.9900  -12.2010   17.8520 C   0  0  0  0  0  2  0  0  0  0  0  0
  -28.5180  -12.2120   18.3230 C   0  0  0  0  0  2  0  0  0  0  0  0
  -28.2950  -13.0850   19.5890 C   0  0  0  0  0  3  0  0  0  0  0  0
  -29.3600  -12.7350   20.6590 C   0  0  0  0  0  2  0  0  0  0  0  0
  -30.6730  -12.9640   20.0480 N   0  0  0  0  0  0  0  0  0  0  0  0
  -32.5860  -14.1400   19.6800 O   0  0  0  0  0  0  0  0  0  0  0  0
  -30.7870  -15.2530   20.1850 N   0  0  0  0  0  0  0  0  0  0  0  0
  -31.3270  -15.9720   19.7310 H   0  0  0  0  0  0  0  0  0  0  0  0
  -25.9970  -13.9300   20.3830 C   0  0  0  0  0  0  0  0  0  0  0  0
  -24.8630  -13.2640   20.7650 C   0  0  0  0  0  0  0  0  0  0  0  0
  -25.1750  -11.8720   20.6840 C   0  0  0  0  0  0  0  0  0  0  0  0
  -26.9360  -12.9470   20.1020 N   0  0  0  0  0  0  0  0  0  0  0  0
  -26.4430  -11.7040   20.3340 N   0  0  0  0  0  0  0  0  0  0  0  0
  -24.3260  -10.6880   20.8650 C   0  0  0  0  0  0  0  0  0  0  0  0
  -24.6830   -9.6530   21.7570 C   0  0  0  0  0  3  0  0  0  0  0  0
  -23.8420   -8.5320   21.9280 C   0  0  0  0  0  3  0  0  0  0  0  0
  -22.6290   -8.4390   21.2050 C   0  0  0  0  0  0  0  0  0  0  0  0
  -22.2880   -9.4620   20.3020 C   0  0  0  0  0  3  0  0  0  0  0  0
  -23.1280  -10.5740   20.1290 C   0  0  0  0  0  3  0  0  0  0  0  0
  -21.7630   -7.3760   21.2860 O   0  0  0  0  0  0  0  0  0  0  0  0
  -21.6510   -6.6240   22.4280 C   0  0  0  0  0  0  0  0  0  0  0  0
  -21.3320   -7.2060   23.6750 C   0  0  0  0  0  3  0  0  0  0  0  0
  -21.1590   -6.3880   24.8100 C   0  0  0  0  0  3  0  0  0  0  0  0
  -21.2940   -4.9920   24.6990 C   0  0  0  0  0  0  0  0  0  0  0  0
  -21.6060   -4.4100   23.4570 C   0  0  0  0  0  3  0  0  0  0  0  0
  -21.7810   -5.2250   22.3240 C   0  0  0  0  0  0  0  0  0  0  0  0
  -22.0600   -4.6590   21.1260 F   0  0  0  0  0  0  0  0  0  0  0  0
  -21.1190   -4.2040   25.7860 F   0  0  0  0  0  0  0  0  0  0  0  0
  -23.5330  -13.8780   21.0970 C   0  0  0  0  0  0  0  0  0  0  0  0
  -22.7710  -13.2480   21.9860 N   0  0  0  0  0  0  0  0  0  0  0  0
  -23.1810  -14.9490   20.6060 O   0  0  0  0  0  0  0  0  0  0  0  0
  -23.0710  -12.3810   22.4080 H   0  0  0  0  0  0  0  0  0  0  0  0
  -21.8800  -13.6390   22.2510 H   0  0  0  0  0  0  0  0  0  0  0  0
  -26.3040  -15.2790   20.2380 N   0  0  0  0  0  0  0  0  0  0  0  0
  -25.6220  -16.0050   20.4230 H   0  0  0  0  0  0  0  0  0  0  0  0
  -27.2130  -15.6400   19.9620 H   0  0  0  0  0  0  0  0  0  0  0  0
  1  3  2  0
  1  2  1  0
  2 55  1  0
  4  2  1  0
  5  1  1  0
  6  8  1  0
  6  5  1  0
  7  5  2  0
  9 10  1  0
  9  6  1  0
 10 11  1  0
 11 12  1  0
 12 13  1  0
 13 14  1  0
 14 16  1  0
 15 26  2  0
 16 21  1  0
 17 25  1  0
 17 27  1  0
 18 20  1  0
 19 25  1  0
 20 21  2  0
 20 19  1  0
 22 16  2  0
 23 22  1  0
 23 18  2  0
 24 18  1  0
 24 17  1  0
 25 15  1  0
 27 29  2  0
 28 27  1  0
 30 28  1  0
 31 40  2  0
 31 36  1  0
 32 28  1  0
 32 36  1  0
 33 32  1  0
 34 35  1  0
 34 33  1  0
 35 31  1  0
 36 37  2  0
 37 38  1  0
 39 38  2  0
 40 39  1  0
 41 15  1  0
 41 46  1  0
 41 42  1  0
 42 45  1  1
 42 43  1  0
 44 42  1  0
 46 49  1  0
 47 51  1  0
 47 46  1  0
 48 47  2  0
 51 50  1  0
 53 51  1  0
 53 54  1  0
 53 52  1  0
 56 55  1  0
 57 56  1  0
 58 57  1  0
 59 58  1  0
 60 59  1  0
 61 60  1  0
 62 63  1  0
 62 61  1  0
 63 64  1  0
 64 65  1  0
 65 66  1  0
 66 67  1  0
 67 68  1  0
 69 77  1  0
 70 75  1  0
 71 72  1  0
 71 70  1  0
 73 72  1  0
 73 82  1  0
 73 74  1  0
 75 69  1  0
 75 74  1  0
 76 69  2  0
 77 68  1  0
 78 77  1  0
 79 80  2  0
 80 99  1  0
 81 80  1  0
 81 84  1  0
 82 83  1  0
 82 79  1  0
 83 81  2  0
 84 85  1  0
 85 86  2  0
 87 90  1  0
 87 86  1  0
 88 87  2  0
 89 88  1  0
 89 84  2  0
 90 91  1  0
 91 92  1  0
 92 93  2  0
 94 93  1  0
 94 98  1  0
 95 94  2  0
 96 91  2  0
 96 95  1  0
 97 96  1  0
 99100  1  0
100103  1  0
100102  1  0
101 99  2  0
104 79  1  0
104105  1  0
106104  1  0
M  ISO  4  13 101  14 101  69 100  77 100
M  END
>  <TORSDO>  (79) 
F 36

>  <SCORE>  (79) 
-9.366

>  <name>  (79) 
82

>  <ligand_id>  (79) 
82

>  <original_smiles>  (79) 
[H]c1c([H])c([H])c2c(c1[H])C([H])([H])C([H])([H])C([H])([H])C2([H])N([H])C(=O)C1([H])N(C(=O)C([H])(N([H])C(=O)C([H])(N([H])C([H])([H])[H])C([H])([H])[H])C(C([H])([H])[H])(C([H])([H])[H])C([H])([H])[H])C([H])([H])c2c([H])c(OC([H])([H])C([H])([H])OC([H])([H])C([H])([H])N([H])C(=O)C(=O)N([H])C([H])([H])C([H])([H])OC([H])([H])C([H])([H])OC([H])([H])C([H])([H])OC([H])([H])C([H])([H])OC([H])([H])C([H])([H])N([H])C(=O)N3C([H])([H])C([H])([H])C([H])([H])C([H])(n4nc(-c5c([H])c([H])c(Oc6c([H])c([H])c(F)c([H])c6F)c([H])c5[H])c(C(=O)N([H])[H])c4N([H])[H])C3([H])[H])c([H])c([H])c2C1([H])[H]

>  <smiles>  (79) 
[H]c1c([H])c([H])c2c(c1[H])C([H])([H])C([H])([H])C([H])([H])C2([H])N([H])C(=O)C1([H])N(C(=O)C([H])(N([H])C(=O)C([H])(N([H])C([H])([H])[H])C([H])([H])[H])C(C([H])([H])[H])(C([H])([H])[H])C([H])([H])[H])C([H])([H])c2c([H])c(OC([H])([H])C([H])([H])OC([H])([H])C([H])([H])N([H])C(=O)C(=O)N([H])C([H])([H])C([H])([H])OC([H])([H])C([H])([H])OC([H])([H])C([H])([H])OC([H])([H])C([H])([H])OC([H])([H])C([H])([H])N([H])C(=O)N3C([H])([H])C([H])([H])C([H])([H])C([H])(n4nc(-c5c([H])c([H])c(Oc6c([H])c([H])c(F)c([H])c6F)c([H])c5[H])c(C(=O)N([H])[H])c4N([H])[H])C3([H])[H])c([H])c([H])c2C1([H])[H]

$$$$
83:0:0
     RDKit          3D

107114  0  0  1  0  0  0  0  0999 V2000
  -28.2770  -23.9180   25.4770 C   0  0  0  0  0  2  0  0  0  0  0  0
  -28.1290  -24.4060   26.8050 O   0  0  0  0  0  0  0  0  0  0  0  0
  -28.0770  -25.8220   26.9110 C   0  0  0  0  0  2  0  0  0  0  0  0
  -26.6240  -26.3160   27.0780 C   0  0  0  0  0  2  0  0  0  0  0  0
  -25.6920  -25.9440   25.9120 C   0  0  0  0  0  2  0  0  0  0  0  0
  -24.2530  -26.4820   26.0150 C   0  0  0  0  0  2  0  0  0  0  0  0
  -23.8530  -27.0660   24.7810 O   0  0  0  0  0  0  0  0  0  0  0  0
  -23.2300  -26.2020   23.8290 C   0  0  0  0  0  2  0  0  0  0  0  0
  -24.1250  -25.0600   23.3060 C   0  0  0  0  0  2  0  0  0  0  0  0
  -25.4030  -25.5500   22.8950 O   0  0  0  0  0  0  0  0  0  0  0  0
  -25.8220  -25.0830   21.6180 C   0  0  0  0  0  2  0  0  0  0  0  0
  -27.3510  -25.2210   21.4810 C   0  0  0  0  0  2  0  0  0  0  0  0
  -27.8960  -25.1650   20.0270 C   0  0  0  0  0  2  0  0  0  0  0  0
  -28.0570  -26.4400   19.3940 O   0  0  0  0  0  0  0  0  0  0  0  0
  -24.8880  -31.1490   23.5920 C   0  0  0  0  0  0  0  0  0  0  0  0
  -26.9900  -27.2850   19.5260 C   0  0  0  0  0  0  0  0  0  0  0  0
  -23.5320  -30.3600   21.6690 C   0  0  0  0  0  3  0  0  0  0  0  0
  -24.8010  -29.0160   19.9090 C   0  0  0  0  0  0  0  0  0  0  0  0
  -26.0900  -30.4070   21.5470 C   0  0  0  0  0  2  0  0  0  0  0  0
  -26.0050  -29.2460   20.5850 C   0  0  0  0  0  0  0  0  0  0  0  0
  -27.1080  -28.3980   20.3740 C   0  0  0  0  0  3  0  0  0  0  0  0
  -25.7690  -27.0400   18.8650 C   0  0  0  0  0  3  0  0  0  0  0  0
  -24.6750  -27.9130   19.0470 C   0  0  0  0  0  3  0  0  0  0  0  0
  -23.6780  -29.9940   20.1670 C   0  0  0  0  0  2  0  0  0  0  0  0
  -24.8520  -30.6370   22.3280 N   0  0  0  0  0  0  0  0  0  0  0  0
  -23.8450  -31.4310   24.1950 O   0  0  0  0  0  0  0  0  0  0  0  0
  -22.7280  -29.2420   22.3650 C   0  0  0  0  0  0  0  0  0  0  0  0
  -21.3940  -29.2760   22.2020 N   0  0  0  0  0  0  0  0  0  0  0  0
  -23.2970  -28.3530   23.0010 O   0  0  0  0  0  0  0  0  0  0  0  0
  -21.0020  -30.0580   21.6990 H   0  0  0  0  0  0  0  0  0  0  0  0
  -17.8800  -28.4540   22.3770 C   0  0  0  0  0  0  0  0  0  0  0  0
  -20.4370  -28.3000   22.7230 C   0  0  0  0  0  3  0  0  0  0  0  0
  -20.3770  -27.0370   21.8300 C   0  0  0  0  0  2  0  0  0  0  0  0
  -19.2810  -27.1000   20.7620 C   0  0  0  0  0  2  0  0  0  0  0  0
  -17.9070  -27.2790   21.4130 C   0  0  0  0  0  2  0  0  0  0  0  0
  -19.0700  -28.9390   22.9800 C   0  0  0  0  0  0  0  0  0  0  0  0
  -18.9920  -30.0570   23.8440 C   0  0  0  0  0  3  0  0  0  0  0  0
  -17.7610  -30.6800   24.1040 C   0  0  0  0  0  3  0  0  0  0  0  0
  -16.5820  -30.1820   23.5150 C   0  0  0  0  0  3  0  0  0  0  0  0
  -16.6430  -29.0710   22.6600 C   0  0  0  0  0  3  0  0  0  0  0  0
  -26.2450  -31.4150   24.3190 C   0  0  0  0  0  3  0  0  0  0  0  0
  -26.6040  -30.3150   25.3880 C   0  0  1  0  0  0  0  0  0  0  0  0
  -25.4670  -30.0470   26.3990 C   0  0  0  0  0  1  0  0  0  0  0  0
  -26.9500  -28.9700   24.7090 C   0  0  0  0  0  1  0  0  0  0  0  0
  -27.8670  -30.7450   26.1750 C   0  0  0  0  0  1  0  0  0  0  0  0
  -26.1590  -32.7400   24.9500 N   0  0  0  0  0  0  0  0  0  0  0  0
  -26.6880  -33.8620   24.4460 C   0  0  0  0  0  0  0  0  0  0  0  0
  -27.3820  -33.8730   23.4270 O   0  0  0  0  0  0  0  0  0  0  0  0
  -25.5760  -32.8100   25.7690 H   0  0  0  0  0  0  0  0  0  0  0  0
  -25.2830  -35.9390   24.4550 C   0  0  0  0  0  1  0  0  0  0  0  0
  -26.4000  -35.1800   25.1860 C   0  0  0  0  0  3  0  0  0  0  0  0
  -28.5920  -35.5130   26.2440 C   0  0  0  0  0  1  0  0  0  0  0  0
  -27.5910  -36.0530   25.3250 N   0  0  0  0  0  0  0  0  0  0  0  0
  -27.3270  -36.9770   25.6480 H   0  0  0  0  0  0  0  0  0  0  0  0
  -29.6370  -23.2380   25.3260 C   0  0  0  0  0  2  0  0  0  0  0  0
  -29.8530  -22.6850   23.9150 C   0  0  0  0  0  2  0  0  0  0  0  0
  -30.9810  -21.8360   23.9770 O   0  0  0  0  0  0  0  0  0  0  0  0
  -31.2900  -21.2340   22.7360 C   0  0  0  0  0  2  0  0  0  0  0  0
  -32.5390  -20.3750   22.9640 C   0  0  0  0  0  2  0  0  0  0  0  0
  -32.9730  -19.5720   21.7370 C   0  0  0  0  0  2  0  0  0  0  0  0
  -31.8320  -17.5950   20.7480 C   0  0  0  0  0  0  0  0  0  0  0  0
  -31.8280  -18.8500   21.2000 N   0  0  0  0  0  0  0  0  0  0  0  0
  -32.8840  -16.9730   20.6130 O   0  0  0  0  0  0  0  0  0  0  0  0
  -30.9410  -19.3350   21.1800 H   0  0  0  0  0  0  0  0  0  0  0  0
  -30.4390  -17.0500   20.3300 C   0  0  0  0  0  3  0  0  0  0  0  0
  -30.9080  -14.5150   20.6550 C   0  0  0  0  0  0  0  0  0  0  0  0
  -30.4850  -12.5450   19.3090 C   0  0  0  0  0  2  0  0  0  0  0  0
  -29.5990  -13.0240   18.1440 C   0  0  0  0  0  2  0  0  0  0  0  0
  -28.1050  -12.9720   18.5330 C   0  0  0  0  0  2  0  0  0  0  0  0
  -27.7920  -13.5760   19.9320 C   0  0  0  0  0  3  0  0  0  0  0  0
  -28.8280  -13.1330   20.9900 C   0  0  0  0  0  2  0  0  0  0  0  0
  -30.1730  -13.3990   20.4590 N   0  0  0  0  0  0  0  0  0  0  0  0
  -32.1200  -14.5390   20.4890 O   0  0  0  0  0  0  0  0  0  0  0  0
  -30.1590  -15.6350   20.6710 N   0  0  0  0  0  0  0  0  0  0  0  0
  -29.1800  -15.4360   20.7790 H   0  0  0  0  0  0  0  0  0  0  0  0
  -25.3560  -14.1740   20.5100 C   0  0  0  0  0  0  0  0  0  0  0  0
  -24.2790  -13.3970   20.8270 C   0  0  0  0  0  0  0  0  0  0  0  0
  -24.7530  -12.0500   20.8370 C   0  0  0  0  0  0  0  0  0  0  0  0
  -26.4230  -13.3000   20.3480 N   0  0  0  0  0  0  0  0  0  0  0  0
  -26.0590  -12.0180   20.6050 N   0  0  0  0  0  0  0  0  0  0  0  0
  -24.0330  -10.7820   20.9960 C   0  0  0  0  0  0  0  0  0  0  0  0
  -24.4890   -9.7790   21.8790 C   0  0  0  0  0  3  0  0  0  0  0  0
  -23.7690   -8.5760   22.0290 C   0  0  0  0  0  3  0  0  0  0  0  0
  -22.5770   -8.3680   21.2960 C   0  0  0  0  0  0  0  0  0  0  0  0
  -22.1380   -9.3590   20.4020 C   0  0  0  0  0  3  0  0  0  0  0  0
  -22.8590  -10.5550   20.2490 C   0  0  0  0  0  3  0  0  0  0  0  0
  -21.8240   -7.2190   21.3590 O   0  0  0  0  0  0  0  0  0  0  0  0
  -21.8230   -6.4210   22.4750 C   0  0  0  0  0  0  0  0  0  0  0  0
  -21.5030   -6.9270   23.7530 C   0  0  0  0  0  3  0  0  0  0  0  0
  -21.4450   -6.0570   24.8610 C   0  0  0  0  0  3  0  0  0  0  0  0
  -21.6980   -4.6820   24.6910 C   0  0  0  0  0  0  0  0  0  0  0  0
  -22.0110   -4.1770   23.4190 C   0  0  0  0  0  3  0  0  0  0  0  0
  -22.0710   -5.0430   22.3120 C   0  0  0  0  0  0  0  0  0  0  0  0
  -22.3530   -4.5470   21.0840 F   0  0  0  0  0  0  0  0  0  0  0  0
  -21.6340   -3.8460   25.7530 F   0  0  0  0  0  0  0  0  0  0  0  0
  -22.8650  -13.8640   21.0150 C   0  0  0  0  0  0  0  0  0  0  0  0
  -22.1120  -13.2040   21.8900 N   0  0  0  0  0  0  0  0  0  0  0  0
  -22.4310  -14.8490   20.4200 O   0  0  0  0  0  0  0  0  0  0  0  0
  -22.4730  -12.4080   22.3940 H   0  0  0  0  0  0  0  0  0  0  0  0
  -21.1620  -13.5020   22.0590 H   0  0  0  0  0  0  0  0  0  0  0  0
  -25.5160  -15.5460   20.3250 N   0  0  0  0  0  0  0  0  0  0  0  0
  -24.7280  -16.1820   20.3790 H   0  0  0  0  0  0  0  0  0  0  0  0
  -26.3660  -15.9990   20.0170 H   0  0  0  0  0  0  0  0  0  0  0  0
  -30.0920  -18.9390   18.6410 C   0  0  0  0  0  1  0  0  0  0  0  0
  -28.6690  -16.9460   18.4440 C   0  0  0  0  0  1  0  0  0  0  0  0
  -31.0780  -16.7820   17.8080 C   0  0  0  0  0  1  0  0  0  0  0  0
  -30.0940  -17.4020   18.8270 C   0  0  2  0  0  0  0  0  0  0  0  0
  1  2  1  0
  2  3  1  0
  3  4  1  0
  5  6  1  0
  5  4  1  0
  7  6  1  0
  8  7  1  0
  9  8  1  0
 10  9  1  0
 11 10  1  0
 12 11  1  0
 13 12  1  0
 14 16  1  0
 14 13  1  0
 15 26  2  0
 16 21  1  0
 17 25  1  0
 17 27  1  0
 18 24  1  0
 18 20  1  0
 19 25  1  0
 20 19  1  0
 21 20  2  0
 22 23  1  0
 22 16  2  0
 23 18  2  0
 24 17  1  0
 25 15  1  0
 27 29  2  0
 28 27  1  0
 30 28  1  0
 31 40  2  0
 31 36  1  0
 32 28  1  0
 32 36  1  0
 33 32  1  0
 34 35  1  0
 34 33  1  0
 35 31  1  0
 36 37  2  0
 37 38  1  0
 39 38  2  0
 40 39  1  0
 41 15  1  0
 41 46  1  0
 41 42  1  0
 42 45  1  1
 42 43  1  0
 44 42  1  0
 46 49  1  0
 47 46  1  0
 47 51  1  0
 48 47  2  0
 51 50  1  0
 51 53  1  0
 53 54  1  0
 53 52  1  0
 55  1  1  0
 56 57  1  0
 56 55  1  0
 58 59  1  0
 58 57  1  0
 60 59  1  0
 61 62  1  0
 62 60  1  0
 63 61  2  0
 64 62  1  0
 65 74  1  0
 65 61  1  0
 66 74  1  0
 67 72  1  0
 68 69  1  0
 68 67  1  0
 70 69  1  0
 70 79  1  0
 70 71  1  0
 72 66  1  0
 72 71  1  0
 73 66  2  0
 74 75  1  0
 76 77  2  0
 77 78  1  0
 77 96  1  0
 78 81  1  0
 79 76  1  0
 79 80  1  0
 80 78  2  0
 81 82  1  0
 82 83  2  0
 84 87  1  0
 84 83  1  0
 85 84  2  0
 86 85  1  0
 86 81  2  0
 87 88  1  0
 88 89  1  0
 89 90  2  0
 91 90  1  0
 91 95  1  0
 92 91  2  0
 93 88  2  0
 93 92  1  0
 94 93  1  0
 96 97  1  0
 97100  1  0
 97 99  1  0
 98 96  2  0
101102  1  0
101 76  1  0
103101  1  0
107104  1  1
105107  1  0
106107  1  0
107 65  1  0
M  ISO  4  13 101  14 101  66 100  74 100
M  END
>  <TORSDO>  (80) 
F 37

>  <SCORE>  (80) 
-4.443

>  <name>  (80) 
83

>  <ligand_id>  (80) 
83

>  <original_smiles>  (80) 
[H]c1c([H])c([H])c2c(c1[H])C([H])([H])C([H])([H])C([H])([H])C2([H])N([H])C(=O)C1([H])N(C(=O)C([H])(N([H])C(=O)C([H])(N([H])C([H])([H])[H])C([H])([H])[H])C(C([H])([H])[H])(C([H])([H])[H])C([H])([H])[H])C([H])([H])c2c([H])c(OC([H])([H])C([H])([H])C([H])([H])OC([H])([H])C([H])([H])OC([H])([H])C([H])([H])C([H])([H])C([H])([H])OC([H])([H])C([H])([H])C([H])([H])OC([H])([H])C([H])([H])C([H])([H])N([H])C(=O)C([H])(N([H])C(=O)N3C([H])([H])C([H])([H])C([H])([H])C([H])(n4nc(-c5c([H])c([H])c(Oc6c([H])c([H])c(F)c([H])c6F)c([H])c5[H])c(C(=O)N([H])[H])c4N([H])[H])C3([H])[H])C(C([H])([H])[H])(C([H])([H])[H])C([H])([H])[H])c([H])c([H])c2C1([H])[H]

>  <smiles>  (80) 
[H]c1c([H])c([H])c2c(c1[H])C([H])([H])C([H])([H])C([H])([H])C2([H])N([H])C(=O)C1([H])N(C(=O)C([H])(N([H])C(=O)C([H])(N([H])C([H])([H])[H])C([H])([H])[H])C(C([H])([H])[H])(C([H])([H])[H])C([H])([H])[H])C([H])([H])c2c([H])c(OC([H])([H])C([H])([H])C([H])([H])OC([H])([H])C([H])([H])OC([H])([H])C([H])([H])C([H])([H])C([H])([H])OC([H])([H])C([H])([H])C([H])([H])OC([H])([H])C([H])([H])C([H])([H])N([H])C(=O)C([H])(N([H])C(=O)N3C([H])([H])C([H])([H])C([H])([H])C([H])(n4nc(-c5c([H])c([H])c(Oc6c([H])c([H])c(F)c([H])c6F)c([H])c5[H])c(C(=O)N([H])[H])c4N([H])[H])C3([H])[H])C(C([H])([H])[H])(C([H])([H])[H])C([H])([H])[H])c([H])c([H])c2C1([H])[H]

$$$$
84:0:0
     RDKit          3D

109116  0  0  1  0  0  0  0  0999 V2000
  -25.2350  -25.6630   21.2310 C   0  0  0  0  0  0  0  0  0  0  0  0
  -26.4700  -25.3630   21.6520 N   0  0  0  0  0  0  0  0  0  0  0  0
  -24.7080  -26.7620   21.4170 O   0  0  0  0  0  0  0  0  0  0  0  0
  -26.8490  -24.4440   21.4630 H   0  0  0  0  0  0  0  0  0  0  0  0
  -24.4510  -24.5500   20.5090 C   0  0  0  0  0  3  0  0  0  0  0  0
  -24.5080  -24.7280   19.0420 N   0  0  0  0  0  4  0  0  0  0  0  0
  -24.0430  -23.9530   18.6010 H   0  0  0  0  0  0  0  0  0  0  0  0
  -23.9560  -25.5530   18.8740 H   0  0  0  0  0  0  0  0  0  0  0  0
  -25.8530  -24.9220   18.4340 C   0  0  0  0  0  2  0  0  0  0  0  0
  -25.8620  -26.1980   17.5770 C   0  0  0  0  0  2  0  0  0  0  0  0
  -27.2430  -26.8280   17.2660 C   0  0  0  0  0  2  0  0  0  0  0  0
  -27.2790  -28.2700   17.2680 O   0  0  0  0  0  0  0  0  0  0  0  0
  -24.1760  -30.3450   23.3320 C   0  0  0  0  0  0  0  0  0  0  0  0
  -26.2080  -28.8850   17.8720 C   0  0  0  0  0  0  0  0  0  0  0  0
  -22.7330  -30.3010   21.3270 C   0  0  0  0  0  3  0  0  0  0  0  0
  -23.9430  -30.0330   19.1040 C   0  0  0  0  0  0  0  0  0  0  0  0
  -25.2520  -30.7120   21.1200 C   0  0  0  0  0  2  0  0  0  0  0  0
  -25.1850  -30.0570   19.7580 C   0  0  0  0  0  0  0  0  0  0  0  0
  -26.3270  -29.4790   19.1500 C   0  0  0  0  0  3  0  0  0  0  0  0
  -24.9690  -28.9430   17.2020 C   0  0  0  0  0  3  0  0  0  0  0  0
  -23.8270  -29.4660   17.8250 C   0  0  0  0  0  3  0  0  0  0  0  0
  -22.7680  -30.6560   19.8190 C   0  0  0  0  0  2  0  0  0  0  0  0
  -24.0800  -30.4230   21.9770 N   0  0  0  0  0  0  0  0  0  0  0  0
  -23.1730  -30.2110   24.0450 O   0  0  0  0  0  0  0  0  0  0  0  0
  -22.1030  -28.8980   21.4870 C   0  0  0  0  0  0  0  0  0  0  0  0
  -20.7700  -28.8190   21.3450 N   0  0  0  0  0  0  0  0  0  0  0  0
  -22.8090  -27.9110   21.7100 O   0  0  0  0  0  0  0  0  0  0  0  0
  -20.2640  -29.6750   21.1660 H   0  0  0  0  0  0  0  0  0  0  0  0
  -17.3810  -27.5700   21.3810 C   0  0  0  0  0  0  0  0  0  0  0  0
  -19.9680  -27.5980   21.4160 C   0  0  0  0  0  3  0  0  0  0  0  0
  -19.8970  -26.9000   20.0370 C   0  0  0  0  0  2  0  0  0  0  0  0
  -18.6650  -27.3020   19.2160 C   0  0  0  0  0  2  0  0  0  0  0  0
  -17.3780  -26.9840   19.9800 C   0  0  0  0  0  2  0  0  0  0  0  0
  -18.5990  -27.8660   22.0510 C   0  0  0  0  0  0  0  0  0  0  0  0
  -18.5460  -28.4360   23.3410 C   0  0  0  0  0  3  0  0  0  0  0  0
  -17.3110  -28.7020   23.9620 C   0  0  0  0  0  3  0  0  0  0  0  0
  -16.1100  -28.3970   23.2990 C   0  0  0  0  0  3  0  0  0  0  0  0
  -16.1470  -27.8310   22.0130 C   0  0  0  0  0  3  0  0  0  0  0  0
  -25.5520  -30.4490   24.0590 C   0  0  0  0  0  3  0  0  0  0  0  0
  -25.7000  -31.8300   24.5360 N   0  0  0  0  0  0  0  0  0  0  0  0
  -26.5240  -32.7390   23.9980 C   0  0  0  0  0  0  0  0  0  0  0  0
  -27.3040  -32.4720   23.0800 O   0  0  0  0  0  0  0  0  0  0  0  0
  -25.0460  -32.1390   25.2440 H   0  0  0  0  0  0  0  0  0  0  0  0
  -25.7180  -35.0850   23.5900 C   0  0  0  0  0  1  0  0  0  0  0  0
  -26.4780  -34.1690   24.5640 C   0  0  0  0  0  3  0  0  0  0  0  0
  -28.5080  -34.0500   25.9380 C   0  0  0  0  0  1  0  0  0  0  0  0
  -27.8140  -34.7350   24.8490 N   0  0  0  0  0  0  0  0  0  0  0  0
  -27.7450  -35.7210   25.0890 H   0  0  0  0  0  0  0  0  0  0  0  0
  -25.7050  -29.4220   25.2470 C   0  0  1  0  0  0  0  0  0  0  0  0
  -24.4950  -29.4040   26.2100 C   0  0  0  0  0  1  0  0  0  0  0  0
  -25.8950  -27.9860   24.7070 C   0  0  0  0  0  1  0  0  0  0  0  0
  -26.9740  -29.7550   26.0670 C   0  0  0  0  0  1  0  0  0  0  0  0
  -22.9690  -24.5170   20.9800 C   0  0  0  0  0  2  0  0  0  0  0  0
  -22.0980  -25.3260   20.1870 O   0  0  0  0  0  0  0  0  0  0  0  0
  -22.2660  -26.2470   20.3780 H   0  0  0  0  0  0  0  0  0  0  0  0
  -27.3390  -26.1550   22.5210 C   0  0  0  0  0  3  0  0  0  0  0  0
  -27.8680  -27.4240   21.8260 C   0  0  0  0  0  0  0  0  0  0  0  0
  -27.6320  -28.5920   22.4090 N   0  0  0  0  0  0  0  0  0  0  0  0
  -28.4920  -27.3500   20.7670 O   0  0  0  0  0  0  0  0  0  0  0  0
  -27.1030  -28.6390   23.2680 H   0  0  0  0  0  0  0  0  0  0  0  0
  -27.9540  -29.4490   21.9840 H   0  0  0  0  0  0  0  0  0  0  0  0
  -28.5140  -25.2400   22.9400 C   0  0  0  0  0  2  0  0  0  0  0  0
  -28.7290  -24.2770   21.9160 O   0  0  0  0  0  0  0  0  0  0  0  0
  -30.0340  -23.7210   21.9100 C   0  0  0  0  0  2  0  0  0  0  0  0
  -30.6290  -24.0170   20.5330 C   0  0  0  0  0  2  0  0  0  0  0  0
  -30.8100  -25.4250   20.4350 O   0  0  0  0  0  0  0  0  0  0  0  0
  -31.3620  -25.8040   19.1870 C   0  0  0  0  0  2  0  0  0  0  0  0
  -30.8680  -27.2030   18.8040 C   0  0  0  0  0  2  0  0  0  0  0  0
  -31.6580  -27.6810   17.7210 O   0  0  0  0  0  0  0  0  0  0  0  0
  -31.0290  -28.7340   17.0030 C   0  0  0  0  0  2  0  0  0  0  0  0
  -32.0320  -29.3190   16.0020 C   0  0  0  0  0  2  0  0  0  0  0  0
  -33.1010  -28.3380   13.9960 C   0  0  0  0  0  0  0  0  0  0  0  0
  -33.9640  -27.1290   12.0310 C   0  0  0  0  0  2  0  0  0  0  0  0
  -32.8310  -26.3610   11.3280 C   0  0  0  0  0  2  0  0  0  0  0  0
  -32.6450  -24.9660   11.9520 C   0  0  0  0  0  2  0  0  0  0  0  0
  -32.5480  -25.0220   13.5000 C   0  0  0  0  0  3  0  0  0  0  0  0
  -33.6810  -25.8840   14.1000 C   0  0  0  0  0  2  0  0  0  0  0  0
  -33.6410  -27.2130   13.4640 N   0  0  0  0  0  0  0  0  0  0  0  0
  -32.9390  -29.3780   13.3530 O   0  0  0  0  0  0  0  0  0  0  0  0
  -32.7350  -28.2620   15.2790 N   0  0  0  0  0  0  0  0  0  0  0  0
  -32.9270  -27.4060   15.7820 H   0  0  0  0  0  0  0  0  0  0  0  0
  -31.5730  -22.6820   13.9360 C   0  0  0  0  0  0  0  0  0  0  0  0
  -32.0630  -21.6020   14.6230 C   0  0  0  0  0  0  0  0  0  0  0  0
  -33.3240  -22.0100   15.1540 C   0  0  0  0  0  0  0  0  0  0  0  0
  -32.5230  -23.6810   14.0770 N   0  0  0  0  0  0  0  0  0  0  0  0
  -33.5560  -23.2830   14.8620 N   0  0  0  0  0  0  0  0  0  0  0  0
  -34.3470  -21.2480   15.8800 C   0  0  0  0  0  0  0  0  0  0  0  0
  -35.0680  -21.8210   16.9510 C   0  0  0  0  0  3  0  0  0  0  0  0
  -36.0370  -21.0640   17.6460 C   0  0  0  0  0  3  0  0  0  0  0  0
  -36.2870  -19.7230   17.2750 C   0  0  0  0  0  0  0  0  0  0  0  0
  -35.5830  -19.1660   16.1930 C   0  0  0  0  0  3  0  0  0  0  0  0
  -34.6220  -19.9190   15.5010 C   0  0  0  0  0  3  0  0  0  0  0  0
  -37.2260  -18.9170   17.8750 O   0  0  0  0  0  0  0  0  0  0  0  0
  -37.8220  -19.2680   19.0600 C   0  0  0  0  0  0  0  0  0  0  0  0
  -37.0750  -19.4650   20.2420 C   0  0  0  0  0  3  0  0  0  0  0  0
  -37.7360  -19.7590   21.4520 C   0  0  0  0  0  3  0  0  0  0  0  0
  -39.1400  -19.8440   21.4850 C   0  0  0  0  0  0  0  0  0  0  0  0
  -39.8860  -19.6370   20.3120 C   0  0  0  0  0  3  0  0  0  0  0  0
  -39.2280  -19.3490   19.1030 C   0  0  0  0  0  0  0  0  0  0  0  0
  -39.9510  -19.1310   17.9790 F   0  0  0  0  0  0  0  0  0  0  0  0
  -39.7770  -20.1180   22.6480 F   0  0  0  0  0  0  0  0  0  0  0  0
  -31.4420  -20.2380   14.7070 C   0  0  0  0  0  0  0  0  0  0  0  0
  -31.6990  -19.5150   15.7940 N   0  0  0  0  0  0  0  0  0  0  0  0
  -30.6840  -19.8240   13.8330 O   0  0  0  0  0  0  0  0  0  0  0  0
  -32.3020  -19.8650   16.5240 H   0  0  0  0  0  0  0  0  0  0  0  0
  -31.2870  -18.5980   15.8950 H   0  0  0  0  0  0  0  0  0  0  0  0
  -30.4180  -22.8880   13.1890 N   0  0  0  0  0  0  0  0  0  0  0  0
  -29.7420  -22.1500   13.0240 H   0  0  0  0  0  0  0  0  0  0  0  0
  -30.1980  -23.7480   12.7030 H   0  0  0  0  0  0  0  0  0  0  0  0
  1  3  2  0
  1  2  1  0
  2 56  1  0
  4  2  1  0
  5 53  1  0
  5  1  1  0
  6  5  1  0
  7  6  1  0
  8  6  1  0
  9  6  1  0
 10  9  1  0
 11 12  1  0
 11 10  1  0
 12 14  1  0
 13 24  2  0
 14 19  1  0
 15 25  1  0
 15 23  1  0
 16 18  1  0
 16 22  1  0
 17 23  1  0
 18 17  1  0
 19 18  2  0
 20 21  1  0
 20 14  2  0
 21 16  2  0
 22 15  1  0
 23 13  1  0
 25 27  2  0
 26 25  1  0
 28 26  1  0
 29 38  2  0
 29 34  1  0
 30 26  1  0
 30 34  1  0
 31 30  1  0
 32 33  1  0
 32 31  1  0
 33 29  1  0
 34 35  2  0
 35 36  1  0
 37 36  2  0
 38 37  1  0
 39 13  1  0
 39 40  1  0
 39 49  1  0
 40 43  1  0
 41 40  1  0
 41 45  1  0
 42 41  2  0
 45 44  1  0
 45 47  1  0
 47 48  1  0
 47 46  1  0
 49 52  1  1
 49 50  1  0
 51 49  1  0
 54 55  1  0
 54 53  1  0
 56 62  1  0
 57 58  1  0
 57 56  1  0
 58 60  1  0
 59 57  2  0
 61 58  1  0
 63 62  1  0
 64 63  1  0
 65 64  1  0
 66 65  1  0
 67 66  1  0
 68 67  1  0
 69 68  1  0
 70 69  1  0
 71 70  1  0
 72 80  1  0
 73 78  1  0
 74 75  1  0
 74 73  1  0
 76 75  1  0
 76 85  1  0
 76 77  1  0
 78 72  1  0
 78 77  1  0
 79 72  2  0
 80 81  1  0
 80 71  1  0
 82 85  1  0
 82 83  2  0
 83102  1  0
 83 84  1  0
 84 87  1  0
 85 86  1  0
 86 84  2  0
 87 88  1  0
 88 89  2  0
 90 89  1  0
 90 93  1  0
 91 90  2  0
 92 87  2  0
 92 91  1  0
 93 94  1  0
 94 99  2  0
 94 95  1  0
 95 96  2  0
 96 97  1  0
 97101  1  0
 98 97  2  0
 99 98  1  0
100 99  1  0
102103  1  0
103106  1  0
103105  1  0
104102  2  0
107 82  1  0
108107  1  0
109107  1  0
M  ISO  4  11 101  12 101  72 100  80 100
M  END
>  <TORSDO>  (81) 
F 35

>  <SCORE>  (81) 
-2.468

>  <name>  (81) 
84

>  <ligand_id>  (81) 
84

>  <original_smiles>  (81) 
[H]OC([H])([H])C([H])(C(=O)N([H])C([H])(C(=O)N([H])[H])C([H])([H])OC([H])([H])C([H])([H])OC([H])([H])C([H])([H])OC([H])([H])C([H])([H])N([H])C(=O)N1C([H])([H])C([H])([H])C([H])([H])C([H])(n2nc(-c3c([H])c([H])c(Oc4c([H])c([H])c(F)c([H])c4F)c([H])c3[H])c(C(=O)N([H])[H])c2N([H])[H])C1([H])[H])[N+]([H])([H])C([H])([H])C([H])([H])C([H])([H])Oc1c([H])c([H])c2c(c1[H])C([H])([H])N(C(=O)C([H])(N([H])C(=O)C([H])(N([H])C([H])([H])[H])C([H])([H])[H])C(C([H])([H])[H])(C([H])([H])[H])C([H])([H])[H])C([H])(C(=O)N([H])C1([H])c3c([H])c([H])c([H])c([H])c3C([H])([H])C([H])([H])C1([H])[H])C2([H])[H]

>  <smiles>  (81) 
[H]OC([H])([H])C([H])(C(=O)N([H])C([H])(C(=O)N([H])[H])C([H])([H])OC([H])([H])C([H])([H])OC([H])([H])C([H])([H])OC([H])([H])C([H])([H])N([H])C(=O)N1C([H])([H])C([H])([H])C([H])([H])C([H])(n2nc(-c3c([H])c([H])c(Oc4c([H])c([H])c(F)c([H])c4F)c([H])c3[H])c(C(=O)N([H])[H])c2N([H])[H])C1([H])[H])[N+]([H])([H])C([H])([H])C([H])([H])C([H])([H])Oc1c([H])c([H])c2c(c1[H])C([H])([H])N(C(=O)C([H])(N([H])C(=O)C([H])(N([H])C([H])([H])[H])C([H])([H])[H])C(C([H])([H])[H])(C([H])([H])[H])C([H])([H])[H])C([H])(C(=O)N([H])C1([H])c3c([H])c([H])c([H])c([H])c3C([H])([H])C([H])([H])C1([H])[H])C2([H])[H]

$$$$
85:0:0
     RDKit          3D

110117  0  0  1  0  0  0  0  0999 V2000
  -26.7950  -26.2540   24.1420 C   0  0  0  0  0  2  0  0  0  0  0  0
  -28.2350  -25.7970   24.4120 C   0  0  0  0  0  2  0  0  0  0  0  0
  -29.1540  -26.8930   24.9630 C   0  0  0  0  0  2  0  0  0  0  0  0
  -30.4830  -26.4200   24.8170 O   0  0  0  0  0  0  0  0  0  0  0  0
  -31.4770  -27.3140   25.3040 C   0  0  0  0  0  2  0  0  0  0  0  0
  -32.7870  -26.8830   24.6330 C   0  0  0  0  0  2  0  0  0  0  0  0
  -32.6190  -26.9160   23.1630 N   0  0  0  0  0  4  0  0  0  0  0  0
  -32.4970  -27.8670   22.8490 H   0  0  0  0  0  0  0  0  0  0  0  0
  -31.7570  -26.4220   22.9650 H   0  0  0  0  0  0  0  0  0  0  0  0
  -33.6750  -26.2500   22.3680 C   0  0  0  0  0  2  0  0  0  0  0  0
  -33.1780  -26.0480   20.9320 C   0  0  0  0  0  2  0  0  0  0  0  0
  -31.9760  -25.2920   21.0500 O   0  0  0  0  0  0  0  0  0  0  0  0
  -31.0340  -25.5330   20.0150 C   0  0  0  0  0  2  0  0  0  0  0  0
  -29.7230  -24.8310   20.4060 C   0  0  0  0  0  2  0  0  0  0  0  0
  -28.4800  -25.4230   19.7290 C   0  0  0  0  0  2  0  0  0  0  0  0
  -28.4270  -26.7950   20.1050 O   0  0  0  0  0  0  0  0  0  0  0  0
  -24.6080  -31.8720   23.2130 C   0  0  0  0  0  0  0  0  0  0  0  0
  -27.2280  -27.4630   20.0890 C   0  0  0  0  0  0  0  0  0  0  0  0
  -23.3930  -30.4960   21.5520 C   0  0  0  0  0  3  0  0  0  0  0  0
  -24.8360  -28.9610   20.1170 C   0  0  0  0  0  0  0  0  0  0  0  0
  -25.9180  -30.8420   21.3640 C   0  0  0  0  0  2  0  0  0  0  0  0
  -25.9920  -29.4790   20.7130 C   0  0  0  0  0  0  0  0  0  0  0  0
  -27.1880  -28.7340   20.7000 C   0  0  0  0  0  3  0  0  0  0  0  0
  -26.0540  -26.9520   19.4860 C   0  0  0  0  0  3  0  0  0  0  0  0
  -24.8600  -27.6960   19.5060 C   0  0  0  0  0  3  0  0  0  0  0  0
  -23.6000  -29.8270   20.1660 C   0  0  0  0  0  2  0  0  0  0  0  0
  -24.6570  -31.0850   22.1000 N   0  0  0  0  0  0  0  0  0  0  0  0
  -23.5290  -32.1470   23.7560 O   0  0  0  0  0  0  0  0  0  0  0  0
  -22.7370  -29.4680   22.5010 C   0  0  0  0  0  0  0  0  0  0  0  0
  -21.4110  -29.3060   22.3760 N   0  0  0  0  0  0  0  0  0  0  0  0
  -23.4160  -28.8210   23.3020 O   0  0  0  0  0  0  0  0  0  0  0  0
  -20.9240  -29.8810   21.7040 H   0  0  0  0  0  0  0  0  0  0  0  0
  -18.0270  -28.1380   22.8500 C   0  0  0  0  0  0  0  0  0  0  0  0
  -20.5860  -28.3660   23.1340 C   0  0  0  0  0  3  0  0  0  0  0  0
  -20.6790  -26.9430   22.5400 C   0  0  0  0  0  2  0  0  0  0  0  0
  -19.5760  -26.6400   21.5210 C   0  0  0  0  0  2  0  0  0  0  0  0
  -18.1930  -26.7920   22.1630 C   0  0  0  0  0  2  0  0  0  0  0  0
  -19.1520  -28.8830   23.2930 C   0  0  0  0  0  0  0  0  0  0  0  0
  -18.9450  -30.1440   23.8920 C   0  0  0  0  0  3  0  0  0  0  0  0
  -17.6460  -30.6590   24.0580 C   0  0  0  0  0  3  0  0  0  0  0  0
  -16.5350  -29.9100   23.6340 C   0  0  0  0  0  3  0  0  0  0  0  0
  -16.7260  -28.6520   23.0350 C   0  0  0  0  0  3  0  0  0  0  0  0
  -25.8990  -32.4840   23.8390 C   0  0  0  0  0  3  0  0  0  0  0  0
  -25.5900  -33.8640   24.2340 N   0  0  0  0  0  0  0  0  0  0  0  0
  -25.9050  -34.9490   23.5140 C   0  0  0  0  0  0  0  0  0  0  0  0
  -26.5590  -34.8930   22.4690 O   0  0  0  0  0  0  0  0  0  0  0  0
  -25.0110  -33.9830   25.0530 H   0  0  0  0  0  0  0  0  0  0  0  0
  -24.1510  -36.7290   23.2640 C   0  0  0  0  0  1  0  0  0  0  0  0
  -25.4130  -36.3130   24.0350 C   0  0  0  0  0  3  0  0  0  0  0  0
  -27.5610  -37.1810   24.8460 C   0  0  0  0  0  1  0  0  0  0  0  0
  -26.4310  -37.3820   23.9420 N   0  0  0  0  0  0  0  0  0  0  0  0
  -26.0220  -38.2900   24.1440 H   0  0  0  0  0  0  0  0  0  0  0  0
  -26.4440  -31.6600   25.0700 C   0  0  1  0  0  0  0  0  0  0  0  0
  -25.3730  -31.3700   26.1460 C   0  0  0  0  0  1  0  0  0  0  0  0
  -27.0230  -30.3040   24.6020 C   0  0  0  0  0  1  0  0  0  0  0  0
  -27.6020  -32.4320   25.7440 C   0  0  0  0  0  1  0  0  0  0  0  0
  -25.9420  -25.0960   23.6020 C   0  0  0  0  0  2  0  0  0  0  0  0
  -24.5180  -25.5180   23.2070 C   0  0  0  0  0  2  0  0  0  0  0  0
  -23.6630  -24.3410   22.7020 C   0  0  0  0  0  2  0  0  0  0  0  0
  -24.1320  -23.8430   21.3930 N   0  0  0  0  0  4  0  0  0  0  0  0
  -25.0920  -23.5410   21.4780 H   0  0  0  0  0  0  0  0  0  0  0  0
  -24.1010  -24.5960   20.7240 H   0  0  0  0  0  0  0  0  0  0  0  0
  -23.3700  -22.6930   20.8660 C   0  0  0  0  0  2  0  0  0  0  0  0
  -24.0320  -22.1510   19.5970 C   0  0  0  0  0  2  0  0  0  0  0  0
  -25.3610  -21.7620   19.9360 O   0  0  0  0  0  0  0  0  0  0  0  0
  -26.0730  -21.2630   18.8110 C   0  0  0  0  0  2  0  0  0  0  0  0
  -27.4820  -20.8140   19.2230 C   0  0  0  0  0  2  0  0  0  0  0  0
  -27.4950  -19.5500   20.0950 C   0  0  0  0  0  2  0  0  0  0  0  0
  -28.8460  -19.1470   20.2760 O   0  0  0  0  0  0  0  0  0  0  0  0
  -28.9830  -17.9720   21.0640 C   0  0  0  0  0  2  0  0  0  0  0  0
  -30.4790  -17.6280   21.1460 C   0  0  0  0  0  2  0  0  0  0  0  0
  -30.8170  -16.4430   22.0720 C   0  0  0  0  0  2  0  0  0  0  0  0
  -30.7520  -14.3700   20.6780 C   0  0  0  0  0  0  0  0  0  0  0  0
  -30.4190  -12.2900   19.3930 C   0  0  0  0  0  2  0  0  0  0  0  0
  -29.4850  -12.5270   18.1920 C   0  0  0  0  0  2  0  0  0  0  0  0
  -28.0080  -12.3820   18.6080 C   0  0  0  0  0  2  0  0  0  0  0  0
  -27.6660  -13.2010   19.8800 C   0  0  0  0  0  3  0  0  0  0  0  0
  -28.7030  -12.9330   20.9930 C   0  0  0  0  0  2  0  0  0  0  0  0
  -30.0450  -13.2320   20.4580 N   0  0  0  0  0  0  0  0  0  0  0  0
  -31.7880  -14.6580   20.0710 O   0  0  0  0  0  0  0  0  0  0  0  0
  -30.2450  -15.1750   21.6200 N   0  0  0  0  0  0  0  0  0  0  0  0
  -29.4120  -14.8470   22.0880 H   0  0  0  0  0  0  0  0  0  0  0  0
  -25.2600  -13.8150   20.5660 C   0  0  0  0  0  0  0  0  0  0  0  0
  -24.1850  -13.0440   20.9160 C   0  0  0  0  0  0  0  0  0  0  0  0
  -24.6390  -11.6900   20.8720 C   0  0  0  0  0  0  0  0  0  0  0  0
  -26.3040  -12.9310   20.3370 N   0  0  0  0  0  0  0  0  0  0  0  0
  -25.9310  -11.6480   20.5750 N   0  0  0  0  0  0  0  0  0  0  0  0
  -23.9050  -10.4290   21.0400 C   0  0  0  0  0  0  0  0  0  0  0  0
  -24.3610   -9.4210   21.9180 C   0  0  0  0  0  3  0  0  0  0  0  0
  -23.6290   -8.2240   22.0750 C   0  0  0  0  0  3  0  0  0  0  0  0
  -22.4270   -8.0270   21.3540 C   0  0  0  0  0  0  0  0  0  0  0  0
  -21.9900   -9.0250   20.4650 C   0  0  0  0  0  3  0  0  0  0  0  0
  -22.7220  -10.2130   20.3050 C   0  0  0  0  0  3  0  0  0  0  0  0
  -21.6640   -6.8880   21.4240 O   0  0  0  0  0  0  0  0  0  0  0  0
  -21.6850   -6.0730   22.5280 C   0  0  0  0  0  0  0  0  0  0  0  0
  -21.4010   -6.5640   23.8210 C   0  0  0  0  0  3  0  0  0  0  0  0
  -21.3660   -5.6790   24.9170 C   0  0  0  0  0  3  0  0  0  0  0  0
  -21.6040   -4.3060   24.7230 C   0  0  0  0  0  0  0  0  0  0  0  0
  -21.8820   -3.8140   23.4350 C   0  0  0  0  0  3  0  0  0  0  0  0
  -21.9190   -4.6960   22.3400 C   0  0  0  0  0  0  0  0  0  0  0  0
  -22.1660   -4.2150   21.0980 F   0  0  0  0  0  0  0  0  0  0  0  0
  -21.5630   -3.4540   25.7740 F   0  0  0  0  0  0  0  0  0  0  0  0
  -22.7870  -13.5240   21.1830 C   0  0  0  0  0  0  0  0  0  0  0  0
  -22.0500  -12.8240   22.0390 N   0  0  0  0  0  0  0  0  0  0  0  0
  -22.3560  -14.5560   20.6690 O   0  0  0  0  0  0  0  0  0  0  0  0
  -22.4110  -11.9890   22.4770 H   0  0  0  0  0  0  0  0  0  0  0  0
  -21.1130  -13.1270   22.2590 H   0  0  0  0  0  0  0  0  0  0  0  0
  -25.4350  -15.1870   20.4070 N   0  0  0  0  0  0  0  0  0  0  0  0
  -24.6690  -15.8440   20.5090 H   0  0  0  0  0  0  0  0  0  0  0  0
  -26.2910  -15.6190   20.0850 H   0  0  0  0  0  0  0  0  0  0  0  0
  1  2  1  0
  2  3  1  0
  4  3  1  0
  4  5  1  0
  6  5  1  0
  7  6  1  0
  8  7  1  0
  9  7  1  0
 10  7  1  0
 11 12  1  0
 11 10  1  0
 13 14  1  0
 13 12  1  0
 15 16  1  0
 15 14  1  0
 17 28  2  0
 18 16  1  0
 18 23  1  0
 19 27  1  0
 19 29  1  0
 20 26  1  0
 20 22  1  0
 21 27  1  0
 22 21  1  0
 23 22  2  0
 24 25  1  0
 24 18  2  0
 25 20  2  0
 26 19  1  0
 27 17  1  0
 29 31  2  0
 30 29  1  0
 32 30  1  0
 33 42  2  0
 33 38  1  0
 34 30  1  0
 34 38  1  0
 35 34  1  0
 36 37  1  0
 36 35  1  0
 37 33  1  0
 38 39  2  0
 39 40  1  0
 41 40  2  0
 42 41  1  0
 43 17  1  0
 43 44  1  0
 43 53  1  0
 44 47  1  0
 45 49  1  0
 45 44  1  0
 46 45  2  0
 49 48  1  0
 51 49  1  0
 51 52  1  0
 51 50  1  0
 53 56  1  1
 53 54  1  0
 55 53  1  0
 57  1  1  0
 58 57  1  0
 59 58  1  0
 60 61  1  0
 60 59  1  0
 62 60  1  0
 63 60  1  0
 64 65  1  0
 64 63  1  0
 66 67  1  0
 66 65  1  0
 67 68  1  0
 68 69  1  0
 69 70  1  0
 70 71  1  0
 71 72  1  0
 73 81  1  0
 74 79  1  0
 75 76  1  0
 75 74  1  0
 77 76  1  0
 77 86  1  0
 77 78  1  0
 79 73  1  0
 79 78  1  0
 80 73  2  0
 81 72  1  0
 81 82  1  0
 83 84  2  0
 84103  1  0
 85 84  1  0
 85 88  1  0
 86 83  1  0
 86 87  1  0
 87 85  2  0
 88 89  1  0
 89 90  2  0
 91 94  1  0
 91 90  1  0
 92 91  2  0
 93 92  1  0
 93 88  2  0
 94 95  1  0
 95 96  1  0
 96 97  2  0
 98 97  1  0
 98102  1  0
 99 98  2  0
100 95  2  0
100 99  1  0
101100  1  0
103104  1  0
104107  1  0
104106  1  0
105103  2  0
108109  1  0
108 83  1  0
110108  1  0
M  ISO  4  15 101  16 101  73 100  81 100
M  END
>  <TORSDO>  (82) 
F 42

>  <SCORE>  (82) 
-3.451

>  <name>  (82) 
85

>  <ligand_id>  (82) 
85

>  <original_smiles>  (82) 
[H]c1c([H])c([H])c2c(c1[H])C([H])([H])C([H])([H])C([H])([H])C2([H])N([H])C(=O)C1([H])N(C(=O)C([H])(N([H])C(=O)C([H])(N([H])C([H])([H])[H])C([H])([H])[H])C(C([H])([H])[H])(C([H])([H])[H])C([H])([H])[H])C([H])([H])c2c([H])c(OC([H])([H])C([H])([H])C([H])([H])OC([H])([H])C([H])([H])[N+]([H])([H])C([H])([H])C([H])([H])OC([H])([H])C([H])([H])C([H])([H])C([H])([H])C([H])([H])C([H])([H])[N+]([H])([H])C([H])([H])C([H])([H])OC([H])([H])C([H])([H])C([H])([H])OC([H])([H])C([H])([H])C([H])([H])N([H])C(=O)N3C([H])([H])C([H])([H])C([H])([H])C([H])(n4nc(-c5c([H])c([H])c(Oc6c([H])c([H])c(F)c([H])c6F)c([H])c5[H])c(C(=O)N([H])[H])c4N([H])[H])C3([H])[H])c([H])c([H])c2C1([H])[H]

>  <smiles>  (82) 
[H]c1c([H])c([H])c2c(c1[H])C([H])([H])C([H])([H])C([H])([H])C2([H])N([H])C(=O)C1([H])N(C(=O)C([H])(N([H])C(=O)C([H])(N([H])C([H])([H])[H])C([H])([H])[H])C(C([H])([H])[H])(C([H])([H])[H])C([H])([H])[H])C([H])([H])c2c([H])c(OC([H])([H])C([H])([H])C([H])([H])OC([H])([H])C([H])([H])[N+]([H])([H])C([H])([H])C([H])([H])OC([H])([H])C([H])([H])C([H])([H])C([H])([H])C([H])([H])C([H])([H])[N+]([H])([H])C([H])([H])C([H])([H])OC([H])([H])C([H])([H])C([H])([H])OC([H])([H])C([H])([H])C([H])([H])N([H])C(=O)N3C([H])([H])C([H])([H])C([H])([H])C([H])(n4nc(-c5c([H])c([H])c(Oc6c([H])c([H])c(F)c([H])c6F)c([H])c5[H])c(C(=O)N([H])[H])c4N([H])[H])C3([H])[H])c([H])c([H])c2C1([H])[H]

$$$$
86:0:0
     RDKit          3D

 99106  0  0  1  0  0  0  0  0999 V2000
  -28.4740  -20.7780   17.8700 O   0  0  0  0  0  0  0  0  0  0  0  0
  -27.9080  -21.8110   17.0700 C   0  0  0  0  0  2  0  0  0  0  0  0
  -28.1660  -23.1830   17.7050 C   0  0  0  0  0  2  0  0  0  0  0  0
  -29.4450  -23.6770   17.3260 O   0  0  0  0  0  0  0  0  0  0  0  0
  -29.7110  -24.9780   17.8440 C   0  0  0  0  0  2  0  0  0  0  0  0
  -30.7330  -24.8980   18.9880 C   0  0  0  0  0  2  0  0  0  0  0  0
  -30.2310  -24.1420   20.0860 O   0  0  0  0  0  0  0  0  0  0  0  0
  -29.7820  -24.9050   21.2020 C   0  0  0  0  0  2  0  0  0  0  0  0
  -28.3900  -25.5180   20.9900 C   0  0  0  0  0  2  0  0  0  0  0  0
  -28.4920  -26.7660   20.3100 O   0  0  0  0  0  0  0  0  0  0  0  0
  -24.5960  -31.9000   23.2590 C   0  0  0  0  0  0  0  0  0  0  0  0
  -27.3150  -27.4670   20.2730 C   0  0  0  0  0  0  0  0  0  0  0  0
  -23.4180  -30.4660   21.6210 C   0  0  0  0  0  3  0  0  0  0  0  0
  -24.9010  -28.9220   20.2360 C   0  0  0  0  0  0  0  0  0  0  0  0
  -25.9390  -30.8540   21.4420 C   0  0  0  0  0  2  0  0  0  0  0  0
  -26.0440  -29.4770   20.8250 C   0  0  0  0  0  0  0  0  0  0  0  0
  -27.2560  -28.7570   20.8380 C   0  0  0  0  0  3  0  0  0  0  0  0
  -26.1590  -26.9160   19.6800 C   0  0  0  0  0  3  0  0  0  0  0  0
  -24.9500  -27.6400   19.6600 C   0  0  0  0  0  3  0  0  0  0  0  0
  -23.6480  -29.7660   20.2540 C   0  0  0  0  0  2  0  0  0  0  0  0
  -24.6690  -31.0890   22.1670 N   0  0  0  0  0  0  0  0  0  0  0  0
  -23.5070  -32.1700   23.7850 O   0  0  0  0  0  0  0  0  0  0  0  0
  -22.7650  -29.4530   22.5890 C   0  0  0  0  0  0  0  0  0  0  0  0
  -21.4430  -29.2630   22.4510 N   0  0  0  0  0  0  0  0  0  0  0  0
  -23.4450  -28.8410   23.4160 O   0  0  0  0  0  0  0  0  0  0  0  0
  -20.9570  -29.8110   21.7540 H   0  0  0  0  0  0  0  0  0  0  0  0
  -18.0670  -28.0770   22.9360 C   0  0  0  0  0  0  0  0  0  0  0  0
  -20.6230  -28.3330   23.2240 C   0  0  0  0  0  3  0  0  0  0  0  0
  -20.7270  -26.8970   22.6570 C   0  0  0  0  0  2  0  0  0  0  0  0
  -19.6310  -26.5700   21.6380 C   0  0  0  0  0  2  0  0  0  0  0  0
  -18.2460  -26.7210   22.2730 C   0  0  0  0  0  2  0  0  0  0  0  0
  -19.1840  -28.8390   23.3680 C   0  0  0  0  0  0  0  0  0  0  0  0
  -18.9630  -30.1080   23.9470 C   0  0  0  0  0  3  0  0  0  0  0  0
  -17.6580  -30.6130   24.1000 C   0  0  0  0  0  3  0  0  0  0  0  0
  -16.5550  -29.8470   23.6840 C   0  0  0  0  0  3  0  0  0  0  0  0
  -16.7610  -28.5810   23.1080 C   0  0  0  0  0  3  0  0  0  0  0  0
  -25.8720  -32.5450   23.8860 C   0  0  0  0  0  3  0  0  0  0  0  0
  -25.5490  -33.9430   24.2020 N   0  0  0  0  0  0  0  0  0  0  0  0
  -25.8910  -34.9920   23.4400 C   0  0  0  0  0  0  0  0  0  0  0  0
  -26.5800  -34.8850   22.4230 O   0  0  0  0  0  0  0  0  0  0  0  0
  -24.9390  -34.0990   24.9900 H   0  0  0  0  0  0  0  0  0  0  0  0
  -24.1640  -36.7730   23.0330 C   0  0  0  0  0  1  0  0  0  0  0  0
  -25.3840  -36.3800   23.8780 C   0  0  0  0  0  3  0  0  0  0  0  0
  -27.4950  -37.2760   24.7570 C   0  0  0  0  0  1  0  0  0  0  0  0
  -26.4160  -37.4370   23.7870 N   0  0  0  0  0  0  0  0  0  0  0  0
  -26.0010  -38.3550   23.9210 H   0  0  0  0  0  0  0  0  0  0  0  0
  -26.3880  -31.7870   25.1700 C   0  0  1  0  0  0  0  0  0  0  0  0
  -25.2900  -31.5420   26.2300 C   0  0  0  0  0  1  0  0  0  0  0  0
  -26.9900  -30.4140   24.7860 C   0  0  0  0  0  1  0  0  0  0  0  0
  -27.5260  -32.5960   25.8360 C   0  0  0  0  0  1  0  0  0  0  0  0
  -28.2570  -19.4790   17.3290 C   0  0  0  0  0  2  0  0  0  0  0  0
  -27.9310  -18.5040   18.4680 C   0  0  0  0  0  2  0  0  0  0  0  0
  -29.7700  -16.9820   19.1590 C   0  0  0  0  0  0  0  0  0  0  0  0
  -29.1110  -18.1410   19.2530 N   0  0  0  0  0  0  0  0  0  0  0  0
  -29.4880  -16.1850   18.2620 O   0  0  0  0  0  0  0  0  0  0  0  0
  -29.4020  -18.7870   19.9760 H   0  0  0  0  0  0  0  0  0  0  0  0
  -30.8960  -16.6330   20.1840 C   0  0  0  0  0  3  0  0  0  0  0  0
  -31.3400  -14.1780   19.9900 C   0  0  0  0  0  0  0  0  0  0  0  0
  -30.8860  -11.9790   18.9920 C   0  0  0  0  0  2  0  0  0  0  0  0
  -29.9280  -12.1800   17.7990 C   0  0  0  0  0  2  0  0  0  0  0  0
  -28.4570  -12.1770   18.2630 C   0  0  0  0  0  2  0  0  0  0  0  0
  -28.2110  -13.1120   19.4770 C   0  0  0  0  0  3  0  0  0  0  0  0
  -29.2710  -12.8660   20.5750 C   0  0  0  0  0  2  0  0  0  0  0  0
  -30.6070  -13.0360   19.9720 N   0  0  0  0  0  0  0  0  0  0  0  0
  -32.4330  -14.3040   19.4300 O   0  0  0  0  0  0  0  0  0  0  0  0
  -30.7030  -15.2210   20.5330 N   0  0  0  0  0  0  0  0  0  0  0  0
  -29.8200  -15.0040   20.9630 H   0  0  0  0  0  0  0  0  0  0  0  0
  -25.9150  -13.9570   20.2820 C   0  0  0  0  0  0  0  0  0  0  0  0
  -24.7830  -13.2930   20.6720 C   0  0  0  0  0  0  0  0  0  0  0  0
  -25.0950  -11.9020   20.5890 C   0  0  0  0  0  0  0  0  0  0  0  0
  -26.8520  -12.9750   19.9930 N   0  0  0  0  0  0  0  0  0  0  0  0
  -26.3610  -11.7340   20.2320 N   0  0  0  0  0  0  0  0  0  0  0  0
  -24.2470  -10.7170   20.7760 C   0  0  0  0  0  0  0  0  0  0  0  0
  -24.5970   -9.6960   21.6860 C   0  0  0  0  0  3  0  0  0  0  0  0
  -23.7570   -8.5740   21.8610 C   0  0  0  0  0  3  0  0  0  0  0  0
  -22.5520   -8.4680   21.1250 C   0  0  0  0  0  0  0  0  0  0  0  0
  -22.2210   -9.4770   20.2030 C   0  0  0  0  0  3  0  0  0  0  0  0
  -23.0610  -10.5900   20.0270 C   0  0  0  0  0  3  0  0  0  0  0  0
  -21.6880   -7.4040   21.2090 O   0  0  0  0  0  0  0  0  0  0  0  0
  -21.5720   -6.6610   22.3560 C   0  0  0  0  0  0  0  0  0  0  0  0
  -21.2180   -7.2470   23.5910 C   0  0  0  0  0  3  0  0  0  0  0  0
  -21.0420   -6.4360   24.7310 C   0  0  0  0  0  3  0  0  0  0  0  0
  -21.2110   -5.0410   24.6360 C   0  0  0  0  0  0  0  0  0  0  0  0
  -21.5580   -4.4560   23.4060 C   0  0  0  0  0  3  0  0  0  0  0  0
  -21.7360   -5.2640   22.2690 C   0  0  0  0  0  0  0  0  0  0  0  0
  -22.0500   -4.6920   21.0810 F   0  0  0  0  0  0  0  0  0  0  0  0
  -21.0340   -4.2620   25.7280 F   0  0  0  0  0  0  0  0  0  0  0  0
  -23.4540  -13.9070   21.0090 C   0  0  0  0  0  0  0  0  0  0  0  0
  -22.7020  -13.2850   21.9100 N   0  0  0  0  0  0  0  0  0  0  0  0
  -23.0950  -14.9720   20.5070 O   0  0  0  0  0  0  0  0  0  0  0  0
  -23.0030  -12.4230   22.3380 H   0  0  0  0  0  0  0  0  0  0  0  0
  -21.8110  -13.6800   22.1770 H   0  0  0  0  0  0  0  0  0  0  0  0
  -26.2210  -15.3070   20.1310 N   0  0  0  0  0  0  0  0  0  0  0  0
  -25.5320  -16.0360   20.2810 H   0  0  0  0  0  0  0  0  0  0  0  0
  -27.0940  -15.6550   19.7550 H   0  0  0  0  0  0  0  0  0  0  0  0
  -31.4050  -18.9080   21.3380 C   0  0  0  0  0  1  0  0  0  0  0  0
  -31.9360  -16.7990   22.4980 C   0  0  0  0  0  1  0  0  0  0  0  0
  -29.5400  -17.4740   22.2450 C   0  0  0  0  0  1  0  0  0  0  0  0
  -30.9140  -17.4520   21.5340 C   0  0  2  0  0  0  0  0  0  0  0  0
  2  3  1  0
  2  1  1  0
  4  3  1  0
  4  5  1  0
  5  6  1  0
  6  7  1  0
  7  8  1  0
  9  8  1  0
 10  9  1  0
 11 22  2  0
 12 10  1  0
 12 17  1  0
 13 21  1  0
 13 23  1  0
 14 20  1  0
 14 16  1  0
 15 21  1  0
 16 17  2  0
 16 15  1  0
 18 12  2  0
 19 18  1  0
 19 14  2  0
 20 13  1  0
 21 11  1  0
 23 25  2  0
 24 23  1  0
 26 24  1  0
 27 36  2  0
 27 32  1  0
 28 24  1  0
 28 32  1  0
 29 28  1  0
 30 31  1  0
 30 29  1  0
 31 27  1  0
 32 33  2  0
 33 34  1  0
 35 34  2  0
 36 35  1  0
 37 11  1  0
 37 38  1  0
 37 47  1  0
 38 41  1  0
 39 43  1  0
 39 38  1  0
 40 39  2  0
 43 42  1  0
 45 43  1  0
 45 46  1  0
 45 44  1  0
 47 50  1  1
 47 48  1  0
 49 47  1  0
 51  1  1  0
 51 52  1  0
 52 54  1  0
 53 54  1  0
 54 56  1  0
 55 53  2  0
 57 53  1  0
 57 66  1  0
 57 99  1  0
 58 66  1  0
 59 64  1  0
 60 61  1  0
 60 59  1  0
 62 61  1  0
 62 71  1  0
 62 63  1  0
 64 58  1  0
 64 63  1  0
 65 58  2  0
 66 67  1  0
 68 69  2  0
 69 88  1  0
 70 69  1  0
 70 73  1  0
 71 72  1  0
 71 68  1  0
 72 70  2  0
 73 74  1  0
 74 75  2  0
 76 79  1  0
 76 75  1  0
 77 76  2  0
 78 77  1  0
 78 73  2  0
 79 80  1  0
 80 81  1  0
 81 82  2  0
 83 82  1  0
 83 87  1  0
 84 83  2  0
 85 80  2  0
 85 84  1  0
 86 85  1  0
 88 89  1  0
 89 92  1  0
 89 91  1  0
 90 88  2  0
 93 94  1  0
 93 68  1  0
 95 93  1  0
 99 96  1  6
 99 98  1  0
 99 97  1  0
M  ISO  4   9 101  10 101  58 100  66 100
M  END
>  <TORSDO>  (83) 
F 29

>  <SCORE>  (83) 
-8.447

>  <name>  (83) 
86

>  <ligand_id>  (83) 
86

>  <original_smiles>  (83) 
[H]c1c([H])c([H])c2c(c1[H])C([H])([H])C([H])([H])C([H])([H])C2([H])N([H])C(=O)C1([H])N(C(=O)C([H])(N([H])C(=O)C([H])(N([H])C([H])([H])[H])C([H])([H])[H])C(C([H])([H])[H])(C([H])([H])[H])C([H])([H])[H])C([H])([H])c2c([H])c(OC([H])([H])C([H])([H])OC([H])([H])C([H])([H])OC([H])([H])C([H])([H])OC([H])([H])C([H])([H])N([H])C(=O)C([H])(N([H])C(=O)N3C([H])([H])C([H])([H])C([H])([H])C([H])(n4nc(-c5c([H])c([H])c(Oc6c([H])c([H])c(F)c([H])c6F)c([H])c5[H])c(C(=O)N([H])[H])c4N([H])[H])C3([H])[H])C(C([H])([H])[H])(C([H])([H])[H])C([H])([H])[H])c([H])c([H])c2C1([H])[H]

>  <smiles>  (83) 
[H]c1c([H])c([H])c2c(c1[H])C([H])([H])C([H])([H])C([H])([H])C2([H])N([H])C(=O)C1([H])N(C(=O)C([H])(N([H])C(=O)C([H])(N([H])C([H])([H])[H])C([H])([H])[H])C(C([H])([H])[H])(C([H])([H])[H])C([H])([H])[H])C([H])([H])c2c([H])c(OC([H])([H])C([H])([H])OC([H])([H])C([H])([H])OC([H])([H])C([H])([H])OC([H])([H])C([H])([H])N([H])C(=O)C([H])(N([H])C(=O)N3C([H])([H])C([H])([H])C([H])([H])C([H])(n4nc(-c5c([H])c([H])c(Oc6c([H])c([H])c(F)c([H])c6F)c([H])c5[H])c(C(=O)N([H])[H])c4N([H])[H])C3([H])[H])C(C([H])([H])[H])(C([H])([H])[H])C([H])([H])[H])c([H])c([H])c2C1([H])[H]

$$$$
87:0:0
     RDKit          3D

110117  0  0  1  0  0  0  0  0999 V2000
  -32.8330  -17.6980   21.8900 C   0  0  0  0  0  2  0  0  0  0  0  0
  -31.6110  -18.3080   21.5020 O   0  0  0  0  0  0  0  0  0  0  0  0
  -31.4510  -18.4300   20.0940 C   0  0  0  0  0  2  0  0  0  0  0  0
  -30.1510  -19.1940   19.8150 C   0  0  0  0  0  2  0  0  0  0  0  0
  -30.3340  -20.5430   20.2260 O   0  0  0  0  0  0  0  0  0  0  0  0
  -29.5170  -21.5020   19.7770 C   0  0  0  0  0  0  0  0  0  0  0  0
  -28.5780  -21.3270   18.9940 O   0  0  0  0  0  0  0  0  0  0  0  0
  -29.9220  -22.8710   20.3520 C   0  0  0  0  0  3  0  0  0  0  0  0
  -29.0790  -23.8800   19.6850 N   0  0  0  0  0  4  0  0  0  0  0  0
  -28.6220  -23.3860   18.9280 H   0  0  0  0  0  0  0  0  0  0  0  0
  -28.3660  -24.1710   20.3350 H   0  0  0  0  0  0  0  0  0  0  0  0
  -29.8150  -25.0580   19.1700 C   0  0  0  0  0  2  0  0  0  0  0  0
  -28.8640  -26.2140   18.8370 C   0  0  0  0  0  2  0  0  0  0  0  0
  -28.4150  -26.7630   20.0760 O   0  0  0  0  0  0  0  0  0  0  0  0
  -24.6110  -31.8700   23.2130 C   0  0  0  0  0  0  0  0  0  0  0  0
  -27.2390  -27.4720   20.0650 C   0  0  0  0  0  0  0  0  0  0  0  0
  -23.3980  -30.4940   21.5540 C   0  0  0  0  0  3  0  0  0  0  0  0
  -24.8430  -28.9640   20.1140 C   0  0  0  0  0  0  0  0  0  0  0  0
  -25.9230  -30.8420   21.3630 C   0  0  0  0  0  2  0  0  0  0  0  0
  -26.0000  -29.4780   20.7120 C   0  0  0  0  0  0  0  0  0  0  0  0
  -27.1970  -28.7320   20.6970 C   0  0  0  0  0  3  0  0  0  0  0  0
  -26.0580  -26.9530   19.4850 C   0  0  0  0  0  3  0  0  0  0  0  0
  -24.8630  -27.6970   19.5070 C   0  0  0  0  0  3  0  0  0  0  0  0
  -23.6030  -29.8270   20.1670 C   0  0  0  0  0  2  0  0  0  0  0  0
  -24.6630  -31.0820   22.1020 N   0  0  0  0  0  0  0  0  0  0  0  0
  -23.5320  -32.1450   23.7530 O   0  0  0  0  0  0  0  0  0  0  0  0
  -22.7400  -29.4650   22.5020 C   0  0  0  0  0  0  0  0  0  0  0  0
  -21.4120  -29.3020   22.3760 N   0  0  0  0  0  0  0  0  0  0  0  0
  -23.4180  -28.8200   23.3050 O   0  0  0  0  0  0  0  0  0  0  0  0
  -20.9280  -29.8740   21.6980 H   0  0  0  0  0  0  0  0  0  0  0  0
  -18.0260  -28.1390   22.8490 C   0  0  0  0  0  0  0  0  0  0  0  0
  -20.5850  -28.3660   23.1340 C   0  0  0  0  0  3  0  0  0  0  0  0
  -20.6760  -26.9400   22.5430 C   0  0  0  0  0  2  0  0  0  0  0  0
  -19.5740  -26.6390   21.5220 C   0  0  0  0  0  2  0  0  0  0  0  0
  -18.1910  -26.7930   22.1620 C   0  0  0  0  0  2  0  0  0  0  0  0
  -19.1510  -28.8840   23.2910 C   0  0  0  0  0  0  0  0  0  0  0  0
  -18.9440  -30.1450   23.8920 C   0  0  0  0  0  3  0  0  0  0  0  0
  -17.6450  -30.6590   24.0560 C   0  0  0  0  0  3  0  0  0  0  0  0
  -16.5330  -29.9090   23.6330 C   0  0  0  0  0  3  0  0  0  0  0  0
  -16.7250  -28.6510   23.0340 C   0  0  0  0  0  3  0  0  0  0  0  0
  -25.9030  -32.4830   23.8410 C   0  0  0  0  0  3  0  0  0  0  0  0
  -25.5900  -33.8630   24.2340 N   0  0  0  0  0  0  0  0  0  0  0  0
  -25.9030  -34.9480   23.5130 C   0  0  0  0  0  0  0  0  0  0  0  0
  -26.5580  -34.8930   22.4690 O   0  0  0  0  0  0  0  0  0  0  0  0
  -25.0060  -33.9810   25.0490 H   0  0  0  0  0  0  0  0  0  0  0  0
  -24.1490  -36.7320   23.2640 C   0  0  0  0  0  1  0  0  0  0  0  0
  -25.4100  -36.3120   24.0340 C   0  0  0  0  0  3  0  0  0  0  0  0
  -27.5580  -37.1810   24.8460 C   0  0  0  0  0  1  0  0  0  0  0  0
  -26.4290  -37.3800   23.9410 N   0  0  0  0  0  0  0  0  0  0  0  0
  -26.0180  -38.2880   24.1400 H   0  0  0  0  0  0  0  0  0  0  0  0
  -26.4470  -31.6600   25.0730 C   0  0  1  0  0  0  0  0  0  0  0  0
  -25.3740  -31.3700   26.1480 C   0  0  0  0  0  1  0  0  0  0  0  0
  -27.0290  -30.3050   24.6080 C   0  0  0  0  0  1  0  0  0  0  0  0
  -27.6050  -32.4320   25.7480 C   0  0  0  0  0  1  0  0  0  0  0  0
  -28.3810  -22.7200   22.4730 C   0  0  0  0  0  1  0  0  0  0  0  0
  -29.7910  -22.9520   21.8930 C   0  0  0  0  0  2  0  0  0  0  0  0
  -32.8610  -17.6750   23.4260 C   0  0  0  0  0  2  0  0  0  0  0  0
  -34.1110  -16.9910   24.0090 C   0  0  0  0  0  2  0  0  0  0  0  0
  -34.0920  -17.0180   25.4860 N   0  0  0  0  0  4  0  0  0  0  0  0
  -33.2210  -16.6250   25.8100 H   0  0  0  0  0  0  0  0  0  0  0  0
  -34.1250  -17.9740   25.8030 H   0  0  0  0  0  0  0  0  0  0  0  0
  -35.1620  -16.2410   26.1510 C   0  0  0  0  0  2  0  0  0  0  0  0
  -34.8120  -16.0430   27.6350 C   0  0  0  0  0  2  0  0  0  0  0  0
  -33.5200  -15.4440   27.6760 O   0  0  0  0  0  0  0  0  0  0  0  0
  -33.5290  -14.0240   27.7500 C   0  0  0  0  0  2  0  0  0  0  0  0
  -32.1680  -13.5490   27.2320 C   0  0  0  0  0  2  0  0  0  0  0  0
  -31.8320  -12.0900   27.5750 C   0  0  0  0  0  2  0  0  0  0  0  0
  -30.5190  -11.6540   26.9190 C   0  0  0  0  0  2  0  0  0  0  0  0
  -30.7170  -11.5700   25.5130 O   0  0  0  0  0  0  0  0  0  0  0  0
  -29.5990  -11.9940   24.7400 C   0  0  0  0  0  2  0  0  0  0  0  0
  -29.8550  -13.4160   24.2080 C   0  0  0  0  0  2  0  0  0  0  0  0
  -31.0040  -13.4590   23.1740 C   0  0  0  0  0  2  0  0  0  0  0  0
  -30.8650  -14.2050   20.8250 C   0  0  0  0  0  0  0  0  0  0  0  0
  -30.4150  -12.2880   19.3450 C   0  0  0  0  0  2  0  0  0  0  0  0
  -29.4650  -12.5240   18.1630 C   0  0  0  0  0  2  0  0  0  0  0  0
  -27.9990  -12.3650   18.5950 C   0  0  0  0  0  2  0  0  0  0  0  0
  -27.6620  -13.1930   19.8570 C   0  0  0  0  0  3  0  0  0  0  0  0
  -28.6980  -12.9600   20.9720 C   0  0  0  0  0  2  0  0  0  0  0  0
  -30.0610  -13.1830   20.4530 N   0  0  0  0  0  0  0  0  0  0  0  0
  -31.6920  -14.7370   20.0780 O   0  0  0  0  0  0  0  0  0  0  0  0
  -30.8410  -14.4940   22.1370 N   0  0  0  0  0  0  0  0  0  0  0  0
  -31.2770  -15.3730   22.3660 H   0  0  0  0  0  0  0  0  0  0  0  0
  -25.2610  -13.8120   20.5640 C   0  0  0  0  0  0  0  0  0  0  0  0
  -24.1840  -13.0430   20.9180 C   0  0  0  0  0  0  0  0  0  0  0  0
  -24.6380  -11.6900   20.8780 C   0  0  0  0  0  0  0  0  0  0  0  0
  -26.3020  -12.9250   20.3270 N   0  0  0  0  0  0  0  0  0  0  0  0
  -25.9300  -11.6450   20.5810 N   0  0  0  0  0  0  0  0  0  0  0  0
  -23.9050  -10.4300   21.0460 C   0  0  0  0  0  0  0  0  0  0  0  0
  -24.3610   -9.4210   21.9240 C   0  0  0  0  0  3  0  0  0  0  0  0
  -23.6310   -8.2240   22.0780 C   0  0  0  0  0  3  0  0  0  0  0  0
  -22.4280   -8.0290   21.3580 C   0  0  0  0  0  0  0  0  0  0  0  0
  -21.9880   -9.0280   20.4720 C   0  0  0  0  0  3  0  0  0  0  0  0
  -22.7220  -10.2160   20.3110 C   0  0  0  0  0  3  0  0  0  0  0  0
  -21.6630   -6.8890   21.4250 O   0  0  0  0  0  0  0  0  0  0  0  0
  -21.6860   -6.0700   22.5260 C   0  0  0  0  0  0  0  0  0  0  0  0
  -21.4050   -6.5590   23.8210 C   0  0  0  0  0  3  0  0  0  0  0  0
  -21.3660   -5.6730   24.9160 C   0  0  0  0  0  3  0  0  0  0  0  0
  -21.6060   -4.3010   24.7230 C   0  0  0  0  0  0  0  0  0  0  0  0
  -21.8840   -3.8100   23.4340 C   0  0  0  0  0  3  0  0  0  0  0  0
  -21.9210   -4.6940   22.3400 C   0  0  0  0  0  0  0  0  0  0  0  0
  -22.1660   -4.2100   21.0990 F   0  0  0  0  0  0  0  0  0  0  0  0
  -21.5660   -3.4490   25.7730 F   0  0  0  0  0  0  0  0  0  0  0  0
  -22.7870  -13.5270   21.1840 C   0  0  0  0  0  0  0  0  0  0  0  0
  -22.0450  -12.8240   22.0340 N   0  0  0  0  0  0  0  0  0  0  0  0
  -22.3610  -14.5600   20.6700 O   0  0  0  0  0  0  0  0  0  0  0  0
  -22.3970  -11.9780   22.4590 H   0  0  0  0  0  0  0  0  0  0  0  0
  -21.1050  -13.1290   22.2560 H   0  0  0  0  0  0  0  0  0  0  0  0
  -25.4390  -15.1820   20.4080 N   0  0  0  0  0  0  0  0  0  0  0  0
  -24.6840  -15.8480   20.5370 H   0  0  0  0  0  0  0  0  0  0  0  0
  -26.3010  -15.6100   20.0990 H   0  0  0  0  0  0  0  0  0  0  0  0
  1 57  1  0
  2  1  1  0
  3  2  1  0
  4  3  1  0
  4  5  1  0
  6  5  1  0
  6  8  1  0
  7  6  2  0
  8 56  1  0
  9 11  1  0
  9  8  1  0
 10  9  1  0
 12  9  1  0
 13 12  1  0
 13 14  1  0
 15 26  2  0
 16 14  1  0
 16 21  1  0
 17 25  1  0
 17 27  1  0
 18 24  1  0
 18 20  1  0
 19 25  1  0
 20 19  1  0
 21 20  2  0
 22 23  1  0
 22 16  2  0
 23 18  2  0
 24 17  1  0
 25 15  1  0
 27 29  2  0
 28 27  1  0
 30 28  1  0
 31 40  2  0
 31 36  1  0
 32 28  1  0
 32 36  1  0
 33 32  1  0
 34 35  1  0
 34 33  1  0
 35 31  1  0
 36 37  2  0
 37 38  1  0
 39 38  2  0
 40 39  1  0
 41 15  1  0
 41 42  1  0
 41 51  1  0
 42 45  1  0
 43 47  1  0
 43 42  1  0
 44 43  2  0
 47 46  1  0
 49 47  1  0
 49 50  1  0
 49 48  1  0
 51 54  1  1
 51 52  1  0
 53 51  1  0
 56 55  1  0
 57 58  1  0
 58 59  1  0
 59 61  1  0
 59 60  1  0
 59 62  1  0
 62 63  1  0
 63 64  1  0
 64 65  1  0
 66 67  1  0
 66 65  1  0
 68 67  1  0
 69 68  1  0
 70 69  1  0
 71 70  1  0
 72 71  1  0
 73 81  1  0
 74 79  1  0
 75 76  1  0
 75 74  1  0
 77 76  1  0
 77 86  1  0
 77 78  1  0
 79 73  1  0
 79 78  1  0
 80 73  2  0
 81 82  1  0
 81 72  1  0
 83 84  2  0
 84103  1  0
 85 84  1  0
 85 88  1  0
 86 83  1  0
 86 87  1  0
 87 85  2  0
 88 89  1  0
 89 90  2  0
 91 94  1  0
 91 90  1  0
 92 91  2  0
 93 92  1  0
 93 88  2  0
 94 95  1  0
 95 96  1  0
 96 97  2  0
 98 97  1  0
 98102  1  0
 99 98  2  0
100 95  2  0
100 99  1  0
101100  1  0
103104  1  0
104107  1  0
104106  1  0
105103  2  0
108109  1  0
108 83  1  0
110108  1  0
M  ISO  4  13 101  14 101  73 100  81 100
M  END
>  <TORSDO>  (84) 
F 40

>  <SCORE>  (84) 
57.031

>  <name>  (84) 
87

>  <ligand_id>  (84) 
87

>  <original_smiles>  (84) 
[H]c1c([H])c([H])c2c(c1[H])C([H])([H])C([H])([H])C([H])([H])C2([H])N([H])C(=O)C1([H])N(C(=O)C([H])(N([H])C(=O)C([H])(N([H])C([H])([H])[H])C([H])([H])[H])C(C([H])([H])[H])(C([H])([H])[H])C([H])([H])[H])C([H])([H])c2c([H])c(OC([H])([H])C([H])([H])[N+]([H])([H])C([H])(C(=O)OC([H])([H])C([H])([H])OC([H])([H])C([H])([H])C([H])([H])[N+]([H])([H])C([H])([H])C([H])([H])OC([H])([H])C([H])([H])C([H])([H])C([H])([H])OC([H])([H])C([H])([H])C([H])([H])N([H])C(=O)N3C([H])([H])C([H])([H])C([H])([H])C([H])(n4nc(-c5c([H])c([H])c(Oc6c([H])c([H])c(F)c([H])c6F)c([H])c5[H])c(C(=O)N([H])[H])c4N([H])[H])C3([H])[H])C([H])([H])C([H])([H])[H])c([H])c([H])c2C1([H])[H]

>  <smiles>  (84) 
[H]c1c([H])c([H])c2c(c1[H])C([H])([H])C([H])([H])C([H])([H])C2([H])N([H])C(=O)C1([H])N(C(=O)C([H])(N([H])C(=O)C([H])(N([H])C([H])([H])[H])C([H])([H])[H])C(C([H])([H])[H])(C([H])([H])[H])C([H])([H])[H])C([H])([H])c2c([H])c(OC([H])([H])C([H])([H])[N+]([H])([H])C([H])(C(=O)OC([H])([H])C([H])([H])OC([H])([H])C([H])([H])C([H])([H])[N+]([H])([H])C([H])([H])C([H])([H])OC([H])([H])C([H])([H])C([H])([H])C([H])([H])OC([H])([H])C([H])([H])C([H])([H])N([H])C(=O)N3C([H])([H])C([H])([H])C([H])([H])C([H])(n4nc(-c5c([H])c([H])c(Oc6c([H])c([H])c(F)c([H])c6F)c([H])c5[H])c(C(=O)N([H])[H])c4N([H])[H])C3([H])[H])C([H])([H])C([H])([H])[H])c([H])c([H])c2C1([H])[H]

$$$$
88:0:0
     RDKit          3D

 96103  0  0  1  0  0  0  0  0999 V2000
  -29.9810  -20.2430   20.5340 C   0  0  0  0  0  0  0  0  0  0  0  0
  -30.0150  -19.0160   21.0850 N   0  0  0  0  0  0  0  0  0  0  0  0
  -30.4200  -20.4600   19.4030 O   0  0  0  0  0  0  0  0  0  0  0  0
  -29.6100  -18.9220   22.0060 H   0  0  0  0  0  0  0  0  0  0  0  0
  -29.3450  -21.3800   21.3760 C   0  0  0  0  0  2  0  0  0  0  0  0
  -29.8920  -22.6790   21.0770 O   0  0  0  0  0  0  0  0  0  0  0  0
  -29.3940  -23.3470   19.9120 C   0  0  0  0  0  2  0  0  0  0  0  0
  -28.1700  -24.2570   20.1800 C   0  0  0  0  0  2  0  0  0  0  0  0
  -28.4490  -25.5270   21.0190 C   0  0  0  0  0  2  0  0  0  0  0  0
  -28.4010  -26.7510   20.2710 O   0  0  0  0  0  0  0  0  0  0  0  0
  -24.5800  -31.9670   23.2870 C   0  0  0  0  0  0  0  0  0  0  0  0
  -27.2160  -27.4560   20.3050 C   0  0  0  0  0  0  0  0  0  0  0  0
  -23.3680  -30.5360   21.6710 C   0  0  0  0  0  3  0  0  0  0  0  0
  -24.8170  -28.9570   20.2870 C   0  0  0  0  0  0  0  0  0  0  0  0
  -25.8930  -30.8840   21.4670 C   0  0  0  0  0  2  0  0  0  0  0  0
  -25.9760  -29.4970   20.8600 C   0  0  0  0  0  0  0  0  0  0  0  0
  -27.1800  -28.7560   20.8610 C   0  0  0  0  0  3  0  0  0  0  0  0
  -26.0390  -26.9220   19.7380 C   0  0  0  0  0  3  0  0  0  0  0  0
  -24.8420  -27.6670   19.7270 C   0  0  0  0  0  3  0  0  0  0  0  0
  -23.5770  -29.8220   20.3090 C   0  0  0  0  0  2  0  0  0  0  0  0
  -24.6320  -31.1420   22.2010 N   0  0  0  0  0  0  0  0  0  0  0  0
  -23.4990  -32.2580   23.8170 O   0  0  0  0  0  0  0  0  0  0  0  0
  -22.7090  -29.5410   22.6520 C   0  0  0  0  0  0  0  0  0  0  0  0
  -21.3880  -29.3430   22.5040 N   0  0  0  0  0  0  0  0  0  0  0  0
  -23.3820  -28.9490   23.5000 O   0  0  0  0  0  0  0  0  0  0  0  0
  -20.9060  -29.8730   21.7890 H   0  0  0  0  0  0  0  0  0  0  0  0
  -18.0210  -28.1080   22.9450 C   0  0  0  0  0  0  0  0  0  0  0  0
  -20.5640  -28.4220   23.2850 C   0  0  0  0  0  3  0  0  0  0  0  0
  -20.7100  -26.9730   22.7690 C   0  0  0  0  0  2  0  0  0  0  0  0
  -19.6450  -26.5900   21.7350 C   0  0  0  0  0  2  0  0  0  0  0  0
  -18.2410  -26.7370   22.3290 C   0  0  0  0  0  2  0  0  0  0  0  0
  -19.1140  -28.9070   23.3790 C   0  0  0  0  0  0  0  0  0  0  0  0
  -18.8570  -30.1880   23.9120 C   0  0  0  0  0  3  0  0  0  0  0  0
  -17.5410  -30.6760   24.0140 C   0  0  0  0  0  3  0  0  0  0  0  0
  -16.4620  -29.8750   23.6010 C   0  0  0  0  0  3  0  0  0  0  0  0
  -16.7030  -28.5930   23.0730 C   0  0  0  0  0  3  0  0  0  0  0  0
  -25.8690  -32.6010   23.8980 C   0  0  0  0  0  3  0  0  0  0  0  0
  -25.5650  -34.0020   24.2110 N   0  0  0  0  0  0  0  0  0  0  0  0
  -25.9060  -35.0420   23.4390 C   0  0  0  0  0  0  0  0  0  0  0  0
  -26.5790  -34.9240   22.4120 O   0  0  0  0  0  0  0  0  0  0  0  0
  -24.9680  -34.1710   25.0070 H   0  0  0  0  0  0  0  0  0  0  0  0
  -24.1870  -36.8360   23.0560 C   0  0  0  0  0  1  0  0  0  0  0  0
  -25.4240  -36.4370   23.8760 C   0  0  0  0  0  3  0  0  0  0  0  0
  -27.5590  -37.3200   24.7080 C   0  0  0  0  0  1  0  0  0  0  0  0
  -26.4620  -37.4840   23.7570 N   0  0  0  0  0  0  0  0  0  0  0  0
  -26.0590  -38.4070   23.8950 H   0  0  0  0  0  0  0  0  0  0  0  0
  -26.3910  -31.8410   25.1790 C   0  0  1  0  0  0  0  0  0  0  0  0
  -25.2970  -31.6070   26.2470 C   0  0  0  0  0  1  0  0  0  0  0  0
  -26.9810  -30.4640   24.7930 C   0  0  0  0  0  1  0  0  0  0  0  0
  -27.5390  -32.6460   25.8320 C   0  0  0  0  0  1  0  0  0  0  0  0
  -30.2870  -17.7480   20.3870 C   0  0  0  0  0  3  0  0  0  0  0  0
  -28.9290  -17.2690   19.8200 C   0  0  0  0  0  0  0  0  0  0  0  0
  -28.8890  -16.8820   18.5520 N   0  0  0  0  0  0  0  0  0  0  0  0
  -27.9180  -17.2460   20.5190 O   0  0  0  0  0  0  0  0  0  0  0  0
  -29.7230  -16.9300   17.9820 H   0  0  0  0  0  0  0  0  0  0  0  0
  -28.0200  -16.5880   18.1320 H   0  0  0  0  0  0  0  0  0  0  0  0
  -30.5410  -16.8970   22.8540 C   0  0  0  0  0  1  0  0  0  0  0  0
  -30.9280  -16.6900   21.3710 C   0  0  0  0  0  3  0  0  0  0  0  0
  -31.1670  -14.4290   20.1890 C   0  0  0  0  0  0  0  0  0  0  0  0
  -30.7770  -12.3220   18.9450 C   0  0  0  0  0  2  0  0  0  0  0  0
  -29.8070  -12.5590   17.7690 C   0  0  0  0  0  2  0  0  0  0  0  0
  -28.3380  -12.4660   18.2290 C   0  0  0  0  0  2  0  0  0  0  0  0
  -28.0610  -13.3110   19.4990 C   0  0  0  0  0  3  0  0  0  0  0  0
  -29.1190  -13.0090   20.5820 C   0  0  0  0  0  2  0  0  0  0  0  0
  -30.4540  -13.2820   20.0100 N   0  0  0  0  0  0  0  0  0  0  0  0
  -32.2070  -14.6910   19.5780 O   0  0  0  0  0  0  0  0  0  0  0  0
  -30.6020  -15.2880   21.0560 N   0  0  0  0  0  0  0  0  0  0  0  0
  -29.7760  -14.9260   21.5050 H   0  0  0  0  0  0  0  0  0  0  0  0
  -25.6970  -14.0270   20.2350 C   0  0  0  0  0  0  0  0  0  0  0  0
  -24.6060  -13.3000   20.6320 C   0  0  0  0  0  0  0  0  0  0  0  0
  -25.0130  -11.9320   20.6090 C   0  0  0  0  0  0  0  0  0  0  0  0
  -26.7040  -13.1020   20.0000 N   0  0  0  0  0  0  0  0  0  0  0  0
  -26.2950  -11.8370   20.2770 N   0  0  0  0  0  0  0  0  0  0  0  0
  -24.2440  -10.7020   20.8310 C   0  0  0  0  0  0  0  0  0  0  0  0
  -24.6350   -9.7500   21.7980 C   0  0  0  0  0  3  0  0  0  0  0  0
  -23.8690   -8.5830   22.0040 C   0  0  0  0  0  3  0  0  0  0  0  0
  -22.6960   -8.3600   21.2420 C   0  0  0  0  0  0  0  0  0  0  0  0
  -22.3250   -9.2990   20.2650 C   0  0  0  0  0  3  0  0  0  0  0  0
  -23.0910  -10.4590   20.0580 C   0  0  0  0  0  3  0  0  0  0  0  0
  -21.9040   -7.2440   21.3560 O   0  0  0  0  0  0  0  0  0  0  0  0
  -21.7820   -6.5640   22.5420 C   0  0  0  0  0  0  0  0  0  0  0  0
  -21.3230   -7.1960   23.7190 C   0  0  0  0  0  3  0  0  0  0  0  0
  -21.1470   -6.4440   24.8970 C   0  0  0  0  0  3  0  0  0  0  0  0
  -21.4170   -5.0630   24.8990 C   0  0  0  0  0  0  0  0  0  0  0  0
  -21.8690   -4.4320   23.7270 C   0  0  0  0  0  3  0  0  0  0  0  0
  -22.0470   -5.1800   22.5510 C   0  0  0  0  0  0  0  0  0  0  0  0
  -22.4610   -4.5640   21.4180 F   0  0  0  0  0  0  0  0  0  0  0  0
  -21.2400   -4.3380   26.0300 F   0  0  0  0  0  0  0  0  0  0  0  0
  -23.2350  -13.8350   20.9290 C   0  0  0  0  0  0  0  0  0  0  0  0
  -22.5030  -13.1830   21.8270 N   0  0  0  0  0  0  0  0  0  0  0  0
  -22.8210  -14.8670   20.4020 O   0  0  0  0  0  0  0  0  0  0  0  0
  -22.8510  -12.3490   22.2770 H   0  0  0  0  0  0  0  0  0  0  0  0
  -21.5820  -13.5200   22.0660 H   0  0  0  0  0  0  0  0  0  0  0  0
  -25.9060  -15.3890   20.0460 N   0  0  0  0  0  0  0  0  0  0  0  0
  -25.1620  -16.0630   20.1820 H   0  0  0  0  0  0  0  0  0  0  0  0
  -26.8010  -15.8360   19.8670 H   0  0  0  0  0  0  0  0  0  0  0  0
  1  2  1  0
  1  5  1  0
  2  4  1  0
  3  1  2  0
  6  5  1  0
  7  8  1  0
  7  6  1  0
  8  9  1  0
 10 12  1  0
 10  9  1  0
 11 22  2  0
 12 17  1  0
 13 21  1  0
 13 23  1  0
 14 20  1  0
 14 16  1  0
 15 21  1  0
 16 17  2  0
 16 15  1  0
 18 12  2  0
 19 18  1  0
 19 14  2  0
 20 13  1  0
 21 11  1  0
 23 25  2  0
 24 23  1  0
 26 24  1  0
 27 36  2  0
 27 32  1  0
 28 24  1  0
 28 32  1  0
 29 28  1  0
 30 31  1  0
 30 29  1  0
 31 27  1  0
 32 33  2  0
 33 34  1  0
 35 34  2  0
 36 35  1  0
 37 11  1  0
 37 38  1  0
 37 47  1  0
 38 41  1  0
 39 43  1  0
 39 38  1  0
 40 39  2  0
 43 42  1  0
 45 43  1  0
 45 46  1  0
 45 44  1  0
 47 50  1  1
 47 48  1  0
 49 47  1  0
 51 52  1  0
 51  2  1  0
 51 58  1  0
 52 54  2  0
 53 52  1  0
 55 53  1  0
 56 53  1  0
 58 57  1  0
 59 67  1  0
 60 65  1  0
 61 62  1  0
 61 60  1  0
 63 62  1  0
 63 72  1  0
 63 64  1  0
 65 59  1  0
 65 64  1  0
 66 59  2  0
 67 58  1  0
 67 68  1  0
 69 70  2  0
 70 89  1  0
 71 70  1  0
 71 74  1  0
 72 69  1  0
 72 73  1  0
 73 71  2  0
 74 75  1  0
 75 76  2  0
 77 80  1  0
 77 76  1  0
 78 77  2  0
 79 78  1  0
 79 74  2  0
 80 81  1  0
 81 86  2  0
 81 82  1  0
 82 83  2  0
 83 84  1  0
 84 88  1  0
 85 84  2  0
 86 85  1  0
 87 86  1  0
 89 90  1  0
 90 93  1  0
 90 92  1  0
 91 89  2  0
 94 95  1  0
 94 69  1  0
 96 94  1  0
M  ISO  4   9 101  10 101  59 100  67 100
M  END
>  <TORSDO>  (85) 
F 24

>  <SCORE>  (85) 
-12.561

>  <name>  (85) 
88

>  <ligand_id>  (85) 
88

>  <original_smiles>  (85) 
[H]c1c([H])c([H])c2c(c1[H])C([H])([H])C([H])([H])C([H])([H])C2([H])N([H])C(=O)C1([H])N(C(=O)C([H])(N([H])C(=O)C([H])(N([H])C([H])([H])[H])C([H])([H])[H])C(C([H])([H])[H])(C([H])([H])[H])C([H])([H])[H])C([H])([H])c2c([H])c(OC([H])([H])C([H])([H])C([H])([H])OC([H])([H])C(=O)N([H])C([H])(C(=O)N([H])[H])C([H])(N([H])C(=O)N3C([H])([H])C([H])([H])C([H])([H])C([H])(n4nc(-c5c([H])c([H])c(Oc6c([H])c([H])c(F)c([H])c6F)c([H])c5[H])c(C(=O)N([H])[H])c4N([H])[H])C3([H])[H])C([H])([H])[H])c([H])c([H])c2C1([H])[H]

>  <smiles>  (85) 
[H]c1c([H])c([H])c2c(c1[H])C([H])([H])C([H])([H])C([H])([H])C2([H])N([H])C(=O)C1([H])N(C(=O)C([H])(N([H])C(=O)C([H])(N([H])C([H])([H])[H])C([H])([H])[H])C(C([H])([H])[H])(C([H])([H])[H])C([H])([H])[H])C([H])([H])c2c([H])c(OC([H])([H])C([H])([H])C([H])([H])OC([H])([H])C(=O)N([H])C([H])(C(=O)N([H])[H])C([H])(N([H])C(=O)N3C([H])([H])C([H])([H])C([H])([H])C([H])(n4nc(-c5c([H])c([H])c(Oc6c([H])c([H])c(F)c([H])c6F)c([H])c5[H])c(C(=O)N([H])[H])c4N([H])[H])C3([H])[H])C([H])([H])[H])c([H])c([H])c2C1([H])[H]

$$$$
89:0:0
     RDKit          3D

100103  0  0  1  0  0  0  0  0999 V2000
  -24.7730  -26.3930   25.0520 C   0  0  0  0  0  2  0  0  0  0  0  0
  -23.4070  -26.5640   24.6050 O   0  0  0  0  0  0  0  0  0  0  0  0
  -22.7280  -27.7590   24.9680 C   0  0  0  0  0  2  0  0  0  0  0  0
  -21.3870  -27.7980   24.4660 O   0  0  0  0  0  0  0  0  0  0  0  0
  -21.0520  -28.8800   23.5510 C   0  0  0  0  0  2  0  0  0  0  0  0
  -19.5300  -29.0950   23.1750 C   0  0  0  0  0  2  0  0  0  0  0  0
  -18.7330  -28.0640   22.5210 O   0  0  0  0  0  0  0  0  0  0  0  0
  -18.1580  -28.2380   21.1550 C   0  0  0  0  0  1  0  0  0  0  0  0
  -20.0210  -27.2350   18.3700 C   0  0  0  0  0  1  0  0  0  0  0  0
  -22.3500  -26.4350   17.8740 C   0  0  0  0  0 15  0  0  0  0  0  0
  -24.4310  -25.9740   18.2420 O   0  0  0  0  0  0  0  0  0  0  0  0
  -24.5480  -30.8500   22.1550 C   0  0  0  0  0  0  0  0  0  0  0  0
  -26.0520  -26.4100   18.0320 C   0  0  0  0  0  2  0  0  0  0  0  0
  -23.4580  -29.8910   20.2440 C   0  0  0  0  0  3  0  0  0  0  0  0
  -25.0380  -29.7070   17.8290 C   0  0  0  0  0  3  0  0  0  0  0  0
  -26.0310  -30.5280   20.0560 C   0  0  0  0  0  2  0  0  0  0  0  0
  -26.3980  -29.5370   18.8560 C   0  0  0  0  0  3  0  0  0  0  0  0
  -27.1210  -27.8330   19.0390 C   0  0  0  0  0  1  0  0  0  0  0  0
  -24.9220  -26.9420   16.9450 C   0  0  0  0  0  3  0  0  0  0  0  0
  -24.4420  -28.4920   16.9040 C   0  0  0  0  0  2  0  0  0  0  0  0
  -23.6770  -30.1160   18.6260 C   0  0  0  0  0  2  0  0  0  0  0  0
  -24.7030  -30.4270   20.8550 N   0  0  0  0  0  0  0  0  0  0  0  0
  -23.4650  -30.7820   22.7770 O   0  0  0  0  0  0  0  0  0  0  0  0
  -23.0720  -28.5570   21.1230 C   0  0  0  0  0  0  0  0  0  0  0  0
  -22.9170  -27.3420   20.7130 N   0  0  0  0  0  0  0  0  0  0  0  0
  -23.1470  -28.5180   22.3370 O   0  0  0  0  0  0  0  0  0  0  0  0
  -22.7050  -27.2730   19.7270 H   0  0  0  0  0  0  0  0  0  0  0  0
  -22.1810  -23.8210   19.6880 C   0  0  0  0  0  0  0  0  0  0  0  0
  -22.8560  -25.9330   21.3680 C   0  0  0  0  0  3  0  0  0  0  0  0
  -24.0510  -24.8730   21.3120 C   0  0  0  0  0  2  0  0  0  0  0  0
  -24.4100  -23.9160   20.0690 C   0  0  0  0  0  2  0  0  0  0  0  0
  -23.3190  -22.9540   19.7680 C   0  0  0  0  0  2  0  0  0  0  0  0
  -21.8310  -25.2150   20.6950 C   0  0  0  0  0  0  0  0  0  0  0  0
  -20.7730  -26.3210   20.0400 C   0  0  0  0  0  3  0  0  0  0  0  0
  -20.1700  -26.0890   18.6180 C   0  0  0  0  0  0  0  0  0  0  0  0
  -20.4980  -24.8370   17.7760 C   0  0  0  0  0  3  0  0  0  0  0  0
  -21.4880  -23.7420   18.2480 C   0  0  0  0  0  3  0  0  0  0  0  0
  -25.7230  -31.4550   22.9220 C   0  0  0  0  0  3  0  0  0  0  0  0
  -25.1740  -32.6280   23.6070 N   0  0  0  0  0  0  0  0  0  0  0  0
  -25.3360  -33.8820   23.1800 C   0  0  0  0  0  0  0  0  0  0  0  0
  -26.0610  -34.1670   22.2230 O   0  0  0  0  0  0  0  0  0  0  0  0
  -24.5240  -32.4560   24.3600 H   0  0  0  0  0  0  0  0  0  0  0  0
  -23.4320  -35.5290   23.1300 C   0  0  0  0  0  1  0  0  0  0  0  0
  -24.6080  -34.9890   23.9580 C   0  0  0  0  0  3  0  0  0  0  0  0
  -26.5200  -35.7230   25.3090 C   0  0  0  0  0  1  0  0  0  0  0  0
  -25.4980  -36.1030   24.3400 N   0  0  0  0  0  0  0  0  0  0  0  0
  -24.9620  -36.8760   24.7260 H   0  0  0  0  0  0  0  0  0  0  0  0
  -26.3770  -30.4690   23.9590 C   0  0  1  0  0  0  0  0  0  0  0  0
  -25.3720  -29.7430   24.8850 C   0  0  0  0  0  1  0  0  0  0  0  0
  -27.2510  -29.4000   23.2770 C   0  0  0  0  0  1  0  0  0  0  0  0
  -27.3480  -31.2890   24.8290 C   0  0  0  0  0  1  0  0  0  0  0  0
  -25.7950  -26.0250   23.9040 C   0  0  0  0  0  2  0  0  0  0  0  0
  -26.0470  -27.2810   22.9930 C   0  0  0  0  0  2  0  0  0  0  0  0
  -26.9010  -27.5520   21.6150 N   0  0  0  0  0  0  0  0  0  0  0  0
  -26.4090  -26.9490   20.9600 H   0  0  0  0  0  0  0  0  0  0  0  0
  -26.9130  -28.5100   21.3120 H   0  0  0  0  0  0  0  0  0  0  0  0
  -29.5890  -26.4140   21.0970 C   0  0  0  0  0 15  0  0  0  0  0  0
  -29.9890  -24.4520   21.3610 C   0  0  0  0  0  1  0  0  0  0  0  0
  -29.6070  -22.7680   20.9690 O   0  0  0  0  0  0  0  0  0  0  0  0
  -30.3240  -21.1500   21.0450 C   0  0  0  0  0  3  0  0  0  0  0  0
  -29.9620  -19.2490   20.7230 C   0  0  0  0  0  3  0  0  0  0  0  0
  -30.8440  -17.5090   20.5900 C   0  0  0  0  0  2  0  0  0  0  0  0
  -31.0740  -14.3470   20.1680 C   0  0  0  0  0  0  0  0  0  0  0  0
  -30.8220  -11.9780   18.9760 C   0  0  0  0  0  2  0  0  0  0  0  0
  -29.8320  -11.9060   17.7820 C   0  0  0  0  0  2  0  0  0  0  0  0
  -28.3900  -11.6950   18.2710 C   0  0  0  0  0  2  0  0  0  0  0  0
  -28.0780  -12.5600   19.5120 C   0  0  0  0  0  3  0  0  0  0  0  0
  -29.1840  -12.5120   20.5860 C   0  0  0  0  0  2  0  0  0  0  0  0
  -30.3910  -13.0770   19.9480 N   0  0  0  0  0  0  0  0  0  0  0  0
  -32.2880  -14.1620   19.9440 O   0  0  0  0  0  0  0  0  0  0  0  0
  -30.4710  -15.7670   20.4300 N   0  0  0  0  0  0  0  0  0  0  0  0
  -29.4750  -15.6400   20.5430 H   0  0  0  0  0  0  0  0  0  0  0  0
  -25.7620  -13.2670   20.2640 C   0  0  0  0  0  0  0  0  0  0  0  0
  -24.6640  -12.5680   20.6700 C   0  0  0  0  0  0  0  0  0  0  0  0
  -25.0590  -11.1940   20.7040 C   0  0  0  0  0  0  0  0  0  0  0  0
  -26.7530  -12.3270   20.0560 N   0  0  0  0  0  0  0  0  0  0  0  0
  -26.3470  -11.0760   20.3940 N   0  0  0  0  0  0  0  0  0  0  0  0
  -24.2660   -9.9840   20.9520 C   0  0  0  0  0  0  0  0  0  0  0  0
  -24.6350   -9.0460   21.9410 C   0  0  0  0  0  3  0  0  0  0  0  0
  -23.8410   -7.9020   22.1750 C   0  0  0  0  0  3  0  0  0  0  0  0
  -22.6630   -7.6900   21.4200 C   0  0  0  0  0  0  0  0  0  0  0  0
  -22.3130   -8.6140   20.4200 C   0  0  0  0  0  3  0  0  0  0  0  0
  -23.1070   -9.7480   20.1840 C   0  0  0  0  0  3  0  0  0  0  0  0
  -21.8440   -6.5950   21.5620 O   0  0  0  0  0  0  0  0  0  0  0  0
  -21.7160   -5.9420   22.7600 C   0  0  0  0  0  0  0  0  0  0  0  0
  -21.3090   -6.6130   23.9350 C   0  0  0  0  0  3  0  0  0  0  0  0
  -21.1240   -5.8890   25.1300 C   0  0  0  0  0  3  0  0  0  0  0  0
  -21.3340   -4.4970   25.1520 C   0  0  0  0  0  0  0  0  0  0  0  0
  -21.7340   -3.8280   23.9820 C   0  0  0  0  0  3  0  0  0  0  0  0
  -21.9210   -4.5480   22.7890 C   0  0  0  0  0  0  0  0  0  0  0  0
  -22.2850   -3.8940   21.6600 F   0  0  0  0  0  0  0  0  0  0  0  0
  -21.1480   -3.8010   26.2970 F   0  0  0  0  0  0  0  0  0  0  0  0
  -23.2940  -13.1330   20.9070 C   0  0  0  0  0  0  0  0  0  0  0  0
  -22.5390  -12.5440   21.8270 N   0  0  0  0  0  0  0  0  0  0  0  0
  -22.9060  -14.1350   20.3080 O   0  0  0  0  0  0  0  0  0  0  0  0
  -22.8690  -11.7360   22.3340 H   0  0  0  0  0  0  0  0  0  0  0  0
  -21.6190  -12.9080   22.0290 H   0  0  0  0  0  0  0  0  0  0  0  0
  -25.9980  -14.6180   20.0190 N   0  0  0  0  0  0  0  0  0  0  0  0
  -25.2670  -15.3170   20.0960 H   0  0  0  0  0  0  0  0  0  0  0  0
  -26.8540  -14.9840   19.6250 H   0  0  0  0  0  0  0  0  0  0  0  0
  2  3  1  0
  2  1  1  0
  4  3  1  0
  5  4  1  0
  6  5  1  0
  7  6  1  0
  8  7  1  0
  9 35  1  0
 12 23  2  0
 13 11  1  0
 14 22  1  0
 14 24  1  0
 15 20  1  0
 15 21  1  0
 15 17  1  0
 16 22  1  0
 17 18  1  0
 17 16  1  0
 19 20  1  0
 19 13  1  0
 19 11  1  0
 21 14  1  0
 22 12  1  0
 24 26  2  0
 25 24  1  0
 27 25  1  0
 28 32  1  0
 28 33  1  0
 29 25  1  0
 30 29  1  0
 31 30  1  0
 32 31  1  0
 33 29  1  0
 34 33  2  0
 35 34  1  0
 36 37  1  0
 36 35  2  0
 37 28  2  0
 38 12  1  0
 38 39  1  0
 38 48  1  0
 39 42  1  0
 40 39  1  0
 40 44  1  0
 41 40  2  0
 44 43  1  0
 44 46  1  0
 46 47  1  0
 46 45  1  0
 48 51  1  1
 48 49  1  0
 50 48  1  0
 52  1  1  0
 53 52  1  0
 54 53  1  0
 55 54  1  0
 56 54  1  0
 59 60  1  0
 59 58  1  0
 61 60  2  0
 62 61  1  0
 63 71  1  0
 64 69  1  0
 65 66  1  0
 65 64  1  0
 67 66  1  0
 67 76  1  0
 67 68  1  0
 69 63  1  0
 69 68  1  0
 70 63  2  0
 71 72  1  0
 71 62  1  0
 73 74  2  0
 74 75  1  0
 74 93  1  0
 75 78  1  0
 76 73  1  0
 76 77  1  0
 77 75  2  0
 78 79  1  0
 79 80  2  0
 81 84  1  0
 81 80  1  0
 82 81  2  0
 83 82  1  0
 83 78  2  0
 84 85  1  0
 85 90  2  0
 85 86  1  0
 86 87  2  0
 87 88  1  0
 88 92  1  0
 89 88  2  0
 90 89  1  0
 91 90  1  0
 93 94  1  0
 94 97  1  0
 94 96  1  0
 95 93  2  0
 98 99  1  0
 98 73  1  0
100 98  1  0
M  ISO  4  10 101  11 101  63 100  71 100
M  END
>  <TORSDO>  (86) 
F 34

>  <SCORE>  (86) 
-6.771

>  <name>  (86) 
89

>  <ligand_id>  (86) 
89

>  <original_smiles>  (86) 
[H]c1c([H])c([H])c2c(c1[H])C([H])([H])C([H])([H])C([H])([H])C2([H])N([H])C(=O)C1([H])N(C(=O)C([H])(N([H])C(=O)C([H])(N([H])C([H])([H])[H])C([H])([H])[H])C(C([H])([H])[H])(C([H])([H])[H])C([H])([H])[H])C([H])([H])c2c([H])c(OC([H])([H])C([H])([H])C([H])([H])OC([H])([H])C([H])([H])OC([H])([H])OC([H])([H])C([H])([H])C([H])([H])[N+]([H])([H])C([H])([H])C([H])([H])OC([H])([H])C([H])([H])C([H])([H])N([H])C(=O)N3C([H])([H])C([H])([H])C([H])([H])C([H])(n4nc(-c5c([H])c([H])c(Oc6c([H])c([H])c(F)c([H])c6F)c([H])c5[H])c(C(=O)N([H])[H])c4N([H])[H])C3([H])[H])c([H])c([H])c2C1([H])[H]

>  <smiles>  (86) 
[H]c1c([H])c([H])c2c(c1[H])C([H])([H])C([H])([H])C([H])([H])C2([H])N([H])C(=O)C1([H])N(C(=O)C([H])(N([H])C(=O)C([H])(N([H])C([H])([H])[H])C([H])([H])[H])C(C([H])([H])[H])(C([H])([H])[H])C([H])([H])[H])C([H])([H])c2c([H])c(OC([H])([H])C([H])([H])C([H])([H])OC([H])([H])C([H])([H])OC([H])([H])OC([H])([H])C([H])([H])C([H])([H])[N+]([H])([H])C([H])([H])C([H])([H])OC([H])([H])C([H])([H])C([H])([H])N([H])C(=O)N3C([H])([H])C([H])([H])C([H])([H])C([H])(n4nc(-c5c([H])c([H])c(Oc6c([H])c([H])c(F)c([H])c6F)c([H])c5[H])c(C(=O)N([H])[H])c4N([H])[H])C3([H])[H])c([H])c([H])c2C1([H])[H]

$$$$
90:0:0
     RDKit          3D

 98105  0  0  1  0  0  0  0  0999 V2000
  -31.1050  -26.2050   21.1640 N   0  0  0  0  0  4  0  0  0  0  0  0
  -30.6360  -26.7920   21.8410 H   0  0  0  0  0  0  0  0  0  0  0  0
  -30.4810  -26.1100   20.3790 H   0  0  0  0  0  0  0  0  0  0  0  0
  -32.3150  -26.9260   20.7060 C   0  0  0  0  0  2  0  0  0  0  0  0
  -31.9610  -27.8810   19.5630 C   0  0  0  0  0  2  0  0  0  0  0  0
  -31.3280  -27.0790   18.5800 O   0  0  0  0  0  0  0  0  0  0  0  0
  -30.9740  -27.8000   17.4110 C   0  0  0  0  0  2  0  0  0  0  0  0
  -30.2360  -26.8370   16.4740 C   0  0  0  0  0  2  0  0  0  0  0  0
  -28.7580  -26.5840   16.8270 C   0  0  0  0  0  2  0  0  0  0  0  0
  -28.4830  -26.1120   18.2690 C   0  0  0  0  0  2  0  0  0  0  0  0
  -28.4140  -27.2110   19.1880 O   0  0  0  0  0  0  0  0  0  0  0  0
  -24.6280  -31.6680   23.2460 C   0  0  0  0  0  0  0  0  0  0  0  0
  -27.2110  -27.8780   19.3420 C   0  0  0  0  0  0  0  0  0  0  0  0
  -23.3810  -30.5550   21.4240 C   0  0  0  0  0  3  0  0  0  0  0  0
  -24.7980  -29.3150   19.7090 C   0  0  0  0  0  0  0  0  0  0  0  0
  -25.8950  -30.9800   21.2120 C   0  0  0  0  0  2  0  0  0  0  0  0
  -25.9720  -29.7420   20.3420 C   0  0  0  0  0  0  0  0  0  0  0  0
  -27.1780  -29.0300   20.1600 C   0  0  0  0  0  3  0  0  0  0  0  0
  -26.0110  -27.4620   18.7170 C   0  0  0  0  0  3  0  0  0  0  0  0
  -24.8110  -28.1690   18.8990 C   0  0  0  0  0  3  0  0  0  0  0  0
  -23.5500  -30.1330   19.9420 C   0  0  0  0  0  2  0  0  0  0  0  0
  -24.6550  -31.0730   22.0200 N   0  0  0  0  0  0  0  0  0  0  0  0
  -23.5630  -31.8240   23.8580 O   0  0  0  0  0  0  0  0  0  0  0  0
  -22.7750  -29.3700   22.2090 C   0  0  0  0  0  0  0  0  0  0  0  0
  -21.4490  -29.1920   22.0930 N   0  0  0  0  0  0  0  0  0  0  0  0
  -23.4920  -28.6200   22.8780 O   0  0  0  0  0  0  0  0  0  0  0  0
  -20.9310  -29.8540   21.5320 H   0  0  0  0  0  0  0  0  0  0  0  0
  -18.0990  -27.8940   22.4970 C   0  0  0  0  0  0  0  0  0  0  0  0
  -20.6650  -28.1220   22.7120 C   0  0  0  0  0  3  0  0  0  0  0  0
  -20.7470  -26.8180   21.8820 C   0  0  0  0  0  2  0  0  0  0  0  0
  -19.6060  -26.6740   20.8710 C   0  0  0  0  0  2  0  0  0  0  0  0
  -18.2510  -26.6890   21.5830 C   0  0  0  0  0  2  0  0  0  0  0  0
  -19.2330  -28.5760   23.0130 C   0  0  0  0  0  0  0  0  0  0  0  0
  -19.0360  -29.7120   23.8290 C   0  0  0  0  0  3  0  0  0  0  0  0
  -17.7380  -30.1640   24.1310 C   0  0  0  0  0  3  0  0  0  0  0  0
  -16.6190  -29.4770   23.6280 C   0  0  0  0  0  3  0  0  0  0  0  0
  -16.8010  -28.3420   22.8190 C   0  0  0  0  0  3  0  0  0  0  0  0
  -25.9280  -32.2000   23.9280 C   0  0  0  0  0  3  0  0  0  0  0  0
  -25.6850  -33.5970   24.3120 N   0  0  0  0  0  0  0  0  0  0  0  0
  -26.1070  -34.6600   23.6140 C   0  0  0  0  0  0  0  0  0  0  0  0
  -26.8150  -34.5640   22.6080 O   0  0  0  0  0  0  0  0  0  0  0  0
  -25.0660  -33.7490   25.0940 H   0  0  0  0  0  0  0  0  0  0  0  0
  -24.5040  -36.5650   23.2630 C   0  0  0  0  0  1  0  0  0  0  0  0
  -25.6780  -36.0530   24.1110 C   0  0  0  0  0  3  0  0  0  0  0  0
  -27.8080  -36.7800   25.0930 C   0  0  0  0  0  1  0  0  0  0  0  0
  -26.7740  -37.0450   24.0960 N   0  0  0  0  0  0  0  0  0  0  0  0
  -26.4140  -37.9830   24.2530 H   0  0  0  0  0  0  0  0  0  0  0  0
  -26.3700  -31.3450   25.1770 C   0  0  1  0  0  0  0  0  0  0  0  0
  -25.2370  -31.1080   26.2040 C   0  0  0  0  0  1  0  0  0  0  0  0
  -26.9020  -29.9620   24.7300 C   0  0  0  0  0  1  0  0  0  0  0  0
  -27.5360  -32.0510   25.9100 C   0  0  0  0  0  1  0  0  0  0  0  0
  -31.3420  -24.8910   21.8070 C   0  0  0  0  0  2  0  0  0  0  0  0
  -31.8480  -23.7860   20.8500 C   0  0  0  0  0  2  0  0  0  0  0  0
  -30.7450  -23.0830   20.0450 C   0  0  0  0  0  2  0  0  0  0  0  0
  -31.0820  -21.7080   19.9060 O   0  0  0  0  0  0  0  0  0  0  0  0
  -30.0180  -20.9320   19.3640 C   0  0  0  0  0  2  0  0  0  0  0  0
  -30.2000  -19.4570   19.7490 C   0  0  0  0  0  2  0  0  0  0  0  0
  -31.2250  -18.8680   18.9500 O   0  0  0  0  0  0  0  0  0  0  0  0
  -31.2300  -17.4430   18.9440 C   0  0  0  0  0  2  0  0  0  0  0  0
  -31.6130  -16.8230   20.3060 C   0  0  0  0  0  2  0  0  0  0  0  0
  -31.6650  -14.3810   19.8480 C   0  0  0  0  0  0  0  0  0  0  0  0
  -31.3680  -11.9840   19.3530 C   0  0  0  0  0  2  0  0  0  0  0  0
  -30.4200  -11.7890   18.1530 C   0  0  0  0  0  2  0  0  0  0  0  0
  -28.9490  -11.7710   18.6100 C   0  0  0  0  0  2  0  0  0  0  0  0
  -28.5980  -12.9570   19.5480 C   0  0  0  0  0  3  0  0  0  0  0  0
  -29.6540  -13.1030   20.6680 C   0  0  0  0  0  2  0  0  0  0  0  0
  -30.9820  -13.2240   20.0390 N   0  0  0  0  0  0  0  0  0  0  0  0
  -32.7010  -14.4670   19.1840 O   0  0  0  0  0  0  0  0  0  0  0  0
  -31.1180  -15.4540   20.4180 N   0  0  0  0  0  0  0  0  0  0  0  0
  -30.2570  -15.3070   20.9230 H   0  0  0  0  0  0  0  0  0  0  0  0
  -26.3210  -13.8110   20.3930 C   0  0  0  0  0  0  0  0  0  0  0  0
  -25.1900  -13.1500   20.7920 C   0  0  0  0  0  0  0  0  0  0  0  0
  -25.4870  -11.7570   20.6910 C   0  0  0  0  0  0  0  0  0  0  0  0
  -27.2460  -12.8240   20.0870 N   0  0  0  0  0  0  0  0  0  0  0  0
  -26.7480  -11.5810   20.3160 N   0  0  0  0  0  0  0  0  0  0  0  0
  -24.6280  -10.5780   20.8750 C   0  0  0  0  0  0  0  0  0  0  0  0
  -24.9040   -9.6090   21.8670 C   0  0  0  0  0  3  0  0  0  0  0  0
  -24.0500   -8.4970   22.0390 C   0  0  0  0  0  3  0  0  0  0  0  0
  -22.9090   -8.3460   21.2160 C   0  0  0  0  0  0  0  0  0  0  0  0
  -22.6510   -9.3010   20.2170 C   0  0  0  0  0  3  0  0  0  0  0  0
  -23.5050  -10.4030   20.0440 C   0  0  0  0  0  3  0  0  0  0  0  0
  -22.0420   -7.2820   21.2900 O   0  0  0  0  0  0  0  0  0  0  0  0
  -21.7720   -6.6560   22.4810 C   0  0  0  0  0  0  0  0  0  0  0  0
  -21.1840   -7.3450   23.5650 C   0  0  0  0  0  3  0  0  0  0  0  0
  -20.8540   -6.6490   24.7460 C   0  0  0  0  0  3  0  0  0  0  0  0
  -21.1050   -5.2680   24.8440 C   0  0  0  0  0  0  0  0  0  0  0  0
  -21.6890   -4.5790   23.7640 C   0  0  0  0  0  3  0  0  0  0  0  0
  -22.0150   -5.2720   22.5850 C   0  0  0  0  0  0  0  0  0  0  0  0
  -22.5550   -4.6000   21.5390 F   0  0  0  0  0  0  0  0  0  0  0  0
  -20.7850   -4.5980   25.9750 F   0  0  0  0  0  0  0  0  0  0  0  0
  -23.8710  -13.7730   21.1560 C   0  0  0  0  0  0  0  0  0  0  0  0
  -23.1120  -13.1270   22.0340 N   0  0  0  0  0  0  0  0  0  0  0  0
  -23.5290  -14.8630   20.7010 O   0  0  0  0  0  0  0  0  0  0  0  0
  -23.4050  -12.2420   22.4230 H   0  0  0  0  0  0  0  0  0  0  0  0
  -22.2300  -13.5230   22.3260 H   0  0  0  0  0  0  0  0  0  0  0  0
  -26.6370  -15.1580   20.2500 N   0  0  0  0  0  0  0  0  0  0  0  0
  -25.9680  -15.9000   20.4270 H   0  0  0  0  0  0  0  0  0  0  0  0
  -27.5170  -15.4960   19.8810 H   0  0  0  0  0  0  0  0  0  0  0  0
  1 52  1  0
  1  2  1  0
  3  1  1  0
  4  1  1  0
  5  4  1  0
  6  5  1  0
  7  6  1  0
  8  9  1  0
  8  7  1  0
  9 10  1  0
 10 11  1  0
 11 13  1  0
 12 23  2  0
 13 18  1  0
 14 22  1  0
 14 24  1  0
 15 21  1  0
 15 17  1  0
 16 22  1  0
 17 16  1  0
 18 17  2  0
 19 20  1  0
 19 13  2  0
 20 15  2  0
 21 14  1  0
 22 12  1  0
 24 26  2  0
 25 24  1  0
 27 25  1  0
 28 37  2  0
 28 33  1  0
 29 25  1  0
 29 33  1  0
 30 29  1  0
 31 32  1  0
 31 30  1  0
 32 28  1  0
 33 34  2  0
 34 35  1  0
 36 35  2  0
 37 36  1  0
 38 12  1  0
 38 39  1  0
 38 48  1  0
 39 42  1  0
 40 44  1  0
 40 39  1  0
 41 40  2  0
 44 43  1  0
 46 44  1  0
 46 47  1  0
 46 45  1  0
 48 51  1  1
 48 49  1  0
 50 48  1  0
 53 52  1  0
 54 53  1  0
 55 54  1  0
 56 57  1  0
 56 55  1  0
 58 57  1  0
 59 58  1  0
 59 60  1  0
 60 69  1  0
 61 67  1  0
 61 69  1  0
 62 67  1  0
 63 64  1  0
 63 62  1  0
 65 64  1  0
 65 74  1  0
 65 66  1  0
 67 66  1  0
 68 61  2  0
 69 70  1  0
 71 72  2  0
 72 91  1  0
 73 72  1  0
 73 76  1  0
 74 75  1  0
 74 71  1  0
 75 73  2  0
 76 77  1  0
 77 78  2  0
 79 82  1  0
 79 78  1  0
 80 79  2  0
 81 80  1  0
 81 76  2  0
 82 83  1  0
 83 88  2  0
 83 84  1  0
 84 85  2  0
 85 86  1  0
 86 90  1  0
 87 86  2  0
 88 87  1  0
 89 88  1  0
 91 92  1  0
 92 95  1  0
 92 94  1  0
 93 91  2  0
 96 71  1  0
 96 97  1  0
 98 96  1  0
M  ISO  4  10 101  11 101  61 100  69 100
M  END
>  <TORSDO>  (87) 
F 32

>  <SCORE>  (87) 
-8.262

>  <name>  (87) 
90

>  <ligand_id>  (87) 
90

>  <original_smiles>  (87) 
[H]c1c([H])c([H])c2c(c1[H])C([H])([H])C([H])([H])C([H])([H])C2([H])N([H])C(=O)C1([H])N(C(=O)C([H])(N([H])C(=O)C([H])(N([H])C([H])([H])[H])C([H])([H])[H])C(C([H])([H])[H])(C([H])([H])[H])C([H])([H])[H])C([H])([H])c2c([H])c(OC([H])([H])C([H])([H])C([H])([H])C([H])([H])OC([H])([H])C([H])([H])[N+]([H])([H])C([H])([H])C([H])([H])C([H])([H])OC([H])([H])C([H])([H])OC([H])([H])C([H])([H])N([H])C(=O)N3C([H])([H])C([H])([H])C([H])([H])C([H])(n4nc(-c5c([H])c([H])c(Oc6c([H])c([H])c(F)c([H])c6F)c([H])c5[H])c(C(=O)N([H])[H])c4N([H])[H])C3([H])[H])c([H])c([H])c2C1([H])[H]

>  <smiles>  (87) 
[H]c1c([H])c([H])c2c(c1[H])C([H])([H])C([H])([H])C([H])([H])C2([H])N([H])C(=O)C1([H])N(C(=O)C([H])(N([H])C(=O)C([H])(N([H])C([H])([H])[H])C([H])([H])[H])C(C([H])([H])[H])(C([H])([H])[H])C([H])([H])[H])C([H])([H])c2c([H])c(OC([H])([H])C([H])([H])C([H])([H])C([H])([H])OC([H])([H])C([H])([H])[N+]([H])([H])C([H])([H])C([H])([H])C([H])([H])OC([H])([H])C([H])([H])OC([H])([H])C([H])([H])N([H])C(=O)N3C([H])([H])C([H])([H])C([H])([H])C([H])(n4nc(-c5c([H])c([H])c(Oc6c([H])c([H])c(F)c([H])c6F)c([H])c5[H])c(C(=O)N([H])[H])c4N([H])[H])C3([H])[H])c([H])c([H])c2C1([H])[H]

$$$$
91:0:0
     RDKit          3D

101108  0  0  1  0  0  0  0  0999 V2000
  -25.7830  -25.6170   27.7090 C   0  0  0  0  0  2  0  0  0  0  0  0
  -26.3070  -24.4170   27.0260 N   0  0  0  0  0  4  0  0  0  0  0  0
  -26.3200  -24.5980   26.0330 H   0  0  0  0  0  0  0  0  0  0  0  0
  -25.6800  -23.6390   27.1830 H   0  0  0  0  0  0  0  0  0  0  0  0
  -27.6880  -24.0530   27.4110 C   0  0  0  0  0  2  0  0  0  0  0  0
  -28.3890  -23.2940   26.2820 C   0  0  0  0  0  2  0  0  0  0  0  0
  -28.7380  -24.2290   25.2590 O   0  0  0  0  0  0  0  0  0  0  0  0
  -29.3960  -23.5930   24.1720 C   0  0  0  0  0  2  0  0  0  0  0  0
  -29.8010  -24.5940   23.0750 C   0  0  0  0  0  2  0  0  0  0  0  0
  -30.1710  -23.8440   21.7830 C   0  0  0  0  0  2  0  0  0  0  0  0
  -30.6860  -24.7070   20.6140 C   0  0  0  0  0  2  0  0  0  0  0  0
  -31.0340  -23.7990   19.4210 C   0  0  0  0  0  2  0  0  0  0  0  0
  -31.5700  -24.4920   18.1520 C   0  0  0  0  0  2  0  0  0  0  0  0
  -32.3670  -23.4980   15.9640 C   0  0  0  0  0  0  0  0  0  0  0  0
  -32.8710  -22.0650   14.0140 C   0  0  0  0  0  2  0  0  0  0  0  0
  -31.5930  -21.3470   13.5320 C   0  0  0  0  0  2  0  0  0  0  0  0
  -31.3370  -20.0540   14.3340 C   0  0  0  0  0  2  0  0  0  0  0  0
  -31.4410  -20.2690   15.8670 C   0  0  0  0  0  3  0  0  0  0  0  0
  -32.7500  -21.0190   16.2000 C   0  0  0  0  0  2  0  0  0  0  0  0
  -32.7440  -22.2970   15.4580 N   0  0  0  0  0  0  0  0  0  0  0  0
  -32.2580  -24.5300   15.2910 O   0  0  0  0  0  0  0  0  0  0  0  0
  -32.0670  -23.4520   17.2650 N   0  0  0  0  0  0  0  0  0  0  0  0
  -32.1700  -22.5360   17.6790 H   0  0  0  0  0  0  0  0  0  0  0  0
  -30.3020  -18.5210   17.3840 C   0  0  0  0  0  0  0  0  0  0  0  0
  -30.6860  -17.2660   17.7790 C   0  0  0  0  0  0  0  0  0  0  0  0
  -31.9650  -17.0420   17.1880 C   0  0  0  0  0  0  0  0  0  0  0  0
  -31.3380  -19.0060   16.5970 N   0  0  0  0  0  0  0  0  0  0  0  0
  -32.3630  -18.1210   16.5260 N   0  0  0  0  0  0  0  0  0  0  0  0
  -32.8120  -15.8420   17.1660 C   0  0  0  0  0  0  0  0  0  0  0  0
  -34.1770  -15.8970   17.5210 C   0  0  0  0  0  3  0  0  0  0  0  0
  -34.9680  -14.7270   17.5090 C   0  0  0  0  0  3  0  0  0  0  0  0
  -34.3930  -13.4870   17.1430 C   0  0  0  0  0  0  0  0  0  0  0  0
  -33.0380  -13.4430   16.7670 C   0  0  0  0  0  3  0  0  0  0  0  0
  -32.2550  -14.6090   16.7740 C   0  0  0  0  0  3  0  0  0  0  0  0
  -35.0900  -12.3050   17.0750 O   0  0  0  0  0  0  0  0  0  0  0  0
  -36.2020  -12.0800   17.8450 C   0  0  0  0  0  0  0  0  0  0  0  0
  -36.1520  -12.1090   19.2550 C   0  0  0  0  0  3  0  0  0  0  0  0
  -37.3040  -11.8050   20.0060 C   0  0  0  0  0  3  0  0  0  0  0  0
  -38.5030  -11.4650   19.3520 C   0  0  0  0  0  0  0  0  0  0  0  0
  -38.5550  -11.4320   17.9470 C   0  0  0  0  0  3  0  0  0  0  0  0
  -37.4050  -11.7360   17.1960 C   0  0  0  0  0  0  0  0  0  0  0  0
  -37.4520  -11.6820   15.8440 F   0  0  0  0  0  0  0  0  0  0  0  0
  -39.6080  -11.1650   20.0730 F   0  0  0  0  0  0  0  0  0  0  0  0
  -29.8700  -16.2920   18.5790 C   0  0  0  0  0  0  0  0  0  0  0  0
  -30.5240  -15.4720   19.3970 N   0  0  0  0  0  0  0  0  0  0  0  0
  -28.6420  -16.2850   18.5200 O   0  0  0  0  0  0  0  0  0  0  0  0
  -31.5310  -15.4910   19.4610 H   0  0  0  0  0  0  0  0  0  0  0  0
  -30.0080  -14.8160   19.9640 H   0  0  0  0  0  0  0  0  0  0  0  0
  -29.1590  -19.2780   17.6130 N   0  0  0  0  0  0  0  0  0  0  0  0
  -28.3710  -18.9120   18.1370 H   0  0  0  0  0  0  0  0  0  0  0  0
  -28.9800  -20.1960   17.2240 H   0  0  0  0  0  0  0  0  0  0  0  0
  -25.0460  -26.5370   26.7220 C   0  0  0  0  0  2  0  0  0  0  0  0
  -24.6470  -27.8890   27.3360 C   0  0  0  0  0  2  0  0  0  0  0  0
  -25.7530  -28.4690   28.0270 O   0  0  0  0  0  0  0  0  0  0  0  0
  -26.6140  -29.3160   27.2690 C   0  0  0  0  0  2  0  0  0  0  0  0
  -27.8250  -28.5950   26.6430 C   0  0  0  0  0  2  0  0  0  0  0  0
  -27.4690  -28.1860   25.3310 O   0  0  0  0  0  0  0  0  0  0  0  0
  -28.4960  -27.5050   24.6250 C   0  0  0  0  0  2  0  0  0  0  0  0
  -28.0790  -27.5390   23.1490 C   0  0  0  0  0  2  0  0  0  0  0  0
  -28.9960  -26.7850   22.1620 C   0  0  0  0  0  2  0  0  0  0  0  0
  -28.6360  -27.0440   20.7930 O   0  0  0  0  0  0  0  0  0  0  0  0
  -24.6720  -32.3700   23.2380 C   0  0  0  0  0  0  0  0  0  0  0  0
  -27.4690  -27.7520   20.6480 C   0  0  0  0  0  0  0  0  0  0  0  0
  -23.5220  -30.7960   21.7150 C   0  0  0  0  0  3  0  0  0  0  0  0
  -25.0370  -29.1650   20.4660 C   0  0  0  0  0  0  0  0  0  0  0  0
  -26.0380  -31.2050   21.5120 C   0  0  0  0  0  2  0  0  0  0  0  0
  -26.1700  -29.7860   21.0080 C   0  0  0  0  0  0  0  0  0  0  0  0
  -27.3910  -29.0890   21.0880 C   0  0  0  0  0  3  0  0  0  0  0  0
  -26.3300  -27.1350   20.0950 C   0  0  0  0  0  3  0  0  0  0  0  0
  -25.1120  -27.8400   20.0020 C   0  0  0  0  0  3  0  0  0  0  0  0
  -23.7690  -29.9860   20.4120 C   0  0  0  0  0  2  0  0  0  0  0  0
  -24.7610  -31.4750   22.2140 N   0  0  0  0  0  0  0  0  0  0  0  0
  -23.5790  -32.6660   23.7400 O   0  0  0  0  0  0  0  0  0  0  0  0
  -22.8780  -29.8560   22.7580 C   0  0  0  0  0  0  0  0  0  0  0  0
  -21.5830  -29.5540   22.5740 N   0  0  0  0  0  0  0  0  0  0  0  0
  -23.5450  -29.3930   23.6870 O   0  0  0  0  0  0  0  0  0  0  0  0
  -21.1030  -29.9670   21.7880 H   0  0  0  0  0  0  0  0  0  0  0  0
  -18.2720  -28.1910   23.0230 C   0  0  0  0  0  0  0  0  0  0  0  0
  -20.7840  -28.6620   23.4130 C   0  0  0  0  0  3  0  0  0  0  0  0
  -21.0180  -27.1820   23.0290 C   0  0  0  0  0  2  0  0  0  0  0  0
  -20.0110  -26.6600   21.9990 C   0  0  0  0  0  2  0  0  0  0  0  0
  -18.5820  -26.7870   22.5360 C   0  0  0  0  0  2  0  0  0  0  0  0
  -19.3090  -29.0770   23.4210 C   0  0  0  0  0  0  0  0  0  0  0  0
  -18.9720  -30.3880   23.8260 C   0  0  0  0  0  3  0  0  0  0  0  0
  -17.6290  -30.8120   23.8490 C   0  0  0  0  0  3  0  0  0  0  0  0
  -16.6060  -29.9240   23.4720 C   0  0  0  0  0  3  0  0  0  0  0  0
  -16.9270  -28.6170   23.0610 C   0  0  0  0  0  3  0  0  0  0  0  0
  -25.9330  -33.0960   23.7990 C   0  0  0  0  0  3  0  0  0  0  0  0
  -25.5290  -34.4640   24.1500 N   0  0  0  0  0  0  0  0  0  0  0  0
  -25.9270  -35.5670   23.5010 C   0  0  0  0  0  0  0  0  0  0  0  0
  -26.7330  -35.5440   22.5670 O   0  0  0  0  0  0  0  0  0  0  0  0
  -24.8120  -34.5540   24.8560 H   0  0  0  0  0  0  0  0  0  0  0  0
  -24.2450  -37.3670   22.9840 C   0  0  0  0  0  1  0  0  0  0  0  0
  -25.3340  -36.9120   23.9670 C   0  0  0  0  0  3  0  0  0  0  0  0
  -27.2810  -37.7490   25.2050 C   0  0  0  0  0  1  0  0  0  0  0  0
  -26.3440  -37.9820   24.1130 N   0  0  0  0  0  0  0  0  0  0  0  0
  -25.8980  -38.8830   24.2630 H   0  0  0  0  0  0  0  0  0  0  0  0
  -26.5810  -32.3680   25.0400 C   0  0  1  0  0  0  0  0  0  0  0  0
  -25.5590  -31.9330   26.1140 C   0  0  0  0  0  1  0  0  0  0  0  0
  -27.3570  -31.1080   24.5910 C   0  0  0  0  0  1  0  0  0  0  0  0
  -27.6050  -33.3090   25.7170 C   0  0  0  0  0  1  0  0  0  0  0  0
  2  4  1  0
  2  5  1  0
  2  1  1  0
  3  2  1  0
  6  5  1  0
  7  6  1  0
  8  7  1  0
  9  8  1  0
 10  9  1  0
 11 10  1  0
 12 11  1  0
 13 12  1  0
 14 22  1  0
 15 20  1  0
 16 15  1  0
 16 17  1  0
 18 17  1  0
 18 19  1  0
 18 27  1  0
 20 14  1  0
 20 19  1  0
 21 14  2  0
 22 23  1  0
 22 13  1  0
 24 49  1  0
 24 25  2  0
 25 44  1  0
 26 25  1  0
 27 24  1  0
 28 27  1  0
 28 26  2  0
 29 26  1  0
 29 30  1  0
 31 30  2  0
 32 31  1  0
 33 34  1  0
 33 32  2  0
 34 29  2  0
 35 32  1  0
 35 36  1  0
 36 37  1  0
 37 38  2  0
 39 38  1  0
 39 43  1  0
 40 39  2  0
 41 36  2  0
 41 40  1  0
 42 41  1  0
 44 45  1  0
 45 47  1  0
 45 48  1  0
 46 44  2  0
 49 50  1  0
 51 49  1  0
 52 53  1  0
 52  1  1  0
 53 54  1  0
 55 54  1  0
 56 55  1  0
 57 56  1  0
 58 57  1  0
 59 58  1  0
 60 59  1  0
 61 60  1  0
 62 73  2  0
 63 61  1  0
 63 68  1  0
 64 72  1  0
 64 74  1  0
 65 67  1  0
 66 72  1  0
 67 68  2  0
 67 66  1  0
 69 63  2  0
 70 69  1  0
 70 65  2  0
 71 65  1  0
 71 64  1  0
 72 62  1  0
 74 76  2  0
 75 74  1  0
 77 75  1  0
 78 87  2  0
 78 83  1  0
 79 75  1  0
 79 83  1  0
 80 79  1  0
 81 82  1  0
 81 80  1  0
 82 78  1  0
 83 84  2  0
 84 85  1  0
 86 85  2  0
 87 86  1  0
 88 62  1  0
 88 89  1  0
 88 98  1  0
 89 92  1  0
 90 94  1  0
 90 89  1  0
 91 90  2  0
 94 93  1  0
 94 96  1  0
 96 97  1  0
 96 95  1  0
 98101  1  1
 98 99  1  0
100 98  1  0
M  ISO  4  14 100  22 100  60 101  61 101
M  END
>  <TORSDO>  (88) 
F 35

>  <SCORE>  (88) 
2.058

>  <name>  (88) 
91

>  <ligand_id>  (88) 
91

>  <original_smiles>  (88) 
[H]c1c([H])c([H])c2c(c1[H])C([H])([H])C([H])([H])C([H])([H])C2([H])N([H])C(=O)C1([H])N(C(=O)C([H])(N([H])C(=O)C([H])(N([H])C([H])([H])[H])C([H])([H])[H])C(C([H])([H])[H])(C([H])([H])[H])C([H])([H])[H])C([H])([H])c2c([H])c(OC([H])([H])C([H])([H])C([H])([H])OC([H])([H])C([H])([H])OC([H])([H])C([H])([H])C([H])([H])[N+]([H])([H])C([H])([H])C([H])([H])OC([H])([H])C([H])([H])C([H])([H])C([H])([H])C([H])([H])C([H])([H])N([H])C(=O)N3C([H])([H])C([H])([H])C([H])([H])C([H])(n4nc(-c5c([H])c([H])c(Oc6c([H])c([H])c(F)c([H])c6F)c([H])c5[H])c(C(=O)N([H])[H])c4N([H])[H])C3([H])[H])c([H])c([H])c2C1([H])[H]

>  <smiles>  (88) 
[H]c1c([H])c([H])c2c(c1[H])C([H])([H])C([H])([H])C([H])([H])C2([H])N([H])C(=O)C1([H])N(C(=O)C([H])(N([H])C(=O)C([H])(N([H])C([H])([H])[H])C([H])([H])[H])C(C([H])([H])[H])(C([H])([H])[H])C([H])([H])[H])C([H])([H])c2c([H])c(OC([H])([H])C([H])([H])C([H])([H])OC([H])([H])C([H])([H])OC([H])([H])C([H])([H])C([H])([H])[N+]([H])([H])C([H])([H])C([H])([H])OC([H])([H])C([H])([H])C([H])([H])C([H])([H])C([H])([H])C([H])([H])N([H])C(=O)N3C([H])([H])C([H])([H])C([H])([H])C([H])(n4nc(-c5c([H])c([H])c(Oc6c([H])c([H])c(F)c([H])c6F)c([H])c5[H])c(C(=O)N([H])[H])c4N([H])[H])C3([H])[H])c([H])c([H])c2C1([H])[H]

$$$$
92:0:0
     RDKit          3D

106113  0  0  1  0  0  0  0  0999 V2000
  -32.3750  -27.0520   22.5770 N   0  0  0  0  0  4  0  0  0  0  0  0
  -31.7460  -26.5090   22.0030 H   0  0  0  0  0  0  0  0  0  0  0  0
  -32.3800  -26.6400   23.4980 H   0  0  0  0  0  0  0  0  0  0  0  0
  -33.7500  -26.9650   22.0250 C   0  0  0  0  0  2  0  0  0  0  0  0
  -34.4540  -28.3380   21.9290 C   0  0  0  0  0  2  0  0  0  0  0  0
  -35.5580  -28.2470   21.0320 O   0  0  0  0  0  0  0  0  0  0  0  0
  -36.7490  -28.8450   21.5430 C   0  0  0  0  0  2  0  0  0  0  0  0
  -36.6150  -30.3710   21.5490 C   0  0  0  0  0  2  0  0  0  0  0  0
  -37.4080  -30.8860   20.4840 O   0  0  0  0  0  0  0  0  0  0  0  0
  -37.5410  -30.0210   19.3640 C   0  0  0  0  0  2  0  0  0  0  0  0
  -36.5290  -30.3510   18.2550 C   0  0  0  0  0  2  0  0  0  0  0  0
  -36.9420  -31.5460   17.3800 C   0  0  0  0  0  2  0  0  0  0  0  0
  -37.9020  -32.4950   18.1070 C   0  0  0  0  0  2  0  0  0  0  0  0
  -37.3030  -33.7770   18.2370 O   0  0  0  0  0  0  0  0  0  0  0  0
  -37.5140  -34.5710   17.0790 C   0  0  0  0  0  2  0  0  0  0  0  0
  -37.3070  -36.0570   17.4030 C   0  0  0  0  0  2  0  0  0  0  0  0
  -38.5480  -36.8780   17.0100 C   0  0  0  0  0  2  0  0  0  0  0  0
  -40.5170  -36.7110   15.5090 C   0  0  0  0  0  0  0  0  0  0  0  0
  -42.6720  -35.7010   14.8790 C   0  0  0  0  0  2  0  0  0  0  0  0
  -43.1740  -36.0960   13.4830 C   0  0  0  0  0  2  0  0  0  0  0  0
  -42.5830  -35.1610   12.4140 C   0  0  0  0  0  2  0  0  0  0  0  0
  -41.0450  -35.0140   12.5360 C   0  0  0  0  0  3  0  0  0  0  0  0
  -40.6210  -34.7090   13.9870 C   0  0  0  0  0  2  0  0  0  0  0  0
  -41.2020  -35.7290   14.8790 N   0  0  0  0  0  0  0  0  0  0  0  0
  -41.0450  -37.7360   15.9530 O   0  0  0  0  0  0  0  0  0  0  0  0
  -39.2620  -36.3790   15.8340 N   0  0  0  0  0  0  0  0  0  0  0  0
  -38.9120  -35.5260   15.4200 H   0  0  0  0  0  0  0  0  0  0  0  0
  -39.6450  -34.1520   10.5540 C   0  0  0  0  0  0  0  0  0  0  0  0
  -39.5660  -32.9230    9.9570 C   0  0  0  0  0  0  0  0  0  0  0  0
  -40.4450  -32.0700   10.6920 C   0  0  0  0  0  0  0  0  0  0  0  0
  -40.5370  -34.0090   11.6050 N   0  0  0  0  0  0  0  0  0  0  0  0
  -40.9780  -32.7300   11.7130 N   0  0  0  0  0  0  0  0  0  0  0  0
  -40.8570  -30.6830   10.4450 C   0  0  0  0  0  0  0  0  0  0  0  0
  -41.9430  -30.3740    9.5950 C   0  0  0  0  0  3  0  0  0  0  0  0
  -42.3330  -29.0320    9.3920 C   0  0  0  0  0  3  0  0  0  0  0  0
  -41.6380  -27.9840   10.0410 C   0  0  0  0  0  0  0  0  0  0  0  0
  -40.5430  -28.2970   10.8660 C   0  0  0  0  0  3  0  0  0  0  0  0
  -40.1520  -29.6310   11.0640 C   0  0  0  0  0  3  0  0  0  0  0  0
  -41.9300  -26.6510    9.8850 O   0  0  0  0  0  0  0  0  0  0  0  0
  -40.9540  -25.7260    9.6140 C   0  0  0  0  0  0  0  0  0  0  0  0
  -41.1030  -24.7620    8.5930 C   0  0  0  0  0  3  0  0  0  0  0  0
  -40.1060  -23.7860    8.3940 C   0  0  0  0  0  3  0  0  0  0  0  0
  -38.9660  -23.7650    9.2200 C   0  0  0  0  0  0  0  0  0  0  0  0
  -38.8180  -24.7200   10.2410 C   0  0  0  0  0  3  0  0  0  0  0  0
  -39.8110  -25.6960   10.4410 C   0  0  0  0  0  0  0  0  0  0  0  0
  -39.6750  -26.6000   11.4390 F   0  0  0  0  0  0  0  0  0  0  0  0
  -38.0110  -22.8240    9.0350 F   0  0  0  0  0  0  0  0  0  0  0  0
  -38.7940  -32.5770    8.7160 C   0  0  0  0  0  0  0  0  0  0  0  0
  -38.3260  -31.3380    8.6090 N   0  0  0  0  0  0  0  0  0  0  0  0
  -38.5580  -33.4240    7.8550 O   0  0  0  0  0  0  0  0  0  0  0  0
  -38.5070  -30.6470    9.3230 H   0  0  0  0  0  0  0  0  0  0  0  0
  -37.7840  -31.0740    7.7970 H   0  0  0  0  0  0  0  0  0  0  0  0
  -39.0460  -35.3780   10.2810 N   0  0  0  0  0  0  0  0  0  0  0  0
  -38.4350  -35.5170    9.4830 H   0  0  0  0  0  0  0  0  0  0  0  0
  -39.2150  -36.2310   10.8010 H   0  0  0  0  0  0  0  0  0  0  0  0
  -31.8540  -28.4360   22.7010 C   0  0  0  0  0  2  0  0  0  0  0  0
  -30.5830  -28.5040   23.5760 C   0  0  0  0  0  2  0  0  0  0  0  0
  -29.3340  -29.0400   22.8430 C   0  0  0  0  0  2  0  0  0  0  0  0
  -28.6910  -28.0220   22.0860 O   0  0  0  0  0  0  0  0  0  0  0  0
  -28.4420  -26.8370   22.8410 C   0  0  0  0  0  2  0  0  0  0  0  0
  -27.8090  -25.7740   21.9280 C   0  0  0  0  0  2  0  0  0  0  0  0
  -28.3550  -25.8330   20.6150 O   0  0  0  0  0  0  0  0  0  0  0  0
  -29.5610  -25.3140   20.3500 C   0  0  0  0  0  0  0  0  0  0  0  0
  -30.2970  -24.7580   21.1720 O   0  0  0  0  0  0  0  0  0  0  0  0
  -29.9570  -25.5140   18.8820 C   0  0  0  0  0  2  0  0  0  0  0  0
  -31.3280  -25.1730   18.6700 O   0  0  0  0  0  0  0  0  0  0  0  0
  -36.0460  -21.0390   15.3660 C   0  0  0  0  0  0  0  0  0  0  0  0
  -31.5860  -23.9220   18.1650 C   0  0  0  0  0  0  0  0  0  0  0  0
  -33.7790  -20.0790   15.6240 C   0  0  0  0  0  3  0  0  0  0  0  0
  -32.2040  -21.3580   17.1670 C   0  0  0  0  0  0  0  0  0  0  0  0
  -34.6620  -21.8040   17.2880 C   0  0  0  0  0  2  0  0  0  0  0  0
  -33.2330  -22.2540   17.4800 C   0  0  0  0  0  0  0  0  0  0  0  0
  -32.9280  -23.5420   17.9630 C   0  0  0  0  0  3  0  0  0  0  0  0
  -30.5550  -23.0160   17.8340 C   0  0  0  0  0  3  0  0  0  0  0  0
  -30.8600  -21.7370   17.3340 C   0  0  0  0  0  3  0  0  0  0  0  0
  -32.6140  -20.0000   16.6490 C   0  0  0  0  0  2  0  0  0  0  0  0
  -34.8740  -21.0060   16.0600 N   0  0  0  0  0  0  0  0  0  0  0  0
  -36.2420  -20.2850   14.4040 O   0  0  0  0  0  0  0  0  0  0  0  0
  -33.1900  -20.4360   14.2400 C   0  0  0  0  0  0  0  0  0  0  0  0
  -32.9680  -19.4110   13.4040 N   0  0  0  0  0  0  0  0  0  0  0  0
  -32.9160  -21.6050   13.9530 O   0  0  0  0  0  0  0  0  0  0  0  0
  -33.2200  -18.4830   13.7130 H   0  0  0  0  0  0  0  0  0  0  0  0
  -32.3600  -17.5650   10.3600 C   0  0  0  0  0  0  0  0  0  0  0  0
  -32.3820  -19.5050   12.0680 C   0  0  0  0  0  3  0  0  0  0  0  0
  -30.8460  -19.3390   12.1230 C   0  0  0  0  0  2  0  0  0  0  0  0
  -30.3860  -17.8930   11.9110 C   0  0  0  0  0  2  0  0  0  0  0  0
  -30.8660  -17.3700   10.5530 C   0  0  0  0  0  2  0  0  0  0  0  0
  -33.0750  -18.5560   11.0840 C   0  0  0  0  0  0  0  0  0  0  0  0
  -34.4700  -18.6700   10.8960 C   0  0  0  0  0  3  0  0  0  0  0  0
  -35.1470  -17.8180   10.0030 C   0  0  0  0  0  3  0  0  0  0  0  0
  -34.4320  -16.8500    9.2780 C   0  0  0  0  0  3  0  0  0  0  0  0
  -33.0430  -16.7280    9.4530 C   0  0  0  0  0  3  0  0  0  0  0  0
  -37.2040  -22.0100   15.7620 C   0  0  0  0  0  3  0  0  0  0  0  0
  -37.1690  -23.3740   14.9700 C   0  0  1  0  0  0  0  0  0  0  0  0
  -36.9510  -23.2030   13.4490 C   0  0  0  0  0  1  0  0  0  0  0  0
  -36.0430  -24.2860   15.5070 C   0  0  0  0  0  1  0  0  0  0  0  0
  -38.4960  -24.1390   15.1840 C   0  0  0  0  0  1  0  0  0  0  0  0
  -38.4690  -21.3060   15.5270 N   0  0  0  0  0  0  0  0  0  0  0  0
  -39.1870  -20.6930   16.4780 C   0  0  0  0  0  0  0  0  0  0  0  0
  -38.8810  -20.7280   17.6740 O   0  0  0  0  0  0  0  0  0  0  0  0
  -38.7520  -21.1890   14.5640 H   0  0  0  0  0  0  0  0  0  0  0  0
  -40.1300  -18.4140   15.9980 C   0  0  0  0  0  1  0  0  0  0  0  0
  -40.4410  -19.9190   16.0350 C   0  0  0  0  0  3  0  0  0  0  0  0
  -42.1810  -21.5030   16.7350 C   0  0  0  0  0  1  0  0  0  0  0  0
  -41.6190  -20.1650   16.8950 N   0  0  0  0  0  0  0  0  0  0  0  0
  -42.3530  -19.4870   16.7050 H   0  0  0  0  0  0  0  0  0  0  0  0
  1 56  1  0
  1  3  1  0
  2  1  1  0
  4  1  1  0
  5  4  1  0
  6  7  1  0
  6  5  1  0
  7  8  1  0
  9  8  1  0
 10  9  1  0
 11 10  1  0
 12 13  1  0
 12 11  1  0
 13 14  1  0
 15 16  1  0
 15 14  1  0
 17 16  1  0
 18 26  1  0
 18 25  2  0
 19 24  1  0
 20 19  1  0
 21 22  1  0
 21 20  1  0
 22 31  1  0
 22 23  1  0
 23 24  1  0
 24 18  1  0
 26 17  1  0
 27 26  1  0
 28 31  1  0
 29 28  2  0
 29 30  1  0
 30 32  2  0
 31 32  1  0
 33 30  1  0
 33 38  1  0
 34 33  2  0
 35 34  1  0
 35 36  2  0
 36 37  1  0
 37 38  2  0
 39 36  1  0
 40 39  1  0
 40 45  1  0
 41 40  2  0
 42 41  1  0
 42 43  2  0
 43 44  1  0
 44 45  2  0
 45 46  1  0
 47 43  1  0
 48 29  1  0
 49 48  1  0
 49 51  1  0
 50 48  2  0
 52 49  1  0
 53 28  1  0
 53 55  1  0
 54 53  1  0
 56 57  1  0
 58 57  1  0
 59 60  1  0
 59 58  1  0
 61 60  1  0
 62 61  1  0
 63 62  1  0
 63 64  2  0
 65 63  1  0
 66 65  1  0
 67 77  1  0
 68 66  1  0
 69 79  1  0
 69 77  1  0
 69 76  1  0
 70 75  2  0
 70 72  1  0
 71 72  1  0
 72 73  2  0
 73 68  1  0
 74 68  2  0
 75 74  1  0
 76 70  1  0
 77 71  1  0
 78 67  2  0
 80 82  1  0
 80 79  1  0
 81 79  2  0
 83 87  1  0
 83 88  1  0
 84 85  1  0
 84 80  1  0
 86 85  1  0
 87 86  1  0
 88 84  1  0
 89 88  2  0
 90 89  1  0
 91 92  1  0
 91 90  2  0
 92 83  2  0
 93 67  1  0
 94 97  1  6
 94 96  1  0
 94 93  1  0
 95 94  1  0
 98 93  1  0
 98 99  1  0
 99100  2  0
101 98  1  0
103102  1  0
103 99  1  0
103105  1  0
104105  1  0
106105  1  0
M  ISO  4  18 100  26 100  65 101  66 101
M  END
>  <TORSDO>  (89) 
F 39

>  <SCORE>  (89) 
-1.239

>  <name>  (89) 
92

>  <ligand_id>  (89) 
92

>  <original_smiles>  (89) 
[H]c1c([H])c([H])c2c(c1[H])C([H])([H])C([H])([H])C([H])([H])C2([H])N([H])C(=O)C1([H])N(C(=O)C([H])(N([H])C(=O)C([H])(N([H])C([H])([H])[H])C([H])([H])[H])C(C([H])([H])[H])(C([H])([H])[H])C([H])([H])[H])C([H])([H])c2c([H])c(OC([H])([H])C(=O)OC([H])([H])C([H])([H])OC([H])([H])C([H])([H])C([H])([H])[N+]([H])([H])C([H])([H])C([H])([H])OC([H])([H])C([H])([H])OC([H])([H])C([H])([H])C([H])([H])C([H])([H])OC([H])([H])C([H])([H])C([H])([H])N([H])C(=O)N3C([H])([H])C([H])([H])C([H])([H])C([H])(n4nc(-c5c([H])c([H])c(Oc6c([H])c([H])c(F)c([H])c6F)c([H])c5[H])c(C(=O)N([H])[H])c4N([H])[H])C3([H])[H])c([H])c([H])c2C1([H])[H]

>  <smiles>  (89) 
[H]c1c([H])c([H])c2c(c1[H])C([H])([H])C([H])([H])C([H])([H])C2([H])N([H])C(=O)C1([H])N(C(=O)C([H])(N([H])C(=O)C([H])(N([H])C([H])([H])[H])C([H])([H])[H])C(C([H])([H])[H])(C([H])([H])[H])C([H])([H])[H])C([H])([H])c2c([H])c(OC([H])([H])C(=O)OC([H])([H])C([H])([H])OC([H])([H])C([H])([H])C([H])([H])[N+]([H])([H])C([H])([H])C([H])([H])OC([H])([H])C([H])([H])OC([H])([H])C([H])([H])C([H])([H])C([H])([H])OC([H])([H])C([H])([H])C([H])([H])N([H])C(=O)N3C([H])([H])C([H])([H])C([H])([H])C([H])(n4nc(-c5c([H])c([H])c(Oc6c([H])c([H])c(F)c([H])c6F)c([H])c5[H])c(C(=O)N([H])[H])c4N([H])[H])C3([H])[H])c([H])c([H])c2C1([H])[H]

$$$$
93:0:0
     RDKit          3D

107116  0  0  1  0  0  0  0  0999 V2000
  -33.6150  -28.3340   20.8710 C   0  0  0  0  0  3  0  0  0  0  0  0
  -32.7260  -27.2590   21.0480 C   0  0  0  0  0  3  0  0  0  0  0  0
  -31.4720  -25.0820   17.6530 C   0  0  0  0  0  3  0  0  0  0  0  0
  -34.0130  -28.6660   19.5720 C   0  0  0  0  0  3  0  0  0  0  0  0
  -32.2430  -26.5630   19.9160 C   0  0  0  0  0  0  0  0  0  0  0  0
  -32.7250  -26.9520   18.6330 C   0  0  0  0  0  0  0  0  0  0  0  0
  -30.9610  -24.7260   18.9190 C   0  0  0  0  0  0  0  0  0  0  0  0
  -32.3050  -26.2050   17.4960 C   0  0  0  0  0  0  0  0  0  0  0  0
  -31.3320  -25.4840   20.0520 C   0  0  0  0  0  0  0  0  0  0  0  0
  -33.5920  -27.9860   18.4880 N   0  0  0  0  0  0  0  0  0  0  0  0
  -32.4790  -27.7950   15.7110 C   0  0  0  0  0  1  0  0  0  0  0  0
  -32.7130  -26.4790   16.2050 O   0  0  0  0  0  0  0  0  0  0  0  0
  -30.0920  -23.6380   19.1040 N   0  0  0  0  0  0  0  0  0  0  0  0
  -29.7060  -23.5320   20.0370 H   0  0  0  0  0  0  0  0  0  0  0  0
  -29.3440  -23.0630   17.9840 C   0  0  0  0  0  2  0  0  0  0  0  0
  -28.3640  -21.9500   18.4270 C   0  0  0  0  0  2  0  0  0  0  0  0
  -26.9990  -22.3430   18.2850 O   0  0  0  0  0  0  0  0  0  0  0  0
  -26.0670  -21.3380   18.7020 C   0  0  0  0  0  2  0  0  0  0  0  0
  -25.4120  -20.5530   17.5390 C   0  0  0  0  0  2  0  0  0  0  0  0
  -26.3460  -19.7000   16.6530 C   0  0  0  0  0  2  0  0  0  0  0  0
  -26.9720  -18.4810   17.3490 C   0  0  0  0  0  2  0  0  0  0  0  0
  -27.8660  -18.9410   18.3490 O   0  0  0  0  0  0  0  0  0  0  0  0
  -28.5500  -17.8970   19.0170 C   0  0  0  0  0  2  0  0  0  0  0  0
  -29.2850  -18.4720   20.2440 C   0  0  0  0  0  2  0  0  0  0  0  0
  -30.3870  -17.5430   20.7850 C   0  0  0  0  0  2  0  0  0  0  0  0
  -30.7290  -15.1080   21.0650 C   0  0  0  0  0  0  0  0  0  0  0  0
  -30.6010  -12.8720   20.0740 C   0  0  0  0  0  2  0  0  0  0  0  0
  -29.7950  -12.9980   18.7660 C   0  0  0  0  0  2  0  0  0  0  0  0
  -28.2810  -12.8620   19.0340 C   0  0  0  0  0  2  0  0  0  0  0  0
  -27.7870  -13.7180   20.2300 C   0  0  0  0  0  3  0  0  0  0  0  0
  -28.7400  -13.6090   21.4460 C   0  0  0  0  0  2  0  0  0  0  0  0
  -30.1040  -13.9070   20.9870 N   0  0  0  0  0  0  0  0  0  0  0  0
  -31.9370  -15.2610   20.8860 O   0  0  0  0  0  0  0  0  0  0  0  0
  -29.9220  -16.1750   21.0570 N   0  0  0  0  0  0  0  0  0  0  0  0
  -28.9270  -16.0090   21.1000 H   0  0  0  0  0  0  0  0  0  0  0  0
  -25.3100  -14.2280   20.6860 C   0  0  0  0  0  0  0  0  0  0  0  0
  -24.2410  -13.4180   20.9510 C   0  0  0  0  0  0  0  0  0  0  0  0
  -24.7580  -12.0870   20.9920 C   0  0  0  0  0  0  0  0  0  0  0  0
  -26.4090  -13.3910   20.5820 N   0  0  0  0  0  0  0  0  0  0  0  0
  -26.0730  -12.0980   20.8260 N   0  0  0  0  0  0  0  0  0  0  0  0
  -24.0680  -10.7990   21.1140 C   0  0  0  0  0  0  0  0  0  0  0  0
  -24.4520   -9.8380   22.0770 C   0  0  0  0  0  3  0  0  0  0  0  0
  -23.7560   -8.6160   22.1830 C   0  0  0  0  0  3  0  0  0  0  0  0
  -22.6620   -8.3460   21.3260 C   0  0  0  0  0  0  0  0  0  0  0  0
  -22.3040   -9.2940   20.3500 C   0  0  0  0  0  3  0  0  0  0  0  0
  -23.0010  -10.5060   20.2400 C   0  0  0  0  0  3  0  0  0  0  0  0
  -21.9360   -7.1780   21.3460 O   0  0  0  0  0  0  0  0  0  0  0  0
  -21.8180   -6.4230   22.4820 C   0  0  0  0  0  0  0  0  0  0  0  0
  -21.2870   -6.9500   23.6820 C   0  0  0  0  0  3  0  0  0  0  0  0
  -21.1280   -6.1150   24.8060 C   0  0  0  0  0  3  0  0  0  0  0  0
  -21.4800   -4.7560   24.7300 C   0  0  0  0  0  0  0  0  0  0  0  0
  -21.9940   -4.2250   23.5340 C   0  0  0  0  0  3  0  0  0  0  0  0
  -22.1610   -5.0570   22.4130 C   0  0  0  0  0  0  0  0  0  0  0  0
  -22.6380   -4.5380   21.2580 F   0  0  0  0  0  0  0  0  0  0  0  0
  -21.3190   -3.9510   25.8060 F   0  0  0  0  0  0  0  0  0  0  0  0
  -22.8050  -13.8420   21.0690 C   0  0  0  0  0  0  0  0  0  0  0  0
  -22.0280  -13.1270   21.8710 N   0  0  0  0  0  0  0  0  0  0  0  0
  -22.3800  -14.8440   20.4950 O   0  0  0  0  0  0  0  0  0  0  0  0
  -22.3940  -12.3120   22.3370 H   0  0  0  0  0  0  0  0  0  0  0  0
  -21.0620  -13.3910   22.0160 H   0  0  0  0  0  0  0  0  0  0  0  0
  -25.4460  -15.6000   20.5010 N   0  0  0  0  0  0  0  0  0  0  0  0
  -24.6560  -16.2360   20.5180 H   0  0  0  0  0  0  0  0  0  0  0  0
  -26.3190  -16.0470   20.2690 H   0  0  0  0  0  0  0  0  0  0  0  0
  -30.8240  -25.1050   21.2730 O   0  0  0  0  0  0  0  0  0  0  0  0
  -29.8550  -25.9780   21.8560 C   0  0  0  0  0  2  0  0  0  0  0  0
  -28.4900  -25.9180   21.1480 C   0  0  0  0  0  2  0  0  0  0  0  0
  -28.4150  -26.8350   20.0510 O   0  0  0  0  0  0  0  0  0  0  0  0
  -24.5460  -31.8920   23.1570 C   0  0  0  0  0  0  0  0  0  0  0  0
  -27.2440  -27.5510   20.0360 C   0  0  0  0  0  0  0  0  0  0  0  0
  -23.3430  -30.4900   21.5040 C   0  0  0  0  0  3  0  0  0  0  0  0
  -24.8150  -28.9830   20.0620 C   0  0  0  0  0  0  0  0  0  0  0  0
  -25.8570  -30.8980   21.2890 C   0  0  0  0  0  2  0  0  0  0  0  0
  -25.9630  -29.5330   20.6490 C   0  0  0  0  0  0  0  0  0  0  0  0
  -27.1780  -28.8200   20.6360 C   0  0  0  0  0  3  0  0  0  0  0  0
  -26.0840  -26.9980   19.4460 C   0  0  0  0  0  3  0  0  0  0  0  0
  -24.8710  -27.7130   19.4520 C   0  0  0  0  0  3  0  0  0  0  0  0
  -23.5540  -29.8110   20.1200 C   0  0  0  0  0  2  0  0  0  0  0  0
  -24.6020  -31.1070   22.0440 N   0  0  0  0  0  0  0  0  0  0  0  0
  -23.4670  -32.1500   23.7080 O   0  0  0  0  0  0  0  0  0  0  0  0
  -22.7120  -29.4610   22.4630 C   0  0  0  0  0  0  0  0  0  0  0  0
  -21.3820  -29.2780   22.3530 N   0  0  0  0  0  0  0  0  0  0  0  0
  -23.4110  -28.8260   23.2590 O   0  0  0  0  0  0  0  0  0  0  0  0
  -20.8760  -29.8460   21.6870 H   0  0  0  0  0  0  0  0  0  0  0  0
  -18.0220  -28.0760   22.8810 C   0  0  0  0  0  0  0  0  0  0  0  0
  -20.5840  -28.3290   23.1230 C   0  0  0  0  0  3  0  0  0  0  0  0
  -20.6770  -26.9080   22.5230 C   0  0  0  0  0  2  0  0  0  0  0  0
  -19.5620  -26.5990   21.5190 C   0  0  0  0  0  2  0  0  0  0  0  0
  -18.1900  -26.7360   22.1830 C   0  0  0  0  0  2  0  0  0  0  0  0
  -19.1470  -28.8310   23.3080 C   0  0  0  0  0  0  0  0  0  0  0  0
  -18.9400  -30.0860   23.9190 C   0  0  0  0  0  3  0  0  0  0  0  0
  -17.6390  -30.5860   24.1150 C   0  0  0  0  0  3  0  0  0  0  0  0
  -16.5280  -29.8290   23.7020 C   0  0  0  0  0  3  0  0  0  0  0  0
  -16.7210  -28.5770   23.0920 C   0  0  0  0  0  3  0  0  0  0  0  0
  -25.8340  -32.5270   23.7770 C   0  0  0  0  0  3  0  0  0  0  0  0
  -25.5110  -33.9170   24.1320 N   0  0  0  0  0  0  0  0  0  0  0  0
  -25.8310  -34.9830   23.3860 C   0  0  0  0  0  0  0  0  0  0  0  0
  -26.4960  -34.9060   22.3500 O   0  0  0  0  0  0  0  0  0  0  0  0
  -24.9200  -34.0550   24.9390 H   0  0  0  0  0  0  0  0  0  0  0  0
  -24.0790  -36.7600   23.0740 C   0  0  0  0  0  1  0  0  0  0  0  0
  -25.3330  -36.3590   23.8690 C   0  0  0  0  0  3  0  0  0  0  0  0
  -27.4660  -37.2530   24.6880 C   0  0  0  0  0  1  0  0  0  0  0  0
  -26.3520  -37.4250   23.7600 N   0  0  0  0  0  0  0  0  0  0  0  0
  -25.9330  -38.3350   23.9330 H   0  0  0  0  0  0  0  0  0  0  0  0
  -26.3770  -31.7380   25.0320 C   0  0  1  0  0  0  0  0  0  0  0  0
  -25.3020  -31.4730   26.1110 C   0  0  0  0  0  1  0  0  0  0  0  0
  -26.9690  -30.3750   24.6010 C   0  0  0  0  0  1  0  0  0  0  0  0
  -27.5280  -32.5310   25.6940 C   0  0  0  0  0  1  0  0  0  0  0  0
  1  2  1  0
  3  7  1  0
  4  1  2  0
  5  9  1  0
  5  2  2  0
  6  5  1  0
  7 13  1  0
  7  9  2  0
  8  3  2  0
  8  6  1  0
  9 64  1  0
 10  6  2  0
 10  4  1  0
 11 12  1  0
 12  8  1  0
 13 14  1  0
 15 16  1  0
 15 13  1  0
 17 16  1  0
 17 18  1  0
 19 18  1  0
 20 21  1  0
 20 19  1  0
 21 22  1  0
 22 23  1  0
 23 24  1  0
 24 25  1  0
 25 34  1  0
 27 32  1  0
 28 29  1  0
 28 27  1  0
 30 29  1  0
 30 39  1  0
 30 31  1  0
 32 26  1  0
 32 31  1  0
 33 26  2  0
 34 26  1  0
 34 35  1  0
 36 37  2  0
 37 38  1  0
 37 56  1  0
 38 41  1  0
 39 36  1  0
 39 40  1  0
 40 38  2  0
 41 42  1  0
 42 43  2  0
 44 47  1  0
 44 43  1  0
 45 44  2  0
 46 45  1  0
 46 41  2  0
 47 48  1  0
 48 49  1  0
 49 50  2  0
 51 50  1  0
 51 55  1  0
 52 51  2  0
 53 48  2  0
 53 52  1  0
 54 53  1  0
 56 57  1  0
 57 60  1  0
 57 59  1  0
 58 56  2  0
 61 62  1  0
 61 36  1  0
 63 61  1  0
 64 65  1  0
 66 65  1  0
 67 66  1  0
 68 79  2  0
 69 67  1  0
 69 74  1  0
 70 78  1  0
 70 80  1  0
 71 77  1  0
 71 73  1  0
 72 78  1  0
 73 72  1  0
 74 73  2  0
 75 76  1  0
 75 69  2  0
 76 71  2  0
 77 70  1  0
 78 68  1  0
 80 82  2  0
 81 80  1  0
 83 81  1  0
 84 93  2  0
 84 89  1  0
 85 81  1  0
 85 89  1  0
 86 85  1  0
 87 88  1  0
 87 86  1  0
 88 84  1  0
 89 90  2  0
 90 91  1  0
 92 91  2  0
 93 92  1  0
 94 68  1  0
 94 95  1  0
 94104  1  0
 95 98  1  0
 96100  1  0
 96 95  1  0
 97 96  2  0
100 99  1  0
102100  1  0
102103  1  0
102101  1  0
104107  1  1
104105  1  0
106104  1  0
M  ISO  4  26 100  34 100  66 101  67 101
M  END
>  <TORSDO>  (90) 
F 32

>  <SCORE>  (90) 
-9.864

>  <name>  (90) 
93

>  <ligand_id>  (90) 
93

>  <original_smiles>  (90) 
[H]c1nc2c(OC([H])([H])[H])c([H])c(N([H])C([H])([H])C([H])([H])OC([H])([H])C([H])([H])C([H])([H])C([H])([H])OC([H])([H])C([H])([H])C([H])([H])N([H])C(=O)N3C([H])([H])C([H])([H])C([H])([H])C([H])(n4nc(-c5c([H])c([H])c(Oc6c([H])c([H])c(F)c([H])c6F)c([H])c5[H])c(C(=O)N([H])[H])c4N([H])[H])C3([H])[H])c(OC([H])([H])C([H])([H])Oc3c([H])c([H])c4c(c3[H])C([H])([H])N(C(=O)C([H])(N([H])C(=O)C([H])(N([H])C([H])([H])[H])C([H])([H])[H])C(C([H])([H])[H])(C([H])([H])[H])C([H])([H])[H])C([H])(C(=O)N([H])C3([H])c5c([H])c([H])c([H])c([H])c5C([H])([H])C([H])([H])C3([H])[H])C4([H])[H])c2c([H])c1[H]

>  <smiles>  (90) 
[H]c1nc2c(OC([H])([H])[H])c([H])c(N([H])C([H])([H])C([H])([H])OC([H])([H])C([H])([H])C([H])([H])C([H])([H])OC([H])([H])C([H])([H])C([H])([H])N([H])C(=O)N3C([H])([H])C([H])([H])C([H])([H])C([H])(n4nc(-c5c([H])c([H])c(Oc6c([H])c([H])c(F)c([H])c6F)c([H])c5[H])c(C(=O)N([H])[H])c4N([H])[H])C3([H])[H])c(OC([H])([H])C([H])([H])Oc3c([H])c([H])c4c(c3[H])C([H])([H])N(C(=O)C([H])(N([H])C(=O)C([H])(N([H])C([H])([H])[H])C([H])([H])[H])C(C([H])([H])[H])(C([H])([H])[H])C([H])([H])[H])C([H])(C(=O)N([H])C3([H])c5c([H])c([H])c([H])c([H])c5C([H])([H])C([H])([H])C3([H])[H])C4([H])[H])c2c([H])c1[H]

$$$$
94:0:0
     RDKit          3D

103111  0  0  1  0  0  0  0  0999 V2000
  -29.0570  -25.1450   19.3560 C   0  0  0  0  0  0  0  0  0  0  0  0
  -27.6930  -23.5300   16.6730 C   0  0  0  0  0  2  0  0  0  0  0  0
  -27.6380  -23.4910   18.2140 C   0  0  0  0  0  2  0  0  0  0  0  0
  -26.6530  -25.6930   18.7510 C   0  0  0  0  0  2  0  0  0  0  0  0
  -26.3400  -23.8430   15.9970 C   0  0  0  0  0  2  0  0  0  0  0  0
  -26.1280  -25.9470   17.3240 C   0  0  0  0  0  2  0  0  0  0  0  0
  -27.8550  -24.8340   18.7890 N   0  0  0  0  0  0  0  0  0  0  0  0
  -25.4580  -24.7300   16.8000 N   0  0  1  0  0  4  0  0  0  0  0  0
  -30.0160  -24.3690   19.2940 O   0  0  0  0  0  0  0  0  0  0  0  0
  -25.2150  -24.1980   17.6270 H   0  0  0  0  0  0  0  0  0  0  0  0
  -24.1100  -24.9500   16.2140 C   0  0  0  0  0  2  0  0  0  0  0  0
  -23.3270  -23.6310   16.2060 C   0  0  0  0  0  2  0  0  0  0  0  0
  -23.9780  -22.7790   17.1450 O   0  0  0  0  0  0  0  0  0  0  0  0
  -23.4770  -21.4480   17.1370 C   0  0  0  0  0  2  0  0  0  0  0  0
  -24.4990  -20.5510   17.8470 C   0  0  0  0  0  2  0  0  0  0  0  0
  -25.7360  -20.6620   17.1530 O   0  0  0  0  0  0  0  0  0  0  0  0
  -26.6370  -19.6020   17.4380 C   0  0  0  0  0  2  0  0  0  0  0  0
  -28.0740  -20.1180   17.2910 C   0  0  0  0  0  2  0  0  0  0  0  0
  -28.5260  -20.2800   15.8340 C   0  0  0  0  0  2  0  0  0  0  0  0
  -29.4640  -21.3460   15.7740 O   0  0  0  0  0  0  0  0  0  0  0  0
  -30.2100  -21.3660   14.5670 C   0  0  0  0  0  2  0  0  0  0  0  0
  -30.4940  -22.8300   14.1950 C   0  0  0  0  0  2  0  0  0  0  0  0
  -31.7200  -23.0350   13.2840 C   0  0  0  0  0  2  0  0  0  0  0  0
  -31.0720  -21.8420   11.1690 C   0  0  0  0  0  0  0  0  0  0  0  0
  -30.8000  -20.5440    9.0850 C   0  0  0  0  0  2  0  0  0  0  0  0
  -29.8490  -19.3470    9.2670 C   0  0  0  0  0  2  0  0  0  0  0  0
  -30.6040  -18.1200    9.8130 C   0  0  0  0  0  2  0  0  0  0  0  0
  -31.4740  -18.4610   11.0490 C   0  0  0  0  0  3  0  0  0  0  0  0
  -32.3450  -19.7050   10.7700 C   0  0  0  0  0  2  0  0  0  0  0  0
  -31.4590  -20.8170   10.3700 N   0  0  0  0  0  0  0  0  0  0  0  0
  -30.1390  -22.6050   10.9030 O   0  0  0  0  0  0  0  0  0  0  0  0
  -31.8410  -22.0060   12.2540 N   0  0  0  0  0  0  0  0  0  0  0  0
  -32.6180  -21.3660   12.3360 H   0  0  0  0  0  0  0  0  0  0  0  0
  -32.4150  -16.7350   12.7140 C   0  0  0  0  0  0  0  0  0  0  0  0
  -33.2450  -15.6590   12.5430 C   0  0  0  0  0  0  0  0  0  0  0  0
  -33.5830  -15.6380   11.1550 C   0  0  0  0  0  0  0  0  0  0  0  0
  -32.2860  -17.3180   11.4630 N   0  0  0  0  0  0  0  0  0  0  0  0
  -33.0380  -16.6760   10.5330 N   0  0  0  0  0  0  0  0  0  0  0  0
  -34.3440  -14.6570   10.3710 C   0  0  0  0  0  0  0  0  0  0  0  0
  -35.4480  -15.0420    9.5780 C   0  0  0  0  0  3  0  0  0  0  0  0
  -36.1740  -14.0780    8.8470 C   0  0  0  0  0  3  0  0  0  0  0  0
  -35.8040  -12.7140    8.9050 C   0  0  0  0  0  0  0  0  0  0  0  0
  -34.6900  -12.3390    9.6780 C   0  0  0  0  0  3  0  0  0  0  0  0
  -33.9640  -13.3000   10.4010 C   0  0  0  0  0  3  0  0  0  0  0  0
  -36.4340  -11.7120    8.2080 O   0  0  0  0  0  0  0  0  0  0  0  0
  -37.7600  -11.7980    7.8660 C   0  0  0  0  0  0  0  0  0  0  0  0
  -38.7710  -11.9700    8.8370 C   0  0  0  0  0  3  0  0  0  0  0  0
  -40.1260  -11.9840    8.4480 C   0  0  0  0  0  3  0  0  0  0  0  0
  -40.4720  -11.8170    7.0940 C   0  0  0  0  0  0  0  0  0  0  0  0
  -39.4670  -11.6410    6.1270 C   0  0  0  0  0  3  0  0  0  0  0  0
  -38.1150  -11.6280    6.5120 C   0  0  0  0  0  0  0  0  0  0  0  0
  -37.1510  -11.4360    5.5790 F   0  0  0  0  0  0  0  0  0  0  0  0
  -41.7730  -11.8220    6.7210 F   0  0  0  0  0  0  0  0  0  0  0  0
  -33.6300  -14.6490   13.5870 C   0  0  0  0  0  0  0  0  0  0  0  0
  -34.8290  -14.0880   13.4840 N   0  0  0  0  0  0  0  0  0  0  0  0
  -32.8830  -14.3870   14.5290 O   0  0  0  0  0  0  0  0  0  0  0  0
  -35.4510  -14.3180   12.7220 H   0  0  0  0  0  0  0  0  0  0  0  0
  -35.1310  -13.4190   14.1770 H   0  0  0  0  0  0  0  0  0  0  0  0
  -31.7470  -17.2520   13.8200 N   0  0  0  0  0  0  0  0  0  0  0  0
  -31.7680  -16.7930   14.7240 H   0  0  0  0  0  0  0  0  0  0  0  0
  -31.0970  -18.0260   13.7790 H   0  0  0  0  0  0  0  0  0  0  0  0
  -29.2950  -26.4580   20.1290 C   0  0  0  0  0  2  0  0  0  0  0  0
  -28.8930  -26.3010   21.4950 O   0  0  0  0  0  0  0  0  0  0  0  0
  -24.5760  -27.8980   26.9070 C   0  0  0  0  0  0  0  0  0  0  0  0
  -27.7270  -26.9150   21.8850 C   0  0  0  0  0  0  0  0  0  0  0  0
  -23.6930  -28.3980   24.6500 C   0  0  0  0  0  3  0  0  0  0  0  0
  -25.3770  -28.2270   22.7440 C   0  0  0  0  0  0  0  0  0  0  0  0
  -26.2120  -28.3860   25.0950 C   0  0  0  0  0  2  0  0  0  0  0  0
  -26.4010  -27.9510   23.6580 C   0  0  0  0  0  0  0  0  0  0  0  0
  -27.5730  -27.2880   23.2360 C   0  0  0  0  0  3  0  0  0  0  0  0
  -26.6730  -27.1710   20.9810 C   0  0  0  0  0  3  0  0  0  0  0  0
  -25.5050  -27.8310   21.4010 C   0  0  0  0  0  3  0  0  0  0  0  0
  -24.1580  -28.9450   23.2720 C   0  0  0  0  0  2  0  0  0  0  0  0
  -24.8340  -28.1900   25.6010 N   0  0  0  0  0  0  0  0  0  0  0  0
  -23.4150  -27.8450   27.3330 O   0  0  0  0  0  0  0  0  0  0  0  0
  -22.8540  -27.1240   24.4110 C   0  0  0  0  0  0  0  0  0  0  0  0
  -21.9490  -27.1810   23.4200 N   0  0  0  0  0  0  0  0  0  0  0  0
  -23.0410  -26.1080   25.0870 O   0  0  0  0  0  0  0  0  0  0  0  0
  -21.8470  -28.0520   22.9200 H   0  0  0  0  0  0  0  0  0  0  0  0
  -19.9570  -25.9660   20.6650 C   0  0  0  0  0  0  0  0  0  0  0  0
  -21.0750  -26.0910   22.9920 C   0  0  0  0  0  3  0  0  0  0  0  0
  -21.8970  -24.8570   22.5500 C   0  0  0  0  0  2  0  0  0  0  0  0
  -22.1870  -24.8320   21.0470 C   0  0  0  0  0  2  0  0  0  0  0  0
  -20.8820  -24.8360   20.2460 C   0  0  0  0  0  2  0  0  0  0  0  0
  -20.0580  -26.5670   21.9480 C   0  0  0  0  0  0  0  0  0  0  0  0
  -19.1990  -27.6400   22.2700 C   0  0  0  0  0  3  0  0  0  0  0  0
  -18.2530  -28.1100   21.3420 C   0  0  0  0  0  3  0  0  0  0  0  0
  -18.1460  -27.5020   20.0790 C   0  0  0  0  0  3  0  0  0  0  0  0
  -18.9940  -26.4300   19.7460 C   0  0  0  0  0  3  0  0  0  0  0  0
  -25.7270  -27.6410   27.9300 C   0  0  0  0  0  3  0  0  0  0  0  0
  -25.2150  -27.9800   29.2650 N   0  0  0  0  0  0  0  0  0  0  0  0
  -25.5650  -29.0730   29.9550 C   0  0  0  0  0  0  0  0  0  0  0  0
  -26.4180  -29.8720   29.5590 O   0  0  0  0  0  0  0  0  0  0  0  0
  -24.4770  -27.3970   29.6310 H   0  0  0  0  0  0  0  0  0  0  0  0
  -23.7720  -30.3950   31.1210 C   0  0  0  0  0  1  0  0  0  0  0  0
  -24.8540  -29.3180   31.2990 C   0  0  0  0  0  3  0  0  0  0  0  0
  -26.6700  -28.6360   32.8040 C   0  0  0  0  0  1  0  0  0  0  0  0
  -25.7740  -29.7120   32.3890 N   0  0  0  0  0  0  0  0  0  0  0  0
  -25.2510  -30.0200   33.2030 H   0  0  0  0  0  0  0  0  0  0  0  0
  -26.2690  -26.1600   27.9000 C   0  0  1  0  0  0  0  0  0  0  0  0
  -25.1590  -25.0900   28.0160 C   0  0  0  0  0  1  0  0  0  0  0  0
  -27.0500  -25.8910   26.5920 C   0  0  0  0  0  1  0  0  0  0  0  0
  -27.2660  -25.9410   29.0640 C   0  0  0  0  0  1  0  0  0  0  0  0
  1 62  1  0
  2  3  1  0
  3  7  1  0
  4  7  1  0
  5  2  1  0
  5  8  1  0
  6  4  1  0
  7  1  1  0
  8  6  1  0
  8 10  1  1
  9  1  2  0
 11  8  1  0
 12 11  1  0
 12 13  1  0
 14 13  1  0
 14 15  1  0
 16 17  1  0
 16 15  1  0
 18 17  1  0
 19 18  1  0
 20 19  1  0
 21 20  1  0
 22 21  1  0
 23 22  1  0
 24 32  1  0
 25 26  1  0
 25 30  1  0
 26 27  1  0
 28 27  1  0
 28 37  1  0
 29 28  1  0
 30 29  1  0
 30 24  1  0
 31 24  2  0
 32 33  1  0
 32 23  1  0
 34 59  1  0
 35 34  2  0
 35 54  1  0
 36 35  1  0
 37 34  1  0
 38 36  2  0
 38 37  1  0
 39 44  1  0
 39 36  1  0
 40 39  2  0
 41 42  2  0
 41 40  1  0
 42 43  1  0
 43 44  2  0
 45 42  1  0
 46 45  1  0
 46 47  1  0
 48 47  2  0
 49 48  1  0
 50 51  1  0
 50 49  2  0
 51 46  2  0
 52 51  1  0
 53 49  1  0
 54 56  2  0
 55 54  1  0
 55 58  1  0
 57 55  1  0
 59 60  1  0
 61 59  1  0
 62 63  1  0
 63 65  1  0
 64 75  2  0
 65 70  1  0
 66 76  1  0
 66 74  1  0
 67 73  1  0
 67 69  1  0
 68 74  1  0
 69 68  1  0
 70 69  2  0
 71 72  1  0
 71 65  2  0
 72 67  2  0
 73 66  1  0
 74 64  1  0
 76 78  2  0
 77 76  1  0
 79 77  1  0
 80 85  1  0
 81 77  1  0
 82 81  1  0
 83 82  1  0
 84 80  1  0
 84 83  1  0
 85 86  2  0
 85 81  1  0
 87 86  1  0
 88 87  2  0
 89 88  1  0
 89 80  2  0
 90 64  1  0
 90 91  1  0
 91 94  1  0
 91 92  1  0
 92 96  1  0
 93 92  2  0
 96 95  1  0
 96 98  1  0
 98 97  1  0
 98 99  1  0
100 90  1  0
100101  1  1
100103  1  0
102100  1  0
M  ISO  4  24 100  32 100  62 101  63 101
M  END
>  <TORSDO>  (91) 
F 30

>  <SCORE>  (91) 
-0.275

>  <name>  (91) 
94

>  <ligand_id>  (91) 
94

>  <original_smiles>  (91) 
[H]c1c([H])c([H])c2c(c1[H])C([H])([H])C([H])([H])C([H])([H])C2([H])N([H])C(=O)C1([H])N(C(=O)C([H])(N([H])C(=O)C([H])(N([H])C([H])([H])[H])C([H])([H])[H])C(C([H])([H])[H])(C([H])([H])[H])C([H])([H])[H])C([H])([H])c2c([H])c(OC([H])([H])C(=O)N3C([H])([H])C([H])([H])C([H])([H])[N+]([H])(C([H])([H])C([H])([H])OC([H])([H])C([H])([H])OC([H])([H])C([H])([H])C([H])([H])OC([H])([H])C([H])([H])C([H])([H])N([H])C(=O)N4C([H])([H])C([H])([H])C([H])([H])C([H])(n5nc(-c6c([H])c([H])c(Oc7c([H])c([H])c(F)c([H])c7F)c([H])c6[H])c(C(=O)N([H])[H])c5N([H])[H])C4([H])[H])C([H])([H])C3([H])[H])c([H])c([H])c2C1([H])[H]

>  <smiles>  (91) 
[H]c1c([H])c([H])c2c(c1[H])C([H])([H])C([H])([H])C([H])([H])C2([H])N([H])C(=O)C1([H])N(C(=O)C([H])(N([H])C(=O)C([H])(N([H])C([H])([H])[H])C([H])([H])[H])C(C([H])([H])[H])(C([H])([H])[H])C([H])([H])[H])C([H])([H])c2c([H])c(OC([H])([H])C(=O)N3C([H])([H])C([H])([H])C([H])([H])[N+]([H])(C([H])([H])C([H])([H])OC([H])([H])C([H])([H])OC([H])([H])C([H])([H])C([H])([H])OC([H])([H])C([H])([H])C([H])([H])N([H])C(=O)N4C([H])([H])C([H])([H])C([H])([H])C([H])(n5nc(-c6c([H])c([H])c(Oc7c([H])c([H])c(F)c([H])c7F)c([H])c6[H])c(C(=O)N([H])[H])c5N([H])[H])C4([H])[H])C([H])([H])C3([H])[H])c([H])c([H])c2C1([H])[H]

$$$$
95:0:0
     RDKit          3D

106113  0  0  1  0  0  0  0  0999 V2000
  -25.9110  -20.0080   26.9700 C   0  0  0  0  0  2  0  0  0  0  0  0
  -27.4300  -20.2020   26.9940 C   0  0  0  0  0  2  0  0  0  0  0  0
  -27.8450  -20.5730   25.6850 O   0  0  0  0  0  0  0  0  0  0  0  0
  -29.2480  -20.4850   25.4950 C   0  0  0  0  0  2  0  0  0  0  0  0
  -29.5990  -21.2230   24.1970 C   0  0  0  0  0  2  0  0  0  0  0  0
  -31.0660  -21.0360   23.7720 C   0  0  0  0  0  2  0  0  0  0  0  0
  -31.4340  -21.9550   22.6730 N   0  0  0  0  0  4  0  0  0  0  0  0
  -31.5500  -22.8740   23.0700 H   0  0  0  0  0  0  0  0  0  0  0  0
  -30.6780  -22.0040   22.0080 H   0  0  0  0  0  0  0  0  0  0  0  0
  -32.6800  -21.6090   21.9510 C   0  0  0  0  0  2  0  0  0  0  0  0
  -32.3940  -20.8200   20.6660 C   0  0  0  0  0  2  0  0  0  0  0  0
  -31.9850  -19.5000   21.0070 O   0  0  0  0  0  0  0  0  0  0  0  0
  -31.1970  -18.8940   19.9930 C   0  0  0  0  0  2  0  0  0  0  0  0
  -31.1890  -17.3690   20.1540 C   0  0  0  0  0  2  0  0  0  0  0  0
  -30.8220  -16.8720   21.5700 C   0  0  0  0  0  2  0  0  0  0  0  0
  -31.1870  -14.4180   21.1630 C   0  0  0  0  0  0  0  0  0  0  0  0
  -30.8930  -12.2980   19.9540 C   0  0  0  0  0  2  0  0  0  0  0  0
  -30.0880  -12.5850   18.6710 C   0  0  0  0  0  2  0  0  0  0  0  0
  -28.5710  -12.5290   18.9460 C   0  0  0  0  0  2  0  0  0  0  0  0
  -28.1600  -13.3630   20.1880 C   0  0  0  0  0  3  0  0  0  0  0  0
  -29.0830  -13.0540   21.3890 C   0  0  0  0  0  2  0  0  0  0  0  0
  -30.4760  -13.2800   20.9640 N   0  0  0  0  0  0  0  0  0  0  0  0
  -32.3620  -14.5590   20.8100 O   0  0  0  0  0  0  0  0  0  0  0  0
  -30.4550  -15.4530   21.5960 N   0  0  0  0  0  0  0  0  0  0  0  0
  -29.5040  -15.2360   21.8580 H   0  0  0  0  0  0  0  0  0  0  0  0
  -25.7370  -14.1060   20.6480 C   0  0  0  0  0  0  0  0  0  0  0  0
  -24.5960  -13.3940   20.9030 C   0  0  0  0  0  0  0  0  0  0  0  0
  -24.9830  -12.0180   20.9130 C   0  0  0  0  0  0  0  0  0  0  0  0
  -26.7510  -13.1680   20.5240 N   0  0  0  0  0  0  0  0  0  0  0  0
  -26.2940  -11.9090   20.7380 N   0  0  0  0  0  0  0  0  0  0  0  0
  -24.1740  -10.7980   21.0240 C   0  0  0  0  0  0  0  0  0  0  0  0
  -24.4910   -9.7870   21.9580 C   0  0  0  0  0  3  0  0  0  0  0  0
  -23.6900   -8.6290   22.0600 C   0  0  0  0  0  3  0  0  0  0  0  0
  -22.5570   -8.4750   21.2250 C   0  0  0  0  0  0  0  0  0  0  0  0
  -22.2580   -9.4760   20.2830 C   0  0  0  0  0  3  0  0  0  0  0  0
  -23.0600  -10.6250   20.1790 C   0  0  0  0  0  3  0  0  0  0  0  0
  -21.7350   -7.3750   21.2340 O   0  0  0  0  0  0  0  0  0  0  0  0
  -21.5990   -6.5880   22.3490 C   0  0  0  0  0  0  0  0  0  0  0  0
  -21.2030   -7.1220   23.5940 C   0  0  0  0  0  3  0  0  0  0  0  0
  -21.0070   -6.2670   24.6980 C   0  0  0  0  0  3  0  0  0  0  0  0
  -21.1980   -4.8790   24.5560 C   0  0  0  0  0  0  0  0  0  0  0  0
  -21.5870   -4.3450   23.3160 C   0  0  0  0  0  3  0  0  0  0  0  0
  -21.7850   -5.1970   22.2150 C   0  0  0  0  0  0  0  0  0  0  0  0
  -22.1380   -4.6740   21.0160 F   0  0  0  0  0  0  0  0  0  0  0  0
  -21.0040   -4.0570   25.6130 F   0  0  0  0  0  0  0  0  0  0  0  0
  -23.2060  -13.9450   21.0370 C   0  0  0  0  0  0  0  0  0  0  0  0
  -22.3610  -13.2960   21.8310 N   0  0  0  0  0  0  0  0  0  0  0  0
  -22.8730  -14.9870   20.4720 O   0  0  0  0  0  0  0  0  0  0  0  0
  -22.6380  -12.4530   22.3120 H   0  0  0  0  0  0  0  0  0  0  0  0
  -21.4240  -13.6490   21.9600 H   0  0  0  0  0  0  0  0  0  0  0  0
  -25.9960  -15.4660   20.4930 N   0  0  0  0  0  0  0  0  0  0  0  0
  -25.2620  -16.1660   20.5310 H   0  0  0  0  0  0  0  0  0  0  0  0
  -26.9000  -15.8580   20.2590 H   0  0  0  0  0  0  0  0  0  0  0  0
  -25.2970  -21.2300   26.5770 O   0  0  0  0  0  0  0  0  0  0  0  0
  -24.1880  -21.0250   25.7110 C   0  0  0  0  0  2  0  0  0  0  0  0
  -23.5870  -22.3910   25.3680 C   0  0  0  0  0  2  0  0  0  0  0  0
  -24.6220  -23.3170   24.8560 N   0  0  0  0  0  4  0  0  0  0  0  0
  -25.2360  -23.5470   25.6240 H   0  0  0  0  0  0  0  0  0  0  0  0
  -25.1940  -22.8470   24.1680 H   0  0  0  0  0  0  0  0  0  0  0  0
  -24.0820  -24.5520   24.2490 C   0  0  0  0  0  2  0  0  0  0  0  0
  -25.1680  -25.6180   24.0610 C   0  0  0  0  0  2  0  0  0  0  0  0
  -26.2630  -25.0640   23.3330 O   0  0  0  0  0  0  0  0  0  0  0  0
  -27.1430  -26.0780   22.8680 C   0  0  0  0  0  2  0  0  0  0  0  0
  -28.3150  -25.4550   22.0860 C   0  0  0  0  0  2  0  0  0  0  0  0
  -29.2130  -26.4770   21.3460 C   0  0  0  0  0  2  0  0  0  0  0  0
  -28.7360  -26.7780   20.0320 O   0  0  0  0  0  0  0  0  0  0  0  0
  -24.5980  -31.7060   23.0350 C   0  0  0  0  0  0  0  0  0  0  0  0
  -27.5590  -27.4760   19.9940 C   0  0  0  0  0  0  0  0  0  0  0  0
  -23.5020  -30.2340   21.3720 C   0  0  0  0  0  3  0  0  0  0  0  0
  -25.0700  -28.7930   19.9680 C   0  0  0  0  0  0  0  0  0  0  0  0
  -25.9950  -30.7600   21.2080 C   0  0  0  0  0  2  0  0  0  0  0  0
  -26.1760  -29.3990   20.5760 C   0  0  0  0  0  0  0  0  0  0  0  0
  -27.4250  -28.7480   20.5930 C   0  0  0  0  0  3  0  0  0  0  0  0
  -26.4470  -26.8800   19.3660 C   0  0  0  0  0  3  0  0  0  0  0  0
  -25.1970  -27.5290   19.3620 C   0  0  0  0  0  3  0  0  0  0  0  0
  -23.7720  -29.5670   19.9960 C   0  0  0  0  0  2  0  0  0  0  0  0
  -24.7160  -30.9140   21.9310 N   0  0  0  0  0  0  0  0  0  0  0  0
  -23.4960  -31.9090   23.5630 O   0  0  0  0  0  0  0  0  0  0  0  0
  -22.9010  -29.1750   22.3230 C   0  0  0  0  0  0  0  0  0  0  0  0
  -21.5890  -28.9260   22.1890 N   0  0  0  0  0  0  0  0  0  0  0  0
  -23.6150  -28.5790   23.1350 O   0  0  0  0  0  0  0  0  0  0  0  0
  -21.0730  -29.4630   21.5070 H   0  0  0  0  0  0  0  0  0  0  0  0
  -18.2760  -27.5730   22.6630 C   0  0  0  0  0  0  0  0  0  0  0  0
  -20.8170  -27.9440   22.9490 C   0  0  0  0  0  3  0  0  0  0  0  0
  -20.9900  -26.5250   22.3610 C   0  0  0  0  0  2  0  0  0  0  0  0
  -19.9070  -26.1610   21.3400 C   0  0  0  0  0  2  0  0  0  0  0  0
  -18.5170  -26.2380   21.9780 C   0  0  0  0  0  2  0  0  0  0  0  0
  -19.3560  -28.3820   23.1040 C   0  0  0  0  0  0  0  0  0  0  0  0
  -19.0780  -29.6300   23.7020 C   0  0  0  0  0  3  0  0  0  0  0  0
  -17.7510  -30.0710   23.8640 C   0  0  0  0  0  3  0  0  0  0  0  0
  -16.6840  -29.2590   23.4400 C   0  0  0  0  0  3  0  0  0  0  0  0
  -16.9480  -28.0130   22.8450 C   0  0  0  0  0  3  0  0  0  0  0  0
  -25.8370  -32.4100   23.6720 C   0  0  0  0  0  3  0  0  0  0  0  0
  -26.4070  -31.6470   24.9300 C   0  0  1  0  0  0  0  0  0  0  0  0
  -25.3350  -31.3110   25.9920 C   0  0  0  0  0  1  0  0  0  0  0  0
  -27.0800  -30.3200   24.5020 C   0  0  0  0  0  1  0  0  0  0  0  0
  -27.5030  -32.4990   25.6100 C   0  0  0  0  0  1  0  0  0  0  0  0
  -25.4350  -33.7760   24.0310 N   0  0  0  0  0  0  0  0  0  0  0  0
  -25.6930  -34.8630   23.2930 C   0  0  0  0  0  0  0  0  0  0  0  0
  -26.3700  -34.8260   22.2600 O   0  0  0  0  0  0  0  0  0  0  0  0
  -24.8380  -33.8740   24.8390 H   0  0  0  0  0  0  0  0  0  0  0  0
  -23.8360  -36.5280   22.9750 C   0  0  0  0  0  1  0  0  0  0  0  0
  -25.1090  -36.2060   23.7740 C   0  0  0  0  0  3  0  0  0  0  0  0
  -27.1830  -37.2230   24.6040 C   0  0  0  0  0  1  0  0  0  0  0  0
  -26.0610  -37.3340   23.6740 N   0  0  0  0  0  0  0  0  0  0  0  0
  -25.5920  -38.2190   23.8450 H   0  0  0  0  0  0  0  0  0  0  0  0
  1  2  1  0
  3  2  1  0
  4  3  1  0
  5  4  1  0
  6  5  1  0
  7  8  1  0
  7  6  1  0
  9  7  1  0
 10  7  1  0
 11 12  1  0
 11 10  1  0
 13 14  1  0
 13 12  1  0
 14 15  1  0
 15 24  1  0
 16 24  1  0
 17 22  1  0
 18 19  1  0
 18 17  1  0
 20 19  1  0
 20 29  1  0
 20 21  1  0
 22 16  1  0
 22 21  1  0
 23 16  2  0
 24 25  1  0
 26 27  2  0
 27 28  1  0
 27 46  1  0
 28 31  1  0
 29 26  1  0
 29 30  1  0
 30 28  2  0
 31 32  1  0
 32 33  2  0
 34 37  1  0
 34 33  1  0
 35 34  2  0
 36 35  1  0
 36 31  2  0
 37 38  1  0
 38 39  1  0
 39 40  2  0
 41 40  1  0
 41 45  1  0
 42 41  2  0
 43 38  2  0
 43 42  1  0
 44 43  1  0
 46 47  1  0
 47 50  1  0
 47 49  1  0
 48 46  2  0
 51 52  1  0
 51 26  1  0
 53 51  1  0
 54  1  1  0
 55 54  1  0
 56 55  1  0
 57 56  1  0
 57 58  1  0
 59 57  1  0
 60 57  1  0
 61 60  1  0
 62 61  1  0
 63 62  1  0
 64 63  1  0
 65 64  1  0
 66 65  1  0
 67 78  2  0
 68 66  1  0
 68 73  1  0
 69 77  1  0
 69 79  1  0
 70 76  1  0
 70 72  1  0
 71 77  1  0
 72 73  2  0
 72 71  1  0
 74 68  2  0
 75 74  1  0
 75 70  2  0
 76 69  1  0
 77 67  1  0
 79 81  2  0
 80 79  1  0
 82 80  1  0
 83 92  2  0
 83 88  1  0
 84 80  1  0
 84 88  1  0
 85 84  1  0
 86 87  1  0
 86 85  1  0
 87 83  1  0
 88 89  2  0
 89 90  1  0
 91 90  2  0
 92 91  1  0
 93 67  1  0
 93 98  1  0
 93 94  1  0
 94 97  1  1
 94 95  1  0
 96 94  1  0
 98101  1  0
 99103  1  0
 99 98  1  0
100 99  2  0
103102  1  0
105103  1  0
105106  1  0
105104  1  0
M  ISO  4  16 100  24 100  65 101  66 101
M  END
>  <TORSDO>  (92) 
F 38

>  <SCORE>  (92) 
12.632

>  <name>  (92) 
95

>  <ligand_id>  (92) 
95

>  <original_smiles>  (92) 
[H]c1c([H])c([H])c2c(c1[H])C([H])([H])C([H])([H])C([H])([H])C2([H])N([H])C(=O)C1([H])N(C(=O)C([H])(N([H])C(=O)C([H])(N([H])C([H])([H])[H])C([H])([H])[H])C(C([H])([H])[H])(C([H])([H])[H])C([H])([H])[H])C([H])([H])c2c([H])c(OC([H])([H])C([H])([H])C([H])([H])OC([H])([H])C([H])([H])[N+]([H])([H])C([H])([H])C([H])([H])OC([H])([H])C([H])([H])OC([H])([H])C([H])([H])C([H])([H])[N+]([H])([H])C([H])([H])C([H])([H])OC([H])([H])C([H])([H])C([H])([H])N([H])C(=O)N3C([H])([H])C([H])([H])C([H])([H])C([H])(n4nc(-c5c([H])c([H])c(Oc6c([H])c([H])c(F)c([H])c6F)c([H])c5[H])c(C(=O)N([H])[H])c4N([H])[H])C3([H])[H])c([H])c([H])c2C1([H])[H]

>  <smiles>  (92) 
[H]c1c([H])c([H])c2c(c1[H])C([H])([H])C([H])([H])C([H])([H])C2([H])N([H])C(=O)C1([H])N(C(=O)C([H])(N([H])C(=O)C([H])(N([H])C([H])([H])[H])C([H])([H])[H])C(C([H])([H])[H])(C([H])([H])[H])C([H])([H])[H])C([H])([H])c2c([H])c(OC([H])([H])C([H])([H])C([H])([H])OC([H])([H])C([H])([H])[N+]([H])([H])C([H])([H])C([H])([H])OC([H])([H])C([H])([H])OC([H])([H])C([H])([H])C([H])([H])[N+]([H])([H])C([H])([H])C([H])([H])OC([H])([H])C([H])([H])C([H])([H])N([H])C(=O)N3C([H])([H])C([H])([H])C([H])([H])C([H])(n4nc(-c5c([H])c([H])c(Oc6c([H])c([H])c(F)c([H])c6F)c([H])c5[H])c(C(=O)N([H])[H])c4N([H])[H])C3([H])[H])c([H])c([H])c2C1([H])[H]

$$$$
96:0:0
     RDKit          3D

 99106  0  0  1  0  0  0  0  0999 V2000
  -24.7190  -19.2540   23.3010 O   0  0  0  0  0  0  0  0  0  0  0  0
  -25.4150  -20.2380   24.0560 C   0  0  0  0  0  2  0  0  0  0  0  0
  -24.9260  -21.6130   23.5840 C   0  0  0  0  0  2  0  0  0  0  0  0
  -25.5990  -21.8970   22.3650 O   0  0  0  0  0  0  0  0  0  0  0  0
  -25.2260  -23.1250   21.7600 C   0  0  0  0  0  2  0  0  0  0  0  0
  -26.0020  -24.3250   22.3380 C   0  0  0  0  0  2  0  0  0  0  0  0
  -26.3310  -25.2250   21.2820 O   0  0  0  0  0  0  0  0  0  0  0  0
  -27.5860  -24.9470   20.6620 C   0  0  0  0  0  2  0  0  0  0  0  0
  -27.7350  -25.6710   19.3090 C   0  0  0  0  0  2  0  0  0  0  0  0
  -27.8190  -27.0890   19.4880 O   0  0  0  0  0  0  0  0  0  0  0  0
  -24.5010  -31.9780   23.4490 C   0  0  0  0  0  0  0  0  0  0  0  0
  -26.6610  -27.8110   19.6800 C   0  0  0  0  0  0  0  0  0  0  0  0
  -23.1060  -30.8220   21.7700 C   0  0  0  0  0  3  0  0  0  0  0  0
  -24.3580  -29.3980   20.0750 C   0  0  0  0  0  0  0  0  0  0  0  0
  -25.6280  -31.0930   21.4050 C   0  0  0  0  0  2  0  0  0  0  0  0
  -25.5840  -29.8030   20.6130 C   0  0  0  0  0  0  0  0  0  0  0  0
  -26.7390  -29.0180   20.4070 C   0  0  0  0  0  3  0  0  0  0  0  0
  -25.4090  -27.4180   19.1480 C   0  0  0  0  0  3  0  0  0  0  0  0
  -24.2610  -28.2040   19.3430 C   0  0  0  0  0  3  0  0  0  0  0  0
  -23.1760  -30.3050   20.3110 C   0  0  0  0  0  2  0  0  0  0  0  0
  -24.4370  -31.3070   22.2650 N   0  0  0  0  0  0  0  0  0  0  0  0
  -23.4780  -32.2280   24.1020 O   0  0  0  0  0  0  0  0  0  0  0  0
  -22.4840  -29.7220   22.6580 C   0  0  0  0  0  0  0  0  0  0  0  0
  -21.1630  -29.5230   22.5280 N   0  0  0  0  0  0  0  0  0  0  0  0
  -23.1860  -29.0550   23.4230 O   0  0  0  0  0  0  0  0  0  0  0  0
  -20.6580  -30.1230   21.8910 H   0  0  0  0  0  0  0  0  0  0  0  0
  -17.8330  -28.1540   22.8620 C   0  0  0  0  0  0  0  0  0  0  0  0
  -20.3640  -28.5230   23.2380 C   0  0  0  0  0  3  0  0  0  0  0  0
  -20.5580  -27.1170   22.6270 C   0  0  0  0  0  2  0  0  0  0  0  0
  -19.5120  -26.7740   21.5630 C   0  0  0  0  0  2  0  0  0  0  0  0
  -18.1010  -26.8340   22.1550 C   0  0  0  0  0  2  0  0  0  0  0  0
  -18.8970  -28.9540   23.3570 C   0  0  0  0  0  0  0  0  0  0  0  0
  -18.5950  -30.1870   23.9740 C   0  0  0  0  0  3  0  0  0  0  0  0
  -17.2620  -30.6190   24.1050 C   0  0  0  0  0  3  0  0  0  0  0  0
  -16.2120  -29.8170   23.6260 C   0  0  0  0  0  3  0  0  0  0  0  0
  -16.4990  -28.5840   23.0120 C   0  0  0  0  0  3  0  0  0  0  0  0
  -25.8590  -32.4850   24.0280 C   0  0  0  0  0  3  0  0  0  0  0  0
  -26.4110  -31.5830   25.1980 C   0  0  1  0  0  0  0  0  0  0  0  0
  -25.3850  -31.3170   26.3260 C   0  0  0  0  0  1  0  0  0  0  0  0
  -26.8750  -30.2140   24.6500 C   0  0  0  0  0  1  0  0  0  0  0  0
  -27.6520  -32.2540   25.8310 C   0  0  0  0  0  1  0  0  0  0  0  0
  -25.6610  -33.8680   24.4830 N   0  0  0  0  0  0  0  0  0  0  0  0
  -26.0140  -34.9530   23.7840 C   0  0  0  0  0  0  0  0  0  0  0  0
  -26.6140  -34.8900   22.7070 O   0  0  0  0  0  0  0  0  0  0  0  0
  -25.1340  -33.9970   25.3360 H   0  0  0  0  0  0  0  0  0  0  0  0
  -24.3800  -36.8570   23.6720 C   0  0  0  0  0  1  0  0  0  0  0  0
  -25.6430  -36.3280   24.3700 C   0  0  0  0  0  3  0  0  0  0  0  0
  -27.8790  -37.0190   25.1120 C   0  0  0  0  0  1  0  0  0  0  0  0
  -26.7300  -37.3250   24.2630 N   0  0  0  0  0  0  0  0  0  0  0  0
  -26.3940  -38.2530   24.5060 H   0  0  0  0  0  0  0  0  0  0  0  0
  -25.2930  -17.9530   23.3250 C   0  0  0  0  0  2  0  0  0  0  0  0
  -25.3750  -17.3660   21.9030 C   0  0  0  0  0  2  0  0  0  0  0  0
  -26.2470  -18.1670   19.7090 C   0  0  0  0  0  0  0  0  0  0  0  0
  -26.2320  -18.1810   21.0470 N   0  0  0  0  0  0  0  0  0  0  0  0
  -25.5310  -17.4290   19.0310 O   0  0  0  0  0  0  0  0  0  0  0  0
  -26.8700  -18.8110   21.5140 H   0  0  0  0  0  0  0  0  0  0  0  0
  -27.2300  -19.1230   19.0250 C   0  0  0  0  0  2  0  0  0  0  0  0
  -28.7040  -18.7160   19.2360 C   0  0  0  0  0  2  0  0  0  0  0  0
  -29.1680  -18.6430   20.7100 C   0  0  0  0  0  2  0  0  0  0  0  0
  -30.6770  -18.3870   20.8930 C   0  0  0  0  0  2  0  0  0  0  0  0
  -31.2550  -17.2050   20.0870 C   0  0  0  0  0  2  0  0  0  0  0  0
  -30.5100  -15.0140   19.2150 C   0  0  0  0  0  0  0  0  0  0  0  0
  -30.6820  -12.5790   19.4690 C   0  0  0  0  0  2  0  0  0  0  0  0
  -29.8590  -11.7670   18.4610 C   0  0  0  0  0  2  0  0  0  0  0  0
  -28.4360  -11.5500   18.9950 C   0  0  0  0  0  2  0  0  0  0  0  0
  -27.7610  -12.8770   19.4300 C   0  0  0  0  0  3  0  0  0  0  0  0
  -28.6870  -13.7160   20.3450 C   0  0  0  0  0  2  0  0  0  0  0  0
  -30.0080  -13.8610   19.7090 N   0  0  0  0  0  0  0  0  0  0  0  0
  -31.2950  -15.0740   18.2640 O   0  0  0  0  0  0  0  0  0  0  0  0
  -30.3610  -16.0470   20.0540 N   0  0  0  0  0  0  0  0  0  0  0  0
  -29.7930  -15.8700   20.8700 H   0  0  0  0  0  0  0  0  0  0  0  0
  -25.4730  -13.5240   20.4300 C   0  0  0  0  0  0  0  0  0  0  0  0
  -24.4230  -12.7680   20.8850 C   0  0  0  0  0  0  0  0  0  0  0  0
  -24.8320  -11.4060   20.7500 C   0  0  0  0  0  0  0  0  0  0  0  0
  -26.4570  -12.6230   20.0510 N   0  0  0  0  0  0  0  0  0  0  0  0
  -26.0780  -11.3410   20.2980 N   0  0  0  0  0  0  0  0  0  0  0  0
  -24.0860  -10.1600   20.9770 C   0  0  0  0  0  0  0  0  0  0  0  0
  -24.5030   -9.2160   21.9440 C   0  0  0  0  0  3  0  0  0  0  0  0
  -23.7580   -8.0350   22.1600 C   0  0  0  0  0  3  0  0  0  0  0  0
  -22.5840   -7.7890   21.4100 C   0  0  0  0  0  0  0  0  0  0  0  0
  -22.1850   -8.7200   20.4340 C   0  0  0  0  0  3  0  0  0  0  0  0
  -22.9290   -9.8930   20.2170 C   0  0  0  0  0  3  0  0  0  0  0  0
  -21.8130   -6.6580   21.5330 O   0  0  0  0  0  0  0  0  0  0  0  0
  -21.6800   -6.0050   22.7330 C   0  0  0  0  0  0  0  0  0  0  0  0
  -21.1240   -6.6350   23.8670 C   0  0  0  0  0  3  0  0  0  0  0  0
  -20.9410   -5.9070   25.0590 C   0  0  0  0  0  3  0  0  0  0  0  0
  -21.3050   -4.5480   25.1170 C   0  0  0  0  0  0  0  0  0  0  0  0
  -21.8570   -3.9170   23.9890 C   0  0  0  0  0  3  0  0  0  0  0  0
  -22.0410   -4.6430   22.7990 C   0  0  0  0  0  0  0  0  0  0  0  0
  -22.5520   -4.0240   21.7070 F   0  0  0  0  0  0  0  0  0  0  0  0
  -21.1230   -3.8470   26.2610 F   0  0  0  0  0  0  0  0  0  0  0  0
  -23.0820  -13.2780   21.3260 C   0  0  0  0  0  0  0  0  0  0  0  0
  -22.4290  -12.5690   22.2440 N   0  0  0  0  0  0  0  0  0  0  0  0
  -22.6230  -14.3320   20.8930 O   0  0  0  0  0  0  0  0  0  0  0  0
  -22.8110  -11.7090   22.6090 H   0  0  0  0  0  0  0  0  0  0  0  0
  -21.5340  -12.8900   22.5810 H   0  0  0  0  0  0  0  0  0  0  0  0
  -25.6620  -14.8950   20.2970 N   0  0  0  0  0  0  0  0  0  0  0  0
  -24.9580  -15.5660   20.5840 H   0  0  0  0  0  0  0  0  0  0  0  0
  -26.4910  -15.3270   19.9080 H   0  0  0  0  0  0  0  0  0  0  0  0
  1 51  1  0
  1  2  1  0
  3  2  1  0
  4  3  1  0
  5  6  1  0
  5  4  1  0
  7  6  1  0
  8  7  1  0
  9 10  1  0
  9  8  1  0
 10 12  1  0
 11 22  2  0
 12 17  1  0
 13 21  1  0
 13 23  1  0
 14 20  1  0
 14 16  1  0
 15 21  1  0
 16 15  1  0
 17 16  2  0
 18 19  1  0
 18 12  2  0
 19 14  2  0
 20 13  1  0
 21 11  1  0
 23 25  2  0
 24 23  1  0
 26 24  1  0
 27 36  2  0
 27 32  1  0
 28 24  1  0
 28 32  1  0
 29 28  1  0
 30 31  1  0
 30 29  1  0
 31 27  1  0
 32 33  2  0
 33 34  1  0
 35 34  2  0
 36 35  1  0
 37 11  1  0
 37 42  1  0
 37 38  1  0
 38 41  1  1
 38 39  1  0
 40 38  1  0
 42 45  1  0
 43 47  1  0
 43 42  1  0
 44 43  2  0
 47 46  1  0
 49 47  1  0
 49 50  1  0
 49 48  1  0
 52 51  1  0
 53 54  1  0
 54 56  1  0
 54 52  1  0
 55 53  2  0
 57 58  1  0
 57 53  1  0
 58 59  1  0
 59 60  1  0
 61 60  1  0
 62 68  1  0
 62 70  1  0
 63 68  1  0
 64 65  1  0
 64 63  1  0
 66 65  1  0
 66 75  1  0
 66 67  1  0
 68 67  1  0
 69 62  2  0
 70 61  1  0
 70 71  1  0
 72 73  2  0
 73 92  1  0
 74 73  1  0
 74 77  1  0
 75 76  1  0
 75 72  1  0
 76 74  2  0
 77 78  1  0
 78 79  2  0
 80 83  1  0
 80 79  1  0
 81 80  2  0
 82 81  1  0
 82 77  2  0
 83 84  1  0
 84 89  2  0
 84 85  1  0
 85 86  2  0
 86 87  1  0
 87 91  1  0
 88 87  2  0
 89 88  1  0
 90 89  1  0
 92 93  1  0
 93 96  1  0
 93 95  1  0
 94 92  2  0
 97 72  1  0
 97 98  1  0
 99 97  1  0
M  ISO  4   9 101  10 101  62 100  70 100
M  END
>  <TORSDO>  (93) 
F 32

>  <SCORE>  (93) 
23.945

>  <name>  (93) 
96

>  <ligand_id>  (93) 
96

>  <original_smiles>  (93) 
[H]c1c([H])c([H])c2c(c1[H])C([H])([H])C([H])([H])C([H])([H])C2([H])N([H])C(=O)C1([H])N(C(=O)C([H])(N([H])C(=O)C([H])(N([H])C([H])([H])[H])C([H])([H])[H])C(C([H])([H])[H])(C([H])([H])[H])C([H])([H])[H])C([H])([H])c2c([H])c(OC([H])([H])C([H])([H])OC([H])([H])C([H])([H])OC([H])([H])C([H])([H])OC([H])([H])C([H])([H])N([H])C(=O)C([H])([H])C([H])([H])C([H])([H])C([H])([H])C([H])([H])N([H])C(=O)N3C([H])([H])C([H])([H])C([H])([H])C([H])(n4nc(-c5c([H])c([H])c(Oc6c([H])c([H])c(F)c([H])c6F)c([H])c5[H])c(C(=O)N([H])[H])c4N([H])[H])C3([H])[H])c([H])c([H])c2C1([H])[H]

>  <smiles>  (93) 
[H]c1c([H])c([H])c2c(c1[H])C([H])([H])C([H])([H])C([H])([H])C2([H])N([H])C(=O)C1([H])N(C(=O)C([H])(N([H])C(=O)C([H])(N([H])C([H])([H])[H])C([H])([H])[H])C(C([H])([H])[H])(C([H])([H])[H])C([H])([H])[H])C([H])([H])c2c([H])c(OC([H])([H])C([H])([H])OC([H])([H])C([H])([H])OC([H])([H])C([H])([H])OC([H])([H])C([H])([H])N([H])C(=O)C([H])([H])C([H])([H])C([H])([H])C([H])([H])C([H])([H])N([H])C(=O)N3C([H])([H])C([H])([H])C([H])([H])C([H])(n4nc(-c5c([H])c([H])c(Oc6c([H])c([H])c(F)c([H])c6F)c([H])c5[H])c(C(=O)N([H])[H])c4N([H])[H])C3([H])[H])c([H])c([H])c2C1([H])[H]

$$$$
