0:0:0
     RDKit          3D

 98105  0  0  1  0  0  0  0  0999 V2000
  -27.7910  -18.5260   20.6590 C   0  0  0  0  0  2  0  0  0  0  0  0
  -30.1660  -17.7950   20.7020 C   0  0  0  0  0  0  0  0  0  0  0  0
  -29.1520  -18.4560   20.1390 N   0  0  0  0  0  0  0  0  0  0  0  0
  -30.0450  -17.1860   21.7700 O   0  0  0  0  0  0  0  0  0  0  0  0
  -29.3110  -18.9240   19.2540 H   0  0  0  0  0  0  0  0  0  0  0  0
  -31.5170  -17.7900   19.9620 C   0  0  0  0  0  3  0  0  0  0  0  0
  -32.5810  -18.0360   20.9440 N   0  0  0  0  0  4  0  0  0  0  0  0
  -32.4340  -17.4220   21.7250 H   0  0  0  0  0  0  0  0  0  0  0  0
  -32.5050  -18.9780   21.2830 H   0  0  0  0  0  0  0  0  0  0  0  0
  -33.4930  -17.8950   20.5500 H   0  0  0  0  0  0  0  0  0  0  0  0
  -31.1140  -16.3990   17.7910 C   0  0  0  0  0  1  0  0  0  0  0  0
  -31.8000  -16.4720   19.1740 C   0  0  0  0  0  3  0  0  0  0  0  0
  -32.1830  -14.1350   19.9770 C   0  0  0  0  0  0  0  0  0  0  0  0
  -32.0030  -11.6990   20.2560 C   0  0  0  0  0  2  0  0  0  0  0  0
  -31.1560  -11.1180   19.1060 C   0  0  0  0  0  2  0  0  0  0  0  0
  -29.6560  -11.1660   19.4560 C   0  0  0  0  0  2  0  0  0  0  0  0
  -29.2010  -12.5570   19.9750 C   0  0  0  0  0  3  0  0  0  0  0  0
  -30.1660  -13.0790   21.0630 C   0  0  0  0  0  2  0  0  0  0  0  0
  -31.5330  -13.0670   20.5080 N   0  0  0  0  0  0  0  0  0  0  0  0
  -33.2940  -14.0650   19.4490 O   0  0  0  0  0  0  0  0  0  0  0  0
  -31.4750  -15.2710   19.9620 N   0  0  0  0  0  0  0  0  0  0  0  0
  -30.5670  -15.2190   20.3980 H   0  0  0  0  0  0  0  0  0  0  0  0
  -26.9770  -13.5790   20.7760 C   0  0  0  0  0  0  0  0  0  0  0  0
  -25.7700  -13.0130   21.0880 C   0  0  0  0  0  0  0  0  0  0  0  0
  -25.9410  -11.6040   20.9180 C   0  0  0  0  0  0  0  0  0  0  0  0
  -27.8190  -12.5260   20.4450 N   0  0  0  0  0  0  0  0  0  0  0  0
  -27.1950  -11.3290   20.5820 N   0  0  0  0  0  0  0  0  0  0  0  0
  -24.9710  -10.5060   21.0000 C   0  0  0  0  0  0  0  0  0  0  0  0
  -25.1130   -9.4590   21.9380 C   0  0  0  0  0  3  0  0  0  0  0  0
  -24.1540   -8.4250   22.0070 C   0  0  0  0  0  3  0  0  0  0  0  0
  -23.0400   -8.4320   21.1350 C   0  0  0  0  0  0  0  0  0  0  0  0
  -22.9170   -9.4630   20.1860 C   0  0  0  0  0  3  0  0  0  0  0  0
  -23.8740  -10.4880   20.1160 C   0  0  0  0  0  3  0  0  0  0  0  0
  -22.0720   -7.4570   21.1130 O   0  0  0  0  0  0  0  0  0  0  0  0
  -21.6770   -6.8140   22.2580 C   0  0  0  0  0  0  0  0  0  0  0  0
  -21.1060   -7.5120   23.3440 C   0  0  0  0  0  3  0  0  0  0  0  0
  -20.6450   -6.8040   24.4710 C   0  0  0  0  0  3  0  0  0  0  0  0
  -20.7460   -5.4000   24.5130 C   0  0  0  0  0  0  0  0  0  0  0  0
  -21.3080   -4.7040   23.4290 C   0  0  0  0  0  3  0  0  0  0  0  0
  -21.7700   -5.4090   22.3040 C   0  0  0  0  0  0  0  0  0  0  0  0
  -22.2940   -4.7300   21.2550 F   0  0  0  0  0  0  0  0  0  0  0  0
  -20.2950   -4.7180   25.5920 F   0  0  0  0  0  0  0  0  0  0  0  0
  -24.5010  -13.7390   21.4310 C   0  0  0  0  0  0  0  0  0  0  0  0
  -23.6490  -13.1310   22.2520 N   0  0  0  0  0  0  0  0  0  0  0  0
  -24.2790  -14.8740   21.0090 O   0  0  0  0  0  0  0  0  0  0  0  0
  -23.8410  -12.2100   22.6110 H   0  0  0  0  0  0  0  0  0  0  0  0
  -22.7950  -13.5950   22.5260 H   0  0  0  0  0  0  0  0  0  0  0  0
  -27.4270  -14.8950   20.7270 N   0  0  0  0  0  0  0  0  0  0  0  0
  -26.8020  -15.6790   20.8670 H   0  0  0  0  0  0  0  0  0  0  0  0
  -28.3490  -15.1680   20.4140 H   0  0  0  0  0  0  0  0  0  0  0  0
  -26.8360  -18.8840   19.5110 C   0  0  0  0  0  2  0  0  0  0  0  0
  -27.4190  -19.8140   18.5980 O   0  0  0  0  0  0  0  0  0  0  0  0
  -27.6780  -21.1010   19.1540 C   0  0  0  0  0  2  0  0  0  0  0  0
  -27.4320  -22.1740   18.0880 C   0  0  0  0  0  2  0  0  0  0  0  0
  -28.6340  -22.6970   17.5180 O   0  0  0  0  0  0  0  0  0  0  0  0
  -28.3390  -23.8820   16.7820 C   0  0  0  0  0  2  0  0  0  0  0  0
  -29.4190  -24.9820   16.8500 C   0  0  0  0  0  2  0  0  0  0  0  0
  -28.9740  -26.2680   16.3840 O   0  0  0  0  0  0  0  0  0  0  0  0
  -25.2130  -27.9750   22.1870 C   0  0  0  0  0  0  0  0  0  0  0  0
  -27.7790  -26.7020   16.9080 C   0  0  0  0  0  0  0  0  0  0  0  0
  -23.9230  -27.6950   20.0950 C   0  0  0  0  0  3  0  0  0  0  0  0
  -25.3010  -27.5470   17.9560 C   0  0  0  0  0  0  0  0  0  0  0  0
  -26.3710  -28.4320   20.0320 C   0  0  0  0  0  2  0  0  0  0  0  0
  -26.4780  -27.7470   18.6890 C   0  0  0  0  0  0  0  0  0  0  0  0
  -27.7220  -27.3180   18.1740 C   0  0  0  0  0  3  0  0  0  0  0  0
  -26.5920  -26.5630   16.1580 C   0  0  0  0  0  3  0  0  0  0  0  0
  -25.3490  -26.9460   16.6890 C   0  0  0  0  0  3  0  0  0  0  0  0
  -24.0110  -28.0230   18.5820 C   0  0  0  0  0  2  0  0  0  0  0  0
  -25.1930  -28.0130   20.8260 N   0  0  0  0  0  0  0  0  0  0  0  0
  -24.1880  -27.7190   22.8350 O   0  0  0  0  0  0  0  0  0  0  0  0
  -23.4750  -26.2250   20.2570 C   0  0  0  0  0  0  0  0  0  0  0  0
  -22.1850  -25.9600   19.9910 N   0  0  0  0  0  0  0  0  0  0  0  0
  -24.2810  -25.3510   20.5870 O   0  0  0  0  0  0  0  0  0  0  0  0
  -21.5850  -26.7330   19.7450 H   0  0  0  0  0  0  0  0  0  0  0  0
  -19.0710  -24.2140   19.4460 C   0  0  0  0  0  0  0  0  0  0  0  0
  -21.5480  -24.6440   20.0440 C   0  0  0  0  0  3  0  0  0  0  0  0
  -21.8910  -23.8080   18.7890 C   0  0  0  0  0  2  0  0  0  0  0  0
  -20.8540  -23.9450   17.6700 C   0  0  0  0  0  2  0  0  0  0  0  0
  -19.4720  -23.5080   18.1610 C   0  0  0  0  0  2  0  0  0  0  0  0
  -20.0460  -24.7600   20.3220 C   0  0  0  0  0  0  0  0  0  0  0  0
  -19.6190  -25.4360   21.4860 C   0  0  0  0  0  3  0  0  0  0  0  0
  -18.2490  -25.5650   21.7830 C   0  0  0  0  0  3  0  0  0  0  0  0
  -17.2890  -25.0070   20.9210 C   0  0  0  0  0  3  0  0  0  0  0  0
  -17.6990  -24.3310   19.7590 C   0  0  0  0  0  3  0  0  0  0  0  0
  -26.5170  -28.2700   22.9930 C   0  0  0  0  0  3  0  0  0  0  0  0
  -26.1510  -29.1430   24.1150 N   0  0  0  0  0  0  0  0  0  0  0  0
  -26.4120  -30.4560   24.1730 C   0  0  0  0  0  0  0  0  0  0  0  0
  -27.0580  -31.0490   23.3040 O   0  0  0  0  0  0  0  0  0  0  0  0
  -25.5750  -28.7360   24.8380 H   0  0  0  0  0  0  0  0  0  0  0  0
  -24.6200  -32.0280   24.9710 C   0  0  0  0  0  1  0  0  0  0  0  0
  -25.8690  -31.2350   25.3860 C   0  0  0  0  0  3  0  0  0  0  0  0
  -27.9570  -31.4510   26.6590 C   0  0  0  0  0  1  0  0  0  0  0  0
  -26.8620  -32.1500   25.9900 N   0  0  0  0  0  0  0  0  0  0  0  0
  -26.4210  -32.7660   26.6660 H   0  0  0  0  0  0  0  0  0  0  0  0
  -27.2380  -26.9660   23.5080 C   0  0  1  0  0  0  0  0  0  0  0  0
  -26.3070  -26.0050   24.2820 C   0  0  0  0  0  1  0  0  0  0  0  0
  -27.8530  -26.1780   22.3260 C   0  0  0  0  0  1  0  0  0  0  0  0
  -28.4110  -27.3490   24.4410 C   0  0  0  0  0  1  0  0  0  0  0  0
  2  4  2  0
  3  1  1  0
  3  2  1  0
  5  3  1  0
  6  2  1  0
  6  7  1  0
  7  9  1  0
  7  8  1  0
 10  7  1  0
 12 11  1  0
 12  6  1  0
 12 21  1  0
 13 19  1  0
 14 19  1  0
 15 16  1  0
 15 14  1  0
 17 16  1  0
 17 26  1  0
 17 18  1  0
 19 18  1  0
 20 13  2  0
 21 13  1  0
 21 22  1  0
 23 24  2  0
 24 43  1  0
 25 28  1  0
 25 24  1  0
 26 27  1  0
 26 23  1  0
 27 25  2  0
 28 29  1  0
 29 30  2  0
 31 30  1  0
 32 31  2  0
 33 32  1  0
 33 28  2  0
 34 31  1  0
 34 35  1  0
 35 40  2  0
 35 36  1  0
 36 37  2  0
 37 38  1  0
 38 42  1  0
 39 38  2  0
 40 39  1  0
 41 40  1  0
 43 44  1  0
 44 47  1  0
 44 46  1  0
 45 43  2  0
 48 23  1  0
 48 49  1  0
 50 48  1  0
 51  1  1  0
 52 53  1  0
 52 51  1  0
 54 53  1  0
 55 54  1  0
 56 57  1  0
 56 55  1  0
 58 57  1  0
 58 60  1  0
 59 70  2  0
 60 65  1  0
 61 71  1  0
 61 69  1  0
 62 68  1  0
 62 64  1  0
 63 69  1  0
 64 63  1  0
 65 64  2  0
 66 67  1  0
 66 60  2  0
 67 62  2  0
 68 61  1  0
 69 59  1  0
 71 73  2  0
 72 71  1  0
 74 72  1  0
 75 84  2  0
 75 80  1  0
 76 72  1  0
 76 80  1  0
 77 76  1  0
 78 79  1  0
 78 77  1  0
 79 75  1  0
 80 81  2  0
 81 82  1  0
 83 82  2  0
 84 83  1  0
 85 59  1  0
 85 95  1  0
 85 86  1  0
 86 87  1  0
 86 89  1  0
 87 91  1  0
 88 87  2  0
 91 90  1  0
 91 93  1  0
 93 92  1  0
 93 94  1  0
 95 96  1  1
 95 98  1  0
 97 95  1  0
M  ISO  4  13 100  21 100  57 101  58 101
M  END
>  <TORSDO>  (1) 
F 27

>  <SCORE>  (1) 
-7.294

>  <name>  (1) 
0

>  <ligand_id>  (1) 
0

>  <original_smiles>  (1) 
[H]c1c([H])c([H])c2c(c1[H])C([H])([H])C([H])([H])C([H])([H])C2([H])N([H])C(=O)C1([H])N(C(=O)C([H])(N([H])C(=O)C([H])(N([H])C([H])([H])[H])C([H])([H])[H])C(C([H])([H])[H])(C([H])([H])[H])C([H])([H])[H])C([H])([H])c2c([H])c(OC([H])([H])C([H])([H])OC([H])([H])C([H])([H])OC([H])([H])C([H])([H])N([H])C(=O)C([H])(C([H])(N([H])C(=O)N3C([H])([H])C([H])([H])C([H])([H])C([H])(n4nc(-c5c([H])c([H])c(Oc6c([H])c([H])c(F)c([H])c6F)c([H])c5[H])c(C(=O)N([H])[H])c4N([H])[H])C3([H])[H])C([H])([H])[H])[N+]([H])([H])[H])c([H])c([H])c2C1([H])[H]

>  <smiles>  (1) 
[H]c1c([H])c([H])c2c(c1[H])C([H])([H])C([H])([H])C([H])([H])C2([H])N([H])C(=O)C1([H])N(C(=O)C([H])(N([H])C(=O)C([H])(N([H])C([H])([H])[H])C([H])([H])[H])C(C([H])([H])[H])(C([H])([H])[H])C([H])([H])[H])C([H])([H])c2c([H])c(OC([H])([H])C([H])([H])OC([H])([H])C([H])([H])OC([H])([H])C([H])([H])N([H])C(=O)C([H])(C([H])(N([H])C(=O)N3C([H])([H])C([H])([H])C([H])([H])C([H])(n4nc(-c5c([H])c([H])c(Oc6c([H])c([H])c(F)c([H])c6F)c([H])c5[H])c(C(=O)N([H])[H])c4N([H])[H])C3([H])[H])C([H])([H])[H])[N+]([H])([H])[H])c([H])c([H])c2C1([H])[H]

$$$$
1:0:0
     RDKit          3D

 96103  0  0  1  0  0  0  0  0999 V2000
  -32.5280  -24.1030   21.2820 C   0  0  0  0  0  0  0  0  0  0  0  0
  -32.2750  -25.3990   21.0500 N   0  0  0  0  0  0  0  0  0  0  0  0
  -33.4120  -23.4830   20.6870 O   0  0  0  0  0  0  0  0  0  0  0  0
  -31.5320  -25.8320   21.5830 H   0  0  0  0  0  0  0  0  0  0  0  0
  -32.9700  -26.2370   20.0710 C   0  0  0  0  0  2  0  0  0  0  0  0
  -32.0120  -27.2350   19.4040 C   0  0  0  0  0  2  0  0  0  0  0  0
  -30.9370  -26.5150   18.8190 O   0  0  0  0  0  0  0  0  0  0  0  0
  -30.0850  -27.3320   18.0270 C   0  0  0  0  0  2  0  0  0  0  0  0
  -28.7280  -26.6300   17.9000 C   0  0  0  0  0  2  0  0  0  0  0  0
  -28.1770  -26.5380   19.2100 O   0  0  0  0  0  0  0  0  0  0  0  0
  -25.0140  -31.5750   23.1090 C   0  0  0  0  0  0  0  0  0  0  0  0
  -27.0690  -27.3150   19.4120 C   0  0  0  0  0  0  0  0  0  0  0  0
  -23.5740  -30.4140   21.4600 C   0  0  0  0  0  3  0  0  0  0  0  0
  -24.7910  -28.9240   19.7880 C   0  0  0  0  0  0  0  0  0  0  0  0
  -26.0920  -30.6300   21.0760 C   0  0  0  0  0  2  0  0  0  0  0  0
  -26.0240  -29.3220   20.3190 C   0  0  0  0  0  0  0  0  0  0  0  0
  -27.1670  -28.5140   20.1440 C   0  0  0  0  0  3  0  0  0  0  0  0
  -25.8220  -26.9150   18.8860 C   0  0  0  0  0  3  0  0  0  0  0  0
  -24.6810  -27.7150   19.0750 C   0  0  0  0  0  3  0  0  0  0  0  0
  -23.6190  -29.8490   20.0150 C   0  0  0  0  0  2  0  0  0  0  0  0
  -24.9170  -30.8810   21.9390 N   0  0  0  0  0  0  0  0  0  0  0  0
  -24.0040  -31.8650   23.7640 O   0  0  0  0  0  0  0  0  0  0  0  0
  -22.9330  -29.3520   22.3830 C   0  0  0  0  0  0  0  0  0  0  0  0
  -21.5980  -29.2290   22.3100 N   0  0  0  0  0  0  0  0  0  0  0  0
  -23.6290  -28.6440   23.1150 O   0  0  0  0  0  0  0  0  0  0  0  0
  -21.0980  -29.8530   21.6900 H   0  0  0  0  0  0  0  0  0  0  0  0
  -18.2080  -28.1080   22.8530 C   0  0  0  0  0  0  0  0  0  0  0  0
  -20.7790  -28.2710   23.0520 C   0  0  0  0  0  3  0  0  0  0  0  0
  -20.8180  -26.8750   22.3890 C   0  0  0  0  0  2  0  0  0  0  0  0
  -19.6730  -26.6470   21.3960 C   0  0  0  0  0  2  0  0  0  0  0  0
  -18.3180  -26.7960   22.0940 C   0  0  0  0  0  2  0  0  0  0  0  0
  -19.3640  -28.8080   23.2880 C   0  0  0  0  0  0  0  0  0  0  0  0
  -19.2070  -30.0410   23.9570 C   0  0  0  0  0  3  0  0  0  0  0  0
  -17.9250  -30.5730   24.1940 C   0  0  0  0  0  3  0  0  0  0  0  0
  -16.7840  -29.8670   23.7800 C   0  0  0  0  0  3  0  0  0  0  0  0
  -16.9260  -28.6350   23.1150 C   0  0  0  0  0  3  0  0  0  0  0  0
  -26.3910  -32.0530   23.6660 C   0  0  0  0  0  3  0  0  0  0  0  0
  -26.2350  -33.4520   24.0870 N   0  0  0  0  0  0  0  0  0  0  0  0
  -26.6250  -34.5110   23.3660 C   0  0  0  0  0  0  0  0  0  0  0  0
  -27.2290  -34.4040   22.2940 O   0  0  0  0  0  0  0  0  0  0  0  0
  -25.7060  -33.6120   24.9330 H   0  0  0  0  0  0  0  0  0  0  0  0
  -25.0550  -36.4670   23.1930 C   0  0  0  0  0  1  0  0  0  0  0  0
  -26.2900  -35.9090   23.9190 C   0  0  0  0  0  3  0  0  0  0  0  0
  -28.5350  -36.5460   24.6850 C   0  0  0  0  0  1  0  0  0  0  0  0
  -27.4110  -36.8700   23.8100 N   0  0  0  0  0  0  0  0  0  0  0  0
  -27.1010  -37.8110   24.0300 H   0  0  0  0  0  0  0  0  0  0  0  0
  -26.9250  -31.1650   24.8570 C   0  0  1  0  0  0  0  0  0  0  0  0
  -25.8910  -30.9510   25.9860 C   0  0  0  0  0  1  0  0  0  0  0  0
  -27.3590  -29.7720   24.3460 C   0  0  0  0  0  1  0  0  0  0  0  0
  -28.1830  -31.8200   25.4780 C   0  0  0  0  0  1  0  0  0  0  0  0
  -31.6600  -23.3890   22.3260 C   0  0  0  0  0  2  0  0  0  0  0  0
  -31.3360  -22.0810   21.8570 O   0  0  0  0  0  0  0  0  0  0  0  0
  -30.5710  -21.3300   22.7960 C   0  0  0  0  0  2  0  0  0  0  0  0
  -30.2200  -19.9620   22.1910 C   0  0  0  0  0  2  0  0  0  0  0  0
  -31.2750  -19.0210   22.3970 O   0  0  0  0  0  0  0  0  0  0  0  0
  -31.4070  -18.0990   21.3220 C   0  0  0  0  0  2  0  0  0  0  0  0
  -31.8360  -16.7010   21.8080 C   0  0  0  0  0  2  0  0  0  0  0  0
  -31.8990  -15.7110   20.6260 C   0  0  0  0  0  2  0  0  0  0  0  0
  -32.1600  -13.2390   20.3700 C   0  0  0  0  0  0  0  0  0  0  0  0
  -31.5200  -11.0250   19.4780 C   0  0  0  0  0  2  0  0  0  0  0  0
  -30.6080  -11.2160   18.2470 C   0  0  0  0  0  2  0  0  0  0  0  0
  -29.1340  -11.3940   18.6650 C   0  0  0  0  0  2  0  0  0  0  0  0
  -28.9620  -12.4500   19.7890 C   0  0  0  0  0  3  0  0  0  0  0  0
  -29.9550  -12.1650   20.9390 C   0  0  0  0  0  2  0  0  0  0  0  0
  -31.3210  -12.1690   20.3790 N   0  0  0  0  0  0  0  0  0  0  0  0
  -33.2280  -13.2630   19.7480 O   0  0  0  0  0  0  0  0  0  0  0  0
  -31.6710  -14.3160   21.0060 N   0  0  0  0  0  0  0  0  0  0  0  0
  -30.8310  -14.1360   21.5360 H   0  0  0  0  0  0  0  0  0  0  0  0
  -26.8030  -13.6050   20.5910 C   0  0  0  0  0  0  0  0  0  0  0  0
  -25.5720  -13.1080   20.9290 C   0  0  0  0  0  0  0  0  0  0  0  0
  -25.6660  -11.6910   20.7840 C   0  0  0  0  0  0  0  0  0  0  0  0
  -27.5820  -12.5050   20.2690 N   0  0  0  0  0  0  0  0  0  0  0  0
  -26.8990  -11.3450   20.4350 N   0  0  0  0  0  0  0  0  0  0  0  0
  -24.6420  -10.6460   20.8970 C   0  0  0  0  0  0  0  0  0  0  0  0
  -24.8280   -9.5190   21.7300 C   0  0  0  0  0  3  0  0  0  0  0  0
  -23.8230   -8.5330   21.8360 C   0  0  0  0  0  3  0  0  0  0  0  0
  -22.6140   -8.6710   21.1110 C   0  0  0  0  0  0  0  0  0  0  0  0
  -22.4440   -9.7830   20.2680 C   0  0  0  0  0  3  0  0  0  0  0  0
  -23.4480  -10.7600   20.1590 C   0  0  0  0  0  3  0  0  0  0  0  0
  -21.5920   -7.7540   21.1340 O   0  0  0  0  0  0  0  0  0  0  0  0
  -21.3840   -6.9360   22.2150 C   0  0  0  0  0  0  0  0  0  0  0  0
  -21.1230   -7.4530   23.5030 C   0  0  0  0  0  3  0  0  0  0  0  0
  -20.8480   -6.5760   24.5710 C   0  0  0  0  0  3  0  0  0  0  0  0
  -20.8200   -5.1850   24.3520 C   0  0  0  0  0  0  0  0  0  0  0  0
  -21.0710   -4.6690   23.0680 C   0  0  0  0  0  3  0  0  0  0  0  0
  -21.3500   -5.5430   22.0020 C   0  0  0  0  0  0  0  0  0  0  0  0
  -21.5720   -5.0410   20.7640 F   0  0  0  0  0  0  0  0  0  0  0  0
  -20.5460   -4.3430   25.3740 F   0  0  0  0  0  0  0  0  0  0  0  0
  -24.3470  -13.9030   21.2780 C   0  0  0  0  0  0  0  0  0  0  0  0
  -23.4800  -13.3590   22.1290 N   0  0  0  0  0  0  0  0  0  0  0  0
  -24.1710  -15.0360   20.8330 O   0  0  0  0  0  0  0  0  0  0  0  0
  -23.6300  -12.4370   22.5100 H   0  0  0  0  0  0  0  0  0  0  0  0
  -22.6550  -13.8750   22.3980 H   0  0  0  0  0  0  0  0  0  0  0  0
  -27.3180  -14.8960   20.5140 N   0  0  0  0  0  0  0  0  0  0  0  0
  -26.7590  -15.7230   20.6880 H   0  0  0  0  0  0  0  0  0  0  0  0
  -28.2610  -15.1140   20.2150 H   0  0  0  0  0  0  0  0  0  0  0  0
  1 51  1  0
  2  1  1  0
  2  4  1  0
  3  1  2  0
  5  2  1  0
  6  5  1  0
  7  6  1  0
  8  7  1  0
  9  8  1  0
  9 10  1  0
 10 12  1  0
 11 22  2  0
 12 17  1  0
 13 21  1  0
 13 23  1  0
 14 20  1  0
 14 16  1  0
 15 21  1  0
 16 15  1  0
 17 16  2  0
 18 19  1  0
 18 12  2  0
 19 14  2  0
 20 13  1  0
 21 11  1  0
 23 25  2  0
 24 23  1  0
 26 24  1  0
 27 36  2  0
 27 32  1  0
 28 24  1  0
 28 32  1  0
 29 28  1  0
 30 31  1  0
 30 29  1  0
 31 27  1  0
 32 33  2  0
 33 34  1  0
 35 34  2  0
 36 35  1  0
 37 11  1  0
 37 38  1  0
 37 47  1  0
 38 41  1  0
 39 43  1  0
 39 38  1  0
 40 39  2  0
 43 42  1  0
 45 43  1  0
 45 46  1  0
 45 44  1  0
 47 50  1  1
 47 48  1  0
 49 47  1  0
 52 51  1  0
 52 53  1  0
 54 55  1  0
 54 53  1  0
 56 57  1  0
 56 55  1  0
 58 67  1  0
 58 57  1  0
 59 65  1  0
 59 67  1  0
 60 65  1  0
 61 62  1  0
 61 60  1  0
 63 62  1  0
 63 72  1  0
 63 64  1  0
 65 64  1  0
 66 59  2  0
 67 68  1  0
 69 70  2  0
 70 89  1  0
 71 74  1  0
 71 70  1  0
 72 73  1  0
 72 69  1  0
 73 71  2  0
 74 75  1  0
 75 76  2  0
 77 80  1  0
 77 76  1  0
 78 77  2  0
 79 78  1  0
 79 74  2  0
 80 81  1  0
 81 82  1  0
 82 83  2  0
 84 83  1  0
 84 88  1  0
 85 84  2  0
 86 81  2  0
 86 85  1  0
 87 86  1  0
 89 90  1  0
 90 93  1  0
 90 92  1  0
 91 89  2  0
 94 69  1  0
 94 95  1  0
 96 94  1  0
M  ISO  4   9 101  10 101  59 100  67 100
M  END
>  <TORSDO>  (2) 
F 29

>  <SCORE>  (2) 
-5.953

>  <name>  (2) 
1

>  <ligand_id>  (2) 
1

>  <original_smiles>  (2) 
[H]c1c([H])c([H])c2c(c1[H])C([H])([H])C([H])([H])C([H])([H])C2([H])N([H])C(=O)C1([H])N(C(=O)C([H])(N([H])C(=O)C([H])(N([H])C([H])([H])[H])C([H])([H])[H])C(C([H])([H])[H])(C([H])([H])[H])C([H])([H])[H])C([H])([H])c2c([H])c(OC([H])([H])C([H])([H])OC([H])([H])C([H])([H])N([H])C(=O)C([H])([H])OC([H])([H])C([H])([H])OC([H])([H])C([H])([H])C([H])([H])N([H])C(=O)N3C([H])([H])C([H])([H])C([H])([H])C([H])(n4nc(-c5c([H])c([H])c(Oc6c([H])c([H])c(F)c([H])c6F)c([H])c5[H])c(C(=O)N([H])[H])c4N([H])[H])C3([H])[H])c([H])c([H])c2C1([H])[H]

>  <smiles>  (2) 
[H]c1c([H])c([H])c2c(c1[H])C([H])([H])C([H])([H])C([H])([H])C2([H])N([H])C(=O)C1([H])N(C(=O)C([H])(N([H])C(=O)C([H])(N([H])C([H])([H])[H])C([H])([H])[H])C(C([H])([H])[H])(C([H])([H])[H])C([H])([H])[H])C([H])([H])c2c([H])c(OC([H])([H])C([H])([H])OC([H])([H])C([H])([H])N([H])C(=O)C([H])([H])OC([H])([H])C([H])([H])OC([H])([H])C([H])([H])C([H])([H])N([H])C(=O)N3C([H])([H])C([H])([H])C([H])([H])C([H])(n4nc(-c5c([H])c([H])c(Oc6c([H])c([H])c(F)c([H])c6F)c([H])c5[H])c(C(=O)N([H])[H])c4N([H])[H])C3([H])[H])c([H])c([H])c2C1([H])[H]

$$$$
2:0:0
     RDKit          3D

101108  0  0  1  0  0  0  0  0999 V2000
  -24.6820  -15.4720   23.4730 C   0  0  0  0  0  2  0  0  0  0  0  0
  -24.4320  -16.8990   22.8550 N   0  0  0  0  0  4  0  0  0  0  0  0
  -23.6250  -17.2850   23.3200 H   0  0  0  0  0  0  0  0  0  0  0  0
  -24.1550  -16.7280   21.9000 H   0  0  0  0  0  0  0  0  0  0  0  0
  -25.5450  -18.0200   22.8340 C   0  0  0  0  0  3  0  0  0  0  0  0
  -25.3440  -19.5070   22.1000 C   0  0  0  0  0  3  0  0  0  0  0  0
  -26.4160  -20.6080   22.0860 O   0  0  0  0  0  0  0  0  0  0  0  0
  -26.2350  -21.9650   21.4020 C   0  0  0  0  0  3  0  0  0  0  0  0
  -27.3450  -23.2200   21.3930 C   0  0  0  0  0  3  0  0  0  0  0  0
  -27.0540  -24.6660   20.6200 C   0  0  0  0  0  2  0  0  0  0  0  0
  -27.8540  -26.0050   20.5080 O   0  0  0  0  0  0  0  0  0  0  0  0
  -24.6340  -31.8590   23.2060 C   0  0  0  0  0  0  0  0  0  0  0  0
  -27.0560  -27.1450   20.2180 C   0  0  0  0  0  0  0  0  0  0  0  0
  -23.4300  -30.4940   21.5490 C   0  0  0  0  0  3  0  0  0  0  0  0
  -24.8600  -28.9700   20.0820 C   0  0  0  0  0  0  0  0  0  0  0  0
  -25.9850  -30.7410   21.4120 C   0  0  0  0  0  2  0  0  0  0  0  0
  -26.0320  -29.3640   20.7430 C   0  0  0  0  0  0  0  0  0  0  0  0
  -27.1440  -28.4550   20.8130 C   0  0  0  0  0  3  0  0  0  0  0  0
  -25.9400  -26.9130   19.3930 C   0  0  0  0  0  3  0  0  0  0  0  0
  -24.8320  -27.7630   19.3830 C   0  0  0  0  0  3  0  0  0  0  0  0
  -23.6460  -29.8700   20.1490 C   0  0  0  0  0  2  0  0  0  0  0  0
  -24.7010  -31.0520   22.1090 N   0  0  0  0  0  0  0  0  0  0  0  0
  -23.5480  -32.1440   23.7310 O   0  0  0  0  0  0  0  0  0  0  0  0
  -22.7500  -29.4630   22.4840 C   0  0  0  0  0  0  0  0  0  0  0  0
  -21.4200  -29.3060   22.3570 N   0  0  0  0  0  0  0  0  0  0  0  0
  -23.4190  -28.8160   23.2920 O   0  0  0  0  0  0  0  0  0  0  0  0
  -20.9340  -29.8800   21.6830 H   0  0  0  0  0  0  0  0  0  0  0  0
  -18.0280  -28.1400   22.8450 C   0  0  0  0  0  0  0  0  0  0  0  0
  -20.5900  -28.3710   23.1220 C   0  0  0  0  0  3  0  0  0  0  0  0
  -20.6790  -26.9420   22.5380 C   0  0  0  0  0  2  0  0  0  0  0  0
  -19.5770  -26.6380   21.5200 C   0  0  0  0  0  2  0  0  0  0  0  0
  -18.1940  -26.7940   22.1600 C   0  0  0  0  0  2  0  0  0  0  0  0
  -19.1550  -28.8860   23.2840 C   0  0  0  0  0  0  0  0  0  0  0  0
  -18.9470  -30.1450   23.8880 C   0  0  0  0  0  3  0  0  0  0  0  0
  -17.6480  -30.6590   24.0540 C   0  0  0  0  0  3  0  0  0  0  0  0
  -16.5360  -29.9090   23.6330 C   0  0  0  0  0  3  0  0  0  0  0  0
  -16.7270  -28.6510   23.0350 C   0  0  0  0  0  3  0  0  0  0  0  0
  -25.9170  -32.4760   23.8390 C   0  0  0  0  0  3  0  0  0  0  0  0
  -25.5960  -33.8570   24.2300 N   0  0  0  0  0  0  0  0  0  0  0  0
  -25.9070  -34.9440   23.5120 C   0  0  0  0  0  0  0  0  0  0  0  0
  -26.5610  -34.8920   22.4680 O   0  0  0  0  0  0  0  0  0  0  0  0
  -25.0150  -33.9740   25.0470 H   0  0  0  0  0  0  0  0  0  0  0  0
  -24.1480  -36.7250   23.2630 C   0  0  0  0  0  1  0  0  0  0  0  0
  -25.4120  -36.3080   24.0340 C   0  0  0  0  0  3  0  0  0  0  0  0
  -27.5600  -37.1800   24.8470 C   0  0  0  0  0  1  0  0  0  0  0  0
  -26.4310  -37.3770   23.9410 N   0  0  0  0  0  0  0  0  0  0  0  0
  -26.0200  -38.2860   24.1380 H   0  0  0  0  0  0  0  0  0  0  0  0
  -26.4520  -31.6590   25.0790 C   0  0  1  0  0  0  0  0  0  0  0  0
  -25.3690  -31.3770   26.1460 C   0  0  0  0  0  1  0  0  0  0  0  0
  -27.0400  -30.3000   24.6340 C   0  0  0  0  0  1  0  0  0  0  0  0
  -27.6100  -32.4310   25.7550 C   0  0  0  0  0  1  0  0  0  0  0  0
  -23.4680  -14.3870   23.8740 C   0  0  0  0  0  2  0  0  0  0  0  0
  -23.3260  -12.7220   23.5180 C   0  0  0  0  0  2  0  0  0  0  0  0
  -22.2790  -11.8260   22.7070 O   0  0  0  0  0  0  0  0  0  0  0  0
  -21.5940  -11.5310   21.2710 C   0  0  0  0  0  2  0  0  0  0  0  0
  -21.9600  -11.8070   19.5700 C   0  0  0  0  0  2  0  0  0  0  0  0
  -23.3410  -12.0150   18.8200 O   0  0  0  0  0  0  0  0  0  0  0  0
  -24.5250  -11.2230   18.1410 C   0  0  0  0  0  2  0  0  0  0  0  0
  -25.7280  -10.1150   18.6440 C   0  0  0  0  0  2  0  0  0  0  0  0
  -27.1680  -10.3640   19.0600 O   0  0  0  0  0  0  0  0  0  0  0  0
  -27.9050   -9.7840   20.2320 C   0  0  0  0  0  2  0  0  0  0  0  0
  -29.5170  -10.0180   20.4830 C   0  0  0  0  0  2  0  0  0  0  0  0
  -30.3080  -10.8800   21.6680 C   0  0  0  0  0  2  0  0  0  0  0  0
  -31.0000  -13.3830   20.9190 C   0  0  0  0  0  0  0  0  0  0  0  0
  -30.3480  -12.6340   18.9230 C   0  0  0  0  0  2  0  0  0  0  0  0
  -29.2690  -12.6140   17.8900 C   0  0  0  0  0  3  0  0  0  0  0  0
  -27.8430  -12.8780   18.3680 C   0  0  0  0  0  3  0  0  0  0  0  0
  -27.5940  -13.3620   19.8170 C   0  0  0  0  0  3  0  0  0  0  0  0
  -28.6440  -13.1240   20.8390 C   0  0  0  0  0  2  0  0  0  0  0  0
  -29.9470  -13.2360   20.1970 N   0  0  0  0  0  0  0  0  0  0  0  0
  -31.8310  -14.2830   20.6690 O   0  0  0  0  0  0  0  0  0  0  0  0
  -31.2240  -12.1280   21.4700 N   0  0  0  0  0  0  0  0  0  0  0  0
  -32.1560  -12.0210   21.8470 H   0  0  0  0  0  0  0  0  0  0  0  0
  -25.2710  -13.9390   20.5310 C   0  0  0  0  0  3  0  0  0  0  0  0
  -24.1770  -13.2460   20.9240 C   0  0  0  0  0  0  0  0  0  0  0  0
  -24.6190  -11.8050   21.0170 C   0  0  0  0  0  0  0  0  0  0  0  0
  -26.2810  -13.0570   20.3620 N   0  0  0  0  0  0  0  0  0  0  0  0
  -25.9290  -11.8410   20.8380 N   0  0  0  0  0  2  0  0  0  0  0  0
  -24.0450  -10.3480   21.1250 C   0  0  0  0  0  0  0  0  0  0  0  0
  -24.3340   -9.4690   22.1900 C   0  0  0  0  0  3  0  0  0  0  0  0
  -23.6200   -8.2420   22.3530 C   0  0  0  0  0  3  0  0  0  0  0  0
  -22.5400   -7.9040   21.4910 C   0  0  0  0  0  0  0  0  0  0  0  0
  -22.3510   -8.6390   20.3650 C   0  0  0  0  0  3  0  0  0  0  0  0
  -23.2330   -9.6620   20.1520 C   0  0  0  0  0  3  0  0  0  0  0  0
  -21.6950   -6.8420   21.5310 O   0  0  0  0  0  0  0  0  0  0  0  0
  -21.6920   -6.0210   22.6010 C   0  0  0  0  0  0  0  0  0  0  0  0
  -21.3980   -6.5180   23.8790 C   0  0  0  0  0  3  0  0  0  0  0  0
  -21.3600   -5.6330   24.9670 C   0  0  0  0  0  3  0  0  0  0  0  0
  -21.6020   -4.2620   24.7610 C   0  0  0  0  0  0  0  0  0  0  0  0
  -21.8810   -3.7680   23.4730 C   0  0  0  0  0  3  0  0  0  0  0  0
  -21.9210   -4.6520   22.3820 C   0  0  0  0  0  0  0  0  0  0  0  0
  -22.1660   -4.1900   21.1320 F   0  0  0  0  0  0  0  0  0  0  0  0
  -21.5580   -3.4110   25.8100 F   0  0  0  0  0  0  0  0  0  0  0  0
  -22.8520  -14.0680   20.9130 C   0  0  0  0  0  0  0  0  0  0  0  0
  -21.8260  -14.0100   21.7350 N   0  0  0  0  0  0  0  0  0  0  0  0
  -22.6590  -14.9350   20.0940 O   0  0  0  0  0  0  0  0  0  0  0  0
  -21.8030  -13.2330   22.4000 H   0  0  0  0  0  0  0  0  0  0  0  0
  -21.0350  -14.6290   21.6330 H   0  0  0  0  0  0  0  0  0  0  0  0
  -25.4690  -15.2960   20.2780 N   0  0  0  0  0  0  0  0  0  0  0  0
  -24.6380  -15.7460   19.9030 H   0  0  0  0  0  0  0  0  0  0  0  0
  -26.2820  -15.5490   19.7320 H   0  0  0  0  0  0  0  0  0  0  0  0
  1 52  1  0
  2  3  1  0
  2  1  1  0
  4  2  1  0
  5  2  1  0
  6  5  2  0
  7  6  1  0
  8  7  1  0
  9  8  2  0
 10  9  1  0
 11 10  1  0
 12 23  2  0
 13 11  1  0
 13 18  1  0
 14 22  1  0
 14 24  1  0
 15 21  1  0
 15 17  1  0
 16 22  1  0
 17 18  2  0
 17 16  1  0
 19 13  2  0
 20 19  1  0
 20 15  2  0
 21 14  1  0
 22 12  1  0
 24 26  2  0
 25 24  1  0
 27 25  1  0
 28 37  2  0
 28 33  1  0
 29 25  1  0
 29 33  1  0
 30 29  1  0
 31 32  1  0
 31 30  1  0
 32 28  1  0
 33 34  2  0
 34 35  1  0
 36 35  2  0
 37 36  1  0
 38 12  1  0
 38 39  1  0
 38 48  1  0
 39 42  1  0
 40 44  1  0
 40 39  1  0
 41 40  2  0
 44 43  1  0
 46 44  1  0
 46 47  1  0
 46 45  1  0
 48 51  1  1
 48 49  1  0
 50 48  1  0
 53 52  1  0
 54 53  1  0
 55 54  1  0
 56 55  1  0
 57 56  1  0
 58 59  1  0
 58 57  1  0
 59 60  1  0
 60 61  1  0
 61 62  1  0
 62 63  1  0
 64 72  1  0
 65 70  1  0
 66 67  2  0
 66 65  1  0
 68 67  1  0
 68 77  1  0
 68 69  1  0
 70 69  1  0
 70 64  1  0
 71 64  2  0
 72 63  1  0
 72 73  1  0
 74 99  1  0
 74 75  1  0
 75 76  2  0
 76 79  1  0
 77 74  1  0
 77 78  1  0
 78 76  1  0
 79 80  1  0
 80 81  2  0
 82 85  1  0
 82 81  1  0
 83 82  2  0
 84 83  1  0
 84 79  2  0
 85 86  1  0
 86 87  1  0
 87 88  2  0
 89 88  1  0
 89 93  1  0
 90 89  2  0
 91 86  2  0
 91 90  1  0
 92 91  1  0
 94 75  1  0
 94 95  1  0
 95 97  1  0
 96 94  2  0
 98 95  1  0
100 99  1  0
101 99  1  0
M  ISO  4  10 101  11 101  64 100  72 100
M  END
>  <TORSDO>  (3) 
F 35

>  <SCORE>  (3) 
28.435

>  <name>  (3) 
2

>  <ligand_id>  (3) 
2

>  <original_smiles>  (3) 
[H]c1c([H])c([H])c2c(c1[H])C([H])([H])C([H])([H])C([H])([H])C2([H])N([H])C(=O)C1([H])N(C(=O)C([H])(N([H])C(=O)C([H])(N([H])C([H])([H])[H])C([H])([H])[H])C(C([H])([H])[H])(C([H])([H])[H])C([H])([H])[H])C([H])([H])c2c([H])c(OC([H])([H])C([H])([H])C([H])([H])OC([H])([H])C([H])([H])[N+]([H])([H])C([H])([H])C([H])([H])C([H])([H])OC([H])([H])C([H])([H])OC([H])([H])C([H])([H])OC([H])([H])C([H])([H])C([H])([H])N([H])C(=O)N3C([H])([H])C([H])([H])C([H])([H])C([H])(n4nc(-c5c([H])c([H])c(Oc6c([H])c([H])c(F)c([H])c6F)c([H])c5[H])c(C(=O)N([H])[H])c4N([H])[H])C3([H])[H])c([H])c([H])c2C1([H])[H]

>  <smiles>  (3) 
[H]c1c([H])c([H])c2c(c1[H])C([H])([H])C([H])([H])C([H])([H])C2([H])N([H])C(=O)C1([H])N(C(=O)C([H])(N([H])C(=O)C([H])(N([H])C([H])([H])[H])C([H])([H])[H])C(C([H])([H])[H])(C([H])([H])[H])C([H])([H])[H])C([H])([H])c2c([H])c(OC([H])([H])C([H])([H])C([H])([H])OC([H])([H])C([H])([H])[N+]([H])([H])C([H])([H])C([H])([H])C([H])([H])OC([H])([H])C([H])([H])OC([H])([H])C([H])([H])OC([H])([H])C([H])([H])C([H])([H])N([H])C(=O)N3C([H])([H])C([H])([H])C([H])([H])C([H])(n4nc(-c5c([H])c([H])c(Oc6c([H])c([H])c(F)c([H])c6F)c([H])c5[H])c(C(=O)N([H])[H])c4N([H])[H])C3([H])[H])c([H])c([H])c2C1([H])[H]

$$$$
3:0:0
     RDKit          3D

 96103  0  0  1  0  0  0  0  0999 V2000
  -30.2460  -21.5590   16.6300 C   0  0  0  0  0  2  0  0  0  0  0  0
  -29.3550  -21.1390   17.6620 O   0  0  0  0  0  0  0  0  0  0  0  0
  -29.1020  -19.7370   17.5920 C   0  0  0  0  0  2  0  0  0  0  0  0
  -28.1330  -19.2680   18.6940 C   0  0  0  0  0  2  0  0  0  0  0  0
  -29.3550  -17.4860   19.9020 C   0  0  0  0  0  0  0  0  0  0  0  0
  -28.8130  -18.7100   19.8620 N   0  0  0  0  0  0  0  0  0  0  0  0
  -29.4000  -16.7620   18.9050 O   0  0  0  0  0  0  0  0  0  0  0  0
  -28.8040  -19.2610   20.7130 H   0  0  0  0  0  0  0  0  0  0  0  0
  -31.3010  -17.5560   21.6010 C   0  0  0  0  0  1  0  0  0  0  0  0
  -29.9110  -16.9910   21.2520 C   0  0  0  0  0  3  0  0  0  0  0  0
  -30.5790  -14.5900   20.7530 C   0  0  0  0  0  0  0  0  0  0  0  0
  -30.3810  -12.4330   19.5820 C   0  0  0  0  0  2  0  0  0  0  0  0
  -29.4780  -12.6360   18.3480 C   0  0  0  0  0  2  0  0  0  0  0  0
  -27.9900  -12.4710   18.7190 C   0  0  0  0  0  2  0  0  0  0  0  0
  -27.5950  -13.2940   19.9760 C   0  0  0  0  0  3  0  0  0  0  0  0
  -28.6090  -13.0620   21.1180 C   0  0  0  0  0  2  0  0  0  0  0  0
  -29.9550  -13.3930   20.6090 N   0  0  0  0  0  0  0  0  0  0  0  0
  -31.6850  -14.8380   20.2610 O   0  0  0  0  0  0  0  0  0  0  0  0
  -29.8190  -15.5250   21.3410 N   0  0  0  0  0  0  0  0  0  0  0  0
  -28.9360  -15.1780   21.6840 H   0  0  0  0  0  0  0  0  0  0  0  0
  -25.1590  -13.8640   20.5900 C   0  0  0  0  0  0  0  0  0  0  0  0
  -24.0950  -13.0750   20.9340 C   0  0  0  0  0  0  0  0  0  0  0  0
  -24.5810  -11.7310   20.9300 C   0  0  0  0  0  0  0  0  0  0  0  0
  -26.2280  -13.0020   20.4030 N   0  0  0  0  0  0  0  0  0  0  0  0
  -25.8820  -11.7150   20.6650 N   0  0  0  0  0  0  0  0  0  0  0  0
  -23.8750  -10.4570   21.1100 C   0  0  0  0  0  0  0  0  0  0  0  0
  -24.3150   -9.4970   22.0470 C   0  0  0  0  0  3  0  0  0  0  0  0
  -23.6090   -8.2860   22.2150 C   0  0  0  0  0  3  0  0  0  0  0  0
  -22.4500   -8.0280   21.4460 C   0  0  0  0  0  0  0  0  0  0  0  0
  -22.0320   -8.9760   20.4960 C   0  0  0  0  0  3  0  0  0  0  0  0
  -22.7380  -10.1780   20.3260 C   0  0  0  0  0  3  0  0  0  0  0  0
  -21.7180   -6.8670   21.5200 O   0  0  0  0  0  0  0  0  0  0  0  0
  -21.6800   -6.1100   22.6630 C   0  0  0  0  0  0  0  0  0  0  0  0
  -21.2580   -6.6470   23.8990 C   0  0  0  0  0  3  0  0  0  0  0  0
  -21.1720   -5.8160   25.0350 C   0  0  0  0  0  3  0  0  0  0  0  0
  -21.4960   -4.4500   24.9350 C   0  0  0  0  0  0  0  0  0  0  0  0
  -21.9120   -3.9120   23.7050 C   0  0  0  0  0  3  0  0  0  0  0  0
  -22.0010   -4.7410   22.5710 C   0  0  0  0  0  0  0  0  0  0  0  0
  -22.3800   -4.2140   21.3820 F   0  0  0  0  0  0  0  0  0  0  0  0
  -21.4050   -3.6500   26.0230 F   0  0  0  0  0  0  0  0  0  0  0  0
  -22.6800  -13.5240   21.1550 C   0  0  0  0  0  0  0  0  0  0  0  0
  -21.9360  -12.8220   22.0030 N   0  0  0  0  0  0  0  0  0  0  0  0
  -22.2380  -14.5330   20.6100 O   0  0  0  0  0  0  0  0  0  0  0  0
  -22.3000  -12.0020   22.4640 H   0  0  0  0  0  0  0  0  0  0  0  0
  -20.9860  -13.1070   22.1910 H   0  0  0  0  0  0  0  0  0  0  0  0
  -25.3040  -15.2370   20.4040 N   0  0  0  0  0  0  0  0  0  0  0  0
  -24.5210  -15.8790   20.4810 H   0  0  0  0  0  0  0  0  0  0  0  0
  -26.1570  -15.6870   20.0990 H   0  0  0  0  0  0  0  0  0  0  0  0
  -30.1590  -23.0680   16.3580 C   0  0  0  0  0  2  0  0  0  0  0  0
  -30.9010  -23.8310   17.3050 O   0  0  0  0  0  0  0  0  0  0  0  0
  -31.1200  -25.1560   16.8280 C   0  0  0  0  0  2  0  0  0  0  0  0
  -31.8870  -26.0210   17.8420 C   0  0  0  0  0  2  0  0  0  0  0  0
  -30.9870  -26.8080   18.6100 O   0  0  0  0  0  0  0  0  0  0  0  0
  -30.7260  -26.3020   19.9120 C   0  0  0  0  0  2  0  0  0  0  0  0
  -29.6130  -27.1520   20.5420 C   0  0  0  0  0  2  0  0  0  0  0  0
  -28.3770  -26.6820   20.0190 O   0  0  0  0  0  0  0  0  0  0  0  0
  -24.5690  -31.8640   23.1980 C   0  0  0  0  0  0  0  0  0  0  0  0
  -27.2470  -27.4610   20.1150 C   0  0  0  0  0  0  0  0  0  0  0  0
  -23.3670  -30.4600   21.5520 C   0  0  0  0  0  3  0  0  0  0  0  0
  -24.8290  -28.9260   20.1350 C   0  0  0  0  0  0  0  0  0  0  0  0
  -25.8860  -30.8340   21.3550 C   0  0  0  0  0  2  0  0  0  0  0  0
  -25.9800  -29.4610   20.7260 C   0  0  0  0  0  0  0  0  0  0  0  0
  -27.1890  -28.7360   20.7280 C   0  0  0  0  0  3  0  0  0  0  0  0
  -26.0780  -26.9300   19.5350 C   0  0  0  0  0  3  0  0  0  0  0  0
  -24.8690  -27.6530   19.5410 C   0  0  0  0  0  3  0  0  0  0  0  0
  -23.5790  -29.7760   20.1750 C   0  0  0  0  0  2  0  0  0  0  0  0
  -24.6250  -31.0670   22.0950 N   0  0  0  0  0  0  0  0  0  0  0  0
  -23.4870  -32.1350   23.7380 O   0  0  0  0  0  0  0  0  0  0  0  0
  -22.7180  -29.4370   22.5120 C   0  0  0  0  0  0  0  0  0  0  0  0
  -21.3910  -29.2660   22.3920 N   0  0  0  0  0  0  0  0  0  0  0  0
  -23.4030  -28.8030   23.3190 O   0  0  0  0  0  0  0  0  0  0  0  0
  -20.9010  -29.8300   21.7100 H   0  0  0  0  0  0  0  0  0  0  0  0
  -18.0090  -28.1080   22.9090 C   0  0  0  0  0  0  0  0  0  0  0  0
  -20.5710  -28.3310   23.1610 C   0  0  0  0  0  3  0  0  0  0  0  0
  -20.6520  -26.9040   22.5690 C   0  0  0  0  0  2  0  0  0  0  0  0
  -19.5370  -26.6050   21.5630 C   0  0  0  0  0  2  0  0  0  0  0  0
  -18.1640  -26.7620   22.2200 C   0  0  0  0  0  2  0  0  0  0  0  0
  -19.1400  -28.8520   23.3360 C   0  0  0  0  0  0  0  0  0  0  0  0
  -18.9430  -30.1140   23.9380 C   0  0  0  0  0  3  0  0  0  0  0  0
  -17.6460  -30.6300   24.1170 C   0  0  0  0  0  3  0  0  0  0  0  0
  -16.5280  -29.8820   23.7080 C   0  0  0  0  0  3  0  0  0  0  0  0
  -16.7120  -28.6220   23.1090 C   0  0  0  0  0  3  0  0  0  0  0  0
  -25.8560  -32.4950   23.8190 C   0  0  0  0  0  3  0  0  0  0  0  0
  -26.3890  -31.7060   25.0780 C   0  0  1  0  0  0  0  0  0  0  0  0
  -25.3070  -31.4440   26.1520 C   0  0  0  0  0  1  0  0  0  0  0  0
  -26.9760  -30.3380   24.6540 C   0  0  0  0  0  1  0  0  0  0  0  0
  -27.5430  -32.4950   25.7400 C   0  0  0  0  0  1  0  0  0  0  0  0
  -25.5410  -33.8870   24.1700 N   0  0  0  0  0  0  0  0  0  0  0  0
  -25.8640  -34.9490   23.4200 C   0  0  0  0  0  0  0  0  0  0  0  0
  -26.5270  -34.8610   22.3830 O   0  0  0  0  0  0  0  0  0  0  0  0
  -24.9520  -34.0270   24.9770 H   0  0  0  0  0  0  0  0  0  0  0  0
  -24.1200  -36.7310   23.0920 C   0  0  0  0  0  1  0  0  0  0  0  0
  -25.3680  -36.3290   23.8950 C   0  0  0  0  0  3  0  0  0  0  0  0
  -27.5040  -37.2150   24.7210 C   0  0  0  0  0  1  0  0  0  0  0  0
  -26.3930  -37.3890   23.7880 N   0  0  0  0  0  0  0  0  0  0  0  0
  -25.9840  -38.3040   23.9520 H   0  0  0  0  0  0  0  0  0  0  0  0
  1  2  1  0
  3  2  1  0
  3  4  1  0
  4  6  1  0
  5 10  1  0
  6  5  1  0
  6  8  1  0
  7  5  2  0
 10 19  1  0
 10  9  1  0
 11 19  1  0
 12 17  1  0
 13 14  1  0
 13 12  1  0
 15 14  1  0
 15 24  1  0
 15 16  1  0
 17 11  1  0
 17 16  1  0
 18 11  2  0
 19 20  1  0
 21 22  2  0
 22 41  1  0
 23 22  1  0
 23 26  1  0
 24 21  1  0
 24 25  1  0
 25 23  2  0
 26 27  1  0
 27 28  2  0
 29 32  1  0
 29 28  1  0
 30 29  2  0
 31 30  1  0
 31 26  2  0
 32 33  1  0
 33 34  1  0
 34 35  2  0
 36 35  1  0
 36 40  1  0
 37 36  2  0
 38 33  2  0
 38 37  1  0
 39 38  1  0
 41 42  1  0
 42 45  1  0
 42 44  1  0
 43 41  2  0
 46 47  1  0
 46 21  1  0
 48 46  1  0
 49  1  1  0
 49 50  1  0
 51 50  1  0
 51 52  1  0
 52 53  1  0
 53 54  1  0
 54 55  1  0
 56 58  1  0
 56 55  1  0
 57 68  2  0
 58 63  1  0
 59 67  1  0
 59 69  1  0
 60 66  1  0
 60 62  1  0
 61 67  1  0
 62 63  2  0
 62 61  1  0
 64 65  1  0
 64 58  2  0
 65 60  2  0
 66 59  1  0
 67 57  1  0
 69 71  2  0
 70 69  1  0
 72 70  1  0
 73 82  2  0
 73 78  1  0
 74 70  1  0
 74 78  1  0
 75 74  1  0
 76 77  1  0
 76 75  1  0
 77 73  1  0
 78 79  2  0
 79 80  1  0
 81 80  2  0
 82 81  1  0
 83 57  1  0
 83 88  1  0
 83 84  1  0
 84 87  1  1
 84 85  1  0
 86 84  1  0
 88 91  1  0
 89 93  1  0
 89 88  1  0
 90 89  2  0
 93 92  1  0
 95 93  1  0
 95 96  1  0
 95 94  1  0
M  ISO  4  11 100  19 100  55 101  56 101
M  END
>  <TORSDO>  (4) 
F 28

>  <SCORE>  (4) 
-11.448

>  <name>  (4) 
3

>  <ligand_id>  (4) 
3

>  <original_smiles>  (4) 
[H]c1c([H])c([H])c2c(c1[H])C([H])([H])C([H])([H])C([H])([H])C2([H])N([H])C(=O)C1([H])N(C(=O)C([H])(N([H])C(=O)C([H])(N([H])C([H])([H])[H])C([H])([H])[H])C(C([H])([H])[H])(C([H])([H])[H])C([H])([H])[H])C([H])([H])c2c([H])c(OC([H])([H])C([H])([H])OC([H])([H])C([H])([H])OC([H])([H])C([H])([H])OC([H])([H])C([H])([H])N([H])C(=O)C([H])(N([H])C(=O)N3C([H])([H])C([H])([H])C([H])([H])C([H])(n4nc(-c5c([H])c([H])c(Oc6c([H])c([H])c(F)c([H])c6F)c([H])c5[H])c(C(=O)N([H])[H])c4N([H])[H])C3([H])[H])C([H])([H])[H])c([H])c([H])c2C1([H])[H]

>  <smiles>  (4) 
[H]c1c([H])c([H])c2c(c1[H])C([H])([H])C([H])([H])C([H])([H])C2([H])N([H])C(=O)C1([H])N(C(=O)C([H])(N([H])C(=O)C([H])(N([H])C([H])([H])[H])C([H])([H])[H])C(C([H])([H])[H])(C([H])([H])[H])C([H])([H])[H])C([H])([H])c2c([H])c(OC([H])([H])C([H])([H])OC([H])([H])C([H])([H])OC([H])([H])C([H])([H])OC([H])([H])C([H])([H])N([H])C(=O)C([H])(N([H])C(=O)N3C([H])([H])C([H])([H])C([H])([H])C([H])(n4nc(-c5c([H])c([H])c(Oc6c([H])c([H])c(F)c([H])c6F)c([H])c5[H])c(C(=O)N([H])[H])c4N([H])[H])C3([H])[H])C([H])([H])[H])c([H])c([H])c2C1([H])[H]

$$$$
4:0:0
     RDKit          3D

 95102  0  0  1  0  0  0  0  0999 V2000
  -31.7260  -19.9990   17.8500 C   0  0  0  0  0  2  0  0  0  0  0  0
  -32.6360  -18.8820   18.3810 C   0  0  0  0  0  2  0  0  0  0  0  0
  -31.2290  -17.2680   19.6530 C   0  0  0  0  0  0  0  0  0  0  0  0
  -32.1450  -18.2470   19.6030 N   0  0  0  0  0  0  0  0  0  0  0  0
  -30.5200  -16.9760   18.6830 O   0  0  0  0  0  0  0  0  0  0  0  0
  -32.6530  -18.4590   20.4520 H   0  0  0  0  0  0  0  0  0  0  0  0
  -31.1590  -16.4460   20.9650 C   0  0  0  0  0  3  0  0  0  0  0  0
  -31.1860  -14.1180   20.0360 C   0  0  0  0  0  0  0  0  0  0  0  0
  -30.6610  -12.1090   18.7100 C   0  0  0  0  0  2  0  0  0  0  0  0
  -29.6770  -12.4690   17.5830 C   0  0  0  0  0  2  0  0  0  0  0  0
  -28.2200  -12.4150   18.0850 C   0  0  0  0  0  2  0  0  0  0  0  0
  -28.0130  -13.1660   19.4290 C   0  0  0  0  0  3  0  0  0  0  0  0
  -29.0980  -12.7630   20.4500 C   0  0  0  0  0  2  0  0  0  0  0  0
  -30.4110  -13.0220   19.8330 N   0  0  0  0  0  0  0  0  0  0  0  0
  -32.2900  -14.2690   19.5050 O   0  0  0  0  0  0  0  0  0  0  0  0
  -30.6320  -15.0900   20.7730 N   0  0  0  0  0  0  0  0  0  0  0  0
  -29.6790  -14.9740   21.0810 H   0  0  0  0  0  0  0  0  0  0  0  0
  -25.6690  -13.8840   20.2150 C   0  0  0  0  0  0  0  0  0  0  0  0
  -24.5780  -13.1630   20.6190 C   0  0  0  0  0  0  0  0  0  0  0  0
  -24.9780  -11.7910   20.5870 C   0  0  0  0  0  0  0  0  0  0  0  0
  -26.6660  -12.9540   19.9570 N   0  0  0  0  0  0  0  0  0  0  0  0
  -26.2540  -11.6900   20.2350 N   0  0  0  0  0  0  0  0  0  0  0  0
  -24.2060  -10.5660   20.8250 C   0  0  0  0  0  0  0  0  0  0  0  0
  -24.6080   -9.6110   21.7850 C   0  0  0  0  0  3  0  0  0  0  0  0
  -23.8410   -8.4480   22.0020 C   0  0  0  0  0  3  0  0  0  0  0  0
  -22.6560   -8.2290   21.2600 C   0  0  0  0  0  0  0  0  0  0  0  0
  -22.2720   -9.1710   20.2900 C   0  0  0  0  0  3  0  0  0  0  0  0
  -23.0400  -10.3280   20.0710 C   0  0  0  0  0  3  0  0  0  0  0  0
  -21.8640   -7.1130   21.3800 O   0  0  0  0  0  0  0  0  0  0  0  0
  -21.7580   -6.4330   22.5670 C   0  0  0  0  0  0  0  0  0  0  0  0
  -21.3280   -7.0670   23.7520 C   0  0  0  0  0  3  0  0  0  0  0  0
  -21.1650   -6.3150   24.9320 C   0  0  0  0  0  3  0  0  0  0  0  0
  -21.4240   -4.9320   24.9290 C   0  0  0  0  0  0  0  0  0  0  0  0
  -21.8470   -4.2970   23.7470 C   0  0  0  0  0  3  0  0  0  0  0  0
  -22.0110   -5.0470   22.5680 C   0  0  0  0  0  0  0  0  0  0  0  0
  -22.4000   -4.4280   21.4280 F   0  0  0  0  0  0  0  0  0  0  0  0
  -21.2610   -4.2070   26.0610 F   0  0  0  0  0  0  0  0  0  0  0  0
  -23.2150  -13.7040   20.9350 C   0  0  0  0  0  0  0  0  0  0  0  0
  -22.4970  -13.0560   21.8450 N   0  0  0  0  0  0  0  0  0  0  0  0
  -22.7990  -14.7380   20.4130 O   0  0  0  0  0  0  0  0  0  0  0  0
  -22.8510  -12.2210   22.2850 H   0  0  0  0  0  0  0  0  0  0  0  0
  -21.5820  -13.3990   22.1030 H   0  0  0  0  0  0  0  0  0  0  0  0
  -25.8990  -15.2420   20.0340 N   0  0  0  0  0  0  0  0  0  0  0  0
  -25.1950  -15.9440   20.2310 H   0  0  0  0  0  0  0  0  0  0  0  0
  -26.8110  -15.6420   19.8430 H   0  0  0  0  0  0  0  0  0  0  0  0
  -30.3430  -17.1110   22.0960 C   0  0  0  0  0  2  0  0  0  0  0  0
  -28.9380  -16.9720   21.9160 O   0  0  0  0  0  0  0  0  0  0  0  0
  -28.5160  -17.2200   22.7350 H   0  0  0  0  0  0  0  0  0  0  0  0
  -31.8170  -21.1560   18.6750 O   0  0  0  0  0  0  0  0  0  0  0  0
  -30.9750  -22.2040   18.2000 C   0  0  0  0  0  2  0  0  0  0  0  0
  -31.2440  -23.5260   18.9380 C   0  0  0  0  0  2  0  0  0  0  0  0
  -30.1120  -24.3780   18.7910 O   0  0  0  0  0  0  0  0  0  0  0  0
  -30.3860  -25.7530   19.0430 C   0  0  0  0  0  2  0  0  0  0  0  0
  -29.0830  -26.5660   18.9500 C   0  0  0  0  0  2  0  0  0  0  0  0
  -28.4970  -26.7010   20.2430 O   0  0  0  0  0  0  0  0  0  0  0  0
  -24.5960  -31.8450   23.2450 C   0  0  0  0  0  0  0  0  0  0  0  0
  -27.3160  -27.4000   20.2500 C   0  0  0  0  0  0  0  0  0  0  0  0
  -23.4190  -30.4140   21.6020 C   0  0  0  0  0  3  0  0  0  0  0  0
  -24.9020  -28.8590   20.2290 C   0  0  0  0  0  0  0  0  0  0  0  0
  -25.9420  -30.7830   21.4390 C   0  0  0  0  0  2  0  0  0  0  0  0
  -26.0440  -29.4020   20.8290 C   0  0  0  0  0  0  0  0  0  0  0  0
  -27.2530  -28.6720   20.8520 C   0  0  0  0  0  3  0  0  0  0  0  0
  -26.1570  -26.8510   19.6650 C   0  0  0  0  0  3  0  0  0  0  0  0
  -24.9490  -27.5750   19.6520 C   0  0  0  0  0  3  0  0  0  0  0  0
  -23.6530  -29.7100   20.2380 C   0  0  0  0  0  2  0  0  0  0  0  0
  -24.6690  -31.0290   22.1540 N   0  0  0  0  0  0  0  0  0  0  0  0
  -23.5070  -32.1210   23.7630 O   0  0  0  0  0  0  0  0  0  0  0  0
  -22.7550  -29.4080   22.5670 C   0  0  0  0  0  0  0  0  0  0  0  0
  -21.4380  -29.2040   22.4050 N   0  0  0  0  0  0  0  0  0  0  0  0
  -23.4230  -28.8100   23.4160 O   0  0  0  0  0  0  0  0  0  0  0  0
  -20.9620  -29.7370   21.6890 H   0  0  0  0  0  0  0  0  0  0  0  0
  -18.0730  -27.9610   22.8060 C   0  0  0  0  0  0  0  0  0  0  0  0
  -20.6100  -28.2740   23.1710 C   0  0  0  0  0  3  0  0  0  0  0  0
  -20.7650  -26.8300   22.6420 C   0  0  0  0  0  2  0  0  0  0  0  0
  -19.7100  -26.4570   21.5940 C   0  0  0  0  0  2  0  0  0  0  0  0
  -18.3000  -26.5950   22.1790 C   0  0  0  0  0  2  0  0  0  0  0  0
  -19.1580  -28.7550   23.2570 C   0  0  0  0  0  0  0  0  0  0  0  0
  -18.8950  -30.0310   23.7980 C   0  0  0  0  0  3  0  0  0  0  0  0
  -17.5770  -30.5140   23.8950 C   0  0  0  0  0  3  0  0  0  0  0  0
  -16.5030  -29.7150   23.4640 C   0  0  0  0  0  3  0  0  0  0  0  0
  -16.7520  -28.4400   22.9250 C   0  0  0  0  0  3  0  0  0  0  0  0
  -25.8720  -32.4840   23.8770 C   0  0  0  0  0  3  0  0  0  0  0  0
  -26.3800  -31.7230   25.1610 C   0  0  1  0  0  0  0  0  0  0  0  0
  -25.2780  -31.4830   26.2200 C   0  0  0  0  0  1  0  0  0  0  0  0
  -26.9750  -30.3470   24.7790 C   0  0  0  0  0  1  0  0  0  0  0  0
  -27.5190  -32.5270   25.8310 C   0  0  0  0  0  1  0  0  0  0  0  0
  -25.5570  -33.8840   24.1900 N   0  0  0  0  0  0  0  0  0  0  0  0
  -25.8970  -34.9300   23.4270 C   0  0  0  0  0  0  0  0  0  0  0  0
  -26.5830  -34.8200   22.4060 O   0  0  0  0  0  0  0  0  0  0  0  0
  -24.9510  -34.0450   24.9820 H   0  0  0  0  0  0  0  0  0  0  0  0
  -24.1660  -36.7090   23.0290 C   0  0  0  0  0  1  0  0  0  0  0  0
  -25.3980  -36.3200   23.8630 C   0  0  0  0  0  3  0  0  0  0  0  0
  -27.5160  -37.2210   24.7160 C   0  0  0  0  0  1  0  0  0  0  0  0
  -26.4280  -37.3770   23.7560 N   0  0  0  0  0  0  0  0  0  0  0  0
  -26.0140  -38.2970   23.8890 H   0  0  0  0  0  0  0  0  0  0  0  0
  1  2  1  0
  1 49  1  0
  2  4  1  0
  3  7  1  0
  4  3  1  0
  4  6  1  0
  5  3  2  0
  7 46  1  0
  8 16  1  0
  9 14  1  0
 10 11  1  0
 10  9  1  0
 12 11  1  0
 12 21  1  0
 12 13  1  0
 14  8  1  0
 14 13  1  0
 15  8  2  0
 16  7  1  0
 16 17  1  0
 18 19  2  0
 19 38  1  0
 20 19  1  0
 20 23  1  0
 21 18  1  0
 21 22  1  0
 22 20  2  0
 23 24  1  0
 24 25  2  0
 26 29  1  0
 26 25  1  0
 27 26  2  0
 28 27  1  0
 28 23  2  0
 29 30  1  0
 30 35  2  0
 30 31  1  0
 31 32  2  0
 33 32  1  0
 33 37  1  0
 34 33  2  0
 35 34  1  0
 36 35  1  0
 38 39  1  0
 39 42  1  0
 39 41  1  0
 40 38  2  0
 43 18  1  0
 43 44  1  0
 45 43  1  0
 47 46  1  0
 47 48  1  0
 50 49  1  0
 50 51  1  0
 52 51  1  0
 52 53  1  0
 54 53  1  0
 54 55  1  0
 55 57  1  0
 56 67  2  0
 57 62  1  0
 58 66  1  0
 58 68  1  0
 59 65  1  0
 59 61  1  0
 60 66  1  0
 61 62  2  0
 61 60  1  0
 63 57  2  0
 64 63  1  0
 64 59  2  0
 65 58  1  0
 66 56  1  0
 68 70  2  0
 69 68  1  0
 71 69  1  0
 72 81  2  0
 72 77  1  0
 73 69  1  0
 73 77  1  0
 74 73  1  0
 75 76  1  0
 75 74  1  0
 76 72  1  0
 77 78  2  0
 78 79  1  0
 80 79  2  0
 81 80  1  0
 82 56  1  0
 82 87  1  0
 82 83  1  0
 83 86  1  1
 83 84  1  0
 85 83  1  0
 87 90  1  0
 88 92  1  0
 88 87  1  0
 89 88  2  0
 92 91  1  0
 94 92  1  0
 94 95  1  0
 94 93  1  0
M  ISO  4   8 100  16 100  54 101  55 101
M  END
>  <TORSDO>  (5) 
F 27

>  <SCORE>  (5) 
-11.259

>  <name>  (5) 
4

>  <ligand_id>  (5) 
4

>  <original_smiles>  (5) 
[H]OC([H])([H])C([H])(C(=O)N([H])C([H])([H])C([H])([H])OC([H])([H])C([H])([H])OC([H])([H])C([H])([H])Oc1c([H])c([H])c2c(c1[H])C([H])([H])N(C(=O)C([H])(N([H])C(=O)C([H])(N([H])C([H])([H])[H])C([H])([H])[H])C(C([H])([H])[H])(C([H])([H])[H])C([H])([H])[H])C([H])(C(=O)N([H])C1([H])c3c([H])c([H])c([H])c([H])c3C([H])([H])C([H])([H])C1([H])[H])C2([H])[H])N([H])C(=O)N1C([H])([H])C([H])([H])C([H])([H])C([H])(n2nc(-c3c([H])c([H])c(Oc4c([H])c([H])c(F)c([H])c4F)c([H])c3[H])c(C(=O)N([H])[H])c2N([H])[H])C1([H])[H]

>  <smiles>  (5) 
[H]OC([H])([H])C([H])(C(=O)N([H])C([H])([H])C([H])([H])OC([H])([H])C([H])([H])OC([H])([H])C([H])([H])Oc1c([H])c([H])c2c(c1[H])C([H])([H])N(C(=O)C([H])(N([H])C(=O)C([H])(N([H])C([H])([H])[H])C([H])([H])[H])C(C([H])([H])[H])(C([H])([H])[H])C([H])([H])[H])C([H])(C(=O)N([H])C1([H])c3c([H])c([H])c([H])c([H])c3C([H])([H])C([H])([H])C1([H])[H])C2([H])[H])N([H])C(=O)N1C([H])([H])C([H])([H])C([H])([H])C([H])(n2nc(-c3c([H])c([H])c(Oc4c([H])c([H])c(F)c([H])c4F)c([H])c3[H])c(C(=O)N([H])[H])c2N([H])[H])C1([H])[H]

$$$$
5:0:0
     RDKit          3D

 96103  0  0  1  0  0  0  0  0999 V2000
  -30.1810  -20.8900   21.3030 C   0  0  0  0  0  3  0  0  0  0  0  0
  -30.4660  -18.3130   21.2300 C   0  0  0  0  0  0  0  0  0  0  0  0
  -29.9500  -19.5040   20.8280 N   0  0  0  0  0  0  0  0  0  0  0  0
  -31.1710  -18.1910   22.2310 O   0  0  0  0  0  0  0  0  0  0  0  0
  -29.3660  -19.4490   20.0040 H   0  0  0  0  0  0  0  0  0  0  0  0
  -30.1150  -17.0610   20.3580 C   0  0  0  0  0  0  0  0  0  0  0  0
  -30.8370  -14.6880   21.1940 C   0  0  0  0  0  0  0  0  0  0  0  0
  -30.7670  -12.3680   20.3510 C   0  0  0  0  0  2  0  0  0  0  0  0
  -29.9960  -12.3270   19.0130 C   0  0  0  0  0  2  0  0  0  0  0  0
  -28.4700  -12.2480   19.2470 C   0  0  0  0  0  2  0  0  0  0  0  0
  -27.9440  -13.2200   20.3400 C   0  0  0  0  0  3  0  0  0  0  0  0
  -28.8490  -13.1870   21.5910 C   0  0  0  0  0  2  0  0  0  0  0  0
  -30.2240  -13.4710   21.1610 N   0  0  0  0  0  0  0  0  0  0  0  0
  -32.0540  -14.8040   21.0860 O   0  0  0  0  0  0  0  0  0  0  0  0
  -29.9900  -15.7400   21.0630 N   0  0  0  0  0  4  0  0  0  0  0  0
  -29.0370  -15.5000   21.2760 H   0  0  0  0  0  0  0  0  0  0  0  0
  -25.4830  -13.8390   20.7620 C   0  0  0  0  0  0  0  0  0  0  0  0
  -24.3790  -13.0740   21.0230 C   0  0  0  0  0  0  0  0  0  0  0  0
  -24.8370  -11.7230   21.0750 C   0  0  0  0  0  0  0  0  0  0  0  0
  -26.5460  -12.9540   20.6700 N   0  0  0  0  0  0  0  0  0  0  0  0
  -26.1540  -11.6780   20.9230 N   0  0  0  0  0  0  0  0  0  0  0  0
  -24.0930  -10.4640   21.2020 C   0  0  0  0  0  0  0  0  0  0  0  0
  -24.4330   -9.5000   22.1750 C   0  0  0  0  0  3  0  0  0  0  0  0
  -23.6910   -8.3060   22.2910 C   0  0  0  0  0  3  0  0  0  0  0  0
  -22.5950   -8.0650   21.4300 C   0  0  0  0  0  0  0  0  0  0  0  0
  -22.2720   -9.0200   20.4480 C   0  0  0  0  0  3  0  0  0  0  0  0
  -23.0150  -10.2050   20.3310 C   0  0  0  0  0  3  0  0  0  0  0  0
  -21.8310   -6.9240   21.4510 O   0  0  0  0  0  0  0  0  0  0  0  0
  -21.6890   -6.1750   22.5920 C   0  0  0  0  0  0  0  0  0  0  0  0
  -21.1660   -6.7230   23.7840 C   0  0  0  0  0  3  0  0  0  0  0  0
  -20.9710   -5.9000   24.9100 C   0  0  0  0  0  3  0  0  0  0  0  0
  -21.2930   -4.5310   24.8480 C   0  0  0  0  0  0  0  0  0  0  0  0
  -21.8090   -3.9830   23.6600 C   0  0  0  0  0  3  0  0  0  0  0  0
  -22.0030   -4.8030   22.5340 C   0  0  0  0  0  0  0  0  0  0  0  0
  -22.4800   -4.2640   21.3880 F   0  0  0  0  0  0  0  0  0  0  0  0
  -21.0980   -3.7380   25.9280 F   0  0  0  0  0  0  0  0  0  0  0  0
  -22.9600  -13.5550   21.1170 C   0  0  0  0  0  0  0  0  0  0  0  0
  -22.1300  -12.8810   21.9070 N   0  0  0  0  0  0  0  0  0  0  0  0
  -22.5890  -14.5680   20.5230 O   0  0  0  0  0  0  0  0  0  0  0  0
  -22.4340  -12.0650   22.4180 H   0  0  0  0  0  0  0  0  0  0  0  0
  -21.1750  -13.1950   22.0070 H   0  0  0  0  0  0  0  0  0  0  0  0
  -25.6670  -15.2070   20.5760 N   0  0  0  0  0  0  0  0  0  0  0  0
  -24.8830  -15.8500   20.5850 H   0  0  0  0  0  0  0  0  0  0  0  0
  -26.5320  -15.6520   20.3040 H   0  0  0  0  0  0  0  0  0  0  0  0
  -30.5150  -18.3470   18.1190 C   0  0  0  0  0  1  0  0  0  0  0  0
  -29.8120  -16.0080   18.0550 C   0  0  0  0  0  1  0  0  0  0  0  0
  -32.1620  -16.6240   18.7570 C   0  0  0  0  0  1  0  0  0  0  0  0
  -30.6660  -17.0020   18.8680 C   0  0  2  0  0  0  0  0  0  0  0  0
  -31.6440  -21.3180   21.0210 C   0  0  0  0  0  2  0  0  0  0  0  0
  -32.4720  -21.1150   22.1530 O   0  0  0  0  0  0  0  0  0  0  0  0
  -33.3660  -21.3300   21.9010 H   0  0  0  0  0  0  0  0  0  0  0  0
  -29.1770  -21.8670   20.5850 C   0  0  0  0  0  2  0  0  0  0  0  0
  -29.2160  -23.2390   21.0310 O   0  0  0  0  0  0  0  0  0  0  0  0
  -28.4000  -24.1530   20.2610 C   0  0  0  0  0  2  0  0  0  0  0  0
  -28.2850  -25.5620   20.9160 C   0  0  0  0  0  2  0  0  0  0  0  0
  -28.1980  -26.6630   19.9880 O   0  0  0  0  0  0  0  0  0  0  0  0
  -24.4920  -31.8790   23.1700 C   0  0  0  0  0  0  0  0  0  0  0  0
  -27.0400  -27.4090   20.0420 C   0  0  0  0  0  0  0  0  0  0  0  0
  -23.2460  -30.4940   21.5430 C   0  0  0  0  0  3  0  0  0  0  0  0
  -24.6610  -28.9370   20.0990 C   0  0  0  0  0  0  0  0  0  0  0  0
  -25.7740  -30.8210   21.3130 C   0  0  0  0  0  2  0  0  0  0  0  0
  -25.8350  -29.4530   20.6610 C   0  0  0  0  0  0  0  0  0  0  0  0
  -27.0310  -28.6980   20.6240 C   0  0  0  0  0  3  0  0  0  0  0  0
  -25.8510  -26.9030   19.4800 C   0  0  0  0  0  3  0  0  0  0  0  0
  -24.6610  -27.6580   19.5110 C   0  0  0  0  0  3  0  0  0  0  0  0
  -23.4280  -29.8090   20.1630 C   0  0  0  0  0  2  0  0  0  0  0  0
  -24.5210  -31.0790   22.0650 N   0  0  0  0  0  0  0  0  0  0  0  0
  -23.4210  -32.1640   23.7260 O   0  0  0  0  0  0  0  0  0  0  0  0
  -22.5940  -29.4810   22.5120 C   0  0  0  0  0  0  0  0  0  0  0  0
  -21.2660  -29.3210   22.4090 N   0  0  0  0  0  0  0  0  0  0  0  0
  -23.2830  -28.8400   23.3110 O   0  0  0  0  0  0  0  0  0  0  0  0
  -20.7700  -29.8870   21.7350 H   0  0  0  0  0  0  0  0  0  0  0  0
  -17.8830  -28.1790   22.9660 C   0  0  0  0  0  0  0  0  0  0  0  0
  -20.4480  -28.3920   23.1920 C   0  0  0  0  0  3  0  0  0  0  0  0
  -20.5180  -26.9620   22.6080 C   0  0  0  0  0  2  0  0  0  0  0  0
  -19.3930  -26.6640   21.6110 C   0  0  0  0  0  2  0  0  0  0  0  0
  -18.0250  -26.8300   22.2810 C   0  0  0  0  0  2  0  0  0  0  0  0
  -19.0220  -28.9190   23.3790 C   0  0  0  0  0  0  0  0  0  0  0  0
  -18.8360  -30.1840   23.9780 C   0  0  0  0  0  3  0  0  0  0  0  0
  -17.5430  -30.7090   24.1680 C   0  0  0  0  0  3  0  0  0  0  0  0
  -16.4190  -29.9630   23.7740 C   0  0  0  0  0  3  0  0  0  0  0  0
  -16.5900  -28.7000   23.1800 C   0  0  0  0  0  3  0  0  0  0  0  0
  -25.7950  -32.4930   23.7700 C   0  0  0  0  0  3  0  0  0  0  0  0
  -26.3390  -31.7040   25.0240 C   0  0  1  0  0  0  0  0  0  0  0  0
  -25.2700  -31.4630   26.1160 C   0  0  0  0  0  1  0  0  0  0  0  0
  -26.9000  -30.3270   24.6010 C   0  0  0  0  0  1  0  0  0  0  0  0
  -27.5110  -32.4820   25.6640 C   0  0  0  0  0  1  0  0  0  0  0  0
  -25.5060  -33.8890   24.1240 N   0  0  0  0  0  0  0  0  0  0  0  0
  -25.8600  -34.9500   23.3870 C   0  0  0  0  0  0  0  0  0  0  0  0
  -26.5340  -34.8550   22.3570 O   0  0  0  0  0  0  0  0  0  0  0  0
  -24.9100  -34.0390   24.9250 H   0  0  0  0  0  0  0  0  0  0  0  0
  -24.1720  -36.7790   23.0430 C   0  0  0  0  0  1  0  0  0  0  0  0
  -25.3910  -36.3360   23.8680 C   0  0  0  0  0  3  0  0  0  0  0  0
  -27.5260  -37.1590   24.7580 C   0  0  0  0  0  1  0  0  0  0  0  0
  -26.4450  -37.3720   23.7980 N   0  0  0  0  0  0  0  0  0  0  0  0
  -26.0540  -38.2960   23.9610 H   0  0  0  0  0  0  0  0  0  0  0  0
  1 52  1  0
  2  4  2  0
  3  2  1  0
  3  1  1  0
  5  3  1  0
  6 15  2  3
  6  2  1  0
  8 13  1  0
  9 10  1  0
  9  8  1  0
 11 10  1  0
 11 20  1  0
 11 12  1  0
 13  7  1  0
 13 12  1  0
 14  7  2  0
 15  7  1  0
 15 16  1  0
 17 18  2  0
 18 19  1  0
 18 37  1  0
 19 22  1  0
 20 17  1  0
 20 21  1  0
 21 19  2  0
 22 23  1  0
 23 24  2  0
 25 28  1  0
 25 24  1  0
 26 25  2  0
 27 26  1  0
 27 22  2  0
 28 29  1  0
 29 30  1  0
 30 31  2  0
 32 31  1  0
 32 36  1  0
 33 32  2  0
 34 29  2  0
 34 33  1  0
 35 34  1  0
 37 38  1  0
 38 41  1  0
 38 40  1  0
 39 37  2  0
 42 43  1  0
 42 17  1  0
 44 42  1  0
 48 45  1  6
 46 48  1  0
 47 48  1  0
 48  6  1  0
 49  1  1  0
 49 50  1  0
 51 50  1  0
 52 53  1  0
 54 55  1  0
 54 53  1  0
 56 58  1  0
 56 55  1  0
 57 68  2  0
 58 63  1  0
 59 67  1  0
 59 69  1  0
 60 66  1  0
 60 62  1  0
 61 67  1  0
 62 61  1  0
 63 62  2  0
 64 65  1  0
 64 58  2  0
 65 60  2  0
 66 59  1  0
 67 57  1  0
 69 71  2  0
 70 69  1  0
 72 70  1  0
 73 82  2  0
 73 78  1  0
 74 70  1  0
 74 78  1  0
 75 74  1  0
 76 77  1  0
 76 75  1  0
 77 73  1  0
 78 79  2  0
 79 80  1  0
 81 80  2  0
 82 81  1  0
 83 57  1  0
 83 88  1  0
 83 84  1  0
 84 87  1  1
 84 85  1  0
 86 84  1  0
 88 91  1  0
 89 93  1  0
 89 88  1  0
 90 89  2  0
 93 92  1  0
 95 93  1  0
 95 96  1  0
 95 94  1  0
M  ISO  4   7 100  15 100  55 101  56 101
M  END
>  <TORSDO>  (6) 
F 25

>  <SCORE>  (6) 
-11.478

>  <name>  (6) 
5

>  <ligand_id>  (6) 
5

>  <original_smiles>  (6) 
[H]OC([H])([H])C([H])(N([H])C(=O)C([H])(N([H])C(=O)N1C([H])([H])C([H])([H])C([H])([H])C([H])(n2nc(-c3c([H])c([H])c(Oc4c([H])c([H])c(F)c([H])c4F)c([H])c3[H])c(C(=O)N([H])[H])c2N([H])[H])C1([H])[H])C(C([H])([H])[H])(C([H])([H])[H])C([H])([H])[H])C([H])([H])OC([H])([H])C([H])([H])Oc1c([H])c([H])c2c(c1[H])C([H])([H])N(C(=O)C([H])(N([H])C(=O)C([H])(N([H])C([H])([H])[H])C([H])([H])[H])C(C([H])([H])[H])(C([H])([H])[H])C([H])([H])[H])C([H])(C(=O)N([H])C1([H])c3c([H])c([H])c([H])c([H])c3C([H])([H])C([H])([H])C1([H])[H])C2([H])[H]

>  <smiles>  (6) 
[H]OC([H])([H])C([H])(N([H])C(=O)C([H])(N([H])C(=O)N1C([H])([H])C([H])([H])C([H])([H])C([H])(n2nc(-c3c([H])c([H])c(Oc4c([H])c([H])c(F)c([H])c4F)c([H])c3[H])c(C(=O)N([H])[H])c2N([H])[H])C1([H])[H])C(C([H])([H])[H])(C([H])([H])[H])C([H])([H])[H])C([H])([H])OC([H])([H])C([H])([H])Oc1c([H])c([H])c2c(c1[H])C([H])([H])N(C(=O)C([H])(N([H])C(=O)C([H])(N([H])C([H])([H])[H])C([H])([H])[H])C(C([H])([H])[H])(C([H])([H])[H])C([H])([H])[H])C([H])(C(=O)N([H])C1([H])c3c([H])c([H])c([H])c([H])c3C([H])([H])C([H])([H])C1([H])[H])C2([H])[H]

$$$$
6:0:0
     RDKit          3D

 95102  0  0  1  0  0  0  0  0999 V2000
  -26.1460  -21.8820   20.4950 N   0  0  0  0  0  4  0  0  0  0  0  0
  -25.6530  -22.6200   20.9750 H   0  0  0  0  0  0  0  0  0  0  0  0
  -26.6020  -21.3330   21.2080 H   0  0  0  0  0  0  0  0  0  0  0  0
  -25.1760  -21.0140   19.7860 C   0  0  0  0  0  2  0  0  0  0  0  0
  -25.8010  -19.6400   19.4640 C   0  0  0  0  0  2  0  0  0  0  0  0
  -27.0120  -19.8530   18.7310 O   0  0  0  0  0  0  0  0  0  0  0  0
  -27.9410  -18.7760   18.8080 C   0  0  0  0  0  2  0  0  0  0  0  0
  -29.1980  -19.0580   17.9720 C   0  0  0  0  0  2  0  0  0  0  0  0
  -30.2090  -18.1900   18.4560 O   0  0  0  0  0  0  0  0  0  0  0  0
  -31.5220  -18.5100   18.0180 C   0  0  0  0  0  2  0  0  0  0  0  0
  -32.4760  -18.0580   19.1310 C   0  0  0  0  0  2  0  0  0  0  0  0
  -32.5370  -15.5890   19.0100 C   0  0  0  0  0  0  0  0  0  0  0  0
  -32.3550  -13.1360   19.0090 C   0  0  0  0  0  2  0  0  0  0  0  0
  -31.4060  -12.6050   17.9200 C   0  0  0  0  0  2  0  0  0  0  0  0
  -29.9400  -12.6200   18.3930 C   0  0  0  0  0  2  0  0  0  0  0  0
  -29.5270  -13.9670   19.0450 C   0  0  0  0  0  3  0  0  0  0  0  0
  -30.5800  -14.4090   20.0840 C   0  0  0  0  0  2  0  0  0  0  0  0
  -31.8990  -14.4650   19.4250 N   0  0  0  0  0  0  0  0  0  0  0  0
  -33.4930  -15.5890   18.2280 O   0  0  0  0  0  0  0  0  0  0  0  0
  -32.0890  -16.7180   19.5550 N   0  0  0  0  0  0  0  0  0  0  0  0
  -31.2860  -16.6510   20.1610 H   0  0  0  0  0  0  0  0  0  0  0  0
  -27.3380  -14.9040   20.0380 C   0  0  0  0  0  0  0  0  0  0  0  0
  -26.1860  -14.2890   20.4570 C   0  0  0  0  0  0  0  0  0  0  0  0
  -26.3950  -12.8890   20.2680 C   0  0  0  0  0  0  0  0  0  0  0  0
  -28.1870  -13.8850   19.6330 N   0  0  0  0  0  0  0  0  0  0  0  0
  -27.6250  -12.6630   19.8220 N   0  0  0  0  0  0  0  0  0  0  0  0
  -25.4780  -11.7530   20.4320 C   0  0  0  0  0  0  0  0  0  0  0  0
  -25.7350  -10.7150   21.3570 C   0  0  0  0  0  3  0  0  0  0  0  0
  -24.8240   -9.6460   21.5050 C   0  0  0  0  0  3  0  0  0  0  0  0
  -23.6430   -9.6060   20.7290 C   0  0  0  0  0  0  0  0  0  0  0  0
  -23.4060  -10.6280   19.7900 C   0  0  0  0  0  3  0  0  0  0  0  0
  -24.3150  -11.6870   19.6400 C   0  0  0  0  0  3  0  0  0  0  0  0
  -22.7140   -8.5940   20.7920 O   0  0  0  0  0  0  0  0  0  0  0  0
  -22.4100   -7.9670   21.9740 C   0  0  0  0  0  0  0  0  0  0  0  0
  -21.9000   -8.6760   23.0830 C   0  0  0  0  0  3  0  0  0  0  0  0
  -21.5340   -7.9820   24.2560 C   0  0  0  0  0  3  0  0  0  0  0  0
  -21.6670   -6.5830   24.3170 C   0  0  0  0  0  0  0  0  0  0  0  0
  -22.1660   -5.8730   23.2120 C   0  0  0  0  0  3  0  0  0  0  0  0
  -22.5330   -6.5630   22.0410 C   0  0  0  0  0  0  0  0  0  0  0  0
  -22.9950   -5.8720   20.9730 F   0  0  0  0  0  0  0  0  0  0  0  0
  -21.3070   -5.9170   25.4410 F   0  0  0  0  0  0  0  0  0  0  0  0
  -24.9240  -14.9690   20.9090 C   0  0  0  0  0  0  0  0  0  0  0  0
  -24.1590  -14.3260   21.7840 N   0  0  0  0  0  0  0  0  0  0  0  0
  -24.6330  -16.1010   20.5240 O   0  0  0  0  0  0  0  0  0  0  0  0
  -24.4040  -13.4080   22.1230 H   0  0  0  0  0  0  0  0  0  0  0  0
  -23.3120  -14.7610   22.1210 H   0  0  0  0  0  0  0  0  0  0  0  0
  -27.7260  -16.2380   19.9490 N   0  0  0  0  0  0  0  0  0  0  0  0
  -27.1050  -17.0070   20.1750 H   0  0  0  0  0  0  0  0  0  0  0  0
  -28.6080  -16.5380   19.5500 H   0  0  0  0  0  0  0  0  0  0  0  0
  -27.1920  -22.4900   19.6360 C   0  0  0  0  0  2  0  0  0  0  0  0
  -28.5470  -22.4840   20.3630 C   0  0  0  0  0  2  0  0  0  0  0  0
  -28.6940  -23.5910   21.2520 O   0  0  0  0  0  0  0  0  0  0  0  0
  -28.4440  -24.8600   20.6630 C   0  0  0  0  0  2  0  0  0  0  0  0
  -29.3400  -25.9360   21.3120 C   0  0  0  0  0  2  0  0  0  0  0  0
  -29.3150  -27.2030   20.6370 O   0  0  0  0  0  0  0  0  0  0  0  0
  -24.8880  -31.9600   23.5110 C   0  0  0  0  0  0  0  0  0  0  0  0
  -28.0870  -27.8150   20.5940 C   0  0  0  0  0  0  0  0  0  0  0  0
  -23.9040  -30.4400   21.8250 C   0  0  0  0  0  3  0  0  0  0  0  0
  -25.5640  -29.0660   20.4750 C   0  0  0  0  0  0  0  0  0  0  0  0
  -26.3780  -31.0620   21.7320 C   0  0  0  0  0  2  0  0  0  0  0  0
  -26.6310  -29.7070   21.1140 C   0  0  0  0  0  0  0  0  0  0  0  0
  -27.8980  -29.0850   21.1810 C   0  0  0  0  0  3  0  0  0  0  0  0
  -27.0090  -27.1990   19.9260 C   0  0  0  0  0  3  0  0  0  0  0  0
  -25.7440  -27.8050   19.8830 C   0  0  0  0  0  3  0  0  0  0  0  0
  -24.2400  -29.7920   20.4550 C   0  0  0  0  0  2  0  0  0  0  0  0
  -25.0690  -31.1740   22.4140 N   0  0  0  0  0  0  0  0  0  0  0  0
  -23.7650  -32.1150   24.0070 O   0  0  0  0  0  0  0  0  0  0  0  0
  -23.3260  -29.3550   22.7610 C   0  0  0  0  0  0  0  0  0  0  0  0
  -22.0790  -28.9330   22.4860 N   0  0  0  0  0  0  0  0  0  0  0  0
  -23.9960  -28.8990   23.6900 O   0  0  0  0  0  0  0  0  0  0  0  0
  -21.5940  -29.3650   21.7110 H   0  0  0  0  0  0  0  0  0  0  0  0
  -18.9480  -27.1450   22.5930 C   0  0  0  0  0  0  0  0  0  0  0  0
  -21.3440  -27.8970   23.2120 C   0  0  0  0  0  3  0  0  0  0  0  0
  -21.7880  -26.4850   22.7710 C   0  0  0  0  0  2  0  0  0  0  0  0
  -20.9460  -25.9280   21.6200 C   0  0  0  0  0  2  0  0  0  0  0  0
  -19.4720  -25.8350   22.0260 C   0  0  0  0  0  2  0  0  0  0  0  0
  -19.8280  -28.1250   23.1280 C   0  0  0  0  0  0  0  0  0  0  0  0
  -19.2960  -29.3470   23.5930 C   0  0  0  0  0  3  0  0  0  0  0  0
  -17.9100  -29.5940   23.5380 C   0  0  0  0  0  3  0  0  0  0  0  0
  -17.0420  -28.6120   23.0250 C   0  0  0  0  0  3  0  0  0  0  0  0
  -17.5610  -27.3920   22.5560 C   0  0  0  0  0  3  0  0  0  0  0  0
  -26.0780  -32.7220   24.1790 C   0  0  0  0  0  3  0  0  0  0  0  0
  -26.5300  -32.0880   25.5520 C   0  0  1  0  0  0  0  0  0  0  0  0
  -25.3590  -31.8070   26.5190 C   0  0  0  0  0  1  0  0  0  0  0  0
  -27.2830  -30.7560   25.3220 C   0  0  0  0  0  1  0  0  0  0  0  0
  -27.5230  -33.0370   26.2620 C   0  0  0  0  0  1  0  0  0  0  0  0
  -25.6640  -34.1200   24.3600 N   0  0  0  0  0  0  0  0  0  0  0  0
  -25.9760  -35.1190   23.5230 C   0  0  0  0  0  0  0  0  0  0  0  0
  -26.7150  -34.9710   22.5470 O   0  0  0  0  0  0  0  0  0  0  0  0
  -25.0150  -34.3040   25.1110 H   0  0  0  0  0  0  0  0  0  0  0  0
  -24.1480  -36.7360   22.9090 C   0  0  0  0  0  1  0  0  0  0  0  0
  -25.3710  -36.5070   23.8140 C   0  0  0  0  0  3  0  0  0  0  0  0
  -27.4000  -37.6160   24.6410 C   0  0  0  0  0  1  0  0  0  0  0  0
  -26.3330  -37.6180   23.6430 N   0  0  0  0  0  0  0  0  0  0  0  0
  -25.8580  -38.5160   23.6870 H   0  0  0  0  0  0  0  0  0  0  0  0
  1  2  1  0
  1  3  1  0
  4  1  1  0
  5  4  1  0
  6  7  1  0
  6  5  1  0
  8  9  1  0
  8  7  1  0
 10  9  1  0
 10 11  1  0
 11 20  1  0
 12 18  1  0
 12 20  1  0
 13 18  1  0
 14 15  1  0
 14 13  1  0
 16 15  1  0
 16 25  1  0
 16 17  1  0
 18 17  1  0
 19 12  2  0
 20 21  1  0
 22 23  2  0
 23 42  1  0
 24 27  1  0
 24 23  1  0
 25 26  1  0
 25 22  1  0
 26 24  2  0
 27 28  1  0
 28 29  2  0
 30 33  1  0
 30 29  1  0
 31 30  2  0
 32 31  1  0
 32 27  2  0
 33 34  1  0
 34 39  2  0
 34 35  1  0
 35 36  2  0
 36 37  1  0
 37 41  1  0
 38 37  2  0
 39 38  1  0
 40 39  1  0
 42 43  1  0
 43 46  1  0
 43 45  1  0
 44 42  2  0
 47 22  1  0
 47 48  1  0
 49 47  1  0
 50 51  1  0
 50  1  1  0
 51 52  1  0
 53 52  1  0
 53 54  1  0
 55 54  1  0
 56 67  2  0
 57 55  1  0
 57 62  1  0
 58 66  1  0
 58 68  1  0
 59 61  1  0
 60 66  1  0
 61 62  2  0
 61 60  1  0
 63 57  2  0
 64 63  1  0
 64 59  2  0
 65 59  1  0
 65 58  1  0
 66 56  1  0
 68 70  2  0
 69 68  1  0
 71 69  1  0
 72 77  1  0
 73 69  1  0
 74 73  1  0
 75 76  1  0
 75 74  1  0
 76 72  1  0
 77 73  1  0
 77 78  2  0
 79 78  1  0
 80 79  2  0
 81 72  2  0
 81 80  1  0
 82 56  1  0
 82 87  1  0
 82 83  1  0
 83 86  1  1
 83 84  1  0
 85 83  1  0
 87 90  1  0
 88 92  1  0
 88 87  1  0
 89 88  2  0
 92 91  1  0
 94 95  1  0
 94 92  1  0
 94 93  1  0
M  ISO  4  12 100  20 100  54 101  55 101
M  END
>  <TORSDO>  (7) 
F 29

>  <SCORE>  (7) 
-5.245

>  <name>  (7) 
6

>  <ligand_id>  (7) 
6

>  <original_smiles>  (7) 
[H]c1c([H])c([H])c2c(c1[H])C([H])([H])C([H])([H])C([H])([H])C2([H])N([H])C(=O)C1([H])N(C(=O)C([H])(N([H])C(=O)C([H])(N([H])C([H])([H])[H])C([H])([H])[H])C(C([H])([H])[H])(C([H])([H])[H])C([H])([H])[H])C([H])([H])c2c([H])c(OC([H])([H])C([H])([H])OC([H])([H])C([H])([H])[N+]([H])([H])C([H])([H])C([H])([H])OC([H])([H])C([H])([H])OC([H])([H])C([H])([H])N([H])C(=O)N3C([H])([H])C([H])([H])C([H])([H])C([H])(n4nc(-c5c([H])c([H])c(Oc6c([H])c([H])c(F)c([H])c6F)c([H])c5[H])c(C(=O)N([H])[H])c4N([H])[H])C3([H])[H])c([H])c([H])c2C1([H])[H]

>  <smiles>  (7) 
[H]c1c([H])c([H])c2c(c1[H])C([H])([H])C([H])([H])C([H])([H])C2([H])N([H])C(=O)C1([H])N(C(=O)C([H])(N([H])C(=O)C([H])(N([H])C([H])([H])[H])C([H])([H])[H])C(C([H])([H])[H])(C([H])([H])[H])C([H])([H])[H])C([H])([H])c2c([H])c(OC([H])([H])C([H])([H])OC([H])([H])C([H])([H])[N+]([H])([H])C([H])([H])C([H])([H])OC([H])([H])C([H])([H])OC([H])([H])C([H])([H])N([H])C(=O)N3C([H])([H])C([H])([H])C([H])([H])C([H])(n4nc(-c5c([H])c([H])c(Oc6c([H])c([H])c(F)c([H])c6F)c([H])c5[H])c(C(=O)N([H])[H])c4N([H])[H])C3([H])[H])c([H])c([H])c2C1([H])[H]

$$$$
7:0:0
     RDKit          3D

 91 98  0  0  1  0  0  0  0  0999 V2000
  -28.6980  -20.4810   20.7070 C   0  0  0  0  0  2  0  0  0  0  0  0
  -29.2900  -18.0250   20.7200 C   0  0  0  0  0  0  0  0  0  0  0  0
  -29.6010  -19.3310   20.8250 N   0  0  0  0  0  0  0  0  0  0  0  0
  -28.1270  -17.6210   20.6350 O   0  0  0  0  0  0  0  0  0  0  0  0
  -30.5860  -19.5460   20.9040 H   0  0  0  0  0  0  0  0  0  0  0  0
  -31.3740  -17.2350   21.9000 C   0  0  0  0  0  1  0  0  0  0  0  0
  -31.2610  -17.3530   19.3520 C   0  0  0  0  0  1  0  0  0  0  0  0
  -30.4780  -17.0240   20.6570 C   0  0  2  0  0  0  0  0  0  0  0  0
  -30.6490  -14.4990   20.3350 C   0  0  0  0  0  0  0  0  0  0  0  0
  -30.2940  -12.3280   19.2400 C   0  0  0  0  0  2  0  0  0  0  0  0
  -29.3590  -12.5250   18.0310 C   0  0  0  0  0  2  0  0  0  0  0  0
  -27.8880  -12.3960   18.4690 C   0  0  0  0  0  2  0  0  0  0  0  0
  -27.5520  -13.2510   19.7230 C   0  0  0  0  0  3  0  0  0  0  0  0
  -28.6160  -13.0780   20.8290 C   0  0  0  0  0  2  0  0  0  0  0  0
  -29.9320  -13.3480   20.2350 N   0  0  0  0  0  0  0  0  0  0  0  0
  -31.8190  -14.5610   19.9590 O   0  0  0  0  0  0  0  0  0  0  0  0
  -29.9760  -15.6220   20.6680 N   0  0  0  0  0  0  0  0  0  0  0  0
  -28.9930  -15.5300   20.8880 H   0  0  0  0  0  0  0  0  0  0  0  0
  -25.1590  -13.8490   20.4480 C   0  0  0  0  0  0  0  0  0  0  0  0
  -24.0930  -13.0740   20.8200 C   0  0  0  0  0  0  0  0  0  0  0  0
  -24.5580  -11.7230   20.7900 C   0  0  0  0  0  0  0  0  0  0  0  0
  -26.2050  -12.9700   20.2140 N   0  0  0  0  0  0  0  0  0  0  0  0
  -25.8470  -11.6870   20.4790 N   0  0  0  0  0  0  0  0  0  0  0  0
  -23.8330  -10.4600   20.9850 C   0  0  0  0  0  0  0  0  0  0  0  0
  -24.2620   -9.5010   21.9300 C   0  0  0  0  0  3  0  0  0  0  0  0
  -23.5370   -8.3030   22.1120 C   0  0  0  0  0  3  0  0  0  0  0  0
  -22.3700   -8.0560   21.3510 C   0  0  0  0  0  0  0  0  0  0  0  0
  -21.9610   -9.0040   20.3970 C   0  0  0  0  0  3  0  0  0  0  0  0
  -22.6860  -10.1930   20.2120 C   0  0  0  0  0  3  0  0  0  0  0  0
  -21.6180   -6.9100   21.4420 O   0  0  0  0  0  0  0  0  0  0  0  0
  -21.5540   -6.1820   22.6030 C   0  0  0  0  0  0  0  0  0  0  0  0
  -21.1090   -6.7510   23.8170 C   0  0  0  0  0  3  0  0  0  0  0  0
  -20.9920   -5.9490   24.9690 C   0  0  0  0  0  3  0  0  0  0  0  0
  -21.3110   -4.5800   24.9100 C   0  0  0  0  0  0  0  0  0  0  0  0
  -21.7490   -4.0100   23.7010 C   0  0  0  0  0  3  0  0  0  0  0  0
  -21.8680   -4.8100   22.5510 C   0  0  0  0  0  0  0  0  0  0  0  0
  -22.2710   -4.2500   21.3840 F   0  0  0  0  0  0  0  0  0  0  0  0
  -21.1910   -3.8070   26.0150 F   0  0  0  0  0  0  0  0  0  0  0  0
  -22.6960  -13.5500   21.0940 C   0  0  0  0  0  0  0  0  0  0  0  0
  -21.9700  -12.8570   21.9640 N   0  0  0  0  0  0  0  0  0  0  0  0
  -22.2570  -14.5750   20.5740 O   0  0  0  0  0  0  0  0  0  0  0  0
  -22.3380  -12.0300   22.4120 H   0  0  0  0  0  0  0  0  0  0  0  0
  -21.0330  -13.1600   22.1880 H   0  0  0  0  0  0  0  0  0  0  0  0
  -25.3190  -15.2200   20.2720 N   0  0  0  0  0  0  0  0  0  0  0  0
  -24.5570  -15.8730   20.4120 H   0  0  0  0  0  0  0  0  0  0  0  0
  -26.1820  -15.6800   20.0030 H   0  0  0  0  0  0  0  0  0  0  0  0
  -29.4650  -21.8330   20.7240 C   0  0  0  0  0  2  0  0  0  0  0  0
  -28.5900  -22.9180   20.4110 O   0  0  0  0  0  0  0  0  0  0  0  0
  -29.1700  -24.2330   20.4730 C   0  0  0  0  0  2  0  0  0  0  0  0
  -28.1230  -25.2340   19.9330 C   0  0  0  0  0  2  0  0  0  0  0  0
  -28.3310  -26.6410   20.2070 O   0  0  0  0  0  0  0  0  0  0  0  0
  -24.5980  -31.9090   23.2760 C   0  0  0  0  0  0  0  0  0  0  0  0
  -27.1910  -27.4340   20.1630 C   0  0  0  0  0  0  0  0  0  0  0  0
  -23.3800  -30.5240   21.6340 C   0  0  0  0  0  3  0  0  0  0  0  0
  -24.8180  -28.9930   20.1910 C   0  0  0  0  0  0  0  0  0  0  0  0
  -25.9130  -30.8560   21.4350 C   0  0  0  0  0  2  0  0  0  0  0  0
  -25.9860  -29.4900   20.7820 C   0  0  0  0  0  0  0  0  0  0  0  0
  -27.1760  -28.7180   20.7660 C   0  0  0  0  0  3  0  0  0  0  0  0
  -25.9990  -26.9800   19.5440 C   0  0  0  0  0  3  0  0  0  0  0  0
  -24.8200  -27.7390   19.5700 C   0  0  0  0  0  3  0  0  0  0  0  0
  -23.5820  -29.8610   20.2480 C   0  0  0  0  0  2  0  0  0  0  0  0
  -24.6490  -31.1100   22.1720 N   0  0  0  0  0  0  0  0  0  0  0  0
  -23.5190  -32.1850   23.8190 O   0  0  0  0  0  0  0  0  0  0  0  0
  -22.7250  -29.4970   22.5870 C   0  0  0  0  0  0  0  0  0  0  0  0
  -21.4000  -29.3200   22.4610 N   0  0  0  0  0  0  0  0  0  0  0  0
  -23.4080  -28.8640   23.3970 O   0  0  0  0  0  0  0  0  0  0  0  0
  -20.9110  -29.8850   21.7810 H   0  0  0  0  0  0  0  0  0  0  0  0
  -18.0190  -28.1410   22.9610 C   0  0  0  0  0  0  0  0  0  0  0  0
  -20.5800  -28.3830   23.2290 C   0  0  0  0  0  3  0  0  0  0  0  0
  -20.6730  -26.9530   22.6460 C   0  0  0  0  0  2  0  0  0  0  0  0
  -19.5670  -26.6400   21.6330 C   0  0  0  0  0  2  0  0  0  0  0  0
  -18.1880  -26.7920   22.2800 C   0  0  0  0  0  2  0  0  0  0  0  0
  -19.1440  -28.8940   23.3920 C   0  0  0  0  0  0  0  0  0  0  0  0
  -18.9330  -30.1560   23.9870 C   0  0  0  0  0  3  0  0  0  0  0  0
  -17.6320  -30.6660   24.1540 C   0  0  0  0  0  3  0  0  0  0  0  0
  -16.5230  -29.9090   23.7400 C   0  0  0  0  0  3  0  0  0  0  0  0
  -16.7180  -28.6480   23.1490 C   0  0  0  0  0  3  0  0  0  0  0  0
  -25.8880  -32.5310   23.8940 C   0  0  0  0  0  3  0  0  0  0  0  0
  -25.5870  -33.9280   24.2290 N   0  0  0  0  0  0  0  0  0  0  0  0
  -25.9040  -34.9790   23.4600 C   0  0  0  0  0  0  0  0  0  0  0  0
  -26.5510  -34.8730   22.4140 O   0  0  0  0  0  0  0  0  0  0  0  0
  -25.0120  -34.0850   25.0430 H   0  0  0  0  0  0  0  0  0  0  0  0
  -24.1560  -36.7600   23.1530 C   0  0  0  0  0  1  0  0  0  0  0  0
  -25.4260  -36.3670   23.9250 C   0  0  0  0  0  3  0  0  0  0  0  0
  -27.5820  -37.2680   24.6790 C   0  0  0  0  0  1  0  0  0  0  0  0
  -26.4500  -37.4240   23.7700 N   0  0  0  0  0  0  0  0  0  0  0  0
  -26.0450  -38.3440   23.9240 H   0  0  0  0  0  0  0  0  0  0  0  0
  -26.4060  -31.7510   25.1640 C   0  0  1  0  0  0  0  0  0  0  0  0
  -25.3140  -31.5120   26.2340 C   0  0  0  0  0  1  0  0  0  0  0  0
  -26.9830  -30.3740   24.7620 C   0  0  0  0  0  1  0  0  0  0  0  0
  -27.5610  -32.5380   25.8260 C   0  0  0  0  0  1  0  0  0  0  0  0
  1 47  1  0
  1  3  1  0
  2  3  1  0
  3  5  1  0
  4  2  2  0
  8  7  1  6
  8 17  1  0
  8  2  1  0
  8  6  1  0
  9 17  1  0
 10 15  1  0
 11 12  1  0
 11 10  1  0
 13 12  1  0
 13 22  1  0
 13 14  1  0
 15  9  1  0
 15 14  1  0
 16  9  2  0
 17 18  1  0
 19 20  2  0
 20 39  1  0
 21 20  1  0
 21 24  1  0
 22 19  1  0
 22 23  1  0
 23 21  2  0
 24 25  1  0
 25 26  2  0
 27 30  1  0
 27 26  1  0
 28 27  2  0
 29 28  1  0
 29 24  2  0
 30 31  1  0
 31 32  1  0
 32 33  2  0
 34 33  1  0
 34 38  1  0
 35 34  2  0
 36 31  2  0
 36 35  1  0
 37 36  1  0
 39 40  1  0
 40 43  1  0
 40 42  1  0
 41 39  2  0
 44 45  1  0
 44 19  1  0
 46 44  1  0
 48 49  1  0
 48 47  1  0
 50 51  1  0
 50 49  1  0
 52 63  2  0
 53 51  1  0
 53 58  1  0
 54 62  1  0
 54 64  1  0
 55 61  1  0
 55 57  1  0
 56 62  1  0
 57 56  1  0
 58 57  2  0
 59 60  1  0
 59 53  2  0
 60 55  2  0
 61 54  1  0
 62 52  1  0
 64 66  2  0
 65 64  1  0
 67 65  1  0
 68 77  2  0
 68 73  1  0
 69 65  1  0
 69 73  1  0
 70 69  1  0
 71 72  1  0
 71 70  1  0
 72 68  1  0
 73 74  2  0
 74 75  1  0
 76 75  2  0
 77 76  1  0
 78 52  1  0
 78 79  1  0
 78 88  1  0
 79 82  1  0
 80 84  1  0
 80 79  1  0
 81 80  2  0
 84 83  1  0
 86 87  1  0
 86 84  1  0
 86 85  1  0
 88 91  1  1
 88 89  1  0
 90 88  1  0
M  ISO  4   9 100  17 100  50 101  51 101
M  END
>  <TORSDO>  (8) 
F 22

>  <SCORE>  (8) 
-13.145

>  <name>  (8) 
7

>  <ligand_id>  (8) 
7

>  <original_smiles>  (8) 
[H]c1c([H])c([H])c2c(c1[H])C([H])([H])C([H])([H])C([H])([H])C2([H])N([H])C(=O)C1([H])N(C(=O)C([H])(N([H])C(=O)C([H])(N([H])C([H])([H])[H])C([H])([H])[H])C(C([H])([H])[H])(C([H])([H])[H])C([H])([H])[H])C([H])([H])c2c([H])c(OC([H])([H])C([H])([H])OC([H])([H])C([H])([H])N([H])C(=O)C(N([H])C(=O)N3C([H])([H])C([H])([H])C([H])([H])C([H])(n4nc(-c5c([H])c([H])c(Oc6c([H])c([H])c(F)c([H])c6F)c([H])c5[H])c(C(=O)N([H])[H])c4N([H])[H])C3([H])[H])(C([H])([H])[H])C([H])([H])[H])c([H])c([H])c2C1([H])[H]

>  <smiles>  (8) 
[H]c1c([H])c([H])c2c(c1[H])C([H])([H])C([H])([H])C([H])([H])C2([H])N([H])C(=O)C1([H])N(C(=O)C([H])(N([H])C(=O)C([H])(N([H])C([H])([H])[H])C([H])([H])[H])C(C([H])([H])[H])(C([H])([H])[H])C([H])([H])[H])C([H])([H])c2c([H])c(OC([H])([H])C([H])([H])OC([H])([H])C([H])([H])N([H])C(=O)C(N([H])C(=O)N3C([H])([H])C([H])([H])C([H])([H])C([H])(n4nc(-c5c([H])c([H])c(Oc6c([H])c([H])c(F)c([H])c6F)c([H])c5[H])c(C(=O)N([H])[H])c4N([H])[H])C3([H])[H])(C([H])([H])[H])C([H])([H])[H])c([H])c([H])c2C1([H])[H]

$$$$
8:0:0
     RDKit          3D

 94102  0  0  1  0  0  0  0  0999 V2000
  -27.7980  -18.5010   19.1810 C   0  0  0  0  0  2  0  0  0  0  0  0
  -27.8840  -17.4690   20.2780 N   0  0  0  0  0  4  0  0  0  0  0  0
  -28.1340  -17.9290   21.1390 H   0  0  0  0  0  0  0  0  0  0  0  0
  -26.9840  -17.0330   20.4250 H   0  0  0  0  0  0  0  0  0  0  0  0
  -28.8960  -16.3930   20.0440 C   0  0  0  0  0  2  0  0  0  0  0  0
  -29.1370  -15.4070   21.2240 C   0  0  0  0  0  2  0  0  0  0  0  0
  -30.0410  -14.4410   20.7010 O   0  0  0  0  0  0  0  0  0  0  0  0
  -30.4180  -13.2520   21.4140 C   0  0  0  0  0  2  0  0  0  0  0  0
  -31.1990  -12.3050   20.3530 C   0  0  0  0  0  3  0  0  0  0  0  0
  -32.7510  -13.1940   20.5400 C   0  0  0  0  0  2  0  0  0  0  0  0
  -35.0300  -12.7030   22.2950 C   0  0  0  0  0  0  0  0  0  0  0  0
  -34.8580  -10.9950   24.1430 C   0  0  0  0  0  2  0  0  0  0  0  0
  -34.6920   -9.5610   23.5180 C   0  0  0  0  0  2  0  0  0  0  0  0
  -33.3980   -9.3220   22.7090 C   0  0  0  0  0  2  0  0  0  0  0  0
  -33.2200  -10.5600   21.8920 C   0  0  0  0  0  3  0  0  0  0  0  0
  -33.0190  -11.6980   22.9390 C   0  0  0  0  0  2  0  0  0  0  0  0
  -34.3490  -12.0310   23.2320 N   0  0  0  0  0  0  0  0  0  0  0  0
  -36.2750  -12.7880   22.4370 O   0  0  0  0  0  0  0  0  0  0  0  0
  -34.2510  -13.0640   21.1520 N   0  0  0  0  0  0  0  0  0  0  0  0
  -34.9000  -13.4310   20.4770 H   0  0  0  0  0  0  0  0  0  0  0  0
  -31.5730  -11.1750   19.4670 C   0  0  2  0  0  0  0  0  0  0  0  0
  -29.8510  -11.0710   19.4300 C   0  0  0  0  0  3  0  0  0  0  0  0
  -29.2400  -10.4590   21.0230 C   0  0  0  0  0  3  0  0  0  0  0  0
  -32.1160  -10.5540   21.1520 N   0  0  0  0  0  0  0  0  0  0  0  0
  -30.5940  -10.1370   22.0830 N   0  0  0  0  0  2  0  0  0  0  0  0
  -28.1170   -9.5800   21.2710 C   0  0  0  0  0  0  0  0  0  0  0  0
  -27.2660   -9.9310   22.3190 C   0  0  0  0  0  3  0  0  0  0  0  0
  -26.1410   -9.1400   22.5970 C   0  0  0  0  0  3  0  0  0  0  0  0
  -25.8790   -7.9800   21.8260 C   0  0  0  0  0  0  0  0  0  0  0  0
  -26.7950   -7.5790   20.8390 C   0  0  0  0  0  3  0  0  0  0  0  0
  -27.9270   -8.3720   20.5670 C   0  0  0  0  0  3  0  0  0  0  0  0
  -24.7580   -7.2160   22.0130 O   0  0  0  0  0  0  0  0  0  0  0  0
  -23.5700   -7.8050   22.3810 C   0  0  0  0  0  0  0  0  0  0  0  0
  -22.9000   -8.7130   21.5370 C   0  0  0  0  0  3  0  0  0  0  0  0
  -21.6660   -9.2650   21.9310 C   0  0  0  0  0  3  0  0  0  0  0  0
  -21.0870   -8.8890   23.1600 C   0  0  0  0  0  0  0  0  0  0  0  0
  -21.7560   -7.9750   24.0050 C   0  0  0  0  0  3  0  0  0  0  0  0
  -22.9920   -7.4350   23.6120 C   0  0  0  0  0  0  0  0  0  0  0  0
  -23.6280   -6.5480   24.4170 F   0  0  0  0  0  0  0  0  0  0  0  0
  -19.8970   -9.3960   23.5370 F   0  0  0  0  0  0  0  0  0  0  0  0
  -29.0080  -11.0610   18.2270 C   0  0  0  0  0  0  0  0  0  0  0  0
  -27.7090  -11.2500   18.4290 N   0  0  0  0  0  0  0  0  0  0  0  0
  -29.5060  -10.8760   17.1290 O   0  0  0  0  0  0  0  0  0  0  0  0
  -27.3670  -11.5800   19.3150 H   0  0  0  0  0  0  0  0  0  0  0  0
  -27.0480  -11.1100   17.6770 H   0  0  0  0  0  0  0  0  0  0  0  0
  -32.4980  -11.6690   18.6020 N   0  0  0  0  0  0  0  0  0  0  0  0
  -32.2630  -12.0150   17.6820 H   0  0  0  0  0  0  0  0  0  0  0  0
  -33.4930  -11.6410   18.7850 H   0  0  0  0  0  0  0  0  0  0  0  0
  -27.5090  -19.9760   19.6390 C   0  0  0  0  0  2  0  0  0  0  0  0
  -27.9570  -20.9860   18.6920 O   0  0  0  0  0  0  0  0  0  0  0  0
  -27.7240  -22.3680   19.0700 C   0  0  0  0  0  2  0  0  0  0  0  0
  -28.5860  -23.3840   18.2340 C   0  0  0  0  0  2  0  0  0  0  0  0
  -28.7920  -24.8080   18.8660 C   0  0  0  0  0  2  0  0  0  0  0  0
  -28.9320  -25.9200   17.9210 O   0  0  0  0  0  0  0  0  0  0  0  0
  -24.8410  -29.7940   22.1330 C   0  0  0  0  0  0  0  0  0  0  0  0
  -27.8140  -26.7170   17.9510 C   0  0  0  0  0  0  0  0  0  0  0  0
  -23.7500  -28.8480   20.1280 C   0  0  0  0  0  3  0  0  0  0  0  0
  -25.3230  -27.9820   18.3180 C   0  0  0  0  0  0  0  0  0  0  0  0
  -26.2240  -29.5050   20.0800 C   0  0  0  0  0  2  0  0  0  0  0  0
  -26.4320  -28.4090   19.0540 C   0  0  0  0  0  0  0  0  0  0  0  0
  -27.6920  -27.7980   18.8560 C   0  0  0  0  0  3  0  0  0  0  0  0
  -26.6960  -26.3290   17.1850 C   0  0  0  0  0  3  0  0  0  0  0  0
  -25.4480  -26.9550   17.3680 C   0  0  0  0  0  3  0  0  0  0  0  0
  -24.0000  -28.6550   18.6090 C   0  0  0  0  0  2  0  0  0  0  0  0
  -24.9550  -29.3820   20.8400 N   0  0  0  0  0  0  0  0  0  0  0  0
  -23.7500  -29.7700   22.7210 O   0  0  0  0  0  0  0  0  0  0  0  0
  -23.2310  -27.5150   20.7150 C   0  0  0  0  0  0  0  0  0  0  0  0
  -21.9080  -27.2940   20.6230 N   0  0  0  0  0  0  0  0  0  0  0  0
  -24.0100  -26.7030   21.2150 O   0  0  0  0  0  0  0  0  0  0  0  0
  -21.3350  -28.0110   20.1980 H   0  0  0  0  0  0  0  0  0  0  0  0
  -18.6250  -25.9090   21.2210 C   0  0  0  0  0  0  0  0  0  0  0  0
  -21.2000  -26.1010   21.0890 C   0  0  0  0  0  3  0  0  0  0  0  0
  -21.1200  -25.0310   19.9750 C   0  0  0  0  0  2  0  0  0  0  0  0
  -19.8360  -25.1210   19.1450 C   0  0  0  0  0  2  0  0  0  0  0  0
  -18.6040  -24.9580   20.0370 C   0  0  0  0  0  2  0  0  0  0  0  0
  -19.8410  -26.4590   21.7060 C   0  0  0  0  0  0  0  0  0  0  0  0
  -19.7990  -27.3630   22.7900 C   0  0  0  0  0  3  0  0  0  0  0  0
  -18.5740  -27.7160   23.3870 C   0  0  0  0  0  3  0  0  0  0  0  0
  -17.3740  -27.1570   22.9100 C   0  0  0  0  0  3  0  0  0  0  0  0
  -17.4020  -26.2520   21.8340 C   0  0  0  0  0  3  0  0  0  0  0  0
  -26.0700  -30.3390   22.9260 C   0  0  0  0  0  3  0  0  0  0  0  0
  -26.7260  -29.2620   23.8740 C   0  0  1  0  0  0  0  0  0  0  0  0
  -25.6990  -28.5050   24.7490 C   0  0  0  0  0  1  0  0  0  0  0  0
  -27.5120  -28.2160   23.0500 C   0  0  0  0  0  1  0  0  0  0  0  0
  -27.7520  -29.9410   24.8130 C   0  0  0  0  0  1  0  0  0  0  0  0
  -25.6220  -31.5050   23.7000 N   0  0  0  0  0  0  0  0  0  0  0  0
  -25.8580  -32.7780   23.3530 C   0  0  0  0  0  0  0  0  0  0  0  0
  -26.5460  -33.0920   22.3760 O   0  0  0  0  0  0  0  0  0  0  0  0
  -25.0070  -31.3230   24.4790 H   0  0  0  0  0  0  0  0  0  0  0  0
  -23.9900  -34.4530   23.5250 C   0  0  0  0  0  1  0  0  0  0  0  0
  -25.2300  -33.8790   24.2290 C   0  0  0  0  0  3  0  0  0  0  0  0
  -27.2080  -34.5720   25.5060 C   0  0  0  0  0  1  0  0  0  0  0  0
  -26.1670  -34.9720   24.5620 N   0  0  0  0  0  0  0  0  0  0  0  0
  -25.6680  -35.7630   24.9610 H   0  0  0  0  0  0  0  0  0  0  0  0
  1 49  1  0
  1  2  1  0
  2  4  1  0
  2  3  1  0
  5  2  1  0
  5  6  1  0
  7  6  1  0
  7  8  1  0
  9 10  1  0
  9  8  1  0
 10 19  1  0
 11 18  2  0
 11 17  1  0
 13 12  1  0
 14 13  1  0
 15 14  1  0
 15 16  1  0
 16 17  1  0
 17 12  1  0
 19 11  1  0
 20 19  1  0
 21 46  1  6
 21  9  1  0
 21 24  1  0
 22 41  1  0
 22 21  1  0
 22 23  1  0
 23 26  1  0
 23 25  1  0
 24 15  1  0
 24 25  1  0
 26 27  1  0
 27 28  2  0
 29 32  1  0
 29 28  1  0
 30 29  2  0
 31 30  1  0
 31 26  2  0
 32 33  1  0
 33 38  1  0
 34 35  1  0
 34 33  2  0
 35 36  2  0
 36 40  1  0
 36 37  1  0
 38 37  2  0
 38 39  1  0
 41 42  1  0
 42 44  1  0
 43 41  2  0
 45 42  1  0
 46 48  1  0
 47 46  1  0
 50 51  1  0
 50 49  1  0
 52 53  1  0
 52 51  1  0
 54 56  1  0
 54 53  1  0
 55 66  2  0
 56 61  1  0
 57 67  1  0
 57 65  1  0
 58 64  1  0
 58 60  1  0
 59 65  1  0
 60 59  1  0
 61 60  2  0
 62 63  1  0
 62 56  2  0
 63 58  2  0
 64 57  1  0
 65 55  1  0
 67 69  2  0
 68 67  1  0
 70 68  1  0
 71 76  2  0
 71 80  1  0
 72 68  1  0
 72 76  1  0
 73 72  1  0
 74 73  1  0
 74 75  1  0
 75 71  1  0
 76 77  1  0
 77 78  2  0
 79 78  1  0
 80 79  2  0
 81 55  1  0
 81 86  1  0
 81 82  1  0
 82 83  1  1
 82 85  1  0
 84 82  1  0
 86 89  1  0
 87 86  1  0
 87 91  1  0
 88 87  2  0
 91 90  1  0
 91 93  1  0
 93 94  1  0
 93 92  1  0
M  ISO  4  11 100  19 100  53 101  54 101
M  END
>  <TORSDO>  (9) 
F 28

>  <SCORE>  (9) 
-2.911

>  <name>  (9) 
8

>  <ligand_id>  (9) 
8

>  <original_smiles>  (9) 
[H]c1c([H])c([H])c2c(c1[H])C([H])([H])C([H])([H])C([H])([H])C2([H])N([H])C(=O)C1([H])N(C(=O)C([H])(N([H])C(=O)C([H])(N([H])C([H])([H])[H])C([H])([H])[H])C(C([H])([H])[H])(C([H])([H])[H])C([H])([H])[H])C([H])([H])c2c([H])c(OC([H])([H])C([H])([H])C([H])([H])OC([H])([H])C([H])([H])[N+]([H])([H])C([H])([H])C([H])([H])OC([H])([H])C([H])([H])C([H])([H])N([H])C(=O)N3C([H])([H])C([H])([H])C([H])([H])C([H])(n4nc(-c5c([H])c([H])c(Oc6c([H])c([H])c(F)c([H])c6F)c([H])c5[H])c(C(=O)N([H])[H])c4N([H])[H])C3([H])[H])c([H])c([H])c2C1([H])[H]

>  <smiles>  (9) 
[H]c1c([H])c([H])c2c(c1[H])C([H])([H])C([H])([H])C([H])([H])C2([H])N([H])C(=O)C1([H])N(C(=O)C([H])(N([H])C(=O)C([H])(N([H])C([H])([H])[H])C([H])([H])[H])C(C([H])([H])[H])(C([H])([H])[H])C([H])([H])[H])C([H])([H])c2c([H])c(OC([H])([H])C([H])([H])C([H])([H])OC([H])([H])C([H])([H])[N+]([H])([H])C([H])([H])C([H])([H])OC([H])([H])C([H])([H])C([H])([H])N([H])C(=O)N3C([H])([H])C([H])([H])C([H])([H])C([H])(n4nc(-c5c([H])c([H])c(Oc6c([H])c([H])c(F)c([H])c6F)c([H])c5[H])c(C(=O)N([H])[H])c4N([H])[H])C3([H])[H])c([H])c([H])c2C1([H])[H]

$$$$
9:0:0
     RDKit          3D

 95102  0  0  1  0  0  0  0  0999 V2000
  -26.1460  -21.8820   20.4950 N   0  0  0  0  0  4  0  0  0  0  0  0
  -25.6530  -22.6200   20.9750 H   0  0  0  0  0  0  0  0  0  0  0  0
  -26.6020  -21.3330   21.2080 H   0  0  0  0  0  0  0  0  0  0  0  0
  -25.1760  -21.0140   19.7860 C   0  0  0  0  0  2  0  0  0  0  0  0
  -25.8010  -19.6400   19.4640 C   0  0  0  0  0  2  0  0  0  0  0  0
  -27.0120  -19.8530   18.7310 O   0  0  0  0  0  0  0  0  0  0  0  0
  -27.9410  -18.7760   18.8080 C   0  0  0  0  0  2  0  0  0  0  0  0
  -29.1980  -19.0580   17.9720 C   0  0  0  0  0  2  0  0  0  0  0  0
  -30.2090  -18.1900   18.4560 O   0  0  0  0  0  0  0  0  0  0  0  0
  -31.5220  -18.5100   18.0180 C   0  0  0  0  0  2  0  0  0  0  0  0
  -32.4760  -18.0580   19.1310 C   0  0  0  0  0  2  0  0  0  0  0  0
  -32.5370  -15.5890   19.0100 C   0  0  0  0  0  0  0  0  0  0  0  0
  -32.3550  -13.1360   19.0090 C   0  0  0  0  0  2  0  0  0  0  0  0
  -31.4060  -12.6050   17.9200 C   0  0  0  0  0  2  0  0  0  0  0  0
  -29.9400  -12.6200   18.3930 C   0  0  0  0  0  2  0  0  0  0  0  0
  -29.5270  -13.9670   19.0450 C   0  0  0  0  0  3  0  0  0  0  0  0
  -30.5800  -14.4090   20.0840 C   0  0  0  0  0  2  0  0  0  0  0  0
  -31.8990  -14.4650   19.4250 N   0  0  0  0  0  0  0  0  0  0  0  0
  -33.4930  -15.5890   18.2280 O   0  0  0  0  0  0  0  0  0  0  0  0
  -32.0890  -16.7180   19.5550 N   0  0  0  0  0  0  0  0  0  0  0  0
  -31.2860  -16.6510   20.1610 H   0  0  0  0  0  0  0  0  0  0  0  0
  -27.3380  -14.9040   20.0380 C   0  0  0  0  0  0  0  0  0  0  0  0
  -26.1860  -14.2890   20.4570 C   0  0  0  0  0  0  0  0  0  0  0  0
  -26.3950  -12.8890   20.2680 C   0  0  0  0  0  0  0  0  0  0  0  0
  -28.1870  -13.8850   19.6330 N   0  0  0  0  0  0  0  0  0  0  0  0
  -27.6250  -12.6630   19.8220 N   0  0  0  0  0  0  0  0  0  0  0  0
  -25.4780  -11.7530   20.4320 C   0  0  0  0  0  0  0  0  0  0  0  0
  -25.7350  -10.7150   21.3570 C   0  0  0  0  0  3  0  0  0  0  0  0
  -24.8240   -9.6460   21.5050 C   0  0  0  0  0  3  0  0  0  0  0  0
  -23.6430   -9.6060   20.7290 C   0  0  0  0  0  0  0  0  0  0  0  0
  -23.4060  -10.6280   19.7900 C   0  0  0  0  0  3  0  0  0  0  0  0
  -24.3150  -11.6870   19.6400 C   0  0  0  0  0  3  0  0  0  0  0  0
  -22.7140   -8.5940   20.7920 O   0  0  0  0  0  0  0  0  0  0  0  0
  -22.4100   -7.9670   21.9740 C   0  0  0  0  0  0  0  0  0  0  0  0
  -21.9000   -8.6760   23.0830 C   0  0  0  0  0  3  0  0  0  0  0  0
  -21.5340   -7.9820   24.2560 C   0  0  0  0  0  3  0  0  0  0  0  0
  -21.6670   -6.5830   24.3170 C   0  0  0  0  0  0  0  0  0  0  0  0
  -22.1660   -5.8730   23.2120 C   0  0  0  0  0  3  0  0  0  0  0  0
  -22.5330   -6.5630   22.0410 C   0  0  0  0  0  0  0  0  0  0  0  0
  -22.9950   -5.8720   20.9730 F   0  0  0  0  0  0  0  0  0  0  0  0
  -21.3070   -5.9170   25.4410 F   0  0  0  0  0  0  0  0  0  0  0  0
  -24.9240  -14.9690   20.9090 C   0  0  0  0  0  0  0  0  0  0  0  0
  -24.1590  -14.3260   21.7840 N   0  0  0  0  0  0  0  0  0  0  0  0
  -24.6330  -16.1010   20.5240 O   0  0  0  0  0  0  0  0  0  0  0  0
  -24.4040  -13.4080   22.1230 H   0  0  0  0  0  0  0  0  0  0  0  0
  -23.3120  -14.7610   22.1210 H   0  0  0  0  0  0  0  0  0  0  0  0
  -27.7260  -16.2380   19.9490 N   0  0  0  0  0  0  0  0  0  0  0  0
  -27.1050  -17.0070   20.1750 H   0  0  0  0  0  0  0  0  0  0  0  0
  -28.6080  -16.5380   19.5500 H   0  0  0  0  0  0  0  0  0  0  0  0
  -27.1920  -22.4900   19.6360 C   0  0  0  0  0  2  0  0  0  0  0  0
  -28.5470  -22.4840   20.3630 C   0  0  0  0  0  2  0  0  0  0  0  0
  -28.6940  -23.5910   21.2520 O   0  0  0  0  0  0  0  0  0  0  0  0
  -28.4440  -24.8600   20.6630 C   0  0  0  0  0  2  0  0  0  0  0  0
  -29.3400  -25.9360   21.3120 C   0  0  0  0  0  2  0  0  0  0  0  0
  -29.3150  -27.2030   20.6370 O   0  0  0  0  0  0  0  0  0  0  0  0
  -24.8880  -31.9600   23.5110 C   0  0  0  0  0  0  0  0  0  0  0  0
  -28.0870  -27.8150   20.5940 C   0  0  0  0  0  0  0  0  0  0  0  0
  -23.9040  -30.4400   21.8250 C   0  0  0  0  0  3  0  0  0  0  0  0
  -25.5640  -29.0660   20.4750 C   0  0  0  0  0  0  0  0  0  0  0  0
  -26.3780  -31.0620   21.7320 C   0  0  0  0  0  2  0  0  0  0  0  0
  -26.6310  -29.7070   21.1140 C   0  0  0  0  0  0  0  0  0  0  0  0
  -27.8980  -29.0850   21.1810 C   0  0  0  0  0  3  0  0  0  0  0  0
  -27.0090  -27.1990   19.9260 C   0  0  0  0  0  3  0  0  0  0  0  0
  -25.7440  -27.8050   19.8830 C   0  0  0  0  0  3  0  0  0  0  0  0
  -24.2400  -29.7920   20.4550 C   0  0  0  0  0  2  0  0  0  0  0  0
  -25.0690  -31.1740   22.4140 N   0  0  0  0  0  0  0  0  0  0  0  0
  -23.7650  -32.1150   24.0070 O   0  0  0  0  0  0  0  0  0  0  0  0
  -23.3260  -29.3550   22.7610 C   0  0  0  0  0  0  0  0  0  0  0  0
  -22.0790  -28.9330   22.4860 N   0  0  0  0  0  0  0  0  0  0  0  0
  -23.9960  -28.8990   23.6900 O   0  0  0  0  0  0  0  0  0  0  0  0
  -21.5940  -29.3650   21.7110 H   0  0  0  0  0  0  0  0  0  0  0  0
  -18.9480  -27.1450   22.5930 C   0  0  0  0  0  0  0  0  0  0  0  0
  -21.3440  -27.8970   23.2120 C   0  0  0  0  0  3  0  0  0  0  0  0
  -21.7880  -26.4850   22.7710 C   0  0  0  0  0  2  0  0  0  0  0  0
  -20.9460  -25.9280   21.6200 C   0  0  0  0  0  2  0  0  0  0  0  0
  -19.4720  -25.8350   22.0260 C   0  0  0  0  0  2  0  0  0  0  0  0
  -19.8280  -28.1250   23.1280 C   0  0  0  0  0  0  0  0  0  0  0  0
  -19.2960  -29.3470   23.5930 C   0  0  0  0  0  3  0  0  0  0  0  0
  -17.9100  -29.5940   23.5380 C   0  0  0  0  0  3  0  0  0  0  0  0
  -17.0420  -28.6120   23.0250 C   0  0  0  0  0  3  0  0  0  0  0  0
  -17.5610  -27.3920   22.5560 C   0  0  0  0  0  3  0  0  0  0  0  0
  -26.0780  -32.7220   24.1790 C   0  0  0  0  0  3  0  0  0  0  0  0
  -26.5300  -32.0880   25.5520 C   0  0  1  0  0  0  0  0  0  0  0  0
  -25.3590  -31.8070   26.5190 C   0  0  0  0  0  1  0  0  0  0  0  0
  -27.2830  -30.7560   25.3220 C   0  0  0  0  0  1  0  0  0  0  0  0
  -27.5230  -33.0370   26.2620 C   0  0  0  0  0  1  0  0  0  0  0  0
  -25.6640  -34.1200   24.3600 N   0  0  0  0  0  0  0  0  0  0  0  0
  -25.9760  -35.1190   23.5230 C   0  0  0  0  0  0  0  0  0  0  0  0
  -26.7150  -34.9710   22.5470 O   0  0  0  0  0  0  0  0  0  0  0  0
  -25.0150  -34.3040   25.1110 H   0  0  0  0  0  0  0  0  0  0  0  0
  -24.1480  -36.7360   22.9090 C   0  0  0  0  0  1  0  0  0  0  0  0
  -25.3710  -36.5070   23.8140 C   0  0  0  0  0  3  0  0  0  0  0  0
  -27.4000  -37.6160   24.6410 C   0  0  0  0  0  1  0  0  0  0  0  0
  -26.3330  -37.6180   23.6430 N   0  0  0  0  0  0  0  0  0  0  0  0
  -25.8580  -38.5160   23.6870 H   0  0  0  0  0  0  0  0  0  0  0  0
  1  2  1  0
  1  3  1  0
  4  1  1  0
  5  4  1  0
  6  7  1  0
  6  5  1  0
  8  9  1  0
  8  7  1  0
 10  9  1  0
 10 11  1  0
 11 20  1  0
 12 18  1  0
 12 20  1  0
 13 18  1  0
 14 15  1  0
 14 13  1  0
 16 15  1  0
 16 25  1  0
 16 17  1  0
 18 17  1  0
 19 12  2  0
 20 21  1  0
 22 23  2  0
 23 42  1  0
 24 27  1  0
 24 23  1  0
 25 26  1  0
 25 22  1  0
 26 24  2  0
 27 28  1  0
 28 29  2  0
 30 33  1  0
 30 29  1  0
 31 30  2  0
 32 31  1  0
 32 27  2  0
 33 34  1  0
 34 39  2  0
 34 35  1  0
 35 36  2  0
 36 37  1  0
 37 41  1  0
 38 37  2  0
 39 38  1  0
 40 39  1  0
 42 43  1  0
 43 46  1  0
 43 45  1  0
 44 42  2  0
 47 22  1  0
 47 48  1  0
 49 47  1  0
 50 51  1  0
 50  1  1  0
 51 52  1  0
 53 52  1  0
 53 54  1  0
 55 54  1  0
 56 67  2  0
 57 55  1  0
 57 62  1  0
 58 66  1  0
 58 68  1  0
 59 61  1  0
 60 66  1  0
 61 62  2  0
 61 60  1  0
 63 57  2  0
 64 63  1  0
 64 59  2  0
 65 59  1  0
 65 58  1  0
 66 56  1  0
 68 70  2  0
 69 68  1  0
 71 69  1  0
 72 77  1  0
 73 69  1  0
 74 73  1  0
 75 76  1  0
 75 74  1  0
 76 72  1  0
 77 73  1  0
 77 78  2  0
 79 78  1  0
 80 79  2  0
 81 72  2  0
 81 80  1  0
 82 56  1  0
 82 87  1  0
 82 83  1  0
 83 86  1  1
 83 84  1  0
 85 83  1  0
 87 90  1  0
 88 92  1  0
 88 87  1  0
 89 88  2  0
 92 91  1  0
 94 95  1  0
 94 92  1  0
 94 93  1  0
M  ISO  4  12 100  20 100  54 101  55 101
M  END
>  <TORSDO>  (10) 
F 29

>  <SCORE>  (10) 
-5.245

>  <name>  (10) 
9

>  <ligand_id>  (10) 
9

>  <original_smiles>  (10) 
[H]c1c([H])c([H])c2c(c1[H])C([H])([H])C([H])([H])C([H])([H])C2([H])N([H])C(=O)C1([H])N(C(=O)C([H])(N([H])C(=O)C([H])(N([H])C([H])([H])[H])C([H])([H])[H])C(C([H])([H])[H])(C([H])([H])[H])C([H])([H])[H])C([H])([H])c2c([H])c(OC([H])([H])C([H])([H])OC([H])([H])C([H])([H])[N+]([H])([H])C([H])([H])C([H])([H])OC([H])([H])C([H])([H])OC([H])([H])C([H])([H])N([H])C(=O)N3C([H])([H])C([H])([H])C([H])([H])C([H])(n4nc(-c5c([H])c([H])c(Oc6c([H])c([H])c(F)c([H])c6F)c([H])c5[H])c(C(=O)N([H])[H])c4N([H])[H])C3([H])[H])c([H])c([H])c2C1([H])[H]

>  <smiles>  (10) 
[H]c1c([H])c([H])c2c(c1[H])C([H])([H])C([H])([H])C([H])([H])C2([H])N([H])C(=O)C1([H])N(C(=O)C([H])(N([H])C(=O)C([H])(N([H])C([H])([H])[H])C([H])([H])[H])C(C([H])([H])[H])(C([H])([H])[H])C([H])([H])[H])C([H])([H])c2c([H])c(OC([H])([H])C([H])([H])OC([H])([H])C([H])([H])[N+]([H])([H])C([H])([H])C([H])([H])OC([H])([H])C([H])([H])OC([H])([H])C([H])([H])N([H])C(=O)N3C([H])([H])C([H])([H])C([H])([H])C([H])(n4nc(-c5c([H])c([H])c(Oc6c([H])c([H])c(F)c([H])c6F)c([H])c5[H])c(C(=O)N([H])[H])c4N([H])[H])C3([H])[H])c([H])c([H])c2C1([H])[H]

$$$$
10:0:0
     RDKit          3D

104111  0  0  1  0  0  0  0  0999 V2000
  -25.5350  -24.7270   26.6450 C   0  0  0  0  0  2  0  0  0  0  0  0
  -25.3500  -24.9140   24.1740 C   0  0  0  0  0  0  0  0  0  0  0  0
  -25.1470  -24.2590   25.3210 N   0  0  0  0  0  0  0  0  0  0  0  0
  -25.7430  -26.0820   24.1350 O   0  0  0  0  0  0  0  0  0  0  0  0
  -24.8900  -23.2850   25.2530 H   0  0  0  0  0  0  0  0  0  0  0  0
  -25.1330  -24.0830   22.8850 C   0  0  0  0  0  3  0  0  0  0  0  0
  -23.2170  -23.0420   21.5360 C   0  0  0  0  0  1  0  0  0  0  0  0
  -23.6810  -24.2350   22.3810 C   0  0  0  0  0  2  0  0  0  0  0  0
  -27.3040  -24.2330   22.0030 C   0  0  0  0  0  3  0  0  0  0  0  0
  -26.0640  -24.4500   21.8230 N   0  0  0  0  0  0  0  0  0  0  0  0
  -28.3910  -24.5930   21.0210 C   0  0  0  0  0  2  0  0  0  0  0  0
  -28.8400  -26.0620   21.1270 C   0  0  0  0  0  2  0  0  0  0  0  0
  -28.4220  -26.7760   19.9710 O   0  0  0  0  0  0  0  0  0  0  0  0
  -24.6130  -31.8690   23.2170 C   0  0  0  0  0  0  0  0  0  0  0  0
  -27.2470  -27.4720   20.0880 C   0  0  0  0  0  0  0  0  0  0  0  0
  -23.3990  -30.4900   21.5580 C   0  0  0  0  0  3  0  0  0  0  0  0
  -24.8500  -28.9530   20.1280 C   0  0  0  0  0  0  0  0  0  0  0  0
  -25.9250  -30.8360   21.3760 C   0  0  0  0  0  2  0  0  0  0  0  0
  -26.0050  -29.4700   20.7320 C   0  0  0  0  0  0  0  0  0  0  0  0
  -27.2060  -28.7320   20.7200 C   0  0  0  0  0  3  0  0  0  0  0  0
  -26.0830  -26.9600   19.4830 C   0  0  0  0  0  3  0  0  0  0  0  0
  -24.8800  -27.6920   19.5060 C   0  0  0  0  0  3  0  0  0  0  0  0
  -23.6110  -29.8190   20.1720 C   0  0  0  0  0  2  0  0  0  0  0  0
  -24.6630  -31.0790   22.1090 N   0  0  0  0  0  0  0  0  0  0  0  0
  -23.5340  -32.1430   23.7600 O   0  0  0  0  0  0  0  0  0  0  0  0
  -22.7390  -29.4630   22.5030 C   0  0  0  0  0  0  0  0  0  0  0  0
  -21.4120  -29.3000   22.3740 N   0  0  0  0  0  0  0  0  0  0  0  0
  -23.4160  -28.8190   23.3090 O   0  0  0  0  0  0  0  0  0  0  0  0
  -20.9230  -29.8790   21.7050 H   0  0  0  0  0  0  0  0  0  0  0  0
  -18.0290  -28.1370   22.8440 C   0  0  0  0  0  0  0  0  0  0  0  0
  -20.5850  -28.3700   23.1410 C   0  0  0  0  0  3  0  0  0  0  0  0
  -20.6780  -26.9340   22.5760 C   0  0  0  0  0  2  0  0  0  0  0  0
  -19.5930  -26.6240   21.5390 C   0  0  0  0  0  2  0  0  0  0  0  0
  -18.1960  -26.7980   22.1450 C   0  0  0  0  0  2  0  0  0  0  0  0
  -19.1510  -28.8840   23.2900 C   0  0  0  0  0  0  0  0  0  0  0  0
  -18.9410  -30.1460   23.8890 C   0  0  0  0  0  3  0  0  0  0  0  0
  -17.6410  -30.6580   24.0540 C   0  0  0  0  0  3  0  0  0  0  0  0
  -16.5320  -29.9070   23.6280 C   0  0  0  0  0  3  0  0  0  0  0  0
  -16.7280  -28.6480   23.0300 C   0  0  0  0  0  3  0  0  0  0  0  0
  -25.9050  -32.4840   23.8450 C   0  0  0  0  0  3  0  0  0  0  0  0
  -25.5950  -33.8640   24.2380 N   0  0  0  0  0  0  0  0  0  0  0  0
  -25.9030  -34.9480   23.5130 C   0  0  0  0  0  0  0  0  0  0  0  0
  -26.5540  -34.8910   22.4660 O   0  0  0  0  0  0  0  0  0  0  0  0
  -25.0270  -33.9820   25.0640 H   0  0  0  0  0  0  0  0  0  0  0  0
  -24.1480  -36.7300   23.2620 C   0  0  0  0  0  1  0  0  0  0  0  0
  -25.4100  -36.3110   24.0330 C   0  0  0  0  0  3  0  0  0  0  0  0
  -27.5580  -37.1810   24.8450 C   0  0  0  0  0  1  0  0  0  0  0  0
  -26.4290  -37.3800   23.9400 N   0  0  0  0  0  0  0  0  0  0  0  0
  -26.0200  -38.2890   24.1440 H   0  0  0  0  0  0  0  0  0  0  0  0
  -26.4500  -31.6640   25.0770 C   0  0  1  0  0  0  0  0  0  0  0  0
  -25.3790  -31.3780   26.1550 C   0  0  0  0  0  1  0  0  0  0  0  0
  -27.0350  -30.3080   24.6200 C   0  0  0  0  0  1  0  0  0  0  0  0
  -27.6070  -32.4400   25.7510 C   0  0  0  0  0  1  0  0  0  0  0  0
  -27.0490  -24.5520   26.8200 C   0  0  0  0  0  2  0  0  0  0  0  0
  -27.3610  -23.2230   26.4140 O   0  0  0  0  0  0  0  0  0  0  0  0
  -28.7050  -23.0500   25.9970 C   0  0  0  0  0  2  0  0  0  0  0  0
  -28.8450  -21.6920   25.3020 C   0  0  0  0  0  2  0  0  0  0  0  0
  -28.0580  -21.6600   24.1180 O   0  0  0  0  0  0  0  0  0  0  0  0
  -28.5040  -20.6630   23.2060 C   0  0  0  0  0  2  0  0  0  0  0  0
  -27.3810  -20.3080   22.2190 C   0  0  0  0  0  2  0  0  0  0  0  0
  -26.3880  -19.5320   22.8810 O   0  0  0  0  0  0  0  0  0  0  0  0
  -26.3910  -18.1410   22.5620 C   0  0  0  0  0  2  0  0  0  0  0  0
  -27.5050  -17.3390   23.2670 C   0  0  0  0  0  2  0  0  0  0  0  0
  -28.7380  -17.3990   22.5530 O   0  0  0  0  0  0  0  0  0  0  0  0
  -29.8400  -16.8940   23.3050 C   0  0  0  0  0  2  0  0  0  0  0  0
  -30.8690  -16.2480   22.3670 C   0  0  0  0  0  2  0  0  0  0  0  0
  -30.7490  -14.3550   20.7280 C   0  0  0  0  0  0  0  0  0  0  0  0
  -30.4230  -12.3130   19.3750 C   0  0  0  0  0  2  0  0  0  0  0  0
  -29.4770  -12.5360   18.1780 C   0  0  0  0  0  2  0  0  0  0  0  0
  -28.0000  -12.3950   18.5970 C   0  0  0  0  0  2  0  0  0  0  0  0
  -27.6650  -13.1990   19.8810 C   0  0  0  0  0  3  0  0  0  0  0  0
  -28.7010  -12.9090   20.9850 C   0  0  0  0  0  2  0  0  0  0  0  0
  -30.0430  -13.2300   20.4570 N   0  0  0  0  0  0  0  0  0  0  0  0
  -31.7670  -14.6920   20.1110 O   0  0  0  0  0  0  0  0  0  0  0  0
  -30.2900  -15.0500   21.7710 N   0  0  0  0  0  0  0  0  0  0  0  0
  -29.4670  -14.6820   22.2230 H   0  0  0  0  0  0  0  0  0  0  0  0
  -25.2580  -13.8170   20.5670 C   0  0  0  0  0  0  0  0  0  0  0  0
  -24.1810  -13.0450   20.9140 C   0  0  0  0  0  0  0  0  0  0  0  0
  -24.6330  -11.6930   20.8690 C   0  0  0  0  0  0  0  0  0  0  0  0
  -26.3010  -12.9310   20.3380 N   0  0  0  0  0  0  0  0  0  0  0  0
  -25.9240  -11.6490   20.5720 N   0  0  0  0  0  0  0  0  0  0  0  0
  -23.8990  -10.4300   21.0380 C   0  0  0  0  0  0  0  0  0  0  0  0
  -24.3540   -9.4230   21.9160 C   0  0  0  0  0  3  0  0  0  0  0  0
  -23.6230   -8.2250   22.0730 C   0  0  0  0  0  3  0  0  0  0  0  0
  -22.4210   -8.0290   21.3540 C   0  0  0  0  0  0  0  0  0  0  0  0
  -21.9850   -9.0250   20.4630 C   0  0  0  0  0  3  0  0  0  0  0  0
  -22.7160  -10.2130   20.3040 C   0  0  0  0  0  3  0  0  0  0  0  0
  -21.6600   -6.8870   21.4240 O   0  0  0  0  0  0  0  0  0  0  0  0
  -21.6840   -6.0740   22.5270 C   0  0  0  0  0  0  0  0  0  0  0  0
  -21.4010   -6.5630   23.8210 C   0  0  0  0  0  3  0  0  0  0  0  0
  -21.3660   -5.6770   24.9160 C   0  0  0  0  0  3  0  0  0  0  0  0
  -21.6050   -4.3040   24.7200 C   0  0  0  0  0  0  0  0  0  0  0  0
  -21.8840   -3.8150   23.4310 C   0  0  0  0  0  3  0  0  0  0  0  0
  -21.9180   -4.6960   22.3380 C   0  0  0  0  0  0  0  0  0  0  0  0
  -22.1650   -4.2160   21.0960 F   0  0  0  0  0  0  0  0  0  0  0  0
  -21.5620   -3.4530   25.7700 F   0  0  0  0  0  0  0  0  0  0  0  0
  -22.7840  -13.5290   21.1800 C   0  0  0  0  0  0  0  0  0  0  0  0
  -22.0440  -12.8290   22.0330 N   0  0  0  0  0  0  0  0  0  0  0  0
  -22.3600  -14.5630   20.6680 O   0  0  0  0  0  0  0  0  0  0  0  0
  -22.4070  -11.9960   22.4730 H   0  0  0  0  0  0  0  0  0  0  0  0
  -21.1090  -13.1390   22.2640 H   0  0  0  0  0  0  0  0  0  0  0  0
  -25.4360  -15.1890   20.4100 N   0  0  0  0  0  0  0  0  0  0  0  0
  -24.6650  -15.8420   20.4980 H   0  0  0  0  0  0  0  0  0  0  0  0
  -26.2910  -15.6190   20.0740 H   0  0  0  0  0  0  0  0  0  0  0  0
  1 54  1  0
  2  3  1  0
  3  1  1  0
  4  2  2  0
  5  3  1  0
  6  8  1  0
  6  2  1  0
  7  8  1  0
 10  9  2  0
 10  6  1  0
 11 12  1  0
 11  9  1  0
 13 15  1  0
 13 12  1  0
 14 25  2  0
 15 20  1  0
 16 24  1  0
 16 26  1  0
 17 23  1  0
 17 19  1  0
 18 24  1  0
 19 18  1  0
 20 19  2  0
 21 22  1  0
 21 15  2  0
 22 17  2  0
 23 16  1  0
 24 14  1  0
 26 28  2  0
 27 26  1  0
 29 27  1  0
 30 39  2  0
 30 35  1  0
 31 27  1  0
 31 35  1  0
 32 31  1  0
 33 34  1  0
 33 32  1  0
 34 30  1  0
 35 36  2  0
 36 37  1  0
 38 37  2  0
 39 38  1  0
 40 14  1  0
 40 41  1  0
 40 50  1  0
 41 44  1  0
 42 46  1  0
 42 41  1  0
 43 42  2  0
 46 45  1  0
 48 46  1  0
 48 49  1  0
 48 47  1  0
 50 53  1  1
 50 51  1  0
 52 50  1  0
 55 54  1  0
 56 55  1  0
 57 56  1  0
 58 57  1  0
 59 58  1  0
 60 61  1  0
 60 59  1  0
 62 61  1  0
 62 63  1  0
 64 63  1  0
 64 65  1  0
 66 65  1  0
 67 75  1  0
 68 73  1  0
 69 70  1  0
 69 68  1  0
 71 70  1  0
 71 80  1  0
 71 72  1  0
 73 67  1  0
 73 72  1  0
 74 67  2  0
 75 76  1  0
 75 66  1  0
 77 78  2  0
 78 97  1  0
 79 78  1  0
 79 82  1  0
 80 77  1  0
 80 81  1  0
 81 79  2  0
 82 83  1  0
 83 84  2  0
 85 88  1  0
 85 84  1  0
 86 85  2  0
 87 86  1  0
 87 82  2  0
 88 89  1  0
 89 90  1  0
 90 91  2  0
 92 91  1  0
 92 96  1  0
 93 92  2  0
 94 89  2  0
 94 93  1  0
 95 94  1  0
 97 98  1  0
 98101  1  0
 98100  1  0
 99 97  2  0
102103  1  0
102 77  1  0
104102  1  0
M  ISO  4  12 101  13 101  67 100  75 100
M  END
>  <TORSDO>  (11) 
F 35

>  <SCORE>  (11) 
31.678

>  <name>  (11) 
10

>  <ligand_id>  (11) 
10

>  <original_smiles>  (11) 
[H]C(=NC([H])(C(=O)N([H])C([H])([H])C([H])([H])OC([H])([H])C([H])([H])OC([H])([H])C([H])([H])OC([H])([H])C([H])([H])OC([H])([H])C([H])([H])N([H])C(=O)N1C([H])([H])C([H])([H])C([H])([H])C([H])(n2nc(-c3c([H])c([H])c(Oc4c([H])c([H])c(F)c([H])c4F)c([H])c3[H])c(C(=O)N([H])[H])c2N([H])[H])C1([H])[H])C([H])([H])C([H])([H])[H])C([H])([H])C([H])([H])Oc1c([H])c([H])c2c(c1[H])C([H])([H])N(C(=O)C([H])(N([H])C(=O)C([H])(N([H])C([H])([H])[H])C([H])([H])[H])C(C([H])([H])[H])(C([H])([H])[H])C([H])([H])[H])C([H])(C(=O)N([H])C1([H])c3c([H])c([H])c([H])c([H])c3C([H])([H])C([H])([H])C1([H])[H])C2([H])[H]

>  <smiles>  (11) 
[H]C(=NC([H])(C(=O)N([H])C([H])([H])C([H])([H])OC([H])([H])C([H])([H])OC([H])([H])C([H])([H])OC([H])([H])C([H])([H])OC([H])([H])C([H])([H])N([H])C(=O)N1C([H])([H])C([H])([H])C([H])([H])C([H])(n2nc(-c3c([H])c([H])c(Oc4c([H])c([H])c(F)c([H])c4F)c([H])c3[H])c(C(=O)N([H])[H])c2N([H])[H])C1([H])[H])C([H])([H])C([H])([H])[H])C([H])([H])C([H])([H])Oc1c([H])c([H])c2c(c1[H])C([H])([H])N(C(=O)C([H])(N([H])C(=O)C([H])(N([H])C([H])([H])[H])C([H])([H])[H])C(C([H])([H])[H])(C([H])([H])[H])C([H])([H])[H])C([H])(C(=O)N([H])C1([H])c3c([H])c([H])c([H])c([H])c3C([H])([H])C([H])([H])C1([H])[H])C2([H])[H]

$$$$
11:0:0
     RDKit          3D

 95102  0  0  1  0  0  0  0  0999 V2000
  -27.2120  -19.8760   20.5110 C   0  0  0  0  0  2  0  0  0  0  0  0
  -27.4030  -18.7580   19.4740 C   0  0  0  0  0  2  0  0  0  0  0  0
  -29.3280  -17.3520   20.1730 C   0  0  0  0  0  0  0  0  0  0  0  0
  -28.7900  -18.2930   19.3770 N   0  0  0  0  0  0  0  0  0  0  0  0
  -28.6470  -16.8120   21.0500 O   0  0  0  0  0  0  0  0  0  0  0  0
  -29.3570  -18.6430   18.6100 H   0  0  0  0  0  0  0  0  0  0  0  0
  -30.8010  -16.8820   20.0500 C   0  0  0  0  0  3  0  0  0  0  0  0
  -31.4740  -14.4300   19.9070 C   0  0  0  0  0  0  0  0  0  0  0  0
  -31.2160  -12.0890   19.1870 C   0  0  0  0  0  2  0  0  0  0  0  0
  -30.2810  -12.0540   17.9610 C   0  0  0  0  0  2  0  0  0  0  0  0
  -28.8010  -12.0010   18.3930 C   0  0  0  0  0  2  0  0  0  0  0  0
  -28.4500  -13.0600   19.4750 C   0  0  0  0  0  3  0  0  0  0  0  0
  -29.4960  -13.0330   20.6100 C   0  0  0  0  0  2  0  0  0  0  0  0
  -30.8290  -13.2410   20.0130 N   0  0  0  0  0  0  0  0  0  0  0  0
  -32.5550  -14.5520   19.3260 O   0  0  0  0  0  0  0  0  0  0  0  0
  -30.8210  -15.4630   20.4430 N   0  0  0  0  0  0  0  0  0  0  0  0
  -29.9970  -15.2080   20.9640 H   0  0  0  0  0  0  0  0  0  0  0  0
  -26.1030  -13.8150   20.2250 C   0  0  0  0  0  0  0  0  0  0  0  0
  -24.9940  -13.1130   20.6170 C   0  0  0  0  0  0  0  0  0  0  0  0
  -25.3690  -11.7370   20.5750 C   0  0  0  0  0  0  0  0  0  0  0  0
  -27.0880  -12.8730   19.9800 N   0  0  0  0  0  0  0  0  0  0  0  0
  -26.6480  -11.6150   20.2410 N   0  0  0  0  0  0  0  0  0  0  0  0
  -24.5690  -10.5230   20.7800 C   0  0  0  0  0  0  0  0  0  0  0  0
  -24.8660   -9.6110   21.8170 C   0  0  0  0  0  3  0  0  0  0  0  0
  -24.0730   -8.4600   22.0080 C   0  0  0  0  0  3  0  0  0  0  0  0
  -22.9700   -8.2100   21.1580 C   0  0  0  0  0  0  0  0  0  0  0  0
  -22.6900   -9.1100   20.1130 C   0  0  0  0  0  3  0  0  0  0  0  0
  -23.4840  -10.2530   19.9220 C   0  0  0  0  0  3  0  0  0  0  0  0
  -22.1580   -7.1050   21.2510 O   0  0  0  0  0  0  0  0  0  0  0  0
  -21.8500   -6.5390   22.4620 C   0  0  0  0  0  0  0  0  0  0  0  0
  -21.1810   -7.2620   23.4740 C   0  0  0  0  0  3  0  0  0  0  0  0
  -20.8210   -6.6210   24.6760 C   0  0  0  0  0  3  0  0  0  0  0  0
  -21.1200   -5.2590   24.8650 C   0  0  0  0  0  0  0  0  0  0  0  0
  -21.7800   -4.5360   23.8570 C   0  0  0  0  0  3  0  0  0  0  0  0
  -22.1420   -5.1740   22.6580 C   0  0  0  0  0  0  0  0  0  0  0  0
  -22.7600   -4.4680   21.6810 F   0  0  0  0  0  0  0  0  0  0  0  0
  -20.7670   -4.6420   26.0170 F   0  0  0  0  0  0  0  0  0  0  0  0
  -23.6370  -13.6790   20.9230 C   0  0  0  0  0  0  0  0  0  0  0  0
  -22.8980  -13.0420   21.8240 N   0  0  0  0  0  0  0  0  0  0  0  0
  -23.2430  -14.7180   20.3980 O   0  0  0  0  0  0  0  0  0  0  0  0
  -23.2270  -12.2000   22.2710 H   0  0  0  0  0  0  0  0  0  0  0  0
  -21.9880  -13.4050   22.0730 H   0  0  0  0  0  0  0  0  0  0  0  0
  -26.3450  -15.1700   20.0430 N   0  0  0  0  0  0  0  0  0  0  0  0
  -25.6350  -15.8690   20.2120 H   0  0  0  0  0  0  0  0  0  0  0  0
  -27.2380  -15.5570   19.7680 H   0  0  0  0  0  0  0  0  0  0  0  0
  -31.4590  -17.2390   18.6880 C   0  0  0  0  0  0  0  0  0  0  0  0
  -30.8950  -16.9130   17.6200 O   0  0  0  0  0  0  0  0  0  0  0  0
  -32.5710  -17.8100   18.7060 O   0  0  0  0  0  1  0  0  0  0  0  0
  -27.6900  -21.1100   19.9830 O   0  0  0  0  0  0  0  0  0  0  0  0
  -27.0470  -22.2420   20.5660 C   0  0  0  0  0  2  0  0  0  0  0  0
  -27.3220  -23.5030   19.7210 C   0  0  0  0  0  2  0  0  0  0  0  0
  -28.4780  -24.2270   20.1380 O   0  0  0  0  0  0  0  0  0  0  0  0
  -28.2810  -24.9900   21.3280 C   0  0  0  0  0  2  0  0  0  0  0  0
  -29.1990  -26.2280   21.3180 C   0  0  0  0  0  2  0  0  0  0  0  0
  -28.9830  -27.0690   20.1820 O   0  0  0  0  0  0  0  0  0  0  0  0
  -24.6310  -31.8000   23.2180 C   0  0  0  0  0  0  0  0  0  0  0  0
  -27.7670  -27.7010   20.1690 C   0  0  0  0  0  0  0  0  0  0  0  0
  -23.6120  -30.3270   21.5090 C   0  0  0  0  0  3  0  0  0  0  0  0
  -25.2490  -28.9550   20.1180 C   0  0  0  0  0  0  0  0  0  0  0  0
  -26.0970  -30.9210   21.4090 C   0  0  0  0  0  2  0  0  0  0  0  0
  -26.3290  -29.5760   20.7600 C   0  0  0  0  0  0  0  0  0  0  0  0
  -27.5920  -28.9530   20.7910 C   0  0  0  0  0  3  0  0  0  0  0  0
  -26.6830  -27.0930   19.5070 C   0  0  0  0  0  3  0  0  0  0  0  0
  -25.4190  -27.7080   19.4910 C   0  0  0  0  0  3  0  0  0  0  0  0
  -23.9310  -29.6930   20.1280 C   0  0  0  0  0  2  0  0  0  0  0  0
  -24.7950  -31.0310   22.1060 N   0  0  0  0  0  0  0  0  0  0  0  0
  -23.5120  -31.9620   23.7240 O   0  0  0  0  0  0  0  0  0  0  0  0
  -23.0240  -29.2340   22.4300 C   0  0  0  0  0  0  0  0  0  0  0  0
  -21.7140  -28.9760   22.2880 N   0  0  0  0  0  0  0  0  0  0  0  0
  -23.7430  -28.6200   23.2230 O   0  0  0  0  0  0  0  0  0  0  0  0
  -21.1910  -29.5330   21.6250 H   0  0  0  0  0  0  0  0  0  0  0  0
  -18.4010  -27.6210   22.7900 C   0  0  0  0  0  0  0  0  0  0  0  0
  -20.9540  -27.9610   23.0170 C   0  0  0  0  0  3  0  0  0  0  0  0
  -21.0960  -26.5730   22.3460 C   0  0  0  0  0  2  0  0  0  0  0  0
  -19.9750  -26.2660   21.3460 C   0  0  0  0  0  2  0  0  0  0  0  0
  -18.6090  -26.3180   22.0360 C   0  0  0  0  0  2  0  0  0  0  0  0
  -19.5010  -28.3980   23.2380 C   0  0  0  0  0  0  0  0  0  0  0  0
  -19.2520  -29.6190   23.9030 C   0  0  0  0  0  3  0  0  0  0  0  0
  -17.9330  -30.0600   24.1260 C   0  0  0  0  0  3  0  0  0  0  0  0
  -16.8480  -29.2790   23.6940 C   0  0  0  0  0  3  0  0  0  0  0  0
  -17.0840  -28.0590   23.0340 C   0  0  0  0  0  3  0  0  0  0  0  0
  -25.8340  -32.5290   23.8930 C   0  0  0  0  0  3  0  0  0  0  0  0
  -26.3160  -31.8340   25.2260 C   0  0  1  0  0  0  0  0  0  0  0  0
  -25.1740  -31.5570   26.2300 C   0  0  0  0  0  1  0  0  0  0  0  0
  -27.0110  -30.4880   24.9170 C   0  0  0  0  0  1  0  0  0  0  0  0
  -27.3650  -32.7250   25.9340 C   0  0  0  0  0  1  0  0  0  0  0  0
  -25.4220  -33.9160   24.1490 N   0  0  0  0  0  0  0  0  0  0  0  0
  -25.7260  -34.9560   23.3610 C   0  0  0  0  0  0  0  0  0  0  0  0
  -26.4540  -34.8560   22.3690 O   0  0  0  0  0  0  0  0  0  0  0  0
  -24.7790  -34.0630   24.9130 H   0  0  0  0  0  0  0  0  0  0  0  0
  -23.8970  -36.6070   22.8580 C   0  0  0  0  0  1  0  0  0  0  0  0
  -25.1280  -36.3260   23.7330 C   0  0  0  0  0  3  0  0  0  0  0  0
  -27.1580  -37.3980   24.6040 C   0  0  0  0  0  1  0  0  0  0  0  0
  -26.0910  -37.4410   23.6090 N   0  0  0  0  0  0  0  0  0  0  0  0
  -25.6170  -38.3370   23.6890 H   0  0  0  0  0  0  0  0  0  0  0  0
  2  1  1  0
  3  5  2  0
  4  2  1  0
  4  3  1  0
  6  4  1  0
  7 46  1  0
  7  3  1  0
  7 16  1  0
  8 14  1  0
  8 16  1  0
  9 14  1  0
 10 11  1  0
 10  9  1  0
 12 11  1  0
 12 21  1  0
 12 13  1  0
 14 13  1  0
 15  8  2  0
 16 17  1  0
 18 19  2  0
 19 38  1  0
 20 19  1  0
 20 23  1  0
 21 18  1  0
 21 22  1  0
 22 20  2  0
 23 24  1  0
 24 25  2  0
 26 29  1  0
 26 25  1  0
 27 26  2  0
 28 27  1  0
 28 23  2  0
 29 30  1  0
 30 35  2  0
 30 31  1  0
 31 32  2  0
 32 33  1  0
 33 37  1  0
 34 33  2  0
 35 34  1  0
 36 35  1  0
 38 39  1  0
 39 42  1  0
 39 41  1  0
 40 38  2  0
 43 44  1  0
 43 18  1  0
 45 43  1  0
 46 48  1  0
 47 46  2  0
 49  1  1  0
 49 50  1  0
 51 52  1  0
 51 50  1  0
 52 53  1  0
 54 53  1  0
 55 54  1  0
 56 67  2  0
 57 55  1  0
 57 62  1  0
 58 66  1  0
 58 68  1  0
 59 65  1  0
 59 61  1  0
 60 66  1  0
 61 62  2  0
 61 60  1  0
 63 57  2  0
 64 63  1  0
 64 59  2  0
 65 58  1  0
 66 56  1  0
 68 70  2  0
 69 68  1  0
 71 69  1  0
 72 81  2  0
 72 77  1  0
 73 69  1  0
 73 77  1  0
 74 73  1  0
 75 76  1  0
 75 74  1  0
 76 72  1  0
 77 78  2  0
 78 79  1  0
 80 79  2  0
 81 80  1  0
 82 56  1  0
 82 87  1  0
 82 83  1  0
 83 86  1  1
 83 84  1  0
 85 83  1  0
 87 90  1  0
 88 92  1  0
 88 87  1  0
 89 88  2  0
 92 91  1  0
 94 95  1  0
 94 92  1  0
 94 93  1  0
M  ISO  4   8 100  16 100  54 101  55 101
M  END
>  <TORSDO>  (12) 
F 26

>  <SCORE>  (12) 
-9.698

>  <name>  (12) 
11

>  <ligand_id>  (12) 
11

>  <original_smiles>  (12) 
[H]c1c([H])c([H])c2c(c1[H])C([H])([H])C([H])([H])C([H])([H])C2([H])N([H])C(=O)C1([H])N(C(=O)C([H])(N([H])C(=O)C([H])(N([H])C([H])([H])[H])C([H])([H])[H])C(C([H])([H])[H])(C([H])([H])[H])C([H])([H])[H])C([H])([H])c2c([H])c(OC([H])([H])C([H])([H])OC([H])([H])C([H])([H])OC([H])([H])C([H])([H])N([H])C(=O)C([H])(C(=O)[O-])N([H])C(=O)N3C([H])([H])C([H])([H])C([H])([H])C([H])(n4nc(-c5c([H])c([H])c(Oc6c([H])c([H])c(F)c([H])c6F)c([H])c5[H])c(C(=O)N([H])[H])c4N([H])[H])C3([H])[H])c([H])c([H])c2C1([H])[H]

>  <smiles>  (12) 
[H]c1c([H])c([H])c2c(c1[H])C([H])([H])C([H])([H])C([H])([H])C2([H])N([H])C(=O)C1([H])N(C(=O)C([H])(N([H])C(=O)C([H])(N([H])C([H])([H])[H])C([H])([H])[H])C(C([H])([H])[H])(C([H])([H])[H])C([H])([H])[H])C([H])([H])c2c([H])c(OC([H])([H])C([H])([H])OC([H])([H])C([H])([H])OC([H])([H])C([H])([H])N([H])C(=O)C([H])(C(=O)[O-])N([H])C(=O)N3C([H])([H])C([H])([H])C([H])([H])C([H])(n4nc(-c5c([H])c([H])c(Oc6c([H])c([H])c(F)c([H])c6F)c([H])c5[H])c(C(=O)N([H])[H])c4N([H])[H])C3([H])[H])c([H])c([H])c2C1([H])[H]

$$$$
12:0:0
     RDKit          3D

 99106  0  0  1  0  0  0  0  0999 V2000
  -24.9430  -23.4650   18.8650 C   0  0  0  0  0  2  0  0  0  0  0  0
  -24.2430  -22.8800   20.0290 N   0  0  0  0  0  4  0  0  0  0  0  0
  -24.5180  -21.9140   20.1160 H   0  0  0  0  0  0  0  0  0  0  0  0
  -23.2500  -22.8950   19.8470 H   0  0  0  0  0  0  0  0  0  0  0  0
  -24.4860  -23.5620   21.3260 C   0  0  0  0  0  2  0  0  0  0  0  0
  -25.9560  -23.5010   21.7980 C   0  0  0  0  0  2  0  0  0  0  0  0
  -26.6420  -24.6480   21.3180 O   0  0  0  0  0  0  0  0  0  0  0  0
  -28.0610  -24.5690   21.4310 C   0  0  0  0  0  2  0  0  0  0  0  0
  -28.6680  -25.9830   21.5040 C   0  0  0  0  0  2  0  0  0  0  0  0
  -28.4750  -26.7220   20.2970 O   0  0  0  0  0  0  0  0  0  0  0  0
  -24.7090  -31.8710   23.4430 C   0  0  0  0  0  0  0  0  0  0  0  0
  -27.3350  -27.4820   20.3060 C   0  0  0  0  0  0  0  0  0  0  0  0
  -23.5010  -30.5120   21.7630 C   0  0  0  0  0  3  0  0  0  0  0  0
  -24.9530  -28.9840   20.3240 C   0  0  0  0  0  0  0  0  0  0  0  0
  -26.0280  -30.8530   21.5940 C   0  0  0  0  0  2  0  0  0  0  0  0
  -26.1060  -29.4920   20.9370 C   0  0  0  0  0  0  0  0  0  0  0  0
  -27.3020  -28.7450   20.9340 C   0  0  0  0  0  3  0  0  0  0  0  0
  -26.1790  -26.9910   19.6740 C   0  0  0  0  0  3  0  0  0  0  0  0
  -24.9790  -27.7280   19.6920 C   0  0  0  0  0  3  0  0  0  0  0  0
  -23.7160  -29.8530   20.3730 C   0  0  0  0  0  2  0  0  0  0  0  0
  -24.7640  -31.0900   22.3280 N   0  0  0  0  0  0  0  0  0  0  0  0
  -23.6250  -32.1490   23.9750 O   0  0  0  0  0  0  0  0  0  0  0  0
  -22.8290  -29.4820   22.6990 C   0  0  0  0  0  0  0  0  0  0  0  0
  -21.5070  -29.3040   22.5390 N   0  0  0  0  0  0  0  0  0  0  0  0
  -23.4930  -28.8490   23.5240 O   0  0  0  0  0  0  0  0  0  0  0  0
  -21.0340  -29.8690   21.8490 H   0  0  0  0  0  0  0  0  0  0  0  0
  -18.1200  -28.1160   22.9360 C   0  0  0  0  0  0  0  0  0  0  0  0
  -20.6700  -28.3610   23.2780 C   0  0  0  0  0  3  0  0  0  0  0  0
  -20.7830  -26.9350   22.6890 C   0  0  0  0  0  2  0  0  0  0  0  0
  -19.7070  -26.6280   21.6440 C   0  0  0  0  0  2  0  0  0  0  0  0
  -18.3100  -26.7710   22.2530 C   0  0  0  0  0  2  0  0  0  0  0  0
  -19.2290  -28.8690   23.4030 C   0  0  0  0  0  0  0  0  0  0  0  0
  -19.0010  -30.1290   23.9980 C   0  0  0  0  0  3  0  0  0  0  0  0
  -17.6940  -30.6350   24.1320 C   0  0  0  0  0  3  0  0  0  0  0  0
  -16.5980  -29.8780   23.6830 C   0  0  0  0  0  3  0  0  0  0  0  0
  -16.8120  -28.6200   23.0910 C   0  0  0  0  0  3  0  0  0  0  0  0
  -25.9970  -32.4720   24.0880 C   0  0  0  0  0  3  0  0  0  0  0  0
  -25.7240  -33.8830   24.3930 N   0  0  0  0  0  0  0  0  0  0  0  0
  -26.1060  -34.9130   23.6280 C   0  0  0  0  0  0  0  0  0  0  0  0
  -26.7980  -34.7740   22.6150 O   0  0  0  0  0  0  0  0  0  0  0  0
  -25.1190  -34.0680   25.1790 H   0  0  0  0  0  0  0  0  0  0  0  0
  -24.4380  -36.7450   23.2030 C   0  0  0  0  0  1  0  0  0  0  0  0
  -25.6470  -36.3210   24.0520 C   0  0  0  0  0  3  0  0  0  0  0  0
  -27.7850  -37.1580   24.9200 C   0  0  0  0  0  1  0  0  0  0  0  0
  -26.7110  -37.3440   23.9480 N   0  0  0  0  0  0  0  0  0  0  0  0
  -26.3290  -38.2780   24.0710 H   0  0  0  0  0  0  0  0  0  0  0  0
  -26.4620  -31.7010   25.3840 C   0  0  1  0  0  0  0  0  0  0  0  0
  -25.3360  -31.4950   26.4240 C   0  0  0  0  0  1  0  0  0  0  0  0
  -27.0200  -30.3080   25.0130 C   0  0  0  0  0  1  0  0  0  0  0  0
  -27.6130  -32.4730   26.0720 C   0  0  0  0  0  1  0  0  0  0  0  0
  -24.7650  -22.6310   17.5790 C   0  0  0  0  0  2  0  0  0  0  0  0
  -26.0280  -22.6600   16.7080 C   0  0  0  0  0  2  0  0  0  0  0  0
  -27.0070  -21.8920   17.3960 O   0  0  0  0  0  0  0  0  0  0  0  0
  -28.3100  -22.4600   17.3880 C   0  0  0  0  0  2  0  0  0  0  0  0
  -29.2520  -21.5090   18.1350 C   0  0  0  0  0  2  0  0  0  0  0  0
  -28.7800  -21.3450   19.4720 O   0  0  0  0  0  0  0  0  0  0  0  0
  -29.4840  -20.3620   20.2250 C   0  0  0  0  0  2  0  0  0  0  0  0
  -29.1510  -18.9180   19.7880 C   0  0  0  0  0  2  0  0  0  0  0  0
  -29.4000  -17.9520   20.8080 O   0  0  0  0  0  0  0  0  0  0  0  0
  -30.7790  -17.7280   21.0750 C   0  0  0  0  0  2  0  0  0  0  0  0
  -30.9330  -16.5860   22.0980 C   0  0  0  0  0  2  0  0  0  0  0  0
  -30.8780  -14.5270   20.7010 C   0  0  0  0  0  0  0  0  0  0  0  0
  -30.4940  -12.5650   19.2630 C   0  0  0  0  0  2  0  0  0  0  0  0
  -29.5620  -12.9320   18.0930 C   0  0  0  0  0  2  0  0  0  0  0  0
  -28.0820  -12.8080   18.5050 C   0  0  0  0  0  2  0  0  0  0  0  0
  -27.7720  -13.5070   19.8560 C   0  0  0  0  0  3  0  0  0  0  0  0
  -28.8080  -13.1030   20.9270 C   0  0  0  0  0  2  0  0  0  0  0  0
  -30.1500  -13.4210   20.4070 N   0  0  0  0  0  0  0  0  0  0  0  0
  -31.9430  -14.8090   20.1470 O   0  0  0  0  0  0  0  0  0  0  0  0
  -30.3480  -15.3280   21.6310 N   0  0  0  0  0  0  0  0  0  0  0  0
  -29.4690  -15.0450   22.0360 H   0  0  0  0  0  0  0  0  0  0  0  0
  -25.3520  -14.1120   20.4940 C   0  0  0  0  0  0  0  0  0  0  0  0
  -24.2750  -13.3370   20.8360 C   0  0  0  0  0  0  0  0  0  0  0  0
  -24.7410  -11.9870   20.8180 C   0  0  0  0  0  0  0  0  0  0  0  0
  -26.4060  -13.2340   20.2950 N   0  0  0  0  0  0  0  0  0  0  0  0
  -26.0370  -11.9500   20.5410 N   0  0  0  0  0  0  0  0  0  0  0  0
  -24.0130  -10.7230   20.9920 C   0  0  0  0  0  0  0  0  0  0  0  0
  -24.4220   -9.7630   21.9450 C   0  0  0  0  0  3  0  0  0  0  0  0
  -23.6980   -8.5620   22.1070 C   0  0  0  0  0  3  0  0  0  0  0  0
  -22.5520   -8.3120   21.3150 C   0  0  0  0  0  0  0  0  0  0  0  0
  -22.1640   -9.2600   20.3510 C   0  0  0  0  0  3  0  0  0  0  0  0
  -22.8880  -10.4520   20.1880 C   0  0  0  0  0  3  0  0  0  0  0  0
  -21.8030   -7.1630   21.3850 O   0  0  0  0  0  0  0  0  0  0  0  0
  -21.7070   -6.4340   22.5430 C   0  0  0  0  0  0  0  0  0  0  0  0
  -21.2190   -7.0000   23.7400 C   0  0  0  0  0  3  0  0  0  0  0  0
  -21.0700   -6.1980   24.8900 C   0  0  0  0  0  3  0  0  0  0  0  0
  -21.3990   -4.8300   24.8410 C   0  0  0  0  0  0  0  0  0  0  0  0
  -21.8810   -4.2640   23.6480 C   0  0  0  0  0  3  0  0  0  0  0  0
  -22.0310   -5.0630   22.5010 C   0  0  0  0  0  0  0  0  0  0  0  0
  -22.4750   -4.5070   21.3480 F   0  0  0  0  0  0  0  0  0  0  0  0
  -21.2490   -4.0580   25.9420 F   0  0  0  0  0  0  0  0  0  0  0  0
  -22.8700  -13.8090   21.0740 C   0  0  0  0  0  0  0  0  0  0  0  0
  -22.1250  -13.1170   21.9290 N   0  0  0  0  0  0  0  0  0  0  0  0
  -22.4390  -14.8280   20.5360 O   0  0  0  0  0  0  0  0  0  0  0  0
  -22.4870  -12.2940   22.3890 H   0  0  0  0  0  0  0  0  0  0  0  0
  -21.1800  -13.4120   22.1260 H   0  0  0  0  0  0  0  0  0  0  0  0
  -25.5190  -15.4830   20.3200 N   0  0  0  0  0  0  0  0  0  0  0  0
  -24.7550  -16.1420   20.4260 H   0  0  0  0  0  0  0  0  0  0  0  0
  -26.3860  -15.9210   20.0330 H   0  0  0  0  0  0  0  0  0  0  0  0
  1  2  1  0
  2  3  1  0
  2  5  1  0
  4  2  1  0
  5  6  1  0
  7  8  1  0
  7  6  1  0
  8  9  1  0
 10 12  1  0
 10  9  1  0
 11 22  2  0
 12 17  1  0
 13 21  1  0
 13 23  1  0
 14 20  1  0
 14 16  1  0
 15 21  1  0
 16 15  1  0
 17 16  2  0
 18 19  1  0
 18 12  2  0
 19 14  2  0
 20 13  1  0
 21 11  1  0
 23 25  2  0
 24 23  1  0
 26 24  1  0
 27 36  2  0
 27 32  1  0
 28 24  1  0
 28 32  1  0
 29 28  1  0
 30 31  1  0
 30 29  1  0
 31 27  1  0
 32 33  2  0
 33 34  1  0
 35 34  2  0
 36 35  1  0
 37 11  1  0
 37 38  1  0
 37 47  1  0
 38 41  1  0
 39 43  1  0
 39 38  1  0
 40 39  2  0
 43 42  1  0
 45 43  1  0
 45 46  1  0
 45 44  1  0
 47 50  1  1
 47 48  1  0
 49 47  1  0
 51  1  1  0
 52 53  1  0
 52 51  1  0
 54 53  1  0
 54 55  1  0
 55 56  1  0
 56 57  1  0
 58 57  1  0
 58 59  1  0
 59 60  1  0
 60 61  1  0
 62 70  1  0
 63 68  1  0
 64 65  1  0
 64 63  1  0
 66 65  1  0
 66 75  1  0
 66 67  1  0
 68 62  1  0
 68 67  1  0
 69 62  2  0
 70 71  1  0
 70 61  1  0
 72 73  2  0
 73 92  1  0
 74 73  1  0
 74 77  1  0
 75 72  1  0
 75 76  1  0
 76 74  2  0
 77 78  1  0
 78 79  2  0
 80 83  1  0
 80 79  1  0
 81 80  2  0
 82 81  1  0
 82 77  2  0
 83 84  1  0
 84 85  1  0
 85 86  2  0
 87 86  1  0
 87 91  1  0
 88 87  2  0
 89 84  2  0
 89 88  1  0
 90 89  1  0
 92 93  1  0
 93 96  1  0
 93 95  1  0
 94 92  2  0
 97 98  1  0
 97 72  1  0
 99 97  1  0
M  ISO  4   9 101  10 101  62 100  70 100
M  END
>  <TORSDO>  (13) 
F 33

>  <SCORE>  (13) 
-9.775

>  <name>  (13) 
12

>  <ligand_id>  (13) 
12

>  <original_smiles>  (13) 
[H]c1c([H])c([H])c2c(c1[H])C([H])([H])C([H])([H])C([H])([H])C2([H])N([H])C(=O)C1([H])N(C(=O)C([H])(N([H])C(=O)C([H])(N([H])C([H])([H])[H])C([H])([H])[H])C(C([H])([H])[H])(C([H])([H])[H])C([H])([H])[H])C([H])([H])c2c([H])c(OC([H])([H])C([H])([H])OC([H])([H])C([H])([H])[N+]([H])([H])C([H])([H])C([H])([H])C([H])([H])OC([H])([H])C([H])([H])OC([H])([H])C([H])([H])OC([H])([H])C([H])([H])N([H])C(=O)N3C([H])([H])C([H])([H])C([H])([H])C([H])(n4nc(-c5c([H])c([H])c(Oc6c([H])c([H])c(F)c([H])c6F)c([H])c5[H])c(C(=O)N([H])[H])c4N([H])[H])C3([H])[H])c([H])c([H])c2C1([H])[H]

>  <smiles>  (13) 
[H]c1c([H])c([H])c2c(c1[H])C([H])([H])C([H])([H])C([H])([H])C2([H])N([H])C(=O)C1([H])N(C(=O)C([H])(N([H])C(=O)C([H])(N([H])C([H])([H])[H])C([H])([H])[H])C(C([H])([H])[H])(C([H])([H])[H])C([H])([H])[H])C([H])([H])c2c([H])c(OC([H])([H])C([H])([H])OC([H])([H])C([H])([H])[N+]([H])([H])C([H])([H])C([H])([H])C([H])([H])OC([H])([H])C([H])([H])OC([H])([H])C([H])([H])OC([H])([H])C([H])([H])N([H])C(=O)N3C([H])([H])C([H])([H])C([H])([H])C([H])(n4nc(-c5c([H])c([H])c(Oc6c([H])c([H])c(F)c([H])c6F)c([H])c5[H])c(C(=O)N([H])[H])c4N([H])[H])C3([H])[H])c([H])c([H])c2C1([H])[H]

$$$$
13:0:0
     RDKit          3D

 95102  0  0  1  0  0  0  0  0999 V2000
  -28.7080  -20.1580   18.0230 C   0  0  0  0  0  0  0  0  0  0  0  0
  -27.7360  -20.3810   18.9200 N   0  0  0  0  0  0  0  0  0  0  0  0
  -28.8770  -20.8690   17.0290 O   0  0  0  0  0  0  0  0  0  0  0  0
  -27.6730  -19.7420   19.7010 H   0  0  0  0  0  0  0  0  0  0  0  0
  -26.7460  -21.4560   18.8550 C   0  0  0  0  0  2  0  0  0  0  0  0
  -27.0170  -22.5600   19.8940 C   0  0  0  0  0  2  0  0  0  0  0  0
  -28.3290  -23.0900   19.7350 O   0  0  0  0  0  0  0  0  0  0  0  0
  -28.5420  -24.3110   20.4450 C   0  0  0  0  0  2  0  0  0  0  0  0
  -28.6030  -25.5000   19.4690 C   0  0  0  0  0  2  0  0  0  0  0  0
  -28.4520  -26.7470   20.1580 O   0  0  0  0  0  0  0  0  0  0  0  0
  -24.5880  -31.8650   23.2330 C   0  0  0  0  0  0  0  0  0  0  0  0
  -27.2400  -27.4110   20.1690 C   0  0  0  0  0  0  0  0  0  0  0  0
  -23.3900  -30.4660   21.5830 C   0  0  0  0  0  3  0  0  0  0  0  0
  -24.8440  -28.9200   20.1780 C   0  0  0  0  0  0  0  0  0  0  0  0
  -25.9190  -30.8140   21.4070 C   0  0  0  0  0  2  0  0  0  0  0  0
  -26.0000  -29.4430   20.7670 C   0  0  0  0  0  0  0  0  0  0  0  0
  -27.1970  -28.6960   20.7610 C   0  0  0  0  0  3  0  0  0  0  0  0
  -26.0500  -26.8850   19.6150 C   0  0  0  0  0  3  0  0  0  0  0  0
  -24.8610  -27.6390   19.6070 C   0  0  0  0  0  3  0  0  0  0  0  0
  -23.6040  -29.7830   20.2070 C   0  0  0  0  0  2  0  0  0  0  0  0
  -24.6500  -31.0600   22.1330 N   0  0  0  0  0  0  0  0  0  0  0  0
  -23.5040  -32.1410   23.7630 O   0  0  0  0  0  0  0  0  0  0  0  0
  -22.7280  -29.4470   22.5370 C   0  0  0  0  0  0  0  0  0  0  0  0
  -21.4060  -29.2660   22.3940 N   0  0  0  0  0  0  0  0  0  0  0  0
  -23.4000  -28.8220   23.3620 O   0  0  0  0  0  0  0  0  0  0  0  0
  -20.9260  -29.8240   21.7030 H   0  0  0  0  0  0  0  0  0  0  0  0
  -18.0240  -28.0740   22.8430 C   0  0  0  0  0  0  0  0  0  0  0  0
  -20.5780  -28.3310   23.1540 C   0  0  0  0  0  3  0  0  0  0  0  0
  -20.6880  -26.8980   22.5870 C   0  0  0  0  0  2  0  0  0  0  0  0
  -19.6020  -26.5710   21.5560 C   0  0  0  0  0  2  0  0  0  0  0  0
  -18.2100  -26.7220   22.1760 C   0  0  0  0  0  2  0  0  0  0  0  0
  -19.1370  -28.8380   23.2850 C   0  0  0  0  0  0  0  0  0  0  0  0
  -18.9100  -30.1060   23.8650 C   0  0  0  0  0  3  0  0  0  0  0  0
  -17.6030  -30.6090   24.0070 C   0  0  0  0  0  3  0  0  0  0  0  0
  -16.5050  -29.8430   23.5830 C   0  0  0  0  0  3  0  0  0  0  0  0
  -16.7160  -28.5760   23.0070 C   0  0  0  0  0  3  0  0  0  0  0  0
  -25.8720  -32.4910   23.8600 C   0  0  0  0  0  3  0  0  0  0  0  0
  -26.3800  -31.7190   25.1400 C   0  0  1  0  0  0  0  0  0  0  0  0
  -25.2810  -31.4860   26.2040 C   0  0  0  0  0  1  0  0  0  0  0  0
  -26.9630  -30.3390   24.7510 C   0  0  0  0  0  1  0  0  0  0  0  0
  -27.5280  -32.5110   25.8080 C   0  0  0  0  0  1  0  0  0  0  0  0
  -25.5690  -33.8900   24.1890 N   0  0  0  0  0  0  0  0  0  0  0  0
  -25.9060  -34.9410   23.4300 C   0  0  0  0  0  0  0  0  0  0  0  0
  -26.5830  -34.8350   22.4020 O   0  0  0  0  0  0  0  0  0  0  0  0
  -24.9780  -34.0480   24.9910 H   0  0  0  0  0  0  0  0  0  0  0  0
  -24.1820  -36.7340   23.0610 C   0  0  0  0  0  1  0  0  0  0  0  0
  -25.4170  -36.3300   23.8820 C   0  0  0  0  0  3  0  0  0  0  0  0
  -27.5480  -37.2070   24.7260 C   0  0  0  0  0  1  0  0  0  0  0  0
  -26.4510  -37.3820   23.7770 N   0  0  0  0  0  0  0  0  0  0  0  0
  -26.0470  -38.3010   23.9310 H   0  0  0  0  0  0  0  0  0  0  0  0
  -29.6350  -18.9550   18.2710 C   0  0  0  0  0  2  0  0  0  0  0  0
  -30.9820  -19.3860   18.4750 O   0  0  0  0  0  0  0  0  0  0  0  0
  -31.2380  -19.9600   19.7560 C   0  0  0  0  0  2  0  0  0  0  0  0
  -32.0740  -18.9910   20.6050 C   0  0  0  0  0  2  0  0  0  0  0  0
  -31.2930  -17.8790   21.0370 O   0  0  0  0  0  0  0  0  0  0  0  0
  -32.1120  -16.8600   21.5980 C   0  0  0  0  0  2  0  0  0  0  0  0
  -31.2760  -15.7530   22.2710 C   0  0  0  0  0  2  0  0  0  0  0  0
  -30.6310  -14.3990   20.2510 C   0  0  0  0  0  0  0  0  0  0  0  0
  -30.1380  -12.4090   18.8740 C   0  0  0  0  0  2  0  0  0  0  0  0
  -29.1330  -12.6900   17.7480 C   0  0  0  0  0  2  0  0  0  0  0  0
  -27.6930  -12.5220   18.2580 C   0  0  0  0  0  2  0  0  0  0  0  0
  -27.4350  -13.3100   19.5680 C   0  0  0  0  0  3  0  0  0  0  0  0
  -28.5400  -13.0280   20.6100 C   0  0  0  0  0  2  0  0  0  0  0  0
  -29.8500  -13.3200   19.9920 N   0  0  0  0  0  0  0  0  0  0  0  0
  -31.5910  -14.7280   19.5550 O   0  0  0  0  0  0  0  0  0  0  0  0
  -30.3600  -14.9990   21.4130 N   0  0  0  0  0  0  0  0  0  0  0  0
  -29.5230  -14.6640   21.8660 H   0  0  0  0  0  0  0  0  0  0  0  0
  -25.0480  -13.8930   20.3400 C   0  0  0  0  0  0  0  0  0  0  0  0
  -24.0100  -13.1080   20.7650 C   0  0  0  0  0  0  0  0  0  0  0  0
  -24.4950  -11.7650   20.7440 C   0  0  0  0  0  0  0  0  0  0  0  0
  -26.1030  -13.0260   20.0980 N   0  0  0  0  0  0  0  0  0  0  0  0
  -25.7750  -11.7420   20.3950 N   0  0  0  0  0  0  0  0  0  0  0  0
  -23.7990  -10.4930   20.9800 C   0  0  0  0  0  0  0  0  0  0  0  0
  -24.2810   -9.5540   21.9220 C   0  0  0  0  0  3  0  0  0  0  0  0
  -23.5830   -8.3470   22.1460 C   0  0  0  0  0  3  0  0  0  0  0  0
  -22.3920   -8.0710   21.4330 C   0  0  0  0  0  0  0  0  0  0  0  0
  -21.9320   -8.9970   20.4810 C   0  0  0  0  0  3  0  0  0  0  0  0
  -22.6280  -10.1970   20.2540 C   0  0  0  0  0  3  0  0  0  0  0  0
  -21.6630   -6.9140   21.5680 O   0  0  0  0  0  0  0  0  0  0  0  0
  -21.6650   -6.1930   22.7360 C   0  0  0  0  0  0  0  0  0  0  0  0
  -21.2860   -6.7660   23.9680 C   0  0  0  0  0  3  0  0  0  0  0  0
  -21.2410   -5.9720   25.1320 C   0  0  0  0  0  3  0  0  0  0  0  0
  -21.5620   -4.6040   25.0630 C   0  0  0  0  0  0  0  0  0  0  0  0
  -21.9340   -4.0270   23.8350 C   0  0  0  0  0  3  0  0  0  0  0  0
  -21.9830   -4.8200   22.6750 C   0  0  0  0  0  0  0  0  0  0  0  0
  -22.3200   -4.2560   21.4900 F   0  0  0  0  0  0  0  0  0  0  0  0
  -21.5090   -3.8380   26.1780 F   0  0  0  0  0  0  0  0  0  0  0  0
  -22.6130  -13.5620   21.0790 C   0  0  0  0  0  0  0  0  0  0  0  0
  -21.9310  -12.8680   21.9820 N   0  0  0  0  0  0  0  0  0  0  0  0
  -22.1360  -14.5700   20.5560 O   0  0  0  0  0  0  0  0  0  0  0  0
  -22.3280  -12.0490   22.4220 H   0  0  0  0  0  0  0  0  0  0  0  0
  -20.9970  -13.1530   22.2390 H   0  0  0  0  0  0  0  0  0  0  0  0
  -25.1800  -15.2620   20.1180 N   0  0  0  0  0  0  0  0  0  0  0  0
  -24.4090  -15.9080   20.2480 H   0  0  0  0  0  0  0  0  0  0  0  0
  -26.0110  -15.7040   19.7420 H   0  0  0  0  0  0  0  0  0  0  0  0
  1 51  1  0
  1  2  1  0
  2  4  1  0
  3  1  2  0
  5  2  1  0
  5  6  1  0
  7  6  1  0
  7  8  1  0
  9 10  1  0
  9  8  1  0
 10 12  1  0
 11 22  2  0
 12 17  1  0
 13 21  1  0
 13 23  1  0
 14 20  1  0
 14 16  1  0
 15 21  1  0
 16 15  1  0
 17 16  2  0
 18 12  2  0
 19 18  1  0
 19 14  2  0
 20 13  1  0
 21 11  1  0
 23 25  2  0
 24 23  1  0
 26 24  1  0
 27 36  2  0
 27 32  1  0
 28 24  1  0
 28 32  1  0
 29 28  1  0
 30 31  1  0
 30 29  1  0
 31 27  1  0
 32 33  2  0
 33 34  1  0
 35 34  2  0
 36 35  1  0
 37 11  1  0
 37 42  1  0
 37 38  1  0
 38 41  1  1
 38 39  1  0
 40 38  1  0
 42 45  1  0
 43 47  1  0
 43 42  1  0
 44 43  2  0
 47 46  1  0
 49 47  1  0
 49 50  1  0
 49 48  1  0
 51 52  1  0
 52 53  1  0
 53 54  1  0
 54 55  1  0
 55 56  1  0
 56 57  1  0
 58 66  1  0
 59 64  1  0
 60 61  1  0
 60 59  1  0
 62 61  1  0
 62 71  1  0
 62 63  1  0
 64 58  1  0
 64 63  1  0
 65 58  2  0
 66 67  1  0
 66 57  1  0
 68 69  2  0
 69 88  1  0
 70 69  1  0
 70 73  1  0
 71 68  1  0
 71 72  1  0
 72 70  2  0
 73 74  1  0
 74 75  2  0
 76 79  1  0
 76 75  1  0
 77 76  2  0
 78 77  1  0
 78 73  2  0
 79 80  1  0
 80 81  1  0
 81 82  2  0
 83 82  1  0
 83 87  1  0
 84 83  2  0
 85 80  2  0
 85 84  1  0
 86 85  1  0
 88 89  1  0
 89 92  1  0
 89 91  1  0
 90 88  2  0
 93 94  1  0
 93 68  1  0
 95 93  1  0
M  ISO  4   9 101  10 101  58 100  66 100
M  END
>  <TORSDO>  (14) 
F 28

>  <SCORE>  (14) 
-10.207

>  <name>  (14) 
13

>  <ligand_id>  (14) 
13

>  <original_smiles>  (14) 
[H]c1c([H])c([H])c2c(c1[H])C([H])([H])C([H])([H])C([H])([H])C2([H])N([H])C(=O)C1([H])N(C(=O)C([H])(N([H])C(=O)C([H])(N([H])C([H])([H])[H])C([H])([H])[H])C(C([H])([H])[H])(C([H])([H])[H])C([H])([H])[H])C([H])([H])c2c([H])c(OC([H])([H])C([H])([H])OC([H])([H])C([H])([H])N([H])C(=O)C([H])([H])OC([H])([H])C([H])([H])OC([H])([H])C([H])([H])N([H])C(=O)N3C([H])([H])C([H])([H])C([H])([H])C([H])(n4nc(-c5c([H])c([H])c(Oc6c([H])c([H])c(F)c([H])c6F)c([H])c5[H])c(C(=O)N([H])[H])c4N([H])[H])C3([H])[H])c([H])c([H])c2C1([H])[H]

>  <smiles>  (14) 
[H]c1c([H])c([H])c2c(c1[H])C([H])([H])C([H])([H])C([H])([H])C2([H])N([H])C(=O)C1([H])N(C(=O)C([H])(N([H])C(=O)C([H])(N([H])C([H])([H])[H])C([H])([H])[H])C(C([H])([H])[H])(C([H])([H])[H])C([H])([H])[H])C([H])([H])c2c([H])c(OC([H])([H])C([H])([H])OC([H])([H])C([H])([H])N([H])C(=O)C([H])([H])OC([H])([H])C([H])([H])OC([H])([H])C([H])([H])N([H])C(=O)N3C([H])([H])C([H])([H])C([H])([H])C([H])(n4nc(-c5c([H])c([H])c(Oc6c([H])c([H])c(F)c([H])c6F)c([H])c5[H])c(C(=O)N([H])[H])c4N([H])[H])C3([H])[H])c([H])c([H])c2C1([H])[H]

$$$$
14:0:0
     RDKit          3D

101108  0  0  1  0  0  0  0  0999 V2000
  -25.7400  -18.8720   21.5300 C   0  0  0  0  0  1  0  0  0  0  0  0
  -27.0190  -19.1850   20.7240 C   0  0  0  0  0  3  0  0  0  0  0  0
  -27.7620  -17.8900   20.3700 C   0  0  0  0  0  0  0  0  0  0  0  0
  -29.0950  -17.9510   20.2450 N   0  0  0  0  0  0  0  0  0  0  0  0
  -27.1230  -16.8600   20.1440 O   0  0  0  0  0  0  0  0  0  0  0  0
  -29.5280  -18.8530   20.3960 H   0  0  0  0  0  0  0  0  0  0  0  0
  -30.0090  -16.8660   19.8640 C   0  0  0  0  0  3  0  0  0  0  0  0
  -30.0010  -16.6510   18.3280 C   0  0  0  0  0  0  0  0  0  0  0  0
  -28.8270  -16.4090   17.7610 N   0  0  0  0  0  0  0  0  0  0  0  0
  -31.0190  -16.7230   17.6430 O   0  0  0  0  0  0  0  0  0  0  0  0
  -28.0070  -16.3890   18.3610 H   0  0  0  0  0  0  0  0  0  0  0  0
  -28.7410  -16.2410   16.7690 H   0  0  0  0  0  0  0  0  0  0  0  0
  -31.4170  -17.2390   20.4080 C   0  0  0  0  0  2  0  0  0  0  0  0
  -32.4910  -16.1250   20.4030 C   0  0  0  0  0  2  0  0  0  0  0  0
  -32.5610  -13.6800   20.9100 C   0  0  0  0  0  0  0  0  0  0  0  0
  -32.3590  -11.3190   21.5940 C   0  0  0  0  0  2  0  0  0  0  0  0
  -31.6920  -10.4510   20.5090 C   0  0  0  0  0  2  0  0  0  0  0  0
  -30.1580  -10.5040   20.6200 C   0  0  0  0  0  2  0  0  0  0  0  0
  -29.6250  -11.9560   20.7260 C   0  0  0  0  0  3  0  0  0  0  0  0
  -30.3990  -12.7450   21.8020 C   0  0  0  0  0  2  0  0  0  0  0  0
  -31.8400  -12.6860   21.4870 N   0  0  0  0  0  0  0  0  0  0  0  0
  -33.6900  -13.5170   20.4300 O   0  0  0  0  0  0  0  0  0  0  0  0
  -31.9700  -14.8780   20.9550 N   0  0  0  0  0  0  0  0  0  0  0  0
  -31.0800  -14.9140   21.4340 H   0  0  0  0  0  0  0  0  0  0  0  0
  -27.3100  -13.0510   20.9960 C   0  0  0  0  0  0  0  0  0  0  0  0
  -26.0690  -12.5180   21.2220 C   0  0  0  0  0  0  0  0  0  0  0  0
  -26.2610  -11.1090   21.3390 C   0  0  0  0  0  0  0  0  0  0  0  0
  -28.1860  -11.9780   20.9850 N   0  0  0  0  0  0  0  0  0  0  0  0
  -27.5480  -10.8070   21.2460 N   0  0  0  0  0  0  0  0  0  0  0  0
  -25.2870  -10.0190   21.4730 C   0  0  0  0  0  0  0  0  0  0  0  0
  -25.1800   -9.2670   22.6630 C   0  0  0  0  0  3  0  0  0  0  0  0
  -24.2260   -8.2320   22.7710 C   0  0  0  0  0  3  0  0  0  0  0  0
  -23.3670   -7.9430   21.6830 C   0  0  0  0  0  0  0  0  0  0  0  0
  -23.4980   -8.6760   20.4910 C   0  0  0  0  0  3  0  0  0  0  0  0
  -24.4520   -9.7030   20.3850 C   0  0  0  0  0  3  0  0  0  0  0  0
  -22.4240   -6.9430   21.6910 O   0  0  0  0  0  0  0  0  0  0  0  0
  -21.6950   -6.6490   22.8140 C   0  0  0  0  0  0  0  0  0  0  0  0
  -20.8190   -7.5880   23.4030 C   0  0  0  0  0  3  0  0  0  0  0  0
  -20.0370   -7.2210   24.5150 C   0  0  0  0  0  3  0  0  0  0  0  0
  -20.1220   -5.9150   25.0360 C   0  0  0  0  0  0  0  0  0  0  0  0
  -20.9890   -4.9770   24.4470 C   0  0  0  0  0  3  0  0  0  0  0  0
  -21.7710   -5.3430   23.3390 C   0  0  0  0  0  0  0  0  0  0  0  0
  -22.5890   -4.4290   22.7630 F   0  0  0  0  0  0  0  0  0  0  0  0
  -19.3650   -5.5600   26.0980 F   0  0  0  0  0  0  0  0  0  0  0  0
  -24.7640  -13.2610   21.2350 C   0  0  0  0  0  0  0  0  0  0  0  0
  -23.7910  -12.7780   22.0000 N   0  0  0  0  0  0  0  0  0  0  0  0
  -24.6150  -14.3030   20.5990 O   0  0  0  0  0  0  0  0  0  0  0  0
  -23.9160  -11.9330   22.5390 H   0  0  0  0  0  0  0  0  0  0  0  0
  -22.9010  -13.2550   22.0430 H   0  0  0  0  0  0  0  0  0  0  0  0
  -27.7650  -14.3490   20.7800 N   0  0  0  0  0  0  0  0  0  0  0  0
  -27.1570  -15.1610   20.7910 H   0  0  0  0  0  0  0  0  0  0  0  0
  -28.7300  -14.6000   20.6140 H   0  0  0  0  0  0  0  0  0  0  0  0
  -26.6710  -19.9070   19.4820 N   0  0  0  0  0  4  0  0  0  0  0  0
  -26.3820  -19.2140   18.8050 H   0  0  0  0  0  0  0  0  0  0  0  0
  -25.8770  -20.4960   19.6730 H   0  0  0  0  0  0  0  0  0  0  0  0
  -27.7560  -20.7410   18.9030 C   0  0  0  0  0  2  0  0  0  0  0  0
  -27.1980  -21.7970   17.9400 C   0  0  0  0  0  2  0  0  0  0  0  0
  -28.2340  -22.7220   17.6290 O   0  0  0  0  0  0  0  0  0  0  0  0
  -27.7290  -23.8250   16.8950 C   0  0  0  0  0  2  0  0  0  0  0  0
  -28.7900  -24.9300   16.6750 C   0  0  0  0  0  2  0  0  0  0  0  0
  -28.2840  -26.1500   16.1160 O   0  0  0  0  0  0  0  0  0  0  0  0
  -25.7910  -28.0460   22.5080 C   0  0  0  0  0  0  0  0  0  0  0  0
  -27.2750  -26.7270   16.8420 C   0  0  0  0  0  0  0  0  0  0  0  0
  -24.1490  -28.0090   20.6570 C   0  0  0  0  0  3  0  0  0  0  0  0
  -25.1270  -27.7910   18.3140 C   0  0  0  0  0  0  0  0  0  0  0  0
  -26.6260  -28.4540   20.2010 C   0  0  0  0  0  2  0  0  0  0  0  0
  -26.4260  -27.8290   18.8400 C   0  0  0  0  0  0  0  0  0  0  0  0
  -27.5080  -27.2910   18.1130 C   0  0  0  0  0  3  0  0  0  0  0  0
  -25.9710  -26.7350   16.3050 C   0  0  0  0  0  3  0  0  0  0  0  0
  -24.8910  -27.2340   17.0470 C   0  0  0  0  0  3  0  0  0  0  0  0
  -24.0240  -28.3840   19.1570 C   0  0  0  0  0  2  0  0  0  0  0  0
  -25.5500  -28.1460   21.1710 N   0  0  0  0  0  0  0  0  0  0  0  0
  -24.8660  -27.8800   23.3140 O   0  0  0  0  0  0  0  0  0  0  0  0
  -23.5580  -26.5970   20.8630 C   0  0  0  0  0  0  0  0  0  0  0  0
  -22.2290  -26.4750   20.7110 N   0  0  0  0  0  0  0  0  0  0  0  0
  -24.2900  -25.6370   21.1210 O   0  0  0  0  0  0  0  0  0  0  0  0
  -21.7040  -27.3100   20.4940 H   0  0  0  0  0  0  0  0  0  0  0  0
  -18.9320  -25.0580   20.3210 C   0  0  0  0  0  0  0  0  0  0  0  0
  -21.4610  -25.2390   20.8210 C   0  0  0  0  0  3  0  0  0  0  0  0
  -21.6710  -24.3450   19.5770 C   0  0  0  0  0  2  0  0  0  0  0  0
  -20.6130  -24.5650   18.4910 C   0  0  0  0  0  2  0  0  0  0  0  0
  -19.2100  -24.2880   19.0400 C   0  0  0  0  0  2  0  0  0  0  0  0
  -19.9890  -25.5200   21.1480 C   0  0  0  0  0  0  0  0  0  0  0  0
  -19.6780  -26.2670   22.3060 C   0  0  0  0  0  3  0  0  0  0  0  0
  -18.3410  -26.5460   22.6450 C   0  0  0  0  0  3  0  0  0  0  0  0
  -17.2970  -26.0720   21.8320 C   0  0  0  0  0  3  0  0  0  0  0  0
  -17.5930  -25.3270   20.6760 C   0  0  0  0  0  3  0  0  0  0  0  0
  -27.2360  -28.1540   23.0890 C   0  0  0  0  0  3  0  0  0  0  0  0
  -27.1470  -28.8820   24.3620 N   0  0  0  0  0  0  0  0  0  0  0  0
  -27.6100  -30.1230   24.5630 C   0  0  0  0  0  0  0  0  0  0  0  0
  -28.2290  -30.7530   23.7000 O   0  0  0  0  0  0  0  0  0  0  0  0
  -26.6150  -28.4430   25.1000 H   0  0  0  0  0  0  0  0  0  0  0  0
  -26.2090  -31.8010   25.8000 C   0  0  0  0  0  1  0  0  0  0  0  0
  -27.3410  -30.7700   25.9330 C   0  0  0  0  0  3  0  0  0  0  0  0
  -29.5570  -30.4500   26.9400 C   0  0  0  0  0  1  0  0  0  0  0  0
  -28.5350  -31.4100   26.5260 N   0  0  0  0  0  0  0  0  0  0  0  0
  -28.2820  -31.9690   27.3360 H   0  0  0  0  0  0  0  0  0  0  0  0
  -27.9300  -26.7510   23.2960 C   0  0  1  0  0  0  0  0  0  0  0  0
  -27.0590  -25.7360   24.0730 C   0  0  0  0  0  1  0  0  0  0  0  0
  -28.2960  -26.1140   21.9350 C   0  0  0  0  0  1  0  0  0  0  0  0
  -29.2600  -26.9330   24.0650 C   0  0  0  0  0  1  0  0  0  0  0  0
  2  1  1  0
  3  2  1  0
  4  3  1  0
  4  6  1  0
  5  3  2  0
  7  4  1  0
  7 13  1  0
  8  7  1  0
  9  8  1  0
  9 11  1  0
 10  8  2  0
 12  9  1  0
 14 13  1  0
 14 23  1  0
 15 23  1  0
 15 21  1  0
 17 18  1  0
 17 16  1  0
 19 18  1  0
 19 28  1  0
 19 20  1  0
 21 16  1  0
 21 20  1  0
 22 15  2  0
 23 24  1  0
 25 26  2  0
 26 45  1  0
 26 27  1  0
 27 30  1  0
 28 25  1  0
 28 29  1  0
 29 27  2  0
 30 31  1  0
 31 32  2  0
 33 36  1  0
 33 32  1  0
 34 33  2  0
 35 34  1  0
 35 30  2  0
 36 37  1  0
 37 42  2  0
 37 38  1  0
 38 39  2  0
 39 40  1  0
 40 44  1  0
 41 40  2  0
 42 41  1  0
 43 42  1  0
 45 46  1  0
 46 49  1  0
 46 48  1  0
 47 45  2  0
 50 51  1  0
 50 25  1  0
 52 50  1  0
 53 55  1  0
 53  2  1  0
 54 53  1  0
 56 53  1  0
 57 56  1  0
 58 57  1  0
 59 58  1  0
 60 59  1  0
 61 60  1  0
 61 63  1  0
 62 73  2  0
 63 68  1  0
 64 74  1  0
 64 72  1  0
 65 67  1  0
 65 71  1  0
 66 72  1  0
 67 66  1  0
 68 67  2  0
 69 63  2  0
 69 70  1  0
 70 65  2  0
 71 64  1  0
 72 62  1  0
 74 76  2  0
 75 74  1  0
 77 75  1  0
 78 87  2  0
 78 83  1  0
 79 75  1  0
 79 83  1  0
 80 79  1  0
 81 82  1  0
 81 80  1  0
 82 78  1  0
 83 84  2  0
 84 85  1  0
 86 85  2  0
 87 86  1  0
 88 62  1  0
 88 98  1  0
 88 89  1  0
 89 90  1  0
 89 92  1  0
 90 94  1  0
 91 90  2  0
 94 93  1  0
 94 96  1  0
 96 95  1  0
 96 97  1  0
 98101  1  1
 98 99  1  0
100 98  1  0
M  ISO  4  15 100  23 100  60 101  61 101
M  END
>  <TORSDO>  (15) 
F 27

>  <SCORE>  (15) 
-0.009

>  <name>  (15) 
14

>  <ligand_id>  (15) 
14

>  <original_smiles>  (15) 
[H]c1c([H])c([H])c2c(c1[H])C([H])([H])C([H])([H])C([H])([H])C2([H])N([H])C(=O)C1([H])N(C(=O)C([H])(N([H])C(=O)C([H])(N([H])C([H])([H])[H])C([H])([H])[H])C(C([H])([H])[H])(C([H])([H])[H])C([H])([H])[H])C([H])([H])c2c([H])c(OC([H])([H])C([H])([H])OC([H])([H])C([H])([H])[N+]([H])([H])C([H])(C(=O)N([H])C([H])(C(=O)N([H])[H])C([H])([H])C([H])([H])N([H])C(=O)N3C([H])([H])C([H])([H])C([H])([H])C([H])(n4nc(-c5c([H])c([H])c(Oc6c([H])c([H])c(F)c([H])c6F)c([H])c5[H])c(C(=O)N([H])[H])c4N([H])[H])C3([H])[H])C([H])([H])[H])c([H])c([H])c2C1([H])[H]

>  <smiles>  (15) 
[H]c1c([H])c([H])c2c(c1[H])C([H])([H])C([H])([H])C([H])([H])C2([H])N([H])C(=O)C1([H])N(C(=O)C([H])(N([H])C(=O)C([H])(N([H])C([H])([H])[H])C([H])([H])[H])C(C([H])([H])[H])(C([H])([H])[H])C([H])([H])[H])C([H])([H])c2c([H])c(OC([H])([H])C([H])([H])OC([H])([H])C([H])([H])[N+]([H])([H])C([H])(C(=O)N([H])C([H])(C(=O)N([H])[H])C([H])([H])C([H])([H])N([H])C(=O)N3C([H])([H])C([H])([H])C([H])([H])C([H])(n4nc(-c5c([H])c([H])c(Oc6c([H])c([H])c(F)c([H])c6F)c([H])c5[H])c(C(=O)N([H])[H])c4N([H])[H])C3([H])[H])C([H])([H])[H])c([H])c([H])c2C1([H])[H]

$$$$
15:0:0
     RDKit          3D

 96103  0  0  1  0  0  0  0  0999 V2000
  -25.5250  -22.6530   19.5500 N   0  0  0  0  0  4  0  0  0  0  0  0
  -26.5220  -22.5870   19.7070 H   0  0  0  0  0  0  0  0  0  0  0  0
  -25.3640  -23.4730   18.9820 H   0  0  0  0  0  0  0  0  0  0  0  0
  -25.0920  -21.4410   18.8220 C   0  0  0  0  0  2  0  0  0  0  0  0
  -26.2410  -20.8420   17.9980 C   0  0  0  0  0  2  0  0  0  0  0  0
  -27.2170  -20.3260   18.8990 O   0  0  0  0  0  0  0  0  0  0  0  0
  -28.2930  -19.6670   18.2390 C   0  0  0  0  0  2  0  0  0  0  0  0
  -29.3260  -19.2040   19.2810 C   0  0  0  0  0  2  0  0  0  0  0  0
  -28.8290  -18.0580   19.9680 O   0  0  0  0  0  0  0  0  0  0  0  0
  -29.5670  -17.7200   21.1400 C   0  0  0  0  0  2  0  0  0  0  0  0
  -30.7630  -16.7890   20.8560 C   0  0  0  0  0  2  0  0  0  0  0  0
  -31.0100  -14.4800   19.9090 C   0  0  0  0  0  0  0  0  0  0  0  0
  -30.7590  -12.2090   18.9660 C   0  0  0  0  0  2  0  0  0  0  0  0
  -29.7070  -12.2240   17.8350 C   0  0  0  0  0  2  0  0  0  0  0  0
  -28.2740  -12.1040   18.3900 C   0  0  0  0  0  2  0  0  0  0  0  0
  -28.0030  -13.0990   19.5450 C   0  0  0  0  0  3  0  0  0  0  0  0
  -29.1280  -12.9670   20.5960 C   0  0  0  0  0  2  0  0  0  0  0  0
  -30.4000  -13.2700   19.9160 N   0  0  0  0  0  0  0  0  0  0  0  0
  -32.0640  -14.7130   19.3050 O   0  0  0  0  0  0  0  0  0  0  0  0
  -30.3300  -15.4260   20.5690 N   0  0  0  0  0  0  0  0  0  0  0  0
  -29.4500  -15.1370   20.9710 H   0  0  0  0  0  0  0  0  0  0  0  0
  -25.7250  -13.8270   20.5030 C   0  0  0  0  0  0  0  0  0  0  0  0
  -24.6400  -13.1040   20.9200 C   0  0  0  0  0  0  0  0  0  0  0  0
  -25.0050  -11.7310   20.7770 C   0  0  0  0  0  0  0  0  0  0  0  0
  -26.6830  -12.8940   20.1330 N   0  0  0  0  0  0  0  0  0  0  0  0
  -26.2560  -11.6270   20.3530 N   0  0  0  0  0  0  0  0  0  0  0  0
  -24.2200  -10.5050   20.9630 C   0  0  0  0  0  0  0  0  0  0  0  0
  -24.6060   -9.5230   21.9030 C   0  0  0  0  0  3  0  0  0  0  0  0
  -23.8340   -8.3550   22.0760 C   0  0  0  0  0  3  0  0  0  0  0  0
  -22.6610   -8.1610   21.3090 C   0  0  0  0  0  0  0  0  0  0  0  0
  -22.2930   -9.1280   20.3580 C   0  0  0  0  0  3  0  0  0  0  0  0
  -23.0650  -10.2890   20.1840 C   0  0  0  0  0  3  0  0  0  0  0  0
  -21.8610   -7.0470   21.3920 O   0  0  0  0  0  0  0  0  0  0  0  0
  -21.6590   -6.3920   22.5810 C   0  0  0  0  0  0  0  0  0  0  0  0
  -21.1000   -7.0410   23.7040 C   0  0  0  0  0  3  0  0  0  0  0  0
  -20.8460   -6.3110   24.8810 C   0  0  0  0  0  3  0  0  0  0  0  0
  -21.1410   -4.9360   24.9360 C   0  0  0  0  0  0  0  0  0  0  0  0
  -21.6950   -4.2880   23.8190 C   0  0  0  0  0  3  0  0  0  0  0  0
  -21.9510   -5.0140   22.6430 C   0  0  0  0  0  0  0  0  0  0  0  0
  -22.4630   -4.3840   21.5600 F   0  0  0  0  0  0  0  0  0  0  0  0
  -20.8910   -4.2320   26.0650 F   0  0  0  0  0  0  0  0  0  0  0  0
  -23.3050  -13.6450   21.3440 C   0  0  0  0  0  0  0  0  0  0  0  0
  -22.6230  -12.9460   22.2450 N   0  0  0  0  0  0  0  0  0  0  0  0
  -22.8830  -14.7170   20.9140 O   0  0  0  0  0  0  0  0  0  0  0  0
  -22.9760  -12.0750   22.6100 H   0  0  0  0  0  0  0  0  0  0  0  0
  -21.7330  -13.2910   22.5790 H   0  0  0  0  0  0  0  0  0  0  0  0
  -25.9750  -15.1900   20.3850 N   0  0  0  0  0  0  0  0  0  0  0  0
  -25.3010  -15.9060   20.6280 H   0  0  0  0  0  0  0  0  0  0  0  0
  -26.8500  -15.5730   20.0460 H   0  0  0  0  0  0  0  0  0  0  0  0
  -24.9230  -22.8340   20.8920 C   0  0  0  0  0  2  0  0  0  0  0  0
  -25.4840  -24.0890   21.5750 C   0  0  0  0  0  2  0  0  0  0  0  0
  -26.8650  -24.1480   21.2360 O   0  0  0  0  0  0  0  0  0  0  0  0
  -27.5690  -25.2130   21.8570 C   0  0  0  0  0  2  0  0  0  0  0  0
  -28.9090  -25.3430   21.1180 C   0  0  0  0  0  2  0  0  0  0  0  0
  -28.8010  -25.8030   19.6510 C   0  0  0  0  0  2  0  0  0  0  0  0
  -28.6190  -27.2080   19.5630 O   0  0  0  0  0  0  0  0  0  0  0  0
  -24.6010  -31.8120   23.1340 C   0  0  0  0  0  0  0  0  0  0  0  0
  -27.3600  -27.7540   19.6810 C   0  0  0  0  0  0  0  0  0  0  0  0
  -23.4010  -30.4610   21.4400 C   0  0  0  0  0  3  0  0  0  0  0  0
  -24.8790  -29.0870   19.8790 C   0  0  0  0  0  0  0  0  0  0  0  0
  -25.8880  -30.9750   21.1690 C   0  0  0  0  0  2  0  0  0  0  0  0
  -26.0220  -29.6470   20.4590 C   0  0  0  0  0  0  0  0  0  0  0  0
  -27.2590  -28.9810   20.3660 C   0  0  0  0  0  3  0  0  0  0  0  0
  -26.2030  -27.1950   19.0970 C   0  0  0  0  0  3  0  0  0  0  0  0
  -24.9620  -27.8560   19.2010 C   0  0  0  0  0  3  0  0  0  0  0  0
  -23.5940  -29.8730   20.0160 C   0  0  0  0  0  2  0  0  0  0  0  0
  -24.6510  -31.0930   21.9760 N   0  0  0  0  0  0  0  0  0  0  0  0
  -23.5310  -31.9890   23.7320 O   0  0  0  0  0  0  0  0  0  0  0  0
  -22.8330  -29.3530   22.3550 C   0  0  0  0  0  0  0  0  0  0  0  0
  -21.5170  -29.1080   22.2510 N   0  0  0  0  0  0  0  0  0  0  0  0
  -23.5730  -28.7120   23.1060 O   0  0  0  0  0  0  0  0  0  0  0  0
  -20.9800  -29.6820   21.6150 H   0  0  0  0  0  0  0  0  0  0  0  0
  -18.2250  -27.7050   22.7310 C   0  0  0  0  0  0  0  0  0  0  0  0
  -20.7690  -28.0830   22.9780 C   0  0  0  0  0  3  0  0  0  0  0  0
  -20.9410  -26.7000   22.3120 C   0  0  0  0  0  2  0  0  0  0  0  0
  -19.8370  -26.3760   21.3000 C   0  0  0  0  0  2  0  0  0  0  0  0
  -18.4610  -26.4080   21.9740 C   0  0  0  0  0  2  0  0  0  0  0  0
  -19.3100  -28.4990   23.1860 C   0  0  0  0  0  0  0  0  0  0  0  0
  -19.0390  -29.7100   23.8560 C   0  0  0  0  0  3  0  0  0  0  0  0
  -17.7150  -30.1310   24.0780 C   0  0  0  0  0  3  0  0  0  0  0  0
  -16.6440  -29.3340   23.6400 C   0  0  0  0  0  3  0  0  0  0  0  0
  -16.8980  -28.1260   22.9690 C   0  0  0  0  0  3  0  0  0  0  0  0
  -25.8790  -32.4620   23.7540 C   0  0  0  0  0  3  0  0  0  0  0  0
  -25.5460  -33.8490   24.1100 N   0  0  0  0  0  0  0  0  0  0  0  0
  -25.8590  -34.9190   23.3660 C   0  0  0  0  0  0  0  0  0  0  0  0
  -26.5310  -34.8440   22.3350 O   0  0  0  0  0  0  0  0  0  0  0  0
  -24.9560  -33.9760   24.9190 H   0  0  0  0  0  0  0  0  0  0  0  0
  -24.1060  -36.6910   23.0200 C   0  0  0  0  0  1  0  0  0  0  0  0
  -25.3410  -36.2920   23.8440 C   0  0  0  0  0  3  0  0  0  0  0  0
  -27.4440  -37.1940   24.7280 C   0  0  0  0  0  1  0  0  0  0  0  0
  -26.3590  -37.3610   23.7660 N   0  0  0  0  0  0  0  0  0  0  0  0
  -25.9370  -38.2730   23.9220 H   0  0  0  0  0  0  0  0  0  0  0  0
  -26.4260  -31.6790   25.0090 C   0  0  1  0  0  0  0  0  0  0  0  0
  -25.3490  -31.3940   26.0830 C   0  0  0  0  0  1  0  0  0  0  0  0
  -27.0330  -30.3260   24.5750 C   0  0  0  0  0  1  0  0  0  0  0  0
  -27.5700  -32.4800   25.6730 C   0  0  0  0  0  1  0  0  0  0  0  0
  1  2  1  0
  1 50  1  0
  3  1  1  0
  4  1  1  0
  5  4  1  0
  5  6  1  0
  7  6  1  0
  7  8  1  0
  8  9  1  0
  9 10  1  0
 11 10  1  0
 12 18  1  0
 12 20  1  0
 13 18  1  0
 14 15  1  0
 14 13  1  0
 16 15  1  0
 16 25  1  0
 16 17  1  0
 18 17  1  0
 19 12  2  0
 20 11  1  0
 20 21  1  0
 22 23  2  0
 23 42  1  0
 24 23  1  0
 24 27  1  0
 25 26  1  0
 25 22  1  0
 26 24  2  0
 27 28  1  0
 28 29  2  0
 30 33  1  0
 30 29  1  0
 31 30  2  0
 32 31  1  0
 32 27  2  0
 33 34  1  0
 34 39  2  0
 34 35  1  0
 35 36  2  0
 36 37  1  0
 37 41  1  0
 38 37  2  0
 39 38  1  0
 40 39  1  0
 42 43  1  0
 43 46  1  0
 43 45  1  0
 44 42  2  0
 47 22  1  0
 47 48  1  0
 49 47  1  0
 50 51  1  0
 52 51  1  0
 52 53  1  0
 54 53  1  0
 55 54  1  0
 56 55  1  0
 56 58  1  0
 57 68  2  0
 58 63  1  0
 59 67  1  0
 59 69  1  0
 60 66  1  0
 60 62  1  0
 61 67  1  0
 62 61  1  0
 63 62  2  0
 64 65  1  0
 64 58  2  0
 65 60  2  0
 66 59  1  0
 67 57  1  0
 69 71  2  0
 70 69  1  0
 72 70  1  0
 73 82  2  0
 73 78  1  0
 74 70  1  0
 74 78  1  0
 75 74  1  0
 76 77  1  0
 76 75  1  0
 77 73  1  0
 78 79  2  0
 79 80  1  0
 81 80  2  0
 82 81  1  0
 83 57  1  0
 83 84  1  0
 83 93  1  0
 84 87  1  0
 85 89  1  0
 85 84  1  0
 86 85  2  0
 89 88  1  0
 91 89  1  0
 91 92  1  0
 91 90  1  0
 93 96  1  1
 93 94  1  0
 95 93  1  0
M  ISO  4  12 100  20 100  55 101  56 101
M  END
>  <TORSDO>  (16) 
F 30

>  <SCORE>  (16) 
-9.824

>  <name>  (16) 
15

>  <ligand_id>  (16) 
15

>  <original_smiles>  (16) 
[H]c1c([H])c([H])c2c(c1[H])C([H])([H])C([H])([H])C([H])([H])C2([H])N([H])C(=O)C1([H])N(C(=O)C([H])(N([H])C(=O)C([H])(N([H])C([H])([H])[H])C([H])([H])[H])C(C([H])([H])[H])(C([H])([H])[H])C([H])([H])[H])C([H])([H])c2c([H])c(OC([H])([H])C([H])([H])C([H])([H])OC([H])([H])C([H])([H])[N+]([H])([H])C([H])([H])C([H])([H])OC([H])([H])C([H])([H])OC([H])([H])C([H])([H])N([H])C(=O)N3C([H])([H])C([H])([H])C([H])([H])C([H])(n4nc(-c5c([H])c([H])c(Oc6c([H])c([H])c(F)c([H])c6F)c([H])c5[H])c(C(=O)N([H])[H])c4N([H])[H])C3([H])[H])c([H])c([H])c2C1([H])[H]

>  <smiles>  (16) 
[H]c1c([H])c([H])c2c(c1[H])C([H])([H])C([H])([H])C([H])([H])C2([H])N([H])C(=O)C1([H])N(C(=O)C([H])(N([H])C(=O)C([H])(N([H])C([H])([H])[H])C([H])([H])[H])C(C([H])([H])[H])(C([H])([H])[H])C([H])([H])[H])C([H])([H])c2c([H])c(OC([H])([H])C([H])([H])C([H])([H])OC([H])([H])C([H])([H])[N+]([H])([H])C([H])([H])C([H])([H])OC([H])([H])C([H])([H])OC([H])([H])C([H])([H])N([H])C(=O)N3C([H])([H])C([H])([H])C([H])([H])C([H])(n4nc(-c5c([H])c([H])c(Oc6c([H])c([H])c(F)c([H])c6F)c([H])c5[H])c(C(=O)N([H])[H])c4N([H])[H])C3([H])[H])c([H])c([H])c2C1([H])[H]

$$$$
16:0:0
     RDKit          3D

 97104  0  0  1  0  0  0  0  0999 V2000
  -33.8580  -20.2280   21.1600 C   0  0  0  0  0  2  0  0  0  0  0  0
  -32.1250  -19.1190   22.5560 C   0  0  0  0  0  0  0  0  0  0  0  0
  -33.1040  -19.0750   21.6430 N   0  0  0  0  0  0  0  0  0  0  0  0
  -31.7710  -20.1660   23.1010 O   0  0  0  0  0  0  0  0  0  0  0  0
  -33.3450  -18.1750   21.2480 H   0  0  0  0  0  0  0  0  0  0  0  0
  -31.4630  -17.7910   22.9370 C   0  0  0  0  0  2  0  0  0  0  0  0
  -29.9290  -17.7710   22.7510 C   0  0  0  0  0  2  0  0  0  0  0  0
  -29.5020  -16.9120   21.6900 O   0  0  0  0  0  0  0  0  0  0  0  0
  -29.1900  -17.5460   20.4500 C   0  0  0  0  0  2  0  0  0  0  0  0
  -30.3850  -17.5550   19.4830 C   0  0  0  0  0  2  0  0  0  0  0  0
  -30.8090  -16.2110   18.8550 C   0  0  0  0  0  2  0  0  0  0  0  0
  -31.3640  -13.9030   19.5710 C   0  0  0  0  0  0  0  0  0  0  0  0
  -30.8660  -11.5790   18.9650 C   0  0  0  0  0  2  0  0  0  0  0  0
  -29.8900  -11.6320   17.7690 C   0  0  0  0  0  2  0  0  0  0  0  0
  -28.4300  -11.7160   18.2590 C   0  0  0  0  0  2  0  0  0  0  0  0
  -28.2210  -12.8120   19.3400 C   0  0  0  0  0  3  0  0  0  0  0  0
  -29.3150  -12.7280   20.4370 C   0  0  0  0  0  2  0  0  0  0  0  0
  -30.6300  -12.7810   19.7760 N   0  0  0  0  0  0  0  0  0  0  0  0
  -32.4800  -13.9050   19.0430 O   0  0  0  0  0  0  0  0  0  0  0  0
  -30.6690  -15.0380   19.7210 N   0  0  0  0  0  0  0  0  0  0  0  0
  -29.7910  -14.9500   20.2100 H   0  0  0  0  0  0  0  0  0  0  0  0
  -25.9890  -13.7780   20.1920 C   0  0  0  0  0  0  0  0  0  0  0  0
  -24.8500  -13.1770   20.6510 C   0  0  0  0  0  0  0  0  0  0  0  0
  -25.1040  -11.7720   20.6200 C   0  0  0  0  0  0  0  0  0  0  0  0
  -26.8770  -12.7490   19.9110 N   0  0  0  0  0  0  0  0  0  0  0  0
  -26.3480  -11.5390   20.2250 N   0  0  0  0  0  0  0  0  0  0  0  0
  -24.2150  -10.6340   20.8850 C   0  0  0  0  0  0  0  0  0  0  0  0
  -24.5970   -9.5900   21.7560 C   0  0  0  0  0  3  0  0  0  0  0  0
  -23.7210   -8.5130   22.0100 C   0  0  0  0  0  3  0  0  0  0  0  0
  -22.4460   -8.4740   21.3960 C   0  0  0  0  0  0  0  0  0  0  0  0
  -22.0810   -9.5060   20.5110 C   0  0  0  0  0  3  0  0  0  0  0  0
  -22.9570  -10.5730   20.2550 C   0  0  0  0  0  3  0  0  0  0  0  0
  -21.5380   -7.4590   21.5660 O   0  0  0  0  0  0  0  0  0  0  0  0
  -21.5480   -6.6650   22.6850 C   0  0  0  0  0  0  0  0  0  0  0  0
  -21.4310   -7.2040   23.9850 C   0  0  0  0  0  3  0  0  0  0  0  0
  -21.3740   -6.3450   25.1010 C   0  0  0  0  0  3  0  0  0  0  0  0
  -21.4250   -4.9490   24.9210 C   0  0  0  0  0  0  0  0  0  0  0  0
  -21.5360   -4.4110   23.6260 C   0  0  0  0  0  3  0  0  0  0  0  0
  -21.5950   -5.2670   22.5130 C   0  0  0  0  0  0  0  0  0  0  0  0
  -21.6810   -4.7400   21.2670 F   0  0  0  0  0  0  0  0  0  0  0  0
  -21.3620   -4.1230   25.9910 F   0  0  0  0  0  0  0  0  0  0  0  0
  -23.5580  -13.8580   21.0080 C   0  0  0  0  0  0  0  0  0  0  0  0
  -22.8110  -13.2950   21.9510 N   0  0  0  0  0  0  0  0  0  0  0  0
  -23.2300  -14.9230   20.4860 O   0  0  0  0  0  0  0  0  0  0  0  0
  -23.0910  -12.4340   22.3960 H   0  0  0  0  0  0  0  0  0  0  0  0
  -21.9440  -13.7320   22.2310 H   0  0  0  0  0  0  0  0  0  0  0  0
  -26.3400  -15.1070   19.9730 N   0  0  0  0  0  0  0  0  0  0  0  0
  -25.6810  -15.8650   20.1080 H   0  0  0  0  0  0  0  0  0  0  0  0
  -27.2080  -15.4140   19.5530 H   0  0  0  0  0  0  0  0  0  0  0  0
  -33.2110  -20.8710   19.9250 C   0  0  0  0  0  2  0  0  0  0  0  0
  -31.8470  -21.2040   20.1700 O   0  0  0  0  0  0  0  0  0  0  0  0
  -31.3900  -22.2340   19.3010 C   0  0  0  0  0  2  0  0  0  0  0  0
  -29.8790  -22.4670   19.4490 C   0  0  0  0  0  2  0  0  0  0  0  0
  -29.5680  -23.6830   18.7750 O   0  0  0  0  0  0  0  0  0  0  0  0
  -28.9760  -24.6840   19.5980 C   0  0  0  0  0  2  0  0  0  0  0  0
  -28.9680  -26.0140   18.8260 C   0  0  0  0  0  2  0  0  0  0  0  0
  -28.6810  -27.1040   19.6990 O   0  0  0  0  0  0  0  0  0  0  0  0
  -24.5450  -31.7790   23.0650 C   0  0  0  0  0  0  0  0  0  0  0  0
  -27.4270  -27.6750   19.7390 C   0  0  0  0  0  0  0  0  0  0  0  0
  -23.4100  -30.3940   21.3590 C   0  0  0  0  0  3  0  0  0  0  0  0
  -24.9360  -29.0160   19.8550 C   0  0  0  0  0  0  0  0  0  0  0  0
  -25.9060  -30.9110   21.1670 C   0  0  0  0  0  2  0  0  0  0  0  0
  -26.0630  -29.5810   20.4610 C   0  0  0  0  0  0  0  0  0  0  0  0
  -27.3050  -28.9150   20.4030 C   0  0  0  0  0  3  0  0  0  0  0  0
  -26.2710  -27.1040   19.1550 C   0  0  0  0  0  3  0  0  0  0  0  0
  -25.0320  -27.7730   19.2070 C   0  0  0  0  0  3  0  0  0  0  0  0
  -23.6450  -29.7980   19.9450 C   0  0  0  0  0  2  0  0  0  0  0  0
  -24.6380  -31.0420   21.9230 N   0  0  0  0  0  0  0  0  0  0  0  0
  -23.4550  -31.9610   23.6240 O   0  0  0  0  0  0  0  0  0  0  0  0
  -22.8270  -29.2890   22.2690 C   0  0  0  0  0  0  0  0  0  0  0  0
  -21.5090  -29.0560   22.1560 N   0  0  0  0  0  0  0  0  0  0  0  0
  -23.5550  -28.6470   23.0300 O   0  0  0  0  0  0  0  0  0  0  0  0
  -20.9820  -29.6320   21.5140 H   0  0  0  0  0  0  0  0  0  0  0  0
  -18.1970  -27.7030   22.6500 C   0  0  0  0  0  0  0  0  0  0  0  0
  -20.7480  -28.0390   22.8800 C   0  0  0  0  0  3  0  0  0  0  0  0
  -20.8890  -26.6550   22.2080 C   0  0  0  0  0  2  0  0  0  0  0  0
  -19.7750  -26.3570   21.2000 C   0  0  0  0  0  2  0  0  0  0  0  0
  -18.4060  -26.4070   21.8840 C   0  0  0  0  0  2  0  0  0  0  0  0
  -19.2970  -28.4780   23.1030 C   0  0  0  0  0  0  0  0  0  0  0  0
  -19.0480  -29.6920   23.7780 C   0  0  0  0  0  3  0  0  0  0  0  0
  -17.7300  -30.1340   24.0030 C   0  0  0  0  0  3  0  0  0  0  0  0
  -16.6440  -29.3550   23.5670 C   0  0  0  0  0  3  0  0  0  0  0  0
  -16.8790  -28.1410   22.8970 C   0  0  0  0  0  3  0  0  0  0  0  0
  -25.7990  -32.4490   23.7100 C   0  0  0  0  0  3  0  0  0  0  0  0
  -25.4300  -33.8250   24.0690 N   0  0  0  0  0  0  0  0  0  0  0  0
  -25.7260  -34.9060   23.3350 C   0  0  0  0  0  0  0  0  0  0  0  0
  -26.4100  -34.8520   22.3090 O   0  0  0  0  0  0  0  0  0  0  0  0
  -24.8250  -33.9370   24.8690 H   0  0  0  0  0  0  0  0  0  0  0  0
  -23.9220  -36.6230   23.0030 C   0  0  0  0  0  1  0  0  0  0  0  0
  -25.1750  -36.2610   23.8160 C   0  0  0  0  0  3  0  0  0  0  0  0
  -27.2670  -37.2190   24.6740 C   0  0  0  0  0  1  0  0  0  0  0  0
  -26.1610  -37.3610   23.7310 N   0  0  0  0  0  0  0  0  0  0  0  0
  -25.7160  -38.2590   23.8970 H   0  0  0  0  0  0  0  0  0  0  0  0
  -26.3420  -31.6680   24.9690 C   0  0  1  0  0  0  0  0  0  0  0  0
  -25.2570  -31.3600   26.0270 C   0  0  0  0  0  1  0  0  0  0  0  0
  -26.9790  -30.3240   24.5430 C   0  0  0  0  0  1  0  0  0  0  0  0
  -27.4590  -32.4900   25.6560 C   0  0  0  0  0  1  0  0  0  0  0  0
  1  3  1  0
  2  6  1  0
  2  4  2  0
  3  2  1  0
  5  3  1  0
  7  6  1  0
  8  7  1  0
  9  8  1  0
 10  9  1  0
 11 10  1  0
 11 20  1  0
 12 20  1  0
 12 18  1  0
 13 18  1  0
 14 15  1  0
 14 13  1  0
 16 15  1  0
 16 25  1  0
 16 17  1  0
 18 17  1  0
 19 12  2  0
 20 21  1  0
 22 23  2  0
 23 42  1  0
 24 23  1  0
 24 27  1  0
 25 22  1  0
 25 26  1  0
 26 24  2  0
 27 28  1  0
 28 29  2  0
 30 33  1  0
 30 29  1  0
 31 30  2  0
 32 31  1  0
 32 27  2  0
 33 34  1  0
 34 35  1  0
 35 36  2  0
 37 36  1  0
 37 41  1  0
 38 37  2  0
 39 34  2  0
 39 38  1  0
 40 39  1  0
 42 43  1  0
 43 46  1  0
 43 45  1  0
 44 42  2  0
 47 48  1  0
 47 22  1  0
 49 47  1  0
 50 51  1  0
 50  1  1  0
 52 53  1  0
 52 51  1  0
 54 53  1  0
 54 55  1  0
 56 55  1  0
 56 57  1  0
 57 59  1  0
 58 69  2  0
 59 64  1  0
 60 68  1  0
 60 70  1  0
 61 67  1  0
 61 63  1  0
 62 68  1  0
 63 62  1  0
 64 63  2  0
 65 66  1  0
 65 59  2  0
 66 61  2  0
 67 60  1  0
 68 58  1  0
 70 72  2  0
 71 70  1  0
 73 71  1  0
 74 83  2  0
 74 79  1  0
 75 71  1  0
 75 79  1  0
 76 75  1  0
 77 78  1  0
 77 76  1  0
 78 74  1  0
 79 80  2  0
 80 81  1  0
 82 81  2  0
 83 82  1  0
 84 58  1  0
 84 85  1  0
 84 94  1  0
 85 88  1  0
 86 90  1  0
 86 85  1  0
 87 86  2  0
 90 89  1  0
 92 90  1  0
 92 93  1  0
 92 91  1  0
 94 97  1  1
 94 95  1  0
 96 94  1  0
M  ISO  4  12 100  20 100  56 101  57 101
M  END
>  <TORSDO>  (17) 
F 30

>  <SCORE>  (17) 
-9.018

>  <name>  (17) 
16

>  <ligand_id>  (17) 
16

>  <original_smiles>  (17) 
[H]c1c([H])c([H])c2c(c1[H])C([H])([H])C([H])([H])C([H])([H])C2([H])N([H])C(=O)C1([H])N(C(=O)C([H])(N([H])C(=O)C([H])(N([H])C([H])([H])[H])C([H])([H])[H])C(C([H])([H])[H])(C([H])([H])[H])C([H])([H])[H])C([H])([H])c2c([H])c(OC([H])([H])C([H])([H])OC([H])([H])C([H])([H])OC([H])([H])C([H])([H])N([H])C(=O)C([H])([H])C([H])([H])OC([H])([H])C([H])([H])C([H])([H])N([H])C(=O)N3C([H])([H])C([H])([H])C([H])([H])C([H])(n4nc(-c5c([H])c([H])c(Oc6c([H])c([H])c(F)c([H])c6F)c([H])c5[H])c(C(=O)N([H])[H])c4N([H])[H])C3([H])[H])c([H])c([H])c2C1([H])[H]

>  <smiles>  (17) 
[H]c1c([H])c([H])c2c(c1[H])C([H])([H])C([H])([H])C([H])([H])C2([H])N([H])C(=O)C1([H])N(C(=O)C([H])(N([H])C(=O)C([H])(N([H])C([H])([H])[H])C([H])([H])[H])C(C([H])([H])[H])(C([H])([H])[H])C([H])([H])[H])C([H])([H])c2c([H])c(OC([H])([H])C([H])([H])OC([H])([H])C([H])([H])OC([H])([H])C([H])([H])N([H])C(=O)C([H])([H])C([H])([H])OC([H])([H])C([H])([H])C([H])([H])N([H])C(=O)N3C([H])([H])C([H])([H])C([H])([H])C([H])(n4nc(-c5c([H])c([H])c(Oc6c([H])c([H])c(F)c([H])c6F)c([H])c5[H])c(C(=O)N([H])[H])c4N([H])[H])C3([H])[H])c([H])c([H])c2C1([H])[H]

$$$$
17:0:0
     RDKit          3D

 95102  0  0  1  0  0  0  0  0999 V2000
  -28.7080  -20.1580   18.0230 C   0  0  0  0  0  0  0  0  0  0  0  0
  -27.7360  -20.3810   18.9200 N   0  0  0  0  0  0  0  0  0  0  0  0
  -28.8770  -20.8690   17.0290 O   0  0  0  0  0  0  0  0  0  0  0  0
  -27.6730  -19.7420   19.7010 H   0  0  0  0  0  0  0  0  0  0  0  0
  -26.7460  -21.4560   18.8550 C   0  0  0  0  0  2  0  0  0  0  0  0
  -27.0170  -22.5600   19.8940 C   0  0  0  0  0  2  0  0  0  0  0  0
  -28.3290  -23.0900   19.7350 O   0  0  0  0  0  0  0  0  0  0  0  0
  -28.5420  -24.3110   20.4450 C   0  0  0  0  0  2  0  0  0  0  0  0
  -28.6030  -25.5000   19.4690 C   0  0  0  0  0  2  0  0  0  0  0  0
  -28.4520  -26.7470   20.1580 O   0  0  0  0  0  0  0  0  0  0  0  0
  -24.5880  -31.8650   23.2330 C   0  0  0  0  0  0  0  0  0  0  0  0
  -27.2400  -27.4110   20.1690 C   0  0  0  0  0  0  0  0  0  0  0  0
  -23.3900  -30.4660   21.5830 C   0  0  0  0  0  3  0  0  0  0  0  0
  -24.8440  -28.9200   20.1780 C   0  0  0  0  0  0  0  0  0  0  0  0
  -25.9190  -30.8140   21.4070 C   0  0  0  0  0  2  0  0  0  0  0  0
  -26.0000  -29.4430   20.7670 C   0  0  0  0  0  0  0  0  0  0  0  0
  -27.1970  -28.6960   20.7610 C   0  0  0  0  0  3  0  0  0  0  0  0
  -26.0500  -26.8850   19.6150 C   0  0  0  0  0  3  0  0  0  0  0  0
  -24.8610  -27.6390   19.6070 C   0  0  0  0  0  3  0  0  0  0  0  0
  -23.6040  -29.7830   20.2070 C   0  0  0  0  0  2  0  0  0  0  0  0
  -24.6500  -31.0600   22.1330 N   0  0  0  0  0  0  0  0  0  0  0  0
  -23.5040  -32.1410   23.7630 O   0  0  0  0  0  0  0  0  0  0  0  0
  -22.7280  -29.4470   22.5370 C   0  0  0  0  0  0  0  0  0  0  0  0
  -21.4060  -29.2660   22.3940 N   0  0  0  0  0  0  0  0  0  0  0  0
  -23.4000  -28.8220   23.3620 O   0  0  0  0  0  0  0  0  0  0  0  0
  -20.9260  -29.8240   21.7030 H   0  0  0  0  0  0  0  0  0  0  0  0
  -18.0240  -28.0740   22.8430 C   0  0  0  0  0  0  0  0  0  0  0  0
  -20.5780  -28.3310   23.1540 C   0  0  0  0  0  3  0  0  0  0  0  0
  -20.6880  -26.8980   22.5870 C   0  0  0  0  0  2  0  0  0  0  0  0
  -19.6020  -26.5710   21.5560 C   0  0  0  0  0  2  0  0  0  0  0  0
  -18.2100  -26.7220   22.1760 C   0  0  0  0  0  2  0  0  0  0  0  0
  -19.1370  -28.8380   23.2850 C   0  0  0  0  0  0  0  0  0  0  0  0
  -18.9100  -30.1060   23.8650 C   0  0  0  0  0  3  0  0  0  0  0  0
  -17.6030  -30.6090   24.0070 C   0  0  0  0  0  3  0  0  0  0  0  0
  -16.5050  -29.8430   23.5830 C   0  0  0  0  0  3  0  0  0  0  0  0
  -16.7160  -28.5760   23.0070 C   0  0  0  0  0  3  0  0  0  0  0  0
  -25.8720  -32.4910   23.8600 C   0  0  0  0  0  3  0  0  0  0  0  0
  -26.3800  -31.7190   25.1400 C   0  0  1  0  0  0  0  0  0  0  0  0
  -25.2810  -31.4860   26.2040 C   0  0  0  0  0  1  0  0  0  0  0  0
  -26.9630  -30.3390   24.7510 C   0  0  0  0  0  1  0  0  0  0  0  0
  -27.5280  -32.5110   25.8080 C   0  0  0  0  0  1  0  0  0  0  0  0
  -25.5690  -33.8900   24.1890 N   0  0  0  0  0  0  0  0  0  0  0  0
  -25.9060  -34.9410   23.4300 C   0  0  0  0  0  0  0  0  0  0  0  0
  -26.5830  -34.8350   22.4020 O   0  0  0  0  0  0  0  0  0  0  0  0
  -24.9780  -34.0480   24.9910 H   0  0  0  0  0  0  0  0  0  0  0  0
  -24.1820  -36.7340   23.0610 C   0  0  0  0  0  1  0  0  0  0  0  0
  -25.4170  -36.3300   23.8820 C   0  0  0  0  0  3  0  0  0  0  0  0
  -27.5480  -37.2070   24.7260 C   0  0  0  0  0  1  0  0  0  0  0  0
  -26.4510  -37.3820   23.7770 N   0  0  0  0  0  0  0  0  0  0  0  0
  -26.0470  -38.3010   23.9310 H   0  0  0  0  0  0  0  0  0  0  0  0
  -29.6350  -18.9550   18.2710 C   0  0  0  0  0  2  0  0  0  0  0  0
  -30.9820  -19.3860   18.4750 O   0  0  0  0  0  0  0  0  0  0  0  0
  -31.2380  -19.9600   19.7560 C   0  0  0  0  0  2  0  0  0  0  0  0
  -32.0740  -18.9910   20.6050 C   0  0  0  0  0  2  0  0  0  0  0  0
  -31.2930  -17.8790   21.0370 O   0  0  0  0  0  0  0  0  0  0  0  0
  -32.1120  -16.8600   21.5980 C   0  0  0  0  0  2  0  0  0  0  0  0
  -31.2760  -15.7530   22.2710 C   0  0  0  0  0  2  0  0  0  0  0  0
  -30.6310  -14.3990   20.2510 C   0  0  0  0  0  0  0  0  0  0  0  0
  -30.1380  -12.4090   18.8740 C   0  0  0  0  0  2  0  0  0  0  0  0
  -29.1330  -12.6900   17.7480 C   0  0  0  0  0  2  0  0  0  0  0  0
  -27.6930  -12.5220   18.2580 C   0  0  0  0  0  2  0  0  0  0  0  0
  -27.4350  -13.3100   19.5680 C   0  0  0  0  0  3  0  0  0  0  0  0
  -28.5400  -13.0280   20.6100 C   0  0  0  0  0  2  0  0  0  0  0  0
  -29.8500  -13.3200   19.9920 N   0  0  0  0  0  0  0  0  0  0  0  0
  -31.5910  -14.7280   19.5550 O   0  0  0  0  0  0  0  0  0  0  0  0
  -30.3600  -14.9990   21.4130 N   0  0  0  0  0  0  0  0  0  0  0  0
  -29.5230  -14.6640   21.8660 H   0  0  0  0  0  0  0  0  0  0  0  0
  -25.0480  -13.8930   20.3400 C   0  0  0  0  0  0  0  0  0  0  0  0
  -24.0100  -13.1080   20.7650 C   0  0  0  0  0  0  0  0  0  0  0  0
  -24.4950  -11.7650   20.7440 C   0  0  0  0  0  0  0  0  0  0  0  0
  -26.1030  -13.0260   20.0980 N   0  0  0  0  0  0  0  0  0  0  0  0
  -25.7750  -11.7420   20.3950 N   0  0  0  0  0  0  0  0  0  0  0  0
  -23.7990  -10.4930   20.9800 C   0  0  0  0  0  0  0  0  0  0  0  0
  -24.2810   -9.5540   21.9220 C   0  0  0  0  0  3  0  0  0  0  0  0
  -23.5830   -8.3470   22.1460 C   0  0  0  0  0  3  0  0  0  0  0  0
  -22.3920   -8.0710   21.4330 C   0  0  0  0  0  0  0  0  0  0  0  0
  -21.9320   -8.9970   20.4810 C   0  0  0  0  0  3  0  0  0  0  0  0
  -22.6280  -10.1970   20.2540 C   0  0  0  0  0  3  0  0  0  0  0  0
  -21.6630   -6.9140   21.5680 O   0  0  0  0  0  0  0  0  0  0  0  0
  -21.6650   -6.1930   22.7360 C   0  0  0  0  0  0  0  0  0  0  0  0
  -21.2860   -6.7660   23.9680 C   0  0  0  0  0  3  0  0  0  0  0  0
  -21.2410   -5.9720   25.1320 C   0  0  0  0  0  3  0  0  0  0  0  0
  -21.5620   -4.6040   25.0630 C   0  0  0  0  0  0  0  0  0  0  0  0
  -21.9340   -4.0270   23.8350 C   0  0  0  0  0  3  0  0  0  0  0  0
  -21.9830   -4.8200   22.6750 C   0  0  0  0  0  0  0  0  0  0  0  0
  -22.3200   -4.2560   21.4900 F   0  0  0  0  0  0  0  0  0  0  0  0
  -21.5090   -3.8380   26.1780 F   0  0  0  0  0  0  0  0  0  0  0  0
  -22.6130  -13.5620   21.0790 C   0  0  0  0  0  0  0  0  0  0  0  0
  -21.9310  -12.8680   21.9820 N   0  0  0  0  0  0  0  0  0  0  0  0
  -22.1360  -14.5700   20.5560 O   0  0  0  0  0  0  0  0  0  0  0  0
  -22.3280  -12.0490   22.4220 H   0  0  0  0  0  0  0  0  0  0  0  0
  -20.9970  -13.1530   22.2390 H   0  0  0  0  0  0  0  0  0  0  0  0
  -25.1800  -15.2620   20.1180 N   0  0  0  0  0  0  0  0  0  0  0  0
  -24.4090  -15.9080   20.2480 H   0  0  0  0  0  0  0  0  0  0  0  0
  -26.0110  -15.7040   19.7420 H   0  0  0  0  0  0  0  0  0  0  0  0
  1 51  1  0
  1  2  1  0
  2  4  1  0
  3  1  2  0
  5  2  1  0
  5  6  1  0
  7  6  1  0
  7  8  1  0
  9 10  1  0
  9  8  1  0
 10 12  1  0
 11 22  2  0
 12 17  1  0
 13 21  1  0
 13 23  1  0
 14 20  1  0
 14 16  1  0
 15 21  1  0
 16 15  1  0
 17 16  2  0
 18 12  2  0
 19 18  1  0
 19 14  2  0
 20 13  1  0
 21 11  1  0
 23 25  2  0
 24 23  1  0
 26 24  1  0
 27 36  2  0
 27 32  1  0
 28 24  1  0
 28 32  1  0
 29 28  1  0
 30 31  1  0
 30 29  1  0
 31 27  1  0
 32 33  2  0
 33 34  1  0
 35 34  2  0
 36 35  1  0
 37 11  1  0
 37 42  1  0
 37 38  1  0
 38 41  1  1
 38 39  1  0
 40 38  1  0
 42 45  1  0
 43 47  1  0
 43 42  1  0
 44 43  2  0
 47 46  1  0
 49 47  1  0
 49 50  1  0
 49 48  1  0
 51 52  1  0
 52 53  1  0
 53 54  1  0
 54 55  1  0
 55 56  1  0
 56 57  1  0
 58 66  1  0
 59 64  1  0
 60 61  1  0
 60 59  1  0
 62 61  1  0
 62 71  1  0
 62 63  1  0
 64 58  1  0
 64 63  1  0
 65 58  2  0
 66 67  1  0
 66 57  1  0
 68 69  2  0
 69 88  1  0
 70 69  1  0
 70 73  1  0
 71 68  1  0
 71 72  1  0
 72 70  2  0
 73 74  1  0
 74 75  2  0
 76 79  1  0
 76 75  1  0
 77 76  2  0
 78 77  1  0
 78 73  2  0
 79 80  1  0
 80 81  1  0
 81 82  2  0
 83 82  1  0
 83 87  1  0
 84 83  2  0
 85 80  2  0
 85 84  1  0
 86 85  1  0
 88 89  1  0
 89 92  1  0
 89 91  1  0
 90 88  2  0
 93 94  1  0
 93 68  1  0
 95 93  1  0
M  ISO  4   9 101  10 101  58 100  66 100
M  END
>  <TORSDO>  (18) 
F 28

>  <SCORE>  (18) 
-10.207

>  <name>  (18) 
17

>  <ligand_id>  (18) 
17

>  <original_smiles>  (18) 
[H]c1c([H])c([H])c2c(c1[H])C([H])([H])C([H])([H])C([H])([H])C2([H])N([H])C(=O)C1([H])N(C(=O)C([H])(N([H])C(=O)C([H])(N([H])C([H])([H])[H])C([H])([H])[H])C(C([H])([H])[H])(C([H])([H])[H])C([H])([H])[H])C([H])([H])c2c([H])c(OC([H])([H])C([H])([H])OC([H])([H])C([H])([H])N([H])C(=O)C([H])([H])OC([H])([H])C([H])([H])OC([H])([H])C([H])([H])N([H])C(=O)N3C([H])([H])C([H])([H])C([H])([H])C([H])(n4nc(-c5c([H])c([H])c(Oc6c([H])c([H])c(F)c([H])c6F)c([H])c5[H])c(C(=O)N([H])[H])c4N([H])[H])C3([H])[H])c([H])c([H])c2C1([H])[H]

>  <smiles>  (18) 
[H]c1c([H])c([H])c2c(c1[H])C([H])([H])C([H])([H])C([H])([H])C2([H])N([H])C(=O)C1([H])N(C(=O)C([H])(N([H])C(=O)C([H])(N([H])C([H])([H])[H])C([H])([H])[H])C(C([H])([H])[H])(C([H])([H])[H])C([H])([H])[H])C([H])([H])c2c([H])c(OC([H])([H])C([H])([H])OC([H])([H])C([H])([H])N([H])C(=O)C([H])([H])OC([H])([H])C([H])([H])OC([H])([H])C([H])([H])N([H])C(=O)N3C([H])([H])C([H])([H])C([H])([H])C([H])(n4nc(-c5c([H])c([H])c(Oc6c([H])c([H])c(F)c([H])c6F)c([H])c5[H])c(C(=O)N([H])[H])c4N([H])[H])C3([H])[H])c([H])c([H])c2C1([H])[H]

$$$$
18:0:0
     RDKit          3D

 98105  0  0  1  0  0  0  0  0999 V2000
  -29.1810  -19.0920   16.2810 C   0  0  0  0  0  2  0  0  0  0  0  0
  -28.6140  -18.1860   17.3080 N   0  0  0  0  0  4  0  0  0  0  0  0
  -27.6070  -18.2330   17.2770 H   0  0  0  0  0  0  0  0  0  0  0  0
  -28.8720  -17.2470   17.0420 H   0  0  0  0  0  0  0  0  0  0  0  0
  -29.0670  -18.3990   18.7020 C   0  0  0  0  0  2  0  0  0  0  0  0
  -28.6500  -17.2090   19.5920 C   0  0  0  0  0  2  0  0  0  0  0  0
  -30.1130  -16.8360   21.6330 C   0  0  0  0  0  0  0  0  0  0  0  0
  -29.0610  -17.3580   20.9880 N   0  0  0  0  0  0  0  0  0  0  0  0
  -30.2500  -17.0380   22.8390 O   0  0  0  0  0  0  0  0  0  0  0  0
  -28.4500  -17.9250   21.5600 H   0  0  0  0  0  0  0  0  0  0  0  0
  -32.5320  -15.9290   21.5530 C   0  0  0  0  0  1  0  0  0  0  0  0
  -31.1370  -15.9580   20.8970 C   0  0  0  0  0  3  0  0  0  0  0  0
  -30.9920  -13.7370   19.7820 C   0  0  0  0  0  0  0  0  0  0  0  0
  -30.3470  -11.7550   18.4750 C   0  0  0  0  0  2  0  0  0  0  0  0
  -29.3150  -12.1430   17.3990 C   0  0  0  0  0  2  0  0  0  0  0  0
  -27.8840  -12.1130   17.9700 C   0  0  0  0  0  2  0  0  0  0  0  0
  -27.7600  -12.8830   19.3130 C   0  0  0  0  0  3  0  0  0  0  0  0
  -28.8810  -12.4540   20.2850 C   0  0  0  0  0  2  0  0  0  0  0  0
  -30.1790  -12.6630   19.6180 N   0  0  0  0  0  0  0  0  0  0  0  0
  -31.9860  -13.9520   19.0820 O   0  0  0  0  0  0  0  0  0  0  0  0
  -30.6100  -14.6030   20.7270 N   0  0  0  0  0  0  0  0  0  0  0  0
  -29.8140  -14.3470   21.2940 H   0  0  0  0  0  0  0  0  0  0  0  0
  -25.4790  -13.6650   20.2210 C   0  0  0  0  0  0  0  0  0  0  0  0
  -24.3950  -12.9720   20.6870 C   0  0  0  0  0  0  0  0  0  0  0  0
  -24.7550  -11.5920   20.6260 C   0  0  0  0  0  0  0  0  0  0  0  0
  -26.4350  -12.7120   19.9060 N   0  0  0  0  0  0  0  0  0  0  0  0
  -26.0060  -11.4600   20.2040 N   0  0  0  0  0  0  0  0  0  0  0  0
  -23.9630  -10.3850   20.8920 C   0  0  0  0  0  0  0  0  0  0  0  0
  -24.4130   -9.3900   21.7880 C   0  0  0  0  0  3  0  0  0  0  0  0
  -23.6260   -8.2450   22.0400 C   0  0  0  0  0  3  0  0  0  0  0  0
  -22.3760   -8.0890   21.3960 C   0  0  0  0  0  0  0  0  0  0  0  0
  -21.9440   -9.0710   20.4870 C   0  0  0  0  0  3  0  0  0  0  0  0
  -22.7300  -10.2070   20.2330 C   0  0  0  0  0  3  0  0  0  0  0  0
  -21.5550   -6.9990   21.5610 O   0  0  0  0  0  0  0  0  0  0  0  0
  -21.5630   -6.2600   22.7160 C   0  0  0  0  0  0  0  0  0  0  0  0
  -21.3170   -6.8450   23.9780 C   0  0  0  0  0  3  0  0  0  0  0  0
  -21.2650   -6.0370   25.1300 C   0  0  0  0  0  3  0  0  0  0  0  0
  -21.4490   -4.6450   25.0250 C   0  0  0  0  0  0  0  0  0  0  0  0
  -21.6890   -4.0600   23.7690 C   0  0  0  0  0  3  0  0  0  0  0  0
  -21.7420   -4.8650   22.6180 C   0  0  0  0  0  0  0  0  0  0  0  0
  -21.9520   -4.2940   21.4080 F   0  0  0  0  0  0  0  0  0  0  0  0
  -21.3920   -3.8680   26.1310 F   0  0  0  0  0  0  0  0  0  0  0  0
  -23.0640  -13.5490   21.0830 C   0  0  0  0  0  0  0  0  0  0  0  0
  -22.3760  -12.9110   22.0220 N   0  0  0  0  0  0  0  0  0  0  0  0
  -22.6500  -14.5980   20.5930 O   0  0  0  0  0  0  0  0  0  0  0  0
  -22.7250  -12.0610   22.4420 H   0  0  0  0  0  0  0  0  0  0  0  0
  -21.4880  -13.2780   22.3300 H   0  0  0  0  0  0  0  0  0  0  0  0
  -25.7280  -15.0200   20.0280 N   0  0  0  0  0  0  0  0  0  0  0  0
  -25.0390  -15.7350   20.2350 H   0  0  0  0  0  0  0  0  0  0  0  0
  -26.6120  -15.3950   19.7180 H   0  0  0  0  0  0  0  0  0  0  0  0
  -28.6410  -20.5300   16.3390 C   0  0  0  0  0  2  0  0  0  0  0  0
  -29.4580  -21.2950   17.2180 O   0  0  0  0  0  0  0  0  0  0  0  0
  -29.1750  -22.6860   17.1280 C   0  0  0  0  0  2  0  0  0  0  0  0
  -30.2090  -23.4940   17.9200 C   0  0  0  0  0  2  0  0  0  0  0  0
  -29.9340  -23.4040   19.3170 O   0  0  0  0  0  0  0  0  0  0  0  0
  -29.8710  -24.6670   19.9740 C   0  0  0  0  0  2  0  0  0  0  0  0
  -28.4950  -25.3080   19.7470 C   0  0  0  0  0  2  0  0  0  0  0  0
  -28.4710  -26.6340   20.2630 O   0  0  0  0  0  0  0  0  0  0  0  0
  -24.6210  -31.8010   23.2230 C   0  0  0  0  0  0  0  0  0  0  0  0
  -27.2760  -27.3200   20.2250 C   0  0  0  0  0  0  0  0  0  0  0  0
  -23.4270  -30.3960   21.5760 C   0  0  0  0  0  3  0  0  0  0  0  0
  -24.8860  -28.8320   20.1900 C   0  0  0  0  0  0  0  0  0  0  0  0
  -25.9560  -30.7320   21.4120 C   0  0  0  0  0  2  0  0  0  0  0  0
  -26.0380  -29.3550   20.7910 C   0  0  0  0  0  0  0  0  0  0  0  0
  -27.2330  -28.6060   20.8050 C   0  0  0  0  0  3  0  0  0  0  0  0
  -26.1000  -26.8040   19.6260 C   0  0  0  0  0  3  0  0  0  0  0  0
  -24.9110  -27.5540   19.6080 C   0  0  0  0  0  3  0  0  0  0  0  0
  -23.6510  -29.7020   20.2050 C   0  0  0  0  0  2  0  0  0  0  0  0
  -24.6860  -30.9920   22.1290 N   0  0  0  0  0  0  0  0  0  0  0  0
  -23.5340  -32.0890   23.7430 O   0  0  0  0  0  0  0  0  0  0  0  0
  -22.7510  -29.3900   22.5340 C   0  0  0  0  0  0  0  0  0  0  0  0
  -21.4270  -29.2230   22.3860 N   0  0  0  0  0  0  0  0  0  0  0  0
  -23.4150  -28.7620   23.3630 O   0  0  0  0  0  0  0  0  0  0  0  0
  -20.9560  -29.7830   21.6890 H   0  0  0  0  0  0  0  0  0  0  0  0
  -18.0300  -28.0760   22.8280 C   0  0  0  0  0  0  0  0  0  0  0  0
  -20.5850  -28.3040   23.1500 C   0  0  0  0  0  3  0  0  0  0  0  0
  -20.6800  -26.8660   22.5900 C   0  0  0  0  0  2  0  0  0  0  0  0
  -19.5940  -26.5460   21.5580 C   0  0  0  0  0  2  0  0  0  0  0  0
  -18.2020  -26.7160   22.1730 C   0  0  0  0  0  2  0  0  0  0  0  0
  -19.1490  -28.8280   23.2720 C   0  0  0  0  0  0  0  0  0  0  0  0
  -18.9370  -30.1020   23.8420 C   0  0  0  0  0  3  0  0  0  0  0  0
  -17.6350  -30.6230   23.9750 C   0  0  0  0  0  3  0  0  0  0  0  0
  -16.5300  -29.8680   23.5490 C   0  0  0  0  0  3  0  0  0  0  0  0
  -16.7270  -28.5960   22.9810 C   0  0  0  0  0  3  0  0  0  0  0  0
  -25.9040  -32.4240   23.8580 C   0  0  0  0  0  3  0  0  0  0  0  0
  -25.6000  -33.8210   24.1910 N   0  0  0  0  0  0  0  0  0  0  0  0
  -25.9410  -34.8750   23.4360 C   0  0  0  0  0  0  0  0  0  0  0  0
  -26.6160  -34.7710   22.4090 O   0  0  0  0  0  0  0  0  0  0  0  0
  -24.9990  -33.9770   24.9870 H   0  0  0  0  0  0  0  0  0  0  0  0
  -24.2110  -36.6660   23.0810 C   0  0  0  0  0  1  0  0  0  0  0  0
  -25.4520  -36.2620   23.8920 C   0  0  0  0  0  3  0  0  0  0  0  0
  -27.5910  -37.1420   24.7190 C   0  0  0  0  0  1  0  0  0  0  0  0
  -26.4840  -37.3160   23.7800 N   0  0  0  0  0  0  0  0  0  0  0  0
  -26.0800  -38.2360   23.9340 H   0  0  0  0  0  0  0  0  0  0  0  0
  -26.4080  -31.6440   25.1340 C   0  0  1  0  0  0  0  0  0  0  0  0
  -25.3070  -31.4060   26.1940 C   0  0  0  0  0  1  0  0  0  0  0  0
  -26.9850  -30.2670   24.7340 C   0  0  0  0  0  1  0  0  0  0  0  0
  -27.5570  -32.4290   25.8090 C   0  0  0  0  0  1  0  0  0  0  0  0
  1 51  1  0
  1  2  1  0
  2  5  1  0
  3  2  1  0
  4  2  1  0
  5  6  1  0
  6  8  1  0
  7  9  2  0
  8 10  1  0
  8  7  1  0
 12 11  1  0
 12  7  1  0
 13 21  1  0
 14 19  1  0
 15 16  1  0
 15 14  1  0
 17 16  1  0
 17 26  1  0
 17 18  1  0
 19 13  1  0
 19 18  1  0
 20 13  2  0
 21 12  1  0
 21 22  1  0
 23 24  2  0
 24 43  1  0
 25 24  1  0
 25 28  1  0
 26 27  1  0
 26 23  1  0
 27 25  2  0
 28 29  1  0
 29 30  2  0
 31 34  1  0
 31 30  1  0
 32 31  2  0
 33 32  1  0
 33 28  2  0
 34 35  1  0
 35 36  1  0
 36 37  2  0
 38 37  1  0
 38 42  1  0
 39 38  2  0
 40 35  2  0
 40 39  1  0
 41 40  1  0
 43 44  1  0
 44 47  1  0
 44 46  1  0
 45 43  2  0
 48 23  1  0
 48 49  1  0
 50 48  1  0
 51 52  1  0
 53 52  1  0
 53 54  1  0
 54 55  1  0
 55 56  1  0
 57 56  1  0
 57 58  1  0
 59 70  2  0
 60 58  1  0
 60 65  1  0
 61 69  1  0
 61 71  1  0
 62 68  1  0
 62 64  1  0
 63 69  1  0
 64 65  2  0
 64 63  1  0
 66 60  2  0
 67 66  1  0
 67 62  2  0
 68 61  1  0
 69 59  1  0
 71 73  2  0
 72 71  1  0
 74 72  1  0
 75 84  2  0
 75 80  1  0
 76 72  1  0
 76 80  1  0
 77 76  1  0
 78 79  1  0
 78 77  1  0
 79 75  1  0
 80 81  2  0
 81 82  1  0
 83 82  2  0
 84 83  1  0
 85 59  1  0
 85 86  1  0
 85 95  1  0
 86 89  1  0
 87 91  1  0
 87 86  1  0
 88 87  2  0
 91 90  1  0
 93 91  1  0
 93 94  1  0
 93 92  1  0
 95 98  1  1
 95 96  1  0
 97 95  1  0
M  ISO  4  13 100  21 100  57 101  58 101
M  END
>  <TORSDO>  (19) 
F 28

>  <SCORE>  (19) 
-9.730

>  <name>  (19) 
18

>  <ligand_id>  (19) 
18

>  <original_smiles>  (19) 
[H]c1c([H])c([H])c2c(c1[H])C([H])([H])C([H])([H])C([H])([H])C2([H])N([H])C(=O)C1([H])N(C(=O)C([H])(N([H])C(=O)C([H])(N([H])C([H])([H])[H])C([H])([H])[H])C(C([H])([H])[H])(C([H])([H])[H])C([H])([H])[H])C([H])([H])c2c([H])c(OC([H])([H])C([H])([H])OC([H])([H])C([H])([H])OC([H])([H])C([H])([H])[N+]([H])([H])C([H])([H])C([H])([H])N([H])C(=O)C([H])(N([H])C(=O)N3C([H])([H])C([H])([H])C([H])([H])C([H])(n4nc(-c5c([H])c([H])c(Oc6c([H])c([H])c(F)c([H])c6F)c([H])c5[H])c(C(=O)N([H])[H])c4N([H])[H])C3([H])[H])C([H])([H])[H])c([H])c([H])c2C1([H])[H]

>  <smiles>  (19) 
[H]c1c([H])c([H])c2c(c1[H])C([H])([H])C([H])([H])C([H])([H])C2([H])N([H])C(=O)C1([H])N(C(=O)C([H])(N([H])C(=O)C([H])(N([H])C([H])([H])[H])C([H])([H])[H])C(C([H])([H])[H])(C([H])([H])[H])C([H])([H])[H])C([H])([H])c2c([H])c(OC([H])([H])C([H])([H])OC([H])([H])C([H])([H])OC([H])([H])C([H])([H])[N+]([H])([H])C([H])([H])C([H])([H])N([H])C(=O)C([H])(N([H])C(=O)N3C([H])([H])C([H])([H])C([H])([H])C([H])(n4nc(-c5c([H])c([H])c(Oc6c([H])c([H])c(F)c([H])c6F)c([H])c5[H])c(C(=O)N([H])[H])c4N([H])[H])C3([H])[H])C([H])([H])[H])c([H])c([H])c2C1([H])[H]

$$$$
19:0:0
     RDKit          3D

 96103  0  0  1  0  0  0  0  0999 V2000
  -25.8020  -24.1790   22.7810 N   0  0  0  0  0  4  0  0  0  0  0  0
  -26.5130  -24.1720   22.0610 H   0  0  0  0  0  0  0  0  0  0  0  0
  -26.0410  -23.4530   23.4380 H   0  0  0  0  0  0  0  0  0  0  0  0
  -25.8460  -25.4860   23.4770 C   0  0  0  0  0  2  0  0  0  0  0  0
  -27.2940  -25.9380   23.6770 C   0  0  0  0  0  2  0  0  0  0  0  0
  -28.0240  -25.5650   22.5150 O   0  0  0  0  0  0  0  0  0  0  0  0
  -29.4280  -25.5130   22.7320 C   0  0  0  0  0  2  0  0  0  0  0  0
  -30.1630  -25.6410   21.3920 C   0  0  0  0  0  2  0  0  0  0  0  0
  -29.9610  -26.9490   20.8630 O   0  0  0  0  0  0  0  0  0  0  0  0
  -25.1640  -31.3610   23.6960 C   0  0  0  0  0  0  0  0  0  0  0  0
  -28.6780  -27.4430   20.7970 C   0  0  0  0  0  0  0  0  0  0  0  0
  -24.3290  -29.8840   21.8970 C   0  0  0  0  0  3  0  0  0  0  0  0
  -26.1090  -28.6000   20.6040 C   0  0  0  0  0  0  0  0  0  0  0  0
  -26.7880  -30.5770   21.9760 C   0  0  0  0  0  2  0  0  0  0  0  0
  -27.1190  -29.2540   21.3210 C   0  0  0  0  0  0  0  0  0  0  0  0
  -28.4050  -28.6820   21.4120 C   0  0  0  0  0  3  0  0  0  0  0  0
  -27.6490  -26.7860   20.0840 C   0  0  0  0  0  3  0  0  0  0  0  0
  -26.3670  -27.3620   19.9880 C   0  0  0  0  0  3  0  0  0  0  0  0
  -24.7680  -29.2890   20.5320 C   0  0  0  0  0  2  0  0  0  0  0  0
  -25.4380  -30.6210   22.5840 N   0  0  0  0  0  0  0  0  0  0  0  0
  -24.0080  -31.4720   24.1250 O   0  0  0  0  0  0  0  0  0  0  0  0
  -23.7240  -28.7500   22.7520 C   0  0  0  0  0  0  0  0  0  0  0  0
  -22.5150  -28.3020   22.3800 N   0  0  0  0  0  0  0  0  0  0  0  0
  -24.3450  -28.2750   23.7070 O   0  0  0  0  0  0  0  0  0  0  0  0
  -22.0640  -28.7530   21.5960 H   0  0  0  0  0  0  0  0  0  0  0  0
  -19.4330  -26.4180   22.2440 C   0  0  0  0  0  0  0  0  0  0  0  0
  -21.7680  -27.2150   23.0130 C   0  0  0  0  0  3  0  0  0  0  0  0
  -22.2840  -25.8350   22.5430 C   0  0  0  0  0  2  0  0  0  0  0  0
  -21.5030  -25.2710   21.3500 C   0  0  0  0  0  2  0  0  0  0  0  0
  -20.0210  -25.1270   21.6980 C   0  0  0  0  0  2  0  0  0  0  0  0
  -20.2560  -27.4030   22.8510 C   0  0  0  0  0  0  0  0  0  0  0  0
  -19.6650  -28.5970   23.3180 C   0  0  0  0  0  3  0  0  0  0  0  0
  -18.2800  -28.8120   23.1920 C   0  0  0  0  0  3  0  0  0  0  0  0
  -17.4680  -27.8270   22.6020 C   0  0  0  0  0  3  0  0  0  0  0  0
  -18.0430  -26.6320   22.1350 C   0  0  0  0  0  3  0  0  0  0  0  0
  -26.2870  -32.1240   24.4660 C   0  0  0  0  0  3  0  0  0  0  0  0
  -25.8410  -33.5120   24.6390 N   0  0  0  0  0  0  0  0  0  0  0  0
  -26.2410  -34.5410   23.8770 C   0  0  0  0  0  0  0  0  0  0  0  0
  -27.0930  -34.4260   22.9920 O   0  0  0  0  0  0  0  0  0  0  0  0
  -25.1030  -33.6700   25.3110 H   0  0  0  0  0  0  0  0  0  0  0  0
  -24.5180  -36.1890   23.0750 C   0  0  0  0  0  1  0  0  0  0  0  0
  -25.5920  -35.9120   24.1390 C   0  0  0  0  0  3  0  0  0  0  0  0
  -27.5020  -36.9470   25.2830 C   0  0  0  0  0  1  0  0  0  0  0  0
  -26.5640  -37.0260   24.1670 N   0  0  0  0  0  0  0  0  0  0  0  0
  -26.0850  -37.9200   24.2180 H   0  0  0  0  0  0  0  0  0  0  0  0
  -26.6420  -31.4730   25.8600 C   0  0  1  0  0  0  0  0  0  0  0  0
  -25.4010  -31.1160   26.7110 C   0  0  0  0  0  1  0  0  0  0  0  0
  -27.4690  -30.1790   25.6630 C   0  0  0  0  0  1  0  0  0  0  0  0
  -27.5240  -32.4400   26.6850 C   0  0  0  0  0  1  0  0  0  0  0  0
  -24.4940  -23.8550   22.1740 C   0  0  0  0  0  2  0  0  0  0  0  0
  -24.6260  -22.9600   20.9290 C   0  0  0  0  0  2  0  0  0  0  0  0
  -25.8300  -23.3030   20.0350 C   0  0  0  0  0  2  0  0  0  0  0  0
  -27.0130  -23.4310   20.8260 O   0  0  0  0  0  0  0  0  0  0  0  0
  -27.7340  -22.2150   21.0190 C   0  0  0  0  0  2  0  0  0  0  0  0
  -28.3200  -21.6740   19.6980 C   0  0  0  0  0  2  0  0  0  0  0  0
  -28.5310  -20.2710   19.7750 O   0  0  0  0  0  0  0  0  0  0  0  0
  -29.8920  -19.8780   19.8710 C   0  0  0  0  0  2  0  0  0  0  0  0
  -29.9210  -18.4470   20.4340 C   0  0  0  0  0  2  0  0  0  0  0  0
  -31.8570  -16.8130   20.5520 C   0  0  0  0  0  0  0  0  0  0  0  0
  -31.9320  -14.3690   20.3320 C   0  0  0  0  0  2  0  0  0  0  0  0
  -31.2790  -13.9960   18.9850 C   0  0  0  0  0  2  0  0  0  0  0  0
  -29.7490  -13.8570   19.1270 C   0  0  0  0  0  2  0  0  0  0  0  0
  -29.0970  -15.0430   19.8930 C   0  0  0  0  0  3  0  0  0  0  0  0
  -29.8930  -15.3360   21.1890 C   0  0  0  0  0  2  0  0  0  0  0  0
  -31.2820  -15.6050   20.7940 N   0  0  0  0  0  0  0  0  0  0  0  0
  -33.0690  -16.9570   20.3930 O   0  0  0  0  0  0  0  0  0  0  0  0
  -31.0860  -17.7200   19.9350 N   0  0  0  0  0  0  0  0  0  0  0  0
  -31.6430  -18.2900   19.3150 H   0  0  0  0  0  0  0  0  0  0  0  0
  -26.6320  -15.7060   20.2170 C   0  0  0  0  0  0  0  0  0  0  0  0
  -25.5060  -14.9580   20.4360 C   0  0  0  0  0  0  0  0  0  0  0  0
  -25.9420  -13.5990   20.4950 C   0  0  0  0  0  0  0  0  0  0  0  0
  -27.6840  -14.8030   20.1640 N   0  0  0  0  0  0  0  0  0  0  0  0
  -27.2620  -13.5340   20.3820 N   0  0  0  0  0  0  0  0  0  0  0  0
  -25.1750  -12.3520   20.5920 C   0  0  0  0  0  0  0  0  0  0  0  0
  -25.4630  -11.3810   21.5770 C   0  0  0  0  0  3  0  0  0  0  0  0
  -24.6960  -10.1980   21.6610 C   0  0  0  0  0  3  0  0  0  0  0  0
  -23.6310   -9.9770   20.7570 C   0  0  0  0  0  0  0  0  0  0  0  0
  -23.3650  -10.9350   19.7620 C   0  0  0  0  0  3  0  0  0  0  0  0
  -24.1310  -12.1100   19.6770 C   0  0  0  0  0  3  0  0  0  0  0  0
  -22.8530   -8.8450   20.7430 O   0  0  0  0  0  0  0  0  0  0  0  0
  -22.5610   -8.1620   21.8960 C   0  0  0  0  0  0  0  0  0  0  0  0
  -21.9280   -8.7890   22.9920 C   0  0  0  0  0  3  0  0  0  0  0  0
  -21.5840   -8.0350   24.1320 C   0  0  0  0  0  3  0  0  0  0  0  0
  -21.8600   -6.6550   24.1720 C   0  0  0  0  0  0  0  0  0  0  0  0
  -22.4840   -6.0270   23.0810 C   0  0  0  0  0  3  0  0  0  0  0  0
  -22.8300   -6.7790   21.9440 C   0  0  0  0  0  0  0  0  0  0  0  0
  -23.4130   -6.1670   20.8850 F   0  0  0  0  0  0  0  0  0  0  0  0
  -21.5200   -5.9280   25.2620 F   0  0  0  0  0  0  0  0  0  0  0  0
  -24.0920  -15.4610   20.4860 C   0  0  0  0  0  0  0  0  0  0  0  0
  -23.2210  -14.7680   21.2110 N   0  0  0  0  0  0  0  0  0  0  0  0
  -23.7640  -16.5060   19.9240 O   0  0  0  0  0  0  0  0  0  0  0  0
  -23.4910  -13.9230   21.6910 H   0  0  0  0  0  0  0  0  0  0  0  0
  -22.2670  -15.0910   21.2910 H   0  0  0  0  0  0  0  0  0  0  0  0
  -26.8440  -17.0680   20.0390 N   0  0  0  0  0  0  0  0  0  0  0  0
  -26.0990  -17.7520   20.1100 H   0  0  0  0  0  0  0  0  0  0  0  0
  -27.7520  -17.4840   19.8790 H   0  0  0  0  0  0  0  0  0  0  0  0
  1  3  1  0
  1  4  1  0
  2  1  1  0
  4  5  1  0
  6  7  1  0
  6  5  1  0
  8  7  1  0
  9  8  1  0
 10 21  2  0
 11  9  1  0
 11 16  1  0
 12 20  1  0
 12 22  1  0
 13 15  1  0
 14 20  1  0
 15 16  2  0
 15 14  1  0
 17 11  2  0
 18 17  1  0
 18 13  2  0
 19 13  1  0
 19 12  1  0
 20 10  1  0
 22 24  2  0
 23 22  1  0
 25 23  1  0
 26 31  1  0
 27 23  1  0
 28 27  1  0
 29 30  1  0
 29 28  1  0
 30 26  1  0
 31 27  1  0
 31 32  2  0
 33 32  1  0
 34 33  2  0
 35 26  2  0
 35 34  1  0
 36 10  1  0
 36 37  1  0
 36 46  1  0
 37 40  1  0
 38 42  1  0
 38 37  1  0
 39 38  2  0
 42 41  1  0
 42 44  1  0
 44 45  1  0
 44 43  1  0
 46 49  1  1
 46 47  1  0
 48 46  1  0
 50  1  1  0
 51 50  1  0
 52 53  1  0
 52 51  1  0
 53 54  1  0
 55 56  1  0
 55 54  1  0
 56 57  1  0
 57 58  1  0
 59 65  1  0
 60 65  1  0
 61 62  1  0
 61 60  1  0
 63 62  1  0
 63 72  1  0
 63 64  1  0
 65 64  1  0
 66 59  2  0
 67 58  1  0
 67 59  1  0
 68 67  1  0
 69 70  2  0
 70 89  1  0
 70 71  1  0
 71 74  1  0
 72 69  1  0
 72 73  1  0
 73 71  2  0
 74 75  1  0
 75 76  2  0
 77 76  1  0
 78 77  2  0
 79 78  1  0
 79 74  2  0
 80 77  1  0
 80 81  1  0
 81 86  2  0
 81 82  1  0
 82 83  2  0
 83 84  1  0
 84 88  1  0
 85 84  2  0
 86 85  1  0
 87 86  1  0
 89 90  1  0
 90 93  1  0
 90 92  1  0
 91 89  2  0
 94 95  1  0
 94 69  1  0
 96 94  1  0
M  ISO  4   8 101   9 101  59 100  67 100
M  END
>  <TORSDO>  (20) 
F 30

>  <SCORE>  (20) 
-5.992

>  <name>  (20) 
19

>  <ligand_id>  (20) 
19

>  <original_smiles>  (20) 
[H]c1c([H])c([H])c2c(c1[H])C([H])([H])C([H])([H])C([H])([H])C2([H])N([H])C(=O)C1([H])N(C(=O)C([H])(N([H])C(=O)C([H])(N([H])C([H])([H])[H])C([H])([H])[H])C(C([H])([H])[H])(C([H])([H])[H])C([H])([H])[H])C([H])([H])c2c([H])c(OC([H])([H])C([H])([H])OC([H])([H])C([H])([H])[N+]([H])([H])C([H])([H])C([H])([H])C([H])([H])OC([H])([H])C([H])([H])OC([H])([H])C([H])([H])N([H])C(=O)N3C([H])([H])C([H])([H])C([H])([H])C([H])(n4nc(-c5c([H])c([H])c(Oc6c([H])c([H])c(F)c([H])c6F)c([H])c5[H])c(C(=O)N([H])[H])c4N([H])[H])C3([H])[H])c([H])c([H])c2C1([H])[H]

>  <smiles>  (20) 
[H]c1c([H])c([H])c2c(c1[H])C([H])([H])C([H])([H])C([H])([H])C2([H])N([H])C(=O)C1([H])N(C(=O)C([H])(N([H])C(=O)C([H])(N([H])C([H])([H])[H])C([H])([H])[H])C(C([H])([H])[H])(C([H])([H])[H])C([H])([H])[H])C([H])([H])c2c([H])c(OC([H])([H])C([H])([H])OC([H])([H])C([H])([H])[N+]([H])([H])C([H])([H])C([H])([H])C([H])([H])OC([H])([H])C([H])([H])OC([H])([H])C([H])([H])N([H])C(=O)N3C([H])([H])C([H])([H])C([H])([H])C([H])(n4nc(-c5c([H])c([H])c(Oc6c([H])c([H])c(F)c([H])c6F)c([H])c5[H])c(C(=O)N([H])[H])c4N([H])[H])C3([H])[H])c([H])c([H])c2C1([H])[H]

$$$$
20:0:0
     RDKit          3D

 97104  0  0  1  0  0  0  0  0999 V2000
  -27.3280  -20.5250   18.8820 C   0  0  0  0  0  0  0  0  0  0  0  0
  -26.1580  -21.1670   18.9690 N   0  0  0  0  0  0  0  0  0  0  0  0
  -28.3110  -20.9900   18.2990 O   0  0  0  0  0  0  0  0  0  0  0  0
  -25.4140  -20.6900   19.4610 H   0  0  0  0  0  0  0  0  0  0  0  0
  -27.0270  -19.1890   21.0620 C   0  0  0  0  0  1  0  0  0  0  0  0
  -27.4030  -19.1530   19.5680 C   0  0  0  0  0  3  0  0  0  0  0  0
  -29.0600  -17.3000   19.6840 C   0  0  0  0  0  0  0  0  0  0  0  0
  -28.7270  -18.5590   19.3890 N   0  0  0  0  0  0  0  0  0  0  0  0
  -28.2500  -16.5230   20.2010 O   0  0  0  0  0  0  0  0  0  0  0  0
  -29.4020  -19.1410   18.9080 H   0  0  0  0  0  0  0  0  0  0  0  0
  -31.5340  -17.7330   19.9900 C   0  0  0  0  0  1  0  0  0  0  0  0
  -30.6590  -16.7570   17.8020 C   0  0  0  0  0  1  0  0  0  0  0  0
  -30.4860  -16.8120   19.3410 C   0  0  2  0  0  0  0  0  0  0  0  0
  -31.4070  -14.4640   19.7840 C   0  0  0  0  0  0  0  0  0  0  0  0
  -31.3040  -12.0520   19.3340 C   0  0  0  0  0  2  0  0  0  0  0  0
  -30.4040  -11.8420   18.0980 C   0  0  0  0  0  2  0  0  0  0  0  0
  -28.9190  -11.7460   18.5070 C   0  0  0  0  0  2  0  0  0  0  0  0
  -28.4830  -12.8910   19.4600 C   0  0  0  0  0  3  0  0  0  0  0  0
  -29.4970  -13.0520   20.6160 C   0  0  0  0  0  2  0  0  0  0  0  0
  -30.8350  -13.2560   20.0280 N   0  0  0  0  0  0  0  0  0  0  0  0
  -32.5260  -14.6060   19.2830 O   0  0  0  0  0  0  0  0  0  0  0  0
  -30.5620  -15.4820   19.9490 N   0  0  0  0  0  0  0  0  0  0  0  0
  -29.6860  -15.2440   20.3980 H   0  0  0  0  0  0  0  0  0  0  0  0
  -26.0950  -13.6050   20.1130 C   0  0  0  0  0  0  0  0  0  0  0  0
  -25.0090  -12.8850   20.5320 C   0  0  0  0  0  0  0  0  0  0  0  0
  -25.4400  -11.5250   20.6000 C   0  0  0  0  0  0  0  0  0  0  0  0
  -27.1230  -12.6870   19.9570 N   0  0  0  0  0  0  0  0  0  0  0  0
  -26.7300  -11.4340   20.3030 N   0  0  0  0  0  0  0  0  0  0  0  0
  -24.6860  -10.2980   20.8820 C   0  0  0  0  0  0  0  0  0  0  0  0
  -24.9550   -9.5120   22.0240 C   0  0  0  0  0  3  0  0  0  0  0  0
  -24.2060   -8.3440   22.2820 C   0  0  0  0  0  3  0  0  0  0  0  0
  -23.1750   -7.9530   21.3960 C   0  0  0  0  0  0  0  0  0  0  0  0
  -22.9250   -8.7260   20.2500 C   0  0  0  0  0  3  0  0  0  0  0  0
  -23.6750   -9.8870   19.9920 C   0  0  0  0  0  3  0  0  0  0  0  0
  -22.4150   -6.8190   21.5520 O   0  0  0  0  0  0  0  0  0  0  0  0
  -22.0210   -6.3810   22.7900 C   0  0  0  0  0  0  0  0  0  0  0  0
  -21.2340   -7.1790   23.6480 C   0  0  0  0  0  3  0  0  0  0  0  0
  -20.7940   -6.6630   24.8830 C   0  0  0  0  0  3  0  0  0  0  0  0
  -21.1320   -5.3490   25.2580 C   0  0  0  0  0  0  0  0  0  0  0  0
  -21.9120   -4.5500   24.4020 C   0  0  0  0  0  3  0  0  0  0  0  0
  -22.3540   -5.0650   23.1700 C   0  0  0  0  0  0  0  0  0  0  0  0
  -23.0870   -4.2850   22.3410 F   0  0  0  0  0  0  0  0  0  0  0  0
  -20.7020   -4.8490   26.4400 F   0  0  0  0  0  0  0  0  0  0  0  0
  -23.6250  -13.4140   20.7770 C   0  0  0  0  0  0  0  0  0  0  0  0
  -22.9020  -12.8240   21.7220 N   0  0  0  0  0  0  0  0  0  0  0  0
  -23.1980  -14.3920   20.1680 O   0  0  0  0  0  0  0  0  0  0  0  0
  -23.2570  -12.0370   22.2420 H   0  0  0  0  0  0  0  0  0  0  0  0
  -21.9760  -13.1700   21.9300 H   0  0  0  0  0  0  0  0  0  0  0  0
  -26.2860  -14.9550   19.8440 N   0  0  0  0  0  0  0  0  0  0  0  0
  -25.5330  -15.5980   20.0500 H   0  0  0  0  0  0  0  0  0  0  0  0
  -27.1990  -15.3640   20.0370 H   0  0  0  0  0  0  0  0  0  0  0  0
  -25.8650  -22.5170   18.4970 C   0  0  0  0  0  2  0  0  0  0  0  0
  -26.4360  -23.5870   19.4440 C   0  0  0  0  0  2  0  0  0  0  0  0
  -27.7400  -23.9680   19.0270 O   0  0  0  0  0  0  0  0  0  0  0  0
  -28.4740  -24.6910   20.0110 C   0  0  0  0  0  2  0  0  0  0  0  0
  -29.3050  -25.8050   19.3330 C   0  0  0  0  0  2  0  0  0  0  0  0
  -29.1140  -27.0910   19.9310 O   0  0  0  0  0  0  0  0  0  0  0  0
  -24.7010  -31.5670   23.2240 C   0  0  0  0  0  0  0  0  0  0  0  0
  -27.8650  -27.6790   19.8990 C   0  0  0  0  0  0  0  0  0  0  0  0
  -23.6990  -30.2390   21.3950 C   0  0  0  0  0  3  0  0  0  0  0  0
  -25.3460  -28.9660   19.9230 C   0  0  0  0  0  0  0  0  0  0  0  0
  -26.1940  -30.8160   21.3800 C   0  0  0  0  0  2  0  0  0  0  0  0
  -26.4240  -29.5260   20.6190 C   0  0  0  0  0  0  0  0  0  0  0  0
  -27.6830  -28.8870   20.6080 C   0  0  0  0  0  3  0  0  0  0  0  0
  -26.7650  -27.1310   19.1980 C   0  0  0  0  0  3  0  0  0  0  0  0
  -25.5100  -27.7650   19.2140 C   0  0  0  0  0  3  0  0  0  0  0  0
  -24.0310  -29.7070   19.9730 C   0  0  0  0  0  2  0  0  0  0  0  0
  -24.8780  -30.8820   22.0600 N   0  0  0  0  0  0  0  0  0  0  0  0
  -23.5750  -31.7010   23.7260 O   0  0  0  0  0  0  0  0  0  0  0  0
  -23.0910  -29.0820   22.2190 C   0  0  0  0  0  0  0  0  0  0  0  0
  -21.7950  -28.8140   22.0040 N   0  0  0  0  0  0  0  0  0  0  0  0
  -23.7850  -28.4310   23.0040 O   0  0  0  0  0  0  0  0  0  0  0  0
  -21.2960  -29.3970   21.3470 H   0  0  0  0  0  0  0  0  0  0  0  0
  -18.5020  -27.3460   22.2290 C   0  0  0  0  0  0  0  0  0  0  0  0
  -21.0230  -27.7460   22.6360 C   0  0  0  0  0  3  0  0  0  0  0  0
  -21.2520  -26.3950   21.9180 C   0  0  0  0  0  2  0  0  0  0  0  0
  -20.2120  -26.1120   20.8300 C   0  0  0  0  0  2  0  0  0  0  0  0
  -18.8030  -26.0860   21.4330 C   0  0  0  0  0  2  0  0  0  0  0  0
  -19.5460  -28.1330   22.7820 C   0  0  0  0  0  0  0  0  0  0  0  0
  -19.2200  -29.3150   23.4800 C   0  0  0  0  0  3  0  0  0  0  0  0
  -17.8770  -29.7100   23.6360 C   0  0  0  0  0  3  0  0  0  0  0  0
  -16.8450  -28.9160   23.1050 C   0  0  0  0  0  3  0  0  0  0  0  0
  -17.1570  -27.7350   22.4070 C   0  0  0  0  0  3  0  0  0  0  0  0
  -25.8980  -32.2350   23.9680 C   0  0  0  0  0  3  0  0  0  0  0  0
  -26.3360  -31.4560   25.2680 C   0  0  1  0  0  0  0  0  0  0  0  0
  -25.1660  -31.1370   26.2270 C   0  0  0  0  0  1  0  0  0  0  0  0
  -27.0170  -30.1200   24.8970 C   0  0  0  0  0  1  0  0  0  0  0  0
  -27.3820  -32.2850   26.0520 C   0  0  0  0  0  1  0  0  0  0  0  0
  -25.5020  -33.6110   24.2960 N   0  0  0  0  0  0  0  0  0  0  0  0
  -25.8510  -34.6920   23.5850 C   0  0  0  0  0  0  0  0  0  0  0  0
  -26.6100  -34.6410   22.6130 O   0  0  0  0  0  0  0  0  0  0  0  0
  -24.8370  -33.7210   25.0460 H   0  0  0  0  0  0  0  0  0  0  0  0
  -24.0770  -36.4130   23.1170 C   0  0  0  0  0  1  0  0  0  0  0  0
  -25.2630  -36.0480   24.0230 C   0  0  0  0  0  3  0  0  0  0  0  0
  -27.2740  -37.0140   25.0500 C   0  0  0  0  0  1  0  0  0  0  0  0
  -26.2510  -37.1480   24.0150 N   0  0  0  0  0  0  0  0  0  0  0  0
  -25.7930  -38.0460   24.1380 H   0  0  0  0  0  0  0  0  0  0  0  0
  1  2  1  0
  1  6  1  0
  2  4  1  0
  3  1  2  0
  6  5  1  0
  7  9  2  0
  8  6  1  0
  8  7  1  0
 10  8  1  0
 13 12  1  6
 13  7  1  0
 13 22  1  0
 13 11  1  0
 14 22  1  0
 14 20  1  0
 15 20  1  0
 16 17  1  0
 16 15  1  0
 18 17  1  0
 18 27  1  0
 18 19  1  0
 20 19  1  0
 21 14  2  0
 22 23  1  0
 24 25  2  0
 25 26  1  0
 25 44  1  0
 26 29  1  0
 27 24  1  0
 27 28  1  0
 28 26  2  0
 29 30  1  0
 30 31  2  0
 32 35  1  0
 32 31  1  0
 33 32  2  0
 34 33  1  0
 34 29  2  0
 35 36  1  0
 36 41  2  0
 36 37  1  0
 37 38  2  0
 38 39  1  0
 39 43  1  0
 40 39  2  0
 41 40  1  0
 42 41  1  0
 44 45  1  0
 45 48  1  0
 45 47  1  0
 46 44  2  0
 49 51  1  0
 49 50  1  0
 49 24  1  0
 52  2  1  0
 52 53  1  0
 54 53  1  0
 54 55  1  0
 56 57  1  0
 56 55  1  0
 58 69  2  0
 59 57  1  0
 59 64  1  0
 60 68  1  0
 60 70  1  0
 61 67  1  0
 61 63  1  0
 62 68  1  0
 63 62  1  0
 64 63  2  0
 65 66  1  0
 65 59  2  0
 66 61  2  0
 67 60  1  0
 68 58  1  0
 70 72  2  0
 71 70  1  0
 73 71  1  0
 74 83  2  0
 74 79  1  0
 75 71  1  0
 75 79  1  0
 76 75  1  0
 77 78  1  0
 77 76  1  0
 78 74  1  0
 79 80  2  0
 80 81  1  0
 82 81  2  0
 83 82  1  0
 84 58  1  0
 84 89  1  0
 84 85  1  0
 85 88  1  1
 85 86  1  0
 87 85  1  0
 89 92  1  0
 90 94  1  0
 90 89  1  0
 91 90  2  0
 94 93  1  0
 96 94  1  0
 96 97  1  0
 96 95  1  0
M  ISO  4  14 100  22 100  56 101  57 101
M  END
>  <TORSDO>  (21) 
F 24

>  <SCORE>  (21) 
-8.044

>  <name>  (21) 
20

>  <ligand_id>  (21) 
20

>  <original_smiles>  (21) 
[H]c1c([H])c([H])c2c(c1[H])C([H])([H])C([H])([H])C([H])([H])C2([H])N([H])C(=O)C1([H])N(C(=O)C([H])(N([H])C(=O)C([H])(N([H])C([H])([H])[H])C([H])([H])[H])C(C([H])([H])[H])(C([H])([H])[H])C([H])([H])[H])C([H])([H])c2c([H])c(OC([H])([H])C([H])([H])OC([H])([H])C([H])([H])N([H])C(=O)C([H])(N([H])C(=O)C(N([H])C(=O)N3C([H])([H])C([H])([H])C([H])([H])C([H])(n4nc(-c5c([H])c([H])c(Oc6c([H])c([H])c(F)c([H])c6F)c([H])c5[H])c(C(=O)N([H])[H])c4N([H])[H])C3([H])[H])(C([H])([H])[H])C([H])([H])[H])C([H])([H])[H])c([H])c([H])c2C1([H])[H]

>  <smiles>  (21) 
[H]c1c([H])c([H])c2c(c1[H])C([H])([H])C([H])([H])C([H])([H])C2([H])N([H])C(=O)C1([H])N(C(=O)C([H])(N([H])C(=O)C([H])(N([H])C([H])([H])[H])C([H])([H])[H])C(C([H])([H])[H])(C([H])([H])[H])C([H])([H])[H])C([H])([H])c2c([H])c(OC([H])([H])C([H])([H])OC([H])([H])C([H])([H])N([H])C(=O)C([H])(N([H])C(=O)C(N([H])C(=O)N3C([H])([H])C([H])([H])C([H])([H])C([H])(n4nc(-c5c([H])c([H])c(Oc6c([H])c([H])c(F)c([H])c6F)c([H])c5[H])c(C(=O)N([H])[H])c4N([H])[H])C3([H])[H])(C([H])([H])[H])C([H])([H])[H])C([H])([H])[H])c([H])c([H])c2C1([H])[H]

$$$$
21:0:0
     RDKit          3D

 92 99  0  0  1  0  0  0  0  0999 V2000
  -31.3270  -21.6720   20.4510 C   0  0  0  0  0  1  0  0  0  0  0  0
  -29.9100  -21.3290   20.9470 C   0  0  0  0  0  3  0  0  0  0  0  0
  -30.0200  -18.6870   21.0540 C   0  0  0  0  0  0  0  0  0  0  0  0
  -29.5520  -19.8980   20.5520 N   0  0  0  0  0  0  0  0  0  0  0  0
  -30.7950  -18.6600   22.0090 O   0  0  0  0  0  0  0  0  0  0  0  0
  -28.9100  -19.8210   19.7740 H   0  0  0  0  0  0  0  0  0  0  0  0
  -29.5690  -17.2870   20.4240 C   0  0  0  0  0  0  0  0  0  0  0  0
  -30.5730  -14.8820   21.1440 C   0  0  0  0  0  0  0  0  0  0  0  0
  -30.6240  -12.5240   20.3300 C   0  0  0  0  0  2  0  0  0  0  0  0
  -29.8470  -12.4420   18.9940 C   0  0  0  0  0  2  0  0  0  0  0  0
  -28.3310  -12.2800   19.2350 C   0  0  0  0  0  2  0  0  0  0  0  0
  -27.7750  -13.2240   20.3350 C   0  0  0  0  0  3  0  0  0  0  0  0
  -28.6840  -13.2460   21.5830 C   0  0  0  0  0  2  0  0  0  0  0  0
  -30.0350  -13.6170   21.1360 N   0  0  0  0  0  0  0  0  0  0  0  0
  -31.7810  -15.0410   20.9480 O   0  0  0  0  0  0  0  0  0  0  0  0
  -29.6760  -15.9320   21.1420 N   0  0  0  0  0  4  0  0  0  0  0  0
  -28.7780  -15.6360   21.4930 H   0  0  0  0  0  0  0  0  0  0  0  0
  -25.2980  -13.7670   20.7560 C   0  0  0  0  0  0  0  0  0  0  0  0
  -24.2170  -12.9730   21.0250 C   0  0  0  0  0  0  0  0  0  0  0  0
  -24.7170  -11.6360   21.0910 C   0  0  0  0  0  0  0  0  0  0  0  0
  -26.3880  -12.9140   20.6720 N   0  0  0  0  0  0  0  0  0  0  0  0
  -26.0360  -11.6290   20.9370 N   0  0  0  0  0  0  0  0  0  0  0  0
  -24.0090  -10.3580   21.2320 C   0  0  0  0  0  0  0  0  0  0  0  0
  -24.3820   -9.4090   22.2100 C   0  0  0  0  0  3  0  0  0  0  0  0
  -23.6710   -8.1960   22.3380 C   0  0  0  0  0  3  0  0  0  0  0  0
  -22.5740   -7.9210   21.4870 C   0  0  0  0  0  0  0  0  0  0  0  0
  -22.2220   -8.8590   20.5000 C   0  0  0  0  0  3  0  0  0  0  0  0
  -22.9330  -10.0630   20.3690 C   0  0  0  0  0  3  0  0  0  0  0  0
  -21.8430   -6.7580   21.5230 O   0  0  0  0  0  0  0  0  0  0  0  0
  -21.7420   -6.0050   22.6660 C   0  0  0  0  0  0  0  0  0  0  0  0
  -21.2430   -6.5450   23.8710 C   0  0  0  0  0  3  0  0  0  0  0  0
  -21.0880   -5.7190   25.0030 C   0  0  0  0  0  3  0  0  0  0  0  0
  -21.4260   -4.3540   24.9290 C   0  0  0  0  0  0  0  0  0  0  0  0
  -21.9200   -3.8140   23.7300 C   0  0  0  0  0  3  0  0  0  0  0  0
  -22.0740   -4.6370   22.6000 C   0  0  0  0  0  0  0  0  0  0  0  0
  -22.5290   -4.1070   21.4390 F   0  0  0  0  0  0  0  0  0  0  0  0
  -21.2700   -3.5580   26.0130 F   0  0  0  0  0  0  0  0  0  0  0  0
  -22.7860  -13.4160   21.1160 C   0  0  0  0  0  0  0  0  0  0  0  0
  -21.9790  -12.7260   21.9180 N   0  0  0  0  0  0  0  0  0  0  0  0
  -22.3840  -14.4100   20.5130 O   0  0  0  0  0  0  0  0  0  0  0  0
  -22.3130  -11.9200   22.4240 H   0  0  0  0  0  0  0  0  0  0  0  0
  -21.0170  -13.0090   22.0260 H   0  0  0  0  0  0  0  0  0  0  0  0
  -25.4440  -15.1380   20.5560 N   0  0  0  0  0  0  0  0  0  0  0  0
  -24.6490  -15.7660   20.5520 H   0  0  0  0  0  0  0  0  0  0  0  0
  -26.3070  -15.5880   20.2800 H   0  0  0  0  0  0  0  0  0  0  0  0
  -31.0590  -16.8420   18.3180 C   0  0  0  0  0  1  0  0  0  0  0  0
  -28.5770  -16.3380   18.2250 C   0  0  0  0  0  1  0  0  0  0  0  0
  -29.6700  -17.2130   18.8640 C   0  0  0  0  0  3  0  0  0  0  0  0
  -29.1300  -23.8610   20.3690 C   0  0  0  0  0  3  0  0  0  0  0  0
  -28.8960  -22.5100   20.6040 C   0  0  0  0  0  3  0  0  0  0  0  0
  -28.0680  -24.9820   20.0140 C   0  0  0  0  0  2  0  0  0  0  0  0
  -28.3200  -26.4390   20.2910 O   0  0  0  0  0  0  0  0  0  0  0  0
  -24.6390  -31.9680   23.2430 C   0  0  0  0  0  0  0  0  0  0  0  0
  -27.2250  -27.3370   20.2150 C   0  0  0  0  0  0  0  0  0  0  0  0
  -23.4300  -30.5580   21.6200 C   0  0  0  0  0  3  0  0  0  0  0  0
  -24.8730  -28.9950   20.1980 C   0  0  0  0  0  0  0  0  0  0  0  0
  -25.9750  -30.8560   21.4330 C   0  0  0  0  0  2  0  0  0  0  0  0
  -26.0470  -29.4700   20.7940 C   0  0  0  0  0  0  0  0  0  0  0  0
  -27.2240  -28.6530   20.7940 C   0  0  0  0  0  3  0  0  0  0  0  0
  -26.0240  -26.9390   19.5810 C   0  0  0  0  0  3  0  0  0  0  0  0
  -24.8650  -27.7360   19.5830 C   0  0  0  0  0  3  0  0  0  0  0  0
  -23.6390  -29.8750   20.2450 C   0  0  0  0  0  2  0  0  0  0  0  0
  -24.7010  -31.1480   22.1540 N   0  0  0  0  0  0  0  0  0  0  0  0
  -23.5560  -32.2530   23.7760 O   0  0  0  0  0  0  0  0  0  0  0  0
  -22.7660  -29.5510   22.5910 C   0  0  0  0  0  0  0  0  0  0  0  0
  -21.4390  -29.3770   22.4680 N   0  0  0  0  0  0  0  0  0  0  0  0
  -23.4450  -28.9310   23.4130 O   0  0  0  0  0  0  0  0  0  0  0  0
  -20.9540  -29.9280   21.7730 H   0  0  0  0  0  0  0  0  0  0  0  0
  -18.0580  -28.1870   22.9770 C   0  0  0  0  0  0  0  0  0  0  0  0
  -20.6160  -28.4500   23.2480 C   0  0  0  0  0  3  0  0  0  0  0  0
  -20.7190  -27.0120   22.6880 C   0  0  0  0  0  2  0  0  0  0  0  0
  -19.6170  -26.6790   21.6770 C   0  0  0  0  0  2  0  0  0  0  0  0
  -18.2350  -26.8300   22.3170 C   0  0  0  0  0  2  0  0  0  0  0  0
  -19.1760  -28.9550   23.3990 C   0  0  0  0  0  0  0  0  0  0  0  0
  -18.9550  -30.2240   23.9780 C   0  0  0  0  0  3  0  0  0  0  0  0
  -17.6500  -30.7250   24.1390 C   0  0  0  0  0  3  0  0  0  0  0  0
  -16.5460  -29.9540   23.7330 C   0  0  0  0  0  3  0  0  0  0  0  0
  -16.7510  -28.6870   23.1580 C   0  0  0  0  0  3  0  0  0  0  0  0
  -25.9230  -32.6040   23.8600 C   0  0  0  0  0  3  0  0  0  0  0  0
  -25.6100  -33.9990   24.1980 N   0  0  0  0  0  0  0  0  0  0  0  0
  -25.9340  -35.0580   23.4440 C   0  0  0  0  0  0  0  0  0  0  0  0
  -26.5950  -34.9620   22.4070 O   0  0  0  0  0  0  0  0  0  0  0  0
  -25.0210  -34.1460   25.0050 H   0  0  0  0  0  0  0  0  0  0  0  0
  -24.1940  -36.8470   23.1170 C   0  0  0  0  0  1  0  0  0  0  0  0
  -25.4450  -36.4440   23.9140 C   0  0  0  0  0  3  0  0  0  0  0  0
  -27.5870  -37.3310   24.7240 C   0  0  0  0  0  1  0  0  0  0  0  0
  -26.4740  -37.5010   23.7940 N   0  0  0  0  0  0  0  0  0  0  0  0
  -26.0670  -38.4190   23.9500 H   0  0  0  0  0  0  0  0  0  0  0  0
  -26.4480  -31.8310   25.1310 C   0  0  1  0  0  0  0  0  0  0  0  0
  -25.3630  -31.5910   26.2070 C   0  0  0  0  0  1  0  0  0  0  0  0
  -27.0310  -30.4540   24.7350 C   0  0  0  0  0  1  0  0  0  0  0  0
  -27.6030  -32.6260   25.7850 C   0  0  0  0  0  1  0  0  0  0  0  0
  2  1  1  0
  3  5  2  0
  4  2  1  0
  4  3  1  0
  6  4  1  0
  7  3  1  0
  7 16  2  3
  9 14  1  0
 10 11  1  0
 10  9  1  0
 12 11  1  0
 12 21  1  0
 12 13  1  0
 14  8  1  0
 14 13  1  0
 15  8  2  0
 16  8  1  0
 16 17  1  0
 18 19  2  0
 19 20  1  0
 19 38  1  0
 20 23  1  0
 21 18  1  0
 21 22  1  0
 22 20  2  0
 23 24  1  0
 24 25  2  0
 26 29  1  0
 26 25  1  0
 27 26  2  0
 28 27  1  0
 28 23  2  0
 29 30  1  0
 30 31  1  0
 31 32  2  0
 33 32  1  0
 33 37  1  0
 34 33  2  0
 35 30  2  0
 35 34  1  0
 36 35  1  0
 38 39  1  0
 39 42  1  0
 39 41  1  0
 40 38  2  0
 43 18  1  0
 44 43  1  0
 45 43  1  0
 46 48  1  0
 47 48  1  0
 48  7  1  0
 49 50  2  0
 50  2  1  0
 51 52  1  0
 51 49  1  0
 53 64  2  0
 54 52  1  0
 54 59  1  0
 55 63  1  0
 55 65  1  0
 56 62  1  0
 56 58  1  0
 57 63  1  0
 58 59  2  0
 58 57  1  0
 60 61  1  0
 60 54  2  0
 61 56  2  0
 62 55  1  0
 63 53  1  0
 65 67  2  0
 66 65  1  0
 68 66  1  0
 69 78  2  0
 69 74  1  0
 70 66  1  0
 70 74  1  0
 71 70  1  0
 72 73  1  0
 72 71  1  0
 73 69  1  0
 74 75  2  0
 75 76  1  0
 77 76  2  0
 78 77  1  0
 79 53  1  0
 79 80  1  0
 79 89  1  0
 80 83  1  0
 81 85  1  0
 81 80  1  0
 82 81  2  0
 85 84  1  0
 87 85  1  0
 87 88  1  0
 87 86  1  0
 89 92  1  1
 89 90  1  0
 91 89  1  0
M  ISO  4   8 100  16 100  51 101  52 101
M  END
>  <TORSDO>  (22) 
F 21

>  <SCORE>  (22) 
-12.326

>  <name>  (22) 
21

>  <ligand_id>  (22) 
21

>  <original_smiles>  (22) 
[H]C(=C([H])C([H])(N([H])C(=O)C([H])(N([H])C(=O)N1C([H])([H])C([H])([H])C([H])([H])C([H])(n2nc(-c3c([H])c([H])c(Oc4c([H])c([H])c(F)c([H])c4F)c([H])c3[H])c(C(=O)N([H])[H])c2N([H])[H])C1([H])[H])C([H])(C([H])([H])[H])C([H])([H])[H])C([H])([H])[H])C([H])([H])Oc1c([H])c([H])c2c(c1[H])C([H])([H])N(C(=O)C([H])(N([H])C(=O)C([H])(N([H])C([H])([H])[H])C([H])([H])[H])C(C([H])([H])[H])(C([H])([H])[H])C([H])([H])[H])C([H])(C(=O)N([H])C1([H])c3c([H])c([H])c([H])c([H])c3C([H])([H])C([H])([H])C1([H])[H])C2([H])[H]

>  <smiles>  (22) 
[H]C(=C([H])C([H])(N([H])C(=O)C([H])(N([H])C(=O)N1C([H])([H])C([H])([H])C([H])([H])C([H])(n2nc(-c3c([H])c([H])c(Oc4c([H])c([H])c(F)c([H])c4F)c([H])c3[H])c(C(=O)N([H])[H])c2N([H])[H])C1([H])[H])C([H])(C([H])([H])[H])C([H])([H])[H])C([H])([H])[H])C([H])([H])Oc1c([H])c([H])c2c(c1[H])C([H])([H])N(C(=O)C([H])(N([H])C(=O)C([H])(N([H])C([H])([H])[H])C([H])([H])[H])C(C([H])([H])[H])(C([H])([H])[H])C([H])([H])[H])C([H])(C(=O)N([H])C1([H])c3c([H])c([H])c([H])c([H])c3C([H])([H])C([H])([H])C1([H])[H])C2([H])[H]

$$$$
22:0:0
     RDKit          3D

 95102  0  0  1  0  0  0  0  0999 V2000
  -26.1460  -21.8820   20.4950 N   0  0  0  0  0  4  0  0  0  0  0  0
  -25.6530  -22.6200   20.9750 H   0  0  0  0  0  0  0  0  0  0  0  0
  -26.6020  -21.3330   21.2080 H   0  0  0  0  0  0  0  0  0  0  0  0
  -25.1760  -21.0140   19.7860 C   0  0  0  0  0  2  0  0  0  0  0  0
  -25.8010  -19.6400   19.4640 C   0  0  0  0  0  2  0  0  0  0  0  0
  -27.0120  -19.8530   18.7310 O   0  0  0  0  0  0  0  0  0  0  0  0
  -27.9410  -18.7760   18.8080 C   0  0  0  0  0  2  0  0  0  0  0  0
  -29.1980  -19.0580   17.9720 C   0  0  0  0  0  2  0  0  0  0  0  0
  -30.2090  -18.1900   18.4560 O   0  0  0  0  0  0  0  0  0  0  0  0
  -31.5220  -18.5100   18.0180 C   0  0  0  0  0  2  0  0  0  0  0  0
  -32.4760  -18.0580   19.1310 C   0  0  0  0  0  2  0  0  0  0  0  0
  -32.5370  -15.5890   19.0100 C   0  0  0  0  0  0  0  0  0  0  0  0
  -32.3550  -13.1360   19.0090 C   0  0  0  0  0  2  0  0  0  0  0  0
  -31.4060  -12.6050   17.9200 C   0  0  0  0  0  2  0  0  0  0  0  0
  -29.9400  -12.6200   18.3930 C   0  0  0  0  0  2  0  0  0  0  0  0
  -29.5270  -13.9670   19.0450 C   0  0  0  0  0  3  0  0  0  0  0  0
  -30.5800  -14.4090   20.0840 C   0  0  0  0  0  2  0  0  0  0  0  0
  -31.8990  -14.4650   19.4250 N   0  0  0  0  0  0  0  0  0  0  0  0
  -33.4930  -15.5890   18.2280 O   0  0  0  0  0  0  0  0  0  0  0  0
  -32.0890  -16.7180   19.5550 N   0  0  0  0  0  0  0  0  0  0  0  0
  -31.2860  -16.6510   20.1610 H   0  0  0  0  0  0  0  0  0  0  0  0
  -27.3380  -14.9040   20.0380 C   0  0  0  0  0  0  0  0  0  0  0  0
  -26.1860  -14.2890   20.4570 C   0  0  0  0  0  0  0  0  0  0  0  0
  -26.3950  -12.8890   20.2680 C   0  0  0  0  0  0  0  0  0  0  0  0
  -28.1870  -13.8850   19.6330 N   0  0  0  0  0  0  0  0  0  0  0  0
  -27.6250  -12.6630   19.8220 N   0  0  0  0  0  0  0  0  0  0  0  0
  -25.4780  -11.7530   20.4320 C   0  0  0  0  0  0  0  0  0  0  0  0
  -25.7350  -10.7150   21.3570 C   0  0  0  0  0  3  0  0  0  0  0  0
  -24.8240   -9.6460   21.5050 C   0  0  0  0  0  3  0  0  0  0  0  0
  -23.6430   -9.6060   20.7290 C   0  0  0  0  0  0  0  0  0  0  0  0
  -23.4060  -10.6280   19.7900 C   0  0  0  0  0  3  0  0  0  0  0  0
  -24.3150  -11.6870   19.6400 C   0  0  0  0  0  3  0  0  0  0  0  0
  -22.7140   -8.5940   20.7920 O   0  0  0  0  0  0  0  0  0  0  0  0
  -22.4100   -7.9670   21.9740 C   0  0  0  0  0  0  0  0  0  0  0  0
  -21.9000   -8.6760   23.0830 C   0  0  0  0  0  3  0  0  0  0  0  0
  -21.5340   -7.9820   24.2560 C   0  0  0  0  0  3  0  0  0  0  0  0
  -21.6670   -6.5830   24.3170 C   0  0  0  0  0  0  0  0  0  0  0  0
  -22.1660   -5.8730   23.2120 C   0  0  0  0  0  3  0  0  0  0  0  0
  -22.5330   -6.5630   22.0410 C   0  0  0  0  0  0  0  0  0  0  0  0
  -22.9950   -5.8720   20.9730 F   0  0  0  0  0  0  0  0  0  0  0  0
  -21.3070   -5.9170   25.4410 F   0  0  0  0  0  0  0  0  0  0  0  0
  -24.9240  -14.9690   20.9090 C   0  0  0  0  0  0  0  0  0  0  0  0
  -24.1590  -14.3260   21.7840 N   0  0  0  0  0  0  0  0  0  0  0  0
  -24.6330  -16.1010   20.5240 O   0  0  0  0  0  0  0  0  0  0  0  0
  -24.4040  -13.4080   22.1230 H   0  0  0  0  0  0  0  0  0  0  0  0
  -23.3120  -14.7610   22.1210 H   0  0  0  0  0  0  0  0  0  0  0  0
  -27.7260  -16.2380   19.9490 N   0  0  0  0  0  0  0  0  0  0  0  0
  -27.1050  -17.0070   20.1750 H   0  0  0  0  0  0  0  0  0  0  0  0
  -28.6080  -16.5380   19.5500 H   0  0  0  0  0  0  0  0  0  0  0  0
  -27.1920  -22.4900   19.6360 C   0  0  0  0  0  2  0  0  0  0  0  0
  -28.5470  -22.4840   20.3630 C   0  0  0  0  0  2  0  0  0  0  0  0
  -28.6940  -23.5910   21.2520 O   0  0  0  0  0  0  0  0  0  0  0  0
  -28.4440  -24.8600   20.6630 C   0  0  0  0  0  2  0  0  0  0  0  0
  -29.3400  -25.9360   21.3120 C   0  0  0  0  0  2  0  0  0  0  0  0
  -29.3150  -27.2030   20.6370 O   0  0  0  0  0  0  0  0  0  0  0  0
  -24.8880  -31.9600   23.5110 C   0  0  0  0  0  0  0  0  0  0  0  0
  -28.0870  -27.8150   20.5940 C   0  0  0  0  0  0  0  0  0  0  0  0
  -23.9040  -30.4400   21.8250 C   0  0  0  0  0  3  0  0  0  0  0  0
  -25.5640  -29.0660   20.4750 C   0  0  0  0  0  0  0  0  0  0  0  0
  -26.3780  -31.0620   21.7320 C   0  0  0  0  0  2  0  0  0  0  0  0
  -26.6310  -29.7070   21.1140 C   0  0  0  0  0  0  0  0  0  0  0  0
  -27.8980  -29.0850   21.1810 C   0  0  0  0  0  3  0  0  0  0  0  0
  -27.0090  -27.1990   19.9260 C   0  0  0  0  0  3  0  0  0  0  0  0
  -25.7440  -27.8050   19.8830 C   0  0  0  0  0  3  0  0  0  0  0  0
  -24.2400  -29.7920   20.4550 C   0  0  0  0  0  2  0  0  0  0  0  0
  -25.0690  -31.1740   22.4140 N   0  0  0  0  0  0  0  0  0  0  0  0
  -23.7650  -32.1150   24.0070 O   0  0  0  0  0  0  0  0  0  0  0  0
  -23.3260  -29.3550   22.7610 C   0  0  0  0  0  0  0  0  0  0  0  0
  -22.0790  -28.9330   22.4860 N   0  0  0  0  0  0  0  0  0  0  0  0
  -23.9960  -28.8990   23.6900 O   0  0  0  0  0  0  0  0  0  0  0  0
  -21.5940  -29.3650   21.7110 H   0  0  0  0  0  0  0  0  0  0  0  0
  -18.9480  -27.1450   22.5930 C   0  0  0  0  0  0  0  0  0  0  0  0
  -21.3440  -27.8970   23.2120 C   0  0  0  0  0  3  0  0  0  0  0  0
  -21.7880  -26.4850   22.7710 C   0  0  0  0  0  2  0  0  0  0  0  0
  -20.9460  -25.9280   21.6200 C   0  0  0  0  0  2  0  0  0  0  0  0
  -19.4720  -25.8350   22.0260 C   0  0  0  0  0  2  0  0  0  0  0  0
  -19.8280  -28.1250   23.1280 C   0  0  0  0  0  0  0  0  0  0  0  0
  -19.2960  -29.3470   23.5930 C   0  0  0  0  0  3  0  0  0  0  0  0
  -17.9100  -29.5940   23.5380 C   0  0  0  0  0  3  0  0  0  0  0  0
  -17.0420  -28.6120   23.0250 C   0  0  0  0  0  3  0  0  0  0  0  0
  -17.5610  -27.3920   22.5560 C   0  0  0  0  0  3  0  0  0  0  0  0
  -26.0780  -32.7220   24.1790 C   0  0  0  0  0  3  0  0  0  0  0  0
  -26.5300  -32.0880   25.5520 C   0  0  1  0  0  0  0  0  0  0  0  0
  -25.3590  -31.8070   26.5190 C   0  0  0  0  0  1  0  0  0  0  0  0
  -27.2830  -30.7560   25.3220 C   0  0  0  0  0  1  0  0  0  0  0  0
  -27.5230  -33.0370   26.2620 C   0  0  0  0  0  1  0  0  0  0  0  0
  -25.6640  -34.1200   24.3600 N   0  0  0  0  0  0  0  0  0  0  0  0
  -25.9760  -35.1190   23.5230 C   0  0  0  0  0  0  0  0  0  0  0  0
  -26.7150  -34.9710   22.5470 O   0  0  0  0  0  0  0  0  0  0  0  0
  -25.0150  -34.3040   25.1110 H   0  0  0  0  0  0  0  0  0  0  0  0
  -24.1480  -36.7360   22.9090 C   0  0  0  0  0  1  0  0  0  0  0  0
  -25.3710  -36.5070   23.8140 C   0  0  0  0  0  3  0  0  0  0  0  0
  -27.4000  -37.6160   24.6410 C   0  0  0  0  0  1  0  0  0  0  0  0
  -26.3330  -37.6180   23.6430 N   0  0  0  0  0  0  0  0  0  0  0  0
  -25.8580  -38.5160   23.6870 H   0  0  0  0  0  0  0  0  0  0  0  0
  1  2  1  0
  1  3  1  0
  4  1  1  0
  5  4  1  0
  6  7  1  0
  6  5  1  0
  8  9  1  0
  8  7  1  0
 10  9  1  0
 10 11  1  0
 11 20  1  0
 12 18  1  0
 12 20  1  0
 13 18  1  0
 14 15  1  0
 14 13  1  0
 16 15  1  0
 16 25  1  0
 16 17  1  0
 18 17  1  0
 19 12  2  0
 20 21  1  0
 22 23  2  0
 23 42  1  0
 24 27  1  0
 24 23  1  0
 25 26  1  0
 25 22  1  0
 26 24  2  0
 27 28  1  0
 28 29  2  0
 30 33  1  0
 30 29  1  0
 31 30  2  0
 32 31  1  0
 32 27  2  0
 33 34  1  0
 34 39  2  0
 34 35  1  0
 35 36  2  0
 36 37  1  0
 37 41  1  0
 38 37  2  0
 39 38  1  0
 40 39  1  0
 42 43  1  0
 43 46  1  0
 43 45  1  0
 44 42  2  0
 47 22  1  0
 47 48  1  0
 49 47  1  0
 50 51  1  0
 50  1  1  0
 51 52  1  0
 53 52  1  0
 53 54  1  0
 55 54  1  0
 56 67  2  0
 57 55  1  0
 57 62  1  0
 58 66  1  0
 58 68  1  0
 59 61  1  0
 60 66  1  0
 61 62  2  0
 61 60  1  0
 63 57  2  0
 64 63  1  0
 64 59  2  0
 65 59  1  0
 65 58  1  0
 66 56  1  0
 68 70  2  0
 69 68  1  0
 71 69  1  0
 72 77  1  0
 73 69  1  0
 74 73  1  0
 75 76  1  0
 75 74  1  0
 76 72  1  0
 77 73  1  0
 77 78  2  0
 79 78  1  0
 80 79  2  0
 81 72  2  0
 81 80  1  0
 82 56  1  0
 82 87  1  0
 82 83  1  0
 83 86  1  1
 83 84  1  0
 85 83  1  0
 87 90  1  0
 88 92  1  0
 88 87  1  0
 89 88  2  0
 92 91  1  0
 94 95  1  0
 94 92  1  0
 94 93  1  0
M  ISO  4  12 100  20 100  54 101  55 101
M  END
>  <TORSDO>  (23) 
F 29

>  <SCORE>  (23) 
-5.245

>  <name>  (23) 
22

>  <ligand_id>  (23) 
22

>  <original_smiles>  (23) 
[H]c1c([H])c([H])c2c(c1[H])C([H])([H])C([H])([H])C([H])([H])C2([H])N([H])C(=O)C1([H])N(C(=O)C([H])(N([H])C(=O)C([H])(N([H])C([H])([H])[H])C([H])([H])[H])C(C([H])([H])[H])(C([H])([H])[H])C([H])([H])[H])C([H])([H])c2c([H])c(OC([H])([H])C([H])([H])OC([H])([H])C([H])([H])[N+]([H])([H])C([H])([H])C([H])([H])OC([H])([H])C([H])([H])OC([H])([H])C([H])([H])N([H])C(=O)N3C([H])([H])C([H])([H])C([H])([H])C([H])(n4nc(-c5c([H])c([H])c(Oc6c([H])c([H])c(F)c([H])c6F)c([H])c5[H])c(C(=O)N([H])[H])c4N([H])[H])C3([H])[H])c([H])c([H])c2C1([H])[H]

>  <smiles>  (23) 
[H]c1c([H])c([H])c2c(c1[H])C([H])([H])C([H])([H])C([H])([H])C2([H])N([H])C(=O)C1([H])N(C(=O)C([H])(N([H])C(=O)C([H])(N([H])C([H])([H])[H])C([H])([H])[H])C(C([H])([H])[H])(C([H])([H])[H])C([H])([H])[H])C([H])([H])c2c([H])c(OC([H])([H])C([H])([H])OC([H])([H])C([H])([H])[N+]([H])([H])C([H])([H])C([H])([H])OC([H])([H])C([H])([H])OC([H])([H])C([H])([H])N([H])C(=O)N3C([H])([H])C([H])([H])C([H])([H])C([H])(n4nc(-c5c([H])c([H])c(Oc6c([H])c([H])c(F)c([H])c6F)c([H])c5[H])c(C(=O)N([H])[H])c4N([H])[H])C3([H])[H])c([H])c([H])c2C1([H])[H]

$$$$
23:0:0
     RDKit          3D

 99106  0  0  1  0  0  0  0  0999 V2000
  -32.2190  -27.5080   19.6040 C   0  0  0  0  0  0  0  0  0  0  0  0
  -31.2700  -27.6550   18.6770 N   0  0  0  0  0  0  0  0  0  0  0  0
  -33.4230  -27.5060   19.3390 O   0  0  0  0  0  0  0  0  0  0  0  0
  -30.3090  -27.6110   18.9940 H   0  0  0  0  0  0  0  0  0  0  0  0
  -31.4610  -27.7650   17.2360 C   0  0  0  0  0  2  0  0  0  0  0  0
  -31.4710  -26.3790   16.5660 C   0  0  0  0  0  2  0  0  0  0  0  0
  -30.5850  -25.4550   17.1940 O   0  0  0  0  0  0  0  0  0  0  0  0
  -29.1960  -25.7640   17.1030 C   0  0  0  0  0  2  0  0  0  0  0  0
  -28.5790  -25.7500   18.5130 C   0  0  0  0  0  2  0  0  0  0  0  0
  -28.5270  -27.0620   19.0750 O   0  0  0  0  0  0  0  0  0  0  0  0
  -24.6520  -31.5980   22.9070 C   0  0  0  0  0  0  0  0  0  0  0  0
  -27.3090  -27.6990   19.1800 C   0  0  0  0  0  0  0  0  0  0  0  0
  -23.4240  -30.3720   21.1440 C   0  0  0  0  0  3  0  0  0  0  0  0
  -24.8640  -29.0870   19.4790 C   0  0  0  0  0  0  0  0  0  0  0  0
  -25.9240  -30.8500   20.9000 C   0  0  0  0  0  2  0  0  0  0  0  0
  -26.0250  -29.5770   20.0860 C   0  0  0  0  0  0  0  0  0  0  0  0
  -27.2480  -28.8890   19.9350 C   0  0  0  0  0  3  0  0  0  0  0  0
  -26.1260  -27.2210   18.5640 C   0  0  0  0  0  3  0  0  0  0  0  0
  -24.9070  -27.9070   18.7190 C   0  0  0  0  0  3  0  0  0  0  0  0
  -23.5960  -29.8840   19.6810 C   0  0  0  0  0  2  0  0  0  0  0  0
  -24.6870  -30.9480   21.7090 N   0  0  0  0  0  0  0  0  0  0  0  0
  -23.5870  -31.7580   23.5170 O   0  0  0  0  0  0  0  0  0  0  0  0
  -22.8470  -29.2130   21.9870 C   0  0  0  0  0  0  0  0  0  0  0  0
  -21.5170  -29.0360   21.9280 N   0  0  0  0  0  0  0  0  0  0  0  0
  -23.5900  -28.4820   22.6490 O   0  0  0  0  0  0  0  0  0  0  0  0
  -20.9780  -29.6820   21.3690 H   0  0  0  0  0  0  0  0  0  0  0  0
  -18.1840  -27.7820   22.5310 C   0  0  0  0  0  0  0  0  0  0  0  0
  -20.7590  -27.9860   22.6090 C   0  0  0  0  0  3  0  0  0  0  0  0
  -20.7860  -26.6680   21.8020 C   0  0  0  0  0  2  0  0  0  0  0  0
  -19.5930  -26.5170   20.8530 C   0  0  0  0  0  2  0  0  0  0  0  0
  -18.2770  -26.5590   21.6350 C   0  0  0  0  0  2  0  0  0  0  0  0
  -19.3490  -28.4620   22.9750 C   0  0  0  0  0  0  0  0  0  0  0  0
  -19.2050  -29.6150   23.7770 C   0  0  0  0  0  3  0  0  0  0  0  0
  -17.9290  -30.0870   24.1370 C   0  0  0  0  0  3  0  0  0  0  0  0
  -16.7790  -29.4010   23.7080 C   0  0  0  0  0  3  0  0  0  0  0  0
  -16.9080  -28.2500   22.9110 C   0  0  0  0  0  3  0  0  0  0  0  0
  -25.9440  -32.1900   23.5540 C   0  0  0  0  0  3  0  0  0  0  0  0
  -26.4800  -31.3340   24.7660 C   0  0  1  0  0  0  0  0  0  0  0  0
  -25.4060  -31.0290   25.8350 C   0  0  0  0  0  1  0  0  0  0  0  0
  -27.0500  -29.9840   24.2710 C   0  0  0  0  0  1  0  0  0  0  0  0
  -27.6470  -32.0770   25.4590 C   0  0  0  0  0  1  0  0  0  0  0  0
  -25.6350  -33.5610   23.9800 N   0  0  0  0  0  0  0  0  0  0  0  0
  -25.9680  -34.6630   23.2940 C   0  0  0  0  0  0  0  0  0  0  0  0
  -26.6390  -34.6290   22.2590 O   0  0  0  0  0  0  0  0  0  0  0  0
  -25.0390  -33.6610   24.7890 H   0  0  0  0  0  0  0  0  0  0  0  0
  -24.2440  -36.4750   23.0530 C   0  0  0  0  0  1  0  0  0  0  0  0
  -25.4780  -36.0150   23.8430 C   0  0  0  0  0  3  0  0  0  0  0  0
  -27.6070  -36.8370   24.7490 C   0  0  0  0  0  1  0  0  0  0  0  0
  -26.5120  -37.0730   23.8110 N   0  0  0  0  0  0  0  0  0  0  0  0
  -26.1060  -37.9810   24.0200 H   0  0  0  0  0  0  0  0  0  0  0  0
  -31.7220  -27.3260   21.0400 C   0  0  0  0  0  2  0  0  0  0  0  0
  -30.9930  -26.1050   21.1220 O   0  0  0  0  0  0  0  0  0  0  0  0
  -29.9700  -26.1460   22.1080 C   0  0  0  0  0  2  0  0  0  0  0  0
  -29.5380  -24.7190   22.4820 C   0  0  0  0  0  2  0  0  0  0  0  0
  -29.1470  -23.8610   21.2710 C   0  0  0  0  0  2  0  0  0  0  0  0
  -28.7080  -22.5800   21.7130 O   0  0  0  0  0  0  0  0  0  0  0  0
  -29.3670  -21.5030   21.0600 C   0  0  0  0  0  2  0  0  0  0  0  0
  -28.8950  -20.1500   21.6160 C   0  0  0  0  0  2  0  0  0  0  0  0
  -29.7830  -19.1420   21.1530 O   0  0  0  0  0  0  0  0  0  0  0  0
  -29.4390  -17.8230   21.5530 C   0  0  0  0  0  2  0  0  0  0  0  0
  -30.4170  -16.8860   20.8320 C   0  0  0  0  0  2  0  0  0  0  0  0
  -30.5920  -14.5550   20.0930 C   0  0  0  0  0  0  0  0  0  0  0  0
  -30.2770  -12.3990   18.9520 C   0  0  0  0  0  2  0  0  0  0  0  0
  -29.2400  -12.5500   17.8220 C   0  0  0  0  0  2  0  0  0  0  0  0
  -27.8120  -12.3440   18.3620 C   0  0  0  0  0  2  0  0  0  0  0  0
  -27.5300  -13.1860   19.6330 C   0  0  0  0  0  3  0  0  0  0  0  0
  -28.6690  -13.0250   20.6670 C   0  0  0  0  0  2  0  0  0  0  0  0
  -29.9430  -13.3670   20.0080 N   0  0  0  0  0  0  0  0  0  0  0  0
  -31.5970  -14.8290   19.4300 O   0  0  0  0  0  0  0  0  0  0  0  0
  -30.0280  -15.4780   20.8800 N   0  0  0  0  0  0  0  0  0  0  0  0
  -29.2090  -15.2150   21.4090 H   0  0  0  0  0  0  0  0  0  0  0  0
  -25.2000  -13.6990   20.6060 C   0  0  0  0  0  0  0  0  0  0  0  0
  -24.1780  -12.8810   21.0090 C   0  0  0  0  0  0  0  0  0  0  0  0
  -24.6450  -11.5450   20.8250 C   0  0  0  0  0  0  0  0  0  0  0  0
  -26.2270  -12.8550   20.2100 N   0  0  0  0  0  0  0  0  0  0  0  0
  -25.9000  -11.5500   20.3950 N   0  0  0  0  0  0  0  0  0  0  0  0
  -23.9520  -10.2590   20.9780 C   0  0  0  0  0  0  0  0  0  0  0  0
  -24.4250   -9.2660   21.8640 C   0  0  0  0  0  3  0  0  0  0  0  0
  -23.7300   -8.0450   22.0070 C   0  0  0  0  0  3  0  0  0  0  0  0
  -22.5500   -7.8090   21.2640 C   0  0  0  0  0  0  0  0  0  0  0  0
  -22.0960   -8.7910   20.3660 C   0  0  0  0  0  3  0  0  0  0  0  0
  -22.7910  -10.0030   20.2210 C   0  0  0  0  0  3  0  0  0  0  0  0
  -21.8240   -6.6430   21.3190 O   0  0  0  0  0  0  0  0  0  0  0  0
  -21.7310   -5.9080   22.4740 C   0  0  0  0  0  0  0  0  0  0  0  0
  -21.2100   -6.4550   23.6660 C   0  0  0  0  0  3  0  0  0  0  0  0
  -21.0660   -5.6440   24.8100 C   0  0  0  0  0  3  0  0  0  0  0  0
  -21.4360   -4.2860   24.7610 C   0  0  0  0  0  0  0  0  0  0  0  0
  -21.9500   -3.7380   23.5730 C   0  0  0  0  0  3  0  0  0  0  0  0
  -22.0940   -4.5460   22.4310 C   0  0  0  0  0  0  0  0  0  0  0  0
  -22.5700   -4.0080   21.2830 F   0  0  0  0  0  0  0  0  0  0  0  0
  -21.2910   -3.5040   25.8560 F   0  0  0  0  0  0  0  0  0  0  0  0
  -22.8090  -13.3110   21.4520 C   0  0  0  0  0  0  0  0  0  0  0  0
  -22.1770  -12.5380   22.3270 N   0  0  0  0  0  0  0  0  0  0  0  0
  -22.3110  -14.3660   21.0590 O   0  0  0  0  0  0  0  0  0  0  0  0
  -22.5940  -11.6820   22.6640 H   0  0  0  0  0  0  0  0  0  0  0  0
  -21.2630  -12.8030   22.6650 H   0  0  0  0  0  0  0  0  0  0  0  0
  -25.3370  -15.0810   20.5260 N   0  0  0  0  0  0  0  0  0  0  0  0
  -24.5810  -15.7170   20.7540 H   0  0  0  0  0  0  0  0  0  0  0  0
  -26.1560  -15.5530   20.1620 H   0  0  0  0  0  0  0  0  0  0  0  0
  1 51  1  0
  2  4  1  0
  2  1  1  0
  3  1  2  0
  5  2  1  0
  6  7  1  0
  6  5  1  0
  8  7  1  0
  8  9  1  0
  9 10  1  0
 10 12  1  0
 11 22  2  0
 12 17  1  0
 13 21  1  0
 13 23  1  0
 14 20  1  0
 14 16  1  0
 15 21  1  0
 16 15  1  0
 17 16  2  0
 18 19  1  0
 18 12  2  0
 19 14  2  0
 20 13  1  0
 21 11  1  0
 23 25  2  0
 24 23  1  0
 26 24  1  0
 27 36  2  0
 27 32  1  0
 28 24  1  0
 28 32  1  0
 29 28  1  0
 30 31  1  0
 30 29  1  0
 31 27  1  0
 32 33  2  0
 33 34  1  0
 35 34  2  0
 36 35  1  0
 37 11  1  0
 37 42  1  0
 37 38  1  0
 38 41  1  1
 38 39  1  0
 40 38  1  0
 42 45  1  0
 43 47  1  0
 43 42  1  0
 44 43  2  0
 47 46  1  0
 49 47  1  0
 49 50  1  0
 49 48  1  0
 51 52  1  0
 52 53  1  0
 53 54  1  0
 55 56  1  0
 55 54  1  0
 57 58  1  0
 57 56  1  0
 59 60  1  0
 59 58  1  0
 61 70  1  0
 61 60  1  0
 62 70  1  0
 63 68  1  0
 64 65  1  0
 64 63  1  0
 66 65  1  0
 66 75  1  0
 66 67  1  0
 68 62  1  0
 68 67  1  0
 69 62  2  0
 70 71  1  0
 72 73  2  0
 73 92  1  0
 74 77  1  0
 74 73  1  0
 75 76  1  0
 75 72  1  0
 76 74  2  0
 77 78  1  0
 78 79  2  0
 80 83  1  0
 80 79  1  0
 81 80  2  0
 82 81  1  0
 82 77  2  0
 83 84  1  0
 84 85  1  0
 85 86  2  0
 87 86  1  0
 87 91  1  0
 88 87  2  0
 89 84  2  0
 89 88  1  0
 90 89  1  0
 92 93  1  0
 93 95  1  0
 93 96  1  0
 94 92  2  0
 97 72  1  0
 97 98  1  0
 99 97  1  0
M  ISO  4   9 101  10 101  62 100  70 100
M  END
>  <TORSDO>  (24) 
F 32

>  <SCORE>  (24) 
-8.529

>  <name>  (24) 
23

>  <ligand_id>  (24) 
23

>  <original_smiles>  (24) 
[H]c1c([H])c([H])c2c(c1[H])C([H])([H])C([H])([H])C([H])([H])C2([H])N([H])C(=O)C1([H])N(C(=O)C([H])(N([H])C(=O)C([H])(N([H])C([H])([H])[H])C([H])([H])[H])C(C([H])([H])[H])(C([H])([H])[H])C([H])([H])[H])C([H])([H])c2c([H])c(OC([H])([H])C([H])([H])OC([H])([H])C([H])([H])N([H])C(=O)C([H])([H])OC([H])([H])C([H])([H])C([H])([H])OC([H])([H])C([H])([H])OC([H])([H])C([H])([H])N([H])C(=O)N3C([H])([H])C([H])([H])C([H])([H])C([H])(n4nc(-c5c([H])c([H])c(Oc6c([H])c([H])c(F)c([H])c6F)c([H])c5[H])c(C(=O)N([H])[H])c4N([H])[H])C3([H])[H])c([H])c([H])c2C1([H])[H]

>  <smiles>  (24) 
[H]c1c([H])c([H])c2c(c1[H])C([H])([H])C([H])([H])C([H])([H])C2([H])N([H])C(=O)C1([H])N(C(=O)C([H])(N([H])C(=O)C([H])(N([H])C([H])([H])[H])C([H])([H])[H])C(C([H])([H])[H])(C([H])([H])[H])C([H])([H])[H])C([H])([H])c2c([H])c(OC([H])([H])C([H])([H])OC([H])([H])C([H])([H])N([H])C(=O)C([H])([H])OC([H])([H])C([H])([H])C([H])([H])OC([H])([H])C([H])([H])OC([H])([H])C([H])([H])N([H])C(=O)N3C([H])([H])C([H])([H])C([H])([H])C([H])(n4nc(-c5c([H])c([H])c(Oc6c([H])c([H])c(F)c([H])c6F)c([H])c5[H])c(C(=O)N([H])[H])c4N([H])[H])C3([H])[H])c([H])c([H])c2C1([H])[H]

$$$$
24:0:0
     RDKit          3D

 94101  0  0  1  0  0  0  0  0999 V2000
  -25.2690  -25.2170   25.2140 C   0  0  0  0  0  2  0  0  0  0  0  0
  -26.3770  -26.2000   25.6140 C   0  0  0  0  0  2  0  0  0  0  0  0
  -27.5130  -26.0500   24.7730 O   0  0  0  0  0  0  0  0  0  0  0  0
  -28.4980  -27.0410   25.0280 C   0  0  0  0  0  2  0  0  0  0  0  0
  -29.6420  -26.9190   24.0160 C   0  0  0  0  0  2  0  0  0  0  0  0
  -29.3570  -27.6340   22.6860 C   0  0  0  0  0  2  0  0  0  0  0  0
  -30.3130  -27.1780   21.7430 O   0  0  0  0  0  0  0  0  0  0  0  0
  -30.3050  -27.8860   20.5100 C   0  0  0  0  0  2  0  0  0  0  0  0
  -31.0160  -26.9760   19.5030 C   0  0  0  0  0  2  0  0  0  0  0  0
  -31.1990  -27.5510   18.0860 C   0  0  0  0  0  2  0  0  0  0  0  0
  -31.7610  -26.3790   15.9220 C   0  0  0  0  0  0  0  0  0  0  0  0
  -31.8520  -24.7240   14.0910 C   0  0  0  0  0  2  0  0  0  0  0  0
  -30.4820  -24.0260   13.9540 C   0  0  0  0  0  2  0  0  0  0  0  0
  -30.3600  -22.8350   14.9270 C   0  0  0  0  0  2  0  0  0  0  0  0
  -30.7730  -23.2050   16.3760 C   0  0  0  0  0  3  0  0  0  0  0  0
  -32.1370  -23.9280   16.3670 C   0  0  0  0  0  2  0  0  0  0  0  0
  -32.0210  -25.1170   15.4940 N   0  0  0  0  0  0  0  0  0  0  0  0
  -31.5200  -27.3310   15.1720 O   0  0  0  0  0  0  0  0  0  0  0  0
  -31.7220  -26.4800   17.2520 N   0  0  0  0  0  0  0  0  0  0  0  0
  -31.9740  -25.6280   17.7320 H   0  0  0  0  0  0  0  0  0  0  0  0
  -30.0000  -21.7390   18.3520 C   0  0  0  0  0  0  0  0  0  0  0  0
  -30.3780  -20.4900   18.7640 C   0  0  0  0  0  0  0  0  0  0  0  0
  -31.4010  -20.0690   17.8580 C   0  0  0  0  0  0  0  0  0  0  0  0
  -30.7890  -22.0310   17.2480 N   0  0  0  0  0  0  0  0  0  0  0  0
  -31.6700  -21.0330   16.9870 N   0  0  0  0  0  0  0  0  0  0  0  0
  -32.1000  -18.7850   17.7350 C   0  0  0  0  0  0  0  0  0  0  0  0
  -33.5080  -18.7040   17.7940 C   0  0  0  0  0  3  0  0  0  0  0  0
  -34.1580  -17.4550   17.6900 C   0  0  0  0  0  3  0  0  0  0  0  0
  -33.3990  -16.2710   17.5300 C   0  0  0  0  0  0  0  0  0  0  0  0
  -31.9980  -16.3600   17.4520 C   0  0  0  0  0  3  0  0  0  0  0  0
  -31.3540  -17.6040   17.5500 C   0  0  0  0  0  3  0  0  0  0  0  0
  -33.9450  -15.0180   17.3920 O   0  0  0  0  0  0  0  0  0  0  0  0
  -35.1350  -14.6820   17.9850 C   0  0  0  0  0  0  0  0  0  0  0  0
  -35.3230  -14.7720   19.3810 C   0  0  0  0  0  3  0  0  0  0  0  0
  -36.5380  -14.3500   19.9570 C   0  0  0  0  0  3  0  0  0  0  0  0
  -37.5610  -13.8310   19.1410 C   0  0  0  0  0  0  0  0  0  0  0  0
  -37.3750  -13.7370   17.7510 C   0  0  0  0  0  3  0  0  0  0  0  0
  -36.1630  -14.1580   17.1750 C   0  0  0  0  0  0  0  0  0  0  0  0
  -35.9800  -14.0450   15.8370 F   0  0  0  0  0  0  0  0  0  0  0  0
  -38.7260  -13.4200   19.6940 F   0  0  0  0  0  0  0  0  0  0  0  0
  -29.7600  -19.6880   19.8730 C   0  0  0  0  0  0  0  0  0  0  0  0
  -30.5540  -18.8680   20.5530 N   0  0  0  0  0  0  0  0  0  0  0  0
  -28.5760  -19.8220   20.1780 O   0  0  0  0  0  0  0  0  0  0  0  0
  -31.5320  -18.7760   20.3190 H   0  0  0  0  0  0  0  0  0  0  0  0
  -30.1780  -18.3280   21.3180 H   0  0  0  0  0  0  0  0  0  0  0  0
  -29.0440  -22.6400   18.8100 N   0  0  0  0  0  0  0  0  0  0  0  0
  -28.4200  -22.4250   19.5790 H   0  0  0  0  0  0  0  0  0  0  0  0
  -28.8360  -23.5290   18.3700 H   0  0  0  0  0  0  0  0  0  0  0  0
  -25.3360  -24.7350   23.7590 C   0  0  0  0  0  2  0  0  0  0  0  0
  -26.0810  -25.6490   22.9640 O   0  0  0  0  0  0  0  0  0  0  0  0
  -25.9270  -25.4000   21.5760 C   0  0  0  0  0  2  0  0  0  0  0  0
  -27.2680  -25.6310   20.8620 C   0  0  0  0  0  2  0  0  0  0  0  0
  -27.1700  -25.7310   19.3240 C   0  0  0  0  0  2  0  0  0  0  0  0
  -27.1490  -27.0850   18.8700 O   0  0  0  0  0  0  0  0  0  0  0  0
  -24.6550  -31.8710   23.4630 C   0  0  0  0  0  0  0  0  0  0  0  0
  -26.0750  -27.8710   19.2160 C   0  0  0  0  0  0  0  0  0  0  0  0
  -22.9890  -30.9280   21.8940 C   0  0  0  0  0  3  0  0  0  0  0  0
  -23.9360  -29.5480   19.9720 C   0  0  0  0  0  0  0  0  0  0  0  0
  -25.4570  -31.0730   21.2430 C   0  0  0  0  0  2  0  0  0  0  0  0
  -25.2400  -29.8450   20.3860 C   0  0  0  0  0  0  0  0  0  0  0  0
  -26.3120  -29.0150   20.0050 C   0  0  0  0  0  3  0  0  0  0  0  0
  -24.7560  -27.5820   18.7960 C   0  0  0  0  0  3  0  0  0  0  0  0
  -23.6870  -28.4130   19.1780 C   0  0  0  0  0  3  0  0  0  0  0  0
  -22.8470  -30.4990   20.4090 C   0  0  0  0  0  2  0  0  0  0  0  0
  -24.3970  -31.2910   22.2570 N   0  0  0  0  0  0  0  0  0  0  0  0
  -23.7390  -32.1430   24.2500 O   0  0  0  0  0  0  0  0  0  0  0  0
  -22.3950  -29.8140   22.7850 C   0  0  0  0  0  0  0  0  0  0  0  0
  -21.0830  -29.5720   22.6410 N   0  0  0  0  0  0  0  0  0  0  0  0
  -23.1120  -29.1740   23.5590 O   0  0  0  0  0  0  0  0  0  0  0  0
  -20.5660  -30.1450   21.9880 H   0  0  0  0  0  0  0  0  0  0  0  0
  -17.8720  -27.9230   22.7730 C   0  0  0  0  0  0  0  0  0  0  0  0
  -20.3140  -28.5470   23.3450 C   0  0  0  0  0  3  0  0  0  0  0  0
  -20.6870  -27.1320   22.8480 C   0  0  0  0  0  2  0  0  0  0  0  0
  -19.7770  -26.6310   21.7210 C   0  0  0  0  0  2  0  0  0  0  0  0
  -18.3180  -26.5950   22.1840 C   0  0  0  0  0  2  0  0  0  0  0  0
  -18.8110  -28.8470   23.3040 C   0  0  0  0  0  0  0  0  0  0  0  0
  -18.3490  -30.0810   23.8080 C   0  0  0  0  0  3  0  0  0  0  0  0
  -16.9770  -30.3990   23.7900 C   0  0  0  0  0  3  0  0  0  0  0  0
  -16.0500  -29.4740   23.2790 C   0  0  0  0  0  3  0  0  0  0  0  0
  -16.4980  -28.2380   22.7770 C   0  0  0  0  0  3  0  0  0  0  0  0
  -26.1070  -32.2400   23.9000 C   0  0  0  0  0  3  0  0  0  0  0  0
  -26.0710  -33.6050   24.4400 N   0  0  0  0  0  0  0  0  0  0  0  0
  -26.4810  -34.6960   23.7780 C   0  0  0  0  0  0  0  0  0  0  0  0
  -27.0030  -34.6440   22.6610 O   0  0  0  0  0  0  0  0  0  0  0  0
  -25.6060  -33.7270   25.3270 H   0  0  0  0  0  0  0  0  0  0  0  0
  -25.0470  -36.7590   23.8710 C   0  0  0  0  0  1  0  0  0  0  0  0
  -26.2800  -36.0600   24.4640 C   0  0  0  0  0  3  0  0  0  0  0  0
  -28.6070  -36.4840   25.1250 C   0  0  0  0  0  1  0  0  0  0  0  0
  -27.4560  -36.9510   24.3580 N   0  0  0  0  0  0  0  0  0  0  0  0
  -27.2260  -37.8900   24.6730 H   0  0  0  0  0  0  0  0  0  0  0  0
  -26.7140  -31.2360   24.9550 C   0  0  1  0  0  0  0  0  0  0  0  0
  -25.8000  -30.9900   26.1790 C   0  0  0  0  0  1  0  0  0  0  0  0
  -27.0010  -29.8640   24.2980 C   0  0  0  0  0  1  0  0  0  0  0  0
  -28.0680  -31.7740   25.4720 C   0  0  0  0  0  1  0  0  0  0  0  0
  1  2  1  0
  3  4  1  0
  3  2  1  0
  5  4  1  0
  6  5  1  0
  7  6  1  0
  8  7  1  0
  9  8  1  0
 10  9  1  0
 11 19  1  0
 12 17  1  0
 13 12  1  0
 13 14  1  0
 15 14  1  0
 15 24  1  0
 16 15  1  0
 17 11  1  0
 17 16  1  0
 18 11  2  0
 19 20  1  0
 19 10  1  0
 21 22  2  0
 21 46  1  0
 22 41  1  0
 23 22  1  0
 24 21  1  0
 25 24  1  0
 25 23  2  0
 26 27  1  0
 26 23  1  0
 28 27  2  0
 29 28  1  0
 30 29  2  0
 30 31  1  0
 31 26  2  0
 32 29  1  0
 32 33  1  0
 33 34  1  0
 34 35  2  0
 36 40  1  0
 36 35  1  0
 37 36  2  0
 38 37  1  0
 38 33  2  0
 39 38  1  0
 41 43  2  0
 41 42  1  0
 42 45  1  0
 44 42  1  0
 46 47  1  0
 48 46  1  0
 49  1  1  0
 50 49  1  0
 51 50  1  0
 52 51  1  0
 53 52  1  0
 54 56  1  0
 54 53  1  0
 55 66  2  0
 56 61  1  0
 57 65  1  0
 57 67  1  0
 58 60  1  0
 58 64  1  0
 59 65  1  0
 60 59  1  0
 61 60  2  0
 62 63  1  0
 62 56  2  0
 63 58  2  0
 64 57  1  0
 65 55  1  0
 67 69  2  0
 68 67  1  0
 70 68  1  0
 71 80  2  0
 71 76  1  0
 72 68  1  0
 73 72  1  0
 74 75  1  0
 74 73  1  0
 75 71  1  0
 76 72  1  0
 76 77  2  0
 78 77  1  0
 79 78  2  0
 80 79  1  0
 81 55  1  0
 81 82  1  0
 81 91  1  0
 82 85  1  0
 83 82  1  0
 83 87  1  0
 84 83  2  0
 87 86  1  0
 89 87  1  0
 89 90  1  0
 89 88  1  0
 91 94  1  1
 91 92  1  0
 93 91  1  0
M  ISO  4  11 100  19 100  53 101  54 101
M  END
>  <TORSDO>  (25) 
F 30

>  <SCORE>  (25) 
-4.582

>  <name>  (25) 
24

>  <ligand_id>  (25) 
24

>  <original_smiles>  (25) 
[H]c1c([H])c([H])c2c(c1[H])C([H])([H])C([H])([H])C([H])([H])C2([H])N([H])C(=O)C1([H])N(C(=O)C([H])(N([H])C(=O)C([H])(N([H])C([H])([H])[H])C([H])([H])[H])C(C([H])([H])[H])(C([H])([H])[H])C([H])([H])[H])C([H])([H])c2c([H])c(OC([H])([H])C([H])([H])C([H])([H])OC([H])([H])C([H])([H])C([H])([H])OC([H])([H])C([H])([H])C([H])([H])OC([H])([H])C([H])([H])C([H])([H])N([H])C(=O)N3C([H])([H])C([H])([H])C([H])([H])C([H])(n4nc(-c5c([H])c([H])c(Oc6c([H])c([H])c(F)c([H])c6F)c([H])c5[H])c(C(=O)N([H])[H])c4N([H])[H])C3([H])[H])c([H])c([H])c2C1([H])[H]

>  <smiles>  (25) 
[H]c1c([H])c([H])c2c(c1[H])C([H])([H])C([H])([H])C([H])([H])C2([H])N([H])C(=O)C1([H])N(C(=O)C([H])(N([H])C(=O)C([H])(N([H])C([H])([H])[H])C([H])([H])[H])C(C([H])([H])[H])(C([H])([H])[H])C([H])([H])[H])C([H])([H])c2c([H])c(OC([H])([H])C([H])([H])C([H])([H])OC([H])([H])C([H])([H])C([H])([H])OC([H])([H])C([H])([H])C([H])([H])OC([H])([H])C([H])([H])C([H])([H])N([H])C(=O)N3C([H])([H])C([H])([H])C([H])([H])C([H])(n4nc(-c5c([H])c([H])c(Oc6c([H])c([H])c(F)c([H])c6F)c([H])c5[H])c(C(=O)N([H])[H])c4N([H])[H])C3([H])[H])c([H])c([H])c2C1([H])[H]

$$$$
25:0:0
     RDKit          3D

 95102  0  0  1  0  0  0  0  0999 V2000
  -23.7000  -22.4910   23.9780 O   0  0  0  0  0  0  0  0  0  0  0  0
  -22.6180  -22.1390   23.1180 C   0  0  0  0  0  2  0  0  0  0  0  0
  -22.7630  -20.7040   22.5980 C   0  0  0  0  0  2  0  0  0  0  0  0
  -23.8360  -20.6090   21.6650 O   0  0  0  0  0  0  0  0  0  0  0  0
  -23.5100  -19.7540   20.5730 C   0  0  0  0  0  2  0  0  0  0  0  0
  -24.5850  -18.6760   20.3690 C   0  0  0  0  0  2  0  0  0  0  0  0
  -25.5550  -19.0980   19.4170 O   0  0  0  0  0  0  0  0  0  0  0  0
  -26.8810  -18.7820   19.8280 C   0  0  0  0  0  2  0  0  0  0  0  0
  -27.7930  -18.7080   18.5970 C   0  0  0  0  0  2  0  0  0  0  0  0
  -29.2910  -18.8540   18.9390 C   0  0  0  0  0  2  0  0  0  0  0  0
  -31.1720  -17.2300   18.5170 C   0  0  0  0  0  0  0  0  0  0  0  0
  -31.9780  -15.1500   19.5740 C   0  0  0  0  0  2  0  0  0  0  0  0
  -31.4250  -13.9070   18.8470 C   0  0  0  0  0  2  0  0  0  0  0  0
  -30.0280  -13.5260   19.3780 C   0  0  0  0  0  2  0  0  0  0  0  0
  -29.0690  -14.7410   19.4710 C   0  0  0  0  0  3  0  0  0  0  0  0
  -29.7700  -15.9150   20.1810 C   0  0  0  0  0  2  0  0  0  0  0  0
  -30.9980  -16.2420   19.4390 N   0  0  0  0  0  0  0  0  0  0  0  0
  -32.2080  -17.3500   17.8580 O   0  0  0  0  0  0  0  0  0  0  0  0
  -30.0940  -17.9310   18.1340 N   0  0  0  0  0  0  0  0  0  0  0  0
  -30.2330  -18.2910   17.2010 H   0  0  0  0  0  0  0  0  0  0  0  0
  -26.8340  -15.2180   20.6620 C   0  0  0  0  0  0  0  0  0  0  0  0
  -25.8400  -14.3880   21.1040 C   0  0  0  0  0  0  0  0  0  0  0  0
  -26.2740  -13.0590   20.8090 C   0  0  0  0  0  0  0  0  0  0  0  0
  -27.8140  -14.3900   20.1330 N   0  0  0  0  0  0  0  0  0  0  0  0
  -27.4890  -13.0800   20.2750 N   0  0  0  0  0  0  0  0  0  0  0  0
  -25.5790  -11.7740   20.9480 C   0  0  0  0  0  0  0  0  0  0  0  0
  -25.8180  -10.9210   22.0490 C   0  0  0  0  0  3  0  0  0  0  0  0
  -25.1270   -9.6960   22.1680 C   0  0  0  0  0  3  0  0  0  0  0  0
  -24.1830   -9.3160   21.1850 C   0  0  0  0  0  0  0  0  0  0  0  0
  -23.9680  -10.1570   20.0780 C   0  0  0  0  0  3  0  0  0  0  0  0
  -24.6610  -11.3730   19.9580 C   0  0  0  0  0  3  0  0  0  0  0  0
  -23.4810   -8.1360   21.2040 O   0  0  0  0  0  0  0  0  0  0  0  0
  -22.8440   -7.6960   22.3370 C   0  0  0  0  0  0  0  0  0  0  0  0
  -21.7820   -8.4180   22.9230 C   0  0  0  0  0  3  0  0  0  0  0  0
  -21.1110   -7.8950   24.0470 C   0  0  0  0  0  3  0  0  0  0  0  0
  -21.4920   -6.6480   24.5790 C   0  0  0  0  0  0  0  0  0  0  0  0
  -22.5460   -5.9260   23.9930 C   0  0  0  0  0  3  0  0  0  0  0  0
  -23.2180   -6.4470   22.8740 C   0  0  0  0  0  0  0  0  0  0  0  0
  -24.2200   -5.7360   22.3000 F   0  0  0  0  0  0  0  0  0  0  0  0
  -20.8430   -6.1420   25.6530 F   0  0  0  0  0  0  0  0  0  0  0  0
  -24.5170  -14.8040   21.6800 C   0  0  0  0  0  0  0  0  0  0  0  0
  -23.9560  -14.0000   22.5780 N   0  0  0  0  0  0  0  0  0  0  0  0
  -23.9940  -15.8730   21.3720 O   0  0  0  0  0  0  0  0  0  0  0  0
  -24.3920  -13.1320   22.8490 H   0  0  0  0  0  0  0  0  0  0  0  0
  -23.0730  -14.2580   22.9980 H   0  0  0  0  0  0  0  0  0  0  0  0
  -26.9770  -16.6020   20.6470 N   0  0  0  0  0  0  0  0  0  0  0  0
  -26.2530  -17.2210   20.9930 H   0  0  0  0  0  0  0  0  0  0  0  0
  -27.7730  -17.0950   20.2660 H   0  0  0  0  0  0  0  0  0  0  0  0
  -24.0180  -23.8800   23.9190 C   0  0  0  0  0  2  0  0  0  0  0  0
  -24.3260  -24.3610   22.4870 C   0  0  0  0  0  2  0  0  0  0  0  0
  -25.7200  -24.2230   22.2500 O   0  0  0  0  0  0  0  0  0  0  0  0
  -26.1070  -24.5330   20.9190 C   0  0  0  0  0  2  0  0  0  0  0  0
  -27.5670  -25.0020   20.9720 C   0  0  0  0  0  2  0  0  0  0  0  0
  -28.0890  -25.6240   19.6590 C   0  0  0  0  0  2  0  0  0  0  0  0
  -28.1090  -27.0530   19.7410 O   0  0  0  0  0  0  0  0  0  0  0  0
  -24.4560  -31.8500   23.5110 C   0  0  0  0  0  0  0  0  0  0  0  0
  -26.9140  -27.7320   19.8750 C   0  0  0  0  0  0  0  0  0  0  0  0
  -23.1560  -30.6070   21.8140 C   0  0  0  0  0  3  0  0  0  0  0  0
  -24.5230  -29.2130   20.1770 C   0  0  0  0  0  0  0  0  0  0  0  0
  -25.6700  -30.9870   21.5130 C   0  0  0  0  0  2  0  0  0  0  0  0
  -25.7130  -29.6840   20.7420 C   0  0  0  0  0  0  0  0  0  0  0  0
  -26.9100  -28.9520   20.5880 C   0  0  0  0  0  3  0  0  0  0  0  0
  -25.7020  -27.2720   19.3110 C   0  0  0  0  0  3  0  0  0  0  0  0
  -24.5110  -28.0050   19.4600 C   0  0  0  0  0  3  0  0  0  0  0  0
  -23.2870  -30.0600   20.3680 C   0  0  0  0  0  2  0  0  0  0  0  0
  -24.4500  -31.1570   22.3370 N   0  0  0  0  0  0  0  0  0  0  0  0
  -23.4090  -32.0690   24.1330 O   0  0  0  0  0  0  0  0  0  0  0  0
  -22.5580  -29.4980   22.7080 C   0  0  0  0  0  0  0  0  0  0  0  0
  -21.2520  -29.2340   22.5380 N   0  0  0  0  0  0  0  0  0  0  0  0
  -23.2650  -28.8790   23.5080 O   0  0  0  0  0  0  0  0  0  0  0  0
  -20.7420  -29.7970   21.8720 H   0  0  0  0  0  0  0  0  0  0  0  0
  -17.9710  -27.7490   22.8300 C   0  0  0  0  0  0  0  0  0  0  0  0
  -20.4810  -28.2080   23.2410 C   0  0  0  0  0  3  0  0  0  0  0  0
  -20.7310  -26.8100   22.6320 C   0  0  0  0  0  2  0  0  0  0  0  0
  -19.7110  -26.4280   21.5540 C   0  0  0  0  0  2  0  0  0  0  0  0
  -18.2930  -26.4400   22.1300 C   0  0  0  0  0  2  0  0  0  0  0  0
  -18.9990  -28.5890   23.3370 C   0  0  0  0  0  0  0  0  0  0  0  0
  -18.6460  -29.8120   23.9470 C   0  0  0  0  0  3  0  0  0  0  0  0
  -17.2970  -30.1990   24.0570 C   0  0  0  0  0  3  0  0  0  0  0  0
  -16.2840  -29.3580   23.5680 C   0  0  0  0  0  3  0  0  0  0  0  0
  -16.6210  -28.1360   22.9590 C   0  0  0  0  0  3  0  0  0  0  0  0
  -25.7780  -32.4220   24.1160 C   0  0  0  0  0  3  0  0  0  0  0  0
  -25.5440  -33.8370   24.4340 N   0  0  0  0  0  0  0  0  0  0  0  0
  -25.9060  -34.8620   23.6510 C   0  0  0  0  0  0  0  0  0  0  0  0
  -26.5420  -34.7130   22.6030 O   0  0  0  0  0  0  0  0  0  0  0  0
  -24.9830  -34.0290   25.2500 H   0  0  0  0  0  0  0  0  0  0  0  0
  -24.2560  -36.7280   23.3050 C   0  0  0  0  0  1  0  0  0  0  0  0
  -25.4920  -36.2760   24.1000 C   0  0  0  0  0  3  0  0  0  0  0  0
  -27.6750  -37.0750   24.8900 C   0  0  0  0  0  1  0  0  0  0  0  0
  -26.5710  -37.2780   23.9560 N   0  0  0  0  0  0  0  0  0  0  0  0
  -26.2090  -38.2190   24.0900 H   0  0  0  0  0  0  0  0  0  0  0  0
  -26.2690  -31.6360   25.3940 C   0  0  1  0  0  0  0  0  0  0  0  0
  -25.1600  -31.4060   26.4450 C   0  0  0  0  0  1  0  0  0  0  0  0
  -26.8390  -30.2540   24.9970 C   0  0  0  0  0  1  0  0  0  0  0  0
  -27.4220  -32.4110   26.0750 C   0  0  0  0  0  1  0  0  0  0  0  0
  2  1  1  0
  3  2  1  0
  4  3  1  0
  5  4  1  0
  6  5  1  0
  7  8  1  0
  7  6  1  0
  9 10  1  0
  9  8  1  0
 11 17  1  0
 13 14  1  0
 13 12  1  0
 15 14  1  0
 15 24  1  0
 15 16  1  0
 17 12  1  0
 17 16  1  0
 18 11  2  0
 19 11  1  0
 19 10  1  0
 20 19  1  0
 21 22  2  0
 22 41  1  0
 23 26  1  0
 23 22  1  0
 24 25  1  0
 24 21  1  0
 25 23  2  0
 26 27  1  0
 27 28  2  0
 29 32  1  0
 29 28  1  0
 30 29  2  0
 31 30  1  0
 31 26  2  0
 32 33  1  0
 33 38  2  0
 33 34  1  0
 34 35  2  0
 35 36  1  0
 36 40  1  0
 37 36  2  0
 38 37  1  0
 39 38  1  0
 41 42  1  0
 42 44  1  0
 42 45  1  0
 43 41  2  0
 46 21  1  0
 46 47  1  0
 48 46  1  0
 49  1  1  0
 50 49  1  0
 51 50  1  0
 52 53  1  0
 52 51  1  0
 54 55  1  0
 54 53  1  0
 55 57  1  0
 56 67  2  0
 57 62  1  0
 58 66  1  0
 58 68  1  0
 59 65  1  0
 59 61  1  0
 60 66  1  0
 61 60  1  0
 62 61  2  0
 63 64  1  0
 63 57  2  0
 64 59  2  0
 65 58  1  0
 66 56  1  0
 68 70  2  0
 69 68  1  0
 71 69  1  0
 72 81  2  0
 72 77  1  0
 73 69  1  0
 73 77  1  0
 74 73  1  0
 75 76  1  0
 75 74  1  0
 76 72  1  0
 77 78  2  0
 78 79  1  0
 80 79  2  0
 81 80  1  0
 82 56  1  0
 82 83  1  0
 82 92  1  0
 83 86  1  0
 84 88  1  0
 84 83  1  0
 85 84  2  0
 88 87  1  0
 90 91  1  0
 90 88  1  0
 90 89  1  0
 92 95  1  1
 92 93  1  0
 94 92  1  0
M  ISO  4  11 100  19 100  54 101  55 101
M  END
>  <TORSDO>  (26) 
F 31

>  <SCORE>  (26) 
18.862

>  <name>  (26) 
25

>  <ligand_id>  (26) 
25

>  <original_smiles>  (26) 
[H]c1c([H])c([H])c2c(c1[H])C([H])([H])C([H])([H])C([H])([H])C2([H])N([H])C(=O)C1([H])N(C(=O)C([H])(N([H])C(=O)C([H])(N([H])C([H])([H])[H])C([H])([H])[H])C(C([H])([H])[H])(C([H])([H])[H])C([H])([H])[H])C([H])([H])c2c([H])c(OC([H])([H])C([H])([H])C([H])([H])OC([H])([H])C([H])([H])OC([H])([H])C([H])([H])OC([H])([H])C([H])([H])OC([H])([H])C([H])([H])C([H])([H])N([H])C(=O)N3C([H])([H])C([H])([H])C([H])([H])C([H])(n4nc(-c5c([H])c([H])c(Oc6c([H])c([H])c(F)c([H])c6F)c([H])c5[H])c(C(=O)N([H])[H])c4N([H])[H])C3([H])[H])c([H])c([H])c2C1([H])[H]

>  <smiles>  (26) 
[H]c1c([H])c([H])c2c(c1[H])C([H])([H])C([H])([H])C([H])([H])C2([H])N([H])C(=O)C1([H])N(C(=O)C([H])(N([H])C(=O)C([H])(N([H])C([H])([H])[H])C([H])([H])[H])C(C([H])([H])[H])(C([H])([H])[H])C([H])([H])[H])C([H])([H])c2c([H])c(OC([H])([H])C([H])([H])C([H])([H])OC([H])([H])C([H])([H])OC([H])([H])C([H])([H])OC([H])([H])C([H])([H])OC([H])([H])C([H])([H])C([H])([H])N([H])C(=O)N3C([H])([H])C([H])([H])C([H])([H])C([H])(n4nc(-c5c([H])c([H])c(Oc6c([H])c([H])c(F)c([H])c6F)c([H])c5[H])c(C(=O)N([H])[H])c4N([H])[H])C3([H])[H])c([H])c([H])c2C1([H])[H]

$$$$
26:0:0
     RDKit          3D

100108  0  0  1  0  0  0  0  0999 V2000
  -27.9790  -21.6340   21.1370 C   0  0  0  0  0  3  0  0  0  0  0  0
  -26.3320  -21.1340   19.4200 C   0  0  0  0  0  3  0  0  0  0  0  0
  -27.8070  -23.0130   20.8960 C   0  0  0  0  0  3  0  0  0  0  0  0
  -26.1650  -22.5120   19.1800 C   0  0  0  0  0  3  0  0  0  0  0  0
  -27.2450  -20.6840   20.3970 C   0  0  0  0  0  0  0  0  0  0  0  0
  -26.8950  -23.4690   19.9130 C   0  0  0  0  0  0  0  0  0  0  0  0
  -27.3850  -19.1910   20.6610 C   0  0  0  0  0  2  0  0  0  0  0  0
  -28.8570  -17.2860   20.1380 C   0  0  0  0  0  0  0  0  0  0  0  0
  -28.4530  -18.5400   19.9010 N   0  0  0  0  0  0  0  0  0  0  0  0
  -28.3570  -16.6060   21.0410 O   0  0  0  0  0  0  0  0  0  0  0  0
  -28.8750  -19.0520   19.1410 H   0  0  0  0  0  0  0  0  0  0  0  0
  -29.9630  -16.6730   19.2500 C   0  0  0  0  0  3  0  0  0  0  0  0
  -30.9200  -14.3260   19.4340 C   0  0  0  0  0  0  0  0  0  0  0  0
  -30.9810  -11.8590   19.6190 C   0  0  0  0  0  2  0  0  0  0  0  0
  -30.0720  -11.1960   18.5630 C   0  0  0  0  0  2  0  0  0  0  0  0
  -28.6160  -11.1070   19.0590 C   0  0  0  0  0  2  0  0  0  0  0  0
  -28.1000  -12.4590   19.6180 C   0  0  0  0  0  3  0  0  0  0  0  0
  -29.1130  -13.0420   20.6290 C   0  0  0  0  0  2  0  0  0  0  0  0
  -30.4290  -13.1760   19.9670 N   0  0  0  0  0  0  0  0  0  0  0  0
  -31.8330  -14.3540   18.6040 O   0  0  0  0  0  0  0  0  0  0  0  0
  -30.3450  -15.4290   19.9200 N   0  0  0  0  0  0  0  0  0  0  0  0
  -29.7500  -15.2760   20.7250 H   0  0  0  0  0  0  0  0  0  0  0  0
  -25.8750  -13.2980   20.6140 C   0  0  0  0  0  0  0  0  0  0  0  0
  -24.7530  -12.6340   21.0320 C   0  0  0  0  0  0  0  0  0  0  0  0
  -25.0250  -11.2430   20.8450 C   0  0  0  0  0  0  0  0  0  0  0  0
  -26.7700  -12.3190   20.2090 N   0  0  0  0  0  0  0  0  0  0  0  0
  -26.2630  -11.0730   20.3980 N   0  0  0  0  0  0  0  0  0  0  0  0
  -24.1600  -10.0670   21.0120 C   0  0  0  0  0  0  0  0  0  0  0  0
  -24.3380   -9.1670   22.0850 C   0  0  0  0  0  3  0  0  0  0  0  0
  -23.4840   -8.0540   22.2340 C   0  0  0  0  0  3  0  0  0  0  0  0
  -22.4360   -7.8340   21.3080 C   0  0  0  0  0  0  0  0  0  0  0  0
  -22.2770   -8.7200   20.2280 C   0  0  0  0  0  3  0  0  0  0  0  0
  -23.1330   -9.8260   20.0790 C   0  0  0  0  0  3  0  0  0  0  0  0
  -21.5750   -6.7640   21.3580 O   0  0  0  0  0  0  0  0  0  0  0  0
  -21.0110   -6.3500   22.5380 C   0  0  0  0  0  0  0  0  0  0  0  0
  -20.2130   -7.2100   23.3240 C   0  0  0  0  0  3  0  0  0  0  0  0
  -19.5950   -6.7230   24.4930 C   0  0  0  0  0  3  0  0  0  0  0  0
  -19.7650   -5.3780   24.8730 C   0  0  0  0  0  0  0  0  0  0  0  0
  -20.5540   -4.5190   24.0880 C   0  0  0  0  0  3  0  0  0  0  0  0
  -21.1730   -5.0030   22.9220 C   0  0  0  0  0  0  0  0  0  0  0  0
  -21.9150   -4.1670   22.1580 F   0  0  0  0  0  0  0  0  0  0  0  0
  -19.1650   -4.9070   25.9910 F   0  0  0  0  0  0  0  0  0  0  0  0
  -23.4620  -13.2520   21.4890 C   0  0  0  0  0  0  0  0  0  0  0  0
  -22.7530  -12.5910   22.3960 N   0  0  0  0  0  0  0  0  0  0  0  0
  -23.0980  -14.3530   21.0790 O   0  0  0  0  0  0  0  0  0  0  0  0
  -23.0590  -11.6950   22.7460 H   0  0  0  0  0  0  0  0  0  0  0  0
  -21.8920  -12.9860   22.7480 H   0  0  0  0  0  0  0  0  0  0  0  0
  -26.2010  -14.6480   20.5260 N   0  0  0  0  0  0  0  0  0  0  0  0
  -25.5380  -15.3800   20.7500 H   0  0  0  0  0  0  0  0  0  0  0  0
  -27.0690  -15.0000   20.1420 H   0  0  0  0  0  0  0  0  0  0  0  0
  -32.0810  -17.8610   20.1520 C   0  0  0  0  0  1  0  0  0  0  0  0
  -31.9800  -17.2370   17.7090 C   0  0  0  0  0  1  0  0  0  0  0  0
  -31.1540  -17.6310   18.9460 C   0  0  0  0  0  3  0  0  0  0  0  0
  -26.6530  -24.7960   19.6150 O   0  0  0  0  0  0  0  0  0  0  0  0
  -27.7020  -25.7530   19.7580 C   0  0  0  0  0  2  0  0  0  0  0  0
  -28.5040  -25.8940   18.4570 C   0  0  0  0  0  2  0  0  0  0  0  0
  -29.8170  -26.3620   18.7620 O   0  0  0  0  0  0  0  0  0  0  0  0
  -30.8200  -25.9530   17.8350 C   0  0  0  0  0  2  0  0  0  0  0  0
  -30.5350  -26.4060   16.3890 C   0  0  0  0  0  2  0  0  0  0  0  0
  -29.9230  -27.6940   16.3840 O   0  0  0  0  0  0  0  0  0  0  0  0
  -24.9360  -27.9280   21.4280 C   0  0  0  0  0  0  0  0  0  0  0  0
  -28.5810  -27.7540   16.6680 C   0  0  0  0  0  0  0  0  0  0  0  0
  -24.1020  -27.6760   19.1110 C   0  0  0  0  0  3  0  0  0  0  0  0
  -25.8360  -28.0090   17.2720 C   0  0  0  0  0  0  0  0  0  0  0  0
  -26.3240  -28.8490   19.5770 C   0  0  0  0  0  2  0  0  0  0  0  0
  -26.8000  -28.3490   18.2300 C   0  0  0  0  0  0  0  0  0  0  0  0
  -28.1710  -28.2320   17.9290 C   0  0  0  0  0  3  0  0  0  0  0  0
  -27.6010  -27.4120   15.7090 C   0  0  0  0  0  3  0  0  0  0  0  0
  -26.2310  -27.5380   16.0080 C   0  0  0  0  0  3  0  0  0  0  0  0
  -24.3880  -28.1800   17.6710 C   0  0  0  0  0  2  0  0  0  0  0  0
  -25.1400  -28.1260   20.0950 N   0  0  0  0  0  0  0  0  0  0  0  0
  -23.8860  -27.4200   21.8450 O   0  0  0  0  0  0  0  0  0  0  0  0
  -23.9240  -26.1430   19.0670 C   0  0  0  0  0  0  0  0  0  0  0  0
  -22.7740  -25.6910   18.5400 N   0  0  0  0  0  0  0  0  0  0  0  0
  -24.8140  -25.3900   19.4730 O   0  0  0  0  0  0  0  0  0  0  0  0
  -22.0960  -26.3720   18.2270 H   0  0  0  0  0  0  0  0  0  0  0  0
  -20.1410  -23.5090   17.3830 C   0  0  0  0  0  0  0  0  0  0  0  0
  -22.4020  -24.2890   18.3630 C   0  0  0  0  0  3  0  0  0  0  0  0
  -23.0410  -23.6990   17.0840 C   0  0  0  0  0  2  0  0  0  0  0  0
  -22.1350  -23.8110   15.8540 C   0  0  0  0  0  2  0  0  0  0  0  0
  -20.8150  -23.0720   16.0930 C   0  0  0  0  0  2  0  0  0  0  0  0
  -20.8830  -24.0970   18.4400 C   0  0  0  0  0  0  0  0  0  0  0  0
  -20.2040  -24.5230   19.6020 C   0  0  0  0  0  3  0  0  0  0  0  0
  -18.8100  -24.3650   19.7180 C   0  0  0  0  0  3  0  0  0  0  0  0
  -18.0820  -23.7660   18.6770 C   0  0  0  0  0  3  0  0  0  0  0  0
  -18.7470  -23.3370   17.5140 C   0  0  0  0  0  3  0  0  0  0  0  0
  -25.9990  -28.3460   22.4910 C   0  0  0  0  0  3  0  0  0  0  0  0
  -26.8760  -27.1380   23.0030 C   0  0  1  0  0  0  0  0  0  0  0  0
  -26.0480  -25.8960   23.4080 C   0  0  0  0  0  1  0  0  0  0  0  0
  -27.8850  -26.7000   21.9160 C   0  0  0  0  0  1  0  0  0  0  0  0
  -27.7110  -27.5760   24.2310 C   0  0  0  0  0  1  0  0  0  0  0  0
  -25.2850  -28.9800   23.6060 N   0  0  0  0  0  0  0  0  0  0  0  0
  -25.2020  -30.3040   23.8000 C   0  0  0  0  0  0  0  0  0  0  0  0
  -25.7890  -31.1240   23.0880 O   0  0  0  0  0  0  0  0  0  0  0  0
  -24.7330  -28.3730   24.1950 H   0  0  0  0  0  0  0  0  0  0  0  0
  -22.9650  -31.2630   24.4330 C   0  0  0  0  0  1  0  0  0  0  0  0
  -24.3280  -30.7970   24.9690 C   0  0  0  0  0  3  0  0  0  0  0  0
  -26.1170  -31.4490   26.5190 C   0  0  0  0  0  1  0  0  0  0  0  0
  -24.9530  -31.8850   25.7520 N   0  0  0  0  0  0  0  0  0  0  0  0
  -24.2830  -32.2960   26.3960 H   0  0  0  0  0  0  0  0  0  0  0  0
  2  5  1  0
  3  1  1  0
  4  2  2  0
  4  6  1  0
  5  7  1  0
  5  1  2  0
  6  3  2  0
  8 10  2  0
  9  8  1  0
  9  7  1  0
 11  9  1  0
 12 53  1  0
 12 21  1  0
 12  8  1  0
 13 21  1  0
 13 19  1  0
 14 19  1  0
 15 16  1  0
 15 14  1  0
 17 16  1  0
 17 26  1  0
 17 18  1  0
 19 18  1  0
 20 13  2  0
 21 22  1  0
 23 24  2  0
 24 43  1  0
 25 28  1  0
 25 24  1  0
 26 27  1  0
 26 23  1  0
 27 25  2  0
 28 29  1  0
 29 30  2  0
 31 34  1  0
 31 30  1  0
 32 31  2  0
 33 32  1  0
 33 28  2  0
 34 35  1  0
 35 40  2  0
 35 36  1  0
 36 37  2  0
 37 38  1  0
 38 42  1  0
 39 38  2  0
 40 39  1  0
 41 40  1  0
 43 44  1  0
 44 46  1  0
 44 47  1  0
 45 43  2  0
 48 23  1  0
 48 49  1  0
 50 48  1  0
 52 53  1  0
 53 51  1  0
 54 55  1  0
 54  6  1  0
 56 57  1  0
 56 55  1  0
 58 57  1  0
 59 58  1  0
 60 59  1  0
 60 62  1  0
 61 72  2  0
 62 67  1  0
 63 73  1  0
 63 71  1  0
 64 70  1  0
 64 66  1  0
 65 71  1  0
 66 65  1  0
 67 66  2  0
 68 69  1  0
 68 62  2  0
 69 64  2  0
 70 63  1  0
 71 61  1  0
 73 75  2  0
 74 73  1  0
 76 74  1  0
 77 86  2  0
 77 82  1  0
 78 82  1  0
 78 74  1  0
 79 78  1  0
 80 81  1  0
 80 79  1  0
 81 77  1  0
 82 83  2  0
 83 84  1  0
 85 84  2  0
 86 85  1  0
 87 61  1  0
 87 88  1  0
 87 92  1  0
 88 89  1  1
 88 91  1  0
 90 88  1  0
 92 93  1  0
 92 95  1  0
 93 97  1  0
 94 93  2  0
 97 96  1  0
 97 99  1  0
 99100  1  0
 99 98  1  0
M  ISO  4  13 100  21 100  59 101  60 101
M  END
>  <TORSDO>  (27) 
F 26

>  <SCORE>  (27) 
-5.639

>  <name>  (27) 
26

>  <ligand_id>  (27) 
26

>  <original_smiles>  (27) 
[H]c1c([H])c([H])c2c(c1[H])C([H])([H])C([H])([H])C([H])([H])C2([H])N([H])C(=O)C1([H])N(C(=O)C([H])(N([H])C(=O)C([H])(N([H])C([H])([H])[H])C([H])([H])[H])C(C([H])([H])[H])(C([H])([H])[H])C([H])([H])[H])C([H])([H])c2c([H])c(OC([H])([H])C([H])([H])OC([H])([H])C([H])([H])Oc3c([H])c([H])c(C([H])([H])N([H])C(=O)C([H])(N([H])C(=O)N4C([H])([H])C([H])([H])C([H])([H])C([H])(n5nc(-c6c([H])c([H])c(Oc7c([H])c([H])c(F)c([H])c7F)c([H])c6[H])c(C(=O)N([H])[H])c5N([H])[H])C4([H])[H])C([H])(C([H])([H])[H])C([H])([H])[H])c([H])c3[H])c([H])c([H])c2C1([H])[H]

>  <smiles>  (27) 
[H]c1c([H])c([H])c2c(c1[H])C([H])([H])C([H])([H])C([H])([H])C2([H])N([H])C(=O)C1([H])N(C(=O)C([H])(N([H])C(=O)C([H])(N([H])C([H])([H])[H])C([H])([H])[H])C(C([H])([H])[H])(C([H])([H])[H])C([H])([H])[H])C([H])([H])c2c([H])c(OC([H])([H])C([H])([H])OC([H])([H])C([H])([H])Oc3c([H])c([H])c(C([H])([H])N([H])C(=O)C([H])(N([H])C(=O)N4C([H])([H])C([H])([H])C([H])([H])C([H])(n5nc(-c6c([H])c([H])c(Oc7c([H])c([H])c(F)c([H])c7F)c([H])c6[H])c(C(=O)N([H])[H])c5N([H])[H])C4([H])[H])C([H])(C([H])([H])[H])C([H])([H])[H])c([H])c3[H])c([H])c([H])c2C1([H])[H]

$$$$
27:0:0
     RDKit          3D

100107  0  0  1  0  0  0  0  0999 V2000
  -27.9680  -19.7850   19.3520 C   0  0  0  0  0  0  0  0  0  0  0  0
  -27.3210  -20.2080   18.2630 N   0  0  0  0  0  0  0  0  0  0  0  0
  -27.3900  -19.4760   20.3970 O   0  0  0  0  0  0  0  0  0  0  0  0
  -27.8860  -20.4570   17.4640 H   0  0  0  0  0  0  0  0  0  0  0  0
  -25.9110  -20.5820   18.1920 C   0  0  0  0  0  2  0  0  0  0  0  0
  -25.7540  -22.0470   18.6340 C   0  0  0  0  0  2  0  0  0  0  0  0
  -26.9250  -22.7340   18.2040 O   0  0  0  0  0  0  0  0  0  0  0  0
  -27.3040  -23.8500   19.0020 C   0  0  0  0  0  2  0  0  0  0  0  0
  -28.7850  -24.1230   18.7090 C   0  0  0  0  0  2  0  0  0  0  0  0
  -29.3970  -24.8220   19.7870 O   0  0  0  0  0  0  0  0  0  0  0  0
  -30.8170  -24.8580   19.6790 C   0  0  0  0  0  2  0  0  0  0  0  0
  -31.4090  -25.9770   20.5510 C   0  0  0  0  0  2  0  0  0  0  0  0
  -31.1280  -27.2620   20.0090 O   0  0  0  0  0  0  0  0  0  0  0  0
  -26.0670  -29.6990   24.3590 C   0  0  0  0  0  0  0  0  0  0  0  0
  -29.8310  -27.6720   20.1570 C   0  0  0  0  0  0  0  0  0  0  0  0
  -25.3210  -29.0400   22.0940 C   0  0  0  0  0  3  0  0  0  0  0  0
  -27.1770  -28.5760   20.4100 C   0  0  0  0  0  0  0  0  0  0  0  0
  -27.7140  -29.8460   22.5000 C   0  0  0  0  0  2  0  0  0  0  0  0
  -28.1410  -28.9510   21.3580 C   0  0  0  0  0  0  0  0  0  0  0  0
  -29.4710  -28.5010   21.2370 C   0  0  0  0  0  3  0  0  0  0  0  0
  -28.8600  -27.3040   19.2040 C   0  0  0  0  0  3  0  0  0  0  0  0
  -27.5300  -27.7450   19.3320 C   0  0  0  0  0  3  0  0  0  0  0  0
  -25.7780  -29.1090   20.6130 C   0  0  0  0  0  2  0  0  0  0  0  0
  -26.3780  -29.5160   23.0460 N   0  0  0  0  0  0  0  0  0  0  0  0
  -24.9140  -29.5230   24.7760 O   0  0  0  0  0  0  0  0  0  0  0  0
  -24.8320  -27.6050   22.3920 C   0  0  0  0  0  0  0  0  0  0  0  0
  -23.6360  -27.2660   21.8820 N   0  0  0  0  0  0  0  0  0  0  0  0
  -25.5290  -26.8180   23.0370 O   0  0  0  0  0  0  0  0  0  0  0  0
  -23.1230  -27.9720   21.3720 H   0  0  0  0  0  0  0  0  0  0  0  0
  -20.6730  -25.3980   21.0060 C   0  0  0  0  0  0  0  0  0  0  0  0
  -22.9940  -25.9580   21.9930 C   0  0  0  0  0  3  0  0  0  0  0  0
  -23.5660  -24.9660   20.9530 C   0  0  0  0  0  2  0  0  0  0  0  0
  -22.7580  -24.9220   19.6530 C   0  0  0  0  0  2  0  0  0  0  0  0
  -21.3040  -24.5310   19.9300 C   0  0  0  0  0  2  0  0  0  0  0  0
  -21.4670  -26.0800   21.9650 C   0  0  0  0  0  0  0  0  0  0  0  0
  -20.8310  -26.9020   22.9210 C   0  0  0  0  0  3  0  0  0  0  0  0
  -19.4310  -27.0430   22.9310 C   0  0  0  0  0  3  0  0  0  0  0  0
  -18.6490  -26.3540   21.9890 C   0  0  0  0  0  3  0  0  0  0  0  0
  -19.2690  -25.5310   21.0330 C   0  0  0  0  0  3  0  0  0  0  0  0
  -27.1380  -30.1640   25.3970 C   0  0  0  0  0  3  0  0  0  0  0  0
  -26.7580  -31.5080   25.8510 N   0  0  0  0  0  0  0  0  0  0  0  0
  -27.3440  -32.6410   25.4400 C   0  0  0  0  0  0  0  0  0  0  0  0
  -28.3190  -32.6540   24.6840 O   0  0  0  0  0  0  0  0  0  0  0  0
  -25.9350  -31.5770   26.4310 H   0  0  0  0  0  0  0  0  0  0  0  0
  -25.8920  -34.6040   24.8450 C   0  0  0  0  0  1  0  0  0  0  0  0
  -26.7540  -33.9710   25.9490 C   0  0  0  0  0  3  0  0  0  0  0  0
  -28.4670  -34.5190   27.6210 C   0  0  0  0  0  1  0  0  0  0  0  0
  -27.7810  -34.9370   26.4000 N   0  0  0  0  0  0  0  0  0  0  0  0
  -27.3670  -35.8510   26.5650 H   0  0  0  0  0  0  0  0  0  0  0  0
  -27.2850  -29.1790   26.6230 C   0  0  1  0  0  0  0  0  0  0  0  0
  -25.9440  -28.8560   27.3230 C   0  0  0  0  0  1  0  0  0  0  0  0
  -27.9190  -27.8430   26.1750 C   0  0  0  0  0  1  0  0  0  0  0  0
  -28.2420  -29.7920   27.6740 C   0  0  0  0  0  1  0  0  0  0  0  0
  -29.5050  -19.7670   19.2600 C   0  0  0  0  0  3  0  0  0  0  0  0
  -30.3090  -17.5420   20.0160 C   0  0  0  0  0  0  0  0  0  0  0  0
  -30.0510  -18.8320   20.2360 N   0  0  0  0  0  0  0  0  0  0  0  0
  -30.1120  -16.9980   18.9260 O   0  0  0  0  0  0  0  0  0  0  0  0
  -30.1910  -19.1870   21.1710 H   0  0  0  0  0  0  0  0  0  0  0  0
  -32.2890  -17.1640   21.6360 C   0  0  0  0  0  1  0  0  0  0  0  0
  -30.8700  -16.7500   21.2030 C   0  0  0  0  0  3  0  0  0  0  0  0
  -31.0710  -14.5100   20.0070 C   0  0  0  0  0  0  0  0  0  0  0  0
  -30.6730  -12.3050   18.9620 C   0  0  0  0  0  2  0  0  0  0  0  0
  -29.6460  -12.4050   17.8190 C   0  0  0  0  0  2  0  0  0  0  0  0
  -28.2060  -12.3110   18.3560 C   0  0  0  0  0  2  0  0  0  0  0  0
  -27.9540  -13.2720   19.5470 C   0  0  0  0  0  3  0  0  0  0  0  0
  -29.0670  -13.1080   20.6040 C   0  0  0  0  0  2  0  0  0  0  0  0
  -30.3720  -13.3480   19.9530 N   0  0  0  0  0  0  0  0  0  0  0  0
  -32.0020  -14.7790   19.2410 O   0  0  0  0  0  0  0  0  0  0  0  0
  -30.6750  -15.3140   20.9980 N   0  0  0  0  0  0  0  0  0  0  0  0
  -29.9360  -14.9180   21.5570 H   0  0  0  0  0  0  0  0  0  0  0  0
  -25.6700  -14.0000   20.4950 C   0  0  0  0  0  0  0  0  0  0  0  0
  -24.5870  -13.2770   20.9210 C   0  0  0  0  0  0  0  0  0  0  0  0
  -24.9480  -11.9020   20.7780 C   0  0  0  0  0  0  0  0  0  0  0  0
  -26.6280  -13.0660   20.1290 N   0  0  0  0  0  0  0  0  0  0  0  0
  -26.1990  -11.7980   20.3500 N   0  0  0  0  0  0  0  0  0  0  0  0
  -24.1590  -10.6800   20.9700 C   0  0  0  0  0  0  0  0  0  0  0  0
  -24.5640   -9.6720   21.8710 C   0  0  0  0  0  3  0  0  0  0  0  0
  -23.7770   -8.5140   22.0500 C   0  0  0  0  0  3  0  0  0  0  0  0
  -22.5700   -8.3570   21.3290 C   0  0  0  0  0  0  0  0  0  0  0  0
  -22.1830   -9.3530   20.4160 C   0  0  0  0  0  3  0  0  0  0  0  0
  -22.9700  -10.5030   20.2340 C   0  0  0  0  0  3  0  0  0  0  0  0
  -21.7560   -7.2540   21.4190 O   0  0  0  0  0  0  0  0  0  0  0  0
  -21.6580   -6.5250   22.5770 C   0  0  0  0  0  0  0  0  0  0  0  0
  -21.2050   -7.1020   23.7840 C   0  0  0  0  0  3  0  0  0  0  0  0
  -21.0530   -6.3010   24.9330 C   0  0  0  0  0  3  0  0  0  0  0  0
  -21.3410   -4.9230   24.8760 C   0  0  0  0  0  0  0  0  0  0  0  0
  -21.7850   -4.3470   23.6730 C   0  0  0  0  0  3  0  0  0  0  0  0
  -21.9400   -5.1460   22.5260 C   0  0  0  0  0  0  0  0  0  0  0  0
  -22.3480   -4.5800   21.3650 F   0  0  0  0  0  0  0  0  0  0  0  0
  -21.1860   -4.1510   25.9770 F   0  0  0  0  0  0  0  0  0  0  0  0
  -23.2560  -13.8260   21.3490 C   0  0  0  0  0  0  0  0  0  0  0  0
  -22.5720  -13.1370   22.2560 N   0  0  0  0  0  0  0  0  0  0  0  0
  -22.8360  -14.8980   20.9160 O   0  0  0  0  0  0  0  0  0  0  0  0
  -22.9260  -12.2700   22.6300 H   0  0  0  0  0  0  0  0  0  0  0  0
  -21.6800  -13.4840   22.5800 H   0  0  0  0  0  0  0  0  0  0  0  0
  -25.9160  -15.3640   20.3750 N   0  0  0  0  0  0  0  0  0  0  0  0
  -25.2210  -16.0640   20.6090 H   0  0  0  0  0  0  0  0  0  0  0  0
  -26.7900  -15.7620   20.0490 H   0  0  0  0  0  0  0  0  0  0  0  0
  -31.5240  -21.3610   19.4080 C   0  0  0  0  0  1  0  0  0  0  0  0
  -30.0110  -21.1820   19.6180 C   0  0  0  0  0  2  0  0  0  0  0  0
  1  3  2  0
  2  1  1  0
  4  2  1  0
  5  2  1  0
  5  6  1  0
  7  6  1  0
  7  8  1  0
  9  8  1  0
  9 10  1  0
 11 10  1  0
 11 12  1  0
 13 15  1  0
 13 12  1  0
 14 25  2  0
 15 20  1  0
 16 26  1  0
 16 24  1  0
 17 23  1  0
 17 19  1  0
 18 24  1  0
 19 18  1  0
 20 19  2  0
 21 22  1  0
 21 15  2  0
 22 17  2  0
 23 16  1  0
 24 14  1  0
 26 28  2  0
 27 26  1  0
 29 27  1  0
 30 39  2  0
 30 35  1  0
 31 27  1  0
 32 31  1  0
 33 34  1  0
 33 32  1  0
 34 30  1  0
 35 31  1  0
 35 36  2  0
 36 37  1  0
 38 37  2  0
 39 38  1  0
 40 14  1  0
 40 41  1  0
 40 50  1  0
 41 44  1  0
 42 41  1  0
 42 46  1  0
 43 42  2  0
 46 45  1  0
 46 48  1  0
 48 49  1  0
 48 47  1  0
 50 51  1  1
 50 53  1  0
 52 50  1  0
 54  1  1  0
 54100  1  0
 54 56  1  0
 55 56  1  0
 55 60  1  0
 56 58  1  0
 57 55  2  0
 60 59  1  0
 61 69  1  0
 62 67  1  0
 63 64  1  0
 63 62  1  0
 65 64  1  0
 65 74  1  0
 65 66  1  0
 67 61  1  0
 67 66  1  0
 68 61  2  0
 69 60  1  0
 69 70  1  0
 71 72  2  0
 72 91  1  0
 73 72  1  0
 73 76  1  0
 74 75  1  0
 74 71  1  0
 75 73  2  0
 76 77  1  0
 77 78  2  0
 79 82  1  0
 79 78  1  0
 80 79  2  0
 81 80  1  0
 81 76  2  0
 82 83  1  0
 83 84  1  0
 84 85  2  0
 86 85  1  0
 86 90  1  0
 87 86  2  0
 88 83  2  0
 88 87  1  0
 89 88  1  0
 91 92  1  0
 92 95  1  0
 92 94  1  0
 93 91  2  0
 96 71  1  0
 96 97  1  0
 98 96  1  0
 99100  1  0
M  ISO  4  12 101  13 101  61 100  69 100
M  END
>  <TORSDO>  (28) 
F 28

>  <SCORE>  (28) 
-8.171

>  <name>  (28) 
27

>  <ligand_id>  (28) 
27

>  <original_smiles>  (28) 
[H]c1c([H])c([H])c2c(c1[H])C([H])([H])C([H])([H])C([H])([H])C2([H])N([H])C(=O)C1([H])N(C(=O)C([H])(N([H])C(=O)C([H])(N([H])C([H])([H])[H])C([H])([H])[H])C(C([H])([H])[H])(C([H])([H])[H])C([H])([H])[H])C([H])([H])c2c([H])c(OC([H])([H])C([H])([H])OC([H])([H])C([H])([H])OC([H])([H])C([H])([H])N([H])C(=O)C([H])(N([H])C(=O)C([H])(N([H])C(=O)N3C([H])([H])C([H])([H])C([H])([H])C([H])(n4nc(-c5c([H])c([H])c(Oc6c([H])c([H])c(F)c([H])c6F)c([H])c5[H])c(C(=O)N([H])[H])c4N([H])[H])C3([H])[H])C([H])([H])[H])C([H])([H])C([H])([H])[H])c([H])c([H])c2C1([H])[H]

>  <smiles>  (28) 
[H]c1c([H])c([H])c2c(c1[H])C([H])([H])C([H])([H])C([H])([H])C2([H])N([H])C(=O)C1([H])N(C(=O)C([H])(N([H])C(=O)C([H])(N([H])C([H])([H])[H])C([H])([H])[H])C(C([H])([H])[H])(C([H])([H])[H])C([H])([H])[H])C([H])([H])c2c([H])c(OC([H])([H])C([H])([H])OC([H])([H])C([H])([H])OC([H])([H])C([H])([H])N([H])C(=O)C([H])(N([H])C(=O)C([H])(N([H])C(=O)N3C([H])([H])C([H])([H])C([H])([H])C([H])(n4nc(-c5c([H])c([H])c(Oc6c([H])c([H])c(F)c([H])c6F)c([H])c5[H])c(C(=O)N([H])[H])c4N([H])[H])C3([H])[H])C([H])([H])[H])C([H])([H])C([H])([H])[H])c([H])c([H])c2C1([H])[H]

$$$$
28:0:0
     RDKit          3D

 93 97  0  0  1  0  0  0  0  0999 V2000
  -22.9190  -16.9610   22.5720 C   0  0  0  0  0  0  0  0  0  0  0  0
  -22.9150  -15.4870   22.9250 N   0  0  0  0  0  0  0  0  0  0  0  0
  -21.8230  -17.4130   22.2330 O   0  0  0  0  0  0  0  0  0  0  0  0
  -23.8150  -15.2880   23.3440 H   0  0  0  0  0  0  0  0  0  0  0  0
  -22.1210  -13.9320   22.6190 C   0  0  0  0  0  1  0  0  0  0  0  0
  -22.1000  -12.6090   21.1320 C   0  0  0  0  0 15  0  0  0  0  0  0
  -23.0410  -12.5900   19.4810 O   0  0  0  0  0  1  0  0  0  0  0  0
  -24.6800  -12.9430   18.6760 C   0  0  0  0  0  1  0  0  0  0  0  0
  -26.2400  -14.1950   18.4840 C   0  0  0  0  0  1  0  0  0  0  0  0
  -29.3990  -14.5110   19.5300 C   0  0  0  0  0  0  0  0  0  0  0  0
  -30.4200  -12.3660   19.2890 C   0  0  0  0  0  2  0  0  0  0  0  0
  -29.3580  -12.0390   18.2290 C   0  0  0  0  0  2  0  0  0  0  0  0
  -27.9660  -11.7990   18.9160 C   0  0  0  0  0  2  0  0  0  0  0  0
  -27.7380  -12.4520   20.3740 C   0  0  0  0  0  3  0  0  0  0  0  0
  -28.9540  -12.7210   21.1750 C   0  0  0  0  0  2  0  0  0  0  0  0
  -29.7640  -13.3440   20.1490 N   0  0  0  0  0  0  0  0  0  0  0  0
  -30.4530  -15.2110   19.4830 O   0  0  0  0  0  0  0  0  0  0  0  0
  -27.9950  -14.6620   18.8100 N   0  0  0  0  0  0  0  0  0  0  0  0
  -28.1270  -15.5120   18.2790 H   0  0  0  0  0  0  0  0  0  0  0  0
  -25.7370  -13.8520   21.2050 C   0  0  0  0  0  3  0  0  0  0  0  0
  -24.4880  -13.4810   21.1970 C   0  0  0  0  0  3  0  0  0  0  0  0
  -24.6280  -11.9040   21.2340 C   0  0  0  0  0  3  0  0  0  0  0  0
  -26.4660  -12.6760   20.9050 N   0  0  0  0  0  0  0  0  0  0  0  0
  -25.8530  -11.5570   21.0330 N   0  0  0  0  0  2  0  0  0  0  0  0
  -23.9150  -10.5140   21.1510 C   0  0  0  0  0  0  0  0  0  0  0  0
  -24.2740   -9.5160   22.0990 C   0  0  0  0  0  3  0  0  0  0  0  0
  -23.5940   -8.2770   22.1990 C   0  0  0  0  0  3  0  0  0  0  0  0
  -22.4720   -8.0080   21.3830 C   0  0  0  0  0  0  0  0  0  0  0  0
  -22.1660   -8.9100   20.3680 C   0  0  0  0  0  3  0  0  0  0  0  0
  -22.9460  -10.0580   20.1900 C   0  0  0  0  0  3  0  0  0  0  0  0
  -21.6850   -6.8860   21.4420 O   0  0  0  0  0  0  0  0  0  0  0  0
  -21.6890   -6.0690   22.5400 C   0  0  0  0  0  0  0  0  0  0  0  0
  -21.3970   -6.5580   23.8310 C   0  0  0  0  0  3  0  0  0  0  0  0
  -21.3600   -5.6730   24.9250 C   0  0  0  0  0  3  0  0  0  0  0  0
  -21.6010   -4.3000   24.7270 C   0  0  0  0  0  0  0  0  0  0  0  0
  -21.8820   -3.8100   23.4390 C   0  0  0  0  0  3  0  0  0  0  0  0
  -21.9200   -4.6930   22.3470 C   0  0  0  0  0  0  0  0  0  0  0  0
  -22.1710   -4.2160   21.1030 F   0  0  0  0  0  0  0  0  0  0  0  0
  -21.5610   -3.4490   25.7780 F   0  0  0  0  0  0  0  0  0  0  0  0
  -23.5350  -14.6830   20.5120 C   0  0  0  0  0  0  0  0  0  0  0  0
  -22.2160  -14.8100   20.2530 N   0  0  0  0  0  0  0  0  0  0  0  0
  -23.8660  -15.7460   20.1600 O   0  0  0  0  0  0  0  0  0  0  0  0
  -21.6030  -14.0110   20.2600 H   0  0  0  0  0  0  0  0  0  0  0  0
  -21.8830  -15.6900   19.8930 H   0  0  0  0  0  0  0  0  0  0  0  0
  -26.2190  -15.1600   21.1150 N   0  0  0  0  0  0  0  0  0  0  0  0
  -25.4840  -15.8070   20.8350 H   0  0  0  0  0  0  0  0  0  0  0  0
  -27.0220  -15.2530   20.5010 H   0  0  0  0  0  0  0  0  0  0  0  0
  -24.2470  -18.1570   22.4310 C   0  0  0  0  0  2  0  0  0  0  0  0
  -24.2290  -19.8000   22.0870 O   0  0  0  0  0  0  0  0  0  0  0  0
  -25.3800  -20.9150   21.5770 C   0  0  0  0  0  3  0  0  0  0  0  0
  -25.6290  -22.7530   21.5760 C   0  0  0  0  0  3  0  0  0  0  0  0
  -26.6990  -23.9610   20.6820 C   0  0  0  0  0  2  0  0  0  0  0  0
  -27.3630  -25.5200   20.7600 O   0  0  0  0  0  0  0  0  0  0  0  0
  -24.6540  -31.8340   23.1870 C   0  0  0  0  0  0  0  0  0  0  0  0
  -26.8000  -26.8140   20.3700 C   0  0  0  0  0  0  0  0  0  0  0  0
  -23.4500  -30.4770   21.5350 C   0  0  0  0  0  3  0  0  0  0  0  0
  -24.8480  -28.9010   20.0670 C   0  0  0  0  0  0  0  0  0  0  0  0
  -26.0160  -30.6200   21.4210 C   0  0  0  0  0  2  0  0  0  0  0  0
  -26.0170  -29.2120   20.7700 C   0  0  0  0  0  0  0  0  0  0  0  0
  -27.0250  -28.1710   20.9060 C   0  0  0  0  0  3  0  0  0  0  0  0
  -25.7520  -26.7180   19.4580 C   0  0  0  0  0  3  0  0  0  0  0  0
  -24.7620  -27.7020   19.3530 C   0  0  0  0  0  3  0  0  0  0  0  0
  -23.6700  -29.8560   20.1300 C   0  0  0  0  0  2  0  0  0  0  0  0
  -24.7310  -31.0060   22.1000 N   0  0  0  0  0  0  0  0  0  0  0  0
  -23.5640  -32.1340   23.7000 O   0  0  0  0  0  0  0  0  0  0  0  0
  -22.7580  -29.4520   22.4740 C   0  0  0  0  0  0  0  0  0  0  0  0
  -21.4260  -29.3040   22.3530 N   0  0  0  0  0  0  0  0  0  0  0  0
  -23.4210  -28.8030   23.2870 O   0  0  0  0  0  0  0  0  0  0  0  0
  -20.9450  -29.8810   21.6770 H   0  0  0  0  0  0  0  0  0  0  0  0
  -18.0290  -28.1390   22.8460 C   0  0  0  0  0  0  0  0  0  0  0  0
  -20.5920  -28.3730   23.1190 C   0  0  0  0  0  3  0  0  0  0  0  0
  -20.6780  -26.9420   22.5390 C   0  0  0  0  0  2  0  0  0  0  0  0
  -19.5760  -26.6360   21.5200 C   0  0  0  0  0  2  0  0  0  0  0  0
  -18.1940  -26.7930   22.1620 C   0  0  0  0  0  2  0  0  0  0  0  0
  -19.1550  -28.8880   23.2820 C   0  0  0  0  0  0  0  0  0  0  0  0
  -18.9480  -30.1470   23.8860 C   0  0  0  0  0  3  0  0  0  0  0  0
  -17.6470  -30.6590   24.0550 C   0  0  0  0  0  3  0  0  0  0  0  0
  -16.5360  -29.9080   23.6330 C   0  0  0  0  0  3  0  0  0  0  0  0
  -16.7280  -28.6500   23.0350 C   0  0  0  0  0  3  0  0  0  0  0  0
  -25.9280  -32.4610   23.8240 C   0  0  0  0  0  3  0  0  0  0  0  0
  -26.4560  -31.6530   25.0750 C   0  0  1  0  0  0  0  0  0  0  0  0
  -25.3690  -31.3770   26.1410 C   0  0  0  0  0  1  0  0  0  0  0  0
  -27.0410  -30.2890   24.6450 C   0  0  0  0  0  1  0  0  0  0  0  0
  -27.6090  -32.4310   25.7510 C   0  0  0  0  0  1  0  0  0  0  0  0
  -25.6010  -33.8440   24.2150 N   0  0  0  0  0  0  0  0  0  0  0  0
  -25.9110  -34.9370   23.5040 C   0  0  0  0  0  0  0  0  0  0  0  0
  -26.5700  -34.8890   22.4630 O   0  0  0  0  0  0  0  0  0  0  0  0
  -25.0120  -33.9550   25.0270 H   0  0  0  0  0  0  0  0  0  0  0  0
  -24.1510  -36.7230   23.2640 C   0  0  0  0  0  1  0  0  0  0  0  0
  -25.4140  -36.3000   24.0300 C   0  0  0  0  0  3  0  0  0  0  0  0
  -27.5580  -37.1780   24.8470 C   0  0  0  0  0  1  0  0  0  0  0  0
  -26.4300  -37.3720   23.9400 N   0  0  0  0  0  0  0  0  0  0  0  0
  -26.0160  -38.2790   24.1370 H   0  0  0  0  0  0  0  0  0  0  0  0
  1  2  1  0
  2  4  1  0
  3  1  2  0
  5  2  1  0
  8  7  1  0
  9 18  1  0
 10 16  1  0
 11 16  1  0
 12 13  1  0
 12 11  1  0
 14 13  1  0
 14 23  1  0
 14 15  1  0
 16 15  1  0
 17 10  2  0
 18 10  1  0
 19 18  1  0
 20 45  1  0
 21 40  1  0
 21 20  1  0
 21 22  1  0
 22 25  1  0
 23 24  1  0
 23 20  1  0
 24 22  1  0
 25 26  1  0
 26 27  2  0
 28 31  1  0
 28 27  1  0
 29 28  2  0
 30 29  1  0
 30 25  2  0
 31 32  1  0
 32 33  1  0
 33 34  2  0
 35 34  1  0
 35 39  1  0
 36 35  2  0
 37 32  2  0
 37 36  1  0
 38 37  1  0
 41 43  1  0
 41 40  1  0
 42 40  2  0
 44 41  1  0
 46 45  1  0
 47 45  1  0
 48  1  1  0
 49 48  1  0
 50 49  1  0
 51 50  2  0
 52 53  1  0
 52 51  1  0
 54 65  2  0
 55 53  1  0
 55 60  1  0
 56 64  1  0
 56 66  1  0
 57 63  1  0
 57 59  1  0
 58 64  1  0
 59 60  2  0
 59 58  1  0
 61 55  2  0
 62 61  1  0
 62 57  2  0
 63 56  1  0
 64 54  1  0
 66 68  2  0
 67 66  1  0
 69 67  1  0
 70 79  2  0
 70 75  1  0
 71 67  1  0
 71 75  1  0
 72 71  1  0
 73 74  1  0
 73 72  1  0
 74 70  1  0
 75 76  2  0
 76 77  1  0
 78 77  2  0
 79 78  1  0
 80 54  1  0
 80 85  1  0
 80 81  1  0
 81 84  1  1
 81 82  1  0
 83 81  1  0
 85 88  1  0
 86 90  1  0
 86 85  1  0
 87 86  2  0
 90 89  1  0
 92 90  1  0
 92 93  1  0
 92 91  1  0
M  ISO  4  10 100  18 100  52 101  53 101
M  END
>  <TORSDO>  (29) 
F 26

>  <SCORE>  (29) 
50.108

>  <name>  (29) 
28

>  <ligand_id>  (29) 
28

>  <original_smiles>  (29) 
[H]c1c([H])c([H])c2c(c1[H])C([H])([H])C([H])([H])C([H])([H])C2([H])N([H])C(=O)C1([H])N(C(=O)C([H])(N([H])C(=O)C([H])(N([H])C([H])([H])[H])C([H])([H])[H])C(C([H])([H])[H])(C([H])([H])[H])C([H])([H])[H])C([H])([H])c2c([H])c(OC([H])([H])C([H])([H])C([H])([H])OC([H])([H])C(=O)N([H])C([H])([H])C([H])([H])OC([H])([H])C([H])([H])N([H])C(=O)N3C([H])([H])C([H])([H])C([H])([H])C([H])(n4nc(-c5c([H])c([H])c(Oc6c([H])c([H])c(F)c([H])c6F)c([H])c5[H])c(C(=O)N([H])[H])c4N([H])[H])C3([H])[H])c([H])c([H])c2C1([H])[H]

>  <smiles>  (29) 
[H]c1c([H])c([H])c2c(c1[H])C([H])([H])C([H])([H])C([H])([H])C2([H])N([H])C(=O)C1([H])N(C(=O)C([H])(N([H])C(=O)C([H])(N([H])C([H])([H])[H])C([H])([H])[H])C(C([H])([H])[H])(C([H])([H])[H])C([H])([H])[H])C([H])([H])c2c([H])c(OC([H])([H])C([H])([H])C([H])([H])OC([H])([H])C(=O)N([H])C([H])([H])C([H])([H])OC([H])([H])C([H])([H])N([H])C(=O)N3C([H])([H])C([H])([H])C([H])([H])C([H])(n4nc(-c5c([H])c([H])c(Oc6c([H])c([H])c(F)c([H])c6F)c([H])c5[H])c(C(=O)N([H])[H])c4N([H])[H])C3([H])[H])c([H])c([H])c2C1([H])[H]

$$$$
29:0:0
     RDKit          3D

 96103  0  0  1  0  0  0  0  0999 V2000
  -30.3190  -19.5060   19.4760 C   0  0  0  0  0  2  0  0  0  0  0  0
  -31.7340  -17.5050   19.9430 C   0  0  0  0  0  0  0  0  0  0  0  0
  -31.5780  -18.7660   19.5290 N   0  0  0  0  0  0  0  0  0  0  0  0
  -32.8430  -16.9660   19.9250 O   0  0  0  0  0  0  0  0  0  0  0  0
  -32.4070  -19.2740   19.2490 H   0  0  0  0  0  0  0  0  0  0  0  0
  -30.5030  -16.7720   20.5080 C   0  0  0  0  0  3  0  0  0  0  0  0
  -31.2590  -14.3610   19.9630 C   0  0  0  0  0  0  0  0  0  0  0  0
  -30.9180  -12.1210   18.9710 C   0  0  0  0  0  2  0  0  0  0  0  0
  -29.9110  -12.2750   17.8110 C   0  0  0  0  0  2  0  0  0  0  0  0
  -28.4480  -12.2430   18.3120 C   0  0  0  0  0  2  0  0  0  0  0  0
  -28.2150  -13.1570   19.5440 C   0  0  0  0  0  3  0  0  0  0  0  0
  -29.3140  -12.9110   20.6020 C   0  0  0  0  0  2  0  0  0  0  0  0
  -30.6220  -13.1630   19.9620 N   0  0  0  0  0  0  0  0  0  0  0  0
  -32.3400  -14.5670   19.3970 O   0  0  0  0  0  0  0  0  0  0  0  0
  -30.4470  -15.3210   20.4190 N   0  0  0  0  0  0  0  0  0  0  0  0
  -29.6090  -14.9400   20.8300 H   0  0  0  0  0  0  0  0  0  0  0  0
  -25.9480  -13.9290   20.4930 C   0  0  0  0  0  0  0  0  0  0  0  0
  -24.8430  -13.2300   20.9020 C   0  0  0  0  0  0  0  0  0  0  0  0
  -25.1690  -11.8520   20.7380 C   0  0  0  0  0  0  0  0  0  0  0  0
  -26.8800  -12.9770   20.1120 N   0  0  0  0  0  0  0  0  0  0  0  0
  -26.4170  -11.7180   20.3090 N   0  0  0  0  0  0  0  0  0  0  0  0
  -24.3450  -10.6480   20.9020 C   0  0  0  0  0  0  0  0  0  0  0  0
  -24.7550   -9.5820   21.7320 C   0  0  0  0  0  3  0  0  0  0  0  0
  -23.9360   -8.4420   21.8880 C   0  0  0  0  0  3  0  0  0  0  0  0
  -22.6950   -8.3620   21.2120 C   0  0  0  0  0  0  0  0  0  0  0  0
  -22.3020   -9.4200   20.3750 C   0  0  0  0  0  3  0  0  0  0  0  0
  -23.1190  -10.5510   20.2150 C   0  0  0  0  0  3  0  0  0  0  0  0
  -21.8450   -7.2840   21.2830 O   0  0  0  0  0  0  0  0  0  0  0  0
  -21.7770   -6.4930   22.4020 C   0  0  0  0  0  0  0  0  0  0  0  0
  -21.4560   -7.0230   23.6700 C   0  0  0  0  0  3  0  0  0  0  0  0
  -21.3220   -6.1640   24.7790 C   0  0  0  0  0  3  0  0  0  0  0  0
  -21.5080   -4.7770   24.6250 C   0  0  0  0  0  0  0  0  0  0  0  0
  -21.8270   -4.2470   23.3630 C   0  0  0  0  0  3  0  0  0  0  0  0
  -21.9600   -5.1020   22.2540 C   0  0  0  0  0  0  0  0  0  0  0  0
  -22.2440   -4.5840   21.0350 F   0  0  0  0  0  0  0  0  0  0  0  0
  -21.3780   -3.9510   25.6890 F   0  0  0  0  0  0  0  0  0  0  0  0
  -23.5260  -13.8130   21.3300 C   0  0  0  0  0  0  0  0  0  0  0  0
  -22.8160  -13.1320   22.2250 N   0  0  0  0  0  0  0  0  0  0  0  0
  -23.1400  -14.9020   20.9080 O   0  0  0  0  0  0  0  0  0  0  0  0
  -23.1350  -12.2470   22.5900 H   0  0  0  0  0  0  0  0  0  0  0  0
  -21.9350  -13.5060   22.5500 H   0  0  0  0  0  0  0  0  0  0  0  0
  -26.2200  -15.2900   20.4000 N   0  0  0  0  0  0  0  0  0  0  0  0
  -25.5160  -15.9820   20.6290 H   0  0  0  0  0  0  0  0  0  0  0  0
  -27.0620  -15.7040   20.0230 H   0  0  0  0  0  0  0  0  0  0  0  0
  -30.2160  -17.2500   21.9440 C   0  0  0  0  0  0  0  0  0  0  0  0
  -29.1410  -17.7490   22.2820 O   0  0  0  0  0  0  0  0  0  0  0  0
  -31.1520  -17.5000   24.1140 C   0  0  0  0  0  1  0  0  0  0  0  0
  -31.2320  -16.9940   22.7860 O   0  0  0  0  0  0  0  0  0  0  0  0
  -30.5830  -20.9940   19.2230 C   0  0  0  0  0  2  0  0  0  0  0  0
  -31.2950  -21.6180   20.2960 O   0  0  0  0  0  0  0  0  0  0  0  0
  -30.6420  -21.6790   21.5680 C   0  0  0  0  0  2  0  0  0  0  0  0
  -29.3770  -22.5520   21.5890 C   0  0  0  0  0  2  0  0  0  0  0  0
  -29.7360  -23.9210   21.4610 O   0  0  0  0  0  0  0  0  0  0  0  0
  -28.7250  -24.8050   21.9350 C   0  0  0  0  0  2  0  0  0  0  0  0
  -29.1550  -26.2540   21.6730 C   0  0  0  0  0  2  0  0  0  0  0  0
  -28.7600  -26.6490   20.3610 O   0  0  0  0  0  0  0  0  0  0  0  0
  -24.5890  -31.6730   23.1830 C   0  0  0  0  0  0  0  0  0  0  0  0
  -27.5740  -27.3350   20.3160 C   0  0  0  0  0  0  0  0  0  0  0  0
  -23.5330  -30.2150   21.4830 C   0  0  0  0  0  3  0  0  0  0  0  0
  -25.1230  -28.7160   20.1620 C   0  0  0  0  0  0  0  0  0  0  0  0
  -26.0440  -30.6730   21.4270 C   0  0  0  0  0  2  0  0  0  0  0  0
  -26.2170  -29.3000   20.8150 C   0  0  0  0  0  0  0  0  0  0  0  0
  -27.4430  -28.6140   20.8990 C   0  0  0  0  0  3  0  0  0  0  0  0
  -26.4740  -26.7610   19.6510 C   0  0  0  0  0  3  0  0  0  0  0  0
  -25.2440  -27.4420   19.5780 C   0  0  0  0  0  3  0  0  0  0  0  0
  -23.8460  -29.5290   20.1260 C   0  0  0  0  0  2  0  0  0  0  0  0
  -24.7350  -30.8700   22.0910 N   0  0  0  0  0  0  0  0  0  0  0  0
  -23.4700  -31.9090   23.6590 O   0  0  0  0  0  0  0  0  0  0  0  0
  -22.8680  -29.1760   22.4140 C   0  0  0  0  0  0  0  0  0  0  0  0
  -21.5550  -28.9600   22.2260 N   0  0  0  0  0  0  0  0  0  0  0  0
  -23.5320  -28.5710   23.2620 O   0  0  0  0  0  0  0  0  0  0  0  0
  -21.0850  -29.5060   21.5190 H   0  0  0  0  0  0  0  0  0  0  0  0
  -18.1950  -27.7010   22.5820 C   0  0  0  0  0  0  0  0  0  0  0  0
  -20.7320  -28.0020   22.9590 C   0  0  0  0  0  3  0  0  0  0  0  0
  -20.8840  -26.5780   22.3770 C   0  0  0  0  0  2  0  0  0  0  0  0
  -19.8300  -26.2440   21.3180 C   0  0  0  0  0  2  0  0  0  0  0  0
  -18.4210  -26.3610   21.9060 C   0  0  0  0  0  2  0  0  0  0  0  0
  -19.2800  -28.4800   23.0630 C   0  0  0  0  0  0  0  0  0  0  0  0
  -19.0160  -29.7360   23.6490 C   0  0  0  0  0  3  0  0  0  0  0  0
  -17.6980  -30.2150   23.7620 C   0  0  0  0  0  3  0  0  0  0  0  0
  -16.6250  -29.4330   23.3000 C   0  0  0  0  0  3  0  0  0  0  0  0
  -16.8730  -28.1770   22.7160 C   0  0  0  0  0  3  0  0  0  0  0  0
  -25.8160  -32.3530   23.8700 C   0  0  0  0  0  3  0  0  0  0  0  0
  -26.2830  -31.6140   25.1820 C   0  0  1  0  0  0  0  0  0  0  0  0
  -25.1390  -31.3490   26.1890 C   0  0  0  0  0  1  0  0  0  0  0  0
  -26.9320  -30.2550   24.8340 C   0  0  0  0  0  1  0  0  0  0  0  0
  -27.3620  -32.4550   25.9040 C   0  0  0  0  0  1  0  0  0  0  0  0
  -25.4420  -33.7420   24.1620 N   0  0  0  0  0  0  0  0  0  0  0  0
  -25.7780  -34.7960   23.4040 C   0  0  0  0  0  0  0  0  0  0  0  0
  -26.5070  -34.7030   22.4130 O   0  0  0  0  0  0  0  0  0  0  0  0
  -24.7990  -33.8860   24.9250 H   0  0  0  0  0  0  0  0  0  0  0  0
  -24.0020  -36.5100   22.9340 C   0  0  0  0  0  1  0  0  0  0  0  0
  -25.2150  -36.1690   23.8140 C   0  0  0  0  0  3  0  0  0  0  0  0
  -27.2700  -37.1500   24.7360 C   0  0  0  0  0  1  0  0  0  0  0  0
  -26.2120  -37.2610   23.7330 N   0  0  0  0  0  0  0  0  0  0  0  0
  -25.7640  -38.1680   23.8420 H   0  0  0  0  0  0  0  0  0  0  0  0
  1  3  1  0
  3  2  1  0
  4  2  2  0
  5  3  1  0
  6  2  1  0
  6 45  1  0
  7 15  1  0
  8 13  1  0
  9 10  1  0
  9  8  1  0
 11 10  1  0
 11 20  1  0
 11 12  1  0
 13  7  1  0
 13 12  1  0
 14  7  2  0
 15  6  1  0
 15 16  1  0
 17 18  2  0
 18 37  1  0
 19 18  1  0
 19 22  1  0
 20 21  1  0
 20 17  1  0
 21 19  2  0
 22 23  1  0
 23 24  2  0
 25 28  1  0
 25 24  1  0
 26 25  2  0
 27 26  1  0
 27 22  2  0
 28 29  1  0
 29 30  1  0
 30 31  2  0
 32 31  1  0
 32 36  1  0
 33 32  2  0
 34 29  2  0
 34 33  1  0
 35 34  1  0
 37 38  1  0
 38 41  1  0
 38 40  1  0
 39 37  2  0
 42 17  1  0
 42 43  1  0
 44 42  1  0
 45 46  2  0
 45 48  1  0
 48 47  1  0
 49  1  1  0
 49 50  1  0
 50 51  1  0
 51 52  1  0
 53 52  1  0
 53 54  1  0
 55 54  1  0
 56 55  1  0
 57 68  2  0
 58 56  1  0
 58 63  1  0
 59 67  1  0
 59 69  1  0
 60 62  1  0
 61 67  1  0
 62 63  2  0
 62 61  1  0
 64 58  2  0
 65 64  1  0
 65 60  2  0
 66 60  1  0
 66 59  1  0
 67 57  1  0
 69 71  2  0
 70 69  1  0
 72 70  1  0
 73 82  2  0
 73 78  1  0
 74 70  1  0
 74 78  1  0
 75 74  1  0
 76 77  1  0
 76 75  1  0
 77 73  1  0
 78 79  2  0
 79 80  1  0
 81 80  2  0
 82 81  1  0
 83 57  1  0
 83 88  1  0
 83 84  1  0
 84 87  1  1
 84 85  1  0
 86 84  1  0
 88 91  1  0
 89 93  1  0
 89 88  1  0
 90 89  2  0
 93 92  1  0
 95 93  1  0
 95 96  1  0
 95 94  1  0
M  ISO  4   7 100  15 100  55 101  56 101
M  END
>  <TORSDO>  (30) 
F 27

>  <SCORE>  (30) 
-9.094

>  <name>  (30) 
29

>  <ligand_id>  (30) 
29

>  <original_smiles>  (30) 
[H]c1c([H])c([H])c2c(c1[H])C([H])([H])C([H])([H])C([H])([H])C2([H])N([H])C(=O)C1([H])N(C(=O)C([H])(N([H])C(=O)C([H])(N([H])C([H])([H])[H])C([H])([H])[H])C(C([H])([H])[H])(C([H])([H])[H])C([H])([H])[H])C([H])([H])c2c([H])c(OC([H])([H])C([H])([H])OC([H])([H])C([H])([H])OC([H])([H])C([H])([H])N([H])C(=O)C([H])(C(=O)OC([H])([H])[H])N([H])C(=O)N3C([H])([H])C([H])([H])C([H])([H])C([H])(n4nc(-c5c([H])c([H])c(Oc6c([H])c([H])c(F)c([H])c6F)c([H])c5[H])c(C(=O)N([H])[H])c4N([H])[H])C3([H])[H])c([H])c([H])c2C1([H])[H]

>  <smiles>  (30) 
[H]c1c([H])c([H])c2c(c1[H])C([H])([H])C([H])([H])C([H])([H])C2([H])N([H])C(=O)C1([H])N(C(=O)C([H])(N([H])C(=O)C([H])(N([H])C([H])([H])[H])C([H])([H])[H])C(C([H])([H])[H])(C([H])([H])[H])C([H])([H])[H])C([H])([H])c2c([H])c(OC([H])([H])C([H])([H])OC([H])([H])C([H])([H])OC([H])([H])C([H])([H])N([H])C(=O)C([H])(C(=O)OC([H])([H])[H])N([H])C(=O)N3C([H])([H])C([H])([H])C([H])([H])C([H])(n4nc(-c5c([H])c([H])c(Oc6c([H])c([H])c(F)c([H])c6F)c([H])c5[H])c(C(=O)N([H])[H])c4N([H])[H])C3([H])[H])c([H])c([H])c2C1([H])[H]

$$$$
30:0:0
     RDKit          3D

 99106  0  0  1  0  0  0  0  0999 V2000
  -24.7310  -21.8190   19.9780 N   0  0  0  0  0  4  0  0  0  0  0  0
  -24.9270  -21.6720   20.9570 H   0  0  0  0  0  0  0  0  0  0  0  0
  -25.6220  -21.8320   19.5000 H   0  0  0  0  0  0  0  0  0  0  0  0
  -23.9070  -20.6950   19.4660 C   0  0  0  0  0  2  0  0  0  0  0  0
  -24.5590  -19.3150   19.6490 C   0  0  0  0  0  2  0  0  0  0  0  0
  -25.9030  -19.3430   19.1880 O   0  0  0  0  0  0  0  0  0  0  0  0
  -26.4510  -18.0370   19.0000 C   0  0  0  0  0  2  0  0  0  0  0  0
  -27.9760  -18.1500   18.8800 C   0  0  0  0  0  2  0  0  0  0  0  0
  -28.5300  -18.0910   20.1870 O   0  0  0  0  0  0  0  0  0  0  0  0
  -29.9450  -18.1690   20.1960 C   0  0  0  0  0  2  0  0  0  0  0  0
  -30.4650  -17.5080   21.4770 C   0  0  0  0  0  2  0  0  0  0  0  0
  -30.4330  -16.0950   21.3290 O   0  0  0  0  0  0  0  0  0  0  0  0
  -31.0470  -15.3890   22.4090 C   0  0  0  0  0  2  0  0  0  0  0  0
  -32.0660  -14.3660   21.8800 C   0  0  0  0  0  2  0  0  0  0  0  0
  -31.6200  -12.7660   20.0290 C   0  0  0  0  0  0  0  0  0  0  0  0
  -30.6690  -11.4800   18.1540 C   0  0  0  0  0  2  0  0  0  0  0  0
  -29.8000  -12.4090   17.2860 C   0  0  0  0  0  2  0  0  0  0  0  0
  -28.3610  -12.4700   17.8400 C   0  0  0  0  0  2  0  0  0  0  0  0
  -28.3220  -12.7640   19.3650 C   0  0  0  0  0  3  0  0  0  0  0  0
  -29.2870  -11.8260   20.1200 C   0  0  0  0  0  2  0  0  0  0  0  0
  -30.6330  -11.9780   19.5340 N   0  0  0  0  0  0  0  0  0  0  0  0
  -32.6540  -13.0390   19.4130 O   0  0  0  0  0  0  0  0  0  0  0  0
  -31.3760  -13.2460   21.2480 N   0  0  0  0  0  0  0  0  0  0  0  0
  -30.5240  -12.9290   21.6860 H   0  0  0  0  0  0  0  0  0  0  0  0
  -26.0600  -13.6800   20.1810 C   0  0  0  0  0  0  0  0  0  0  0  0
  -24.9140  -13.0560   20.5840 C   0  0  0  0  0  0  0  0  0  0  0  0
  -25.1800  -11.6550   20.5130 C   0  0  0  0  0  0  0  0  0  0  0  0
  -26.9650  -12.6710   19.8920 N   0  0  0  0  0  0  0  0  0  0  0  0
  -26.4370  -11.4450   20.1440 N   0  0  0  0  0  0  0  0  0  0  0  0
  -24.2980  -10.5020   20.7270 C   0  0  0  0  0  0  0  0  0  0  0  0
  -24.5840   -9.5250   21.7050 C   0  0  0  0  0  3  0  0  0  0  0  0
  -23.7140   -8.4310   21.8990 C   0  0  0  0  0  3  0  0  0  0  0  0
  -22.5400   -8.3080   21.1180 C   0  0  0  0  0  0  0  0  0  0  0  0
  -22.2720   -9.2710   20.1290 C   0  0  0  0  0  3  0  0  0  0  0  0
  -23.1420  -10.3560   19.9350 C   0  0  0  0  0  3  0  0  0  0  0  0
  -21.6490   -7.2670   21.2210 O   0  0  0  0  0  0  0  0  0  0  0  0
  -21.3130   -6.7280   22.4360 C   0  0  0  0  0  0  0  0  0  0  0  0
  -20.7960   -7.5160   23.4860 C   0  0  0  0  0  3  0  0  0  0  0  0
  -20.3990   -6.9070   24.6930 C   0  0  0  0  0  3  0  0  0  0  0  0
  -20.5070   -5.5120   24.8510 C   0  0  0  0  0  0  0  0  0  0  0  0
  -21.0190   -4.7260   23.8030 C   0  0  0  0  0  3  0  0  0  0  0  0
  -21.4200   -5.3310   22.5990 C   0  0  0  0  0  0  0  0  0  0  0  0
  -21.8900   -4.5660   21.5860 F   0  0  0  0  0  0  0  0  0  0  0  0
  -20.1180   -4.9250   26.0070 F   0  0  0  0  0  0  0  0  0  0  0  0
  -23.6090  -13.7160   20.9290 C   0  0  0  0  0  0  0  0  0  0  0  0
  -22.8690  -13.1480   21.8750 N   0  0  0  0  0  0  0  0  0  0  0  0
  -23.2660  -14.7680   20.3890 O   0  0  0  0  0  0  0  0  0  0  0  0
  -23.1610  -12.2960   22.3320 H   0  0  0  0  0  0  0  0  0  0  0  0
  -21.9940  -13.5730   22.1500 H   0  0  0  0  0  0  0  0  0  0  0  0
  -26.4070  -15.0170   20.0240 N   0  0  0  0  0  0  0  0  0  0  0  0
  -25.7390  -15.7530   20.2040 H   0  0  0  0  0  0  0  0  0  0  0  0
  -27.3020  -15.3650   19.7000 H   0  0  0  0  0  0  0  0  0  0  0  0
  -24.0740  -23.1380   19.8100 C   0  0  0  0  0  2  0  0  0  0  0  0
  -24.8850  -24.2980   20.4010 C   0  0  0  0  0  2  0  0  0  0  0  0
  -26.2540  -24.1830   20.0300 O   0  0  0  0  0  0  0  0  0  0  0  0
  -27.0760  -25.1120   20.7330 C   0  0  0  0  0  2  0  0  0  0  0  0
  -28.5190  -25.0200   20.2140 C   0  0  0  0  0  2  0  0  0  0  0  0
  -29.3520  -26.3040   20.4350 C   0  0  0  0  0  2  0  0  0  0  0  0
  -29.0510  -27.3430   19.5040 O   0  0  0  0  0  0  0  0  0  0  0  0
  -24.5530  -31.4050   23.2400 C   0  0  0  0  0  0  0  0  0  0  0  0
  -27.7980  -27.8870   19.6160 C   0  0  0  0  0  0  0  0  0  0  0  0
  -23.5620  -30.1290   21.3670 C   0  0  0  0  0  3  0  0  0  0  0  0
  -25.2240  -29.0260   19.7780 C   0  0  0  0  0  0  0  0  0  0  0  0
  -26.0170  -30.8420   21.3030 C   0  0  0  0  0  2  0  0  0  0  0  0
  -26.2910  -29.6040   20.4770 C   0  0  0  0  0  0  0  0  0  0  0  0
  -27.5820  -29.0410   20.3990 C   0  0  0  0  0  3  0  0  0  0  0  0
  -26.7170  -27.3230   18.9050 C   0  0  0  0  0  3  0  0  0  0  0  0
  -25.4290  -27.8790   18.9940 C   0  0  0  0  0  3  0  0  0  0  0  0
  -23.8770  -29.7010   19.9070 C   0  0  0  0  0  2  0  0  0  0  0  0
  -24.7280  -30.7980   22.0310 N   0  0  0  0  0  0  0  0  0  0  0  0
  -23.4400  -31.4500   23.7810 O   0  0  0  0  0  0  0  0  0  0  0  0
  -23.0440  -28.8950   22.1380 C   0  0  0  0  0  0  0  0  0  0  0  0
  -21.8420  -28.4250   21.7700 N   0  0  0  0  0  0  0  0  0  0  0  0
  -23.7280  -28.3640   23.0180 O   0  0  0  0  0  0  0  0  0  0  0  0
  -21.3450  -28.9180   21.0410 H   0  0  0  0  0  0  0  0  0  0  0  0
  -18.8960  -26.3530   21.4880 C   0  0  0  0  0  0  0  0  0  0  0  0
  -21.1680  -27.2550   22.3320 C   0  0  0  0  0  3  0  0  0  0  0  0
  -21.7770  -25.9440   21.7820 C   0  0  0  0  0  2  0  0  0  0  0  0
  -21.0480  -25.4140   20.5430 C   0  0  0  0  0  2  0  0  0  0  0  0
  -19.5730  -25.1470   20.8600 C   0  0  0  0  0  2  0  0  0  0  0  0
  -19.6460  -27.3500   22.1660 C   0  0  0  0  0  0  0  0  0  0  0  0
  -18.9710  -28.4710   22.6990 C   0  0  0  0  0  3  0  0  0  0  0  0
  -17.5760  -28.5990   22.5720 C   0  0  0  0  0  3  0  0  0  0  0  0
  -16.8370  -27.5990   21.9160 C   0  0  0  0  0  3  0  0  0  0  0  0
  -17.4950  -26.4780   21.3790 C   0  0  0  0  0  3  0  0  0  0  0  0
  -25.7370  -32.0930   23.9870 C   0  0  0  0  0  3  0  0  0  0  0  0
  -25.3430  -33.4810   24.2620 N   0  0  0  0  0  0  0  0  0  0  0  0
  -25.7320  -34.5390   23.5360 C   0  0  0  0  0  0  0  0  0  0  0  0
  -26.5340  -34.4540   22.6030 O   0  0  0  0  0  0  0  0  0  0  0  0
  -24.6420  -33.6220   24.9740 H   0  0  0  0  0  0  0  0  0  0  0  0
  -24.0090  -36.2650   22.9290 C   0  0  0  0  0  1  0  0  0  0  0  0
  -25.1400  -35.9120   23.9080 C   0  0  0  0  0  3  0  0  0  0  0  0
  -27.1030  -36.8740   25.0220 C   0  0  0  0  0  1  0  0  0  0  0  0
  -26.1410  -36.9990   23.9300 N   0  0  0  0  0  0  0  0  0  0  0  0
  -25.6880  -37.9050   24.0080 H   0  0  0  0  0  0  0  0  0  0  0  0
  -26.1420  -31.3540   25.3210 C   0  0  1  0  0  0  0  0  0  0  0  0
  -24.9430  -31.0320   26.2420 C   0  0  0  0  0  1  0  0  0  0  0  0
  -26.8650  -30.0230   25.0080 C   0  0  0  0  0  1  0  0  0  0  0  0
  -27.1430  -32.2220   26.1200 C   0  0  0  0  0  1  0  0  0  0  0  0
  1  2  1  0
  3  1  1  0
  4  5  1  0
  4  1  1  0
  6  5  1  0
  7  6  1  0
  8  7  1  0
  8  9  1  0
  9 10  1  0
 10 11  1  0
 12 11  1  0
 12 13  1  0
 14 13  1  0
 15 23  1  0
 16 21  1  0
 17 18  1  0
 17 16  1  0
 19 18  1  0
 19 28  1  0
 19 20  1  0
 21 15  1  0
 21 20  1  0
 22 15  2  0
 23 24  1  0
 23 14  1  0
 25 26  2  0
 26 45  1  0
 27 26  1  0
 27 30  1  0
 28 29  1  0
 28 25  1  0
 29 27  2  0
 30 31  1  0
 31 32  2  0
 33 36  1  0
 33 32  1  0
 34 33  2  0
 35 34  1  0
 35 30  2  0
 36 37  1  0
 37 42  2  0
 37 38  1  0
 38 39  2  0
 39 40  1  0
 40 44  1  0
 41 40  2  0
 42 41  1  0
 43 42  1  0
 45 46  1  0
 46 49  1  0
 46 48  1  0
 47 45  2  0
 50 25  1  0
 50 51  1  0
 52 50  1  0
 53  1  1  0
 53 54  1  0
 55 54  1  0
 55 56  1  0
 57 58  1  0
 57 56  1  0
 59 61  1  0
 59 58  1  0
 60 71  2  0
 61 66  1  0
 62 70  1  0
 62 72  1  0
 63 69  1  0
 63 65  1  0
 64 70  1  0
 65 64  1  0
 66 65  2  0
 67 68  1  0
 67 61  2  0
 68 63  2  0
 69 62  1  0
 70 60  1  0
 72 74  2  0
 73 72  1  0
 75 73  1  0
 76 81  1  0
 77 73  1  0
 78 77  1  0
 79 80  1  0
 79 78  1  0
 80 76  1  0
 81 77  1  0
 81 82  2  0
 83 82  1  0
 84 83  2  0
 85 76  2  0
 85 84  1  0
 86 60  1  0
 86 87  1  0
 86 96  1  0
 87 90  1  0
 88 92  1  0
 88 87  1  0
 89 88  2  0
 92 91  1  0
 92 94  1  0
 94 95  1  0
 94 93  1  0
 96 99  1  1
 96 97  1  0
 98 96  1  0
M  ISO  4  15 100  23 100  58 101  59 101
M  END
>  <TORSDO>  (31) 
F 33

>  <SCORE>  (31) 
-2.939

>  <name>  (31) 
30

>  <ligand_id>  (31) 
30

>  <original_smiles>  (31) 
[H]c1c([H])c([H])c2c(c1[H])C([H])([H])C([H])([H])C([H])([H])C2([H])N([H])C(=O)C1([H])N(C(=O)C([H])(N([H])C(=O)C([H])(N([H])C([H])([H])[H])C([H])([H])[H])C(C([H])([H])[H])(C([H])([H])[H])C([H])([H])[H])C([H])([H])c2c([H])c(OC([H])([H])C([H])([H])C([H])([H])OC([H])([H])C([H])([H])[N+]([H])([H])C([H])([H])C([H])([H])OC([H])([H])C([H])([H])OC([H])([H])C([H])([H])OC([H])([H])C([H])([H])N([H])C(=O)N3C([H])([H])C([H])([H])C([H])([H])C([H])(n4nc(-c5c([H])c([H])c(Oc6c([H])c([H])c(F)c([H])c6F)c([H])c5[H])c(C(=O)N([H])[H])c4N([H])[H])C3([H])[H])c([H])c([H])c2C1([H])[H]

>  <smiles>  (31) 
[H]c1c([H])c([H])c2c(c1[H])C([H])([H])C([H])([H])C([H])([H])C2([H])N([H])C(=O)C1([H])N(C(=O)C([H])(N([H])C(=O)C([H])(N([H])C([H])([H])[H])C([H])([H])[H])C(C([H])([H])[H])(C([H])([H])[H])C([H])([H])[H])C([H])([H])c2c([H])c(OC([H])([H])C([H])([H])C([H])([H])OC([H])([H])C([H])([H])[N+]([H])([H])C([H])([H])C([H])([H])OC([H])([H])C([H])([H])OC([H])([H])C([H])([H])OC([H])([H])C([H])([H])N([H])C(=O)N3C([H])([H])C([H])([H])C([H])([H])C([H])(n4nc(-c5c([H])c([H])c(Oc6c([H])c([H])c(F)c([H])c6F)c([H])c5[H])c(C(=O)N([H])[H])c4N([H])[H])C3([H])[H])c([H])c([H])c2C1([H])[H]

$$$$
31:0:0
     RDKit          3D

 98105  0  0  1  0  0  0  0  0999 V2000
  -29.2030  -25.0680   15.3570 C   0  0  0  0  0  0  0  0  0  0  0  0
  -28.8910  -24.4320   16.4940 N   0  0  0  0  0  0  0  0  0  0  0  0
  -28.9540  -24.6090   14.2410 O   0  0  0  0  0  0  0  0  0  0  0  0
  -29.1920  -24.8900   17.3460 H   0  0  0  0  0  0  0  0  0  0  0  0
  -28.0670  -23.2320   16.6030 C   0  0  0  0  0  2  0  0  0  0  0  0
  -28.8840  -21.9780   16.9580 C   0  0  0  0  0  2  0  0  0  0  0  0
  -28.6610  -21.5960   18.3170 O   0  0  0  0  0  0  0  0  0  0  0  0
  -28.9880  -20.2280   18.5400 C   0  0  0  0  0  2  0  0  0  0  0  0
  -28.5570  -19.3570   19.7440 C   0  0  0  0  0  2  0  0  0  0  0  0
  -29.6990  -18.7490   20.3490 O   0  0  0  0  0  0  0  0  0  0  0  0
  -29.3890  -17.5440   21.0320 C   0  0  0  0  0  2  0  0  0  0  0  0
  -30.6870  -16.8350   21.4630 C   0  0  0  0  0  2  0  0  0  0  0  0
  -31.1080  -14.5010   20.7190 C   0  0  0  0  0  0  0  0  0  0  0  0
  -30.7240  -12.5390   19.2910 C   0  0  0  0  0  2  0  0  0  0  0  0
  -29.8130  -12.9520   18.1160 C   0  0  0  0  0  2  0  0  0  0  0  0
  -28.3230  -12.8580   18.5050 C   0  0  0  0  0  2  0  0  0  0  0  0
  -28.0110  -13.5400   19.8630 C   0  0  0  0  0  3  0  0  0  0  0  0
  -29.0270  -13.1010   20.9430 C   0  0  0  0  0  2  0  0  0  0  0  0
  -30.3860  -13.3850   20.4440 N   0  0  0  0  0  0  0  0  0  0  0  0
  -32.2000  -14.7560   20.2030 O   0  0  0  0  0  0  0  0  0  0  0  0
  -30.4730  -15.3870   21.4910 N   0  0  0  0  0  0  0  0  0  0  0  0
  -29.6110  -15.0650   21.9050 H   0  0  0  0  0  0  0  0  0  0  0  0
  -25.5940  -14.1890   20.4790 C   0  0  0  0  0  0  0  0  0  0  0  0
  -24.5030  -13.4340   20.8170 C   0  0  0  0  0  0  0  0  0  0  0  0
  -24.9440  -12.0760   20.8020 C   0  0  0  0  0  0  0  0  0  0  0  0
  -26.6340  -13.2920   20.2870 N   0  0  0  0  0  0  0  0  0  0  0  0
  -26.2430  -12.0150   20.5360 N   0  0  0  0  0  0  0  0  0  0  0  0
  -24.1930  -10.8240   20.9690 C   0  0  0  0  0  0  0  0  0  0  0  0
  -24.5700   -9.8560   21.9240 C   0  0  0  0  0  3  0  0  0  0  0  0
  -23.8220   -8.6690   22.0770 C   0  0  0  0  0  3  0  0  0  0  0  0
  -22.6780   -8.4440   21.2730 C   0  0  0  0  0  0  0  0  0  0  0  0
  -22.3190   -9.4010   20.3060 C   0  0  0  0  0  3  0  0  0  0  0  0
  -23.0700  -10.5790   20.1520 C   0  0  0  0  0  3  0  0  0  0  0  0
  -21.9070   -7.3080   21.3340 O   0  0  0  0  0  0  0  0  0  0  0  0
  -21.7810   -6.5830   22.4930 C   0  0  0  0  0  0  0  0  0  0  0  0
  -21.2760   -7.1570   23.6790 C   0  0  0  0  0  3  0  0  0  0  0  0
  -21.0960   -6.3590   24.8280 C   0  0  0  0  0  3  0  0  0  0  0  0
  -21.4130   -4.9890   24.7880 C   0  0  0  0  0  0  0  0  0  0  0  0
  -21.9130   -4.4140   23.6070 C   0  0  0  0  0  3  0  0  0  0  0  0
  -22.0920   -5.2080   22.4620 C   0  0  0  0  0  0  0  0  0  0  0  0
  -22.5530   -4.6440   21.3190 F   0  0  0  0  0  0  0  0  0  0  0  0
  -21.2340   -4.2200   25.8880 F   0  0  0  0  0  0  0  0  0  0  0  0
  -23.1040  -13.9320   21.0420 C   0  0  0  0  0  0  0  0  0  0  0  0
  -22.3380  -13.2510   21.8870 N   0  0  0  0  0  0  0  0  0  0  0  0
  -22.6970  -14.9610   20.5050 O   0  0  0  0  0  0  0  0  0  0  0  0
  -22.6750  -12.4190   22.3480 H   0  0  0  0  0  0  0  0  0  0  0  0
  -21.3980  -13.5720   22.0800 H   0  0  0  0  0  0  0  0  0  0  0  0
  -25.7840  -15.5570   20.3060 N   0  0  0  0  0  0  0  0  0  0  0  0
  -25.0200  -16.2220   20.3840 H   0  0  0  0  0  0  0  0  0  0  0  0
  -26.6390  -15.9790   19.9680 H   0  0  0  0  0  0  0  0  0  0  0  0
  -29.8410  -26.4550   15.5010 C   0  0  0  0  0  2  0  0  0  0  0  0
  -30.2490  -26.6890   16.8480 O   0  0  0  0  0  0  0  0  0  0  0  0
  -31.5800  -26.2720   17.1250 C   0  0  0  0  0  2  0  0  0  0  0  0
  -31.7560  -26.2390   18.6450 C   0  0  0  0  0  2  0  0  0  0  0  0
  -31.1490  -25.0490   19.1330 O   0  0  0  0  0  0  0  0  0  0  0  0
  -30.4350  -25.2030   20.3530 C   0  0  0  0  0  2  0  0  0  0  0  0
  -29.0230  -25.7500   20.0870 C   0  0  0  0  0  2  0  0  0  0  0  0
  -29.0110  -27.1750   20.1520 O   0  0  0  0  0  0  0  0  0  0  0  0
  -24.7830  -31.8950   23.3360 C   0  0  0  0  0  0  0  0  0  0  0  0
  -27.7790  -27.7900   20.1330 C   0  0  0  0  0  0  0  0  0  0  0  0
  -23.7040  -30.4980   21.6040 C   0  0  0  0  0  3  0  0  0  0  0  0
  -25.2830  -29.1180   20.1550 C   0  0  0  0  0  0  0  0  0  0  0  0
  -26.2020  -31.0290   21.4800 C   0  0  0  0  0  2  0  0  0  0  0  0
  -26.3900  -29.6970   20.7870 C   0  0  0  0  0  0  0  0  0  0  0  0
  -27.6400  -29.0430   20.7680 C   0  0  0  0  0  3  0  0  0  0  0  0
  -26.6510  -27.2180   19.4980 C   0  0  0  0  0  3  0  0  0  0  0  0
  -25.4080  -27.8760   19.5080 C   0  0  0  0  0  3  0  0  0  0  0  0
  -23.9850  -29.8920   20.2040 C   0  0  0  0  0  2  0  0  0  0  0  0
  -24.9120  -31.1530   22.2000 N   0  0  0  0  0  0  0  0  0  0  0  0
  -23.6750  -32.0750   23.8610 O   0  0  0  0  0  0  0  0  0  0  0  0
  -23.0980  -29.3960   22.5030 C   0  0  0  0  0  0  0  0  0  0  0  0
  -21.7960  -29.1250   22.3170 N   0  0  0  0  0  0  0  0  0  0  0  0
  -23.7960  -28.7900   23.3180 O   0  0  0  0  0  0  0  0  0  0  0  0
  -21.2910  -29.6710   21.6330 H   0  0  0  0  0  0  0  0  0  0  0  0
  -18.5090  -27.6590   22.6210 C   0  0  0  0  0  0  0  0  0  0  0  0
  -21.0230  -28.1010   23.0200 C   0  0  0  0  0  3  0  0  0  0  0  0
  -21.2640  -26.7040   22.4020 C   0  0  0  0  0  2  0  0  0  0  0  0
  -20.2350  -26.3320   21.3290 C   0  0  0  0  0  2  0  0  0  0  0  0
  -18.8200  -26.3500   21.9150 C   0  0  0  0  0  2  0  0  0  0  0  0
  -19.5440  -28.4880   23.1280 C   0  0  0  0  0  0  0  0  0  0  0  0
  -19.2030  -29.7110   23.7440 C   0  0  0  0  0  3  0  0  0  0  0  0
  -17.8580  -30.1070   23.8610 C   0  0  0  0  0  3  0  0  0  0  0  0
  -16.8350  -29.2730   23.3740 C   0  0  0  0  0  3  0  0  0  0  0  0
  -17.1620  -28.0510   22.7600 C   0  0  0  0  0  3  0  0  0  0  0  0
  -26.0130  -32.5720   24.0160 C   0  0  0  0  0  3  0  0  0  0  0  0
  -26.5200  -31.8000   25.2950 C   0  0  1  0  0  0  0  0  0  0  0  0
  -25.4020  -31.4870   26.3170 C   0  0  0  0  0  1  0  0  0  0  0  0
  -27.1830  -30.4620   24.8950 C   0  0  0  0  0  1  0  0  0  0  0  0
  -27.6070  -32.6340   26.0140 C   0  0  0  0  0  1  0  0  0  0  0  0
  -25.6260  -33.9470   24.3590 N   0  0  0  0  0  0  0  0  0  0  0  0
  -25.9470  -35.0280   23.6360 C   0  0  0  0  0  0  0  0  0  0  0  0
  -26.6740  -34.9770   22.6400 O   0  0  0  0  0  0  0  0  0  0  0  0
  -24.9850  -34.0590   25.1290 H   0  0  0  0  0  0  0  0  0  0  0  0
  -24.1700  -36.7540   23.2130 C   0  0  0  0  0  1  0  0  0  0  0  0
  -25.3740  -36.3830   24.0930 C   0  0  0  0  0  3  0  0  0  0  0  0
  -27.4130  -37.3360   25.0770 C   0  0  0  0  0  1  0  0  0  0  0  0
  -26.3670  -37.4800   24.0680 N   0  0  0  0  0  0  0  0  0  0  0  0
  -25.9130  -38.3810   24.2050 H   0  0  0  0  0  0  0  0  0  0  0  0
  1 51  1  0
  1  2  1  0
  2  5  1  0
  2  4  1  0
  3  1  2  0
  5  6  1  0
  6  7  1  0
  7  8  1  0
  8  9  1  0
  9 10  1  0
 10 11  1  0
 11 12  1  0
 12 21  1  0
 13 21  1  0
 14 19  1  0
 15 16  1  0
 15 14  1  0
 17 16  1  0
 17 26  1  0
 17 18  1  0
 19 13  1  0
 19 18  1  0
 20 13  2  0
 21 22  1  0
 23 24  2  0
 24 43  1  0
 25 24  1  0
 25 28  1  0
 26 23  1  0
 26 27  1  0
 27 25  2  0
 28 29  1  0
 29 30  2  0
 31 34  1  0
 31 30  1  0
 32 31  2  0
 33 32  1  0
 33 28  2  0
 34 35  1  0
 35 36  1  0
 36 37  2  0
 38 37  1  0
 38 42  1  0
 39 38  2  0
 40 35  2  0
 40 39  1  0
 41 40  1  0
 43 44  1  0
 44 47  1  0
 44 46  1  0
 45 43  2  0
 48 49  1  0
 48 23  1  0
 50 48  1  0
 51 52  1  0
 52 53  1  0
 53 54  1  0
 54 55  1  0
 55 56  1  0
 57 58  1  0
 57 56  1  0
 59 70  2  0
 60 58  1  0
 60 65  1  0
 61 69  1  0
 61 71  1  0
 62 68  1  0
 62 64  1  0
 63 69  1  0
 64 63  1  0
 65 64  2  0
 66 67  1  0
 66 60  2  0
 67 62  2  0
 68 61  1  0
 69 59  1  0
 71 73  2  0
 72 71  1  0
 74 72  1  0
 75 84  2  0
 75 80  1  0
 76 72  1  0
 76 80  1  0
 77 76  1  0
 78 79  1  0
 78 77  1  0
 79 75  1  0
 80 81  2  0
 81 82  1  0
 83 82  2  0
 84 83  1  0
 85 59  1  0
 85 90  1  0
 85 86  1  0
 86 89  1  1
 86 87  1  0
 88 86  1  0
 90 93  1  0
 91 95  1  0
 91 90  1  0
 92 91  2  0
 95 94  1  0
 97 95  1  0
 97 98  1  0
 97 96  1  0
M  ISO  4  13 100  21 100  57 101  58 101
M  END
>  <TORSDO>  (32) 
F 31

>  <SCORE>  (32) 
-9.657

>  <name>  (32) 
31

>  <ligand_id>  (32) 
31

>  <original_smiles>  (32) 
[H]c1c([H])c([H])c2c(c1[H])C([H])([H])C([H])([H])C([H])([H])C2([H])N([H])C(=O)C1([H])N(C(=O)C([H])(N([H])C(=O)C([H])(N([H])C([H])([H])[H])C([H])([H])[H])C(C([H])([H])[H])(C([H])([H])[H])C([H])([H])[H])C([H])([H])c2c([H])c(OC([H])([H])C([H])([H])OC([H])([H])C([H])([H])OC([H])([H])C(=O)N([H])C([H])([H])C([H])([H])OC([H])([H])C([H])([H])OC([H])([H])C([H])([H])N([H])C(=O)N3C([H])([H])C([H])([H])C([H])([H])C([H])(n4nc(-c5c([H])c([H])c(Oc6c([H])c([H])c(F)c([H])c6F)c([H])c5[H])c(C(=O)N([H])[H])c4N([H])[H])C3([H])[H])c([H])c([H])c2C1([H])[H]

>  <smiles>  (32) 
[H]c1c([H])c([H])c2c(c1[H])C([H])([H])C([H])([H])C([H])([H])C2([H])N([H])C(=O)C1([H])N(C(=O)C([H])(N([H])C(=O)C([H])(N([H])C([H])([H])[H])C([H])([H])[H])C(C([H])([H])[H])(C([H])([H])[H])C([H])([H])[H])C([H])([H])c2c([H])c(OC([H])([H])C([H])([H])OC([H])([H])C([H])([H])OC([H])([H])C(=O)N([H])C([H])([H])C([H])([H])OC([H])([H])C([H])([H])OC([H])([H])C([H])([H])N([H])C(=O)N3C([H])([H])C([H])([H])C([H])([H])C([H])(n4nc(-c5c([H])c([H])c(Oc6c([H])c([H])c(F)c([H])c6F)c([H])c5[H])c(C(=O)N([H])[H])c4N([H])[H])C3([H])[H])c([H])c([H])c2C1([H])[H]

$$$$
32:0:0
     RDKit          3D

101108  0  0  1  0  0  0  0  0999 V2000
  -28.2780  -22.0560   20.3780 C   0  0  0  0  0  3  0  0  0  0  0  0
  -29.6470  -19.9400   20.4320 C   0  0  0  0  0  0  0  0  0  0  0  0
  -28.6890  -20.7450   20.9150 N   0  0  0  0  0  0  0  0  0  0  0  0
  -30.5690  -20.3560   19.7280 O   0  0  0  0  0  0  0  0  0  0  0  0
  -27.9820  -20.2870   21.4740 H   0  0  0  0  0  0  0  0  0  0  0  0
  -29.4780  -18.4290   20.7160 C   0  0  0  0  0  2  0  0  0  0  0  0
  -30.7620  -17.5520   20.6800 C   0  0  0  0  0  2  0  0  0  0  0  0
  -31.2190  -15.0910   20.5070 C   0  0  0  0  0  0  0  0  0  0  0  0
  -30.9670  -12.8680   19.4770 C   0  0  0  0  0  2  0  0  0  0  0  0
  -30.1000  -13.0180   18.2100 C   0  0  0  0  0  2  0  0  0  0  0  0
  -28.5980  -12.9370   18.5560 C   0  0  0  0  0  2  0  0  0  0  0  0
  -28.2060  -13.8530   19.7460 C   0  0  0  0  0  3  0  0  0  0  0  0
  -29.1870  -13.6630   20.9270 C   0  0  0  0  0  2  0  0  0  0  0  0
  -30.5510  -13.9100   20.4280 N   0  0  0  0  0  0  0  0  0  0  0  0
  -32.3620  -15.2570   20.0710 O   0  0  0  0  0  0  0  0  0  0  0  0
  -30.4740  -16.1300   20.9300 N   0  0  0  0  0  0  0  0  0  0  0  0
  -29.5550  -15.8960   21.2720 H   0  0  0  0  0  0  0  0  0  0  0  0
  -25.8060  -14.5690   20.3470 C   0  0  0  0  0  0  0  0  0  0  0  0
  -24.6850  -13.8450   20.6530 C   0  0  0  0  0  0  0  0  0  0  0  0
  -25.0810  -12.4720   20.6220 C   0  0  0  0  0  0  0  0  0  0  0  0
  -26.8190  -13.6410   20.1520 N   0  0  0  0  0  0  0  0  0  0  0  0
  -26.3810  -12.3750   20.3730 N   0  0  0  0  0  0  0  0  0  0  0  0
  -24.2880  -11.2450   20.7580 C   0  0  0  0  0  0  0  0  0  0  0  0
  -24.6710  -10.2140   21.6440 C   0  0  0  0  0  3  0  0  0  0  0  0
  -23.8840   -9.0480   21.7700 C   0  0  0  0  0  3  0  0  0  0  0  0
  -22.6990   -8.9080   21.0100 C   0  0  0  0  0  0  0  0  0  0  0  0
  -22.3330   -9.9280   20.1140 C   0  0  0  0  0  3  0  0  0  0  0  0
  -23.1200  -11.0850   19.9860 C   0  0  0  0  0  3  0  0  0  0  0  0
  -21.8850   -7.8020   21.0500 O   0  0  0  0  0  0  0  0  0  0  0  0
  -21.8380   -6.9810   22.1490 C   0  0  0  0  0  0  0  0  0  0  0  0
  -21.5270   -7.4740   23.4360 C   0  0  0  0  0  3  0  0  0  0  0  0
  -21.4210   -6.5860   24.5240 C   0  0  0  0  0  3  0  0  0  0  0  0
  -21.6150   -5.2050   24.3260 C   0  0  0  0  0  0  0  0  0  0  0  0
  -21.9190   -4.7110   23.0450 C   0  0  0  0  0  3  0  0  0  0  0  0
  -22.0270   -5.5970   21.9600 C   0  0  0  0  0  0  0  0  0  0  0  0
  -22.3000   -5.1150   20.7230 F   0  0  0  0  0  0  0  0  0  0  0  0
  -21.5050   -4.3500   25.3690 F   0  0  0  0  0  0  0  0  0  0  0  0
  -23.3000  -14.3860   20.8680 C   0  0  0  0  0  0  0  0  0  0  0  0
  -22.5080  -13.7320   21.7110 N   0  0  0  0  0  0  0  0  0  0  0  0
  -22.9290  -15.4250   20.3250 O   0  0  0  0  0  0  0  0  0  0  0  0
  -22.8170  -12.8890   22.1740 H   0  0  0  0  0  0  0  0  0  0  0  0
  -21.5780  -14.0790   21.8950 H   0  0  0  0  0  0  0  0  0  0  0  0
  -26.0460  -15.9320   20.2000 N   0  0  0  0  0  0  0  0  0  0  0  0
  -25.3100  -16.6230   20.2940 H   0  0  0  0  0  0  0  0  0  0  0  0
  -26.9270  -16.3330   19.9040 H   0  0  0  0  0  0  0  0  0  0  0  0
  -26.7210  -22.0560   20.2950 C   0  0  0  0  0  3  0  0  0  0  0  0
  -26.2710  -21.1010   19.3420 O   0  0  0  0  0  0  0  0  0  0  0  0
  -25.3230  -21.1980   19.3010 H   0  0  0  0  0  0  0  0  0  0  0  0
  -26.0750  -23.3930   19.8700 C   0  0  0  0  0  2  0  0  0  0  0  0
  -24.6660  -23.2040   19.9570 O   0  0  0  0  0  0  0  0  0  0  0  0
  -23.9060  -24.2460   19.3580 C   0  0  0  0  0  2  0  0  0  0  0  0
  -22.4610  -23.7420   19.2070 C   0  0  0  0  0  2  0  0  0  0  0  0
  -21.6580  -24.5570   18.2700 N   0  0  0  0  0  4  0  0  0  0  0  0
  -20.7420  -24.1570   18.1680 H   0  0  0  0  0  0  0  0  0  0  0  0
  -22.0790  -24.5860   17.3570 H   0  0  0  0  0  0  0  0  0  0  0  0
  -21.5490  -25.4990   18.6040 H   0  0  0  0  0  0  0  0  0  0  0  0
  -28.8000  -23.2150   21.2740 C   0  0  0  0  0  2  0  0  0  0  0  0
  -29.9550  -23.8640   20.7350 O   0  0  0  0  0  0  0  0  0  0  0  0
  -29.7220  -25.1530   20.1460 C   0  0  0  0  0  2  0  0  0  0  0  0
  -29.5270  -26.2900   21.1860 C   0  0  0  0  0  2  0  0  0  0  0  0
  -29.4790  -27.6090   20.6230 O   0  0  0  0  0  0  0  0  0  0  0  0
  -24.7610  -32.1560   23.4140 C   0  0  0  0  0  0  0  0  0  0  0  0
  -28.2300  -28.1800   20.5370 C   0  0  0  0  0  0  0  0  0  0  0  0
  -23.9100  -30.6780   21.6210 C   0  0  0  0  0  3  0  0  0  0  0  0
  -25.6810  -29.3770   20.3260 C   0  0  0  0  0  0  0  0  0  0  0  0
  -26.3770  -31.3490   21.6970 C   0  0  0  0  0  2  0  0  0  0  0  0
  -26.6970  -30.0210   21.0420 C   0  0  0  0  0  0  0  0  0  0  0  0
  -27.9780  -29.4310   21.1440 C   0  0  0  0  0  3  0  0  0  0  0  0
  -27.2000  -27.5480   19.8110 C   0  0  0  0  0  3  0  0  0  0  0  0
  -25.9270  -28.1380   19.7060 C   0  0  0  0  0  3  0  0  0  0  0  0
  -24.3410  -30.0760   20.2580 C   0  0  0  0  0  2  0  0  0  0  0  0
  -25.0260  -31.4090   22.3050 N   0  0  0  0  0  0  0  0  0  0  0  0
  -23.6060  -32.2760   23.8450 O   0  0  0  0  0  0  0  0  0  0  0  0
  -23.2970  -29.5520   22.4850 C   0  0  0  0  0  0  0  0  0  0  0  0
  -22.0090  -29.2520   22.2490 N   0  0  0  0  0  0  0  0  0  0  0  0
  -23.9790  -28.9540   23.3210 O   0  0  0  0  0  0  0  0  0  0  0  0
  -21.5160  -29.7980   21.5560 H   0  0  0  0  0  0  0  0  0  0  0  0
  -18.7190  -27.7830   22.4980 C   0  0  0  0  0  0  0  0  0  0  0  0
  -21.2350  -28.2040   22.9140 C   0  0  0  0  0  3  0  0  0  0  0  0
  -21.4710  -26.8300   22.2470 C   0  0  0  0  0  2  0  0  0  0  0  0
  -20.4440  -26.5030   21.1590 C   0  0  0  0  0  2  0  0  0  0  0  0
  -19.0250  -26.5040   21.7370 C   0  0  0  0  0  2  0  0  0  0  0  0
  -19.7570  -28.5890   23.0340 C   0  0  0  0  0  0  0  0  0  0  0  0
  -19.4190  -29.7890   23.6980 C   0  0  0  0  0  3  0  0  0  0  0  0
  -18.0740  -30.1820   23.8340 C   0  0  0  0  0  3  0  0  0  0  0  0
  -17.0500  -29.3700   23.3180 C   0  0  0  0  0  3  0  0  0  0  0  0
  -17.3730  -28.1730   22.6550 C   0  0  0  0  0  3  0  0  0  0  0  0
  -25.8910  -32.9130   24.1800 C   0  0  0  0  0  3  0  0  0  0  0  0
  -25.4610  -34.3100   24.3350 N   0  0  0  0  0  0  0  0  0  0  0  0
  -25.8530  -35.3170   23.5430 C   0  0  0  0  0  0  0  0  0  0  0  0
  -26.6830  -35.1750   22.6390 O   0  0  0  0  0  0  0  0  0  0  0  0
  -24.7430  -34.4890   25.0200 H   0  0  0  0  0  0  0  0  0  0  0  0
  -24.0940  -36.9450   22.7860 C   0  0  0  0  0  1  0  0  0  0  0  0
  -25.2270  -36.7020   23.7950 C   0  0  0  0  0  3  0  0  0  0  0  0
  -27.1780  -37.7940   24.8100 C   0  0  0  0  0  1  0  0  0  0  0  0
  -26.2040  -37.8100   23.7220 N   0  0  0  0  0  0  0  0  0  0  0  0
  -25.7290  -38.7080   23.7370 H   0  0  0  0  0  0  0  0  0  0  0  0
  -26.2290  -32.2740   25.5840 C   0  0  1  0  0  0  0  0  0  0  0  0
  -24.9840  -32.0180   26.4640 C   0  0  0  0  0  1  0  0  0  0  0  0
  -26.9670  -30.9260   25.4040 C   0  0  0  0  0  1  0  0  0  0  0  0
  -27.1850  -33.2040   26.3670 C   0  0  0  0  0  1  0  0  0  0  0  0
  1  3  1  0
  1 57  1  0
  2  6  1  0
  2  3  1  0
  3  5  1  0
  4  2  2  0
  7  6  1  0
  7 16  1  0
  8 16  1  0
  9 14  1  0
 10 11  1  0
 10  9  1  0
 12 11  1  0
 12 21  1  0
 12 13  1  0
 14  8  1  0
 14 13  1  0
 15  8  2  0
 16 17  1  0
 18 19  2  0
 19 38  1  0
 20 19  1  0
 20 23  1  0
 21 18  1  0
 21 22  1  0
 22 20  2  0
 23 24  1  0
 24 25  2  0
 26 29  1  0
 26 25  1  0
 27 26  2  0
 28 27  1  0
 28 23  2  0
 29 30  1  0
 30 31  1  0
 31 32  2  0
 33 32  1  0
 33 37  1  0
 34 33  2  0
 35 30  2  0
 35 34  1  0
 36 35  1  0
 38 39  1  0
 39 42  1  0
 39 41  1  0
 40 38  2  0
 43 44  1  0
 43 18  1  0
 45 43  1  0
 46 49  1  0
 46  1  1  0
 47 46  1  0
 48 47  1  0
 49 50  1  0
 51 50  1  0
 52 51  1  0
 53 56  1  0
 53 52  1  0
 54 53  1  0
 55 53  1  0
 58 57  1  0
 59 58  1  0
 59 60  1  0
 61 60  1  0
 62 73  2  0
 63 61  1  0
 63 68  1  0
 64 72  1  0
 64 74  1  0
 65 67  1  0
 66 72  1  0
 67 68  2  0
 67 66  1  0
 69 63  2  0
 70 69  1  0
 70 65  2  0
 71 65  1  0
 71 64  1  0
 72 62  1  0
 74 76  2  0
 75 74  1  0
 77 75  1  0
 78 87  2  0
 78 83  1  0
 79 75  1  0
 79 83  1  0
 80 79  1  0
 81 82  1  0
 81 80  1  0
 82 78  1  0
 83 84  2  0
 84 85  1  0
 86 85  2  0
 87 86  1  0
 88 62  1  0
 88 89  1  0
 88 98  1  0
 89 92  1  0
 90 94  1  0
 90 89  1  0
 91 90  2  0
 94 93  1  0
 96 97  1  0
 96 94  1  0
 96 95  1  0
 98101  1  1
 98 99  1  0
100 98  1  0
M  ISO  4   8 100  16 100  60 101  61 101
M  END
>  <TORSDO>  (33) 
F 30

>  <SCORE>  (33) 
-9.060

>  <name>  (33) 
32

>  <ligand_id>  (33) 
32

>  <original_smiles>  (33) 
[H]OC([H])(C([H])([H])OC([H])([H])C([H])([H])[N+]([H])([H])[H])C([H])(N([H])C(=O)C([H])([H])C([H])([H])N([H])C(=O)N1C([H])([H])C([H])([H])C([H])([H])C([H])(n2nc(-c3c([H])c([H])c(Oc4c([H])c([H])c(F)c([H])c4F)c([H])c3[H])c(C(=O)N([H])[H])c2N([H])[H])C1([H])[H])C([H])([H])OC([H])([H])C([H])([H])Oc1c([H])c([H])c2c(c1[H])C([H])([H])N(C(=O)C([H])(N([H])C(=O)C([H])(N([H])C([H])([H])[H])C([H])([H])[H])C(C([H])([H])[H])(C([H])([H])[H])C([H])([H])[H])C([H])(C(=O)N([H])C1([H])c3c([H])c([H])c([H])c([H])c3C([H])([H])C([H])([H])C1([H])[H])C2([H])[H]

>  <smiles>  (33) 
[H]OC([H])(C([H])([H])OC([H])([H])C([H])([H])[N+]([H])([H])[H])C([H])(N([H])C(=O)C([H])([H])C([H])([H])N([H])C(=O)N1C([H])([H])C([H])([H])C([H])([H])C([H])(n2nc(-c3c([H])c([H])c(Oc4c([H])c([H])c(F)c([H])c4F)c([H])c3[H])c(C(=O)N([H])[H])c2N([H])[H])C1([H])[H])C([H])([H])OC([H])([H])C([H])([H])Oc1c([H])c([H])c2c(c1[H])C([H])([H])N(C(=O)C([H])(N([H])C(=O)C([H])(N([H])C([H])([H])[H])C([H])([H])[H])C(C([H])([H])[H])(C([H])([H])[H])C([H])([H])[H])C([H])(C(=O)N([H])C1([H])c3c([H])c([H])c([H])c([H])c3C([H])([H])C([H])([H])C1([H])[H])C2([H])[H]

$$$$
33:0:0
     RDKit          3D

102109  0  0  1  0  0  0  0  0999 V2000
  -31.2530  -17.5480   19.4410 C   0  0  0  0  0  0  0  0  0  0  0  0
  -31.8310  -18.7570   19.5290 N   0  0  0  0  0  0  0  0  0  0  0  0
  -31.2430  -16.9030   18.3890 O   0  0  0  0  0  0  0  0  0  0  0  0
  -31.7610  -19.2620   20.4010 H   0  0  0  0  0  0  0  0  0  0  0  0
  -30.4770  -17.0430   20.6870 C   0  0  0  0  0  3  0  0  0  0  0  0
  -30.9780  -14.5570   20.4240 C   0  0  0  0  0  0  0  0  0  0  0  0
  -30.6910  -12.3850   19.3090 C   0  0  0  0  0  2  0  0  0  0  0  0
  -29.7530  -12.5940   18.1020 C   0  0  0  0  0  2  0  0  0  0  0  0
  -28.2750  -12.4710   18.5220 C   0  0  0  0  0  2  0  0  0  0  0  0
  -27.9320  -13.3070   19.7830 C   0  0  0  0  0  3  0  0  0  0  0  0
  -28.9870  -13.0900   20.8940 C   0  0  0  0  0  2  0  0  0  0  0  0
  -30.3160  -13.3770   20.3240 N   0  0  0  0  0  0  0  0  0  0  0  0
  -32.1480  -14.7080   20.0640 O   0  0  0  0  0  0  0  0  0  0  0  0
  -30.2010  -15.5950   20.7660 N   0  0  0  0  0  0  0  0  0  0  0  0
  -29.2560  -15.3520   21.0140 H   0  0  0  0  0  0  0  0  0  0  0  0
  -25.5460  -13.9240   20.5170 C   0  0  0  0  0  0  0  0  0  0  0  0
  -24.4650  -13.1580   20.8560 C   0  0  0  0  0  0  0  0  0  0  0  0
  -24.9020  -11.8000   20.7710 C   0  0  0  0  0  0  0  0  0  0  0  0
  -26.5760  -13.0360   20.2540 N   0  0  0  0  0  0  0  0  0  0  0  0
  -26.1920  -11.7500   20.4650 N   0  0  0  0  0  0  0  0  0  0  0  0
  -24.1500  -10.5450   20.9110 C   0  0  0  0  0  0  0  0  0  0  0  0
  -24.5680   -9.5310   21.8000 C   0  0  0  0  0  3  0  0  0  0  0  0
  -23.8230   -8.3400   21.9300 C   0  0  0  0  0  3  0  0  0  0  0  0
  -22.6430   -8.1560   21.1700 C   0  0  0  0  0  0  0  0  0  0  0  0
  -22.2420   -9.1590   20.2700 C   0  0  0  0  0  3  0  0  0  0  0  0
  -22.9890  -10.3420   20.1390 C   0  0  0  0  0  3  0  0  0  0  0  0
  -21.8690   -7.0220   21.2120 O   0  0  0  0  0  0  0  0  0  0  0  0
  -21.8230   -6.2240   22.3280 C   0  0  0  0  0  0  0  0  0  0  0  0
  -21.4380   -6.7260   23.5900 C   0  0  0  0  0  3  0  0  0  0  0  0
  -21.3370   -5.8540   24.6930 C   0  0  0  0  0  3  0  0  0  0  0  0
  -21.6130   -4.4830   24.5360 C   0  0  0  0  0  0  0  0  0  0  0  0
  -21.9920   -3.9800   23.2780 C   0  0  0  0  0  3  0  0  0  0  0  0
  -22.0940   -4.8490   22.1770 C   0  0  0  0  0  0  0  0  0  0  0  0
  -22.4380   -4.3570   20.9630 F   0  0  0  0  0  0  0  0  0  0  0  0
  -21.5100   -3.6430   25.5920 F   0  0  0  0  0  0  0  0  0  0  0  0
  -23.0760  -13.6490   21.1470 C   0  0  0  0  0  0  0  0  0  0  0  0
  -22.3400  -12.9410   21.9950 N   0  0  0  0  0  0  0  0  0  0  0  0
  -22.6510  -14.6920   20.6520 O   0  0  0  0  0  0  0  0  0  0  0  0
  -22.6930  -12.0950   22.4160 H   0  0  0  0  0  0  0  0  0  0  0  0
  -21.4050  -13.2470   22.2240 H   0  0  0  0  0  0  0  0  0  0  0  0
  -25.7300  -15.2990   20.3910 N   0  0  0  0  0  0  0  0  0  0  0  0
  -24.9670  -15.9540   20.5200 H   0  0  0  0  0  0  0  0  0  0  0  0
  -26.5830  -15.7410   20.0710 H   0  0  0  0  0  0  0  0  0  0  0  0
  -29.1410  -17.8050   20.9040 C   0  0  0  0  0  2  0  0  0  0  0  0
  -28.1050  -19.8090   19.8530 C   0  0  0  0  0  0  0  0  0  0  0  0
  -28.7820  -18.6560   19.7670 N   0  0  0  0  0  0  0  0  0  0  0  0
  -27.5380  -20.1470   20.8930 O   0  0  0  0  0  0  0  0  0  0  0  0
  -29.2190  -18.4450   18.8790 H   0  0  0  0  0  0  0  0  0  0  0  0
  -27.9800  -19.9440   17.2990 C   0  0  0  0  0  1  0  0  0  0  0  0
  -28.1450  -20.7360   18.6150 C   0  0  0  0  0  3  0  0  0  0  0  0
  -25.7230  -21.6430   18.3580 C   0  0  0  0  0  1  0  0  0  0  0  0
  -27.6850  -23.1540   17.8570 C   0  0  0  0  0  1  0  0  0  0  0  0
  -27.1890  -21.9680   18.7020 C   0  0  0  0  0  3  0  0  0  0  0  0
  -32.4530  -19.4710   18.4120 C   0  0  0  0  0  2  0  0  0  0  0  0
  -32.7230  -20.9530   18.7440 C   0  0  0  0  0  2  0  0  0  0  0  0
  -31.5320  -21.6180   19.1610 O   0  0  0  0  0  0  0  0  0  0  0  0
  -31.7390  -23.0060   19.4360 C   0  0  0  0  0  2  0  0  0  0  0  0
  -30.4690  -23.6290   20.0550 C   0  0  0  0  0  2  0  0  0  0  0  0
  -30.7410  -24.8200   20.7980 O   0  0  0  0  0  0  0  0  0  0  0  0
  -30.9100  -26.0070   20.0210 C   0  0  0  0  0  2  0  0  0  0  0  0
  -29.8670  -27.0700   20.4270 C   0  0  0  0  0  2  0  0  0  0  0  0
  -28.6040  -26.5790   20.0100 O   0  0  0  0  0  0  0  0  0  0  0  0
  -24.6560  -31.7220   23.1350 C   0  0  0  0  0  0  0  0  0  0  0  0
  -27.4780  -27.3680   20.0890 C   0  0  0  0  0  0  0  0  0  0  0  0
  -23.5220  -30.3130   21.4450 C   0  0  0  0  0  3  0  0  0  0  0  0
  -25.0460  -28.8080   20.0620 C   0  0  0  0  0  0  0  0  0  0  0  0
  -26.0450  -30.7180   21.3270 C   0  0  0  0  0  2  0  0  0  0  0  0
  -26.1780  -29.3540   20.6860 C   0  0  0  0  0  0  0  0  0  0  0  0
  -27.3990  -28.6390   20.7060 C   0  0  0  0  0  3  0  0  0  0  0  0
  -26.3230  -26.8290   19.4890 C   0  0  0  0  0  3  0  0  0  0  0  0
  -25.1120  -27.5380   19.4670 C   0  0  0  0  0  3  0  0  0  0  0  0
  -23.7860  -29.6410   20.0700 C   0  0  0  0  0  2  0  0  0  0  0  0
  -24.7570  -30.9310   22.0280 N   0  0  0  0  0  0  0  0  0  0  0  0
  -23.5560  -31.9730   23.6440 O   0  0  0  0  0  0  0  0  0  0  0  0
  -22.8580  -29.2750   22.3780 C   0  0  0  0  0  0  0  0  0  0  0  0
  -21.5330  -29.1070   22.2390 N   0  0  0  0  0  0  0  0  0  0  0  0
  -23.5310  -28.6250   23.1820 O   0  0  0  0  0  0  0  0  0  0  0  0
  -21.0500  -29.6840   21.5630 H   0  0  0  0  0  0  0  0  0  0  0  0
  -18.1390  -27.9740   22.7290 C   0  0  0  0  0  0  0  0  0  0  0  0
  -20.7050  -28.1590   22.9820 C   0  0  0  0  0  3  0  0  0  0  0  0
  -20.7670  -26.7490   22.3480 C   0  0  0  0  0  2  0  0  0  0  0  0
  -19.6460  -26.4940   21.3350 C   0  0  0  0  0  2  0  0  0  0  0  0
  -18.2760  -26.6480   21.9990 C   0  0  0  0  0  2  0  0  0  0  0  0
  -19.2800  -28.6900   23.1760 C   0  0  0  0  0  0  0  0  0  0  0  0
  -19.0990  -29.9360   23.8160 C   0  0  0  0  0  3  0  0  0  0  0  0
  -17.8090  -30.4630   24.0160 C   0  0  0  0  0  3  0  0  0  0  0  0
  -16.6820  -29.7410   23.5860 C   0  0  0  0  0  3  0  0  0  0  0  0
  -16.8480  -28.4990   22.9480 C   0  0  0  0  0  3  0  0  0  0  0  0
  -25.9160  -32.3640   23.7960 C   0  0  0  0  0  3  0  0  0  0  0  0
  -25.5710  -33.7490   24.1490 N   0  0  0  0  0  0  0  0  0  0  0  0
  -25.8970  -34.8230   23.4170 C   0  0  0  0  0  0  0  0  0  0  0  0
  -26.5890  -34.7540   22.3970 O   0  0  0  0  0  0  0  0  0  0  0  0
  -24.9610  -33.8750   24.9440 H   0  0  0  0  0  0  0  0  0  0  0  0
  -24.1290  -36.5750   23.0680 C   0  0  0  0  0  1  0  0  0  0  0  0
  -25.3690  -36.1900   23.8910 C   0  0  0  0  0  3  0  0  0  0  0  0
  -27.4680  -37.1130   24.7680 C   0  0  0  0  0  1  0  0  0  0  0  0
  -26.3760  -37.2690   23.8100 N   0  0  0  0  0  0  0  0  0  0  0  0
  -25.9450  -38.1750   23.9680 H   0  0  0  0  0  0  0  0  0  0  0  0
  -26.4260  -31.5750   25.0630 C   0  0  1  0  0  0  0  0  0  0  0  0
  -25.3190  -31.2860   26.1020 C   0  0  0  0  0  1  0  0  0  0  0  0
  -27.0480  -30.2210   24.6470 C   0  0  0  0  0  1  0  0  0  0  0  0
  -27.5450  -32.3780   25.7680 C   0  0  0  0  0  1  0  0  0  0  0  0
  1  2  1  0
  1  5  1  0
  2  4  1  0
  3  1  2  0
  5 14  1  0
  5 44  1  0
  6 14  1  0
  7 12  1  0
  8  9  1  0
  8  7  1  0
 10  9  1  0
 10 19  1  0
 10 11  1  0
 12  6  1  0
 12 11  1  0
 13  6  2  0
 14 15  1  0
 16 17  2  0
 17 36  1  0
 18 17  1  0
 18 21  1  0
 19 20  1  0
 19 16  1  0
 20 18  2  0
 21 22  1  0
 22 23  2  0
 24 27  1  0
 24 23  1  0
 25 24  2  0
 26 25  1  0
 26 21  2  0
 27 28  1  0
 28 29  1  0
 29 30  2  0
 31 30  1  0
 31 35  1  0
 32 31  2  0
 33 28  2  0
 33 32  1  0
 34 33  1  0
 36 37  1  0
 37 40  1  0
 37 39  1  0
 38 36  2  0
 41 16  1  0
 41 42  1  0
 43 41  1  0
 45 47  2  0
 46 45  1  0
 46 44  1  0
 48 46  1  0
 50 49  1  0
 50 53  1  0
 50 45  1  0
 51 53  1  0
 52 53  1  0
 54 55  1  0
 54  2  1  0
 55 56  1  0
 56 57  1  0
 57 58  1  0
 58 59  1  0
 60 61  1  0
 60 59  1  0
 62 64  1  0
 62 61  1  0
 63 74  2  0
 64 69  1  0
 65 73  1  0
 65 75  1  0
 66 72  1  0
 66 68  1  0
 67 73  1  0
 68 69  2  0
 68 67  1  0
 70 64  2  0
 71 70  1  0
 71 66  2  0
 72 65  1  0
 73 63  1  0
 75 77  2  0
 76 75  1  0
 78 76  1  0
 79 88  2  0
 79 84  1  0
 80 76  1  0
 80 84  1  0
 81 80  1  0
 82 83  1  0
 82 81  1  0
 83 79  1  0
 84 85  2  0
 85 86  1  0
 87 86  2  0
 88 87  1  0
 89 63  1  0
 89 90  1  0
 89 99  1  0
 90 93  1  0
 91 95  1  0
 91 90  1  0
 92 91  2  0
 95 94  1  0
 97 95  1  0
 97 98  1  0
 97 96  1  0
 99102  1  1
 99100  1  0
101 99  1  0
M  ISO  4   6 100  14 100  61 101  62 101
M  END
>  <TORSDO>  (34) 
F 29

>  <SCORE>  (34) 
-10.957

>  <name>  (34) 
33

>  <ligand_id>  (34) 
33

>  <original_smiles>  (34) 
[H]c1c([H])c([H])c2c(c1[H])C([H])([H])C([H])([H])C([H])([H])C2([H])N([H])C(=O)C1([H])N(C(=O)C([H])(N([H])C(=O)C([H])(N([H])C([H])([H])[H])C([H])([H])[H])C(C([H])([H])[H])(C([H])([H])[H])C([H])([H])[H])C([H])([H])c2c([H])c(OC([H])([H])C([H])([H])OC([H])([H])C([H])([H])OC([H])([H])C([H])([H])N([H])C(=O)C([H])(N([H])C(=O)N3C([H])([H])C([H])([H])C([H])([H])C([H])(n4nc(-c5c([H])c([H])c(Oc6c([H])c([H])c(F)c([H])c6F)c([H])c5[H])c(C(=O)N([H])[H])c4N([H])[H])C3([H])[H])C([H])([H])N([H])C(=O)C([H])(C([H])([H])[H])C([H])(C([H])([H])[H])C([H])([H])[H])c([H])c([H])c2C1([H])[H]

>  <smiles>  (34) 
[H]c1c([H])c([H])c2c(c1[H])C([H])([H])C([H])([H])C([H])([H])C2([H])N([H])C(=O)C1([H])N(C(=O)C([H])(N([H])C(=O)C([H])(N([H])C([H])([H])[H])C([H])([H])[H])C(C([H])([H])[H])(C([H])([H])[H])C([H])([H])[H])C([H])([H])c2c([H])c(OC([H])([H])C([H])([H])OC([H])([H])C([H])([H])OC([H])([H])C([H])([H])N([H])C(=O)C([H])(N([H])C(=O)N3C([H])([H])C([H])([H])C([H])([H])C([H])(n4nc(-c5c([H])c([H])c(Oc6c([H])c([H])c(F)c([H])c6F)c([H])c5[H])c(C(=O)N([H])[H])c4N([H])[H])C3([H])[H])C([H])([H])N([H])C(=O)C([H])(C([H])([H])[H])C([H])(C([H])([H])[H])C([H])([H])[H])c([H])c([H])c2C1([H])[H]

$$$$
34:0:0
     RDKit          3D

109116  0  0  1  0  0  0  0  0999 V2000
  -29.4080  -22.3450   21.7030 C   0  0  0  0  0  0  0  0  0  0  0  0
  -28.8780  -21.2230   21.1970 N   0  0  0  0  0  0  0  0  0  0  0  0
  -30.0300  -23.1520   21.0030 O   0  0  0  0  0  0  0  0  0  0  0  0
  -28.3220  -20.6190   21.7900 H   0  0  0  0  0  0  0  0  0  0  0  0
  -29.2290  -22.6320   23.2060 C   0  0  0  0  0  3  0  0  0  0  0  0
  -29.4560  -24.0710   23.4350 N   0  0  0  0  0  4  0  0  0  0  0  0
  -30.0350  -24.1540   24.2560 H   0  0  0  0  0  0  0  0  0  0  0  0
  -30.0140  -24.3340   22.6300 H   0  0  0  0  0  0  0  0  0  0  0  0
  -28.2540  -24.9340   23.5250 C   0  0  0  0  0  2  0  0  0  0  0  0
  -28.6400  -26.4120   23.3490 C   0  0  0  0  0  2  0  0  0  0  0  0
  -29.3180  -26.6180   22.1060 O   0  0  0  0  0  0  0  0  0  0  0  0
  -28.4450  -26.5720   20.9860 C   0  0  0  0  0  2  0  0  0  0  0  0
  -29.1530  -26.9590   19.6740 C   0  0  0  0  0  2  0  0  0  0  0  0
  -28.1980  -27.0380   18.6170 O   0  0  0  0  0  0  0  0  0  0  0  0
  -25.0310  -31.7140   22.9470 C   0  0  0  0  0  0  0  0  0  0  0  0
  -27.0920  -27.8040   18.8920 C   0  0  0  0  0  0  0  0  0  0  0  0
  -23.5620  -30.5910   21.3000 C   0  0  0  0  0  3  0  0  0  0  0  0
  -24.7540  -29.2600   19.4830 C   0  0  0  0  0  0  0  0  0  0  0  0
  -26.0390  -30.9510   20.8080 C   0  0  0  0  0  2  0  0  0  0  0  0
  -25.9910  -29.6910   19.9760 C   0  0  0  0  0  0  0  0  0  0  0  0
  -27.1640  -28.9690   19.6870 C   0  0  0  0  0  3  0  0  0  0  0  0
  -25.8430  -27.3770   18.3990 C   0  0  0  0  0  3  0  0  0  0  0  0
  -24.6700  -28.0980   18.6950 C   0  0  0  0  0  3  0  0  0  0  0  0
  -23.5550  -30.1130   19.8230 C   0  0  0  0  0  2  0  0  0  0  0  0
  -24.9040  -31.0870   21.7460 N   0  0  0  0  0  0  0  0  0  0  0  0
  -24.0420  -31.9180   23.6670 O   0  0  0  0  0  0  0  0  0  0  0  0
  -23.0080  -29.4500   22.1820 C   0  0  0  0  0  0  0  0  0  0  0  0
  -21.6880  -29.2210   22.1020 N   0  0  0  0  0  0  0  0  0  0  0  0
  -23.7600  -28.7760   22.8910 O   0  0  0  0  0  0  0  0  0  0  0  0
  -21.1340  -29.8250   21.5100 H   0  0  0  0  0  0  0  0  0  0  0  0
  -18.4300  -27.7150   22.4840 C   0  0  0  0  0  0  0  0  0  0  0  0
  -20.9540  -28.1720   22.8080 C   0  0  0  0  0  3  0  0  0  0  0  0
  -21.1850  -26.7910   22.1500 C   0  0  0  0  0  2  0  0  0  0  0  0
  -20.1200  -26.4310   21.1080 C   0  0  0  0  0  2  0  0  0  0  0  0
  -18.7270  -26.4200   21.7480 C   0  0  0  0  0  2  0  0  0  0  0  0
  -19.4730  -28.5440   22.9700 C   0  0  0  0  0  0  0  0  0  0  0  0
  -19.1400  -29.7540   23.6160 C   0  0  0  0  0  3  0  0  0  0  0  0
  -17.7940  -30.1320   23.7900 C   0  0  0  0  0  3  0  0  0  0  0  0
  -16.7660  -29.2960   23.3230 C   0  0  0  0  0  3  0  0  0  0  0  0
  -17.0850  -28.0920   22.6740 C   0  0  0  0  0  3  0  0  0  0  0  0
  -26.4120  -32.2170   23.4720 C   0  0  0  0  0  3  0  0  0  0  0  0
  -27.0320  -31.2870   24.5860 C   0  0  1  0  0  0  0  0  0  0  0  0
  -26.0570  -30.9690   25.7440 C   0  0  0  0  0  1  0  0  0  0  0  0
  -27.5010  -29.9430   23.9800 C   0  0  0  0  0  1  0  0  0  0  0  0
  -28.2870  -31.9550   25.1940 C   0  0  0  0  0  1  0  0  0  0  0  0
  -26.2240  -33.5820   23.9740 N   0  0  0  0  0  0  0  0  0  0  0  0
  -26.5990  -34.6900   23.3220 C   0  0  0  0  0  0  0  0  0  0  0  0
  -27.2190  -34.6610   22.2530 O   0  0  0  0  0  0  0  0  0  0  0  0
  -25.6790  -33.6830   24.8190 H   0  0  0  0  0  0  0  0  0  0  0  0
  -25.0040  -36.6340   23.2400 C   0  0  0  0  0  1  0  0  0  0  0  0
  -26.2340  -36.0480   23.9540 C   0  0  0  0  0  3  0  0  0  0  0  0
  -28.4590  -36.6680   24.7890 C   0  0  0  0  0  1  0  0  0  0  0  0
  -27.3410  -37.0300   23.9220 N   0  0  0  0  0  0  0  0  0  0  0  0
  -27.0120  -37.9500   24.2000 H   0  0  0  0  0  0  0  0  0  0  0  0
  -30.1960  -21.8550   24.1340 C   0  0  0  0  0  2  0  0  0  0  0  0
  -31.5540  -22.2610   23.9920 O   0  0  0  0  0  0  0  0  0  0  0  0
  -31.9320  -21.8110   23.2410 H   0  0  0  0  0  0  0  0  0  0  0  0
  -28.9060  -20.8130   19.7910 C   0  0  0  0  0  3  0  0  0  0  0  0
  -27.5360  -20.2560   19.3770 C   0  0  0  0  0  0  0  0  0  0  0  0
  -27.1200  -20.5380   18.1360 N   0  0  0  0  0  0  0  0  0  0  0  0
  -26.8700  -19.5890   20.1750 O   0  0  0  0  0  0  0  0  0  0  0  0
  -27.7230  -21.1220   17.5720 H   0  0  0  0  0  0  0  0  0  0  0  0
  -24.7890  -21.1720   17.7090 C   0  0  0  0  0  1  0  0  0  0  0  0
  -25.8680  -20.0950   17.5260 C   0  0  0  0  0  3  0  0  0  0  0  0
  -26.1220  -19.8050   16.0380 C   0  0  0  0  0  2  0  0  0  0  0  0
  -27.1650  -18.8550   15.9290 O   0  0  0  0  0  0  0  0  0  0  0  0
  -27.8980  -19.1940   16.4280 H   0  0  0  0  0  0  0  0  0  0  0  0
  -30.1110  -19.8810   19.4910 C   0  0  0  0  0  2  0  0  0  0  0  0
  -30.2070  -18.5920   20.3350 C   0  0  0  0  0  2  0  0  0  0  0  0
  -31.6020  -17.9470   20.2420 C   0  0  0  0  0  2  0  0  0  0  0  0
  -31.8510  -16.8470   21.2910 C   0  0  0  0  0  2  0  0  0  0  0  0
  -31.6860  -14.6630   20.0950 C   0  0  0  0  0  0  0  0  0  0  0  0
  -31.2740  -12.4530   19.0710 C   0  0  0  0  0  2  0  0  0  0  0  0
  -30.3240  -12.5670   17.8640 C   0  0  0  0  0  2  0  0  0  0  0  0
  -28.8510  -12.5170   18.3200 C   0  0  0  0  0  2  0  0  0  0  0  0
  -28.5570  -13.4910   19.4900 C   0  0  0  0  0  3  0  0  0  0  0  0
  -29.6090  -13.3290   20.6080 C   0  0  0  0  0  2  0  0  0  0  0  0
  -30.9460  -13.5270   20.0180 N   0  0  0  0  0  0  0  0  0  0  0  0
  -32.7220  -14.8480   19.4500 O   0  0  0  0  0  0  0  0  0  0  0  0
  -31.2160  -15.5790   20.9500 N   0  0  0  0  0  0  0  0  0  0  0  0
  -30.3720  -15.3330   21.4460 H   0  0  0  0  0  0  0  0  0  0  0  0
  -26.2270  -14.2700   20.2590 C   0  0  0  0  0  0  0  0  0  0  0  0
  -25.1140  -13.5770   20.6580 C   0  0  0  0  0  0  0  0  0  0  0  0
  -25.4760  -12.1980   20.6150 C   0  0  0  0  0  0  0  0  0  0  0  0
  -27.1980  -13.3170   20.0010 N   0  0  0  0  0  0  0  0  0  0  0  0
  -26.7500  -12.0630   20.2700 N   0  0  0  0  0  0  0  0  0  0  0  0
  -24.6690  -10.9890   20.8280 C   0  0  0  0  0  0  0  0  0  0  0  0
  -25.0460  -10.0040   21.7660 C   0  0  0  0  0  3  0  0  0  0  0  0
  -24.2440   -8.8590   21.9650 C   0  0  0  0  0  3  0  0  0  0  0  0
  -23.0510   -8.6930   21.2220 C   0  0  0  0  0  0  0  0  0  0  0  0
  -22.6920   -9.6660   20.2720 C   0  0  0  0  0  3  0  0  0  0  0  0
  -23.4960  -10.8020   20.0720 C   0  0  0  0  0  3  0  0  0  0  0  0
  -22.2230   -7.6030   21.3300 O   0  0  0  0  0  0  0  0  0  0  0  0
  -22.0470   -6.9470   22.5220 C   0  0  0  0  0  0  0  0  0  0  0  0
  -21.5770   -7.6110   23.6770 C   0  0  0  0  0  3  0  0  0  0  0  0
  -21.3420   -6.8840   24.8600 C   0  0  0  0  0  3  0  0  0  0  0  0
  -21.5670   -5.4950   24.8900 C   0  0  0  0  0  0  0  0  0  0  0  0
  -22.0320   -4.8320   23.7420 C   0  0  0  0  0  3  0  0  0  0  0  0
  -22.2670   -5.5560   22.5600 C   0  0  0  0  0  0  0  0  0  0  0  0
  -22.6920   -4.9060   21.4500 F   0  0  0  0  0  0  0  0  0  0  0  0
  -21.3350   -4.7950   26.0270 F   0  0  0  0  0  0  0  0  0  0  0  0
  -23.7630  -14.1540   20.9710 C   0  0  0  0  0  0  0  0  0  0  0  0
  -23.0320  -13.5340   21.8910 N   0  0  0  0  0  0  0  0  0  0  0  0
  -23.3690  -15.1890   20.4370 O   0  0  0  0  0  0  0  0  0  0  0  0
  -23.3660  -12.6960   22.3420 H   0  0  0  0  0  0  0  0  0  0  0  0
  -22.1260  -13.9030   22.1450 H   0  0  0  0  0  0  0  0  0  0  0  0
  -26.4870  -15.6240   20.0760 N   0  0  0  0  0  0  0  0  0  0  0  0
  -25.7870  -16.3470   20.2080 H   0  0  0  0  0  0  0  0  0  0  0  0
  -27.3640  -15.9880   19.7310 H   0  0  0  0  0  0  0  0  0  0  0  0
  1  5  1  0
  2  1  1  0
  2  4  1  0
  3  1  2  0
  5  6  1  0
  5 55  1  0
  6  9  1  0
  6  7  1  0
  8  6  1  0
 10  9  1  0
 11 10  1  0
 12 11  1  0
 13 12  1  0
 14 16  1  0
 14 13  1  0
 15 26  2  0
 16 21  1  0
 17 25  1  0
 17 27  1  0
 18 24  1  0
 18 20  1  0
 19 25  1  0
 20 19  1  0
 21 20  2  0
 22 23  1  0
 22 16  2  0
 23 18  2  0
 24 17  1  0
 25 15  1  0
 27 29  2  0
 28 27  1  0
 30 28  1  0
 31 40  2  0
 31 36  1  0
 32 28  1  0
 32 36  1  0
 33 32  1  0
 34 35  1  0
 34 33  1  0
 35 31  1  0
 36 37  2  0
 37 38  1  0
 39 38  2  0
 40 39  1  0
 41 15  1  0
 41 46  1  0
 41 42  1  0
 42 45  1  1
 42 43  1  0
 44 42  1  0
 46 49  1  0
 47 51  1  0
 47 46  1  0
 48 47  2  0
 51 50  1  0
 53 51  1  0
 53 54  1  0
 53 52  1  0
 56 55  1  0
 57 56  1  0
 58 68  1  0
 58  2  1  0
 59 58  1  0
 59 61  2  0
 60 59  1  0
 62 60  1  0
 64 63  1  0
 64 60  1  0
 65 64  1  0
 66 65  1  0
 66 67  1  0
 68 69  1  0
 70 69  1  0
 70 71  1  0
 72 80  1  0
 73 78  1  0
 74 75  1  0
 74 73  1  0
 76 75  1  0
 76 85  1  0
 76 77  1  0
 78 72  1  0
 78 77  1  0
 79 72  2  0
 80 71  1  0
 80 81  1  0
 82 83  2  0
 83102  1  0
 84 83  1  0
 84 87  1  0
 85 82  1  0
 85 86  1  0
 86 84  2  0
 87 88  1  0
 88 89  2  0
 90 93  1  0
 90 89  1  0
 91 90  2  0
 92 91  1  0
 92 87  2  0
 93 94  1  0
 94 99  2  0
 94 95  1  0
 95 96  2  0
 96 97  1  0
 97101  1  0
 98 97  2  0
 99 98  1  0
100 99  1  0
102103  1  0
103106  1  0
103105  1  0
104102  2  0
107108  1  0
107 82  1  0
109107  1  0
M  ISO  4  13 101  14 101  72 100  80 100
M  END
>  <TORSDO>  (35) 
F 34

>  <SCORE>  (35) 
-6.649

>  <name>  (35) 
34

>  <ligand_id>  (35) 
34

>  <original_smiles>  (35) 
[H]OC([H])([H])C([H])(N([H])C(=O)C([H])(N([H])C(=O)C([H])(C([H])([H])O[H])[N+]([H])([H])C([H])([H])C([H])([H])OC([H])([H])C([H])([H])Oc1c([H])c([H])c2c(c1[H])C([H])([H])N(C(=O)C([H])(N([H])C(=O)C([H])(N([H])C([H])([H])[H])C([H])([H])[H])C(C([H])([H])[H])(C([H])([H])[H])C([H])([H])[H])C([H])(C(=O)N([H])C1([H])c3c([H])c([H])c([H])c([H])c3C([H])([H])C([H])([H])C1([H])[H])C2([H])[H])C([H])([H])C([H])([H])C([H])([H])C([H])([H])N([H])C(=O)N1C([H])([H])C([H])([H])C([H])([H])C([H])(n2nc(-c3c([H])c([H])c(Oc4c([H])c([H])c(F)c([H])c4F)c([H])c3[H])c(C(=O)N([H])[H])c2N([H])[H])C1([H])[H])C([H])([H])[H]

>  <smiles>  (35) 
[H]OC([H])([H])C([H])(N([H])C(=O)C([H])(N([H])C(=O)C([H])(C([H])([H])O[H])[N+]([H])([H])C([H])([H])C([H])([H])OC([H])([H])C([H])([H])Oc1c([H])c([H])c2c(c1[H])C([H])([H])N(C(=O)C([H])(N([H])C(=O)C([H])(N([H])C([H])([H])[H])C([H])([H])[H])C(C([H])([H])[H])(C([H])([H])[H])C([H])([H])[H])C([H])(C(=O)N([H])C1([H])c3c([H])c([H])c([H])c([H])c3C([H])([H])C([H])([H])C1([H])[H])C2([H])[H])C([H])([H])C([H])([H])C([H])([H])C([H])([H])N([H])C(=O)N1C([H])([H])C([H])([H])C([H])([H])C([H])(n2nc(-c3c([H])c([H])c(Oc4c([H])c([H])c(F)c([H])c4F)c([H])c3[H])c(C(=O)N([H])[H])c2N([H])[H])C1([H])[H])C([H])([H])[H]

$$$$
35:0:0
     RDKit          3D

 95102  0  0  1  0  0  0  0  0999 V2000
  -31.7120  -20.1590   17.6740 C   0  0  0  0  0  2  0  0  0  0  0  0
  -32.8240  -19.4240   18.4490 C   0  0  0  0  0  2  0  0  0  0  0  0
  -31.6120  -17.4110   19.3440 C   0  0  0  0  0  0  0  0  0  0  0  0
  -32.3290  -18.5330   19.4980 N   0  0  0  0  0  0  0  0  0  0  0  0
  -31.2250  -17.0110   18.2440 O   0  0  0  0  0  0  0  0  0  0  0  0
  -32.6030  -18.7680   20.4440 H   0  0  0  0  0  0  0  0  0  0  0  0
  -31.2740  -16.6420   20.6460 C   0  0  0  0  0  3  0  0  0  0  0  0
  -31.4140  -14.2050   19.9950 C   0  0  0  0  0  0  0  0  0  0  0  0
  -30.9110  -12.1380   18.7590 C   0  0  0  0  0  2  0  0  0  0  0  0
  -29.9330  -12.4850   17.6160 C   0  0  0  0  0  2  0  0  0  0  0  0
  -28.4700  -12.4780   18.1080 C   0  0  0  0  0  2  0  0  0  0  0  0
  -28.2690  -13.2590   19.4320 C   0  0  0  0  0  3  0  0  0  0  0  0
  -29.3430  -12.8600   20.4690 C   0  0  0  0  0  2  0  0  0  0  0  0
  -30.6550  -13.0900   19.8470 N   0  0  0  0  0  0  0  0  0  0  0  0
  -32.5780  -14.2850   19.5970 O   0  0  0  0  0  0  0  0  0  0  0  0
  -30.7430  -15.2800   20.4470 N   0  0  0  0  0  0  0  0  0  0  0  0
  -29.7550  -15.1600   20.5900 H   0  0  0  0  0  0  0  0  0  0  0  0
  -25.9370  -14.0320   20.2080 C   0  0  0  0  0  0  0  0  0  0  0  0
  -24.8320  -13.3350   20.6140 C   0  0  0  0  0  0  0  0  0  0  0  0
  -25.2040  -11.9560   20.5930 C   0  0  0  0  0  0  0  0  0  0  0  0
  -26.9170  -13.0830   19.9590 N   0  0  0  0  0  0  0  0  0  0  0  0
  -26.4790  -11.8300   20.2490 N   0  0  0  0  0  0  0  0  0  0  0  0
  -24.4030  -10.7460   20.8230 C   0  0  0  0  0  0  0  0  0  0  0  0
  -24.7870   -9.7760   21.7760 C   0  0  0  0  0  3  0  0  0  0  0  0
  -23.9900   -8.6290   21.9880 C   0  0  0  0  0  3  0  0  0  0  0  0
  -22.7990   -8.4470   21.2480 C   0  0  0  0  0  0  0  0  0  0  0  0
  -22.4380   -9.4030   20.2830 C   0  0  0  0  0  3  0  0  0  0  0  0
  -23.2330  -10.5400   20.0680 C   0  0  0  0  0  3  0  0  0  0  0  0
  -21.9790   -7.3510   21.3680 O   0  0  0  0  0  0  0  0  0  0  0  0
  -21.8740   -6.6560   22.5440 C   0  0  0  0  0  0  0  0  0  0  0  0
  -21.4790   -7.2830   23.7480 C   0  0  0  0  0  3  0  0  0  0  0  0
  -21.3180   -6.5190   24.9190 C   0  0  0  0  0  3  0  0  0  0  0  0
  -21.5380   -5.1290   24.8930 C   0  0  0  0  0  0  0  0  0  0  0  0
  -21.9310   -4.5030   23.6950 C   0  0  0  0  0  3  0  0  0  0  0  0
  -22.0950   -5.2630   22.5260 C   0  0  0  0  0  0  0  0  0  0  0  0
  -22.4490   -4.6510   21.3700 F   0  0  0  0  0  0  0  0  0  0  0  0
  -21.3790   -4.3930   26.0160 F   0  0  0  0  0  0  0  0  0  0  0  0
  -23.4760  -13.9040   20.9200 C   0  0  0  0  0  0  0  0  0  0  0  0
  -22.7380  -13.2740   21.8270 N   0  0  0  0  0  0  0  0  0  0  0  0
  -23.0820  -14.9420   20.3850 O   0  0  0  0  0  0  0  0  0  0  0  0
  -23.0750  -12.4360   22.2780 H   0  0  0  0  0  0  0  0  0  0  0  0
  -21.8230  -13.6290   22.0690 H   0  0  0  0  0  0  0  0  0  0  0  0
  -26.1780  -15.3860   20.0080 N   0  0  0  0  0  0  0  0  0  0  0  0
  -25.4520  -16.0820   20.1360 H   0  0  0  0  0  0  0  0  0  0  0  0
  -27.0380  -15.7740   19.6490 H   0  0  0  0  0  0  0  0  0  0  0  0
  -28.9400  -17.7970   20.9950 C   0  0  0  0  0  1  0  0  0  0  0  0
  -30.2070  -16.8320   22.9720 C   0  0  0  0  0  1  0  0  0  0  0  0
  -30.3310  -17.4690   21.5780 C   0  0  0  0  0  3  0  0  0  0  0  0
  -30.9500  -21.0090   18.5270 O   0  0  0  0  0  0  0  0  0  0  0  0
  -29.8290  -21.5650   17.8450 C   0  0  0  0  0  2  0  0  0  0  0  0
  -29.1260  -22.6440   18.6890 C   0  0  0  0  0  2  0  0  0  0  0  0
  -29.6470  -23.9110   18.3060 O   0  0  0  0  0  0  0  0  0  0  0  0
  -28.7850  -25.0110   18.5810 C   0  0  0  0  0  2  0  0  0  0  0  0
  -28.6450  -25.2720   20.0930 C   0  0  0  0  0  2  0  0  0  0  0  0
  -28.5930  -26.6660   20.3670 O   0  0  0  0  0  0  0  0  0  0  0  0
  -24.6560  -31.7990   23.2440 C   0  0  0  0  0  0  0  0  0  0  0  0
  -27.3860  -27.3290   20.3050 C   0  0  0  0  0  0  0  0  0  0  0  0
  -23.4900  -30.3640   21.5990 C   0  0  0  0  0  3  0  0  0  0  0  0
  -24.9780  -28.8060   20.2410 C   0  0  0  0  0  0  0  0  0  0  0  0
  -26.0190  -30.7310   21.4570 C   0  0  0  0  0  2  0  0  0  0  0  0
  -26.1210  -29.3530   20.8380 C   0  0  0  0  0  0  0  0  0  0  0  0
  -27.3240  -28.6230   20.8620 C   0  0  0  0  0  3  0  0  0  0  0  0
  -26.2220  -26.7810   19.7150 C   0  0  0  0  0  3  0  0  0  0  0  0
  -25.0210  -27.5150   19.6850 C   0  0  0  0  0  3  0  0  0  0  0  0
  -23.7290  -29.6540   20.2410 C   0  0  0  0  0  2  0  0  0  0  0  0
  -24.7390  -30.9770   22.1590 N   0  0  0  0  0  0  0  0  0  0  0  0
  -23.5610  -32.0790   23.7500 O   0  0  0  0  0  0  0  0  0  0  0  0
  -22.8170  -29.3620   22.5620 C   0  0  0  0  0  0  0  0  0  0  0  0
  -21.5010  -29.1530   22.3910 N   0  0  0  0  0  0  0  0  0  0  0  0
  -23.4790  -28.7680   23.4170 O   0  0  0  0  0  0  0  0  0  0  0  0
  -21.0260  -29.6830   21.6740 H   0  0  0  0  0  0  0  0  0  0  0  0
  -18.1340  -27.9080   22.7810 C   0  0  0  0  0  0  0  0  0  0  0  0
  -20.6710  -28.2270   23.1580 C   0  0  0  0  0  3  0  0  0  0  0  0
  -20.8270  -26.7780   22.6440 C   0  0  0  0  0  2  0  0  0  0  0  0
  -19.7820  -26.3970   21.5910 C   0  0  0  0  0  2  0  0  0  0  0  0
  -18.3680  -26.5390   22.1650 C   0  0  0  0  0  2  0  0  0  0  0  0
  -19.2170  -28.7080   23.2330 C   0  0  0  0  0  0  0  0  0  0  0  0
  -18.9470  -29.9870   23.7640 C   0  0  0  0  0  3  0  0  0  0  0  0
  -17.6290  -30.4710   23.8430 C   0  0  0  0  0  3  0  0  0  0  0  0
  -16.5570  -29.6690   23.4130 C   0  0  0  0  0  3  0  0  0  0  0  0
  -16.8110  -28.3890   22.8870 C   0  0  0  0  0  3  0  0  0  0  0  0
  -25.9290  -32.4440   23.8790 C   0  0  0  0  0  3  0  0  0  0  0  0
  -26.4390  -31.6860   25.1650 C   0  0  1  0  0  0  0  0  0  0  0  0
  -25.3350  -31.4360   26.2210 C   0  0  0  0  0  1  0  0  0  0  0  0
  -27.0500  -30.3150   24.7920 C   0  0  0  0  0  1  0  0  0  0  0  0
  -27.5690  -32.5000   25.8370 C   0  0  0  0  0  1  0  0  0  0  0  0
  -25.6030  -33.8410   24.1960 N   0  0  0  0  0  0  0  0  0  0  0  0
  -25.9400  -34.8900   23.4340 C   0  0  0  0  0  0  0  0  0  0  0  0
  -26.6220  -34.7850   22.4120 O   0  0  0  0  0  0  0  0  0  0  0  0
  -24.9890  -33.9960   24.9820 H   0  0  0  0  0  0  0  0  0  0  0  0
  -24.1930  -36.6570   23.0580 C   0  0  0  0  0  1  0  0  0  0  0  0
  -25.4380  -36.2770   23.8750 C   0  0  0  0  0  3  0  0  0  0  0  0
  -27.5590  -37.1890   24.7040 C   0  0  0  0  0  1  0  0  0  0  0  0
  -26.4590  -37.3390   23.7540 N   0  0  0  0  0  0  0  0  0  0  0  0
  -26.0470  -38.2550   23.8990 H   0  0  0  0  0  0  0  0  0  0  0  0
  1  2  1  0
  1 49  1  0
  2  4  1  0
  3  4  1  0
  4  6  1  0
  5  3  2  0
  7  3  1  0
  7 48  1  0
  8 16  1  0
  9 14  1  0
 10 11  1  0
 10  9  1  0
 12 11  1  0
 12 21  1  0
 12 13  1  0
 14  8  1  0
 14 13  1  0
 15  8  2  0
 16 17  1  0
 16  7  1  0
 18 19  2  0
 19 38  1  0
 20 19  1  0
 20 23  1  0
 21 18  1  0
 21 22  1  0
 22 20  2  0
 23 24  1  0
 24 25  2  0
 26 29  1  0
 26 25  1  0
 27 26  2  0
 28 27  1  0
 28 23  2  0
 29 30  1  0
 30 31  1  0
 31 32  2  0
 33 32  1  0
 33 37  1  0
 34 33  2  0
 35 30  2  0
 35 34  1  0
 36 35  1  0
 38 39  1  0
 39 42  1  0
 39 41  1  0
 40 38  2  0
 43 44  1  0
 43 18  1  0
 45 43  1  0
 46 48  1  0
 48 47  1  0
 50 49  1  0
 50 51  1  0
 52 53  1  0
 52 51  1  0
 53 54  1  0
 54 55  1  0
 56 67  2  0
 57 55  1  0
 57 62  1  0
 58 66  1  0
 58 68  1  0
 59 65  1  0
 59 61  1  0
 60 66  1  0
 61 62  2  0
 61 60  1  0
 63 57  2  0
 64 63  1  0
 64 59  2  0
 65 58  1  0
 66 56  1  0
 68 70  2  0
 69 68  1  0
 71 69  1  0
 72 81  2  0
 72 77  1  0
 73 69  1  0
 73 77  1  0
 74 73  1  0
 75 76  1  0
 75 74  1  0
 76 72  1  0
 77 78  2  0
 78 79  1  0
 80 79  2  0
 81 80  1  0
 82 56  1  0
 82 87  1  0
 82 83  1  0
 83 86  1  1
 83 84  1  0
 85 83  1  0
 87 90  1  0
 88 92  1  0
 88 87  1  0
 89 88  2  0
 92 91  1  0
 94 92  1  0
 94 95  1  0
 94 93  1  0
M  ISO  4   8 100  16 100  54 101  55 101
M  END
>  <TORSDO>  (36) 
F 26

>  <SCORE>  (36) 
-10.642

>  <name>  (36) 
35

>  <ligand_id>  (36) 
35

>  <original_smiles>  (36) 
[H]c1c([H])c([H])c2c(c1[H])C([H])([H])C([H])([H])C([H])([H])C2([H])N([H])C(=O)C1([H])N(C(=O)C([H])(N([H])C(=O)C([H])(N([H])C([H])([H])[H])C([H])([H])[H])C(C([H])([H])[H])(C([H])([H])[H])C([H])([H])[H])C([H])([H])c2c([H])c(OC([H])([H])C([H])([H])OC([H])([H])C([H])([H])OC([H])([H])C([H])([H])N([H])C(=O)C([H])(N([H])C(=O)N3C([H])([H])C([H])([H])C([H])([H])C([H])(n4nc(-c5c([H])c([H])c(Oc6c([H])c([H])c(F)c([H])c6F)c([H])c5[H])c(C(=O)N([H])[H])c4N([H])[H])C3([H])[H])C([H])(C([H])([H])[H])C([H])([H])[H])c([H])c([H])c2C1([H])[H]

>  <smiles>  (36) 
[H]c1c([H])c([H])c2c(c1[H])C([H])([H])C([H])([H])C([H])([H])C2([H])N([H])C(=O)C1([H])N(C(=O)C([H])(N([H])C(=O)C([H])(N([H])C([H])([H])[H])C([H])([H])[H])C(C([H])([H])[H])(C([H])([H])[H])C([H])([H])[H])C([H])([H])c2c([H])c(OC([H])([H])C([H])([H])OC([H])([H])C([H])([H])OC([H])([H])C([H])([H])N([H])C(=O)C([H])(N([H])C(=O)N3C([H])([H])C([H])([H])C([H])([H])C([H])(n4nc(-c5c([H])c([H])c(Oc6c([H])c([H])c(F)c([H])c6F)c([H])c5[H])c(C(=O)N([H])[H])c4N([H])[H])C3([H])[H])C([H])(C([H])([H])[H])C([H])([H])[H])c([H])c([H])c2C1([H])[H]

$$$$
36:0:0
     RDKit          3D

 93100  0  0  1  0  0  0  0  0999 V2000
  -25.8990  -21.2120   19.0570 C   0  0  0  0  0  0  0  0  0  0  0  0
  -26.0580  -21.8370   20.2260 N   0  0  0  0  0  0  0  0  0  0  0  0
  -24.9740  -21.4550   18.2790 O   0  0  0  0  0  0  0  0  0  0  0  0
  -26.8320  -21.5100   20.7890 H   0  0  0  0  0  0  0  0  0  0  0  0
  -25.3530  -23.0320   20.6760 C   0  0  0  0  0  2  0  0  0  0  0  0
  -26.3760  -24.0550   21.1890 C   0  0  0  0  0  2  0  0  0  0  0  0
  -27.1380  -24.5330   20.0870 O   0  0  0  0  0  0  0  0  0  0  0  0
  -28.3580  -25.1470   20.4840 C   0  0  0  0  0  2  0  0  0  0  0  0
  -28.8880  -26.0680   19.3660 C   0  0  0  0  0  2  0  0  0  0  0  0
  -28.7510  -27.4450   19.7120 O   0  0  0  0  0  0  0  0  0  0  0  0
  -24.5440  -31.8850   23.2950 C   0  0  0  0  0  0  0  0  0  0  0  0
  -27.4960  -28.0110   19.7770 C   0  0  0  0  0  0  0  0  0  0  0  0
  -23.4340  -30.5760   21.5120 C   0  0  0  0  0  3  0  0  0  0  0  0
  -24.9880  -29.3030   19.9450 C   0  0  0  0  0  0  0  0  0  0  0  0
  -25.9230  -31.1430   21.3580 C   0  0  0  0  0  2  0  0  0  0  0  0
  -26.1050  -29.8550   20.5830 C   0  0  0  0  0  0  0  0  0  0  0  0
  -27.3590  -29.2160   20.4960 C   0  0  0  0  0  3  0  0  0  0  0  0
  -26.3570  -27.4580   19.1460 C   0  0  0  0  0  3  0  0  0  0  0  0
  -25.1080  -28.1000   19.2280 C   0  0  0  0  0  3  0  0  0  0  0  0
  -23.6870  -30.0580   20.0700 C   0  0  0  0  0  2  0  0  0  0  0  0
  -24.6510  -31.2110   22.1150 N   0  0  0  0  0  0  0  0  0  0  0  0
  -23.4480  -32.0210   23.8570 O   0  0  0  0  0  0  0  0  0  0  0  0
  -22.8660  -29.4170   22.3600 C   0  0  0  0  0  0  0  0  0  0  0  0
  -21.5560  -29.1560   22.2130 N   0  0  0  0  0  0  0  0  0  0  0  0
  -23.5970  -28.7590   23.1050 O   0  0  0  0  0  0  0  0  0  0  0  0
  -21.0260  -29.7490   21.5920 H   0  0  0  0  0  0  0  0  0  0  0  0
  -18.2840  -27.6620   22.5460 C   0  0  0  0  0  0  0  0  0  0  0  0
  -20.8130  -28.0860   22.8750 C   0  0  0  0  0  3  0  0  0  0  0  0
  -21.0310  -26.7310   22.1600 C   0  0  0  0  0  2  0  0  0  0  0  0
  -19.9600  -26.4220   21.1090 C   0  0  0  0  0  2  0  0  0  0  0  0
  -18.5670  -26.4010   21.7450 C   0  0  0  0  0  2  0  0  0  0  0  0
  -19.3390  -28.4600   23.0630 C   0  0  0  0  0  0  0  0  0  0  0  0
  -19.0210  -29.6400   23.7690 C   0  0  0  0  0  3  0  0  0  0  0  0
  -17.6820  -30.0230   23.9650 C   0  0  0  0  0  3  0  0  0  0  0  0
  -16.6420  -29.2220   23.4650 C   0  0  0  0  0  3  0  0  0  0  0  0
  -16.9430  -28.0420   22.7610 C   0  0  0  0  0  3  0  0  0  0  0  0
  -25.7850  -32.5390   23.9810 C   0  0  0  0  0  3  0  0  0  0  0  0
  -26.2300  -31.7970   25.3000 C   0  0  1  0  0  0  0  0  0  0  0  0
  -25.0800  -31.5810   26.3100 C   0  0  0  0  0  1  0  0  0  0  0  0
  -26.8360  -30.4130   24.9690 C   0  0  0  0  0  1  0  0  0  0  0  0
  -27.3390  -32.6090   26.0100 C   0  0  0  0  0  1  0  0  0  0  0  0
  -25.4450  -33.9410   24.2620 N   0  0  0  0  0  0  0  0  0  0  0  0
  -25.8220  -34.9800   23.5050 C   0  0  0  0  0  0  0  0  0  0  0  0
  -26.5590  -34.8600   22.5230 O   0  0  0  0  0  0  0  0  0  0  0  0
  -24.8010  -34.1070   25.0210 H   0  0  0  0  0  0  0  0  0  0  0  0
  -24.1140  -36.7550   22.9880 C   0  0  0  0  0  1  0  0  0  0  0  0
  -25.2930  -36.3730   23.8990 C   0  0  0  0  0  3  0  0  0  0  0  0
  -27.3510  -37.2900   24.8750 C   0  0  0  0  0  1  0  0  0  0  0  0
  -26.3260  -37.4290   23.8450 N   0  0  0  0  0  0  0  0  0  0  0  0
  -25.9040  -38.3510   23.9400 H   0  0  0  0  0  0  0  0  0  0  0  0
  -26.9770  -20.1850   18.6960 C   0  0  0  0  0  2  0  0  0  0  0  0
  -27.5780  -19.6780   19.8860 O   0  0  0  0  0  0  0  0  0  0  0  0
  -28.8160  -19.0240   19.6430 C   0  0  0  0  0  2  0  0  0  0  0  0
  -29.0020  -17.9120   20.6840 C   0  0  0  0  0  2  0  0  0  0  0  0
  -30.3540  -17.1920   20.5420 C   0  0  0  0  0  2  0  0  0  0  0  0
  -30.9870  -14.8150   20.4740 C   0  0  0  0  0  0  0  0  0  0  0  0
  -30.7410  -12.6230   19.3970 C   0  0  0  0  0  2  0  0  0  0  0  0
  -29.8300  -12.7900   18.1630 C   0  0  0  0  0  2  0  0  0  0  0  0
  -28.3410  -12.6770   18.5490 C   0  0  0  0  0  2  0  0  0  0  0  0
  -27.9700  -13.5560   19.7750 C   0  0  0  0  0  3  0  0  0  0  0  0
  -28.9890  -13.3480   20.9190 C   0  0  0  0  0  2  0  0  0  0  0  0
  -30.3380  -13.6260   20.3910 N   0  0  0  0  0  0  0  0  0  0  0  0
  -32.0880  -15.0360   19.9580 O   0  0  0  0  0  0  0  0  0  0  0  0
  -30.2510  -15.8050   20.9880 N   0  0  0  0  0  0  0  0  0  0  0  0
  -29.3980  -15.5290   21.4500 H   0  0  0  0  0  0  0  0  0  0  0  0
  -25.5650  -14.1930   20.4450 C   0  0  0  0  0  0  0  0  0  0  0  0
  -24.4770  -13.4320   20.7770 C   0  0  0  0  0  0  0  0  0  0  0  0
  -24.9150  -12.0740   20.7190 C   0  0  0  0  0  0  0  0  0  0  0  0
  -26.6010  -13.2990   20.2160 N   0  0  0  0  0  0  0  0  0  0  0  0
  -26.2080  -12.0180   20.4320 N   0  0  0  0  0  0  0  0  0  0  0  0
  -24.1640  -10.8190   20.8650 C   0  0  0  0  0  0  0  0  0  0  0  0
  -24.5340   -9.8440   21.8170 C   0  0  0  0  0  3  0  0  0  0  0  0
  -23.7860   -8.6530   21.9510 C   0  0  0  0  0  3  0  0  0  0  0  0
  -22.6550   -8.4300   21.1310 C   0  0  0  0  0  0  0  0  0  0  0  0
  -22.3050   -9.3940   20.1690 C   0  0  0  0  0  3  0  0  0  0  0  0
  -23.0520  -10.5750   20.0340 C   0  0  0  0  0  3  0  0  0  0  0  0
  -21.8860   -7.2920   21.1730 O   0  0  0  0  0  0  0  0  0  0  0  0
  -21.7160   -6.5810   22.3340 C   0  0  0  0  0  0  0  0  0  0  0  0
  -21.1480   -7.1620   23.4900 C   0  0  0  0  0  3  0  0  0  0  0  0
  -20.9290   -6.3760   24.6380 C   0  0  0  0  0  3  0  0  0  0  0  0
  -21.2670   -5.0090   24.6320 C   0  0  0  0  0  0  0  0  0  0  0  0
  -21.8280   -4.4270   23.4810 C   0  0  0  0  0  3  0  0  0  0  0  0
  -22.0500   -5.2110   22.3350 C   0  0  0  0  0  0  0  0  0  0  0  0
  -22.5710   -4.6420   21.2210 F   0  0  0  0  0  0  0  0  0  0  0  0
  -21.0500   -4.2510   25.7310 F   0  0  0  0  0  0  0  0  0  0  0  0
  -23.0840  -13.9260   21.0390 C   0  0  0  0  0  0  0  0  0  0  0  0
  -22.3360  -13.2300   21.8900 N   0  0  0  0  0  0  0  0  0  0  0  0
  -22.6650  -14.9620   20.5250 O   0  0  0  0  0  0  0  0  0  0  0  0
  -22.6870  -12.3910   22.3280 H   0  0  0  0  0  0  0  0  0  0  0  0
  -21.4000  -13.5410   22.1080 H   0  0  0  0  0  0  0  0  0  0  0  0
  -25.7590  -15.5640   20.3010 N   0  0  0  0  0  0  0  0  0  0  0  0
  -25.0050  -16.2330   20.4070 H   0  0  0  0  0  0  0  0  0  0  0  0
  -26.6240  -15.9880   19.9940 H   0  0  0  0  0  0  0  0  0  0  0  0
  1  2  1  0
  2  5  1  0
  2  4  1  0
  3  1  2  0
  5  6  1  0
  7  8  1  0
  7  6  1  0
  9 10  1  0
  9  8  1  0
 10 12  1  0
 11 22  2  0
 12 17  1  0
 13 21  1  0
 13 23  1  0
 14 20  1  0
 14 16  1  0
 15 21  1  0
 16 15  1  0
 17 16  2  0
 18 19  1  0
 18 12  2  0
 19 14  2  0
 20 13  1  0
 21 11  1  0
 23 25  2  0
 24 23  1  0
 26 24  1  0
 27 36  2  0
 27 32  1  0
 28 24  1  0
 28 32  1  0
 29 28  1  0
 30 31  1  0
 30 29  1  0
 31 27  1  0
 32 33  2  0
 33 34  1  0
 35 34  2  0
 36 35  1  0
 37 11  1  0
 37 42  1  0
 37 38  1  0
 38 41  1  1
 38 39  1  0
 40 38  1  0
 42 45  1  0
 43 47  1  0
 43 42  1  0
 44 43  2  0
 47 46  1  0
 49 47  1  0
 49 50  1  0
 49 48  1  0
 51  1  1  0
 51 52  1  0
 53 52  1  0
 53 54  1  0
 55 54  1  0
 55 64  1  0
 56 64  1  0
 57 62  1  0
 58 59  1  0
 58 57  1  0
 60 59  1  0
 60 69  1  0
 60 61  1  0
 62 56  1  0
 62 61  1  0
 63 56  2  0
 64 65  1  0
 66 67  2  0
 67 86  1  0
 68 67  1  0
 68 71  1  0
 69 70  1  0
 69 66  1  0
 70 68  2  0
 71 72  1  0
 72 73  2  0
 74 77  1  0
 74 73  1  0
 75 74  2  0
 76 75  1  0
 76 71  2  0
 77 78  1  0
 78 83  2  0
 78 79  1  0
 79 80  2  0
 81 80  1  0
 81 85  1  0
 82 81  2  0
 83 82  1  0
 84 83  1  0
 86 87  1  0
 87 90  1  0
 87 89  1  0
 88 86  2  0
 91 92  1  0
 91 66  1  0
 93 91  1  0
M  ISO  4   9 101  10 101  56 100  64 100
M  END
>  <TORSDO>  (37) 
F 26

>  <SCORE>  (37) 
-10.289

>  <name>  (37) 
36

>  <ligand_id>  (37) 
36

>  <original_smiles>  (37) 
[H]c1c([H])c([H])c2c(c1[H])C([H])([H])C([H])([H])C([H])([H])C2([H])N([H])C(=O)C1([H])N(C(=O)C([H])(N([H])C(=O)C([H])(N([H])C([H])([H])[H])C([H])([H])[H])C(C([H])([H])[H])(C([H])([H])[H])C([H])([H])[H])C([H])([H])c2c([H])c(OC([H])([H])C([H])([H])OC([H])([H])C([H])([H])N([H])C(=O)C([H])([H])OC([H])([H])C([H])([H])C([H])([H])N([H])C(=O)N3C([H])([H])C([H])([H])C([H])([H])C([H])(n4nc(-c5c([H])c([H])c(Oc6c([H])c([H])c(F)c([H])c6F)c([H])c5[H])c(C(=O)N([H])[H])c4N([H])[H])C3([H])[H])c([H])c([H])c2C1([H])[H]

>  <smiles>  (37) 
[H]c1c([H])c([H])c2c(c1[H])C([H])([H])C([H])([H])C([H])([H])C2([H])N([H])C(=O)C1([H])N(C(=O)C([H])(N([H])C(=O)C([H])(N([H])C([H])([H])[H])C([H])([H])[H])C(C([H])([H])[H])(C([H])([H])[H])C([H])([H])[H])C([H])([H])c2c([H])c(OC([H])([H])C([H])([H])OC([H])([H])C([H])([H])N([H])C(=O)C([H])([H])OC([H])([H])C([H])([H])C([H])([H])N([H])C(=O)N3C([H])([H])C([H])([H])C([H])([H])C([H])(n4nc(-c5c([H])c([H])c(Oc6c([H])c([H])c(F)c([H])c6F)c([H])c5[H])c(C(=O)N([H])[H])c4N([H])[H])C3([H])[H])c([H])c([H])c2C1([H])[H]

$$$$
37:0:0
     RDKit          3D

 99107  0  0  1  0  0  0  0  0999 V2000
  -26.7180  -24.1810   22.7960 C   0  0  0  0  0  2  0  0  0  0  0  0
  -26.3780  -24.5900   20.4700 C   0  0  0  0  0  2  0  0  0  0  0  0
  -25.2410  -24.5240   23.0950 C   0  0  0  0  0  2  0  0  0  0  0  0
  -24.9090  -24.9860   20.7250 C   0  0  0  0  0  2  0  0  0  0  0  0
  -27.1940  -24.9480   21.6360 N   0  0  0  0  0  0  0  0  0  0  0  0
  -24.3860  -24.2640   21.9080 N   0  0  2  0  0  4  0  0  0  0  0  0
  -24.4640  -23.2810   21.6860 H   0  0  0  0  0  0  0  0  0  0  0  0
  -22.9370  -24.4880   22.1420 C   0  0  0  0  0  2  0  0  0  0  0  0
  -22.1190  -23.3390   21.5430 C   0  0  0  0  0  2  0  0  0  0  0  0
  -22.3170  -23.3730   20.1340 O   0  0  0  0  0  0  0  0  0  0  0  0
  -21.7610  -22.2360   19.4870 C   0  0  0  0  0  2  0  0  0  0  0  0
  -21.6720  -22.4930   17.9780 C   0  0  0  0  0  2  0  0  0  0  0  0
  -22.9640  -22.7870   17.4540 O   0  0  0  0  0  0  0  0  0  0  0  0
  -22.8930  -23.2480   16.1090 C   0  0  0  0  0  2  0  0  0  0  0  0
  -24.2740  -23.6560   15.5730 C   0  0  0  0  0  2  0  0  0  0  0  0
  -24.5120  -25.0450   15.8030 O   0  0  0  0  0  0  0  0  0  0  0  0
  -25.5740  -25.6110   15.0350 C   0  0  0  0  0  2  0  0  0  0  0  0
  -25.1070  -25.8890   13.5950 C   0  0  0  0  0  2  0  0  0  0  0  0
  -25.7240  -27.7960   12.0560 C   0  0  0  0  0  0  0  0  0  0  0  0
  -24.4410  -28.7920   10.1930 C   0  0  0  0  0  2  0  0  0  0  0  0
  -23.1790  -29.5220   10.6960 C   0  0  0  0  0  2  0  0  0  0  0  0
  -21.9940  -28.5510   10.8610 C   0  0  0  0  0  2  0  0  0  0  0  0
  -22.3890  -27.2780   11.6500 C   0  0  0  0  0  3  0  0  0  0  0  0
  -23.6680  -26.6750   11.0300 C   0  0  0  0  0  2  0  0  0  0  0  0
  -24.7400  -27.6830   11.1180 N   0  0  0  0  0  0  0  0  0  0  0  0
  -26.4690  -28.7770   12.1140 O   0  0  0  0  0  0  0  0  0  0  0  0
  -26.0210  -26.7350   12.8260 N   0  0  0  0  0  0  0  0  0  0  0  0
  -26.9330  -26.8210   13.2510 H   0  0  0  0  0  0  0  0  0  0  0  0
  -20.7220  -25.6700   12.7830 C   0  0  0  0  0  0  0  0  0  0  0  0
  -19.6950  -24.9200   12.2780 C   0  0  0  0  0  0  0  0  0  0  0  0
  -19.6910  -25.1540   10.8690 C   0  0  0  0  0  0  0  0  0  0  0  0
  -21.2980  -26.3070   11.6930 N   0  0  0  0  0  0  0  0  0  0  0  0
  -20.6980  -25.9470   10.5310 N   0  0  0  0  0  0  0  0  0  0  0  0
  -18.7540  -24.7140    9.8290 C   0  0  0  0  0  0  0  0  0  0  0  0
  -19.2020  -24.0630    8.6610 C   0  0  0  0  0  3  0  0  0  0  0  0
  -18.2810  -23.6350    7.6810 C   0  0  0  0  0  3  0  0  0  0  0  0
  -16.8960  -23.8530    7.8680 C   0  0  0  0  0  0  0  0  0  0  0  0
  -16.4560  -24.5220    9.0240 C   0  0  0  0  0  3  0  0  0  0  0  0
  -17.3760  -24.9520    9.9950 C   0  0  0  0  0  3  0  0  0  0  0  0
  -15.9300  -23.4960    6.9580 O   0  0  0  0  0  0  0  0  0  0  0  0
  -16.1150  -22.4570    6.0830 C   0  0  0  0  0  0  0  0  0  0  0  0
  -16.4240  -21.1530    6.5290 C   0  0  0  0  0  3  0  0  0  0  0  0
  -16.5380  -20.1000    5.6010 C   0  0  0  0  0  3  0  0  0  0  0  0
  -16.3370  -20.3430    4.2300 C   0  0  0  0  0  0  0  0  0  0  0  0
  -16.0230  -21.6380    3.7830 C   0  0  0  0  0  3  0  0  0  0  0  0
  -15.9120  -22.6920    4.7080 C   0  0  0  0  0  0  0  0  0  0  0  0
  -15.5890  -23.9350    4.2750 F   0  0  0  0  0  0  0  0  0  0  0  0
  -16.4370  -19.3290    3.3390 F   0  0  0  0  0  0  0  0  0  0  0  0
  -18.7100  -24.1050   13.0660 C   0  0  0  0  0  0  0  0  0  0  0  0
  -18.2090  -23.0210   12.4870 N   0  0  0  0  0  0  0  0  0  0  0  0
  -18.4160  -24.4020   14.2230 O   0  0  0  0  0  0  0  0  0  0  0  0
  -18.4600  -22.7670   11.5430 H   0  0  0  0  0  0  0  0  0  0  0  0
  -17.5640  -22.4330   12.9980 H   0  0  0  0  0  0  0  0  0  0  0  0
  -21.1970  -25.8790   14.0740 N   0  0  0  0  0  0  0  0  0  0  0  0
  -20.7030  -25.5160   14.8810 H   0  0  0  0  0  0  0  0  0  0  0  0
  -21.9120  -26.5520   14.3220 H   0  0  0  0  0  0  0  0  0  0  0  0
  -28.6110  -24.6750   21.3650 C   0  0  0  0  0  2  0  0  0  0  0  0
  -29.5350  -25.8050   21.8760 C   0  0  0  0  0  2  0  0  0  0  0  0
  -29.7750  -26.7980   20.8790 O   0  0  0  0  0  0  0  0  0  0  0  0
  -24.5680  -31.4360   22.3200 C   0  0  0  0  0  0  0  0  0  0  0  0
  -28.6680  -27.4800   20.4440 C   0  0  0  0  0  0  0  0  0  0  0  0
  -24.3850  -30.2400   20.1630 C   0  0  0  0  0  3  0  0  0  0  0  0
  -26.4460  -28.9120   19.4630 C   0  0  0  0  0  0  0  0  0  0  0  0
  -26.6680  -30.6590   21.2370 C   0  0  0  0  0  2  0  0  0  0  0  0
  -27.1430  -29.3800   20.5840 C   0  0  0  0  0  0  0  0  0  0  0  0
  -28.2530  -28.6670   21.0830 C   0  0  0  0  0  3  0  0  0  0  0  0
  -27.9700  -27.0260   19.3090 C   0  0  0  0  0  3  0  0  0  0  0  0
  -26.8510  -27.7270   18.8230 C   0  0  0  0  0  3  0  0  0  0  0  0
  -25.2720  -29.7390   18.9920 C   0  0  0  0  0  2  0  0  0  0  0  0
  -25.1940  -30.7850   21.3010 N   0  0  0  0  0  0  0  0  0  0  0  0
  -23.3430  -31.6260   22.3020 O   0  0  0  0  0  0  0  0  0  0  0  0
  -23.4320  -29.0970   20.5820 C   0  0  0  0  0  0  0  0  0  0  0  0
  -22.6110  -28.6250   19.6310 N   0  0  0  0  0  0  0  0  0  0  0  0
  -23.4610  -28.6370   21.7270 O   0  0  0  0  0  0  0  0  0  0  0  0
  -22.6520  -29.0530   18.7170 H   0  0  0  0  0  0  0  0  0  0  0  0
  -20.4400  -26.3820   17.8180 C   0  0  0  0  0  0  0  0  0  0  0  0
  -21.6550  -27.5300   19.7900 C   0  0  0  0  0  3  0  0  0  0  0  0
  -22.3840  -26.1810   19.9950 C   0  0  0  0  0  2  0  0  0  0  0  0
  -22.6120  -25.4130   18.6900 C   0  0  0  0  0  2  0  0  0  0  0  0
  -21.2780  -25.1270   17.9940 C   0  0  0  0  0  2  0  0  0  0  0  0
  -20.6260  -27.5160   18.6530 C   0  0  0  0  0  0  0  0  0  0  0  0
  -19.8430  -28.6690   18.4260 C   0  0  0  0  0  3  0  0  0  0  0  0
  -18.8890  -28.6990   17.3920 C   0  0  0  0  0  3  0  0  0  0  0  0
  -18.6980  -27.5670   16.5790 C   0  0  0  0  0  3  0  0  0  0  0  0
  -19.4660  -26.4100   16.7980 C   0  0  0  0  0  3  0  0  0  0  0  0
  -25.3610  -31.9980   23.5440 C   0  0  0  0  0  3  0  0  0  0  0  0
  -24.9260  -33.3850   23.7520 N   0  0  0  0  0  0  0  0  0  0  0  0
  -25.5800  -34.4620   23.2950 C   0  0  0  0  0  0  0  0  0  0  0  0
  -26.6610  -34.3910   22.7080 O   0  0  0  0  0  0  0  0  0  0  0  0
  -24.0220  -33.5160   24.1800 H   0  0  0  0  0  0  0  0  0  0  0  0
  -24.1550  -36.2610   22.2650 C   0  0  0  0  0  1  0  0  0  0  0  0
  -24.9250  -35.8370   23.5260 C   0  0  0  0  0  3  0  0  0  0  0  0
  -26.5110  -36.6770   25.2020 C   0  0  0  0  0  1  0  0  0  0  0  0
  -25.8910  -36.8930   23.8970 N   0  0  0  0  0  0  0  0  0  0  0  0
  -25.4440  -37.8060   23.9030 H   0  0  0  0  0  0  0  0  0  0  0  0
  -25.1660  -31.1450   24.8580 C   0  0  1  0  0  0  0  0  0  0  0  0
  -23.6830  -30.8740   25.2030 C   0  0  0  0  0  1  0  0  0  0  0  0
  -25.8830  -29.7810   24.7370 C   0  0  0  0  0  1  0  0  0  0  0  0
  -25.8130  -31.8750   26.0590 C   0  0  0  0  0  1  0  0  0  0  0  0
  1  3  1  0
  2  4  1  0
  2  5  1  0
  4  6  1  0
  5  1  1  0
  6  8  1  0
  6  3  1  0
  6  7  1  6
  9  8  1  0
 10  9  1  0
 11 10  1  0
 12 11  1  0
 13 12  1  0
 14 13  1  0
 15 16  1  0
 15 14  1  0
 17 16  1  0
 18 17  1  0
 19 26  2  0
 19 27  1  0
 20 21  1  0
 20 25  1  0
 21 22  1  0
 23 22  1  0
 23 32  1  0
 24 25  1  0
 24 23  1  0
 25 19  1  0
 27 28  1  0
 27 18  1  0
 29 54  1  0
 30 29  2  0
 30 49  1  0
 31 30  1  0
 32 29  1  0
 33 31  2  0
 33 32  1  0
 34 39  1  0
 34 31  1  0
 35 34  2  0
 36 37  2  0
 36 35  1  0
 37 38  1  0
 38 39  2  0
 40 37  1  0
 41 42  1  0
 41 40  1  0
 43 42  2  0
 44 43  1  0
 45 44  2  0
 45 46  1  0
 46 41  2  0
 47 46  1  0
 48 44  1  0
 49 51  2  0
 50 53  1  0
 50 49  1  0
 52 50  1  0
 54 56  1  0
 54 55  1  0
 57  5  1  0
 57 58  1  0
 59 58  1  0
 61 59  1  0
 61 66  1  0
 62 72  1  0
 62 70  1  0
 63 65  1  0
 64 70  1  0
 65 66  2  0
 65 64  1  0
 67 61  2  0
 68 67  1  0
 68 63  2  0
 69 63  1  0
 69 62  1  0
 70 60  1  0
 71 60  2  0
 72 74  2  0
 73 72  1  0
 75 73  1  0
 76 80  1  0
 76 81  1  0
 77 73  1  0
 77 78  1  0
 79 78  1  0
 80 79  1  0
 81 77  1  0
 82 81  2  0
 83 82  1  0
 84 85  1  0
 84 83  2  0
 85 76  2  0
 86 60  1  0
 86 87  1  0
 86 96  1  0
 87 90  1  0
 88 92  1  0
 88 87  1  0
 89 88  2  0
 92 91  1  0
 92 94  1  0
 94 95  1  0
 94 93  1  0
 96 97  1  1
 96 99  1  0
 98 96  1  0
M  ISO  4  19 100  27 100  58 101  59 101
M  END
>  <TORSDO>  (38) 
F 29

>  <SCORE>  (38) 
-0.038

>  <name>  (38) 
37

>  <ligand_id>  (38) 
37

>  <original_smiles>  (38) 
[H]c1c([H])c([H])c2c(c1[H])C([H])([H])C([H])([H])C([H])([H])C2([H])N([H])C(=O)C1([H])N(C(=O)C([H])(N([H])C(=O)C([H])(N([H])C([H])([H])[H])C([H])([H])[H])C(C([H])([H])[H])(C([H])([H])[H])C([H])([H])[H])C([H])([H])c2c([H])c(OC([H])([H])C([H])([H])N3C([H])([H])C([H])([H])[N+]([H])(C([H])([H])C([H])([H])OC([H])([H])C([H])([H])OC([H])([H])C([H])([H])OC([H])([H])C([H])([H])N([H])C(=O)N4C([H])([H])C([H])([H])C([H])([H])C([H])(n5nc(-c6c([H])c([H])c(Oc7c([H])c([H])c(F)c([H])c7F)c([H])c6[H])c(C(=O)N([H])[H])c5N([H])[H])C4([H])[H])C([H])([H])C3([H])[H])c([H])c([H])c2C1([H])[H]

>  <smiles>  (38) 
[H]c1c([H])c([H])c2c(c1[H])C([H])([H])C([H])([H])C([H])([H])C2([H])N([H])C(=O)C1([H])N(C(=O)C([H])(N([H])C(=O)C([H])(N([H])C([H])([H])[H])C([H])([H])[H])C(C([H])([H])[H])(C([H])([H])[H])C([H])([H])[H])C([H])([H])c2c([H])c(OC([H])([H])C([H])([H])N3C([H])([H])C([H])([H])[N+]([H])(C([H])([H])C([H])([H])OC([H])([H])C([H])([H])OC([H])([H])C([H])([H])OC([H])([H])C([H])([H])N([H])C(=O)N4C([H])([H])C([H])([H])C([H])([H])C([H])(n5nc(-c6c([H])c([H])c(Oc7c([H])c([H])c(F)c([H])c7F)c([H])c6[H])c(C(=O)N([H])[H])c5N([H])[H])C4([H])[H])C([H])([H])C3([H])[H])c([H])c([H])c2C1([H])[H]

$$$$
38:0:0
     RDKit          3D

 97104  0  0  1  0  0  0  0  0999 V2000
  -24.7310  -18.7130   24.7330 C   0  0  0  0  0  3  0  0  0  0  0  0
  -23.8080  -19.6900   24.6510 C   0  0  0  0  0  3  0  0  0  0  0  0
  -24.4770  -17.3830   24.2090 C   0  0  0  0  0  0  0  0  0  0  0  0
  -25.6210  -16.7240   24.0000 N   0  0  0  0  0  0  0  0  0  0  0  0
  -23.3690  -16.9050   23.9570 O   0  0  0  0  0  0  0  0  0  0  0  0
  -26.4720  -17.1940   24.2800 H   0  0  0  0  0  0  0  0  0  0  0  0
  -25.7850  -15.4630   23.2800 C   0  0  0  0  0  2  0  0  0  0  0  0
  -26.0760  -15.6950   21.7830 C   0  0  0  0  0  2  0  0  0  0  0  0
  -27.2630  -16.6490   21.5230 C   0  0  0  0  0  2  0  0  0  0  0  0
  -28.0980  -16.2680   20.2910 C   0  0  0  0  0  2  0  0  0  0  0  0
  -29.5250  -15.7810   20.5900 C   0  0  0  0  0  2  0  0  0  0  0  0
  -30.3590  -14.1020   18.8200 C   0  0  0  0  0  0  0  0  0  0  0  0
  -30.3140  -11.6550   19.0440 C   0  0  0  0  0  2  0  0  0  0  0  0
  -29.4440  -10.9640   17.9780 C   0  0  0  0  0  2  0  0  0  0  0  0
  -27.9970  -10.8370   18.4750 C   0  0  0  0  0  2  0  0  0  0  0  0
  -27.4410  -12.1880   18.9770 C   0  0  0  0  0  3  0  0  0  0  0  0
  -28.4190  -12.8930   19.9390 C   0  0  0  0  0  2  0  0  0  0  0  0
  -29.7650  -12.9910   19.3410 N   0  0  0  0  0  0  0  0  0  0  0  0
  -31.2160  -14.0470   17.9370 O   0  0  0  0  0  0  0  0  0  0  0  0
  -30.1180  -15.3160   19.3390 N   0  0  0  0  0  0  0  0  0  0  0  0
  -30.5930  -16.0410   18.8210 H   0  0  0  0  0  0  0  0  0  0  0  0
  -25.1860  -13.0040   19.9200 C   0  0  0  0  0  0  0  0  0  0  0  0
  -24.0970  -12.3280   20.4010 C   0  0  0  0  0  0  0  0  0  0  0  0
  -24.4330  -10.9410   20.3380 C   0  0  0  0  0  0  0  0  0  0  0  0
  -26.1210  -12.0340   19.5890 N   0  0  0  0  0  0  0  0  0  0  0  0
  -25.6760  -10.7890   19.9000 N   0  0  0  0  0  0  0  0  0  0  0  0
  -23.6210   -9.7470   20.6120 C   0  0  0  0  0  0  0  0  0  0  0  0
  -23.9070   -8.8940   21.7000 C   0  0  0  0  0  3  0  0  0  0  0  0
  -23.1030   -7.7610   21.9540 C   0  0  0  0  0  3  0  0  0  0  0  0
  -21.9990   -7.4740   21.1170 C   0  0  0  0  0  0  0  0  0  0  0  0
  -21.7300   -8.3150   20.0220 C   0  0  0  0  0  3  0  0  0  0  0  0
  -22.5340   -9.4390   19.7690 C   0  0  0  0  0  3  0  0  0  0  0  0
  -21.1780   -6.3820   21.2700 O   0  0  0  0  0  0  0  0  0  0  0  0
  -20.8300   -5.9120   22.5120 C   0  0  0  0  0  0  0  0  0  0  0  0
  -20.1300   -6.7110   23.4420 C   0  0  0  0  0  3  0  0  0  0  0  0
  -19.7310   -6.1650   24.6780 C   0  0  0  0  0  3  0  0  0  0  0  0
  -20.0250   -4.8210   24.9830 C   0  0  0  0  0  0  0  0  0  0  0  0
  -20.7190   -4.0240   24.0570 C   0  0  0  0  0  3  0  0  0  0  0  0
  -21.1180   -4.5680   22.8230 C   0  0  0  0  0  0  0  0  0  0  0  0
  -21.7680   -3.7900   21.9240 F   0  0  0  0  0  0  0  0  0  0  0  0
  -19.6350   -4.2950   26.1670 F   0  0  0  0  0  0  0  0  0  0  0  0
  -22.7790  -12.9250   20.8030 C   0  0  0  0  0  0  0  0  0  0  0  0
  -22.0830  -12.2960   21.7430 N   0  0  0  0  0  0  0  0  0  0  0  0
  -22.3800  -13.9810   20.3140 O   0  0  0  0  0  0  0  0  0  0  0  0
  -22.4170  -11.4370   22.1560 H   0  0  0  0  0  0  0  0  0  0  0  0
  -21.2020  -12.6800   22.0560 H   0  0  0  0  0  0  0  0  0  0  0  0
  -25.4520  -14.3530   19.7130 N   0  0  0  0  0  0  0  0  0  0  0  0
  -24.7750  -15.0770   19.9260 H   0  0  0  0  0  0  0  0  0  0  0  0
  -26.3120  -14.7150   19.3190 H   0  0  0  0  0  0  0  0  0  0  0  0
  -24.0240  -21.0880   25.1950 C   0  0  0  0  0  2  0  0  0  0  0  0
  -23.6950  -22.1090   24.2600 O   0  0  0  0  0  0  0  0  0  0  0  0
  -24.3840  -22.0590   23.0150 C   0  0  0  0  0  2  0  0  0  0  0  0
  -24.6420  -23.5170   22.5950 C   0  0  0  0  0  2  0  0  0  0  0  0
  -25.5260  -23.6180   21.4800 O   0  0  0  0  0  0  0  0  0  0  0  0
  -26.2160  -24.8670   21.4720 C   0  0  0  0  0  2  0  0  0  0  0  0
  -26.9510  -25.1190   20.1320 C   0  0  0  0  0  2  0  0  0  0  0  0
  -27.4760  -26.4530   20.0260 O   0  0  0  0  0  0  0  0  0  0  0  0
  -25.8980  -30.7440   25.4320 C   0  0  0  0  0  0  0  0  0  0  0  0
  -26.6510  -27.4630   20.4630 C   0  0  0  0  0  0  0  0  0  0  0  0
  -24.2040  -30.6200   23.6340 C   0  0  0  0  0  3  0  0  0  0  0  0
  -24.9500  -29.4710   21.4830 C   0  0  0  0  0  0  0  0  0  0  0  0
  -26.6800  -30.2320   23.1230 C   0  0  0  0  0  2  0  0  0  0  0  0
  -26.2420  -29.3160   22.0010 C   0  0  0  0  0  0  0  0  0  0  0  0
  -27.0990  -28.3220   21.4870 C   0  0  0  0  0  3  0  0  0  0  0  0
  -25.3500  -27.6390   19.9370 C   0  0  0  0  0  3  0  0  0  0  0  0
  -24.4980  -28.6360   20.4460 C   0  0  0  0  0  3  0  0  0  0  0  0
  -24.0960  -30.5630   22.0860 C   0  0  0  0  0  2  0  0  0  0  0  0
  -25.6180  -30.5140   24.1170 N   0  0  0  0  0  0  0  0  0  0  0  0
  -25.0090  -31.0810   26.2260 O   0  0  0  0  0  0  0  0  0  0  0  0
  -23.2690  -29.5450   24.2330 C   0  0  0  0  0  0  0  0  0  0  0  0
  -21.9940  -29.5630   23.8150 N   0  0  0  0  0  0  0  0  0  0  0  0
  -23.6990  -28.7050   25.0280 O   0  0  0  0  0  0  0  0  0  0  0  0
  -21.7200  -30.2890   23.1660 H   0  0  0  0  0  0  0  0  0  0  0  0
  -18.6630  -28.4150   23.0180 C   0  0  0  0  0  0  0  0  0  0  0  0
  -20.9440  -28.6260   24.2140 C   0  0  0  0  0  3  0  0  0  0  0  0
  -21.2410  -27.2050   23.6850 C   0  0  0  0  0  2  0  0  0  0  0  0
  -20.5820  -26.9160   22.3320 C   0  0  0  0  0  2  0  0  0  0  0  0
  -19.0620  -27.0730   22.4270 C   0  0  0  0  0  2  0  0  0  0  0  0
  -19.5520  -29.1520   23.8430 C   0  0  0  0  0  0  0  0  0  0  0  0
  -19.1460  -30.4100   24.3390 C   0  0  0  0  0  3  0  0  0  0  0  0
  -17.8750  -30.9290   24.0280 C   0  0  0  0  0  3  0  0  0  0  0  0
  -16.9920  -30.1900   23.2220 C   0  0  0  0  0  3  0  0  0  0  0  0
  -17.3850  -28.9350   22.7220 C   0  0  0  0  0  3  0  0  0  0  0  0
  -27.3480  -30.6180   25.9940 C   0  0  0  0  0  3  0  0  0  0  0  0
  -27.6240  -31.8270   26.7830 N   0  0  0  0  0  0  0  0  0  0  0  0
  -28.3560  -32.8630   26.3550 C   0  0  0  0  0  0  0  0  0  0  0  0
  -28.9370  -32.8680   25.2660 O   0  0  0  0  0  0  0  0  0  0  0  0
  -27.1340  -31.9150   27.6610 H   0  0  0  0  0  0  0  0  0  0  0  0
  -27.5060  -35.1900   26.7880 C   0  0  0  0  0  1  0  0  0  0  0  0
  -28.4600  -34.0900   27.2820 C   0  0  0  0  0  3  0  0  0  0  0  0
  -30.7440  -33.7440   28.1080 C   0  0  0  0  0  1  0  0  0  0  0  0
  -29.8310  -34.6310   27.3920 N   0  0  0  0  0  0  0  0  0  0  0  0
  -29.8260  -35.5290   27.8670 H   0  0  0  0  0  0  0  0  0  0  0  0
  -27.5670  -29.3210   26.8650 C   0  0  1  0  0  0  0  0  0  0  0  0
  -26.5100  -29.1310   27.9770 C   0  0  0  0  0  1  0  0  0  0  0  0
  -27.5470  -28.0560   25.9740 C   0  0  0  0  0  1  0  0  0  0  0  0
  -28.9600  -29.3710   27.5360 C   0  0  0  0  0  1  0  0  0  0  0  0
  2  1  2  0
  2 50  1  0
  3  1  1  0
  4  3  1  0
  4  6  1  0
  5  3  2  0
  7  4  1  0
  8  7  1  0
  9  8  1  0
 10 11  1  0
 10  9  1  0
 12 20  1  0
 12 18  1  0
 13 18  1  0
 14 15  1  0
 14 13  1  0
 16 15  1  0
 16 25  1  0
 16 17  1  0
 18 17  1  0
 19 12  2  0
 20 11  1  0
 21 20  1  0
 22 23  2  0
 23 42  1  0
 24 23  1  0
 24 27  1  0
 25 26  1  0
 25 22  1  0
 26 24  2  0
 27 28  1  0
 28 29  2  0
 30 33  1  0
 30 29  1  0
 31 30  2  0
 32 31  1  0
 32 27  2  0
 33 34  1  0
 34 39  2  0
 34 35  1  0
 35 36  2  0
 36 37  1  0
 37 41  1  0
 38 37  2  0
 39 38  1  0
 40 39  1  0
 42 43  1  0
 43 46  1  0
 43 45  1  0
 44 42  2  0
 47 22  1  0
 47 48  1  0
 49 47  1  0
 51 50  1  0
 52 51  1  0
 53 52  1  0
 54 53  1  0
 55 54  1  0
 56 55  1  0
 57 56  1  0
 57 59  1  0
 58 69  2  0
 59 64  1  0
 60 68  1  0
 60 70  1  0
 61 63  1  0
 61 67  1  0
 62 68  1  0
 63 62  1  0
 64 63  2  0
 65 66  1  0
 65 59  2  0
 66 61  2  0
 67 60  1  0
 68 58  1  0
 70 72  2  0
 71 70  1  0
 73 71  1  0
 74 79  1  0
 75 71  1  0
 76 75  1  0
 77 78  1  0
 77 76  1  0
 78 74  1  0
 79 75  1  0
 79 80  2  0
 81 80  1  0
 82 81  2  0
 83 74  2  0
 83 82  1  0
 84 58  1  0
 84 85  1  0
 84 94  1  0
 85 88  1  0
 86 85  1  0
 86 90  1  0
 87 86  2  0
 90 89  1  0
 90 92  1  0
 92 93  1  0
 92 91  1  0
 94 97  1  1
 94 95  1  0
 96 94  1  0
M  ISO  4  12 100  20 100  56 101  57 101
M  END
>  <TORSDO>  (39) 
F 29

>  <SCORE>  (39) 
34.815

>  <name>  (39) 
38

>  <ligand_id>  (39) 
38

>  <original_smiles>  (39) 
[H]C(C(=O)N([H])C([H])([H])C([H])([H])C([H])([H])C([H])([H])C([H])([H])N([H])C(=O)N1C([H])([H])C([H])([H])C([H])([H])C([H])(n2nc(-c3c([H])c([H])c(Oc4c([H])c([H])c(F)c([H])c4F)c([H])c3[H])c(C(=O)N([H])[H])c2N([H])[H])C1([H])[H])=C([H])C([H])([H])OC([H])([H])C([H])([H])OC([H])([H])C([H])([H])Oc1c([H])c([H])c2c(c1[H])C([H])([H])N(C(=O)C([H])(N([H])C(=O)C([H])(N([H])C([H])([H])[H])C([H])([H])[H])C(C([H])([H])[H])(C([H])([H])[H])C([H])([H])[H])C([H])(C(=O)N([H])C1([H])c3c([H])c([H])c([H])c([H])c3C([H])([H])C([H])([H])C1([H])[H])C2([H])[H]

>  <smiles>  (39) 
[H]C(C(=O)N([H])C([H])([H])C([H])([H])C([H])([H])C([H])([H])C([H])([H])N([H])C(=O)N1C([H])([H])C([H])([H])C([H])([H])C([H])(n2nc(-c3c([H])c([H])c(Oc4c([H])c([H])c(F)c([H])c4F)c([H])c3[H])c(C(=O)N([H])[H])c2N([H])[H])C1([H])[H])=C([H])C([H])([H])OC([H])([H])C([H])([H])OC([H])([H])C([H])([H])Oc1c([H])c([H])c2c(c1[H])C([H])([H])N(C(=O)C([H])(N([H])C(=O)C([H])(N([H])C([H])([H])[H])C([H])([H])[H])C(C([H])([H])[H])(C([H])([H])[H])C([H])([H])[H])C([H])(C(=O)N([H])C1([H])c3c([H])c([H])c([H])c([H])c3C([H])([H])C([H])([H])C1([H])[H])C2([H])[H]

$$$$
39:0:0
     RDKit          3D

 96103  0  0  1  0  0  0  0  0999 V2000
  -28.1680  -21.3460   18.9370 C   0  0  0  0  0  2  0  0  0  0  0  0
  -29.4810  -23.1530   19.9760 C   0  0  0  0  0  0  0  0  0  0  0  0
  -28.8970  -22.6070   18.9020 N   0  0  0  0  0  0  0  0  0  0  0  0
  -29.7530  -22.5030   20.9860 O   0  0  0  0  0  0  0  0  0  0  0  0
  -28.7690  -23.1820   18.0800 H   0  0  0  0  0  0  0  0  0  0  0  0
  -29.7120  -24.6660   19.9460 C   0  0  0  0  0  2  0  0  0  0  0  0
  -28.3700  -25.3900   19.7490 C   0  0  0  0  0  2  0  0  0  0  0  0
  -28.4120  -26.7610   20.1330 O   0  0  0  0  0  0  0  0  0  0  0  0
  -24.5920  -31.8870   23.2290 C   0  0  0  0  0  0  0  0  0  0  0  0
  -27.2120  -27.4450   20.1410 C   0  0  0  0  0  0  0  0  0  0  0  0
  -23.3700  -30.4870   21.5970 C   0  0  0  0  0  3  0  0  0  0  0  0
  -24.8110  -28.9420   20.1740 C   0  0  0  0  0  0  0  0  0  0  0  0
  -25.8950  -30.8390   21.3850 C   0  0  0  0  0  2  0  0  0  0  0  0
  -25.9730  -29.4670   20.7520 C   0  0  0  0  0  0  0  0  0  0  0  0
  -27.1730  -28.7250   20.7370 C   0  0  0  0  0  3  0  0  0  0  0  0
  -26.0240  -26.9280   19.5670 C   0  0  0  0  0  3  0  0  0  0  0  0
  -24.8290  -27.6690   19.5830 C   0  0  0  0  0  3  0  0  0  0  0  0
  -23.5710  -29.8020   20.2180 C   0  0  0  0  0  2  0  0  0  0  0  0
  -24.6380  -31.0850   22.1290 N   0  0  0  0  0  0  0  0  0  0  0  0
  -23.5160  -32.1660   23.7750 O   0  0  0  0  0  0  0  0  0  0  0  0
  -22.7220  -29.4690   22.5640 C   0  0  0  0  0  0  0  0  0  0  0  0
  -21.3960  -29.2960   22.4420 N   0  0  0  0  0  0  0  0  0  0  0  0
  -23.4060  -28.8420   23.3760 O   0  0  0  0  0  0  0  0  0  0  0  0
  -20.9050  -29.8540   21.7580 H   0  0  0  0  0  0  0  0  0  0  0  0
  -18.0160  -28.1200   22.9510 C   0  0  0  0  0  0  0  0  0  0  0  0
  -20.5770  -28.3650   23.2170 C   0  0  0  0  0  3  0  0  0  0  0  0
  -20.6720  -26.9330   22.6450 C   0  0  0  0  0  2  0  0  0  0  0  0
  -19.5660  -26.6120   21.6340 C   0  0  0  0  0  2  0  0  0  0  0  0
  -18.1850  -26.7670   22.2800 C   0  0  0  0  0  2  0  0  0  0  0  0
  -19.1400  -28.8770   23.3760 C   0  0  0  0  0  0  0  0  0  0  0  0
  -18.9310  -30.1460   23.9600 C   0  0  0  0  0  3  0  0  0  0  0  0
  -17.6300  -30.6550   24.1280 C   0  0  0  0  0  3  0  0  0  0  0  0
  -16.5210  -29.8950   23.7190 C   0  0  0  0  0  3  0  0  0  0  0  0
  -16.7150  -28.6300   23.1340 C   0  0  0  0  0  3  0  0  0  0  0  0
  -25.8850  -32.5110   23.8420 C   0  0  0  0  0  3  0  0  0  0  0  0
  -25.5840  -33.9070   24.1830 N   0  0  0  0  0  0  0  0  0  0  0  0
  -25.9120  -34.9610   23.4240 C   0  0  0  0  0  0  0  0  0  0  0  0
  -26.5730  -34.8610   22.3870 O   0  0  0  0  0  0  0  0  0  0  0  0
  -25.0060  -34.0610   24.9970 H   0  0  0  0  0  0  0  0  0  0  0  0
  -24.1810  -36.7520   23.0900 C   0  0  0  0  0  1  0  0  0  0  0  0
  -25.4300  -36.3480   23.8910 C   0  0  0  0  0  3  0  0  0  0  0  0
  -27.5740  -37.2240   24.7030 C   0  0  0  0  0  1  0  0  0  0  0  0
  -26.4620  -37.4020   23.7730 N   0  0  0  0  0  0  0  0  0  0  0  0
  -26.0570  -38.3210   23.9340 H   0  0  0  0  0  0  0  0  0  0  0  0
  -26.4140  -31.7280   25.1060 C   0  0  1  0  0  0  0  0  0  0  0  0
  -25.3320  -31.4830   26.1830 C   0  0  0  0  0  1  0  0  0  0  0  0
  -26.9900  -30.3540   24.6910 C   0  0  0  0  0  1  0  0  0  0  0  0
  -27.5770  -32.5130   25.7590 C   0  0  0  0  0  1  0  0  0  0  0  0
  -27.9720  -20.7620   17.5340 C   0  0  0  0  0  2  0  0  0  0  0  0
  -29.2380  -20.3520   17.0390 O   0  0  0  0  0  0  0  0  0  0  0  0
  -29.1440  -19.3920   15.9940 C   0  0  0  0  0  2  0  0  0  0  0  0
  -30.5360  -18.8170   15.6860 C   0  0  0  0  0  2  0  0  0  0  0  0
  -31.0330  -18.0120   16.7590 O   0  0  0  0  0  0  0  0  0  0  0  0
  -31.6400  -18.7490   17.8220 C   0  0  0  0  0  2  0  0  0  0  0  0
  -30.7820  -18.7180   19.0990 C   0  0  0  0  0  2  0  0  0  0  0  0
  -31.1000  -17.5810   19.8890 O   0  0  0  0  0  0  0  0  0  0  0  0
  -30.5000  -17.6320   21.1780 C   0  0  0  0  0  2  0  0  0  0  0  0
  -30.9300  -16.4110   22.0050 C   0  0  0  0  0  2  0  0  0  0  0  0
  -30.7440  -14.4090   20.5310 C   0  0  0  0  0  0  0  0  0  0  0  0
  -30.3570  -12.3390   19.2450 C   0  0  0  0  0  2  0  0  0  0  0  0
  -29.4230  -12.5850   18.0470 C   0  0  0  0  0  2  0  0  0  0  0  0
  -27.9490  -12.4500   18.4720 C   0  0  0  0  0  2  0  0  0  0  0  0
  -27.6200  -13.2830   19.7380 C   0  0  0  0  0  3  0  0  0  0  0  0
  -28.6590  -13.0210   20.8500 C   0  0  0  0  0  2  0  0  0  0  0  0
  -30.0040  -13.2930   20.3060 N   0  0  0  0  0  0  0  0  0  0  0  0
  -31.7730  -14.6780   19.9070 O   0  0  0  0  0  0  0  0  0  0  0  0
  -30.3060  -15.1790   21.5310 N   0  0  0  0  0  0  0  0  0  0  0  0
  -29.4780  -14.8630   22.0130 H   0  0  0  0  0  0  0  0  0  0  0  0
  -25.2120  -13.9170   20.4030 C   0  0  0  0  0  0  0  0  0  0  0  0
  -24.1370  -13.1550   20.7750 C   0  0  0  0  0  0  0  0  0  0  0  0
  -24.5930  -11.8010   20.7750 C   0  0  0  0  0  0  0  0  0  0  0  0
  -26.2580  -13.0280   20.2030 N   0  0  0  0  0  0  0  0  0  0  0  0
  -25.8860  -11.7510   20.4820 N   0  0  0  0  0  0  0  0  0  0  0  0
  -23.8610  -10.5450   20.9820 C   0  0  0  0  0  0  0  0  0  0  0  0
  -24.2980   -9.5830   21.9190 C   0  0  0  0  0  3  0  0  0  0  0  0
  -23.5680   -8.3910   22.1130 C   0  0  0  0  0  3  0  0  0  0  0  0
  -22.3880   -8.1520   21.3690 C   0  0  0  0  0  0  0  0  0  0  0  0
  -21.9710   -9.1030   20.4210 C   0  0  0  0  0  3  0  0  0  0  0  0
  -22.7020  -10.2870   20.2260 C   0  0  0  0  0  3  0  0  0  0  0  0
  -21.6290   -7.0110   21.4720 O   0  0  0  0  0  0  0  0  0  0  0  0
  -21.6000   -6.2670   22.6240 C   0  0  0  0  0  0  0  0  0  0  0  0
  -21.2280   -6.8280   23.8640 C   0  0  0  0  0  3  0  0  0  0  0  0
  -21.1450   -6.0120   25.0100 C   0  0  0  0  0  3  0  0  0  0  0  0
  -21.4230   -4.6350   24.9160 C   0  0  0  0  0  0  0  0  0  0  0  0
  -21.7880   -4.0730   23.6810 C   0  0  0  0  0  3  0  0  0  0  0  0
  -21.8730   -4.8870   22.5370 C   0  0  0  0  0  0  0  0  0  0  0  0
  -22.2050   -4.3360   21.3440 F   0  0  0  0  0  0  0  0  0  0  0  0
  -21.3350   -3.8490   26.0140 F   0  0  0  0  0  0  0  0  0  0  0  0
  -22.7380  -13.6410   21.0250 C   0  0  0  0  0  0  0  0  0  0  0  0
  -22.0020  -12.9650   21.9010 N   0  0  0  0  0  0  0  0  0  0  0  0
  -22.3070  -14.6560   20.4790 O   0  0  0  0  0  0  0  0  0  0  0  0
  -22.3620  -12.1430   22.3620 H   0  0  0  0  0  0  0  0  0  0  0  0
  -21.0630  -13.2740   22.1110 H   0  0  0  0  0  0  0  0  0  0  0  0
  -25.3860  -15.2820   20.2000 N   0  0  0  0  0  0  0  0  0  0  0  0
  -24.6270  -15.9490   20.2940 H   0  0  0  0  0  0  0  0  0  0  0  0
  -26.2490  -15.7070   19.8870 H   0  0  0  0  0  0  0  0  0  0  0  0
  2  4  2  0
  3  1  1  0
  3  2  1  0
  5  3  1  0
  6  2  1  0
  7  6  1  0
  7  8  1  0
  8 10  1  0
  9 20  2  0
 10 15  1  0
 11 19  1  0
 11 21  1  0
 12 18  1  0
 12 14  1  0
 13 19  1  0
 14 13  1  0
 15 14  2  0
 16 17  1  0
 16 10  2  0
 17 12  2  0
 18 11  1  0
 19  9  1  0
 21 23  2  0
 22 21  1  0
 24 22  1  0
 25 34  2  0
 25 30  1  0
 26 22  1  0
 26 30  1  0
 27 26  1  0
 28 29  1  0
 28 27  1  0
 29 25  1  0
 30 31  2  0
 31 32  1  0
 33 32  2  0
 34 33  1  0
 35  9  1  0
 35 36  1  0
 35 45  1  0
 36 39  1  0
 37 41  1  0
 37 36  1  0
 38 37  2  0
 41 40  1  0
 43 41  1  0
 43 44  1  0
 43 42  1  0
 45 48  1  1
 45 46  1  0
 47 45  1  0
 49  1  1  0
 50 49  1  0
 51 50  1  0
 52 51  1  0
 52 53  1  0
 53 54  1  0
 54 55  1  0
 55 56  1  0
 56 57  1  0
 57 58  1  0
 59 67  1  0
 60 65  1  0
 61 62  1  0
 61 60  1  0
 63 62  1  0
 63 72  1  0
 63 64  1  0
 65 59  1  0
 65 64  1  0
 66 59  2  0
 67 58  1  0
 67 68  1  0
 69 70  2  0
 70 89  1  0
 71 70  1  0
 71 74  1  0
 72 69  1  0
 72 73  1  0
 73 71  2  0
 74 75  1  0
 75 76  2  0
 77 80  1  0
 77 76  1  0
 78 77  2  0
 79 78  1  0
 79 74  2  0
 80 81  1  0
 81 82  1  0
 82 83  2  0
 84 83  1  0
 84 88  1  0
 85 84  2  0
 86 81  2  0
 86 85  1  0
 87 86  1  0
 89 90  1  0
 90 93  1  0
 90 92  1  0
 91 89  2  0
 94 95  1  0
 94 69  1  0
 96 94  1  0
M  ISO  4   7 101   8 101  59 100  67 100
M  END
>  <TORSDO>  (40) 
F 29

>  <SCORE>  (40) 
-11.280

>  <name>  (40) 
39

>  <ligand_id>  (40) 
39

>  <original_smiles>  (40) 
[H]c1c([H])c([H])c2c(c1[H])C([H])([H])C([H])([H])C([H])([H])C2([H])N([H])C(=O)C1([H])N(C(=O)C([H])(N([H])C(=O)C([H])(N([H])C([H])([H])[H])C([H])([H])[H])C(C([H])([H])[H])(C([H])([H])[H])C([H])([H])[H])C([H])([H])c2c([H])c(OC([H])([H])C([H])([H])C(=O)N([H])C([H])([H])C([H])([H])OC([H])([H])C([H])([H])OC([H])([H])C([H])([H])OC([H])([H])C([H])([H])N([H])C(=O)N3C([H])([H])C([H])([H])C([H])([H])C([H])(n4nc(-c5c([H])c([H])c(Oc6c([H])c([H])c(F)c([H])c6F)c([H])c5[H])c(C(=O)N([H])[H])c4N([H])[H])C3([H])[H])c([H])c([H])c2C1([H])[H]

>  <smiles>  (40) 
[H]c1c([H])c([H])c2c(c1[H])C([H])([H])C([H])([H])C([H])([H])C2([H])N([H])C(=O)C1([H])N(C(=O)C([H])(N([H])C(=O)C([H])(N([H])C([H])([H])[H])C([H])([H])[H])C(C([H])([H])[H])(C([H])([H])[H])C([H])([H])[H])C([H])([H])c2c([H])c(OC([H])([H])C([H])([H])C(=O)N([H])C([H])([H])C([H])([H])OC([H])([H])C([H])([H])OC([H])([H])C([H])([H])OC([H])([H])C([H])([H])N([H])C(=O)N3C([H])([H])C([H])([H])C([H])([H])C([H])(n4nc(-c5c([H])c([H])c(Oc6c([H])c([H])c(F)c([H])c6F)c([H])c5[H])c(C(=O)N([H])[H])c4N([H])[H])C3([H])[H])c([H])c([H])c2C1([H])[H]

$$$$
40:0:0
     RDKit          3D

 97104  0  0  1  0  0  0  0  0999 V2000
  -31.3640  -23.5110   21.3640 N   0  0  0  0  0  4  0  0  0  0  0  0
  -30.6790  -24.2520   21.3460 H   0  0  0  0  0  0  0  0  0  0  0  0
  -32.0130  -23.7200   22.1070 H   0  0  0  0  0  0  0  0  0  0  0  0
  -30.6870  -22.2340   21.7090 C   0  0  0  0  0  2  0  0  0  0  0  0
  -29.9900  -21.5560   20.5160 C   0  0  0  0  0  2  0  0  0  0  0  0
  -30.8690  -20.6050   19.9200 O   0  0  0  0  0  0  0  0  0  0  0  0
  -30.1690  -19.6850   19.0940 C   0  0  0  0  0  2  0  0  0  0  0  0
  -30.9750  -18.4010   18.8590 C   0  0  0  0  0  2  0  0  0  0  0  0
  -31.2550  -17.7490   20.0950 O   0  0  0  0  0  0  0  0  0  0  0  0
  -31.3350  -16.3360   19.9590 C   0  0  0  0  0  2  0  0  0  0  0  0
  -31.7230  -15.6910   21.3020 C   0  0  0  0  0  2  0  0  0  0  0  0
  -31.6930  -13.2150   20.9800 C   0  0  0  0  0  0  0  0  0  0  0  0
  -31.4340  -10.7620   20.8680 C   0  0  0  0  0  2  0  0  0  0  0  0
  -30.7000  -10.2970   19.5960 C   0  0  0  0  0  2  0  0  0  0  0  0
  -29.1720  -10.3450   19.7780 C   0  0  0  0  0  2  0  0  0  0  0  0
  -28.6920  -11.6980   20.3650 C   0  0  0  0  0  3  0  0  0  0  0  0
  -29.5280  -12.0840   21.6040 C   0  0  0  0  0  2  0  0  0  0  0  0
  -30.9550  -12.1030   21.2260 N   0  0  0  0  0  0  0  0  0  0  0  0
  -32.7930  -13.2010   20.4250 O   0  0  0  0  0  0  0  0  0  0  0  0
  -31.1600  -14.3490   21.4450 N   0  0  0  0  0  0  0  0  0  0  0  0
  -30.2830  -14.2630   21.9380 H   0  0  0  0  0  0  0  0  0  0  0  0
  -26.3310  -12.6940   20.6350 C   0  0  0  0  0  0  0  0  0  0  0  0
  -25.1240  -12.1150   20.9290 C   0  0  0  0  0  0  0  0  0  0  0  0
  -25.3900  -10.7240   21.1130 C   0  0  0  0  0  0  0  0  0  0  0  0
  -27.2610  -11.6670   20.6630 N   0  0  0  0  0  0  0  0  0  0  0  0
  -26.6900  -10.4840   21.0050 N   0  0  0  0  0  0  0  0  0  0  0  0
  -24.4740   -9.5950   21.3320 C   0  0  0  0  0  0  0  0  0  0  0  0
  -24.4140   -8.9270   22.5750 C   0  0  0  0  0  3  0  0  0  0  0  0
  -23.5140   -7.8580   22.7700 C   0  0  0  0  0  3  0  0  0  0  0  0
  -22.6590   -7.4480   21.7180 C   0  0  0  0  0  0  0  0  0  0  0  0
  -22.7390   -8.1020   20.4760 C   0  0  0  0  0  3  0  0  0  0  0  0
  -23.6380   -9.1650   20.2830 C   0  0  0  0  0  3  0  0  0  0  0  0
  -21.7740   -6.4030   21.8080 O   0  0  0  0  0  0  0  0  0  0  0  0
  -21.0250   -6.1870   22.9380 C   0  0  0  0  0  0  0  0  0  0  0  0
  -20.0850   -7.1340   23.3990 C   0  0  0  0  0  3  0  0  0  0  0  0
  -19.2900   -6.8430   24.5260 C   0  0  0  0  0  3  0  0  0  0  0  0
  -19.4250   -5.6050   25.1830 C   0  0  0  0  0  0  0  0  0  0  0  0
  -20.3570   -4.6600   24.7210 C   0  0  0  0  0  3  0  0  0  0  0  0
  -21.1540   -4.9500   23.5990 C   0  0  0  0  0  0  0  0  0  0  0  0
  -22.0350   -4.0280   23.1440 F   0  0  0  0  0  0  0  0  0  0  0  0
  -18.6550   -5.3220   26.2600 F   0  0  0  0  0  0  0  0  0  0  0  0
  -23.7850  -12.7920   20.9440 C   0  0  0  0  0  0  0  0  0  0  0  0
  -22.8540  -12.2880   21.7460 N   0  0  0  0  0  0  0  0  0  0  0  0
  -23.5730  -13.8040   20.2790 O   0  0  0  0  0  0  0  0  0  0  0  0
  -23.0380  -11.4690   22.3060 H   0  0  0  0  0  0  0  0  0  0  0  0
  -21.9470  -12.7310   21.8010 H   0  0  0  0  0  0  0  0  0  0  0  0
  -26.7100  -13.9980   20.3300 N   0  0  0  0  0  0  0  0  0  0  0  0
  -26.0440  -14.7610   20.2760 H   0  0  0  0  0  0  0  0  0  0  0  0
  -27.6500  -14.2780   20.0830 H   0  0  0  0  0  0  0  0  0  0  0  0
  -32.1170  -23.4940   20.0890 C   0  0  0  0  0  2  0  0  0  0  0  0
  -32.8810  -24.8040   19.8050 C   0  0  0  0  0  2  0  0  0  0  0  0
  -32.0080  -25.9890   19.3680 C   0  0  0  0  0  2  0  0  0  0  0  0
  -31.1600  -25.6360   18.2790 O   0  0  0  0  0  0  0  0  0  0  0  0
  -30.1920  -26.6470   18.0110 C   0  0  0  0  0  2  0  0  0  0  0  0
  -29.0960  -26.1140   17.0730 C   0  0  0  0  0  2  0  0  0  0  0  0
  -27.7290  -26.7950   17.2920 C   0  0  0  0  0  2  0  0  0  0  0  0
  -27.2510  -26.5420   18.6170 O   0  0  0  0  0  0  0  0  0  0  0  0
  -24.8420  -30.9160   23.7030 C   0  0  0  0  0  0  0  0  0  0  0  0
  -26.2530  -27.3890   19.0380 C   0  0  0  0  0  0  0  0  0  0  0  0
  -23.2440  -30.3830   21.8920 C   0  0  0  0  0  3  0  0  0  0  0  0
  -24.2230  -29.1610   19.8750 C   0  0  0  0  0  0  0  0  0  0  0  0
  -25.7610  -30.3350   21.4620 C   0  0  0  0  0  2  0  0  0  0  0  0
  -25.5040  -29.2530   20.4320 C   0  0  0  0  0  0  0  0  0  0  0  0
  -26.5220  -28.3620   20.0240 C   0  0  0  0  0  3  0  0  0  0  0  0
  -24.9540  -27.2900   18.4990 C   0  0  0  0  0  3  0  0  0  0  0  0
  -23.9360  -28.1720   18.9150 C   0  0  0  0  0  3  0  0  0  0  0  0
  -23.2000  -30.1660   20.3530 C   0  0  0  0  0  2  0  0  0  0  0  0
  -24.6420  -30.5320   22.4110 N   0  0  0  0  0  0  0  0  0  0  0  0
  -23.8910  -31.1820   24.4490 O   0  0  0  0  0  0  0  0  0  0  0  0
  -22.4560  -29.2400   22.5720 C   0  0  0  0  0  0  0  0  0  0  0  0
  -21.1230  -29.2520   22.4080 N   0  0  0  0  0  0  0  0  0  0  0  0
  -23.0410  -28.3580   23.2060 O   0  0  0  0  0  0  0  0  0  0  0  0
  -20.7170  -30.0140   21.8850 H   0  0  0  0  0  0  0  0  0  0  0  0
  -17.6450  -28.2790   22.4450 C   0  0  0  0  0  0  0  0  0  0  0  0
  -20.1840  -28.2560   22.9240 C   0  0  0  0  0  3  0  0  0  0  0  0
  -20.2290  -26.9610   22.0810 C   0  0  0  0  0  2  0  0  0  0  0  0
  -19.1900  -26.9390   20.9560 C   0  0  0  0  0  2  0  0  0  0  0  0
  -17.7770  -27.0750   21.5300 C   0  0  0  0  0  2  0  0  0  0  0  0
  -18.7780  -28.8440   23.0880 C   0  0  0  0  0  0  0  0  0  0  0  0
  -18.6050  -29.9840   23.9030 C   0  0  0  0  0  3  0  0  0  0  0  0
  -17.3320  -30.5580   24.0790 C   0  0  0  0  0  3  0  0  0  0  0  0
  -16.2120  -29.9850   23.4540 C   0  0  0  0  0  3  0  0  0  0  0  0
  -16.3670  -28.8470   22.6430 C   0  0  0  0  0  3  0  0  0  0  0  0
  -26.2790  -31.0610   24.2970 C   0  0  0  0  0  3  0  0  0  0  0  0
  -26.3800  -32.4000   24.8920 N   0  0  0  0  0  0  0  0  0  0  0  0
  -27.0150  -33.4350   24.3250 C   0  0  0  0  0  0  0  0  0  0  0  0
  -27.6420  -33.3360   23.2660 O   0  0  0  0  0  0  0  0  0  0  0  0
  -25.8360  -32.5670   25.7260 H   0  0  0  0  0  0  0  0  0  0  0  0
  -25.9000  -35.6860   24.3520 C   0  0  0  0  0  1  0  0  0  0  0  0
  -26.9420  -34.7940   25.0430 C   0  0  0  0  0  3  0  0  0  0  0  0
  -29.2080  -34.8520   25.9900 C   0  0  0  0  0  1  0  0  0  0  0  0
  -28.2420  -35.4970   25.1040 N   0  0  0  0  0  0  0  0  0  0  0  0
  -28.1170  -36.4550   25.4180 H   0  0  0  0  0  0  0  0  0  0  0  0
  -26.6290  -29.9460   25.3590 C   0  0  1  0  0  0  0  0  0  0  0  0
  -25.5640  -29.7850   26.4700 C   0  0  0  0  0  1  0  0  0  0  0  0
  -26.8040  -28.5740   24.6670 C   0  0  0  0  0  1  0  0  0  0  0  0
  -27.9770  -30.2790   26.0380 C   0  0  0  0  0  1  0  0  0  0  0  0
  1  4  1  0
  1  3  1  0
  2  1  1  0
  5  4  1  0
  6  5  1  0
  7  6  1  0
  8  7  1  0
  8  9  1  0
 10  9  1  0
 10 11  1  0
 11 20  1  0
 12 18  1  0
 12 20  1  0
 13 18  1  0
 14 15  1  0
 14 13  1  0
 16 15  1  0
 16 25  1  0
 16 17  1  0
 18 17  1  0
 19 12  2  0
 20 21  1  0
 22 25  1  0
 22 23  2  0
 23 42  1  0
 23 24  1  0
 24 27  1  0
 25 26  1  0
 26 24  2  0
 27 28  1  0
 28 29  2  0
 30 33  1  0
 30 29  1  0
 31 30  2  0
 32 31  1  0
 32 27  2  0
 33 34  1  0
 34 35  2  0
 34 39  1  0
 35 36  1  0
 36 37  2  0
 37 41  1  0
 38 37  1  0
 39 38  2  0
 40 39  1  0
 42 43  1  0
 43 46  1  0
 43 45  1  0
 44 42  2  0
 47 22  1  0
 48 47  1  0
 49 47  1  0
 50  1  1  0
 51 50  1  0
 52 51  1  0
 53 52  1  0
 54 53  1  0
 55 56  1  0
 55 54  1  0
 56 57  1  0
 57 59  1  0
 58 69  2  0
 59 64  1  0
 60 68  1  0
 60 70  1  0
 61 67  1  0
 61 63  1  0
 62 68  1  0
 63 62  1  0
 64 63  2  0
 65 66  1  0
 65 59  2  0
 66 61  2  0
 67 60  1  0
 68 58  1  0
 70 72  2  0
 71 70  1  0
 73 71  1  0
 74 83  2  0
 74 79  1  0
 75 71  1  0
 75 79  1  0
 76 75  1  0
 77 78  1  0
 77 76  1  0
 78 74  1  0
 79 80  2  0
 80 81  1  0
 82 81  2  0
 83 82  1  0
 84 58  1  0
 84 85  1  0
 84 94  1  0
 85 88  1  0
 86 85  1  0
 86 90  1  0
 87 86  2  0
 90 89  1  0
 90 92  1  0
 92 93  1  0
 92 91  1  0
 94 97  1  1
 94 95  1  0
 96 94  1  0
M  ISO  4  12 100  20 100  56 101  57 101
M  END
>  <TORSDO>  (41) 
F 31

>  <SCORE>  (41) 
-7.307

>  <name>  (41) 
40

>  <ligand_id>  (41) 
40

>  <original_smiles>  (41) 
[H]c1c([H])c([H])c2c(c1[H])C([H])([H])C([H])([H])C([H])([H])C2([H])N([H])C(=O)C1([H])N(C(=O)C([H])(N([H])C(=O)C([H])(N([H])C([H])([H])[H])C([H])([H])[H])C(C([H])([H])[H])(C([H])([H])[H])C([H])([H])[H])C([H])([H])c2c([H])c(OC([H])([H])C([H])([H])C([H])([H])OC([H])([H])C([H])([H])C([H])([H])[N+]([H])([H])C([H])([H])C([H])([H])OC([H])([H])C([H])([H])OC([H])([H])C([H])([H])N([H])C(=O)N3C([H])([H])C([H])([H])C([H])([H])C([H])(n4nc(-c5c([H])c([H])c(Oc6c([H])c([H])c(F)c([H])c6F)c([H])c5[H])c(C(=O)N([H])[H])c4N([H])[H])C3([H])[H])c([H])c([H])c2C1([H])[H]

>  <smiles>  (41) 
[H]c1c([H])c([H])c2c(c1[H])C([H])([H])C([H])([H])C([H])([H])C2([H])N([H])C(=O)C1([H])N(C(=O)C([H])(N([H])C(=O)C([H])(N([H])C([H])([H])[H])C([H])([H])[H])C(C([H])([H])[H])(C([H])([H])[H])C([H])([H])[H])C([H])([H])c2c([H])c(OC([H])([H])C([H])([H])C([H])([H])OC([H])([H])C([H])([H])C([H])([H])[N+]([H])([H])C([H])([H])C([H])([H])OC([H])([H])C([H])([H])OC([H])([H])C([H])([H])N([H])C(=O)N3C([H])([H])C([H])([H])C([H])([H])C([H])(n4nc(-c5c([H])c([H])c(Oc6c([H])c([H])c(F)c([H])c6F)c([H])c5[H])c(C(=O)N([H])[H])c4N([H])[H])C3([H])[H])c([H])c([H])c2C1([H])[H]

$$$$
41:0:0
     RDKit          3D

 98105  0  0  1  0  0  0  0  0999 V2000
  -28.1100  -18.6830   17.1420 C   0  0  0  0  0  2  0  0  0  0  0  0
  -28.1890  -19.7510   18.1120 O   0  0  0  0  0  0  0  0  0  0  0  0
  -28.3540  -21.0770   17.5880 C   0  0  0  0  0  2  0  0  0  0  0  0
  -29.0390  -22.0230   18.6210 C   0  0  0  0  0  2  0  0  0  0  0  0
  -28.6300  -24.4760   19.0620 C   0  0  0  0  0  0  0  0  0  0  0  0
  -28.2610  -23.1760   19.1310 N   0  0  0  0  0  0  0  0  0  0  0  0
  -29.4090  -24.8880   18.2000 O   0  0  0  0  0  0  0  0  0  0  0  0
  -27.5610  -22.9530   19.8280 H   0  0  0  0  0  0  0  0  0  0  0  0
  -28.1340  -25.4320   20.1780 C   0  0  0  0  0  2  0  0  0  0  0  0
  -28.3340  -26.8400   19.8700 O   0  0  0  0  0  0  0  0  0  0  0  0
  -24.6540  -31.8560   23.4220 C   0  0  0  0  0  0  0  0  0  0  0  0
  -27.2040  -27.6310   19.9420 C   0  0  0  0  0  0  0  0  0  0  0  0
  -23.4210  -30.6000   21.6900 C   0  0  0  0  0  3  0  0  0  0  0  0
  -24.8400  -29.1770   20.1240 C   0  0  0  0  0  0  0  0  0  0  0  0
  -25.9510  -30.9430   21.4950 C   0  0  0  0  0  2  0  0  0  0  0  0
  -26.0150  -29.6260   20.7410 C   0  0  0  0  0  0  0  0  0  0  0  0
  -27.2040  -28.8600   20.6500 C   0  0  0  0  0  3  0  0  0  0  0  0
  -26.0160  -27.2210   19.3000 C   0  0  0  0  0  3  0  0  0  0  0  0
  -24.8350  -27.9730   19.4020 C   0  0  0  0  0  3  0  0  0  0  0  0
  -23.6090  -30.0420   20.2570 C   0  0  0  0  0  2  0  0  0  0  0  0
  -24.6950  -31.1430   22.2610 N   0  0  0  0  0  0  0  0  0  0  0  0
  -23.5800  -32.0910   23.9930 O   0  0  0  0  0  0  0  0  0  0  0  0
  -22.7740  -29.5040   22.5690 C   0  0  0  0  0  0  0  0  0  0  0  0
  -21.4520  -29.3150   22.4170 N   0  0  0  0  0  0  0  0  0  0  0  0
  -23.4570  -28.8320   23.3460 O   0  0  0  0  0  0  0  0  0  0  0  0
  -20.9610  -29.9150   21.7700 H   0  0  0  0  0  0  0  0  0  0  0  0
  -18.1000  -28.0070   22.7490 C   0  0  0  0  0  0  0  0  0  0  0  0
  -20.6400  -28.3160   23.1120 C   0  0  0  0  0  3  0  0  0  0  0  0
  -20.7990  -26.9200   22.4680 C   0  0  0  0  0  2  0  0  0  0  0  0
  -19.7360  -26.6200   21.4060 C   0  0  0  0  0  2  0  0  0  0  0  0
  -18.3330  -26.6970   22.0140 C   0  0  0  0  0  2  0  0  0  0  0  0
  -19.1840  -28.7740   23.2520 C   0  0  0  0  0  0  0  0  0  0  0  0
  -18.9140  -30.0000   23.8970 C   0  0  0  0  0  3  0  0  0  0  0  0
  -17.5910  -30.4590   24.0470 C   0  0  0  0  0  3  0  0  0  0  0  0
  -16.5210  -29.6880   23.5600 C   0  0  0  0  0  3  0  0  0  0  0  0
  -16.7760  -28.4640   22.9180 C   0  0  0  0  0  3  0  0  0  0  0  0
  -25.9490  -32.4300   24.0750 C   0  0  0  0  0  3  0  0  0  0  0  0
  -26.4750  -31.5590   25.2810 C   0  0  1  0  0  0  0  0  0  0  0  0
  -25.3940  -31.2520   26.3440 C   0  0  0  0  0  1  0  0  0  0  0  0
  -27.0380  -30.2100   24.7760 C   0  0  0  0  0  1  0  0  0  0  0  0
  -27.6420  -32.2890   25.9860 C   0  0  0  0  0  1  0  0  0  0  0  0
  -25.6540  -33.8000   24.5140 N   0  0  0  0  0  0  0  0  0  0  0  0
  -26.0130  -34.9060   23.8490 C   0  0  0  0  0  0  0  0  0  0  0  0
  -26.7000  -34.8780   22.8230 O   0  0  0  0  0  0  0  0  0  0  0  0
  -25.0490  -33.8970   25.3160 H   0  0  0  0  0  0  0  0  0  0  0  0
  -24.3210  -36.7520   23.6040 C   0  0  0  0  0  1  0  0  0  0  0  0
  -25.5340  -36.2600   24.4100 C   0  0  0  0  0  3  0  0  0  0  0  0
  -27.6670  -37.0280   25.3530 C   0  0  0  0  0  1  0  0  0  0  0  0
  -26.5860  -37.3000   24.4110 N   0  0  0  0  0  0  0  0  0  0  0  0
  -26.1910  -38.2100   24.6340 H   0  0  0  0  0  0  0  0  0  0  0  0
  -27.8950  -17.3580   17.9210 C   0  0  0  0  0  2  0  0  0  0  0  0
  -27.7480  -16.0620   17.2460 O   0  0  0  0  0  0  0  0  0  0  0  0
  -27.1940  -15.0770   18.1590 C   0  0  0  0  0  3  0  0  0  0  0  0
  -27.3710  -13.4870   18.0080 C   0  0  0  0  0  3  0  0  0  0  0  0
  -26.9760  -12.3570   18.9040 O   0  0  0  0  0  0  0  0  0  0  0  0
  -27.6500  -11.6380   20.0730 C   0  0  0  0  0  3  0  0  0  0  0  0
  -28.7150  -10.3620   19.5400 C   0  0  0  0  0  2  0  0  0  0  0  0
  -29.8190   -9.5990   20.3710 O   0  0  0  0  0  0  0  0  0  0  0  0
  -31.3050   -9.7660   20.7950 C   0  0  0  0  0  2  0  0  0  0  0  0
  -32.0500  -10.3480   22.1850 C   0  0  0  0  0  2  0  0  0  0  0  0
  -33.9260  -12.3310   21.9800 C   0  0  0  0  0  0  0  0  0  0  0  0
  -33.4580  -12.0510   19.8510 C   0  0  0  0  0  2  0  0  0  0  0  0
  -32.6060  -12.5570   18.7600 C   0  0  0  0  0  2  0  0  0  0  0  0
  -31.2150  -12.5930   19.2450 C   0  0  0  0  0  2  0  0  0  0  0  0
  -30.9880  -13.4340   20.5630 C   0  0  0  0  0  3  0  0  0  0  0  0
  -31.8960  -13.2170   21.6700 C   0  0  0  0  0  2  0  0  0  0  0  0
  -33.1080  -12.6940   21.1220 N   0  0  0  0  0  0  0  0  0  0  0  0
  -35.0300  -12.9070   22.0040 O   0  0  0  0  0  0  0  0  0  0  0  0
  -33.4600  -11.0660   22.3630 N   0  0  0  0  0  0  0  0  0  0  0  0
  -34.1300  -10.5440   22.9100 H   0  0  0  0  0  0  0  0  0  0  0  0
  -28.4400  -14.6400   21.0260 C   0  0  0  0  0  3  0  0  0  0  0  0
  -26.9390  -13.9290   21.3170 C   0  0  0  0  0  3  0  0  0  0  0  0
  -27.1350  -12.1790   21.7430 C   0  0  2  0  0  0  0  0  0  0  0  0
  -29.7450  -13.3840   21.1900 N   0  0  0  0  0  2  0  0  0  0  0  0
  -28.8990  -11.7860   21.7440 N   0  0  0  0  0  1  0  0  0  0  0  0
  -26.1510  -11.2000   21.6540 C   0  0  0  0  0  0  0  0  0  0  0  0
  -26.2410  -10.1010   22.4950 C   0  0  0  0  0  3  0  0  0  0  0  0
  -25.2250   -9.1500   22.4300 C   0  0  0  0  0  3  0  0  0  0  0  0
  -24.1540   -9.3210   21.5200 C   0  0  0  0  0  0  0  0  0  0  0  0
  -24.1320  -10.3990   20.6240 C   0  0  0  0  0  3  0  0  0  0  0  0
  -25.1470  -11.3480   20.6840 C   0  0  0  0  0  3  0  0  0  0  0  0
  -23.1090   -8.4530   21.4470 O   0  0  0  0  0  0  0  0  0  0  0  0
  -22.6860   -7.8100   22.5760 C   0  0  0  0  0  0  0  0  0  0  0  0
  -22.2580   -8.5180   23.7200 C   0  0  0  0  0  3  0  0  0  0  0  0
  -21.7840   -7.8090   24.8400 C   0  0  0  0  0  3  0  0  0  0  0  0
  -21.7250   -6.4040   24.8080 C   0  0  0  0  0  0  0  0  0  0  0  0
  -22.1590   -5.7020   23.6680 C   0  0  0  0  0  3  0  0  0  0  0  0
  -22.6440   -6.4060   22.5560 C   0  0  0  0  0  0  0  0  0  0  0  0
  -23.0560   -5.7400   21.4510 F   0  0  0  0  0  0  0  0  0  0  0  0
  -21.2460   -5.7190   25.8720 F   0  0  0  0  0  0  0  0  0  0  0  0
  -25.7510  -14.7200   21.6530 C   0  0  0  0  0  0  0  0  0  0  0  0
  -24.8880  -14.1650   22.4890 N   0  0  0  0  0  0  0  0  0  0  0  0
  -25.6510  -15.8670   21.2400 O   0  0  0  0  0  0  0  0  0  0  0  0
  -25.0080  -13.2270   22.8330 H   0  0  0  0  0  0  0  0  0  0  0  0
  -24.0820  -14.6960   22.7860 H   0  0  0  0  0  0  0  0  0  0  0  0
  -28.7940  -15.9550   21.1740 N   0  0  0  0  0  0  0  0  0  0  0  0
  -29.7120  -16.2960   21.4220 H   0  0  0  0  0  0  0  0  0  0  0  0
  -28.0710  -16.6580   21.2460 H   0  0  0  0  0  0  0  0  0  0  0  0
  1 51  1  0
  1  2  1  0
  3  2  1  0
  3  4  1  0
  4  6  1  0
  5  6  1  0
  5  9  1  0
  6  8  1  0
  7  5  2  0
 10 12  1  0
 10  9  1  0
 11 22  2  0
 12 17  1  0
 13 21  1  0
 13 23  1  0
 14 20  1  0
 14 16  1  0
 15 21  1  0
 16 15  1  0
 17 16  2  0
 18 19  1  0
 18 12  2  0
 19 14  2  0
 20 13  1  0
 21 11  1  0
 23 25  2  0
 24 23  1  0
 26 24  1  0
 27 36  2  0
 27 32  1  0
 28 24  1  0
 28 32  1  0
 29 28  1  0
 30 31  1  0
 30 29  1  0
 31 27  1  0
 32 33  2  0
 33 34  1  0
 35 34  2  0
 36 35  1  0
 37 11  1  0
 37 42  1  0
 37 38  1  0
 38 41  1  1
 38 39  1  0
 40 38  1  0
 42 45  1  0
 43 47  1  0
 43 42  1  0
 44 43  2  0
 47 46  1  0
 47 49  1  0
 49 50  1  0
 49 48  1  0
 52 51  1  0
 52 53  1  0
 54 53  2  0
 54 55  1  0
 56 55  1  0
 56 73  1  0
 57 56  1  0
 57 58  1  0
 58 59  1  0
 59 60  1  0
 60 69  1  0
 61 68  2  0
 61 69  1  0
 62 67  1  0
 63 64  1  0
 63 62  1  0
 65 64  1  0
 65 74  1  0
 65 66  1  0
 67 66  1  0
 67 61  1  0
 69 70  1  0
 71 96  1  0
 71 74  1  0
 71 72  1  0
 72 91  1  0
 72 73  1  0
 73 75  1  1
 76 73  1  0
 76 77  1  0
 78 77  2  0
 79 78  1  0
 80 81  1  0
 80 79  2  0
 81 76  2  0
 82 79  1  0
 82 83  1  0
 83 84  1  0
 84 85  2  0
 86 85  1  0
 86 90  1  0
 87 86  2  0
 88 83  2  0
 88 87  1  0
 89 88  1  0
 91 92  1  0
 92 95  1  0
 92 94  1  0
 93 91  2  0
 96 98  1  0
 96 97  1  0
M  ISO  4   9 101  10 101  61 100  69 100
M  END
>  <TORSDO>  (42) 
F 31

>  <SCORE>  (42) 
-3.021

>  <name>  (42) 
41

>  <ligand_id>  (42) 
41

>  <original_smiles>  (42) 
[H]c1c([H])c([H])c2c(c1[H])C([H])([H])C([H])([H])C([H])([H])C2([H])N([H])C(=O)C1([H])N(C(=O)C([H])(N([H])C(=O)C([H])(N([H])C([H])([H])[H])C([H])([H])[H])C(C([H])([H])[H])(C([H])([H])[H])C([H])([H])[H])C([H])([H])c2c([H])c(OC([H])([H])C(=O)N([H])C([H])([H])C([H])([H])OC([H])([H])C([H])([H])OC([H])([H])C([H])([H])OC([H])([H])C([H])([H])OC([H])([H])C([H])([H])N([H])C(=O)N3C([H])([H])C([H])([H])C([H])([H])C([H])(n4nc(-c5c([H])c([H])c(Oc6c([H])c([H])c(F)c([H])c6F)c([H])c5[H])c(C(=O)N([H])[H])c4N([H])[H])C3([H])[H])c([H])c([H])c2C1([H])[H]

>  <smiles>  (42) 
[H]c1c([H])c([H])c2c(c1[H])C([H])([H])C([H])([H])C([H])([H])C2([H])N([H])C(=O)C1([H])N(C(=O)C([H])(N([H])C(=O)C([H])(N([H])C([H])([H])[H])C([H])([H])[H])C(C([H])([H])[H])(C([H])([H])[H])C([H])([H])[H])C([H])([H])c2c([H])c(OC([H])([H])C(=O)N([H])C([H])([H])C([H])([H])OC([H])([H])C([H])([H])OC([H])([H])C([H])([H])OC([H])([H])C([H])([H])OC([H])([H])C([H])([H])N([H])C(=O)N3C([H])([H])C([H])([H])C([H])([H])C([H])(n4nc(-c5c([H])c([H])c(Oc6c([H])c([H])c(F)c([H])c6F)c([H])c5[H])c(C(=O)N([H])[H])c4N([H])[H])C3([H])[H])c([H])c([H])c2C1([H])[H]

$$$$
43:0:0
     RDKit          3D

 95102  0  0  1  0  0  0  0  0999 V2000
  -31.7120  -20.1590   17.6740 C   0  0  0  0  0  2  0  0  0  0  0  0
  -32.8240  -19.4240   18.4490 C   0  0  0  0  0  2  0  0  0  0  0  0
  -31.6120  -17.4110   19.3440 C   0  0  0  0  0  0  0  0  0  0  0  0
  -32.3290  -18.5330   19.4980 N   0  0  0  0  0  0  0  0  0  0  0  0
  -31.2250  -17.0110   18.2440 O   0  0  0  0  0  0  0  0  0  0  0  0
  -32.6030  -18.7680   20.4440 H   0  0  0  0  0  0  0  0  0  0  0  0
  -31.2740  -16.6420   20.6460 C   0  0  0  0  0  3  0  0  0  0  0  0
  -31.4140  -14.2050   19.9950 C   0  0  0  0  0  0  0  0  0  0  0  0
  -30.9110  -12.1380   18.7590 C   0  0  0  0  0  2  0  0  0  0  0  0
  -29.9330  -12.4850   17.6160 C   0  0  0  0  0  2  0  0  0  0  0  0
  -28.4700  -12.4780   18.1080 C   0  0  0  0  0  2  0  0  0  0  0  0
  -28.2690  -13.2590   19.4320 C   0  0  0  0  0  3  0  0  0  0  0  0
  -29.3430  -12.8600   20.4690 C   0  0  0  0  0  2  0  0  0  0  0  0
  -30.6550  -13.0900   19.8470 N   0  0  0  0  0  0  0  0  0  0  0  0
  -32.5780  -14.2850   19.5970 O   0  0  0  0  0  0  0  0  0  0  0  0
  -30.7430  -15.2800   20.4470 N   0  0  0  0  0  0  0  0  0  0  0  0
  -29.7550  -15.1600   20.5900 H   0  0  0  0  0  0  0  0  0  0  0  0
  -25.9370  -14.0320   20.2080 C   0  0  0  0  0  0  0  0  0  0  0  0
  -24.8320  -13.3350   20.6140 C   0  0  0  0  0  0  0  0  0  0  0  0
  -25.2040  -11.9560   20.5930 C   0  0  0  0  0  0  0  0  0  0  0  0
  -26.9170  -13.0830   19.9590 N   0  0  0  0  0  0  0  0  0  0  0  0
  -26.4790  -11.8300   20.2490 N   0  0  0  0  0  0  0  0  0  0  0  0
  -24.4030  -10.7460   20.8230 C   0  0  0  0  0  0  0  0  0  0  0  0
  -24.7870   -9.7760   21.7760 C   0  0  0  0  0  3  0  0  0  0  0  0
  -23.9900   -8.6290   21.9880 C   0  0  0  0  0  3  0  0  0  0  0  0
  -22.7990   -8.4470   21.2480 C   0  0  0  0  0  0  0  0  0  0  0  0
  -22.4380   -9.4030   20.2830 C   0  0  0  0  0  3  0  0  0  0  0  0
  -23.2330  -10.5400   20.0680 C   0  0  0  0  0  3  0  0  0  0  0  0
  -21.9790   -7.3510   21.3680 O   0  0  0  0  0  0  0  0  0  0  0  0
  -21.8740   -6.6560   22.5440 C   0  0  0  0  0  0  0  0  0  0  0  0
  -21.4790   -7.2830   23.7480 C   0  0  0  0  0  3  0  0  0  0  0  0
  -21.3180   -6.5190   24.9190 C   0  0  0  0  0  3  0  0  0  0  0  0
  -21.5380   -5.1290   24.8930 C   0  0  0  0  0  0  0  0  0  0  0  0
  -21.9310   -4.5030   23.6950 C   0  0  0  0  0  3  0  0  0  0  0  0
  -22.0950   -5.2630   22.5260 C   0  0  0  0  0  0  0  0  0  0  0  0
  -22.4490   -4.6510   21.3700 F   0  0  0  0  0  0  0  0  0  0  0  0
  -21.3790   -4.3930   26.0160 F   0  0  0  0  0  0  0  0  0  0  0  0
  -23.4760  -13.9040   20.9200 C   0  0  0  0  0  0  0  0  0  0  0  0
  -22.7380  -13.2740   21.8270 N   0  0  0  0  0  0  0  0  0  0  0  0
  -23.0820  -14.9420   20.3850 O   0  0  0  0  0  0  0  0  0  0  0  0
  -23.0750  -12.4360   22.2780 H   0  0  0  0  0  0  0  0  0  0  0  0
  -21.8230  -13.6290   22.0690 H   0  0  0  0  0  0  0  0  0  0  0  0
  -26.1780  -15.3860   20.0080 N   0  0  0  0  0  0  0  0  0  0  0  0
  -25.4520  -16.0820   20.1360 H   0  0  0  0  0  0  0  0  0  0  0  0
  -27.0380  -15.7740   19.6490 H   0  0  0  0  0  0  0  0  0  0  0  0
  -28.9400  -17.7970   20.9950 C   0  0  0  0  0  1  0  0  0  0  0  0
  -30.2070  -16.8320   22.9720 C   0  0  0  0  0  1  0  0  0  0  0  0
  -30.3310  -17.4690   21.5780 C   0  0  0  0  0  3  0  0  0  0  0  0
  -30.9500  -21.0090   18.5270 O   0  0  0  0  0  0  0  0  0  0  0  0
  -29.8290  -21.5650   17.8450 C   0  0  0  0  0  2  0  0  0  0  0  0
  -29.1260  -22.6440   18.6890 C   0  0  0  0  0  2  0  0  0  0  0  0
  -29.6470  -23.9110   18.3060 O   0  0  0  0  0  0  0  0  0  0  0  0
  -28.7850  -25.0110   18.5810 C   0  0  0  0  0  2  0  0  0  0  0  0
  -28.6450  -25.2720   20.0930 C   0  0  0  0  0  2  0  0  0  0  0  0
  -28.5930  -26.6660   20.3670 O   0  0  0  0  0  0  0  0  0  0  0  0
  -24.6560  -31.7990   23.2440 C   0  0  0  0  0  0  0  0  0  0  0  0
  -27.3860  -27.3290   20.3050 C   0  0  0  0  0  0  0  0  0  0  0  0
  -23.4900  -30.3640   21.5990 C   0  0  0  0  0  3  0  0  0  0  0  0
  -24.9780  -28.8060   20.2410 C   0  0  0  0  0  0  0  0  0  0  0  0
  -26.0190  -30.7310   21.4570 C   0  0  0  0  0  2  0  0  0  0  0  0
  -26.1210  -29.3530   20.8380 C   0  0  0  0  0  0  0  0  0  0  0  0
  -27.3240  -28.6230   20.8620 C   0  0  0  0  0  3  0  0  0  0  0  0
  -26.2220  -26.7810   19.7150 C   0  0  0  0  0  3  0  0  0  0  0  0
  -25.0210  -27.5150   19.6850 C   0  0  0  0  0  3  0  0  0  0  0  0
  -23.7290  -29.6540   20.2410 C   0  0  0  0  0  2  0  0  0  0  0  0
  -24.7390  -30.9770   22.1590 N   0  0  0  0  0  0  0  0  0  0  0  0
  -23.5610  -32.0790   23.7500 O   0  0  0  0  0  0  0  0  0  0  0  0
  -22.8170  -29.3620   22.5620 C   0  0  0  0  0  0  0  0  0  0  0  0
  -21.5010  -29.1530   22.3910 N   0  0  0  0  0  0  0  0  0  0  0  0
  -23.4790  -28.7680   23.4170 O   0  0  0  0  0  0  0  0  0  0  0  0
  -21.0260  -29.6830   21.6740 H   0  0  0  0  0  0  0  0  0  0  0  0
  -18.1340  -27.9080   22.7810 C   0  0  0  0  0  0  0  0  0  0  0  0
  -20.6710  -28.2270   23.1580 C   0  0  0  0  0  3  0  0  0  0  0  0
  -20.8270  -26.7780   22.6440 C   0  0  0  0  0  2  0  0  0  0  0  0
  -19.7820  -26.3970   21.5910 C   0  0  0  0  0  2  0  0  0  0  0  0
  -18.3680  -26.5390   22.1650 C   0  0  0  0  0  2  0  0  0  0  0  0
  -19.2170  -28.7080   23.2330 C   0  0  0  0  0  0  0  0  0  0  0  0
  -18.9470  -29.9870   23.7640 C   0  0  0  0  0  3  0  0  0  0  0  0
  -17.6290  -30.4710   23.8430 C   0  0  0  0  0  3  0  0  0  0  0  0
  -16.5570  -29.6690   23.4130 C   0  0  0  0  0  3  0  0  0  0  0  0
  -16.8110  -28.3890   22.8870 C   0  0  0  0  0  3  0  0  0  0  0  0
  -25.9290  -32.4440   23.8790 C   0  0  0  0  0  3  0  0  0  0  0  0
  -26.4390  -31.6860   25.1650 C   0  0  1  0  0  0  0  0  0  0  0  0
  -25.3350  -31.4360   26.2210 C   0  0  0  0  0  1  0  0  0  0  0  0
  -27.0500  -30.3150   24.7920 C   0  0  0  0  0  1  0  0  0  0  0  0
  -27.5690  -32.5000   25.8370 C   0  0  0  0  0  1  0  0  0  0  0  0
  -25.6030  -33.8410   24.1960 N   0  0  0  0  0  0  0  0  0  0  0  0
  -25.9400  -34.8900   23.4340 C   0  0  0  0  0  0  0  0  0  0  0  0
  -26.6220  -34.7850   22.4120 O   0  0  0  0  0  0  0  0  0  0  0  0
  -24.9890  -33.9960   24.9820 H   0  0  0  0  0  0  0  0  0  0  0  0
  -24.1930  -36.6570   23.0580 C   0  0  0  0  0  1  0  0  0  0  0  0
  -25.4380  -36.2770   23.8750 C   0  0  0  0  0  3  0  0  0  0  0  0
  -27.5590  -37.1890   24.7040 C   0  0  0  0  0  1  0  0  0  0  0  0
  -26.4590  -37.3390   23.7540 N   0  0  0  0  0  0  0  0  0  0  0  0
  -26.0470  -38.2550   23.8990 H   0  0  0  0  0  0  0  0  0  0  0  0
  1  2  1  0
  1 49  1  0
  2  4  1  0
  3  4  1  0
  4  6  1  0
  5  3  2  0
  7  3  1  0
  7 48  1  0
  8 16  1  0
  9 14  1  0
 10 11  1  0
 10  9  1  0
 12 11  1  0
 12 21  1  0
 12 13  1  0
 14  8  1  0
 14 13  1  0
 15  8  2  0
 16 17  1  0
 16  7  1  0
 18 19  2  0
 19 38  1  0
 20 19  1  0
 20 23  1  0
 21 18  1  0
 21 22  1  0
 22 20  2  0
 23 24  1  0
 24 25  2  0
 26 29  1  0
 26 25  1  0
 27 26  2  0
 28 27  1  0
 28 23  2  0
 29 30  1  0
 30 31  1  0
 31 32  2  0
 33 32  1  0
 33 37  1  0
 34 33  2  0
 35 30  2  0
 35 34  1  0
 36 35  1  0
 38 39  1  0
 39 42  1  0
 39 41  1  0
 40 38  2  0
 43 44  1  0
 43 18  1  0
 45 43  1  0
 46 48  1  0
 48 47  1  0
 50 49  1  0
 50 51  1  0
 52 53  1  0
 52 51  1  0
 53 54  1  0
 54 55  1  0
 56 67  2  0
 57 55  1  0
 57 62  1  0
 58 66  1  0
 58 68  1  0
 59 65  1  0
 59 61  1  0
 60 66  1  0
 61 62  2  0
 61 60  1  0
 63 57  2  0
 64 63  1  0
 64 59  2  0
 65 58  1  0
 66 56  1  0
 68 70  2  0
 69 68  1  0
 71 69  1  0
 72 81  2  0
 72 77  1  0
 73 69  1  0
 73 77  1  0
 74 73  1  0
 75 76  1  0
 75 74  1  0
 76 72  1  0
 77 78  2  0
 78 79  1  0
 80 79  2  0
 81 80  1  0
 82 56  1  0
 82 87  1  0
 82 83  1  0
 83 86  1  1
 83 84  1  0
 85 83  1  0
 87 90  1  0
 88 92  1  0
 88 87  1  0
 89 88  2  0
 92 91  1  0
 94 92  1  0
 94 95  1  0
 94 93  1  0
M  ISO  4   8 100  16 100  54 101  55 101
M  END
>  <TORSDO>  (43) 
F 26

>  <SCORE>  (43) 
-10.642

>  <name>  (43) 
43

>  <ligand_id>  (43) 
43

>  <original_smiles>  (43) 
[H]c1c([H])c([H])c2c(c1[H])C([H])([H])C([H])([H])C([H])([H])C2([H])N([H])C(=O)C1([H])N(C(=O)C([H])(N([H])C(=O)C([H])(N([H])C([H])([H])[H])C([H])([H])[H])C(C([H])([H])[H])(C([H])([H])[H])C([H])([H])[H])C([H])([H])c2c([H])c(OC([H])([H])C([H])([H])OC([H])([H])C([H])([H])OC([H])([H])C([H])([H])N([H])C(=O)C([H])(N([H])C(=O)N3C([H])([H])C([H])([H])C([H])([H])C([H])(n4nc(-c5c([H])c([H])c(Oc6c([H])c([H])c(F)c([H])c6F)c([H])c5[H])c(C(=O)N([H])[H])c4N([H])[H])C3([H])[H])C([H])(C([H])([H])[H])C([H])([H])[H])c([H])c([H])c2C1([H])[H]

>  <smiles>  (43) 
[H]c1c([H])c([H])c2c(c1[H])C([H])([H])C([H])([H])C([H])([H])C2([H])N([H])C(=O)C1([H])N(C(=O)C([H])(N([H])C(=O)C([H])(N([H])C([H])([H])[H])C([H])([H])[H])C(C([H])([H])[H])(C([H])([H])[H])C([H])([H])[H])C([H])([H])c2c([H])c(OC([H])([H])C([H])([H])OC([H])([H])C([H])([H])OC([H])([H])C([H])([H])N([H])C(=O)C([H])(N([H])C(=O)N3C([H])([H])C([H])([H])C([H])([H])C([H])(n4nc(-c5c([H])c([H])c(Oc6c([H])c([H])c(F)c([H])c6F)c([H])c5[H])c(C(=O)N([H])[H])c4N([H])[H])C3([H])[H])C([H])(C([H])([H])[H])C([H])([H])[H])c([H])c([H])c2C1([H])[H]

$$$$
44:0:0
     RDKit          3D

 96103  0  0  1  0  0  0  0  0999 V2000
  -33.0650  -19.2440   20.1480 C   0  0  0  0  0  2  0  0  0  0  0  0
  -31.2590  -17.5530   20.2150 C   0  0  0  0  0  0  0  0  0  0  0  0
  -32.0190  -18.4750   20.8080 N   0  0  0  0  0  0  0  0  0  0  0  0
  -31.3970  -17.2430   19.0300 O   0  0  0  0  0  0  0  0  0  0  0  0
  -31.7990  -18.7040   21.7720 H   0  0  0  0  0  0  0  0  0  0  0  0
  -30.1450  -16.9110   21.0640 C   0  0  0  0  0  0  0  0  0  0  0  0
  -30.9770  -14.5060   20.7600 C   0  0  0  0  0  0  0  0  0  0  0  0
  -30.6860  -12.5410   19.3110 C   0  0  0  0  0  2  0  0  0  0  0  0
  -29.7690  -12.9560   18.1400 C   0  0  0  0  0  2  0  0  0  0  0  0
  -28.2800  -12.8170   18.5210 C   0  0  0  0  0  2  0  0  0  0  0  0
  -27.9520  -13.4640   19.8920 C   0  0  0  0  0  3  0  0  0  0  0  0
  -28.9710  -13.0060   20.9620 C   0  0  0  0  0  2  0  0  0  0  0  0
  -30.3170  -13.3510   20.4800 N   0  0  0  0  0  0  0  0  0  0  0  0
  -32.1310  -14.7230   20.3870 O   0  0  0  0  0  0  0  0  0  0  0  0
  -30.1700  -15.4510   21.2800 N   0  0  0  0  0  4  0  0  0  0  0  0
  -29.2930  -15.0800   21.6080 H   0  0  0  0  0  0  0  0  0  0  0  0
  -25.5210  -14.0720   20.4860 C   0  0  0  0  0  0  0  0  0  0  0  0
  -24.4410  -13.2960   20.8140 C   0  0  0  0  0  0  0  0  0  0  0  0
  -24.9110  -11.9480   20.8170 C   0  0  0  0  0  0  0  0  0  0  0  0
  -26.5790  -13.1900   20.3070 N   0  0  0  0  0  0  0  0  0  0  0  0
  -26.2110  -11.9110   20.5620 N   0  0  0  0  0  0  0  0  0  0  0  0
  -24.1860  -10.6820   20.9850 C   0  0  0  0  0  0  0  0  0  0  0  0
  -24.5700   -9.7400   21.9640 C   0  0  0  0  0  3  0  0  0  0  0  0
  -23.8500   -8.5370   22.1190 C   0  0  0  0  0  3  0  0  0  0  0  0
  -22.7310   -8.2670   21.2940 C   0  0  0  0  0  0  0  0  0  0  0  0
  -22.3660   -9.2000   20.3080 C   0  0  0  0  0  3  0  0  0  0  0  0
  -23.0880  -10.3950   20.1500 C   0  0  0  0  0  3  0  0  0  0  0  0
  -21.9850   -7.1150   21.3560 O   0  0  0  0  0  0  0  0  0  0  0  0
  -21.8510   -6.4070   22.5240 C   0  0  0  0  0  0  0  0  0  0  0  0
  -21.3490   -7.0020   23.7020 C   0  0  0  0  0  3  0  0  0  0  0  0
  -21.1610   -6.2200   24.8600 C   0  0  0  0  0  3  0  0  0  0  0  0
  -21.4660   -4.8460   24.8400 C   0  0  0  0  0  0  0  0  0  0  0  0
  -21.9620   -4.2500   23.6660 C   0  0  0  0  0  3  0  0  0  0  0  0
  -22.1500   -5.0300   22.5110 C   0  0  0  0  0  0  0  0  0  0  0  0
  -22.6070   -4.4470   21.3760 F   0  0  0  0  0  0  0  0  0  0  0  0
  -21.2790   -4.0930   25.9490 F   0  0  0  0  0  0  0  0  0  0  0  0
  -23.0300  -13.7690   21.0170 C   0  0  0  0  0  0  0  0  0  0  0  0
  -22.2720  -13.0920   21.8720 N   0  0  0  0  0  0  0  0  0  0  0  0
  -22.6070  -14.7750   20.4510 O   0  0  0  0  0  0  0  0  0  0  0  0
  -22.6230  -12.2790   22.3570 H   0  0  0  0  0  0  0  0  0  0  0  0
  -21.3250  -13.3980   22.0440 H   0  0  0  0  0  0  0  0  0  0  0  0
  -25.6900  -15.4400   20.3110 N   0  0  0  0  0  0  0  0  0  0  0  0
  -24.9200  -16.0950   20.3940 H   0  0  0  0  0  0  0  0  0  0  0  0
  -26.5430  -15.8760   19.9870 H   0  0  0  0  0  0  0  0  0  0  0  0
  -29.7180  -17.6930   22.3310 C   0  0  0  0  0  2  0  0  0  0  0  0
  -30.8070  -17.8380   23.2390 O   0  0  0  0  0  0  0  0  0  0  0  0
  -30.8740  -20.2490   23.8170 C   0  0  0  0  0  1  0  0  0  0  0  0
  -30.5880  -18.8060   24.2640 C   0  0  0  0  0  2  0  0  0  0  0  0
  -33.2940  -20.5590   20.8960 C   0  0  0  0  0  2  0  0  0  0  0  0
  -32.0980  -21.3060   20.7550 O   0  0  0  0  0  0  0  0  0  0  0  0
  -31.9910  -22.4100   21.6380 C   0  0  0  0  0  2  0  0  0  0  0  0
  -30.6970  -23.1540   21.2770 C   0  0  0  0  0  2  0  0  0  0  0  0
  -30.9520  -24.1670   20.3050 O   0  0  0  0  0  0  0  0  0  0  0  0
  -29.7800  -24.5970   19.6130 C   0  0  0  0  0  2  0  0  0  0  0  0
  -28.8090  -25.4210   20.4860 C   0  0  0  0  0  2  0  0  0  0  0  0
  -28.7510  -26.7640   20.0050 O   0  0  0  0  0  0  0  0  0  0  0  0
  -24.7220  -31.6640   23.1950 C   0  0  0  0  0  0  0  0  0  0  0  0
  -27.5330  -27.4000   20.0420 C   0  0  0  0  0  0  0  0  0  0  0  0
  -23.5750  -30.2880   21.4870 C   0  0  0  0  0  3  0  0  0  0  0  0
  -25.0870  -28.8170   20.0560 C   0  0  0  0  0  0  0  0  0  0  0  0
  -26.0920  -30.7190   21.3380 C   0  0  0  0  0  2  0  0  0  0  0  0
  -26.2210  -29.3680   20.6670 C   0  0  0  0  0  0  0  0  0  0  0  0
  -27.4460  -28.6680   20.6540 C   0  0  0  0  0  3  0  0  0  0  0  0
  -26.3800  -26.8470   19.4410 C   0  0  0  0  0  3  0  0  0  0  0  0
  -25.1590  -27.5490   19.4500 C   0  0  0  0  0  3  0  0  0  0  0  0
  -23.8210  -29.6410   20.0980 C   0  0  0  0  0  2  0  0  0  0  0  0
  -24.8130  -30.9040   22.0650 N   0  0  0  0  0  0  0  0  0  0  0  0
  -23.6270  -31.8930   23.7270 O   0  0  0  0  0  0  0  0  0  0  0  0
  -22.9330  -29.2280   22.4100 C   0  0  0  0  0  0  0  0  0  0  0  0
  -21.6170  -29.0160   22.2510 N   0  0  0  0  0  0  0  0  0  0  0  0
  -23.6190  -28.5940   23.2160 O   0  0  0  0  0  0  0  0  0  0  0  0
  -21.1220  -29.5890   21.5810 H   0  0  0  0  0  0  0  0  0  0  0  0
  -18.2650  -27.7320   22.6440 C   0  0  0  0  0  0  0  0  0  0  0  0
  -20.8100  -28.0350   22.9750 C   0  0  0  0  0  3  0  0  0  0  0  0
  -20.9540  -26.6250   22.3560 C   0  0  0  0  0  2  0  0  0  0  0  0
  -19.8790  -26.3120   21.3100 C   0  0  0  0  0  2  0  0  0  0  0  0
  -18.4830  -26.4080   21.9310 C   0  0  0  0  0  2  0  0  0  0  0  0
  -19.3580  -28.5030   23.1200 C   0  0  0  0  0  0  0  0  0  0  0  0
  -19.1010  -29.7450   23.7390 C   0  0  0  0  0  3  0  0  0  0  0  0
  -17.7820  -30.2130   23.8930 C   0  0  0  0  0  3  0  0  0  0  0  0
  -16.7030  -29.4380   23.4360 C   0  0  0  0  0  3  0  0  0  0  0  0
  -16.9460  -28.1990   22.8150 C   0  0  0  0  0  3  0  0  0  0  0  0
  -25.9840  -32.3040   23.8580 C   0  0  0  0  0  3  0  0  0  0  0  0
  -26.5140  -31.4870   25.0980 C   0  0  1  0  0  0  0  0  0  0  0  0
  -25.4240  -31.1560   26.1440 C   0  0  0  0  0  1  0  0  0  0  0  0
  -27.1500  -30.1560   24.6360 C   0  0  0  0  0  1  0  0  0  0  0  0
  -27.6300  -32.2860   25.8130 C   0  0  0  0  0  1  0  0  0  0  0  0
  -25.6280  -33.6740   24.2520 N   0  0  0  0  0  0  0  0  0  0  0  0
  -25.9440  -34.7710   23.5510 C   0  0  0  0  0  0  0  0  0  0  0  0
  -26.6350  -34.7370   22.5280 O   0  0  0  0  0  0  0  0  0  0  0  0
  -25.0130  -33.7710   25.0460 H   0  0  0  0  0  0  0  0  0  0  0  0
  -24.1620  -36.5170   23.2640 C   0  0  0  0  0  1  0  0  0  0  0  0
  -25.4100  -36.1200   24.0680 C   0  0  0  0  0  3  0  0  0  0  0  0
  -27.5120  -37.0270   24.9550 C   0  0  0  0  0  1  0  0  0  0  0  0
  -26.4090  -37.2090   24.0140 N   0  0  0  0  0  0  0  0  0  0  0  0
  -25.9750  -38.1070   24.2040 H   0  0  0  0  0  0  0  0  0  0  0  0
  1  3  1  0
  1 49  1  0
  2  3  1  0
  2  6  1  0
  3  5  1  0
  4  2  2  0
  6 15  2  0
  6 45  1  0
  7 15  1  0
  8 13  1  0
  9 10  1  0
  9  8  1  0
 11 10  1  0
 11 20  1  0
 11 12  1  0
 13  7  1  0
 13 12  1  0
 14  7  2  0
 15 16  1  0
 17 18  2  0
 18 19  1  0
 18 37  1  0
 19 22  1  0
 20 17  1  0
 20 21  1  0
 21 19  2  0
 22 23  1  0
 23 24  2  0
 25 28  1  0
 25 24  1  0
 26 25  2  0
 27 26  1  0
 27 22  2  0
 28 29  1  0
 29 30  1  0
 30 31  2  0
 32 31  1  0
 32 36  1  0
 33 32  2  0
 34 29  2  0
 34 33  1  0
 35 34  1  0
 37 38  1  0
 38 41  1  0
 38 40  1  0
 39 37  2  0
 42 43  1  0
 42 17  1  0
 44 42  1  0
 45 46  1  0
 46 48  1  0
 47 48  1  0
 50 49  1  0
 50 51  1  0
 52 51  1  0
 53 52  1  0
 54 53  1  0
 54 55  1  0
 56 58  1  0
 56 55  1  0
 57 68  2  0
 58 63  1  0
 59 67  1  0
 59 69  1  0
 60 66  1  0
 60 62  1  0
 61 67  1  0
 62 61  1  0
 63 62  2  0
 64 65  1  0
 64 58  2  0
 65 60  2  0
 66 59  1  0
 67 57  1  0
 69 71  2  0
 70 69  1  0
 72 70  1  0
 73 82  2  0
 73 78  1  0
 74 70  1  0
 74 78  1  0
 75 74  1  0
 76 77  1  0
 76 75  1  0
 77 73  1  0
 78 79  2  0
 79 80  1  0
 81 80  2  0
 82 81  1  0
 83 57  1  0
 83 88  1  0
 83 84  1  0
 84 87  1  1
 84 85  1  0
 86 84  1  0
 88 91  1  0
 89 93  1  0
 89 88  1  0
 90 89  2  0
 93 92  1  0
 95 93  1  0
 95 96  1  0
 95 94  1  0
M  ISO  4   7 100  15 100  55 101  56 101
M  END
>  <TORSDO>  (44) 
F 28

>  <SCORE>  (44) 
-9.554

>  <name>  (44) 
44

>  <ligand_id>  (44) 
44

>  <original_smiles>  (44) 
[H]c1c([H])c([H])c2c(c1[H])C([H])([H])C([H])([H])C([H])([H])C2([H])N([H])C(=O)C1([H])N(C(=O)C([H])(N([H])C(=O)C([H])(N([H])C([H])([H])[H])C([H])([H])[H])C(C([H])([H])[H])(C([H])([H])[H])C([H])([H])[H])C([H])([H])c2c([H])c(OC([H])([H])C([H])([H])OC([H])([H])C([H])([H])OC([H])([H])C([H])([H])N([H])C(=O)C([H])(N([H])C(=O)N3C([H])([H])C([H])([H])C([H])([H])C([H])(n4nc(-c5c([H])c([H])c(Oc6c([H])c([H])c(F)c([H])c6F)c([H])c5[H])c(C(=O)N([H])[H])c4N([H])[H])C3([H])[H])C([H])([H])OC([H])([H])C([H])([H])[H])c([H])c([H])c2C1([H])[H]

>  <smiles>  (44) 
[H]c1c([H])c([H])c2c(c1[H])C([H])([H])C([H])([H])C([H])([H])C2([H])N([H])C(=O)C1([H])N(C(=O)C([H])(N([H])C(=O)C([H])(N([H])C([H])([H])[H])C([H])([H])[H])C(C([H])([H])[H])(C([H])([H])[H])C([H])([H])[H])C([H])([H])c2c([H])c(OC([H])([H])C([H])([H])OC([H])([H])C([H])([H])OC([H])([H])C([H])([H])N([H])C(=O)C([H])(N([H])C(=O)N3C([H])([H])C([H])([H])C([H])([H])C([H])(n4nc(-c5c([H])c([H])c(Oc6c([H])c([H])c(F)c([H])c6F)c([H])c5[H])c(C(=O)N([H])[H])c4N([H])[H])C3([H])[H])C([H])([H])OC([H])([H])C([H])([H])[H])c([H])c([H])c2C1([H])[H]

$$$$
45:0:0
     RDKit          3D

106113  0  0  1  0  0  0  0  0999 V2000
  -32.6520  -18.8340   19.1000 C   0  0  0  0  0  0  0  0  0  0  0  0
  -33.3310  -18.1540   18.1670 N   0  0  0  0  0  0  0  0  0  0  0  0
  -33.1870  -19.2990   20.1100 O   0  0  0  0  0  0  0  0  0  0  0  0
  -32.8120  -17.8020   17.3740 H   0  0  0  0  0  0  0  0  0  0  0  0
  -31.1410  -19.0320   18.8730 C   0  0  0  0  0  3  0  0  0  0  0  0
  -29.6110  -20.9690   19.2150 C   0  0  0  0  0  0  0  0  0  0  0  0
  -30.6800  -20.2400   19.5520 N   0  0  0  0  0  0  0  0  0  0  0  0
  -28.9360  -20.7300   18.2120 O   0  0  0  0  0  0  0  0  0  0  0  0
  -31.2180  -20.5060   20.3650 H   0  0  0  0  0  0  0  0  0  0  0  0
  -29.2310  -22.1320   20.1370 C   0  0  0  0  0  2  0  0  0  0  0  0
  -28.9960  -23.2910   19.3460 O   0  0  0  0  0  0  0  0  0  0  0  0
  -28.4900  -24.3860   20.0960 C   0  0  0  0  0  2  0  0  0  0  0  0
  -28.6510  -25.6590   19.2560 C   0  0  0  0  0  2  0  0  0  0  0  0
  -28.4620  -26.8190   20.0590 O   0  0  0  0  0  0  0  0  0  0  0  0
  -24.6120  -31.8680   23.2110 C   0  0  0  0  0  0  0  0  0  0  0  0
  -27.2450  -27.4650   20.0730 C   0  0  0  0  0  0  0  0  0  0  0  0
  -23.3980  -30.4910   21.5520 C   0  0  0  0  0  3  0  0  0  0  0  0
  -24.8420  -28.9560   20.1160 C   0  0  0  0  0  0  0  0  0  0  0  0
  -25.9220  -30.8390   21.3600 C   0  0  0  0  0  2  0  0  0  0  0  0
  -25.9980  -29.4740   20.7100 C   0  0  0  0  0  0  0  0  0  0  0  0
  -27.1960  -28.7320   20.6930 C   0  0  0  0  0  3  0  0  0  0  0  0
  -26.0630  -26.9440   19.4940 C   0  0  0  0  0  3  0  0  0  0  0  0
  -24.8670  -27.6880   19.5100 C   0  0  0  0  0  3  0  0  0  0  0  0
  -23.6010  -29.8180   20.1680 C   0  0  0  0  0  2  0  0  0  0  0  0
  -24.6630  -31.0790   22.1000 N   0  0  0  0  0  0  0  0  0  0  0  0
  -23.5330  -32.1420   23.7530 O   0  0  0  0  0  0  0  0  0  0  0  0
  -22.7380  -29.4660   22.5010 C   0  0  0  0  0  0  0  0  0  0  0  0
  -21.4110  -29.3020   22.3750 N   0  0  0  0  0  0  0  0  0  0  0  0
  -23.4160  -28.8200   23.3040 O   0  0  0  0  0  0  0  0  0  0  0  0
  -20.9250  -29.8770   21.7010 H   0  0  0  0  0  0  0  0  0  0  0  0
  -18.0260  -28.1360   22.8500 C   0  0  0  0  0  0  0  0  0  0  0  0
  -20.5850  -28.3630   23.1320 C   0  0  0  0  0  3  0  0  0  0  0  0
  -20.6740  -26.9370   22.5410 C   0  0  0  0  0  2  0  0  0  0  0  0
  -19.5730  -26.6370   21.5200 C   0  0  0  0  0  2  0  0  0  0  0  0
  -18.1910  -26.7910   22.1610 C   0  0  0  0  0  2  0  0  0  0  0  0
  -19.1510  -28.8810   23.2920 C   0  0  0  0  0  0  0  0  0  0  0  0
  -18.9440  -30.1430   23.8920 C   0  0  0  0  0  3  0  0  0  0  0  0
  -17.6440  -30.6570   24.0560 C   0  0  0  0  0  3  0  0  0  0  0  0
  -16.5330  -29.9070   23.6330 C   0  0  0  0  0  3  0  0  0  0  0  0
  -16.7250  -28.6480   23.0360 C   0  0  0  0  0  3  0  0  0  0  0  0
  -25.9030  -32.4820   23.8380 C   0  0  0  0  0  3  0  0  0  0  0  0
  -25.5890  -33.8620   24.2310 N   0  0  0  0  0  0  0  0  0  0  0  0
  -25.9020  -34.9470   23.5110 C   0  0  0  0  0  0  0  0  0  0  0  0
  -26.5590  -34.8920   22.4680 O   0  0  0  0  0  0  0  0  0  0  0  0
  -25.0070  -33.9780   25.0480 H   0  0  0  0  0  0  0  0  0  0  0  0
  -24.1480  -36.7320   23.2630 C   0  0  0  0  0  1  0  0  0  0  0  0
  -25.4100  -36.3110   24.0330 C   0  0  0  0  0  3  0  0  0  0  0  0
  -27.5580  -37.1810   24.8460 C   0  0  0  0  0  1  0  0  0  0  0  0
  -26.4290  -37.3790   23.9400 N   0  0  0  0  0  0  0  0  0  0  0  0
  -26.0180  -38.2860   24.1410 H   0  0  0  0  0  0  0  0  0  0  0  0
  -26.4460  -31.6620   25.0720 C   0  0  1  0  0  0  0  0  0  0  0  0
  -25.3750  -31.3720   26.1480 C   0  0  0  0  0  1  0  0  0  0  0  0
  -27.0300  -30.3070   24.6090 C   0  0  0  0  0  1  0  0  0  0  0  0
  -27.6050  -32.4330   25.7490 C   0  0  0  0  0  1  0  0  0  0  0  0
  -30.2410  -17.8380   19.2790 C   0  0  0  0  0  2  0  0  0  0  0  0
  -30.1330  -17.7190   20.6940 O   0  0  0  0  0  0  0  0  0  0  0  0
  -31.0120  -17.7690   21.0550 H   0  0  0  0  0  0  0  0  0  0  0  0
  -34.7650  -17.8740   18.1750 C   0  0  0  0  0  2  0  0  0  0  0  0
  -35.0700  -16.4800   18.7400 C   0  0  0  0  0  2  0  0  0  0  0  0
  -34.7940  -16.4700   20.1320 O   0  0  0  0  0  0  0  0  0  0  0  0
  -35.1810  -15.2500   20.7430 C   0  0  0  0  0  2  0  0  0  0  0  0
  -34.7670  -15.2840   22.2160 C   0  0  0  0  0  2  0  0  0  0  0  0
  -35.4080  -14.2130   22.8980 O   0  0  0  0  0  0  0  0  0  0  0  0
  -34.8620  -13.9460   24.1840 C   0  0  0  0  0  2  0  0  0  0  0  0
  -33.8030  -12.8300   24.0950 C   0  0  0  0  0  2  0  0  0  0  0  0
  -32.6300  -13.2160   23.3880 O   0  0  0  0  0  0  0  0  0  0  0  0
  -31.7650  -14.0920   24.0990 C   0  0  0  0  0  2  0  0  0  0  0  0
  -30.4570  -14.1630   23.3040 C   0  0  0  0  0  2  0  0  0  0  0  0
  -30.8350  -14.2630   20.8090 C   0  0  0  0  0  0  0  0  0  0  0  0
  -30.4150  -12.2810   19.4060 C   0  0  0  0  0  2  0  0  0  0  0  0
  -29.4870  -12.5330   18.2060 C   0  0  0  0  0  2  0  0  0  0  0  0
  -28.0170  -12.3570   18.6180 C   0  0  0  0  0  2  0  0  0  0  0  0
  -27.6640  -13.2000   19.8680 C   0  0  0  0  0  3  0  0  0  0  0  0
  -28.6840  -12.9590   20.9960 C   0  0  0  0  0  2  0  0  0  0  0  0
  -30.0550  -13.1970   20.4990 N   0  0  0  0  0  0  0  0  0  0  0  0
  -31.7190  -14.6930   20.0640 O   0  0  0  0  0  0  0  0  0  0  0  0
  -30.6520  -14.8310   22.0100 N   0  0  0  0  0  0  0  0  0  0  0  0
  -31.1060  -15.7260   22.0950 H   0  0  0  0  0  0  0  0  0  0  0  0
  -25.2580  -13.8120   20.5610 C   0  0  0  0  0  0  0  0  0  0  0  0
  -24.1830  -13.0410   20.9120 C   0  0  0  0  0  0  0  0  0  0  0  0
  -24.6380  -11.6880   20.8680 C   0  0  0  0  0  0  0  0  0  0  0  0
  -26.3020  -12.9320   20.3260 N   0  0  0  0  0  0  0  0  0  0  0  0
  -25.9290  -11.6460   20.5630 N   0  0  0  0  0  0  0  0  0  0  0  0
  -23.9030  -10.4280   21.0350 C   0  0  0  0  0  0  0  0  0  0  0  0
  -24.3530   -9.4240   21.9190 C   0  0  0  0  0  3  0  0  0  0  0  0
  -23.6270   -8.2230   22.0730 C   0  0  0  0  0  3  0  0  0  0  0  0
  -22.4260   -8.0240   21.3510 C   0  0  0  0  0  0  0  0  0  0  0  0
  -21.9880   -9.0200   20.4580 C   0  0  0  0  0  3  0  0  0  0  0  0
  -22.7240  -10.2060   20.2950 C   0  0  0  0  0  3  0  0  0  0  0  0
  -21.6630   -6.8840   21.4230 O   0  0  0  0  0  0  0  0  0  0  0  0
  -21.6830   -6.0720   22.5290 C   0  0  0  0  0  0  0  0  0  0  0  0
  -21.3970   -6.5620   23.8220 C   0  0  0  0  0  3  0  0  0  0  0  0
  -21.3680   -5.6770   24.9190 C   0  0  0  0  0  3  0  0  0  0  0  0
  -21.6100   -4.3040   24.7240 C   0  0  0  0  0  0  0  0  0  0  0  0
  -21.8820   -3.8130   23.4360 C   0  0  0  0  0  3  0  0  0  0  0  0
  -21.9170   -4.6940   22.3400 C   0  0  0  0  0  0  0  0  0  0  0  0
  -22.1640   -4.2130   21.0970 F   0  0  0  0  0  0  0  0  0  0  0  0
  -21.5700   -3.4530   25.7760 F   0  0  0  0  0  0  0  0  0  0  0  0
  -22.7850  -13.5210   21.1860 C   0  0  0  0  0  0  0  0  0  0  0  0
  -22.0550  -12.8200   22.0450 N   0  0  0  0  0  0  0  0  0  0  0  0
  -22.3540  -14.5500   20.6690 O   0  0  0  0  0  0  0  0  0  0  0  0
  -22.4210  -11.9860   22.4830 H   0  0  0  0  0  0  0  0  0  0  0  0
  -21.1170  -13.1200   22.2690 H   0  0  0  0  0  0  0  0  0  0  0  0
  -25.4290  -15.1840   20.4070 N   0  0  0  0  0  0  0  0  0  0  0  0
  -24.6660  -15.8370   20.5390 H   0  0  0  0  0  0  0  0  0  0  0  0
  -26.2950  -15.6320   20.1330 H   0  0  0  0  0  0  0  0  0  0  0  0
  1  3  2  0
  2 58  1  0
  2  1  1  0
  4  2  1  0
  5  1  1  0
  5 55  1  0
  5  7  1  0
  6  7  1  0
  6 10  1  0
  7  9  1  0
  8  6  2  0
 11 12  1  0
 11 10  1  0
 13 14  1  0
 13 12  1  0
 14 16  1  0
 15 26  2  0
 16 21  1  0
 17 25  1  0
 17 27  1  0
 18 24  1  0
 18 20  1  0
 19 25  1  0
 20 19  1  0
 21 20  2  0
 22 23  1  0
 22 16  2  0
 23 18  2  0
 24 17  1  0
 25 15  1  0
 27 29  2  0
 28 27  1  0
 30 28  1  0
 31 40  2  0
 31 36  1  0
 32 28  1  0
 32 36  1  0
 33 32  1  0
 34 35  1  0
 34 33  1  0
 35 31  1  0
 36 37  2  0
 37 38  1  0
 39 38  2  0
 40 39  1  0
 41 15  1  0
 41 42  1  0
 41 51  1  0
 42 45  1  0
 43 47  1  0
 43 42  1  0
 44 43  2  0
 47 46  1  0
 49 47  1  0
 49 50  1  0
 49 48  1  0
 51 54  1  1
 51 52  1  0
 53 51  1  0
 55 56  1  0
 56 57  1  0
 58 59  1  0
 59 60  1  0
 60 61  1  0
 61 62  1  0
 62 63  1  0
 63 64  1  0
 65 64  1  0
 66 65  1  0
 66 67  1  0
 68 67  1  0
 69 77  1  0
 70 75  1  0
 71 72  1  0
 71 70  1  0
 73 72  1  0
 73 82  1  0
 73 74  1  0
 75 69  1  0
 75 74  1  0
 76 69  2  0
 77 78  1  0
 77 68  1  0
 79 80  2  0
 80 99  1  0
 81 80  1  0
 81 84  1  0
 82 79  1  0
 82 83  1  0
 83 81  2  0
 84 85  1  0
 85 86  2  0
 87 90  1  0
 87 86  1  0
 88 87  2  0
 89 88  1  0
 89 84  2  0
 90 91  1  0
 91 92  1  0
 92 93  2  0
 94 93  1  0
 94 98  1  0
 95 94  2  0
 96 91  2  0
 96 95  1  0
 97 96  1  0
 99100  1  0
100103  1  0
100102  1  0
101 99  2  0
104105  1  0
104 79  1  0
106104  1  0
M  ISO  4  13 101  14 101  69 100  77 100
M  END
>  <TORSDO>  (45) 
F 35

>  <SCORE>  (45) 
8.752

>  <name>  (45) 
45

>  <ligand_id>  (45) 
45

>  <original_smiles>  (45) 
[H]OC([H])([H])C([H])(C(=O)N([H])C([H])([H])C([H])([H])OC([H])([H])C([H])([H])OC([H])([H])C([H])([H])OC([H])([H])C([H])([H])N([H])C(=O)N1C([H])([H])C([H])([H])C([H])([H])C([H])(n2nc(-c3c([H])c([H])c(Oc4c([H])c([H])c(F)c([H])c4F)c([H])c3[H])c(C(=O)N([H])[H])c2N([H])[H])C1([H])[H])N([H])C(=O)C([H])([H])OC([H])([H])C([H])([H])Oc1c([H])c([H])c2c(c1[H])C([H])([H])N(C(=O)C([H])(N([H])C(=O)C([H])(N([H])C([H])([H])[H])C([H])([H])[H])C(C([H])([H])[H])(C([H])([H])[H])C([H])([H])[H])C([H])(C(=O)N([H])C1([H])c3c([H])c([H])c([H])c([H])c3C([H])([H])C([H])([H])C1([H])[H])C2([H])[H]

>  <smiles>  (45) 
[H]OC([H])([H])C([H])(C(=O)N([H])C([H])([H])C([H])([H])OC([H])([H])C([H])([H])OC([H])([H])C([H])([H])OC([H])([H])C([H])([H])N([H])C(=O)N1C([H])([H])C([H])([H])C([H])([H])C([H])(n2nc(-c3c([H])c([H])c(Oc4c([H])c([H])c(F)c([H])c4F)c([H])c3[H])c(C(=O)N([H])[H])c2N([H])[H])C1([H])[H])N([H])C(=O)C([H])([H])OC([H])([H])C([H])([H])Oc1c([H])c([H])c2c(c1[H])C([H])([H])N(C(=O)C([H])(N([H])C(=O)C([H])(N([H])C([H])([H])[H])C([H])([H])[H])C(C([H])([H])[H])(C([H])([H])[H])C([H])([H])[H])C([H])(C(=O)N([H])C1([H])c3c([H])c([H])c([H])c([H])c3C([H])([H])C([H])([H])C1([H])[H])C2([H])[H]

$$$$
46:0:0
     RDKit          3D

 98105  0  0  1  0  0  0  0  0999 V2000
  -29.3660  -23.9120   21.1340 C   0  0  0  0  0  0  0  0  0  0  0  0
  -29.6840  -23.5190   22.3790 N   0  0  0  0  0  0  0  0  0  0  0  0
  -28.7190  -23.1910   20.3700 O   0  0  0  0  0  0  0  0  0  0  0  0
  -30.2300  -24.1460   22.9570 H   0  0  0  0  0  0  0  0  0  0  0  0
  -29.2130  -22.2860   23.0160 C   0  0  0  0  0  2  0  0  0  0  0  0
  -30.3420  -21.5180   23.7170 C   0  0  0  0  0  2  0  0  0  0  0  0
  -31.1440  -20.8490   22.7510 O   0  0  0  0  0  0  0  0  0  0  0  0
  -32.1020  -19.9800   23.3510 C   0  0  0  0  0  2  0  0  0  0  0  0
  -32.8160  -19.1840   22.2530 C   0  0  0  0  0  2  0  0  0  0  0  0
  -31.8800  -18.2840   21.6670 O   0  0  0  0  0  0  0  0  0  0  0  0
  -32.2460  -17.8710   20.3600 C   0  0  0  0  0  2  0  0  0  0  0  0
  -31.0410  -17.1780   19.7210 C   0  0  0  0  0  2  0  0  0  0  0  0
  -31.5180  -14.7750   19.9780 C   0  0  0  0  0  0  0  0  0  0  0  0
  -31.2230  -12.4460   19.2620 C   0  0  0  0  0  2  0  0  0  0  0  0
  -30.3000  -12.4510   18.0260 C   0  0  0  0  0  2  0  0  0  0  0  0
  -28.8200  -12.3980   18.4550 C   0  0  0  0  0  2  0  0  0  0  0  0
  -28.4740  -13.4500   19.5450 C   0  0  0  0  0  3  0  0  0  0  0  0
  -29.5160  -13.4200   20.6880 C   0  0  0  0  0  2  0  0  0  0  0  0
  -30.8530  -13.5990   20.0930 N   0  0  0  0  0  0  0  0  0  0  0  0
  -32.6280  -14.8900   19.4560 O   0  0  0  0  0  0  0  0  0  0  0  0
  -30.7890  -15.8530   20.2800 N   0  0  0  0  0  0  0  0  0  0  0  0
  -29.8890  -15.6920   20.7050 H   0  0  0  0  0  0  0  0  0  0  0  0
  -26.1300  -14.2140   20.2960 C   0  0  0  0  0  0  0  0  0  0  0  0
  -25.0220  -13.5130   20.6880 C   0  0  0  0  0  0  0  0  0  0  0  0
  -25.3940  -12.1340   20.6500 C   0  0  0  0  0  0  0  0  0  0  0  0
  -27.1130  -13.2670   20.0470 N   0  0  0  0  0  0  0  0  0  0  0  0
  -26.6730  -12.0120   20.3150 N   0  0  0  0  0  0  0  0  0  0  0  0
  -24.5940  -10.9210   20.8580 C   0  0  0  0  0  0  0  0  0  0  0  0
  -24.9350   -9.9720   21.8470 C   0  0  0  0  0  3  0  0  0  0  0  0
  -24.1390   -8.8230   22.0400 C   0  0  0  0  0  3  0  0  0  0  0  0
  -22.9880   -8.6150   21.2440 C   0  0  0  0  0  0  0  0  0  0  0  0
  -22.6660   -9.5520   20.2460 C   0  0  0  0  0  3  0  0  0  0  0  0
  -23.4620  -10.6920   20.0510 C   0  0  0  0  0  3  0  0  0  0  0  0
  -22.1690   -7.5160   21.3440 O   0  0  0  0  0  0  0  0  0  0  0  0
  -21.9560   -6.8830   22.5420 C   0  0  0  0  0  0  0  0  0  0  0  0
  -21.4290   -7.5660   23.6610 C   0  0  0  0  0  3  0  0  0  0  0  0
  -21.1590   -6.8630   24.8510 C   0  0  0  0  0  3  0  0  0  0  0  0
  -21.4060   -5.4780   24.9240 C   0  0  0  0  0  0  0  0  0  0  0  0
  -21.9260   -4.7960   23.8100 C   0  0  0  0  0  3  0  0  0  0  0  0
  -22.1970   -5.4970   22.6220 C   0  0  0  0  0  0  0  0  0  0  0  0
  -22.6780   -4.8320   21.5430 F   0  0  0  0  0  0  0  0  0  0  0  0
  -21.1400   -4.8000   26.0650 F   0  0  0  0  0  0  0  0  0  0  0  0
  -23.6640  -14.0780   20.9940 C   0  0  0  0  0  0  0  0  0  0  0  0
  -22.9210  -13.4380   21.8870 N   0  0  0  0  0  0  0  0  0  0  0  0
  -23.2730  -15.1230   20.4710 O   0  0  0  0  0  0  0  0  0  0  0  0
  -23.2490  -12.5920   22.3290 H   0  0  0  0  0  0  0  0  0  0  0  0
  -22.0120  -13.8000   22.1380 H   0  0  0  0  0  0  0  0  0  0  0  0
  -26.3770  -15.5720   20.1120 N   0  0  0  0  0  0  0  0  0  0  0  0
  -25.6520  -16.2720   20.2300 H   0  0  0  0  0  0  0  0  0  0  0  0
  -27.2480  -15.9570   19.7670 H   0  0  0  0  0  0  0  0  0  0  0  0
  -29.8460  -25.2950   20.6500 C   0  0  0  0  0  3  0  0  0  0  0  0
  -30.1380  -25.2530   19.2050 N   0  0  0  0  0  4  0  0  0  0  0  0
  -29.2840  -25.0180   18.7310 H   0  0  0  0  0  0  0  0  0  0  0  0
  -30.8060  -24.5280   19.0200 H   0  0  0  0  0  0  0  0  0  0  0  0
  -30.4770  -26.1350   18.8720 H   0  0  0  0  0  0  0  0  0  0  0  0
  -28.7360  -26.3450   20.9230 C   0  0  0  0  0  0  0  0  0  0  0  0
  -28.4790  -26.7690   22.0570 O   0  0  0  0  0  0  0  0  0  0  0  0
  -28.0450  -26.6910   19.7830 O   0  0  0  0  0  0  0  0  0  0  0  0
  -24.6140  -31.9270   23.1790 C   0  0  0  0  0  0  0  0  0  0  0  0
  -26.9400  -27.5100   19.8630 C   0  0  0  0  0  0  0  0  0  0  0  0
  -23.2640  -30.5940   21.5880 C   0  0  0  0  0  3  0  0  0  0  0  0
  -24.5840  -29.0580   20.0370 C   0  0  0  0  0  0  0  0  0  0  0  0
  -25.7770  -30.9060   21.2310 C   0  0  0  0  0  2  0  0  0  0  0  0
  -25.7870  -29.5510   20.5590 C   0  0  0  0  0  0  0  0  0  0  0  0
  -26.9680  -28.7860   20.4720 C   0  0  0  0  0  3  0  0  0  0  0  0
  -25.7300  -27.0370   19.3150 C   0  0  0  0  0  3  0  0  0  0  0  0
  -24.5490  -27.8000   19.4110 C   0  0  0  0  0  3  0  0  0  0  0  0
  -23.3660  -29.9400   20.1820 C   0  0  0  0  0  2  0  0  0  0  0  0
  -24.5710  -31.1560   22.0550 N   0  0  0  0  0  0  0  0  0  0  0  0
  -23.5810  -32.2130   23.8000 O   0  0  0  0  0  0  0  0  0  0  0  0
  -22.6550  -29.5660   22.5690 C   0  0  0  0  0  0  0  0  0  0  0  0
  -21.3300  -29.3690   22.4850 N   0  0  0  0  0  0  0  0  0  0  0  0
  -23.3730  -28.9470   23.3600 O   0  0  0  0  0  0  0  0  0  0  0  0
  -20.8110  -29.9150   21.8110 H   0  0  0  0  0  0  0  0  0  0  0  0
  -18.0050  -28.0630   23.0210 C   0  0  0  0  0  0  0  0  0  0  0  0
  -20.5510  -28.4250   23.2860 C   0  0  0  0  0  3  0  0  0  0  0  0
  -20.7090  -26.9810   22.7550 C   0  0  0  0  0  2  0  0  0  0  0  0
  -19.6230  -26.5880   21.7500 C   0  0  0  0  0  2  0  0  0  0  0  0
  -18.2330  -26.7010   22.3850 C   0  0  0  0  0  2  0  0  0  0  0  0
  -19.0930  -28.8770   23.4290 C   0  0  0  0  0  0  0  0  0  0  0  0
  -18.8280  -30.1480   23.9800 C   0  0  0  0  0  3  0  0  0  0  0  0
  -17.5050  -30.6080   24.1290 C   0  0  0  0  0  3  0  0  0  0  0  0
  -16.4290  -29.7910   23.7360 C   0  0  0  0  0  3  0  0  0  0  0  0
  -16.6800  -28.5210   23.1880 C   0  0  0  0  0  3  0  0  0  0  0  0
  -25.9580  -32.5110   23.7200 C   0  0  0  0  0  3  0  0  0  0  0  0
  -25.7130  -33.9080   24.0980 N   0  0  0  0  0  0  0  0  0  0  0  0
  -26.0530  -34.9680   23.3550 C   0  0  0  0  0  0  0  0  0  0  0  0
  -26.6820  -34.8720   22.2980 O   0  0  0  0  0  0  0  0  0  0  0  0
  -25.1590  -34.0610   24.9290 H   0  0  0  0  0  0  0  0  0  0  0  0
  -24.3810  -36.8280   23.1030 C   0  0  0  0  0  1  0  0  0  0  0  0
  -25.6290  -36.3590   23.8670 C   0  0  0  0  0  3  0  0  0  0  0  0
  -27.8150  -37.1360   24.6650 C   0  0  0  0  0  1  0  0  0  0  0  0
  -26.6950  -37.3780   23.7590 N   0  0  0  0  0  0  0  0  0  0  0  0
  -26.3260  -38.3060   23.9520 H   0  0  0  0  0  0  0  0  0  0  0  0
  -26.5450  -31.7020   24.9400 C   0  0  1  0  0  0  0  0  0  0  0  0
  -25.5240  -31.4720   26.0800 C   0  0  0  0  0  1  0  0  0  0  0  0
  -27.0650  -30.3200   24.4830 C   0  0  0  0  0  1  0  0  0  0  0  0
  -27.7590  -32.4550   25.5350 C   0  0  0  0  0  1  0  0  0  0  0  0
  1  2  1  0
  2  4  1  0
  2  5  1  0
  3  1  2  0
  5  6  1  0
  7  8  1  0
  7  6  1  0
  9  8  1  0
 10  9  1  0
 11 10  1  0
 12 21  1  0
 12 11  1  0
 13 19  1  0
 13 21  1  0
 14 19  1  0
 15 16  1  0
 15 14  1  0
 17 16  1  0
 17 26  1  0
 17 18  1  0
 19 18  1  0
 20 13  2  0
 21 22  1  0
 23 24  2  0
 24 43  1  0
 25 24  1  0
 25 28  1  0
 26 23  1  0
 26 27  1  0
 27 25  2  0
 28 29  1  0
 29 30  2  0
 31 34  1  0
 31 30  1  0
 32 31  2  0
 33 32  1  0
 33 28  2  0
 34 35  1  0
 35 40  2  0
 35 36  1  0
 36 37  2  0
 37 38  1  0
 38 42  1  0
 39 38  2  0
 40 39  1  0
 41 40  1  0
 43 44  1  0
 44 47  1  0
 44 46  1  0
 45 43  2  0
 48 49  1  0
 48 23  1  0
 50 48  1  0
 51 56  1  0
 51  1  1  0
 52 51  1  0
 53 52  1  0
 54 52  1  0
 55 52  1  0
 56 57  2  0
 58 60  1  0
 58 56  1  0
 59 70  2  0
 60 65  1  0
 61 69  1  0
 61 71  1  0
 62 68  1  0
 62 64  1  0
 63 69  1  0
 64 63  1  0
 65 64  2  0
 66 67  1  0
 66 60  2  0
 67 62  2  0
 68 61  1  0
 69 59  1  0
 71 73  2  0
 72 71  1  0
 74 72  1  0
 75 84  2  0
 75 80  1  0
 76 72  1  0
 76 80  1  0
 77 76  1  0
 78 79  1  0
 78 77  1  0
 79 75  1  0
 80 81  2  0
 81 82  1  0
 83 82  2  0
 84 83  1  0
 85 59  1  0
 85 86  1  0
 85 95  1  0
 86 89  1  0
 87 91  1  0
 87 86  1  0
 88 87  2  0
 91 90  1  0
 93 91  1  0
 93 94  1  0
 93 92  1  0
 95 98  1  1
 95 96  1  0
 97 95  1  0
M  ISO  4  13 100  21 100  56 101  58 101
M  END
>  <TORSDO>  (46) 
F 27

>  <SCORE>  (46) 
-10.657

>  <name>  (46) 
46

>  <ligand_id>  (46) 
46

>  <original_smiles>  (46) 
[H]c1c([H])c([H])c2c(c1[H])C([H])([H])C([H])([H])C([H])([H])C2([H])N([H])C(=O)C1([H])N(C(=O)C([H])(N([H])C(=O)C([H])(N([H])C([H])([H])[H])C([H])([H])[H])C(C([H])([H])[H])(C([H])([H])[H])C([H])([H])[H])C([H])([H])c2c([H])c(OC(=O)C([H])(C(=O)N([H])C([H])([H])C([H])([H])OC([H])([H])C([H])([H])OC([H])([H])C([H])([H])N([H])C(=O)N3C([H])([H])C([H])([H])C([H])([H])C([H])(n4nc(-c5c([H])c([H])c(Oc6c([H])c([H])c(F)c([H])c6F)c([H])c5[H])c(C(=O)N([H])[H])c4N([H])[H])C3([H])[H])[N+]([H])([H])[H])c([H])c([H])c2C1([H])[H]

>  <smiles>  (46) 
[H]c1c([H])c([H])c2c(c1[H])C([H])([H])C([H])([H])C([H])([H])C2([H])N([H])C(=O)C1([H])N(C(=O)C([H])(N([H])C(=O)C([H])(N([H])C([H])([H])[H])C([H])([H])[H])C(C([H])([H])[H])(C([H])([H])[H])C([H])([H])[H])C([H])([H])c2c([H])c(OC(=O)C([H])(C(=O)N([H])C([H])([H])C([H])([H])OC([H])([H])C([H])([H])OC([H])([H])C([H])([H])N([H])C(=O)N3C([H])([H])C([H])([H])C([H])([H])C([H])(n4nc(-c5c([H])c([H])c(Oc6c([H])c([H])c(F)c([H])c6F)c([H])c5[H])c(C(=O)N([H])[H])c4N([H])[H])C3([H])[H])[N+]([H])([H])[H])c([H])c([H])c2C1([H])[H]

$$$$
47:0:0
     RDKit          3D

 94101  0  0  1  0  0  0  0  0999 V2000
  -29.8500  -18.1320   20.9690 C   0  0  0  0  0  0  0  0  0  0  0  0
  -30.0540  -19.4240   20.6190 N   0  0  0  0  0  0  0  0  0  0  0  0
  -29.4040  -17.8280   22.0780 O   0  0  0  0  0  0  0  0  0  0  0  0
  -30.4560  -19.5990   19.7080 H   0  0  0  0  0  0  0  0  0  0  0  0
  -29.6050  -20.6130   21.3690 C   0  0  0  0  0  2  0  0  0  0  0  0
  -29.9680  -21.9580   20.6740 C   0  0  0  0  0  2  0  0  0  0  0  0
  -29.1710  -23.0470   21.1700 O   0  0  0  0  0  0  0  0  0  0  0  0
  -29.5700  -24.3700   20.7530 C   0  0  0  0  0  2  0  0  0  0  0  0
  -28.3310  -25.2310   20.3810 C   0  0  0  0  0  2  0  0  0  0  0  0
  -28.4890  -26.6690   20.4750 O   0  0  0  0  0  0  0  0  0  0  0  0
  -24.6100  -31.9270   23.3690 C   0  0  0  0  0  0  0  0  0  0  0  0
  -27.3270  -27.4280   20.4030 C   0  0  0  0  0  0  0  0  0  0  0  0
  -23.4410  -30.4970   21.7280 C   0  0  0  0  0  3  0  0  0  0  0  0
  -24.9270  -28.9510   20.3470 C   0  0  0  0  0  0  0  0  0  0  0  0
  -25.9730  -30.8590   21.5700 C   0  0  0  0  0  2  0  0  0  0  0  0
  -26.0760  -29.4800   20.9460 C   0  0  0  0  0  0  0  0  0  0  0  0
  -27.2800  -28.7300   20.9650 C   0  0  0  0  0  3  0  0  0  0  0  0
  -26.1520  -26.9280   19.7900 C   0  0  0  0  0  3  0  0  0  0  0  0
  -24.9620  -27.6750   19.7630 C   0  0  0  0  0  3  0  0  0  0  0  0
  -23.6780  -29.8030   20.3610 C   0  0  0  0  0  2  0  0  0  0  0  0
  -24.6920  -31.1110   22.2800 N   0  0  0  0  0  0  0  0  0  0  0  0
  -23.5180  -32.2010   23.8840 O   0  0  0  0  0  0  0  0  0  0  0  0
  -22.7760  -29.4840   22.6910 C   0  0  0  0  0  0  0  0  0  0  0  0
  -21.4630  -29.2660   22.5170 N   0  0  0  0  0  0  0  0  0  0  0  0
  -23.4430  -28.8990   23.5470 O   0  0  0  0  0  0  0  0  0  0  0  0
  -20.9860  -29.7920   21.7980 H   0  0  0  0  0  0  0  0  0  0  0  0
  -18.1050  -27.9850   22.9060 C   0  0  0  0  0  0  0  0  0  0  0  0
  -20.6390  -28.3300   23.2830 C   0  0  0  0  0  3  0  0  0  0  0  0
  -20.8100  -26.8840   22.7610 C   0  0  0  0  0  2  0  0  0  0  0  0
  -19.7640  -26.4940   21.7100 C   0  0  0  0  0  2  0  0  0  0  0  0
  -18.3510  -26.6190   22.2860 C   0  0  0  0  0  2  0  0  0  0  0  0
  -19.1800  -28.7940   23.3590 C   0  0  0  0  0  0  0  0  0  0  0  0
  -18.8970  -30.0700   23.8950 C   0  0  0  0  0  3  0  0  0  0  0  0
  -17.5720  -30.5360   23.9840 C   0  0  0  0  0  3  0  0  0  0  0  0
  -16.5120  -29.7240   23.5480 C   0  0  0  0  0  3  0  0  0  0  0  0
  -16.7780  -28.4510   23.0150 C   0  0  0  0  0  3  0  0  0  0  0  0
  -25.8810  -32.5740   24.0010 C   0  0  0  0  0  3  0  0  0  0  0  0
  -25.5660  -33.9820   24.2820 N   0  0  0  0  0  0  0  0  0  0  0  0
  -25.9260  -35.0110   23.5030 C   0  0  0  0  0  0  0  0  0  0  0  0
  -26.6270  -34.8750   22.4960 O   0  0  0  0  0  0  0  0  0  0  0  0
  -24.9480  -34.1600   25.0600 H   0  0  0  0  0  0  0  0  0  0  0  0
  -24.2240  -36.8020   23.0340 C   0  0  0  0  0  1  0  0  0  0  0  0
  -25.4290  -36.4140   23.9050 C   0  0  0  0  0  3  0  0  0  0  0  0
  -27.5320  -37.3110   24.8000 C   0  0  0  0  0  1  0  0  0  0  0  0
  -26.4720  -37.4570   23.8060 N   0  0  0  0  0  0  0  0  0  0  0  0
  -26.0650  -38.3830   23.9090 H   0  0  0  0  0  0  0  0  0  0  0  0
  -26.3660  -31.8400   25.3110 C   0  0  1  0  0  0  0  0  0  0  0  0
  -25.2460  -31.6270   26.3560 C   0  0  0  0  0  1  0  0  0  0  0  0
  -26.9640  -30.4540   24.9710 C   0  0  0  0  0  1  0  0  0  0  0  0
  -27.4960  -32.6570   25.9810 C   0  0  0  0  0  1  0  0  0  0  0  0
  -30.1790  -17.0150   19.9310 C   0  0  0  0  0  3  0  0  0  0  0  0
  -30.7140  -14.5810   20.2160 C   0  0  0  0  0  0  0  0  0  0  0  0
  -30.3930  -12.4450   19.0420 C   0  0  0  0  0  2  0  0  0  0  0  0
  -29.4180  -12.7020   17.8720 C   0  0  0  0  0  2  0  0  0  0  0  0
  -27.9560  -12.5550   18.3370 C   0  0  0  0  0  2  0  0  0  0  0  0
  -27.6570  -13.3400   19.6410 C   0  0  0  0  0  3  0  0  0  0  0  0
  -28.7450  -13.0900   20.7120 C   0  0  0  0  0  2  0  0  0  0  0  0
  -30.0530  -13.3970   20.1110 N   0  0  0  0  0  0  0  0  0  0  0  0
  -31.8790  -14.7340   19.8450 O   0  0  0  0  0  0  0  0  0  0  0  0
  -29.9090  -15.6410   20.3990 N   0  0  0  0  0  0  0  0  0  0  0  0
  -28.9510  -15.4640   20.6520 H   0  0  0  0  0  0  0  0  0  0  0  0
  -25.2700  -13.9300   20.4000 C   0  0  0  0  0  0  0  0  0  0  0  0
  -24.2170  -13.1490   20.7940 C   0  0  0  0  0  0  0  0  0  0  0  0
  -24.6880  -11.8010   20.7540 C   0  0  0  0  0  0  0  0  0  0  0  0
  -26.3170  -13.0560   20.1490 N   0  0  0  0  0  0  0  0  0  0  0  0
  -25.9720  -11.7720   20.4200 N   0  0  0  0  0  0  0  0  0  0  0  0
  -23.9770  -10.5320   20.9560 C   0  0  0  0  0  0  0  0  0  0  0  0
  -24.4200   -9.5800   21.9000 C   0  0  0  0  0  3  0  0  0  0  0  0
  -23.7080   -8.3750   22.0900 C   0  0  0  0  0  3  0  0  0  0  0  0
  -22.5400   -8.1160   21.3360 C   0  0  0  0  0  0  0  0  0  0  0  0
  -22.1160   -9.0560   20.3800 C   0  0  0  0  0  3  0  0  0  0  0  0
  -22.8290  -10.2520   20.1890 C   0  0  0  0  0  3  0  0  0  0  0  0
  -21.7990   -6.9620   21.4340 O   0  0  0  0  0  0  0  0  0  0  0  0
  -21.7430   -6.2400   22.5990 C   0  0  0  0  0  0  0  0  0  0  0  0
  -21.2720   -6.8070   23.8050 C   0  0  0  0  0  3  0  0  0  0  0  0
  -21.1650   -6.0100   24.9620 C   0  0  0  0  0  3  0  0  0  0  0  0
  -21.5180   -4.6480   24.9150 C   0  0  0  0  0  0  0  0  0  0  0  0
  -21.9830   -4.0820   23.7150 C   0  0  0  0  0  3  0  0  0  0  0  0
  -22.0920   -4.8750   22.5600 C   0  0  0  0  0  0  0  0  0  0  0  0
  -22.5200   -4.3200   21.4010 F   0  0  0  0  0  0  0  0  0  0  0  0
  -21.4080   -3.8800   26.0240 F   0  0  0  0  0  0  0  0  0  0  0  0
  -22.8200  -13.6140   21.0920 C   0  0  0  0  0  0  0  0  0  0  0  0
  -22.1110  -12.9110   21.9670 N   0  0  0  0  0  0  0  0  0  0  0  0
  -22.3650  -14.6370   20.5820 O   0  0  0  0  0  0  0  0  0  0  0  0
  -22.4920  -12.0840   22.4050 H   0  0  0  0  0  0  0  0  0  0  0  0
  -21.1750  -13.2060   22.2060 H   0  0  0  0  0  0  0  0  0  0  0  0
  -25.4180  -15.3020   20.2140 N   0  0  0  0  0  0  0  0  0  0  0  0
  -24.6330  -15.9370   20.3150 H   0  0  0  0  0  0  0  0  0  0  0  0
  -26.2230  -15.7410   19.7790 H   0  0  0  0  0  0  0  0  0  0  0  0
  -29.2440  -17.2160   18.7220 C   0  0  0  0  0  0  0  0  0  0  0  0
  -29.7810  -17.6470   17.5850 N   0  0  0  0  0  0  0  0  0  0  0  0
  -28.0460  -16.9350   18.7880 O   0  0  0  0  0  0  0  0  0  0  0  0
  -30.7730  -17.8260   17.5140 H   0  0  0  0  0  0  0  0  0  0  0  0
  -29.2050  -17.7680   16.7640 H   0  0  0  0  0  0  0  0  0  0  0  0
  1  3  2  0
  2  1  1  0
  2  5  1  0
  4  2  1  0
  6  7  1  0
  6  5  1  0
  8  7  1  0
  9 10  1  0
  9  8  1  0
 11 22  2  0
 12 10  1  0
 12 17  1  0
 13 21  1  0
 13 23  1  0
 14 20  1  0
 14 16  1  0
 15 21  1  0
 16 17  2  0
 16 15  1  0
 18 12  2  0
 19 18  1  0
 19 14  2  0
 20 13  1  0
 21 11  1  0
 23 25  2  0
 24 23  1  0
 26 24  1  0
 27 36  2  0
 27 32  1  0
 28 24  1  0
 28 32  1  0
 29 28  1  0
 30 31  1  0
 30 29  1  0
 31 27  1  0
 32 33  2  0
 33 34  1  0
 35 34  2  0
 36 35  1  0
 37 11  1  0
 37 38  1  0
 37 47  1  0
 38 41  1  0
 39 43  1  0
 39 38  1  0
 40 39  2  0
 43 42  1  0
 45 43  1  0
 45 46  1  0
 45 44  1  0
 47 50  1  1
 47 48  1  0
 49 47  1  0
 51 90  1  0
 51 60  1  0
 51  1  1  0
 52 60  1  0
 53 58  1  0
 54 55  1  0
 54 53  1  0
 56 55  1  0
 56 65  1  0
 56 57  1  0
 58 52  1  0
 58 57  1  0
 59 52  2  0
 60 61  1  0
 62 63  2  0
 63 82  1  0
 64 63  1  0
 64 67  1  0
 65 62  1  0
 65 66  1  0
 66 64  2  0
 67 68  1  0
 68 69  2  0
 70 73  1  0
 70 69  1  0
 71 70  2  0
 72 71  1  0
 72 67  2  0
 73 74  1  0
 74 75  1  0
 75 76  2  0
 77 76  1  0
 77 81  1  0
 78 77  2  0
 79 74  2  0
 79 78  1  0
 80 79  1  0
 82 83  1  0
 83 86  1  0
 83 85  1  0
 84 82  2  0
 87 88  1  0
 87 62  1  0
 89 87  1  0
 90 92  2  0
 91 90  1  0
 93 91  1  0
 94 91  1  0
M  ISO  4   9 101  10 101  52 100  60 100
M  END
>  <TORSDO>  (47) 
F 23

>  <SCORE>  (47) 
-12.266

>  <name>  (47) 
47

>  <ligand_id>  (47) 
47

>  <original_smiles>  (47) 
[H]c1c([H])c([H])c2c(c1[H])C([H])([H])C([H])([H])C([H])([H])C2([H])N([H])C(=O)C1([H])N(C(=O)C([H])(N([H])C(=O)C([H])(N([H])C([H])([H])[H])C([H])([H])[H])C(C([H])([H])[H])(C([H])([H])[H])C([H])([H])[H])C([H])([H])c2c([H])c(OC([H])([H])C([H])([H])OC([H])([H])C([H])([H])N([H])C(=O)C([H])(C(=O)N([H])[H])N([H])C(=O)N3C([H])([H])C([H])([H])C([H])([H])C([H])(n4nc(-c5c([H])c([H])c(Oc6c([H])c([H])c(F)c([H])c6F)c([H])c5[H])c(C(=O)N([H])[H])c4N([H])[H])C3([H])[H])c([H])c([H])c2C1([H])[H]

>  <smiles>  (47) 
[H]c1c([H])c([H])c2c(c1[H])C([H])([H])C([H])([H])C([H])([H])C2([H])N([H])C(=O)C1([H])N(C(=O)C([H])(N([H])C(=O)C([H])(N([H])C([H])([H])[H])C([H])([H])[H])C(C([H])([H])[H])(C([H])([H])[H])C([H])([H])[H])C([H])([H])c2c([H])c(OC([H])([H])C([H])([H])OC([H])([H])C([H])([H])N([H])C(=O)C([H])(C(=O)N([H])[H])N([H])C(=O)N3C([H])([H])C([H])([H])C([H])([H])C([H])(n4nc(-c5c([H])c([H])c(Oc6c([H])c([H])c(F)c([H])c6F)c([H])c5[H])c(C(=O)N([H])[H])c4N([H])[H])C3([H])[H])c([H])c([H])c2C1([H])[H]

$$$$
48:0:0
     RDKit          3D

 91 98  0  0  1  0  0  0  0  0999 V2000
  -31.5490  -23.0530   17.4200 C   0  0  0  0  0  2  0  0  0  0  0  0
  -31.6700  -21.9010   18.2500 O   0  0  0  0  0  0  0  0  0  0  0  0
  -31.9720  -22.1720   19.6160 C   0  0  0  0  0  2  0  0  0  0  0  0
  -31.1020  -21.2770   20.5060 C   0  0  0  0  0  2  0  0  0  0  0  0
  -31.5190  -19.9160   20.4120 O   0  0  0  0  0  0  0  0  0  0  0  0
  -30.5680  -19.0420   21.0070 C   0  0  0  0  0  2  0  0  0  0  0  0
  -31.0100  -17.5700   20.9260 C   0  0  0  0  0  2  0  0  0  0  0  0
  -29.8030  -16.6500   21.1940 C   0  0  0  0  0  2  0  0  0  0  0  0
  -30.6810  -14.3920   20.5050 C   0  0  0  0  0  0  0  0  0  0  0  0
  -30.3640  -12.3100   19.2230 C   0  0  0  0  0  2  0  0  0  0  0  0
  -29.3990  -12.5980   18.0540 C   0  0  0  0  0  2  0  0  0  0  0  0
  -27.9280  -12.4710   18.5020 C   0  0  0  0  0  2  0  0  0  0  0  0
  -27.6290  -13.2520   19.8090 C   0  0  0  0  0  3  0  0  0  0  0  0
  -28.6870  -12.9010   20.8800 C   0  0  0  0  0  2  0  0  0  0  0  0
  -30.0240  -13.2170   20.3300 N   0  0  0  0  0  0  0  0  0  0  0  0
  -31.7000  -14.7090   19.8820 O   0  0  0  0  0  0  0  0  0  0  0  0
  -30.0680  -15.2200   21.3590 N   0  0  0  0  0  0  0  0  0  0  0  0
  -29.3820  -14.7470   21.9270 H   0  0  0  0  0  0  0  0  0  0  0  0
  -25.2330  -13.8880   20.5210 C   0  0  0  0  0  0  0  0  0  0  0  0
  -24.1590  -13.1250   20.8930 C   0  0  0  0  0  0  0  0  0  0  0  0
  -24.6050  -11.7680   20.8490 C   0  0  0  0  0  0  0  0  0  0  0  0
  -26.2710  -12.9970   20.2830 N   0  0  0  0  0  0  0  0  0  0  0  0
  -25.8910  -11.7160   20.5300 N   0  0  0  0  0  0  0  0  0  0  0  0
  -23.8680  -10.5120   21.0370 C   0  0  0  0  0  0  0  0  0  0  0  0
  -24.3220   -9.5200   21.9330 C   0  0  0  0  0  3  0  0  0  0  0  0
  -23.5890   -8.3260   22.1100 C   0  0  0  0  0  3  0  0  0  0  0  0
  -22.3870   -8.1190   21.3910 C   0  0  0  0  0  0  0  0  0  0  0  0
  -21.9520   -9.1010   20.4830 C   0  0  0  0  0  3  0  0  0  0  0  0
  -22.6860  -10.2850   20.3050 C   0  0  0  0  0  3  0  0  0  0  0  0
  -21.6220   -6.9800   21.4790 O   0  0  0  0  0  0  0  0  0  0  0  0
  -21.6270   -6.1950   22.6040 C   0  0  0  0  0  0  0  0  0  0  0  0
  -21.3000   -6.7120   23.8760 C   0  0  0  0  0  3  0  0  0  0  0  0
  -21.2520   -5.8550   24.9930 C   0  0  0  0  0  3  0  0  0  0  0  0
  -21.5180   -4.4820   24.8400 C   0  0  0  0  0  0  0  0  0  0  0  0
  -21.8380   -3.9630   23.5720 C   0  0  0  0  0  3  0  0  0  0  0  0
  -21.8900   -4.8180   22.4580 C   0  0  0  0  0  0  0  0  0  0  0  0
  -22.1780   -4.3100   21.2350 F   0  0  0  0  0  0  0  0  0  0  0  0
  -21.4640   -3.6560   25.9120 F   0  0  0  0  0  0  0  0  0  0  0  0
  -22.7690  -13.6130   21.1840 C   0  0  0  0  0  0  0  0  0  0  0  0
  -22.0440  -12.9170   22.0530 N   0  0  0  0  0  0  0  0  0  0  0  0
  -22.3320  -14.6450   20.6760 O   0  0  0  0  0  0  0  0  0  0  0  0
  -22.4090  -12.0820   22.4880 H   0  0  0  0  0  0  0  0  0  0  0  0
  -21.1100  -13.2230   22.2880 H   0  0  0  0  0  0  0  0  0  0  0  0
  -25.4120  -15.2580   20.3500 N   0  0  0  0  0  0  0  0  0  0  0  0
  -24.6550  -15.9230   20.4680 H   0  0  0  0  0  0  0  0  0  0  0  0
  -26.2710  -15.6880   20.0320 H   0  0  0  0  0  0  0  0  0  0  0  0
  -30.1060  -23.5900   17.4430 C   0  0  0  0  0  2  0  0  0  0  0  0
  -29.8700  -24.3150   18.6410 O   0  0  0  0  0  0  0  0  0  0  0  0
  -28.5020  -24.6470   18.8320 C   0  0  0  0  0  2  0  0  0  0  0  0
  -28.3400  -25.3180   20.2060 C   0  0  0  0  0  2  0  0  0  0  0  0
  -28.4240  -26.7420   20.1230 O   0  0  0  0  0  0  0  0  0  0  0  0
  -24.6140  -31.8640   23.2190 C   0  0  0  0  0  0  0  0  0  0  0  0
  -27.2370  -27.4390   20.1150 C   0  0  0  0  0  0  0  0  0  0  0  0
  -23.3940  -30.4610   21.5870 C   0  0  0  0  0  3  0  0  0  0  0  0
  -24.8350  -28.9260   20.1490 C   0  0  0  0  0  0  0  0  0  0  0  0
  -25.9170  -30.8240   21.3690 C   0  0  0  0  0  2  0  0  0  0  0  0
  -25.9960  -29.4550   20.7280 C   0  0  0  0  0  0  0  0  0  0  0  0
  -27.1990  -28.7200   20.7050 C   0  0  0  0  0  3  0  0  0  0  0  0
  -26.0560  -26.9200   19.5320 C   0  0  0  0  0  3  0  0  0  0  0  0
  -24.8600  -27.6570   19.5480 C   0  0  0  0  0  3  0  0  0  0  0  0
  -23.5920  -29.7820   20.2060 C   0  0  0  0  0  2  0  0  0  0  0  0
  -24.6600  -31.0640   22.1160 N   0  0  0  0  0  0  0  0  0  0  0  0
  -23.5360  -32.1390   23.7660 O   0  0  0  0  0  0  0  0  0  0  0  0
  -22.7510  -29.4390   22.5520 C   0  0  0  0  0  0  0  0  0  0  0  0
  -21.4250  -29.2600   22.4330 N   0  0  0  0  0  0  0  0  0  0  0  0
  -23.4390  -28.8130   23.3610 O   0  0  0  0  0  0  0  0  0  0  0  0
  -20.9330  -29.8170   21.7490 H   0  0  0  0  0  0  0  0  0  0  0  0
  -18.0520  -28.0750   22.9450 C   0  0  0  0  0  0  0  0  0  0  0  0
  -20.6110  -28.3260   23.2080 C   0  0  0  0  0  3  0  0  0  0  0  0
  -20.7100  -26.8940   22.6350 C   0  0  0  0  0  2  0  0  0  0  0  0
  -19.6030  -26.5730   21.6250 C   0  0  0  0  0  2  0  0  0  0  0  0
  -18.2230  -26.7230   22.2730 C   0  0  0  0  0  2  0  0  0  0  0  0
  -19.1750  -28.8350   23.3710 C   0  0  0  0  0  0  0  0  0  0  0  0
  -18.9620  -30.1010   23.9580 C   0  0  0  0  0  3  0  0  0  0  0  0
  -17.6600  -30.6060   24.1280 C   0  0  0  0  0  3  0  0  0  0  0  0
  -16.5510  -29.8440   23.7180 C   0  0  0  0  0  3  0  0  0  0  0  0
  -16.7500  -28.5800   23.1340 C   0  0  0  0  0  3  0  0  0  0  0  0
  -25.9060  -32.4900   23.8300 C   0  0  0  0  0  3  0  0  0  0  0  0
  -26.4410  -31.7060   25.0900 C   0  0  1  0  0  0  0  0  0  0  0  0
  -25.3630  -31.4580   26.1700 C   0  0  0  0  0  1  0  0  0  0  0  0
  -27.0180  -30.3330   24.6730 C   0  0  0  0  0  1  0  0  0  0  0  0
  -27.6010  -32.4950   25.7430 C   0  0  0  0  0  1  0  0  0  0  0  0
  -25.6020  -33.8850   24.1730 N   0  0  0  0  0  0  0  0  0  0  0  0
  -25.9300  -34.9410   23.4170 C   0  0  0  0  0  0  0  0  0  0  0  0
  -26.5920  -34.8440   22.3800 O   0  0  0  0  0  0  0  0  0  0  0  0
  -25.0140  -34.0360   24.9790 H   0  0  0  0  0  0  0  0  0  0  0  0
  -24.1950  -36.7320   23.0880 C   0  0  0  0  0  1  0  0  0  0  0  0
  -25.4440  -36.3260   23.8860 C   0  0  0  0  0  3  0  0  0  0  0  0
  -27.5860  -37.2040   24.7020 C   0  0  0  0  0  1  0  0  0  0  0  0
  -26.4740  -37.3810   23.7710 N   0  0  0  0  0  0  0  0  0  0  0  0
  -26.0700  -38.2990   23.9320 H   0  0  0  0  0  0  0  0  0  0  0  0
  1 47  1  0
  1  2  1  0
  2  3  1  0
  3  4  1  0
  5  4  1  0
  5  6  1  0
  7  6  1  0
  7  8  1  0
  8 17  1  0
  9 17  1  0
 10 15  1  0
 11 12  1  0
 11 10  1  0
 13 12  1  0
 13 22  1  0
 13 14  1  0
 15  9  1  0
 15 14  1  0
 16  9  2  0
 17 18  1  0
 19 20  2  0
 20 39  1  0
 21 20  1  0
 21 24  1  0
 22 19  1  0
 22 23  1  0
 23 21  2  0
 24 25  1  0
 25 26  2  0
 27 30  1  0
 27 26  1  0
 28 27  2  0
 29 28  1  0
 29 24  2  0
 30 31  1  0
 31 32  1  0
 32 33  2  0
 34 33  1  0
 34 38  1  0
 35 34  2  0
 36 31  2  0
 36 35  1  0
 37 36  1  0
 39 40  1  0
 40 43  1  0
 40 42  1  0
 41 39  2  0
 44 45  1  0
 44 19  1  0
 46 44  1  0
 47 48  1  0
 48 49  1  0
 49 50  1  0
 51 50  1  0
 52 63  2  0
 53 51  1  0
 53 58  1  0
 54 62  1  0
 54 64  1  0
 55 61  1  0
 55 57  1  0
 56 62  1  0
 57 56  1  0
 58 57  2  0
 59 60  1  0
 59 53  2  0
 60 55  2  0
 61 54  1  0
 62 52  1  0
 64 66  2  0
 65 64  1  0
 67 65  1  0
 68 77  2  0
 68 73  1  0
 69 65  1  0
 69 73  1  0
 70 69  1  0
 71 72  1  0
 71 70  1  0
 72 68  1  0
 73 74  2  0
 74 75  1  0
 76 75  2  0
 77 76  1  0
 78 52  1  0
 78 83  1  0
 78 79  1  0
 79 82  1  1
 79 80  1  0
 81 79  1  0
 83 86  1  0
 84 88  1  0
 84 83  1  0
 85 84  2  0
 88 87  1  0
 90 88  1  0
 90 91  1  0
 90 89  1  0
M  ISO  4   9 100  17 100  50 101  51 101
M  END
>  <TORSDO>  (48) 
F 27

>  <SCORE>  (48) 
-11.534

>  <name>  (48) 
48

>  <ligand_id>  (48) 
48

>  <original_smiles>  (48) 
[H]c1c([H])c([H])c2c(c1[H])C([H])([H])C([H])([H])C([H])([H])C2([H])N([H])C(=O)C1([H])N(C(=O)C([H])(N([H])C(=O)C([H])(N([H])C([H])([H])[H])C([H])([H])[H])C(C([H])([H])[H])(C([H])([H])[H])C([H])([H])[H])C([H])([H])c2c([H])c(OC([H])([H])C([H])([H])OC([H])([H])C([H])([H])OC([H])([H])C([H])([H])OC([H])([H])C([H])([H])C([H])([H])N([H])C(=O)N3C([H])([H])C([H])([H])C([H])([H])C([H])(n4nc(-c5c([H])c([H])c(Oc6c([H])c([H])c(F)c([H])c6F)c([H])c5[H])c(C(=O)N([H])[H])c4N([H])[H])C3([H])[H])c([H])c([H])c2C1([H])[H]

>  <smiles>  (48) 
[H]c1c([H])c([H])c2c(c1[H])C([H])([H])C([H])([H])C([H])([H])C2([H])N([H])C(=O)C1([H])N(C(=O)C([H])(N([H])C(=O)C([H])(N([H])C([H])([H])[H])C([H])([H])[H])C(C([H])([H])[H])(C([H])([H])[H])C([H])([H])[H])C([H])([H])c2c([H])c(OC([H])([H])C([H])([H])OC([H])([H])C([H])([H])OC([H])([H])C([H])([H])OC([H])([H])C([H])([H])C([H])([H])N([H])C(=O)N3C([H])([H])C([H])([H])C([H])([H])C([H])(n4nc(-c5c([H])c([H])c(Oc6c([H])c([H])c(F)c([H])c6F)c([H])c5[H])c(C(=O)N([H])[H])c4N([H])[H])C3([H])[H])c([H])c([H])c2C1([H])[H]

$$$$
49:0:0
     RDKit          3D

 96103  0  0  1  0  0  0  0  0999 V2000
  -25.5250  -22.6530   19.5500 N   0  0  0  0  0  4  0  0  0  0  0  0
  -26.5220  -22.5870   19.7070 H   0  0  0  0  0  0  0  0  0  0  0  0
  -25.3640  -23.4730   18.9820 H   0  0  0  0  0  0  0  0  0  0  0  0
  -25.0920  -21.4410   18.8220 C   0  0  0  0  0  2  0  0  0  0  0  0
  -26.2410  -20.8420   17.9980 C   0  0  0  0  0  2  0  0  0  0  0  0
  -27.2170  -20.3260   18.8990 O   0  0  0  0  0  0  0  0  0  0  0  0
  -28.2930  -19.6670   18.2390 C   0  0  0  0  0  2  0  0  0  0  0  0
  -29.3260  -19.2040   19.2810 C   0  0  0  0  0  2  0  0  0  0  0  0
  -28.8290  -18.0580   19.9680 O   0  0  0  0  0  0  0  0  0  0  0  0
  -29.5670  -17.7200   21.1400 C   0  0  0  0  0  2  0  0  0  0  0  0
  -30.7630  -16.7890   20.8560 C   0  0  0  0  0  2  0  0  0  0  0  0
  -31.0100  -14.4800   19.9090 C   0  0  0  0  0  0  0  0  0  0  0  0
  -30.7590  -12.2090   18.9660 C   0  0  0  0  0  2  0  0  0  0  0  0
  -29.7070  -12.2240   17.8350 C   0  0  0  0  0  2  0  0  0  0  0  0
  -28.2740  -12.1040   18.3900 C   0  0  0  0  0  2  0  0  0  0  0  0
  -28.0030  -13.0990   19.5450 C   0  0  0  0  0  3  0  0  0  0  0  0
  -29.1280  -12.9670   20.5960 C   0  0  0  0  0  2  0  0  0  0  0  0
  -30.4000  -13.2700   19.9160 N   0  0  0  0  0  0  0  0  0  0  0  0
  -32.0640  -14.7130   19.3050 O   0  0  0  0  0  0  0  0  0  0  0  0
  -30.3300  -15.4260   20.5690 N   0  0  0  0  0  0  0  0  0  0  0  0
  -29.4500  -15.1370   20.9710 H   0  0  0  0  0  0  0  0  0  0  0  0
  -25.7250  -13.8270   20.5030 C   0  0  0  0  0  0  0  0  0  0  0  0
  -24.6400  -13.1040   20.9200 C   0  0  0  0  0  0  0  0  0  0  0  0
  -25.0050  -11.7310   20.7770 C   0  0  0  0  0  0  0  0  0  0  0  0
  -26.6830  -12.8940   20.1330 N   0  0  0  0  0  0  0  0  0  0  0  0
  -26.2560  -11.6270   20.3530 N   0  0  0  0  0  0  0  0  0  0  0  0
  -24.2200  -10.5050   20.9630 C   0  0  0  0  0  0  0  0  0  0  0  0
  -24.6060   -9.5230   21.9030 C   0  0  0  0  0  3  0  0  0  0  0  0
  -23.8340   -8.3550   22.0760 C   0  0  0  0  0  3  0  0  0  0  0  0
  -22.6610   -8.1610   21.3090 C   0  0  0  0  0  0  0  0  0  0  0  0
  -22.2930   -9.1280   20.3580 C   0  0  0  0  0  3  0  0  0  0  0  0
  -23.0650  -10.2890   20.1840 C   0  0  0  0  0  3  0  0  0  0  0  0
  -21.8610   -7.0470   21.3920 O   0  0  0  0  0  0  0  0  0  0  0  0
  -21.6590   -6.3920   22.5810 C   0  0  0  0  0  0  0  0  0  0  0  0
  -21.1000   -7.0410   23.7040 C   0  0  0  0  0  3  0  0  0  0  0  0
  -20.8460   -6.3110   24.8810 C   0  0  0  0  0  3  0  0  0  0  0  0
  -21.1410   -4.9360   24.9360 C   0  0  0  0  0  0  0  0  0  0  0  0
  -21.6950   -4.2880   23.8190 C   0  0  0  0  0  3  0  0  0  0  0  0
  -21.9510   -5.0140   22.6430 C   0  0  0  0  0  0  0  0  0  0  0  0
  -22.4630   -4.3840   21.5600 F   0  0  0  0  0  0  0  0  0  0  0  0
  -20.8910   -4.2320   26.0650 F   0  0  0  0  0  0  0  0  0  0  0  0
  -23.3050  -13.6450   21.3440 C   0  0  0  0  0  0  0  0  0  0  0  0
  -22.6230  -12.9460   22.2450 N   0  0  0  0  0  0  0  0  0  0  0  0
  -22.8830  -14.7170   20.9140 O   0  0  0  0  0  0  0  0  0  0  0  0
  -22.9760  -12.0750   22.6100 H   0  0  0  0  0  0  0  0  0  0  0  0
  -21.7330  -13.2910   22.5790 H   0  0  0  0  0  0  0  0  0  0  0  0
  -25.9750  -15.1900   20.3850 N   0  0  0  0  0  0  0  0  0  0  0  0
  -25.3010  -15.9060   20.6280 H   0  0  0  0  0  0  0  0  0  0  0  0
  -26.8500  -15.5730   20.0460 H   0  0  0  0  0  0  0  0  0  0  0  0
  -24.9230  -22.8340   20.8920 C   0  0  0  0  0  2  0  0  0  0  0  0
  -25.4840  -24.0890   21.5750 C   0  0  0  0  0  2  0  0  0  0  0  0
  -26.8650  -24.1480   21.2360 O   0  0  0  0  0  0  0  0  0  0  0  0
  -27.5690  -25.2130   21.8570 C   0  0  0  0  0  2  0  0  0  0  0  0
  -28.9090  -25.3430   21.1180 C   0  0  0  0  0  2  0  0  0  0  0  0
  -28.8010  -25.8030   19.6510 C   0  0  0  0  0  2  0  0  0  0  0  0
  -28.6190  -27.2080   19.5630 O   0  0  0  0  0  0  0  0  0  0  0  0
  -24.6010  -31.8120   23.1340 C   0  0  0  0  0  0  0  0  0  0  0  0
  -27.3600  -27.7540   19.6810 C   0  0  0  0  0  0  0  0  0  0  0  0
  -23.4010  -30.4610   21.4400 C   0  0  0  0  0  3  0  0  0  0  0  0
  -24.8790  -29.0870   19.8790 C   0  0  0  0  0  0  0  0  0  0  0  0
  -25.8880  -30.9750   21.1690 C   0  0  0  0  0  2  0  0  0  0  0  0
  -26.0220  -29.6470   20.4590 C   0  0  0  0  0  0  0  0  0  0  0  0
  -27.2590  -28.9810   20.3660 C   0  0  0  0  0  3  0  0  0  0  0  0
  -26.2030  -27.1950   19.0970 C   0  0  0  0  0  3  0  0  0  0  0  0
  -24.9620  -27.8560   19.2010 C   0  0  0  0  0  3  0  0  0  0  0  0
  -23.5940  -29.8730   20.0160 C   0  0  0  0  0  2  0  0  0  0  0  0
  -24.6510  -31.0930   21.9760 N   0  0  0  0  0  0  0  0  0  0  0  0
  -23.5310  -31.9890   23.7320 O   0  0  0  0  0  0  0  0  0  0  0  0
  -22.8330  -29.3530   22.3550 C   0  0  0  0  0  0  0  0  0  0  0  0
  -21.5170  -29.1080   22.2510 N   0  0  0  0  0  0  0  0  0  0  0  0
  -23.5730  -28.7120   23.1060 O   0  0  0  0  0  0  0  0  0  0  0  0
  -20.9800  -29.6820   21.6150 H   0  0  0  0  0  0  0  0  0  0  0  0
  -18.2250  -27.7050   22.7310 C   0  0  0  0  0  0  0  0  0  0  0  0
  -20.7690  -28.0830   22.9780 C   0  0  0  0  0  3  0  0  0  0  0  0
  -20.9410  -26.7000   22.3120 C   0  0  0  0  0  2  0  0  0  0  0  0
  -19.8370  -26.3760   21.3000 C   0  0  0  0  0  2  0  0  0  0  0  0
  -18.4610  -26.4080   21.9740 C   0  0  0  0  0  2  0  0  0  0  0  0
  -19.3100  -28.4990   23.1860 C   0  0  0  0  0  0  0  0  0  0  0  0
  -19.0390  -29.7100   23.8560 C   0  0  0  0  0  3  0  0  0  0  0  0
  -17.7150  -30.1310   24.0780 C   0  0  0  0  0  3  0  0  0  0  0  0
  -16.6440  -29.3340   23.6400 C   0  0  0  0  0  3  0  0  0  0  0  0
  -16.8980  -28.1260   22.9690 C   0  0  0  0  0  3  0  0  0  0  0  0
  -25.8790  -32.4620   23.7540 C   0  0  0  0  0  3  0  0  0  0  0  0
  -25.5460  -33.8490   24.1100 N   0  0  0  0  0  0  0  0  0  0  0  0
  -25.8590  -34.9190   23.3660 C   0  0  0  0  0  0  0  0  0  0  0  0
  -26.5310  -34.8440   22.3350 O   0  0  0  0  0  0  0  0  0  0  0  0
  -24.9560  -33.9760   24.9190 H   0  0  0  0  0  0  0  0  0  0  0  0
  -24.1060  -36.6910   23.0200 C   0  0  0  0  0  1  0  0  0  0  0  0
  -25.3410  -36.2920   23.8440 C   0  0  0  0  0  3  0  0  0  0  0  0
  -27.4440  -37.1940   24.7280 C   0  0  0  0  0  1  0  0  0  0  0  0
  -26.3590  -37.3610   23.7660 N   0  0  0  0  0  0  0  0  0  0  0  0
  -25.9370  -38.2730   23.9220 H   0  0  0  0  0  0  0  0  0  0  0  0
  -26.4260  -31.6790   25.0090 C   0  0  1  0  0  0  0  0  0  0  0  0
  -25.3490  -31.3940   26.0830 C   0  0  0  0  0  1  0  0  0  0  0  0
  -27.0330  -30.3260   24.5750 C   0  0  0  0  0  1  0  0  0  0  0  0
  -27.5700  -32.4800   25.6730 C   0  0  0  0  0  1  0  0  0  0  0  0
  1  2  1  0
  1 50  1  0
  3  1  1  0
  4  1  1  0
  5  4  1  0
  5  6  1  0
  7  6  1  0
  7  8  1  0
  8  9  1  0
  9 10  1  0
 11 10  1  0
 12 18  1  0
 12 20  1  0
 13 18  1  0
 14 15  1  0
 14 13  1  0
 16 15  1  0
 16 25  1  0
 16 17  1  0
 18 17  1  0
 19 12  2  0
 20 11  1  0
 20 21  1  0
 22 23  2  0
 23 42  1  0
 24 23  1  0
 24 27  1  0
 25 26  1  0
 25 22  1  0
 26 24  2  0
 27 28  1  0
 28 29  2  0
 30 33  1  0
 30 29  1  0
 31 30  2  0
 32 31  1  0
 32 27  2  0
 33 34  1  0
 34 39  2  0
 34 35  1  0
 35 36  2  0
 36 37  1  0
 37 41  1  0
 38 37  2  0
 39 38  1  0
 40 39  1  0
 42 43  1  0
 43 46  1  0
 43 45  1  0
 44 42  2  0
 47 22  1  0
 47 48  1  0
 49 47  1  0
 50 51  1  0
 52 51  1  0
 52 53  1  0
 54 53  1  0
 55 54  1  0
 56 55  1  0
 56 58  1  0
 57 68  2  0
 58 63  1  0
 59 67  1  0
 59 69  1  0
 60 66  1  0
 60 62  1  0
 61 67  1  0
 62 61  1  0
 63 62  2  0
 64 65  1  0
 64 58  2  0
 65 60  2  0
 66 59  1  0
 67 57  1  0
 69 71  2  0
 70 69  1  0
 72 70  1  0
 73 82  2  0
 73 78  1  0
 74 70  1  0
 74 78  1  0
 75 74  1  0
 76 77  1  0
 76 75  1  0
 77 73  1  0
 78 79  2  0
 79 80  1  0
 81 80  2  0
 82 81  1  0
 83 57  1  0
 83 84  1  0
 83 93  1  0
 84 87  1  0
 85 89  1  0
 85 84  1  0
 86 85  2  0
 89 88  1  0
 91 89  1  0
 91 92  1  0
 91 90  1  0
 93 96  1  1
 93 94  1  0
 95 93  1  0
M  ISO  4  12 100  20 100  55 101  56 101
M  END
>  <TORSDO>  (49) 
F 30

>  <SCORE>  (49) 
-9.824

>  <name>  (49) 
49

>  <ligand_id>  (49) 
49

>  <original_smiles>  (49) 
[H]c1c([H])c([H])c2c(c1[H])C([H])([H])C([H])([H])C([H])([H])C2([H])N([H])C(=O)C1([H])N(C(=O)C([H])(N([H])C(=O)C([H])(N([H])C([H])([H])[H])C([H])([H])[H])C(C([H])([H])[H])(C([H])([H])[H])C([H])([H])[H])C([H])([H])c2c([H])c(OC([H])([H])C([H])([H])C([H])([H])OC([H])([H])C([H])([H])[N+]([H])([H])C([H])([H])C([H])([H])OC([H])([H])C([H])([H])OC([H])([H])C([H])([H])N([H])C(=O)N3C([H])([H])C([H])([H])C([H])([H])C([H])(n4nc(-c5c([H])c([H])c(Oc6c([H])c([H])c(F)c([H])c6F)c([H])c5[H])c(C(=O)N([H])[H])c4N([H])[H])C3([H])[H])c([H])c([H])c2C1([H])[H]

>  <smiles>  (49) 
[H]c1c([H])c([H])c2c(c1[H])C([H])([H])C([H])([H])C([H])([H])C2([H])N([H])C(=O)C1([H])N(C(=O)C([H])(N([H])C(=O)C([H])(N([H])C([H])([H])[H])C([H])([H])[H])C(C([H])([H])[H])(C([H])([H])[H])C([H])([H])[H])C([H])([H])c2c([H])c(OC([H])([H])C([H])([H])C([H])([H])OC([H])([H])C([H])([H])[N+]([H])([H])C([H])([H])C([H])([H])OC([H])([H])C([H])([H])OC([H])([H])C([H])([H])N([H])C(=O)N3C([H])([H])C([H])([H])C([H])([H])C([H])(n4nc(-c5c([H])c([H])c(Oc6c([H])c([H])c(F)c([H])c6F)c([H])c5[H])c(C(=O)N([H])[H])c4N([H])[H])C3([H])[H])c([H])c([H])c2C1([H])[H]

$$$$
50:0:0
     RDKit          3D

 92 99  0  0  1  0  0  0  0  0999 V2000
  -28.1680  -22.1720   18.7030 C   0  0  0  0  0  2  0  0  0  0  0  0
  -27.9270  -22.2600   20.1050 O   0  0  0  0  0  0  0  0  0  0  0  0
  -27.6170  -23.5690   20.5620 C   0  0  0  0  0  2  0  0  0  0  0  0
  -28.9120  -24.3710   20.7930 C   0  0  0  0  0  2  0  0  0  0  0  0
  -28.6890  -25.8280   21.2360 C   0  0  0  0  0  2  0  0  0  0  0  0
  -28.4850  -26.6670   20.0990 O   0  0  0  0  0  0  0  0  0  0  0  0
  -24.5770  -31.7660   23.1660 C   0  0  0  0  0  0  0  0  0  0  0  0
  -27.3180  -27.3840   20.1230 C   0  0  0  0  0  0  0  0  0  0  0  0
  -23.4120  -30.3580   21.4960 C   0  0  0  0  0  3  0  0  0  0  0  0
  -24.9080  -28.8410   20.0950 C   0  0  0  0  0  0  0  0  0  0  0  0
  -25.9320  -30.7510   21.3420 C   0  0  0  0  0  2  0  0  0  0  0  0
  -26.0450  -29.3800   20.7110 C   0  0  0  0  0  0  0  0  0  0  0  0
  -27.2550  -28.6550   20.7320 C   0  0  0  0  0  3  0  0  0  0  0  0
  -26.1760  -26.8590   19.4910 C   0  0  0  0  0  3  0  0  0  0  0  0
  -24.9660  -27.5770   19.4840 C   0  0  0  0  0  3  0  0  0  0  0  0
  -23.6520  -29.6820   20.1200 C   0  0  0  0  0  2  0  0  0  0  0  0
  -24.6570  -30.9720   22.0600 N   0  0  0  0  0  0  0  0  0  0  0  0
  -23.4860  -32.0250   23.6910 O   0  0  0  0  0  0  0  0  0  0  0  0
  -22.7550  -29.3270   22.4430 C   0  0  0  0  0  0  0  0  0  0  0  0
  -21.4330  -29.1440   22.3030 N   0  0  0  0  0  0  0  0  0  0  0  0
  -23.4330  -28.6950   23.2580 O   0  0  0  0  0  0  0  0  0  0  0  0
  -20.9470  -29.7120   21.6220 H   0  0  0  0  0  0  0  0  0  0  0  0
  -18.0590  -27.9370   22.7500 C   0  0  0  0  0  0  0  0  0  0  0  0
  -20.6120  -28.1980   23.0560 C   0  0  0  0  0  3  0  0  0  0  0  0
  -20.7240  -26.7720   22.4700 C   0  0  0  0  0  2  0  0  0  0  0  0
  -19.6360  -26.4540   21.4390 C   0  0  0  0  0  2  0  0  0  0  0  0
  -18.2470  -26.5910   22.0680 C   0  0  0  0  0  2  0  0  0  0  0  0
  -19.1700  -28.6970   23.2000 C   0  0  0  0  0  0  0  0  0  0  0  0
  -18.9430  -29.9560   23.7970 C   0  0  0  0  0  3  0  0  0  0  0  0
  -17.6360  -30.4560   23.9480 C   0  0  0  0  0  3  0  0  0  0  0  0
  -16.5390  -29.6940   23.5140 C   0  0  0  0  0  3  0  0  0  0  0  0
  -16.7490  -28.4340   22.9220 C   0  0  0  0  0  3  0  0  0  0  0  0
  -25.8490  -32.4050   23.8090 C   0  0  0  0  0  3  0  0  0  0  0  0
  -26.3710  -31.6150   25.0710 C   0  0  1  0  0  0  0  0  0  0  0  0
  -25.2760  -31.3400   26.1280 C   0  0  0  0  0  1  0  0  0  0  0  0
  -26.9750  -30.2540   24.6520 C   0  0  0  0  0  1  0  0  0  0  0  0
  -27.5060  -32.4110   25.7560 C   0  0  0  0  0  1  0  0  0  0  0  0
  -25.5180  -33.7910   24.1600 N   0  0  0  0  0  0  0  0  0  0  0  0
  -25.8390  -34.8610   23.4190 C   0  0  0  0  0  0  0  0  0  0  0  0
  -26.5200  -34.7830   22.3910 O   0  0  0  0  0  0  0  0  0  0  0  0
  -24.9160  -33.9240   24.9590 H   0  0  0  0  0  0  0  0  0  0  0  0
  -24.0830  -36.6280   23.0770 C   0  0  0  0  0  1  0  0  0  0  0  0
  -25.3260  -36.2330   23.8920 C   0  0  0  0  0  3  0  0  0  0  0  0
  -27.4420  -37.1400   24.7450 C   0  0  0  0  0  1  0  0  0  0  0  0
  -26.3410  -37.3060   23.8000 N   0  0  0  0  0  0  0  0  0  0  0  0
  -25.9190  -38.2160   23.9610 H   0  0  0  0  0  0  0  0  0  0  0  0
  -29.3300  -21.1990   18.4730 C   0  0  0  0  0  2  0  0  0  0  0  0
  -30.5460  -21.8410   18.8380 O   0  0  0  0  0  0  0  0  0  0  0  0
  -31.6660  -20.9630   18.8910 C   0  0  0  0  0  2  0  0  0  0  0  0
  -31.8240  -20.3800   20.3030 C   0  0  0  0  0  2  0  0  0  0  0  0
  -30.9800  -19.2480   20.4530 O   0  0  0  0  0  0  0  0  0  0  0  0
  -30.8190  -18.8450   21.8060 C   0  0  0  0  0  2  0  0  0  0  0  0
  -30.2330  -17.4290   21.8100 C   0  0  0  0  0  2  0  0  0  0  0  0
  -31.2900  -16.3890   21.4010 C   0  0  0  0  0  2  0  0  0  0  0  0
  -31.1200  -14.2470   20.1640 C   0  0  0  0  0  0  0  0  0  0  0  0
  -30.6450  -12.1670   18.9320 C   0  0  0  0  0  2  0  0  0  0  0  0
  -29.6810  -12.4500   17.7650 C   0  0  0  0  0  2  0  0  0  0  0  0
  -28.2180  -12.3700   18.2400 C   0  0  0  0  0  2  0  0  0  0  0  0
  -27.9610  -13.2080   19.5210 C   0  0  0  0  0  3  0  0  0  0  0  0
  -29.0310  -12.9050   20.5930 C   0  0  0  0  0  2  0  0  0  0  0  0
  -30.3620  -13.1350   20.0000 N   0  0  0  0  0  0  0  0  0  0  0  0
  -32.1330  -14.4850   19.4980 O   0  0  0  0  0  0  0  0  0  0  0  0
  -30.6930  -15.0880   21.1150 N   0  0  0  0  0  0  0  0  0  0  0  0
  -29.8770  -14.8110   21.6410 H   0  0  0  0  0  0  0  0  0  0  0  0
  -25.6020  -13.9210   20.2790 C   0  0  0  0  0  0  0  0  0  0  0  0
  -24.5180  -13.1970   20.6900 C   0  0  0  0  0  0  0  0  0  0  0  0
  -24.9250  -11.8280   20.6660 C   0  0  0  0  0  0  0  0  0  0  0  0
  -26.6090  -12.9960   20.0350 N   0  0  0  0  0  0  0  0  0  0  0  0
  -26.2030  -11.7330   20.3210 N   0  0  0  0  0  0  0  0  0  0  0  0
  -24.1560  -10.6000   20.8990 C   0  0  0  0  0  0  0  0  0  0  0  0
  -24.5760   -9.6330   21.8390 C   0  0  0  0  0  3  0  0  0  0  0  0
  -23.8120   -8.4650   22.0570 C   0  0  0  0  0  3  0  0  0  0  0  0
  -22.6120   -8.2580   21.3330 C   0  0  0  0  0  0  0  0  0  0  0  0
  -22.2130   -9.2130   20.3800 C   0  0  0  0  0  3  0  0  0  0  0  0
  -22.9770  -10.3710   20.1620 C   0  0  0  0  0  3  0  0  0  0  0  0
  -21.8180   -7.1450   21.4590 O   0  0  0  0  0  0  0  0  0  0  0  0
  -21.7580   -6.4330   22.6300 C   0  0  0  0  0  0  0  0  0  0  0  0
  -21.3920   -7.0370   23.8530 C   0  0  0  0  0  3  0  0  0  0  0  0
  -21.2760   -6.2520   25.0170 C   0  0  0  0  0  3  0  0  0  0  0  0
  -21.5160   -4.8670   24.9620 C   0  0  0  0  0  0  0  0  0  0  0  0
  -21.8760   -4.2630   23.7440 C   0  0  0  0  0  3  0  0  0  0  0  0
  -21.9950   -5.0440   22.5810 C   0  0  0  0  0  0  0  0  0  0  0  0
  -22.3200   -4.4540   21.4050 F   0  0  0  0  0  0  0  0  0  0  0  0
  -21.3970   -4.1110   26.0790 F   0  0  0  0  0  0  0  0  0  0  0  0
  -23.1480  -13.7320   21.0000 C   0  0  0  0  0  0  0  0  0  0  0  0
  -22.4250  -13.0830   21.9050 N   0  0  0  0  0  0  0  0  0  0  0  0
  -22.7320  -14.7630   20.4740 O   0  0  0  0  0  0  0  0  0  0  0  0
  -22.7760  -12.2530   22.3570 H   0  0  0  0  0  0  0  0  0  0  0  0
  -21.5060  -13.4240   22.1490 H   0  0  0  0  0  0  0  0  0  0  0  0
  -25.8130  -15.2830   20.0780 N   0  0  0  0  0  0  0  0  0  0  0  0
  -25.0700  -15.9630   20.1970 H   0  0  0  0  0  0  0  0  0  0  0  0
  -26.6750  -15.6920   19.7430 H   0  0  0  0  0  0  0  0  0  0  0  0
  1  2  1  0
  2  3  1  0
  3  4  1  0
  4  5  1  0
  6  8  1  0
  6  5  1  0
  7 18  2  0
  8 13  1  0
  9 17  1  0
  9 19  1  0
 10 16  1  0
 10 12  1  0
 11 17  1  0
 12 13  2  0
 12 11  1  0
 14  8  2  0
 15 14  1  0
 15 10  2  0
 16  9  1  0
 17  7  1  0
 19 21  2  0
 20 19  1  0
 22 20  1  0
 23 32  2  0
 23 28  1  0
 24 20  1  0
 24 28  1  0
 25 24  1  0
 26 27  1  0
 26 25  1  0
 27 23  1  0
 28 29  2  0
 29 30  1  0
 31 30  2  0
 32 31  1  0
 33  7  1  0
 33 38  1  0
 33 34  1  0
 34 37  1  1
 34 35  1  0
 36 34  1  0
 38 41  1  0
 39 43  1  0
 39 38  1  0
 40 39  2  0
 43 42  1  0
 45 43  1  0
 45 46  1  0
 45 44  1  0
 47  1  1  0
 47 48  1  0
 48 49  1  0
 49 50  1  0
 50 51  1  0
 51 52  1  0
 52 53  1  0
 54 53  1  0
 55 63  1  0
 56 61  1  0
 57 58  1  0
 57 56  1  0
 59 58  1  0
 59 68  1  0
 59 60  1  0
 61 55  1  0
 61 60  1  0
 62 55  2  0
 63 54  1  0
 63 64  1  0
 65 66  2  0
 66 85  1  0
 67 66  1  0
 67 70  1  0
 68 65  1  0
 68 69  1  0
 69 67  2  0
 70 71  1  0
 71 72  2  0
 73 76  1  0
 73 72  1  0
 74 73  2  0
 75 74  1  0
 75 70  2  0
 76 77  1  0
 77 78  1  0
 78 79  2  0
 80 79  1  0
 80 84  1  0
 81 80  2  0
 82 77  2  0
 82 81  1  0
 83 82  1  0
 85 86  1  0
 86 89  1  0
 86 88  1  0
 87 85  2  0
 90 91  1  0
 90 65  1  0
 92 90  1  0
M  ISO  4   5 101   6 101  55 100  63 100
M  END
>  <TORSDO>  (50) 
F 28

>  <SCORE>  (50) 
-11.219

>  <name>  (50) 
50

>  <ligand_id>  (50) 
50

>  <original_smiles>  (50) 
[H]c1c([H])c([H])c2c(c1[H])C([H])([H])C([H])([H])C([H])([H])C2([H])N([H])C(=O)C1([H])N(C(=O)C([H])(N([H])C(=O)C([H])(N([H])C([H])([H])[H])C([H])([H])[H])C(C([H])([H])[H])(C([H])([H])[H])C([H])([H])[H])C([H])([H])c2c([H])c(OC([H])([H])C([H])([H])C([H])([H])OC([H])([H])C([H])([H])OC([H])([H])C([H])([H])OC([H])([H])C([H])([H])C([H])([H])N([H])C(=O)N3C([H])([H])C([H])([H])C([H])([H])C([H])(n4nc(-c5c([H])c([H])c(Oc6c([H])c([H])c(F)c([H])c6F)c([H])c5[H])c(C(=O)N([H])[H])c4N([H])[H])C3([H])[H])c([H])c([H])c2C1([H])[H]

>  <smiles>  (50) 
[H]c1c([H])c([H])c2c(c1[H])C([H])([H])C([H])([H])C([H])([H])C2([H])N([H])C(=O)C1([H])N(C(=O)C([H])(N([H])C(=O)C([H])(N([H])C([H])([H])[H])C([H])([H])[H])C(C([H])([H])[H])(C([H])([H])[H])C([H])([H])[H])C([H])([H])c2c([H])c(OC([H])([H])C([H])([H])C([H])([H])OC([H])([H])C([H])([H])OC([H])([H])C([H])([H])OC([H])([H])C([H])([H])C([H])([H])N([H])C(=O)N3C([H])([H])C([H])([H])C([H])([H])C([H])(n4nc(-c5c([H])c([H])c(Oc6c([H])c([H])c(F)c([H])c6F)c([H])c5[H])c(C(=O)N([H])[H])c4N([H])[H])C3([H])[H])c([H])c([H])c2C1([H])[H]

$$$$
51:0:0
     RDKit          3D

 96103  0  0  1  0  0  0  0  0999 V2000
  -28.0850  -23.6210   16.9320 N   0  0  0  0  0  4  0  0  0  0  0  0
  -28.6720  -23.7290   17.7480 H   0  0  0  0  0  0  0  0  0  0  0  0
  -28.6980  -23.4510   16.1490 H   0  0  0  0  0  0  0  0  0  0  0  0
  -27.1940  -22.4520   17.1060 C   0  0  0  0  0  2  0  0  0  0  0  0
  -27.9110  -21.1100   16.8910 C   0  0  0  0  0  2  0  0  0  0  0  0
  -28.2670  -20.5230   18.1410 O   0  0  0  0  0  0  0  0  0  0  0  0
  -28.6750  -19.1630   17.9940 C   0  0  0  0  0  2  0  0  0  0  0  0
  -28.5080  -18.3900   19.3130 C   0  0  0  0  0  2  0  0  0  0  0  0
  -29.7580  -18.1720   19.9570 O   0  0  0  0  0  0  0  0  0  0  0  0
  -29.6260  -17.3270   21.0960 C   0  0  0  0  0  2  0  0  0  0  0  0
  -30.9930  -17.0700   21.7520 C   0  0  0  0  0  2  0  0  0  0  0  0
  -31.8810  -16.0500   21.0130 C   0  0  0  0  0  2  0  0  0  0  0  0
  -31.7640  -13.6910   20.2380 C   0  0  0  0  0  0  0  0  0  0  0  0
  -31.1480  -11.6000   19.0880 C   0  0  0  0  0  2  0  0  0  0  0  0
  -30.1960  -11.9160   17.9170 C   0  0  0  0  0  2  0  0  0  0  0  0
  -28.7330  -11.9700   18.3980 C   0  0  0  0  0  2  0  0  0  0  0  0
  -28.5490  -12.8560   19.6580 C   0  0  0  0  0  3  0  0  0  0  0  0
  -29.5990  -12.4980   20.7350 C   0  0  0  0  0  2  0  0  0  0  0  0
  -30.9370  -12.6190   20.1270 N   0  0  0  0  0  0  0  0  0  0  0  0
  -32.8470  -13.7770   19.6500 O   0  0  0  0  0  0  0  0  0  0  0  0
  -31.2800  -14.7140   20.9560 N   0  0  0  0  0  0  0  0  0  0  0  0
  -30.4020  -14.5630   21.4290 H   0  0  0  0  0  0  0  0  0  0  0  0
  -26.3140  -13.7810   20.5400 C   0  0  0  0  0  0  0  0  0  0  0  0
  -25.1470  -13.1620   20.8990 C   0  0  0  0  0  0  0  0  0  0  0  0
  -25.3710  -11.7630   20.7210 C   0  0  0  0  0  0  0  0  0  0  0  0
  -27.1870  -12.7660   20.1790 N   0  0  0  0  0  0  0  0  0  0  0  0
  -26.6230  -11.5420   20.3420 N   0  0  0  0  0  0  0  0  0  0  0  0
  -24.4490  -10.6260   20.8340 C   0  0  0  0  0  0  0  0  0  0  0  0
  -24.6830   -9.5760   21.7490 C   0  0  0  0  0  3  0  0  0  0  0  0
  -23.7730   -8.5020   21.8540 C   0  0  0  0  0  3  0  0  0  0  0  0
  -22.6140   -8.4720   21.0440 C   0  0  0  0  0  0  0  0  0  0  0  0
  -22.3970   -9.5090   20.1180 C   0  0  0  0  0  3  0  0  0  0  0  0
  -23.3070  -10.5740   20.0100 C   0  0  0  0  0  3  0  0  0  0  0  0
  -21.6880   -7.4580   21.0590 O   0  0  0  0  0  0  0  0  0  0  0  0
  -21.3800   -6.7820   22.2130 C   0  0  0  0  0  0  0  0  0  0  0  0
  -20.8540   -7.4400   23.3450 C   0  0  0  0  0  3  0  0  0  0  0  0
  -20.4860   -6.6970   24.4840 C   0  0  0  0  0  3  0  0  0  0  0  0
  -20.6350   -5.2980   24.4900 C   0  0  0  0  0  0  0  0  0  0  0  0
  -21.1540   -4.6400   23.3610 C   0  0  0  0  0  3  0  0  0  0  0  0
  -21.5220   -5.3790   22.2240 C   0  0  0  0  0  0  0  0  0  0  0  0
  -22.0010   -4.7380   21.1300 F   0  0  0  0  0  0  0  0  0  0  0  0
  -20.2740   -4.5820   25.5800 F   0  0  0  0  0  0  0  0  0  0  0  0
  -23.8620  -13.8340   21.2890 C   0  0  0  0  0  0  0  0  0  0  0  0
  -23.0790  -13.2010   22.1580 N   0  0  0  0  0  0  0  0  0  0  0  0
  -23.5690  -14.9500   20.8630 O   0  0  0  0  0  0  0  0  0  0  0  0
  -23.3300  -12.2950   22.5220 H   0  0  0  0  0  0  0  0  0  0  0  0
  -22.2160  -13.6310   22.4580 H   0  0  0  0  0  0  0  0  0  0  0  0
  -26.6980  -15.1160   20.4700 N   0  0  0  0  0  0  0  0  0  0  0  0
  -26.0440  -15.8680   20.6560 H   0  0  0  0  0  0  0  0  0  0  0  0
  -27.5760  -15.4360   20.0890 H   0  0  0  0  0  0  0  0  0  0  0  0
  -27.3580  -24.8890   16.6880 C   0  0  0  0  0  2  0  0  0  0  0  0
  -28.3070  -26.0920   16.6410 C   0  0  0  0  0  2  0  0  0  0  0  0
  -28.9520  -26.1540   17.9040 O   0  0  0  0  0  0  0  0  0  0  0  0
  -29.4210  -27.4520   18.2390 C   0  0  0  0  0  2  0  0  0  0  0  0
  -29.7860  -27.4390   19.7310 C   0  0  0  0  0  2  0  0  0  0  0  0
  -28.6950  -26.9220   20.4860 O   0  0  0  0  0  0  0  0  0  0  0  0
  -24.8280  -32.0190   23.6000 C   0  0  0  0  0  0  0  0  0  0  0  0
  -27.5500  -27.6770   20.4950 C   0  0  0  0  0  0  0  0  0  0  0  0
  -23.6580  -30.6550   21.8960 C   0  0  0  0  0  3  0  0  0  0  0  0
  -25.1480  -29.1480   20.4780 C   0  0  0  0  0  0  0  0  0  0  0  0
  -26.1830  -31.0300   21.7620 C   0  0  0  0  0  2  0  0  0  0  0  0
  -26.2870  -29.6740   21.1000 C   0  0  0  0  0  0  0  0  0  0  0  0
  -27.4940  -28.9460   21.1090 C   0  0  0  0  0  3  0  0  0  0  0  0
  -26.3960  -27.1470   19.8870 C   0  0  0  0  0  3  0  0  0  0  0  0
  -25.1940  -27.8810   19.8670 C   0  0  0  0  0  3  0  0  0  0  0  0
  -23.9020  -30.0030   20.5070 C   0  0  0  0  0  2  0  0  0  0  0  0
  -24.9060  -31.2470   22.4790 N   0  0  0  0  0  0  0  0  0  0  0  0
  -23.7350  -32.2800   24.1220 O   0  0  0  0  0  0  0  0  0  0  0  0
  -22.9850  -29.6140   22.8190 C   0  0  0  0  0  0  0  0  0  0  0  0
  -21.6730  -29.4060   22.6260 N   0  0  0  0  0  0  0  0  0  0  0  0
  -23.6410  -28.9980   23.6630 O   0  0  0  0  0  0  0  0  0  0  0  0
  -21.2060  -29.9590   21.9190 H   0  0  0  0  0  0  0  0  0  0  0  0
  -18.3050  -28.1370   22.9410 C   0  0  0  0  0  0  0  0  0  0  0  0
  -20.8390  -28.4480   23.3500 C   0  0  0  0  0  3  0  0  0  0  0  0
  -21.0020  -27.0220   22.7740 C   0  0  0  0  0  2  0  0  0  0  0  0
  -19.9620  -26.6800   21.7030 C   0  0  0  0  0  2  0  0  0  0  0  0
  -18.5460  -26.7940   22.2720 C   0  0  0  0  0  2  0  0  0  0  0  0
  -19.3830  -28.9210   23.4330 C   0  0  0  0  0  0  0  0  0  0  0  0
  -19.1070  -30.1780   24.0130 C   0  0  0  0  0  3  0  0  0  0  0  0
  -17.7860  -30.6520   24.1100 C   0  0  0  0  0  3  0  0  0  0  0  0
  -16.7210  -29.8660   23.6370 C   0  0  0  0  0  3  0  0  0  0  0  0
  -16.9810  -28.6110   23.0570 C   0  0  0  0  0  3  0  0  0  0  0  0
  -26.1020  -32.6310   24.2630 C   0  0  0  0  0  3  0  0  0  0  0  0
  -25.8160  -34.0430   24.5490 N   0  0  0  0  0  0  0  0  0  0  0  0
  -26.2360  -35.0700   23.7970 C   0  0  0  0  0  0  0  0  0  0  0  0
  -26.9750  -34.9270   22.8190 O   0  0  0  0  0  0  0  0  0  0  0  0
  -25.1730  -34.2310   25.3030 H   0  0  0  0  0  0  0  0  0  0  0  0
  -24.6160  -36.9170   23.2650 C   0  0  0  0  0  1  0  0  0  0  0  0
  -25.7600  -36.4790   24.1940 C   0  0  0  0  0  3  0  0  0  0  0  0
  -27.8370  -37.2970   25.2160 C   0  0  0  0  0  1  0  0  0  0  0  0
  -26.8370  -37.4930   24.1700 N   0  0  0  0  0  0  0  0  0  0  0  0
  -26.4520  -38.4280   24.2700 H   0  0  0  0  0  0  0  0  0  0  0  0
  -26.5470  -31.8730   25.5730 C   0  0  1  0  0  0  0  0  0  0  0  0
  -25.4020  -31.6650   26.5910 C   0  0  0  0  0  1  0  0  0  0  0  0
  -27.1320  -30.4840   25.2260 C   0  0  0  0  0  1  0  0  0  0  0  0
  -27.6750  -32.6640   26.2780 C   0  0  0  0  0  1  0  0  0  0  0  0
  1  4  1  0
  1  2  1  0
  3  1  1  0
  5  4  1  0
  5  6  1  0
  7  6  1  0
  7  8  1  0
  8  9  1  0
  9 10  1  0
 10 11  1  0
 12 11  1  0
 13 21  1  0
 14 19  1  0
 15 16  1  0
 15 14  1  0
 17 16  1  0
 17 26  1  0
 17 18  1  0
 19 13  1  0
 19 18  1  0
 20 13  2  0
 21 12  1  0
 21 22  1  0
 23 24  2  0
 24 43  1  0
 25 28  1  0
 25 24  1  0
 26 27  1  0
 26 23  1  0
 27 25  2  0
 28 29  1  0
 29 30  2  0
 31 34  1  0
 31 30  1  0
 32 31  2  0
 33 32  1  0
 33 28  2  0
 34 35  1  0
 35 40  2  0
 35 36  1  0
 36 37  2  0
 37 38  1  0
 38 42  1  0
 39 38  2  0
 40 39  1  0
 41 40  1  0
 43 44  1  0
 44 47  1  0
 44 46  1  0
 45 43  2  0
 48 23  1  0
 48 49  1  0
 50 48  1  0
 51  1  1  0
 52 51  1  0
 52 53  1  0
 53 54  1  0
 54 55  1  0
 55 56  1  0
 56 58  1  0
 57 68  2  0
 58 63  1  0
 59 67  1  0
 59 69  1  0
 60 66  1  0
 60 62  1  0
 61 67  1  0
 62 63  2  0
 62 61  1  0
 64 58  2  0
 65 64  1  0
 65 60  2  0
 66 59  1  0
 67 57  1  0
 69 71  2  0
 70 69  1  0
 72 70  1  0
 73 82  2  0
 73 78  1  0
 74 70  1  0
 74 78  1  0
 75 74  1  0
 76 77  1  0
 76 75  1  0
 77 73  1  0
 78 79  2  0
 79 80  1  0
 81 80  2  0
 82 81  1  0
 83 57  1  0
 83 84  1  0
 83 93  1  0
 84 87  1  0
 85 89  1  0
 85 84  1  0
 86 85  2  0
 89 88  1  0
 91 89  1  0
 91 92  1  0
 91 90  1  0
 93 96  1  1
 93 94  1  0
 95 93  1  0
M  ISO  4  13 100  21 100  55 101  56 101
M  END
>  <TORSDO>  (51) 
F 30

>  <SCORE>  (51) 
-8.604

>  <name>  (51) 
51

>  <ligand_id>  (51) 
51

>  <original_smiles>  (51) 
[H]c1c([H])c([H])c2c(c1[H])C([H])([H])C([H])([H])C([H])([H])C2([H])N([H])C(=O)C1([H])N(C(=O)C([H])(N([H])C(=O)C([H])(N([H])C([H])([H])[H])C([H])([H])[H])C(C([H])([H])[H])(C([H])([H])[H])C([H])([H])[H])C([H])([H])c2c([H])c(OC([H])([H])C([H])([H])OC([H])([H])C([H])([H])[N+]([H])([H])C([H])([H])C([H])([H])OC([H])([H])C([H])([H])OC([H])([H])C([H])([H])C([H])([H])N([H])C(=O)N3C([H])([H])C([H])([H])C([H])([H])C([H])(n4nc(-c5c([H])c([H])c(Oc6c([H])c([H])c(F)c([H])c6F)c([H])c5[H])c(C(=O)N([H])[H])c4N([H])[H])C3([H])[H])c([H])c([H])c2C1([H])[H]

>  <smiles>  (51) 
[H]c1c([H])c([H])c2c(c1[H])C([H])([H])C([H])([H])C([H])([H])C2([H])N([H])C(=O)C1([H])N(C(=O)C([H])(N([H])C(=O)C([H])(N([H])C([H])([H])[H])C([H])([H])[H])C(C([H])([H])[H])(C([H])([H])[H])C([H])([H])[H])C([H])([H])c2c([H])c(OC([H])([H])C([H])([H])OC([H])([H])C([H])([H])[N+]([H])([H])C([H])([H])C([H])([H])OC([H])([H])C([H])([H])OC([H])([H])C([H])([H])C([H])([H])N([H])C(=O)N3C([H])([H])C([H])([H])C([H])([H])C([H])(n4nc(-c5c([H])c([H])c(Oc6c([H])c([H])c(F)c([H])c6F)c([H])c5[H])c(C(=O)N([H])[H])c4N([H])[H])C3([H])[H])c([H])c([H])c2C1([H])[H]

$$$$
52:0:0
     RDKit          3D

103110  0  0  1  0  0  0  0  0999 V2000
  -33.1210  -22.7140   22.7620 C   0  0  0  0  0  0  0  0  0  0  0  0
  -31.9910  -22.0000   22.7290 N   0  0  0  0  0  0  0  0  0  0  0  0
  -33.8960  -22.7330   23.7230 O   0  0  0  0  0  0  0  0  0  0  0  0
  -31.4090  -22.1010   21.9060 H   0  0  0  0  0  0  0  0  0  0  0  0
  -33.3600  -23.5790   21.4820 C   0  0  0  0  0  0  0  0  0  0  0  0
  -35.7800  -22.9260   21.4740 C   0  0  0  0  0  1  0  0  0  0  0  0
  -34.6050  -23.6280   20.9350 N   0  0  0  0  0  0  0  0  0  0  0  0
  -32.3810  -24.1560   20.9980 O   0  0  0  0  0  0  0  0  0  0  0  0
  -34.8570  -24.3980   19.7070 C   0  0  0  0  0  2  0  0  0  0  0  0
  -34.9850  -25.9040   19.9870 C   0  0  0  0  0  2  0  0  0  0  0  0
  -33.7820  -26.3740   20.5730 O   0  0  0  0  0  0  0  0  0  0  0  0
  -33.7340  -27.7860   20.7050 C   0  0  0  0  0  2  0  0  0  0  0  0
  -32.3690  -28.1820   21.2790 C   0  0  0  0  0  2  0  0  0  0  0  0
  -31.3680  -27.6520   20.4110 O   0  0  0  0  0  0  0  0  0  0  0  0
  -25.7470  -27.6900   24.8400 C   0  0  0  0  0  0  0  0  0  0  0  0
  -30.0510  -27.9470   20.6670 C   0  0  0  0  0  0  0  0  0  0  0  0
  -25.2830  -28.2540   22.4750 C   0  0  0  0  0  3  0  0  0  0  0  0
  -27.3340  -28.6420   21.0120 C   0  0  0  0  0  0  0  0  0  0  0  0
  -27.5770  -28.7090   23.5010 C   0  0  0  0  0  2  0  0  0  0  0  0
  -28.1670  -28.4860   22.1270 C   0  0  0  0  0  0  0  0  0  0  0  0
  -29.5200  -28.1310   21.9640 C   0  0  0  0  0  3  0  0  0  0  0  0
  -29.1970  -28.0810   19.5530 C   0  0  0  0  0  3  0  0  0  0  0  0
  -27.8420  -28.4300   19.7160 C   0  0  0  0  0  3  0  0  0  0  0  0
  -25.9000  -29.0360   21.2820 C   0  0  0  0  0  2  0  0  0  0  0  0
  -26.2050  -28.1760   23.6540 N   0  0  0  0  0  0  0  0  0  0  0  0
  -24.5640  -27.3510   24.9790 O   0  0  0  0  0  0  0  0  0  0  0  0
  -24.8220  -26.8710   21.9670 C   0  0  0  0  0  0  0  0  0  0  0  0
  -23.6540  -26.8390   21.3050 N   0  0  0  0  0  0  0  0  0  0  0  0
  -25.5180  -25.8670   22.1420 O   0  0  0  0  0  0  0  0  0  0  0  0
  -23.1420  -27.7040   21.2090 H   0  0  0  0  0  0  0  0  0  0  0  0
  -20.6700  -25.6260   19.6700 C   0  0  0  0  0  0  0  0  0  0  0  0
  -23.0400  -25.6560   20.7020 C   0  0  0  0  0  3  0  0  0  0  0  0
  -23.5600  -25.4320   19.2630 C   0  0  0  0  0  2  0  0  0  0  0  0
  -22.6760  -26.0820   18.1950 C   0  0  0  0  0  2  0  0  0  0  0  0
  -21.2500  -25.5300   18.2680 C   0  0  0  0  0  2  0  0  0  0  0  0
  -21.5120  -25.7020   20.8120 C   0  0  0  0  0  0  0  0  0  0  0  0
  -20.9230  -25.8270   22.0890 C   0  0  0  0  0  3  0  0  0  0  0  0
  -19.5250  -25.8730   22.2360 C   0  0  0  0  0  3  0  0  0  0  0  0
  -18.6960  -25.7820   21.1040 C   0  0  0  0  0  3  0  0  0  0  0  0
  -19.2700  -25.6550   19.8260 C   0  0  0  0  0  3  0  0  0  0  0  0
  -26.6790  -27.5580   26.0860 C   0  0  0  0  0  3  0  0  0  0  0  0
  -27.3790  -26.1480   26.1940 C   0  0  1  0  0  0  0  0  0  0  0  0
  -26.3990  -24.9570   26.0870 C   0  0  0  0  0  1  0  0  0  0  0  0
  -28.4460  -25.9840   25.0870 C   0  0  0  0  0  1  0  0  0  0  0  0
  -28.1230  -26.0340   27.5460 C   0  0  0  0  0  1  0  0  0  0  0  0
  -25.8640  -27.8280   27.2780 N   0  0  0  0  0  0  0  0  0  0  0  0
  -25.8530  -28.9910   27.9430 C   0  0  0  0  0  0  0  0  0  0  0  0
  -26.5950  -29.9340   27.6550 O   0  0  0  0  0  0  0  0  0  0  0  0
  -25.1930  -27.1190   27.5380 H   0  0  0  0  0  0  0  0  0  0  0  0
  -23.6270  -29.9180   28.6530 C   0  0  0  0  0  1  0  0  0  0  0  0
  -24.8620  -29.1290   29.1150 C   0  0  0  0  0  3  0  0  0  0  0  0
  -26.4680  -28.9600   30.9640 C   0  0  0  0  0  1  0  0  0  0  0  0
  -25.4490  -29.7750   30.3080 N   0  0  0  0  0  0  0  0  0  0  0  0
  -24.7290  -29.9930   30.9910 H   0  0  0  0  0  0  0  0  0  0  0  0
  -31.4640  -21.1880   23.8190 C   0  0  0  0  0  2  0  0  0  0  0  0
  -29.9420  -21.0630   23.6760 C   0  0  0  0  0  2  0  0  0  0  0  0
  -29.3870  -22.3740   23.6020 O   0  0  0  0  0  0  0  0  0  0  0  0
  -28.6840  -22.6570   22.3970 C   0  0  0  0  0  2  0  0  0  0  0  0
  -29.6590  -23.0810   21.2860 C   0  0  0  0  0  2  0  0  0  0  0  0
  -30.2630  -21.9330   20.6990 O   0  0  0  0  0  0  0  0  0  0  0  0
  -31.3120  -22.2540   19.7920 C   0  0  0  0  0  2  0  0  0  0  0  0
  -31.3310  -21.2260   18.6580 C   0  0  0  0  0  2  0  0  0  0  0  0
  -31.7200  -19.9470   19.1480 O   0  0  0  0  0  0  0  0  0  0  0  0
  -31.8320  -19.0100   18.0890 C   0  0  0  0  0  2  0  0  0  0  0  0
  -32.0590  -17.5940   18.6320 C   0  0  0  0  0  2  0  0  0  0  0  0
  -32.9540  -15.6310   17.3680 C   0  0  0  0  0  0  0  0  0  0  0  0
  -33.8480  -13.9720   15.7790 C   0  0  0  0  0  2  0  0  0  0  0  0
  -35.0380  -14.5460   14.9900 C   0  0  0  0  0  2  0  0  0  0  0  0
  -34.5540  -15.3250   13.7510 C   0  0  0  0  0  2  0  0  0  0  0  0
  -33.4320  -16.3430   14.0870 C   0  0  0  0  0  3  0  0  0  0  0  0
  -32.3260  -15.6680   14.9280 C   0  0  0  0  0  2  0  0  0  0  0  0
  -32.9490  -15.0770   16.1310 N   0  0  0  0  0  0  0  0  0  0  0  0
  -33.6590  -15.2310   18.2990 O   0  0  0  0  0  0  0  0  0  0  0  0
  -32.1200  -16.6620   17.5130 N   0  0  0  0  0  0  0  0  0  0  0  0
  -31.5480  -16.8790   16.7100 H   0  0  0  0  0  0  0  0  0  0  0  0
  -32.8010  -18.2990   12.5310 C   0  0  0  0  0  0  0  0  0  0  0  0
  -32.2730  -18.3270   11.2680 C   0  0  0  0  0  0  0  0  0  0  0  0
  -32.0730  -16.9660   10.8920 C   0  0  0  0  0  0  0  0  0  0  0  0
  -32.8890  -16.9580   12.8760 N   0  0  0  0  0  0  0  0  0  0  0  0
  -32.3980  -16.1590   11.8960 N   0  0  0  0  0  0  0  0  0  0  0  0
  -31.6410  -16.3770    9.6170 C   0  0  0  0  0  0  0  0  0  0  0  0
  -30.5180  -15.5240    9.5410 C   0  0  0  0  0  3  0  0  0  0  0  0
  -30.1110  -14.9840    8.3020 C   0  0  0  0  0  3  0  0  0  0  0  0
  -30.8260  -15.2990    7.1210 C   0  0  0  0  0  0  0  0  0  0  0  0
  -31.9550  -16.1310    7.2060 C   0  0  0  0  0  3  0  0  0  0  0  0
  -32.3620  -16.6640    8.4410 C   0  0  0  0  0  3  0  0  0  0  0  0
  -30.5200  -14.8000    5.8780 O   0  0  0  0  0  0  0  0  0  0  0  0
  -29.2340  -14.4790    5.5290 C   0  0  0  0  0  0  0  0  0  0  0  0
  -28.1820  -15.4180    5.6090 C   0  0  0  0  0  3  0  0  0  0  0  0
  -26.8900  -15.0650    5.1730 C   0  0  0  0  0  3  0  0  0  0  0  0
  -26.6480  -13.7810    4.6480 C   0  0  0  0  0  0  0  0  0  0  0  0
  -27.6950  -12.8470    4.5640 C   0  0  0  0  0  3  0  0  0  0  0  0
  -28.9850  -13.1970    5.0000 C   0  0  0  0  0  0  0  0  0  0  0  0
  -29.9950  -12.3000    4.8960 F   0  0  0  0  0  0  0  0  0  0  0  0
  -25.4090  -13.4450    4.2220 F   0  0  0  0  0  0  0  0  0  0  0  0
  -32.0570  -19.5450   10.4140 C   0  0  0  0  0  0  0  0  0  0  0  0
  -31.0530  -19.5180    9.5450 N   0  0  0  0  0  0  0  0  0  0  0  0
  -32.7520  -20.5510   10.5500 O   0  0  0  0  0  0  0  0  0  0  0  0
  -30.4640  -18.7050    9.4460 H   0  0  0  0  0  0  0  0  0  0  0  0
  -30.8690  -20.3280    8.9690 H   0  0  0  0  0  0  0  0  0  0  0  0
  -33.2230  -19.2950   13.4070 N   0  0  0  0  0  0  0  0  0  0  0  0
  -33.2170  -20.2770   13.1520 H   0  0  0  0  0  0  0  0  0  0  0  0
  -33.6380  -19.1230   14.3130 H   0  0  0  0  0  0  0  0  0  0  0  0
  1  3  2  0
  2  1  1  0
  2 55  1  0
  4  2  1  0
  5  1  1  0
  7  6  1  0
  7  5  1  0
  8  5  2  0
  9 10  1  0
  9  7  1  0
 10 11  1  0
 11 12  1  0
 12 13  1  0
 14 16  1  0
 14 13  1  0
 15 26  2  0
 16 21  1  0
 17 27  1  0
 17 25  1  0
 18 24  1  0
 18 20  1  0
 19 25  1  0
 20 19  1  0
 21 20  2  0
 22 23  1  0
 22 16  2  0
 23 18  2  0
 24 17  1  0
 25 15  1  0
 27 29  2  0
 28 27  1  0
 30 28  1  0
 31 40  2  0
 31 36  1  0
 32 36  1  0
 32 28  1  0
 33 32  1  0
 34 35  1  0
 34 33  1  0
 35 31  1  0
 36 37  2  0
 37 38  1  0
 39 38  2  0
 40 39  1  0
 41 15  1  0
 41 42  1  0
 41 46  1  0
 42 45  1  1
 43 42  1  0
 44 42  1  0
 46 49  1  0
 46 47  1  0
 47 51  1  0
 48 47  2  0
 51 50  1  0
 51 53  1  0
 53 52  1  0
 53 54  1  0
 56 55  1  0
 57 56  1  0
 58 57  1  0
 59 58  1  0
 60 59  1  0
 61 60  1  0
 62 63  1  0
 62 61  1  0
 64 65  1  0
 64 63  1  0
 66 74  1  0
 66 73  2  0
 67 72  1  0
 68 67  1  0
 69 70  1  0
 69 68  1  0
 70 79  1  0
 70 71  1  0
 71 72  1  0
 72 66  1  0
 74 65  1  0
 75 74  1  0
 76 79  1  0
 76101  1  0
 77 76  2  0
 78 77  1  0
 78 80  2  0
 80 79  1  0
 81 78  1  0
 82 81  1  0
 83 82  2  0
 84 85  2  0
 84 83  1  0
 85 86  1  0
 86 81  2  0
 87 84  1  0
 88 89  1  0
 88 87  1  0
 90 89  2  0
 91 90  1  0
 92 91  2  0
 92 93  1  0
 93 88  2  0
 94 93  1  0
 95 91  1  0
 96 98  2  0
 96 77  1  0
 97 96  1  0
 99 97  1  0
100 97  1  0
101103  1  0
102101  1  0
M  ISO  4  13 101  14 101  66 100  74 100
M  END
>  <TORSDO>  (52) 
F 33

>  <SCORE>  (52) 
8.313

>  <name>  (52) 
52

>  <ligand_id>  (52) 
52

>  <original_smiles>  (52) 
[H]c1c([H])c([H])c2c(c1[H])C([H])([H])C([H])([H])C([H])([H])C2([H])N([H])C(=O)C1([H])N(C(=O)C([H])(N([H])C(=O)C([H])(N([H])C([H])([H])[H])C([H])([H])[H])C(C([H])([H])[H])(C([H])([H])[H])C([H])([H])[H])C([H])([H])c2c([H])c(OC([H])([H])C([H])([H])OC([H])([H])C([H])([H])N(C(=O)C(=O)N([H])C([H])([H])C([H])([H])OC([H])([H])C([H])([H])OC([H])([H])C([H])([H])OC([H])([H])C([H])([H])N([H])C(=O)N3C([H])([H])C([H])([H])C([H])([H])C([H])(n4nc(-c5c([H])c([H])c(Oc6c([H])c([H])c(F)c([H])c6F)c([H])c5[H])c(C(=O)N([H])[H])c4N([H])[H])C3([H])[H])C([H])([H])[H])c([H])c([H])c2C1([H])[H]

>  <smiles>  (52) 
[H]c1c([H])c([H])c2c(c1[H])C([H])([H])C([H])([H])C([H])([H])C2([H])N([H])C(=O)C1([H])N(C(=O)C([H])(N([H])C(=O)C([H])(N([H])C([H])([H])[H])C([H])([H])[H])C(C([H])([H])[H])(C([H])([H])[H])C([H])([H])[H])C([H])([H])c2c([H])c(OC([H])([H])C([H])([H])OC([H])([H])C([H])([H])N(C(=O)C(=O)N([H])C([H])([H])C([H])([H])OC([H])([H])C([H])([H])OC([H])([H])C([H])([H])OC([H])([H])C([H])([H])N([H])C(=O)N3C([H])([H])C([H])([H])C([H])([H])C([H])(n4nc(-c5c([H])c([H])c(Oc6c([H])c([H])c(F)c([H])c6F)c([H])c5[H])c(C(=O)N([H])[H])c4N([H])[H])C3([H])[H])C([H])([H])[H])c([H])c([H])c2C1([H])[H]

$$$$
53:0:0
     RDKit          3D

104111  0  0  1  0  0  0  0  0999 V2000
  -26.2010  -21.3250   19.5250 C   0  0  0  0  0  0  0  0  0  0  0  0
  -25.7560  -22.2370   18.6550 N   0  0  0  0  0  0  0  0  0  0  0  0
  -26.4150  -20.1370   19.2630 O   0  0  0  0  0  0  0  0  0  0  0  0
  -25.5840  -23.1560   19.0440 H   0  0  0  0  0  0  0  0  0  0  0  0
  -26.5530  -21.9180   20.9040 C   0  0  0  0  0  0  0  0  0  0  0  0
  -27.8280  -21.7400   21.2600 N   0  0  0  0  0  0  0  0  0  0  0  0
  -25.7310  -22.5830   21.5410 O   0  0  0  0  0  0  0  0  0  0  0  0
  -28.3980  -21.1810   20.6390 H   0  0  0  0  0  0  0  0  0  0  0  0
  -28.4900  -22.4510   22.3450 C   0  0  0  0  0  2  0  0  0  0  0  0
  -28.6200  -23.9460   22.0050 C   0  0  0  0  0  2  0  0  0  0  0  0
  -29.4560  -24.0850   20.8600 O   0  0  0  0  0  0  0  0  0  0  0  0
  -29.6150  -25.4320   20.4230 C   0  0  0  0  0  2  0  0  0  0  0  0
  -28.4690  -25.8400   19.4890 C   0  0  0  0  0  2  0  0  0  0  0  0
  -28.4800  -27.2520   19.2880 O   0  0  0  0  0  0  0  0  0  0  0  0
  -24.6970  -31.8400   23.1290 C   0  0  0  0  0  0  0  0  0  0  0  0
  -27.2750  -27.8990   19.4160 C   0  0  0  0  0  0  0  0  0  0  0  0
  -23.4250  -30.5670   21.4270 C   0  0  0  0  0  3  0  0  0  0  0  0
  -24.8290  -29.2640   19.7480 C   0  0  0  0  0  0  0  0  0  0  0  0
  -25.9100  -31.0690   21.0980 C   0  0  0  0  0  2  0  0  0  0  0  0
  -26.0020  -29.7820   20.3090 C   0  0  0  0  0  0  0  0  0  0  0  0
  -27.2280  -29.1060   20.1410 C   0  0  0  0  0  3  0  0  0  0  0  0
  -26.0850  -27.3980   18.8360 C   0  0  0  0  0  3  0  0  0  0  0  0
  -24.8640  -28.0700   19.0080 C   0  0  0  0  0  3  0  0  0  0  0  0
  -23.5600  -30.0500   19.9710 C   0  0  0  0  0  2  0  0  0  0  0  0
  -24.6990  -31.1660   21.9440 N   0  0  0  0  0  0  0  0  0  0  0  0
  -23.6490  -32.0010   23.7680 O   0  0  0  0  0  0  0  0  0  0  0  0
  -22.8870  -29.4190   22.3120 C   0  0  0  0  0  0  0  0  0  0  0  0
  -21.5680  -29.1770   22.2400 N   0  0  0  0  0  0  0  0  0  0  0  0
  -23.6500  -28.7550   23.0190 O   0  0  0  0  0  0  0  0  0  0  0  0
  -21.0090  -29.7690   21.6430 H   0  0  0  0  0  0  0  0  0  0  0  0
  -18.3100  -27.7000   22.7200 C   0  0  0  0  0  0  0  0  0  0  0  0
  -20.8480  -28.1230   22.9550 C   0  0  0  0  0  3  0  0  0  0  0  0
  -21.0390  -26.7530   22.2650 C   0  0  0  0  0  2  0  0  0  0  0  0
  -19.9350  -26.4280   21.2550 C   0  0  0  0  0  2  0  0  0  0  0  0
  -18.5640  -26.4220   21.9400 C   0  0  0  0  0  2  0  0  0  0  0  0
  -19.3830  -28.5060   23.1850 C   0  0  0  0  0  0  0  0  0  0  0  0
  -19.0930  -29.7030   23.8760 C   0  0  0  0  0  3  0  0  0  0  0  0
  -17.7620  -30.0940   24.1100 C   0  0  0  0  0  3  0  0  0  0  0  0
  -16.7020  -29.2840   23.6660 C   0  0  0  0  0  3  0  0  0  0  0  0
  -16.9780  -28.0890   22.9760 C   0  0  0  0  0  3  0  0  0  0  0  0
  -26.0020  -32.4580   23.7210 C   0  0  0  0  0  3  0  0  0  0  0  0
  -26.6040  -31.6150   24.9100 C   0  0  1  0  0  0  0  0  0  0  0  0
  -25.5800  -31.2900   26.0220 C   0  0  0  0  0  1  0  0  0  0  0  0
  -27.1820  -30.2770   24.3920 C   0  0  0  0  0  1  0  0  0  0  0  0
  -27.7810  -32.3840   25.5560 C   0  0  0  0  0  1  0  0  0  0  0  0
  -25.6850  -33.8230   24.1580 N   0  0  0  0  0  0  0  0  0  0  0  0
  -25.9740  -34.9300   23.4620 C   0  0  0  0  0  0  0  0  0  0  0  0
  -26.6090  -34.9100   22.4040 O   0  0  0  0  0  0  0  0  0  0  0  0
  -25.1160  -33.9130   24.9880 H   0  0  0  0  0  0  0  0  0  0  0  0
  -24.2020  -36.7040   23.2930 C   0  0  0  0  0  1  0  0  0  0  0  0
  -25.4800  -36.2740   24.0300 C   0  0  0  0  0  3  0  0  0  0  0  0
  -27.6280  -37.1400   24.8400 C   0  0  0  0  0  1  0  0  0  0  0  0
  -26.4880  -37.3530   23.9530 N   0  0  0  0  0  0  0  0  0  0  0  0
  -26.0700  -38.2510   24.1830 H   0  0  0  0  0  0  0  0  0  0  0  0
  -25.5860  -22.0570   17.2160 C   0  0  0  0  0  2  0  0  0  0  0  0
  -26.9200  -21.8270   16.4670 C   0  0  0  0  0  2  0  0  0  0  0  0
  -28.0360  -22.8320   16.7990 C   0  0  0  0  0  2  0  0  0  0  0  0
  -29.2690  -22.2880   16.3500 O   0  0  0  0  0  0  0  0  0  0  0  0
  -30.4070  -23.0140   16.8000 C   0  0  0  0  0  2  0  0  0  0  0  0
  -31.6030  -22.0560   16.8510 C   0  0  0  0  0  2  0  0  0  0  0  0
  -31.2710  -21.0020   17.7440 O   0  0  0  0  0  0  0  0  0  0  0  0
  -32.3500  -20.1150   18.0000 C   0  0  0  0  0  2  0  0  0  0  0  0
  -31.7570  -18.7410   18.3270 C   0  0  0  0  0  2  0  0  0  0  0  0
  -31.1290  -18.7430   19.6070 O   0  0  0  0  0  0  0  0  0  0  0  0
  -30.2650  -17.6270   19.7740 C   0  0  0  0  0  2  0  0  0  0  0  0
  -30.2320  -17.1780   21.2520 C   0  0  0  0  0  2  0  0  0  0  0  0
  -30.5730  -14.7430   20.9750 C   0  0  0  0  0  0  0  0  0  0  0  0
  -30.4380  -12.4830   20.0240 C   0  0  0  0  0  2  0  0  0  0  0  0
  -29.6550  -12.5390   18.6970 C   0  0  0  0  0  2  0  0  0  0  0  0
  -28.1410  -12.4000   18.9520 C   0  0  0  0  0  2  0  0  0  0  0  0
  -27.6320  -13.3590   20.0630 C   0  0  0  0  0  3  0  0  0  0  0  0
  -28.5410  -13.2920   21.3110 C   0  0  0  0  0  2  0  0  0  0  0  0
  -29.9260  -13.5550   20.8850 N   0  0  0  0  0  0  0  0  0  0  0  0
  -31.7280  -14.9200   20.5770 O   0  0  0  0  0  0  0  0  0  0  0  0
  -29.8280  -15.7780   21.3800 N   0  0  0  0  0  0  0  0  0  0  0  0
  -28.8880  -15.5840   21.6920 H   0  0  0  0  0  0  0  0  0  0  0  0
  -25.1840  -13.9820   20.5550 C   0  0  0  0  0  0  0  0  0  0  0  0
  -24.0760  -13.2150   20.7990 C   0  0  0  0  0  0  0  0  0  0  0  0
  -24.5220  -11.8580   20.7730 C   0  0  0  0  0  0  0  0  0  0  0  0
  -26.2360  -13.0920   20.3990 N   0  0  0  0  0  0  0  0  0  0  0  0
  -25.8350  -11.8080   20.5880 N   0  0  0  0  0  0  0  0  0  0  0  0
  -23.7660  -10.6020   20.8600 C   0  0  0  0  0  0  0  0  0  0  0  0
  -24.0970   -9.6050   21.8060 C   0  0  0  0  0  3  0  0  0  0  0  0
  -23.3430   -8.4140   21.8850 C   0  0  0  0  0  3  0  0  0  0  0  0
  -22.2470   -8.2090   21.0140 C   0  0  0  0  0  0  0  0  0  0  0  0
  -21.9350   -9.1940   20.0600 C   0  0  0  0  0  3  0  0  0  0  0  0
  -22.6890  -10.3780   19.9810 C   0  0  0  0  0  3  0  0  0  0  0  0
  -21.4780   -7.0720   20.9970 O   0  0  0  0  0  0  0  0  0  0  0  0
  -21.3080   -6.3010   22.1190 C   0  0  0  0  0  0  0  0  0  0  0  0
  -20.7660   -6.8290   23.3110 C   0  0  0  0  0  3  0  0  0  0  0  0
  -20.5430   -5.9850   24.4170 C   0  0  0  0  0  3  0  0  0  0  0  0
  -20.8540   -4.6160   24.3330 C   0  0  0  0  0  0  0  0  0  0  0  0
  -21.3910   -4.0870   23.1460 C   0  0  0  0  0  3  0  0  0  0  0  0
  -21.6140   -4.9270   22.0420 C   0  0  0  0  0  0  0  0  0  0  0  0
  -22.1100   -4.4090   20.8920 F   0  0  0  0  0  0  0  0  0  0  0  0
  -20.6350   -3.8030   25.3930 F   0  0  0  0  0  0  0  0  0  0  0  0
  -22.6650  -13.7040   20.9540 C   0  0  0  0  0  0  0  0  0  0  0  0
  -21.8560  -13.0010   21.7360 N   0  0  0  0  0  0  0  0  0  0  0  0
  -22.2870  -14.7450   20.4160 O   0  0  0  0  0  0  0  0  0  0  0  0
  -22.1740  -12.1570   22.1900 H   0  0  0  0  0  0  0  0  0  0  0  0
  -20.9050  -13.3090   21.8820 H   0  0  0  0  0  0  0  0  0  0  0  0
  -25.3860  -15.3530   20.4330 N   0  0  0  0  0  0  0  0  0  0  0  0
  -24.6260  -16.0220   20.4740 H   0  0  0  0  0  0  0  0  0  0  0  0
  -26.2740  -15.7800   20.2020 H   0  0  0  0  0  0  0  0  0  0  0  0
  1  5  1  0
  2  4  1  0
  2  1  1  0
  3  1  2  0
  5  6  1  0
  5  7  2  0
  6  9  1  0
  8  6  1  0
 10  9  1  0
 11 10  1  0
 12 11  1  0
 13 12  1  0
 14 16  1  0
 14 13  1  0
 15 26  2  0
 16 21  1  0
 17 25  1  0
 17 27  1  0
 18 24  1  0
 18 20  1  0
 19 25  1  0
 20 19  1  0
 21 20  2  0
 22 23  1  0
 22 16  2  0
 23 18  2  0
 24 17  1  0
 25 15  1  0
 27 29  2  0
 28 27  1  0
 30 28  1  0
 31 40  2  0
 31 36  1  0
 32 28  1  0
 32 36  1  0
 33 32  1  0
 34 35  1  0
 34 33  1  0
 35 31  1  0
 36 37  2  0
 37 38  1  0
 39 38  2  0
 40 39  1  0
 41 15  1  0
 41 46  1  0
 41 42  1  0
 42 45  1  1
 42 43  1  0
 44 42  1  0
 46 49  1  0
 47 51  1  0
 47 46  1  0
 48 47  2  0
 51 50  1  0
 53 51  1  0
 53 54  1  0
 53 52  1  0
 55  2  1  0
 56 57  1  0
 56 55  1  0
 58 57  1  0
 58 59  1  0
 59 60  1  0
 60 61  1  0
 61 62  1  0
 62 63  1  0
 63 64  1  0
 64 65  1  0
 65 66  1  0
 66 75  1  0
 67 75  1  0
 68 73  1  0
 69 70  1  0
 69 68  1  0
 71 70  1  0
 71 80  1  0
 71 72  1  0
 73 67  1  0
 73 72  1  0
 74 67  2  0
 75 76  1  0
 77 78  2  0
 78 97  1  0
 79 78  1  0
 79 82  1  0
 80 77  1  0
 80 81  1  0
 81 79  2  0
 82 83  1  0
 83 84  2  0
 85 84  1  0
 86 85  2  0
 87 86  1  0
 87 82  2  0
 88 85  1  0
 88 89  1  0
 89 90  1  0
 90 91  2  0
 92 91  1  0
 92 96  1  0
 93 92  2  0
 94 89  2  0
 94 93  1  0
 95 94  1  0
 97 98  1  0
 98101  1  0
 98100  1  0
 99 97  2  0
102103  1  0
102 77  1  0
104102  1  0
M  ISO  4  13 101  14 101  67 100  75 100
M  END
>  <TORSDO>  (53) 
F 34

>  <SCORE>  (53) 
-5.868

>  <name>  (53) 
53

>  <ligand_id>  (53) 
53

>  <original_smiles>  (53) 
[H]c1c([H])c([H])c2c(c1[H])C([H])([H])C([H])([H])C([H])([H])C2([H])N([H])C(=O)C1([H])N(C(=O)C([H])(N([H])C(=O)C([H])(N([H])C([H])([H])[H])C([H])([H])[H])C(C([H])([H])[H])(C([H])([H])[H])C([H])([H])[H])C([H])([H])c2c([H])c(OC([H])([H])C([H])([H])OC([H])([H])C([H])([H])N([H])C(=O)C(=O)N([H])C([H])([H])C([H])([H])C([H])([H])OC([H])([H])C([H])([H])OC([H])([H])C([H])([H])OC([H])([H])C([H])([H])N([H])C(=O)N3C([H])([H])C([H])([H])C([H])([H])C([H])(n4nc(-c5c([H])c([H])c(Oc6c([H])c([H])c(F)c([H])c6F)c([H])c5[H])c(C(=O)N([H])[H])c4N([H])[H])C3([H])[H])c([H])c([H])c2C1([H])[H]

>  <smiles>  (53) 
[H]c1c([H])c([H])c2c(c1[H])C([H])([H])C([H])([H])C([H])([H])C2([H])N([H])C(=O)C1([H])N(C(=O)C([H])(N([H])C(=O)C([H])(N([H])C([H])([H])[H])C([H])([H])[H])C(C([H])([H])[H])(C([H])([H])[H])C([H])([H])[H])C([H])([H])c2c([H])c(OC([H])([H])C([H])([H])OC([H])([H])C([H])([H])N([H])C(=O)C(=O)N([H])C([H])([H])C([H])([H])C([H])([H])OC([H])([H])C([H])([H])OC([H])([H])C([H])([H])OC([H])([H])C([H])([H])N([H])C(=O)N3C([H])([H])C([H])([H])C([H])([H])C([H])(n4nc(-c5c([H])c([H])c(Oc6c([H])c([H])c(F)c([H])c6F)c([H])c5[H])c(C(=O)N([H])[H])c4N([H])[H])C3([H])[H])c([H])c([H])c2C1([H])[H]

$$$$
54:0:0
     RDKit          3D

 98105  0  0  1  0  0  0  0  0999 V2000
  -26.0150  -20.6480   23.0710 C   0  0  0  0  0  2  0  0  0  0  0  0
  -27.3880  -22.4640   22.0170 C   0  0  0  0  0  0  0  0  0  0  0  0
  -26.4030  -22.0400   22.8190 N   0  0  0  0  0  0  0  0  0  0  0  0
  -28.0830  -21.6900   21.3580 O   0  0  0  0  0  0  0  0  0  0  0  0
  -25.8680  -22.7450   23.3080 H   0  0  0  0  0  0  0  0  0  0  0  0
  -27.5370  -23.9150   22.0590 C   0  0  0  0  0  3  0  0  0  0  0  0
  -28.4050  -24.5630   21.2540 C   0  0  0  0  0  3  0  0  0  0  0  0
  -28.6840  -26.0590   21.2910 C   0  0  0  0  0  2  0  0  0  0  0  0
  -28.3680  -26.6990   20.0570 O   0  0  0  0  0  0  0  0  0  0  0  0
  -24.6130  -31.8680   23.2150 C   0  0  0  0  0  0  0  0  0  0  0  0
  -27.2270  -27.4570   20.0900 C   0  0  0  0  0  0  0  0  0  0  0  0
  -23.4010  -30.4910   21.5560 C   0  0  0  0  0  3  0  0  0  0  0  0
  -24.8460  -28.9630   20.1150 C   0  0  0  0  0  0  0  0  0  0  0  0
  -25.9280  -30.8430   21.3640 C   0  0  0  0  0  2  0  0  0  0  0  0
  -26.0050  -29.4790   20.7110 C   0  0  0  0  0  0  0  0  0  0  0  0
  -27.2010  -28.7300   20.7020 C   0  0  0  0  0  3  0  0  0  0  0  0
  -26.0610  -26.9530   19.4850 C   0  0  0  0  0  3  0  0  0  0  0  0
  -24.8680  -27.6980   19.5020 C   0  0  0  0  0  3  0  0  0  0  0  0
  -23.6060  -29.8250   20.1690 C   0  0  0  0  0  2  0  0  0  0  0  0
  -24.6660  -31.0800   22.1040 N   0  0  0  0  0  0  0  0  0  0  0  0
  -23.5320  -32.1380   23.7560 O   0  0  0  0  0  0  0  0  0  0  0  0
  -22.7410  -29.4630   22.5030 C   0  0  0  0  0  0  0  0  0  0  0  0
  -21.4140  -29.3000   22.3760 N   0  0  0  0  0  0  0  0  0  0  0  0
  -23.4190  -28.8190   23.3080 O   0  0  0  0  0  0  0  0  0  0  0  0
  -20.9300  -29.8700   21.6980 H   0  0  0  0  0  0  0  0  0  0  0  0
  -18.0250  -28.1340   22.8480 C   0  0  0  0  0  0  0  0  0  0  0  0
  -20.5840  -28.3610   23.1320 C   0  0  0  0  0  3  0  0  0  0  0  0
  -20.6740  -26.9350   22.5420 C   0  0  0  0  0  2  0  0  0  0  0  0
  -19.5730  -26.6350   21.5200 C   0  0  0  0  0  2  0  0  0  0  0  0
  -18.1910  -26.7870   22.1610 C   0  0  0  0  0  2  0  0  0  0  0  0
  -19.1510  -28.8800   23.2890 C   0  0  0  0  0  0  0  0  0  0  0  0
  -18.9430  -30.1400   23.8910 C   0  0  0  0  0  3  0  0  0  0  0  0
  -17.6440  -30.6560   24.0530 C   0  0  0  0  0  3  0  0  0  0  0  0
  -16.5330  -29.9070   23.6320 C   0  0  0  0  0  3  0  0  0  0  0  0
  -16.7230  -28.6470   23.0370 C   0  0  0  0  0  3  0  0  0  0  0  0
  -25.9020  -32.4820   23.8430 C   0  0  0  0  0  3  0  0  0  0  0  0
  -25.5890  -33.8630   24.2340 N   0  0  0  0  0  0  0  0  0  0  0  0
  -25.9040  -34.9480   23.5140 C   0  0  0  0  0  0  0  0  0  0  0  0
  -26.5610  -34.8910   22.4700 O   0  0  0  0  0  0  0  0  0  0  0  0
  -25.0030  -33.9820   25.0480 H   0  0  0  0  0  0  0  0  0  0  0  0
  -24.1480  -36.7330   23.2640 C   0  0  0  0  0  1  0  0  0  0  0  0
  -25.4110  -36.3130   24.0340 C   0  0  0  0  0  3  0  0  0  0  0  0
  -27.5580  -37.1830   24.8470 C   0  0  0  0  0  1  0  0  0  0  0  0
  -26.4290  -37.3820   23.9400 N   0  0  0  0  0  0  0  0  0  0  0  0
  -26.0180  -38.2900   24.1400 H   0  0  0  0  0  0  0  0  0  0  0  0
  -26.4460  -31.6610   25.0760 C   0  0  1  0  0  0  0  0  0  0  0  0
  -25.3740  -31.3690   26.1510 C   0  0  0  0  0  1  0  0  0  0  0  0
  -27.0260  -30.3060   24.6100 C   0  0  0  0  0  1  0  0  0  0  0  0
  -27.6060  -32.4320   25.7490 C   0  0  0  0  0  1  0  0  0  0  0  0
  -26.8410  -19.9990   24.1970 C   0  0  0  0  0  2  0  0  0  0  0  0
  -26.1260  -18.9000   24.7620 O   0  0  0  0  0  0  0  0  0  0  0  0
  -26.7940  -18.3520   25.8950 C   0  0  0  0  0  2  0  0  0  0  0  0
  -25.9930  -17.2260   26.5750 C   0  0  0  0  0  2  0  0  0  0  0  0
  -26.0520  -16.0220   25.8110 O   0  0  0  0  0  0  0  0  0  0  0  0
  -25.9190  -14.8230   26.5820 C   0  0  0  0  0  2  0  0  0  0  0  0
  -27.1130  -13.9120   26.2490 C   0  0  0  0  0  2  0  0  0  0  0  0
  -28.3010  -14.6910   26.3590 O   0  0  0  0  0  0  0  0  0  0  0  0
  -29.4300  -14.2230   25.6290 C   0  0  0  0  0  2  0  0  0  0  0  0
  -29.2720  -14.4830   24.1160 C   0  0  0  0  0  2  0  0  0  0  0  0
  -30.5410  -14.1830   23.2820 C   0  0  0  0  0  2  0  0  0  0  0  0
  -30.8020  -14.2680   20.7960 C   0  0  0  0  0  0  0  0  0  0  0  0
  -30.4100  -12.2940   19.3610 C   0  0  0  0  0  2  0  0  0  0  0  0
  -29.4580  -12.5310   18.1740 C   0  0  0  0  0  2  0  0  0  0  0  0
  -27.9890  -12.3670   18.5910 C   0  0  0  0  0  2  0  0  0  0  0  0
  -27.6540  -13.1880   19.8510 C   0  0  0  0  0  3  0  0  0  0  0  0
  -28.6810  -12.9370   20.9610 C   0  0  0  0  0  2  0  0  0  0  0  0
  -30.0460  -13.1890   20.4670 N   0  0  0  0  0  0  0  0  0  0  0  0
  -31.7110  -14.7030   20.0860 O   0  0  0  0  0  0  0  0  0  0  0  0
  -30.5250  -14.8540   21.9740 N   0  0  0  0  0  0  0  0  0  0  0  0
  -30.8850  -15.7970   22.0210 H   0  0  0  0  0  0  0  0  0  0  0  0
  -25.2590  -13.8160   20.5610 C   0  0  0  0  0  0  0  0  0  0  0  0
  -24.1850  -13.0470   20.9170 C   0  0  0  0  0  0  0  0  0  0  0  0
  -24.6340  -11.6910   20.8790 C   0  0  0  0  0  0  0  0  0  0  0  0
  -26.2950  -12.9250   20.3220 N   0  0  0  0  0  0  0  0  0  0  0  0
  -25.9220  -11.6440   20.5730 N   0  0  0  0  0  0  0  0  0  0  0  0
  -23.9030  -10.4290   21.0480 C   0  0  0  0  0  0  0  0  0  0  0  0
  -24.3540   -9.4240   21.9300 C   0  0  0  0  0  3  0  0  0  0  0  0
  -23.6250   -8.2250   22.0770 C   0  0  0  0  0  3  0  0  0  0  0  0
  -22.4270   -8.0280   21.3520 C   0  0  0  0  0  0  0  0  0  0  0  0
  -21.9940   -9.0250   20.4600 C   0  0  0  0  0  3  0  0  0  0  0  0
  -22.7260  -10.2110   20.3030 C   0  0  0  0  0  3  0  0  0  0  0  0
  -21.6630   -6.8890   21.4210 O   0  0  0  0  0  0  0  0  0  0  0  0
  -21.6840   -6.0770   22.5250 C   0  0  0  0  0  0  0  0  0  0  0  0
  -21.4010   -6.5670   23.8180 C   0  0  0  0  0  3  0  0  0  0  0  0
  -21.3610   -5.6830   24.9150 C   0  0  0  0  0  3  0  0  0  0  0  0
  -21.6030   -4.3080   24.7240 C   0  0  0  0  0  0  0  0  0  0  0  0
  -21.8820   -3.8180   23.4370 C   0  0  0  0  0  3  0  0  0  0  0  0
  -21.9190   -4.6990   22.3390 C   0  0  0  0  0  0  0  0  0  0  0  0
  -22.1680   -4.2150   21.1000 F   0  0  0  0  0  0  0  0  0  0  0  0
  -21.5620   -3.4560   25.7760 F   0  0  0  0  0  0  0  0  0  0  0  0
  -22.7870  -13.5280   21.1830 C   0  0  0  0  0  0  0  0  0  0  0  0
  -22.0560  -12.8330   22.0440 N   0  0  0  0  0  0  0  0  0  0  0  0
  -22.3550  -14.5580   20.6660 O   0  0  0  0  0  0  0  0  0  0  0  0
  -22.4240  -12.0050   22.4890 H   0  0  0  0  0  0  0  0  0  0  0  0
  -21.1250  -13.1480   22.2800 H   0  0  0  0  0  0  0  0  0  0  0  0
  -25.4430  -15.1850   20.4010 N   0  0  0  0  0  0  0  0  0  0  0  0
  -24.6960  -15.8580   20.5400 H   0  0  0  0  0  0  0  0  0  0  0  0
  -26.3140  -15.6110   20.1030 H   0  0  0  0  0  0  0  0  0  0  0  0
  1 50  1  0
  2  6  1  0
  2  3  1  0
  3  1  1  0
  3  5  1  0
  4  2  2  0
  7  8  1  0
  7  6  2  0
  9 11  1  0
  9  8  1  0
 10 21  2  0
 11 16  1  0
 12 20  1  0
 12 22  1  0
 13 19  1  0
 13 15  1  0
 14 20  1  0
 15 14  1  0
 16 15  2  0
 17 18  1  0
 17 11  2  0
 18 13  2  0
 19 12  1  0
 20 10  1  0
 22 24  2  0
 23 22  1  0
 25 23  1  0
 26 35  2  0
 26 31  1  0
 27 23  1  0
 27 31  1  0
 28 27  1  0
 29 30  1  0
 29 28  1  0
 30 26  1  0
 31 32  2  0
 32 33  1  0
 34 33  2  0
 35 34  1  0
 36 10  1  0
 36 37  1  0
 36 46  1  0
 37 40  1  0
 38 42  1  0
 38 37  1  0
 39 38  2  0
 42 41  1  0
 44 42  1  0
 44 45  1  0
 44 43  1  0
 46 49  1  1
 46 47  1  0
 48 46  1  0
 50 51  1  0
 51 52  1  0
 52 53  1  0
 54 53  1  0
 54 55  1  0
 56 57  1  0
 56 55  1  0
 58 57  1  0
 59 58  1  0
 60 59  1  0
 61 69  1  0
 62 67  1  0
 63 64  1  0
 63 62  1  0
 65 64  1  0
 65 74  1  0
 65 66  1  0
 67 61  1  0
 67 66  1  0
 68 61  2  0
 69 70  1  0
 69 60  1  0
 71 72  2  0
 72 91  1  0
 73 72  1  0
 73 76  1  0
 74 71  1  0
 74 75  1  0
 75 73  2  0
 76 77  1  0
 77 78  2  0
 79 82  1  0
 79 78  1  0
 80 79  2  0
 81 80  1  0
 81 76  2  0
 82 83  1  0
 83 84  1  0
 84 85  2  0
 86 85  1  0
 86 90  1  0
 87 86  2  0
 88 83  2  0
 88 87  1  0
 89 88  1  0
 91 92  1  0
 92 95  1  0
 92 94  1  0
 93 91  2  0
 96 97  1  0
 96 71  1  0
 98 96  1  0
M  ISO  4   8 101   9 101  61 100  69 100
M  END
>  <TORSDO>  (54) 
F 30

>  <SCORE>  (54) 
64.767

>  <name>  (54) 
54

>  <ligand_id>  (54) 
54

>  <original_smiles>  (54) 
[H]C(C(=O)N([H])C([H])([H])C([H])([H])OC([H])([H])C([H])([H])OC([H])([H])C([H])([H])OC([H])([H])C([H])([H])C([H])([H])N([H])C(=O)N1C([H])([H])C([H])([H])C([H])([H])C([H])(n2nc(-c3c([H])c([H])c(Oc4c([H])c([H])c(F)c([H])c4F)c([H])c3[H])c(C(=O)N([H])[H])c2N([H])[H])C1([H])[H])=C([H])C([H])([H])Oc1c([H])c([H])c2c(c1[H])C([H])([H])N(C(=O)C([H])(N([H])C(=O)C([H])(N([H])C([H])([H])[H])C([H])([H])[H])C(C([H])([H])[H])(C([H])([H])[H])C([H])([H])[H])C([H])(C(=O)N([H])C1([H])c3c([H])c([H])c([H])c([H])c3C([H])([H])C([H])([H])C1([H])[H])C2([H])[H]

>  <smiles>  (54) 
[H]C(C(=O)N([H])C([H])([H])C([H])([H])OC([H])([H])C([H])([H])OC([H])([H])C([H])([H])OC([H])([H])C([H])([H])C([H])([H])N([H])C(=O)N1C([H])([H])C([H])([H])C([H])([H])C([H])(n2nc(-c3c([H])c([H])c(Oc4c([H])c([H])c(F)c([H])c4F)c([H])c3[H])c(C(=O)N([H])[H])c2N([H])[H])C1([H])[H])=C([H])C([H])([H])Oc1c([H])c([H])c2c(c1[H])C([H])([H])N(C(=O)C([H])(N([H])C(=O)C([H])(N([H])C([H])([H])[H])C([H])([H])[H])C(C([H])([H])[H])(C([H])([H])[H])C([H])([H])[H])C([H])(C(=O)N([H])C1([H])c3c([H])c([H])c([H])c([H])c3C([H])([H])C([H])([H])C1([H])[H])C2([H])[H]

$$$$
55:0:0
     RDKit          3D

 94101  0  0  1  0  0  0  0  0999 V2000
  -30.7150  -18.1120   21.3910 C   0  0  0  0  0  0  0  0  0  0  0  0
  -30.6030  -19.4620   21.2630 N   0  0  0  0  0  0  0  0  0  0  0  0
  -31.5700  -17.6960   22.1740 O   0  0  0  0  0  0  0  0  0  0  0  0
  -31.3080  -19.9520   21.7970 H   0  0  0  0  0  0  0  0  0  0  0  0
  -29.7040  -20.3780   20.5180 C   0  0  0  0  0  2  0  0  0  0  0  0
  -29.9230  -21.8770   20.9570 C   0  0  0  0  0  2  0  0  0  0  0  0
  -29.0840  -22.8650   20.3110 O   0  0  0  0  0  0  0  0  0  0  0  0
  -29.4070  -24.2630   20.5640 C   0  0  0  0  0  2  0  0  0  0  0  0
  -28.2810  -25.2240   20.0460 C   0  0  0  0  0  2  0  0  0  0  0  0
  -28.4210  -26.6610   20.2920 O   0  0  0  0  0  0  0  0  0  0  0  0
  -24.6080  -31.9600   23.2650 C   0  0  0  0  0  0  0  0  0  0  0  0
  -27.2670  -27.4490   20.2290 C   0  0  0  0  0  0  0  0  0  0  0  0
  -23.4150  -30.5530   21.6230 C   0  0  0  0  0  3  0  0  0  0  0  0
  -24.8750  -29.0050   20.2080 C   0  0  0  0  0  0  0  0  0  0  0  0
  -25.9490  -30.8950   21.4440 C   0  0  0  0  0  2  0  0  0  0  0  0
  -26.0350  -29.5200   20.7980 C   0  0  0  0  0  0  0  0  0  0  0  0
  -27.2320  -28.7540   20.7950 C   0  0  0  0  0  3  0  0  0  0  0  0
  -26.0820  -26.9770   19.6150 C   0  0  0  0  0  3  0  0  0  0  0  0
  -24.8980  -27.7380   19.6060 C   0  0  0  0  0  3  0  0  0  0  0  0
  -23.6300  -29.8670   20.2470 C   0  0  0  0  0  2  0  0  0  0  0  0
  -24.6750  -31.1530   22.1670 N   0  0  0  0  0  0  0  0  0  0  0  0
  -23.5230  -32.2380   23.7940 O   0  0  0  0  0  0  0  0  0  0  0  0
  -22.7520  -29.5400   22.5850 C   0  0  0  0  0  0  0  0  0  0  0  0
  -21.4290  -29.3570   22.4440 N   0  0  0  0  0  0  0  0  0  0  0  0
  -23.4260  -28.9220   23.4140 O   0  0  0  0  0  0  0  0  0  0  0  0
  -20.9480  -29.9090   21.7480 H   0  0  0  0  0  0  0  0  0  0  0  0
  -18.0450  -28.1720   22.9240 C   0  0  0  0  0  0  0  0  0  0  0  0
  -20.6030  -28.4230   23.2080 C   0  0  0  0  0  3  0  0  0  0  0  0
  -20.7010  -26.9900   22.6320 C   0  0  0  0  0  2  0  0  0  0  0  0
  -19.6030  -26.6700   21.6140 C   0  0  0  0  0  2  0  0  0  0  0  0
  -18.2190  -26.8200   22.2520 C   0  0  0  0  0  2  0  0  0  0  0  0
  -19.1640  -28.9310   23.3580 C   0  0  0  0  0  0  0  0  0  0  0  0
  -18.9470  -30.1950   23.9460 C   0  0  0  0  0  3  0  0  0  0  0  0
  -17.6440  -30.7020   24.1050 C   0  0  0  0  0  3  0  0  0  0  0  0
  -16.5390  -29.9410   23.6860 C   0  0  0  0  0  3  0  0  0  0  0  0
  -16.7400  -28.6770   23.1030 C   0  0  0  0  0  3  0  0  0  0  0  0
  -25.8880  -32.5920   23.8940 C   0  0  0  0  0  3  0  0  0  0  0  0
  -26.3940  -31.8270   25.1790 C   0  0  1  0  0  0  0  0  0  0  0  0
  -25.2880  -31.5870   26.2330 C   0  0  0  0  0  1  0  0  0  0  0  0
  -26.9900  -30.4530   24.7960 C   0  0  0  0  0  1  0  0  0  0  0  0
  -27.5310  -32.6320   25.8520 C   0  0  0  0  0  1  0  0  0  0  0  0
  -25.5770  -33.9910   24.2150 N   0  0  0  0  0  0  0  0  0  0  0  0
  -25.9070  -35.0400   23.4490 C   0  0  0  0  0  0  0  0  0  0  0  0
  -26.5740  -34.9320   22.4170 O   0  0  0  0  0  0  0  0  0  0  0  0
  -24.9780  -34.1500   25.0110 H   0  0  0  0  0  0  0  0  0  0  0  0
  -24.1580  -36.8160   23.1090 C   0  0  0  0  0  1  0  0  0  0  0  0
  -25.4180  -36.4290   23.9010 C   0  0  0  0  0  3  0  0  0  0  0  0
  -27.5600  -37.3350   24.6880 C   0  0  0  0  0  1  0  0  0  0  0  0
  -26.4410  -37.4870   23.7620 N   0  0  0  0  0  0  0  0  0  0  0  0
  -26.0330  -38.4070   23.9060 H   0  0  0  0  0  0  0  0  0  0  0  0
  -29.8260  -17.0620   20.6570 C   0  0  0  0  0  3  0  0  0  0  0  0
  -30.6740  -14.6220   20.4930 C   0  0  0  0  0  0  0  0  0  0  0  0
  -30.4070  -12.4200   19.3890 C   0  0  0  0  0  2  0  0  0  0  0  0
  -29.5020  -12.6160   18.1540 C   0  0  0  0  0  2  0  0  0  0  0  0
  -28.0150  -12.4970   18.5380 C   0  0  0  0  0  2  0  0  0  0  0  0
  -27.6560  -13.3250   19.8020 C   0  0  0  0  0  3  0  0  0  0  0  0
  -28.6890  -13.1170   20.9340 C   0  0  0  0  0  2  0  0  0  0  0  0
  -30.0230  -13.4250   20.3980 N   0  0  0  0  0  0  0  0  0  0  0  0
  -31.7760  -14.8040   19.9730 O   0  0  0  0  0  0  0  0  0  0  0  0
  -30.0120  -15.6350   21.0980 N   0  0  0  0  0  0  0  0  0  0  0  0
  -29.2220  -15.3010   21.6280 H   0  0  0  0  0  0  0  0  0  0  0  0
  -25.2450  -13.9250   20.4610 C   0  0  0  0  0  0  0  0  0  0  0  0
  -24.1720  -13.1480   20.8180 C   0  0  0  0  0  0  0  0  0  0  0  0
  -24.6410  -11.8000   20.8090 C   0  0  0  0  0  0  0  0  0  0  0  0
  -26.2970  -13.0450   20.2580 N   0  0  0  0  0  0  0  0  0  0  0  0
  -25.9380  -11.7640   20.5260 N   0  0  0  0  0  0  0  0  0  0  0  0
  -23.9140  -10.5370   20.9960 C   0  0  0  0  0  0  0  0  0  0  0  0
  -24.3320   -9.5790   21.9450 C   0  0  0  0  0  3  0  0  0  0  0  0
  -23.6100   -8.3780   22.1180 C   0  0  0  0  0  3  0  0  0  0  0  0
  -22.4550   -8.1260   21.3400 C   0  0  0  0  0  0  0  0  0  0  0  0
  -22.0580   -9.0720   20.3780 C   0  0  0  0  0  3  0  0  0  0  0  0
  -22.7800  -10.2640   20.2040 C   0  0  0  0  0  3  0  0  0  0  0  0
  -21.7030   -6.9780   21.4220 O   0  0  0  0  0  0  0  0  0  0  0  0
  -21.6260   -6.2490   22.5810 C   0  0  0  0  0  0  0  0  0  0  0  0
  -21.1730   -6.8190   23.7900 C   0  0  0  0  0  3  0  0  0  0  0  0
  -21.0430   -6.0150   24.9410 C   0  0  0  0  0  3  0  0  0  0  0  0
  -21.3570   -4.6430   24.8820 C   0  0  0  0  0  0  0  0  0  0  0  0
  -21.8020   -4.0740   23.6760 C   0  0  0  0  0  3  0  0  0  0  0  0
  -21.9340   -4.8750   22.5280 C   0  0  0  0  0  0  0  0  0  0  0  0
  -22.3430   -4.3170   21.3640 F   0  0  0  0  0  0  0  0  0  0  0  0
  -21.2260   -3.8690   25.9850 F   0  0  0  0  0  0  0  0  0  0  0  0
  -22.7680  -13.6220   21.0570 C   0  0  0  0  0  0  0  0  0  0  0  0
  -22.0200  -12.9340   21.9150 N   0  0  0  0  0  0  0  0  0  0  0  0
  -22.3350  -14.6370   20.5140 O   0  0  0  0  0  0  0  0  0  0  0  0
  -22.3780  -12.1130   22.3820 H   0  0  0  0  0  0  0  0  0  0  0  0
  -21.0750  -13.2340   22.1080 H   0  0  0  0  0  0  0  0  0  0  0  0
  -25.4110  -15.2940   20.2700 N   0  0  0  0  0  0  0  0  0  0  0  0
  -24.6420  -15.9490   20.3470 H   0  0  0  0  0  0  0  0  0  0  0  0
  -26.2670  -15.7270   19.9470 H   0  0  0  0  0  0  0  0  0  0  0  0
  -29.8750  -17.2620   19.1250 C   0  0  0  0  0  0  0  0  0  0  0  0
  -30.8670  -17.1250   18.4050 O   0  0  0  0  0  0  0  0  0  0  0  0
  -28.6460  -17.6120   18.6990 O   0  0  0  0  0  0  0  0  0  0  0  0
  -27.7480  -19.5070   17.5510 C   0  0  0  0  0  1  0  0  0  0  0  0
  -28.4280  -18.1400   17.4000 C   0  0  0  0  0  2  0  0  0  0  0  0
  1  3  2  0
  2  1  1  0
  2  4  1  0
  5  6  1  0
  5  2  1  0
  7  8  1  0
  7  6  1  0
  9 10  1  0
  9  8  1  0
 11 22  2  0
 12 10  1  0
 12 17  1  0
 13 21  1  0
 13 23  1  0
 14 20  1  0
 14 16  1  0
 15 21  1  0
 16 15  1  0
 17 16  2  0
 18 12  2  0
 19 18  1  0
 19 14  2  0
 20 13  1  0
 21 11  1  0
 23 25  2  0
 24 23  1  0
 26 24  1  0
 27 36  2  0
 27 32  1  0
 28 24  1  0
 28 32  1  0
 29 28  1  0
 30 31  1  0
 30 29  1  0
 31 27  1  0
 32 33  2  0
 33 34  1  0
 35 34  2  0
 36 35  1  0
 37 11  1  0
 37 42  1  0
 37 38  1  0
 38 41  1  1
 38 39  1  0
 40 38  1  0
 42 45  1  0
 43 47  1  0
 43 42  1  0
 44 43  2  0
 47 46  1  0
 49 47  1  0
 49 50  1  0
 49 48  1  0
 51 90  1  0
 51 60  1  0
 51  1  1  0
 52 60  1  0
 53 58  1  0
 54 55  1  0
 54 53  1  0
 56 55  1  0
 56 65  1  0
 56 57  1  0
 58 52  1  0
 58 57  1  0
 59 52  2  0
 60 61  1  0
 62 63  2  0
 63 82  1  0
 64 63  1  0
 64 67  1  0
 65 62  1  0
 65 66  1  0
 66 64  2  0
 67 68  1  0
 68 69  2  0
 70 73  1  0
 70 69  1  0
 71 70  2  0
 72 71  1  0
 72 67  2  0
 73 74  1  0
 74 75  1  0
 75 76  2  0
 77 76  1  0
 77 81  1  0
 78 77  2  0
 79 74  2  0
 79 78  1  0
 80 79  1  0
 82 83  1  0
 83 86  1  0
 83 85  1  0
 84 82  2  0
 87 88  1  0
 87 62  1  0
 89 87  1  0
 91 90  2  0
 92 90  1  0
 94 93  1  0
 94 92  1  0
M  ISO  4   9 101  10 101  52 100  60 100
M  END
>  <TORSDO>  (55) 
F 25

>  <SCORE>  (55) 
-12.366

>  <name>  (55) 
55

>  <ligand_id>  (55) 
55

>  <original_smiles>  (55) 
[H]c1c([H])c([H])c2c(c1[H])C([H])([H])C([H])([H])C([H])([H])C2([H])N([H])C(=O)C1([H])N(C(=O)C([H])(N([H])C(=O)C([H])(N([H])C([H])([H])[H])C([H])([H])[H])C(C([H])([H])[H])(C([H])([H])[H])C([H])([H])[H])C([H])([H])c2c([H])c(OC([H])([H])C([H])([H])OC([H])([H])C([H])([H])N([H])C(=O)C([H])(C(=O)OC([H])([H])C([H])([H])[H])N([H])C(=O)N3C([H])([H])C([H])([H])C([H])([H])C([H])(n4nc(-c5c([H])c([H])c(Oc6c([H])c([H])c(F)c([H])c6F)c([H])c5[H])c(C(=O)N([H])[H])c4N([H])[H])C3([H])[H])c([H])c([H])c2C1([H])[H]

>  <smiles>  (55) 
[H]c1c([H])c([H])c2c(c1[H])C([H])([H])C([H])([H])C([H])([H])C2([H])N([H])C(=O)C1([H])N(C(=O)C([H])(N([H])C(=O)C([H])(N([H])C([H])([H])[H])C([H])([H])[H])C(C([H])([H])[H])(C([H])([H])[H])C([H])([H])[H])C([H])([H])c2c([H])c(OC([H])([H])C([H])([H])OC([H])([H])C([H])([H])N([H])C(=O)C([H])(C(=O)OC([H])([H])C([H])([H])[H])N([H])C(=O)N3C([H])([H])C([H])([H])C([H])([H])C([H])(n4nc(-c5c([H])c([H])c(Oc6c([H])c([H])c(F)c([H])c6F)c([H])c5[H])c(C(=O)N([H])[H])c4N([H])[H])C3([H])[H])c([H])c([H])c2C1([H])[H]

$$$$
57:0:0
     RDKit          3D

 96104  0  0  1  0  0  0  0  0999 V2000
  -30.9620  -19.2390   22.5000 C   0  0  0  0  0  2  0  0  0  0  0  0
  -27.5860  -18.3590   19.8800 C   0  0  0  0  0  2  0  0  0  0  0  0
  -28.1970  -19.7520   19.8420 C   0  0  0  0  0  2  0  0  0  0  0  0
  -28.7230  -17.3440   19.9340 C   0  0  0  0  0  2  0  0  0  0  0  0
  -29.0710  -19.9810   21.0810 C   0  0  0  0  0  2  0  0  0  0  0  0
  -29.6700  -17.5480   21.1460 C   0  0  0  0  0  3  0  0  0  0  0  0
  -30.1680  -18.9760   21.2530 N   0  0  2  0  0  4  0  0  0  0  0  0
  -30.8130  -19.1080   20.4850 H   0  0  0  0  0  0  0  0  0  0  0  0
  -31.2550  -14.1370   21.3610 C   0  0  0  0  0  0  0  0  0  0  0  0
  -31.0730  -11.6910   21.0780 C   0  0  0  0  0  2  0  0  0  0  0  0
  -30.4700  -11.3900   19.6910 C   0  0  0  0  0  2  0  0  0  0  0  0
  -28.9300  -11.3930   19.7510 C   0  0  0  0  0  2  0  0  0  0  0  0
  -28.3610  -12.6480   20.4680 C   0  0  0  0  0  3  0  0  0  0  0  0
  -29.0960  -12.8930   21.8070 C   0  0  0  0  0  2  0  0  0  0  0  0
  -30.5440  -12.9870   21.5340 N   0  0  0  0  0  0  0  0  0  0  0  0
  -32.4530  -14.1280   21.0610 O   0  0  0  0  0  0  0  0  0  0  0  0
  -30.8070  -16.5040   21.0040 C   0  0  0  0  0  0  0  0  0  0  0  0
  -30.5210  -15.2630   21.4570 N   0  0  0  0  0  0  0  0  0  0  0  0
  -31.8560  -16.8180   20.4330 O   0  0  0  0  0  0  0  0  0  0  0  0
  -29.5920  -15.1250   21.8190 H   0  0  0  0  0  0  0  0  0  0  0  0
  -25.9470  -13.5410   20.5930 C   0  0  0  0  0  0  0  0  0  0  0  0
  -24.7470  -12.9110   20.7790 C   0  0  0  0  0  0  0  0  0  0  0  0
  -25.0490  -11.5230   20.9220 C   0  0  0  0  0  0  0  0  0  0  0  0
  -26.9140  -12.5480   20.6520 N   0  0  0  0  0  0  0  0  0  0  0  0
  -26.3630  -11.3330   20.9030 N   0  0  0  0  0  0  0  0  0  0  0  0
  -24.1610  -10.3580   21.0220 C   0  0  0  0  0  0  0  0  0  0  0  0
  -24.3910   -9.3340   21.9680 C   0  0  0  0  0  3  0  0  0  0  0  0
  -23.5140   -8.2330   22.0570 C   0  0  0  0  0  3  0  0  0  0  0  0
  -22.3930   -8.1480   21.1980 C   0  0  0  0  0  0  0  0  0  0  0  0
  -22.1810   -9.1580   20.2430 C   0  0  0  0  0  3  0  0  0  0  0  0
  -23.0570  -10.2520   20.1530 C   0  0  0  0  0  3  0  0  0  0  0  0
  -21.5020   -7.1010   21.1950 O   0  0  0  0  0  0  0  0  0  0  0  0
  -21.3350   -6.2940   22.2920 C   0  0  0  0  0  0  0  0  0  0  0  0
  -20.9790   -6.8170   23.5540 C   0  0  0  0  0  3  0  0  0  0  0  0
  -20.7510   -5.9450   24.6380 C   0  0  0  0  0  3  0  0  0  0  0  0
  -20.8690   -4.5540   24.4600 C   0  0  0  0  0  0  0  0  0  0  0  0
  -21.2180   -4.0320   23.2030 C   0  0  0  0  0  3  0  0  0  0  0  0
  -21.4480   -4.9000   22.1210 C   0  0  0  0  0  0  0  0  0  0  0  0
  -21.7640   -4.3900   20.9060 F   0  0  0  0  0  0  0  0  0  0  0  0
  -20.6430   -3.7160   25.4980 F   0  0  0  0  0  0  0  0  0  0  0  0
  -23.3860  -13.5450   20.7180 C   0  0  0  0  0  0  0  0  0  0  0  0
  -22.4270  -13.0130   21.4670 N   0  0  0  0  0  0  0  0  0  0  0  0
  -23.1780  -14.5490   20.0400 O   0  0  0  0  0  0  0  0  0  0  0  0
  -22.6000  -12.2010   22.0420 H   0  0  0  0  0  0  0  0  0  0  0  0
  -21.5050  -13.4250   21.4680 H   0  0  0  0  0  0  0  0  0  0  0  0
  -26.2890  -14.8670   20.3560 N   0  0  0  0  0  0  0  0  0  0  0  0
  -25.5790  -15.5790   20.2290 H   0  0  0  0  0  0  0  0  0  0  0  0
  -27.2140  -15.1790   20.0960 H   0  0  0  0  0  0  0  0  0  0  0  0
  -31.0700  -20.7190   22.9400 C   0  0  0  0  0  2  0  0  0  0  0  0
  -31.2300  -21.6140   21.8340 O   0  0  0  0  0  0  0  0  0  0  0  0
  -31.4390  -22.9540   22.2890 C   0  0  0  0  0  2  0  0  0  0  0  0
  -31.4570  -23.9930   21.1490 C   0  0  0  0  0  2  0  0  0  0  0  0
  -30.3080  -24.8440   21.1900 O   0  0  0  0  0  0  0  0  0  0  0  0
  -30.4770  -26.0250   20.4020 C   0  0  0  0  0  2  0  0  0  0  0  0
  -29.3560  -27.0560   20.6440 C   0  0  0  0  0  2  0  0  0  0  0  0
  -28.2070  -26.7210   19.8730 O   0  0  0  0  0  0  0  0  0  0  0  0
  -24.5280  -31.8930   23.1980 C   0  0  0  0  0  0  0  0  0  0  0  0
  -27.0870  -27.5200   19.9720 C   0  0  0  0  0  0  0  0  0  0  0  0
  -23.2740  -30.5410   21.5450 C   0  0  0  0  0  3  0  0  0  0  0  0
  -24.6900  -29.0220   20.0620 C   0  0  0  0  0  0  0  0  0  0  0  0
  -25.7940  -30.8880   21.3060 C   0  0  0  0  0  2  0  0  0  0  0  0
  -25.8570  -29.5290   20.6430 C   0  0  0  0  0  0  0  0  0  0  0  0
  -27.0560  -28.7860   20.6070 C   0  0  0  0  0  3  0  0  0  0  0  0
  -25.9030  -27.0260   19.3880 C   0  0  0  0  0  3  0  0  0  0  0  0
  -24.7050  -27.7650   19.4320 C   0  0  0  0  0  3  0  0  0  0  0  0
  -23.4510  -29.8850   20.1480 C   0  0  0  0  0  2  0  0  0  0  0  0
  -24.5510  -31.1200   22.0760 N   0  0  0  0  0  0  0  0  0  0  0  0
  -23.4610  -32.1630   23.7670 O   0  0  0  0  0  0  0  0  0  0  0  0
  -22.6320  -29.5050   22.4940 C   0  0  0  0  0  0  0  0  0  0  0  0
  -21.3030  -29.3450   22.3920 N   0  0  0  0  0  0  0  0  0  0  0  0
  -23.3250  -28.8490   23.2780 O   0  0  0  0  0  0  0  0  0  0  0  0
  -20.8070  -29.9240   21.7280 H   0  0  0  0  0  0  0  0  0  0  0  0
  -17.9240  -28.1830   22.9190 C   0  0  0  0  0  0  0  0  0  0  0  0
  -20.4890  -28.3990   23.1540 C   0  0  0  0  0  3  0  0  0  0  0  0
  -20.5620  -26.9810   22.5400 C   0  0  0  0  0  2  0  0  0  0  0  0
  -19.4380  -26.6970   21.5390 C   0  0  0  0  0  2  0  0  0  0  0  0
  -18.0700  -26.8470   22.2110 C   0  0  0  0  0  2  0  0  0  0  0  0
  -19.0600  -28.9180   23.3480 C   0  0  0  0  0  0  0  0  0  0  0  0
  -18.8700  -30.1720   23.9700 C   0  0  0  0  0  3  0  0  0  0  0  0
  -17.5760  -30.6880   24.1680 C   0  0  0  0  0  3  0  0  0  0  0  0
  -16.4540  -29.9470   23.7590 C   0  0  0  0  0  3  0  0  0  0  0  0
  -16.6300  -28.6960   23.1400 C   0  0  0  0  0  3  0  0  0  0  0  0
  -25.8340  -32.4930   23.8070 C   0  0  0  0  0  3  0  0  0  0  0  0
  -25.5570  -33.8910   24.1580 N   0  0  0  0  0  0  0  0  0  0  0  0
  -25.9150  -34.9460   23.4140 C   0  0  0  0  0  0  0  0  0  0  0  0
  -26.5870  -34.8430   22.3830 O   0  0  0  0  0  0  0  0  0  0  0  0
  -24.9640  -34.0490   24.9590 H   0  0  0  0  0  0  0  0  0  0  0  0
  -24.2300  -36.7810   23.0760 C   0  0  0  0  0  1  0  0  0  0  0  0
  -25.4570  -36.3380   23.8890 C   0  0  0  0  0  3  0  0  0  0  0  0
  -27.6040  -37.1620   24.7470 C   0  0  0  0  0  1  0  0  0  0  0  0
  -26.5140  -37.3690   23.7980 N   0  0  0  0  0  0  0  0  0  0  0  0
  -26.1280  -38.2960   23.9570 H   0  0  0  0  0  0  0  0  0  0  0  0
  -26.3600  -31.6940   25.0620 C   0  0  1  0  0  0  0  0  0  0  0  0
  -25.2830  -31.4620   26.1470 C   0  0  0  0  0  1  0  0  0  0  0  0
  -26.9090  -30.3110   24.6380 C   0  0  0  0  0  1  0  0  0  0  0  0
  -27.5370  -32.4560   25.7140 C   0  0  0  0  0  1  0  0  0  0  0  0
  1 49  1  0
  2  4  1  0
  3  2  1  0
  3  5  1  0
  4  6  1  0
  5  7  1  0
  6 17  1  0
  6  7  1  0
  7  1  1  0
  7  8  1  6
  9 18  1  0
  9 15  1  0
 10 15  1  0
 11 12  1  0
 11 10  1  0
 13 12  1  0
 13 24  1  0
 13 14  1  0
 15 14  1  0
 16  9  2  0
 17 18  1  0
 18 20  1  0
 19 17  2  0
 21 24  1  0
 21 22  2  0
 22 23  1  0
 23 26  1  0
 24 25  1  0
 25 23  2  0
 26 27  1  0
 27 28  2  0
 29 28  1  0
 30 29  2  0
 31 30  1  0
 31 26  2  0
 32 29  1  0
 32 33  1  0
 33 34  1  0
 34 35  2  0
 36 35  1  0
 36 40  1  0
 37 36  2  0
 38 33  2  0
 38 37  1  0
 39 38  1  0
 41 22  1  0
 41 42  1  0
 42 45  1  0
 42 44  1  0
 43 41  2  0
 46 21  1  0
 47 46  1  0
 48 46  1  0
 50 51  1  0
 50 49  1  0
 52 53  1  0
 52 51  1  0
 54 55  1  0
 54 53  1  0
 56 58  1  0
 56 55  1  0
 57 68  2  0
 58 63  1  0
 59 67  1  0
 59 69  1  0
 60 66  1  0
 60 62  1  0
 61 67  1  0
 62 61  1  0
 63 62  2  0
 64 65  1  0
 64 58  2  0
 65 60  2  0
 66 59  1  0
 67 57  1  0
 69 71  2  0
 70 69  1  0
 72 70  1  0
 73 82  2  0
 73 78  1  0
 74 70  1  0
 74 78  1  0
 75 74  1  0
 76 77  1  0
 76 75  1  0
 77 73  1  0
 78 79  2  0
 79 80  1  0
 81 80  2  0
 82 81  1  0
 83 57  1  0
 83 84  1  0
 83 93  1  0
 84 87  1  0
 85 89  1  0
 85 84  1  0
 86 85  2  0
 89 88  1  0
 91 89  1  0
 91 92  1  0
 91 90  1  0
 93 96  1  1
 93 94  1  0
 95 93  1  0
M  ISO  4   9 100  18 100  55 101  56 101
M  END
>  <TORSDO>  (56) 
F 24

>  <SCORE>  (56) 
-10.606

>  <name>  (56) 
57

>  <ligand_id>  (56) 
57

>  <original_smiles>  (56) 
[H]c1c([H])c([H])c2c(c1[H])C([H])([H])C([H])([H])C([H])([H])C2([H])N([H])C(=O)C1([H])N(C(=O)C([H])(N([H])C(=O)C([H])(N([H])C([H])([H])[H])C([H])([H])[H])C(C([H])([H])[H])(C([H])([H])[H])C([H])([H])[H])C([H])([H])c2c([H])c(OC([H])([H])C([H])([H])OC([H])([H])C([H])([H])OC([H])([H])C([H])([H])[N+]3([H])C([H])([H])C([H])([H])C([H])([H])C([H])([H])C3([H])C(=O)N([H])C(=O)N3C([H])([H])C([H])([H])C([H])([H])C([H])(n4nc(-c5c([H])c([H])c(Oc6c([H])c([H])c(F)c([H])c6F)c([H])c5[H])c(C(=O)N([H])[H])c4N([H])[H])C3([H])[H])c([H])c([H])c2C1([H])[H]

>  <smiles>  (56) 
[H]c1c([H])c([H])c2c(c1[H])C([H])([H])C([H])([H])C([H])([H])C2([H])N([H])C(=O)C1([H])N(C(=O)C([H])(N([H])C(=O)C([H])(N([H])C([H])([H])[H])C([H])([H])[H])C(C([H])([H])[H])(C([H])([H])[H])C([H])([H])[H])C([H])([H])c2c([H])c(OC([H])([H])C([H])([H])OC([H])([H])C([H])([H])OC([H])([H])C([H])([H])[N+]3([H])C([H])([H])C([H])([H])C([H])([H])C([H])([H])C3([H])C(=O)N([H])C(=O)N3C([H])([H])C([H])([H])C([H])([H])C([H])(n4nc(-c5c([H])c([H])c(Oc6c([H])c([H])c(F)c([H])c6F)c([H])c5[H])c(C(=O)N([H])[H])c4N([H])[H])C3([H])[H])c([H])c([H])c2C1([H])[H]

$$$$
58:0:0
     RDKit          3D

 98105  0  0  1  0  0  0  0  0999 V2000
  -28.8680  -21.9840   16.8670 C   0  0  0  0  0  2  0  0  0  0  0  0
  -29.1130  -20.6820   17.3880 O   0  0  0  0  0  0  0  0  0  0  0  0
  -27.9050  -19.9690   17.6180 C   0  0  0  0  0  2  0  0  0  0  0  0
  -28.2130  -18.4770   17.7720 C   0  0  0  0  0  2  0  0  0  0  0  0
  -29.3290  -16.9460   19.3350 C   0  0  0  0  0  0  0  0  0  0  0  0
  -28.9330  -18.1830   19.0110 N   0  0  0  0  0  0  0  0  0  0  0  0
  -29.1850  -16.0190   18.5340 O   0  0  0  0  0  0  0  0  0  0  0  0
  -29.0410  -18.9290   19.6810 H   0  0  0  0  0  0  0  0  0  0  0  0
  -30.2240  -17.8250   21.4740 C   0  0  0  0  0  2  0  0  0  0  0  0
  -29.8400  -16.7800   20.7080 C   0  0  0  0  0  0  0  0  0  0  0  0
  -30.6430  -14.5050   20.7250 C   0  0  0  0  0  0  0  0  0  0  0  0
  -30.4310  -12.3370   19.5900 C   0  0  0  0  0  2  0  0  0  0  0  0
  -29.5310  -12.5220   18.3490 C   0  0  0  0  0  2  0  0  0  0  0  0
  -28.0380  -12.3950   18.7180 C   0  0  0  0  0  2  0  0  0  0  0  0
  -27.6480  -13.2370   19.9620 C   0  0  0  0  0  3  0  0  0  0  0  0
  -28.6570  -13.0070   21.1130 C   0  0  0  0  0  2  0  0  0  0  0  0
  -30.0100  -13.3110   20.6060 N   0  0  0  0  0  0  0  0  0  0  0  0
  -31.7660  -14.7370   20.2610 O   0  0  0  0  0  0  0  0  0  0  0  0
  -29.8740  -15.4810   21.2290 N   0  0  0  0  0  4  0  0  0  0  0  0
  -29.0030  -15.1630   21.6260 H   0  0  0  0  0  0  0  0  0  0  0  0
  -25.2160  -13.8520   20.5540 C   0  0  0  0  0  0  0  0  0  0  0  0
  -24.1370  -13.0800   20.8930 C   0  0  0  0  0  0  0  0  0  0  0  0
  -24.6060  -11.7310   20.9070 C   0  0  0  0  0  0  0  0  0  0  0  0
  -26.2740  -12.9710   20.3840 N   0  0  0  0  0  0  0  0  0  0  0  0
  -25.9070  -11.6930   20.6510 N   0  0  0  0  0  0  0  0  0  0  0  0
  -23.8820  -10.4670   21.0890 C   0  0  0  0  0  0  0  0  0  0  0  0
  -24.3000   -9.5080   22.0390 C   0  0  0  0  0  3  0  0  0  0  0  0
  -23.5780   -8.3080   22.2080 C   0  0  0  0  0  3  0  0  0  0  0  0
  -22.4260   -8.0560   21.4270 C   0  0  0  0  0  0  0  0  0  0  0  0
  -22.0270   -9.0050   20.4680 C   0  0  0  0  0  3  0  0  0  0  0  0
  -22.7490  -10.1970   20.2970 C   0  0  0  0  0  3  0  0  0  0  0  0
  -21.6770   -6.9060   21.5040 O   0  0  0  0  0  0  0  0  0  0  0  0
  -21.6150   -6.1640   22.6550 C   0  0  0  0  0  0  0  0  0  0  0  0
  -21.1710   -6.7180   23.8760 C   0  0  0  0  0  3  0  0  0  0  0  0
  -21.0550   -5.9020   25.0190 C   0  0  0  0  0  3  0  0  0  0  0  0
  -21.3730   -4.5340   24.9430 C   0  0  0  0  0  0  0  0  0  0  0  0
  -21.8140   -3.9790   23.7270 C   0  0  0  0  0  3  0  0  0  0  0  0
  -21.9300   -4.7910   22.5870 C   0  0  0  0  0  0  0  0  0  0  0  0
  -22.3320   -4.2480   21.4120 F   0  0  0  0  0  0  0  0  0  0  0  0
  -21.2560   -3.7480   26.0380 F   0  0  0  0  0  0  0  0  0  0  0  0
  -22.7260  -13.5540   21.0990 C   0  0  0  0  0  0  0  0  0  0  0  0
  -21.9640  -12.8670   21.9450 N   0  0  0  0  0  0  0  0  0  0  0  0
  -22.3040  -14.5680   20.5450 O   0  0  0  0  0  0  0  0  0  0  0  0
  -22.3150  -12.0490   22.4200 H   0  0  0  0  0  0  0  0  0  0  0  0
  -21.0180  -13.1720   22.1210 H   0  0  0  0  0  0  0  0  0  0  0  0
  -25.3810  -15.2200   20.3560 N   0  0  0  0  0  0  0  0  0  0  0  0
  -24.6040  -15.8700   20.4150 H   0  0  0  0  0  0  0  0  0  0  0  0
  -26.2370  -15.6520   20.0310 H   0  0  0  0  0  0  0  0  0  0  0  0
  -30.6630  -17.6970   22.7370 O   0  0  0  0  0  0  0  0  0  0  0  0
  -30.8400  -18.5690   23.0700 H   0  0  0  0  0  0  0  0  0  0  0  0
  -30.1890  -22.7450   16.7100 C   0  0  0  0  0  2  0  0  0  0  0  0
  -30.5810  -23.2240   17.9850 O   0  0  0  0  0  0  0  0  0  0  0  0
  -31.7780  -23.9870   17.9520 C   0  0  0  0  0  2  0  0  0  0  0  0
  -31.9180  -24.6720   19.3140 C   0  0  0  0  0  2  0  0  0  0  0  0
  -30.9340  -25.6960   19.3870 O   0  0  0  0  0  0  0  0  0  0  0  0
  -30.6950  -26.1380   20.7150 C   0  0  0  0  0  2  0  0  0  0  0  0
  -29.6020  -27.2110   20.7050 C   0  0  0  0  0  2  0  0  0  0  0  0
  -28.3970  -26.6580   20.1750 O   0  0  0  0  0  0  0  0  0  0  0  0
  -24.5710  -31.8470   23.2400 C   0  0  0  0  0  0  0  0  0  0  0  0
  -27.2550  -27.4280   20.2080 C   0  0  0  0  0  0  0  0  0  0  0  0
  -23.3670  -30.4350   21.5980 C   0  0  0  0  0  3  0  0  0  0  0  0
  -24.8310  -28.8870   20.1940 C   0  0  0  0  0  0  0  0  0  0  0  0
  -25.8850  -30.8110   21.4000 C   0  0  0  0  0  2  0  0  0  0  0  0
  -25.9780  -29.4350   20.7790 C   0  0  0  0  0  0  0  0  0  0  0  0
  -27.1870  -28.7180   20.7870 C   0  0  0  0  0  3  0  0  0  0  0  0
  -26.0910  -26.8830   19.6270 C   0  0  0  0  0  3  0  0  0  0  0  0
  -24.8790  -27.6060   19.6160 C   0  0  0  0  0  3  0  0  0  0  0  0
  -23.5820  -29.7370   20.2260 C   0  0  0  0  0  2  0  0  0  0  0  0
  -24.6250  -31.0450   22.1400 N   0  0  0  0  0  0  0  0  0  0  0  0
  -23.4890  -32.1220   23.7770 O   0  0  0  0  0  0  0  0  0  0  0  0
  -22.7140  -29.4220   22.5640 C   0  0  0  0  0  0  0  0  0  0  0  0
  -21.3890  -29.2480   22.4360 N   0  0  0  0  0  0  0  0  0  0  0  0
  -23.3940  -28.7950   23.3810 O   0  0  0  0  0  0  0  0  0  0  0  0
  -20.9020  -29.8060   21.7470 H   0  0  0  0  0  0  0  0  0  0  0  0
  -18.0040  -28.0960   22.9400 C   0  0  0  0  0  0  0  0  0  0  0  0
  -20.5650  -28.3200   23.2070 C   0  0  0  0  0  3  0  0  0  0  0  0
  -20.6480  -26.8890   22.6270 C   0  0  0  0  0  2  0  0  0  0  0  0
  -19.5390  -26.5820   21.6150 C   0  0  0  0  0  2  0  0  0  0  0  0
  -18.1610  -26.7450   22.2630 C   0  0  0  0  0  2  0  0  0  0  0  0
  -19.1340  -28.8420   23.3700 C   0  0  0  0  0  0  0  0  0  0  0  0
  -18.9340  -30.1080   23.9610 C   0  0  0  0  0  3  0  0  0  0  0  0
  -17.6370  -30.6280   24.1290 C   0  0  0  0  0  3  0  0  0  0  0  0
  -16.5220  -29.8790   23.7180 C   0  0  0  0  0  3  0  0  0  0  0  0
  -16.7060  -28.6150   23.1290 C   0  0  0  0  0  3  0  0  0  0  0  0
  -25.8580  -32.4770   23.8620 C   0  0  0  0  0  3  0  0  0  0  0  0
  -25.5540  -33.8750   24.1860 N   0  0  0  0  0  0  0  0  0  0  0  0
  -25.8980  -34.9230   23.4240 C   0  0  0  0  0  0  0  0  0  0  0  0
  -26.5760  -34.8120   22.3990 O   0  0  0  0  0  0  0  0  0  0  0  0
  -24.9530  -34.0360   24.9810 H   0  0  0  0  0  0  0  0  0  0  0  0
  -24.1830  -36.7210   23.0400 C   0  0  0  0  0  1  0  0  0  0  0  0
  -25.4110  -36.3150   23.8710 C   0  0  0  0  0  3  0  0  0  0  0  0
  -27.5410  -37.1880   24.7250 C   0  0  0  0  0  1  0  0  0  0  0  0
  -26.4500  -37.3620   23.7690 N   0  0  0  0  0  0  0  0  0  0  0  0
  -26.0470  -38.2840   23.9120 H   0  0  0  0  0  0  0  0  0  0  0  0
  -26.3750  -31.7050   25.1380 C   0  0  1  0  0  0  0  0  0  0  0  0
  -25.2820  -31.4670   26.2050 C   0  0  0  0  0  1  0  0  0  0  0  0
  -26.9580  -30.3280   24.7410 C   0  0  0  0  0  1  0  0  0  0  0  0
  -27.5260  -32.4990   25.8010 C   0  0  0  0  0  1  0  0  0  0  0  0
  1  2  1  0
  2  3  1  0
  3  4  1  0
  4  6  1  0
  5 10  1  0
  6  5  1  0
  6  8  1  0
  7  5  2  0
  9 49  1  0
 10 19  2  3
 10  9  1  0
 11 19  1  0
 12 17  1  0
 13 14  1  0
 13 12  1  0
 15 14  1  0
 15 24  1  0
 15 16  1  0
 17 11  1  0
 17 16  1  0
 18 11  2  0
 19 20  1  0
 21 22  2  0
 22 23  1  0
 22 41  1  0
 23 26  1  0
 24 21  1  0
 24 25  1  0
 25 23  2  0
 26 27  1  0
 27 28  2  0
 29 32  1  0
 29 28  1  0
 30 29  2  0
 31 30  1  0
 31 26  2  0
 32 33  1  0
 33 34  1  0
 34 35  2  0
 36 35  1  0
 36 40  1  0
 37 36  2  0
 38 33  2  0
 38 37  1  0
 39 38  1  0
 41 42  1  0
 42 45  1  0
 42 44  1  0
 43 41  2  0
 46 47  1  0
 46 21  1  0
 48 46  1  0
 49 50  1  0
 51  1  1  0
 51 52  1  0
 53 52  1  0
 53 54  1  0
 54 55  1  0
 55 56  1  0
 57 56  1  0
 58 60  1  0
 58 57  1  0
 59 70  2  0
 60 65  1  0
 61 69  1  0
 61 71  1  0
 62 68  1  0
 62 64  1  0
 63 69  1  0
 64 65  2  0
 64 63  1  0
 66 60  2  0
 67 66  1  0
 67 62  2  0
 68 61  1  0
 69 59  1  0
 71 73  2  0
 72 71  1  0
 74 72  1  0
 75 84  2  0
 75 80  1  0
 76 72  1  0
 76 80  1  0
 77 76  1  0
 78 79  1  0
 78 77  1  0
 79 75  1  0
 80 81  2  0
 81 82  1  0
 83 82  2  0
 84 83  1  0
 85 59  1  0
 85 86  1  0
 85 95  1  0
 86 89  1  0
 87 91  1  0
 87 86  1  0
 88 87  2  0
 91 90  1  0
 93 91  1  0
 93 94  1  0
 93 92  1  0
 95 98  1  1
 95 96  1  0
 97 95  1  0
M  ISO  4  11 100  19 100  57 101  58 101
M  END
>  <TORSDO>  (57) 
F 29

>  <SCORE>  (57) 
-11.126

>  <name>  (57) 
58

>  <ligand_id>  (57) 
58

>  <original_smiles>  (57) 
[H]OC([H])=C(C(=O)N([H])C([H])([H])C([H])([H])OC([H])([H])C([H])([H])OC([H])([H])C([H])([H])OC([H])([H])C([H])([H])Oc1c([H])c([H])c2c(c1[H])C([H])([H])N(C(=O)C([H])(N([H])C(=O)C([H])(N([H])C([H])([H])[H])C([H])([H])[H])C(C([H])([H])[H])(C([H])([H])[H])C([H])([H])[H])C([H])(C(=O)N([H])C1([H])c3c([H])c([H])c([H])c([H])c3C([H])([H])C([H])([H])C1([H])[H])C2([H])[H])N([H])C(=O)N1C([H])([H])C([H])([H])C([H])([H])C([H])(n2nc(-c3c([H])c([H])c(Oc4c([H])c([H])c(F)c([H])c4F)c([H])c3[H])c(C(=O)N([H])[H])c2N([H])[H])C1([H])[H]

>  <smiles>  (57) 
[H]OC([H])=C(C(=O)N([H])C([H])([H])C([H])([H])OC([H])([H])C([H])([H])OC([H])([H])C([H])([H])OC([H])([H])C([H])([H])Oc1c([H])c([H])c2c(c1[H])C([H])([H])N(C(=O)C([H])(N([H])C(=O)C([H])(N([H])C([H])([H])[H])C([H])([H])[H])C(C([H])([H])[H])(C([H])([H])[H])C([H])([H])[H])C([H])(C(=O)N([H])C1([H])c3c([H])c([H])c([H])c([H])c3C([H])([H])C([H])([H])C1([H])[H])C2([H])[H])N([H])C(=O)N1C([H])([H])C([H])([H])C([H])([H])C([H])(n2nc(-c3c([H])c([H])c(Oc4c([H])c([H])c(F)c([H])c4F)c([H])c3[H])c(C(=O)N([H])[H])c2N([H])[H])C1([H])[H]

$$$$
59:0:0
     RDKit          3D

100107  0  0  1  0  0  0  0  0999 V2000
  -27.8020  -24.7610   20.9620 C   0  0  0  0  0  0  0  0  0  0  0  0
  -26.9510  -23.9650   20.3000 N   0  0  0  0  0  0  0  0  0  0  0  0
  -27.7430  -24.8950   22.1900 O   0  0  0  0  0  0  0  0  0  0  0  0
  -27.0480  -23.8880   19.2960 H   0  0  0  0  0  0  0  0  0  0  0  0
  -28.7860  -25.5950   20.0960 C   0  0  0  0  0  3  0  0  0  0  0  0
  -30.2150  -25.0810   20.3950 C   0  0  0  0  0  0  0  0  0  0  0  0
  -30.7650  -24.2110   19.5500 N   0  0  0  0  0  0  0  0  0  0  0  0
  -30.8650  -25.5040   21.3520 O   0  0  0  0  0  0  0  0  0  0  0  0
  -30.2570  -23.8760   18.7430 H   0  0  0  0  0  0  0  0  0  0  0  0
  -31.7080  -23.8820   19.7020 H   0  0  0  0  0  0  0  0  0  0  0  0
  -28.7090  -26.9840   20.4460 O   0  0  0  0  0  0  0  0  0  0  0  0
  -24.6070  -32.0010   23.3340 C   0  0  0  0  0  0  0  0  0  0  0  0
  -27.4910  -27.6330   20.3760 C   0  0  0  0  0  0  0  0  0  0  0  0
  -23.5020  -30.5560   21.6570 C   0  0  0  0  0  3  0  0  0  0  0  0
  -25.0480  -29.0530   20.3020 C   0  0  0  0  0  0  0  0  0  0  0  0
  -26.0220  -30.9870   21.5500 C   0  0  0  0  0  2  0  0  0  0  0  0
  -26.1660  -29.6160   20.9250 C   0  0  0  0  0  0  0  0  0  0  0  0
  -27.3900  -28.9140   20.9610 C   0  0  0  0  0  3  0  0  0  0  0  0
  -26.3490  -27.0770   19.7500 C   0  0  0  0  0  3  0  0  0  0  0  0
  -25.1310  -27.7790   19.7170 C   0  0  0  0  0  3  0  0  0  0  0  0
  -23.7810  -29.8760   20.2900 C   0  0  0  0  0  2  0  0  0  0  0  0
  -24.7250  -31.1980   22.2390 N   0  0  0  0  0  0  0  0  0  0  0  0
  -23.4990  -32.2430   23.8330 O   0  0  0  0  0  0  0  0  0  0  0  0
  -22.8470  -29.5210   22.5990 C   0  0  0  0  0  0  0  0  0  0  0  0
  -21.5280  -29.3220   22.4440 N   0  0  0  0  0  0  0  0  0  0  0  0
  -23.5230  -28.9010   23.4240 O   0  0  0  0  0  0  0  0  0  0  0  0
  -21.0460  -29.8760   21.7500 H   0  0  0  0  0  0  0  0  0  0  0  0
  -18.1520  -28.1220   22.9000 C   0  0  0  0  0  0  0  0  0  0  0  0
  -20.7080  -28.3700   23.1920 C   0  0  0  0  0  3  0  0  0  0  0  0
  -20.8130  -26.9500   22.5900 C   0  0  0  0  0  2  0  0  0  0  0  0
  -19.7170  -26.6470   21.5640 C   0  0  0  0  0  2  0  0  0  0  0  0
  -18.3320  -26.7840   22.2010 C   0  0  0  0  0  2  0  0  0  0  0  0
  -19.2700  -28.8740   23.3500 C   0  0  0  0  0  0  0  0  0  0  0  0
  -19.0490  -30.1290   23.9590 C   0  0  0  0  0  3  0  0  0  0  0  0
  -17.7450  -30.6300   24.1240 C   0  0  0  0  0  3  0  0  0  0  0  0
  -16.6420  -29.8750   23.6890 C   0  0  0  0  0  3  0  0  0  0  0  0
  -16.8460  -28.6220   23.0830 C   0  0  0  0  0  3  0  0  0  0  0  0
  -25.8520  -32.6690   23.9970 C   0  0  0  0  0  3  0  0  0  0  0  0
  -25.5110  -34.0740   24.2590 N   0  0  0  0  0  0  0  0  0  0  0  0
  -25.8620  -35.1000   23.4740 C   0  0  0  0  0  0  0  0  0  0  0  0
  -26.5790  -34.9690   22.4780 O   0  0  0  0  0  0  0  0  0  0  0  0
  -24.8860  -34.2510   25.0320 H   0  0  0  0  0  0  0  0  0  0  0  0
  -24.1200  -36.8430   22.9790 C   0  0  0  0  0  1  0  0  0  0  0  0
  -25.3350  -36.4970   23.8530 C   0  0  0  0  0  3  0  0  0  0  0  0
  -27.4250  -37.4500   24.7230 C   0  0  0  0  0  1  0  0  0  0  0  0
  -26.3540  -37.5630   23.7360 N   0  0  0  0  0  0  0  0  0  0  0  0
  -25.9290  -38.4810   23.8340 H   0  0  0  0  0  0  0  0  0  0  0  0
  -26.3130  -31.9510   25.3230 C   0  0  1  0  0  0  0  0  0  0  0  0
  -25.1690  -31.7280   26.3390 C   0  0  0  0  0  1  0  0  0  0  0  0
  -26.9400  -30.5740   25.0040 C   0  0  0  0  0  1  0  0  0  0  0  0
  -27.4120  -32.7890   26.0190 C   0  0  0  0  0  1  0  0  0  0  0  0
  -25.8280  -23.2550   20.8980 C   0  0  0  0  0  2  0  0  0  0  0  0
  -25.1040  -22.4330   19.8260 C   0  0  0  0  0  2  0  0  0  0  0  0
  -25.9600  -21.3830   19.3960 O   0  0  0  0  0  0  0  0  0  0  0  0
  -25.6300  -20.8920   18.1020 C   0  0  0  0  0  2  0  0  0  0  0  0
  -26.2370  -19.4990   17.8880 C   0  0  0  0  0  2  0  0  0  0  0  0
  -27.6460  -19.5420   18.0720 O   0  0  0  0  0  0  0  0  0  0  0  0
  -28.2840  -18.3280   17.6970 C   0  0  0  0  0  2  0  0  0  0  0  0
  -29.7160  -18.3090   18.2500 C   0  0  0  0  0  2  0  0  0  0  0  0
  -29.6800  -17.9010   19.6110 O   0  0  0  0  0  0  0  0  0  0  0  0
  -30.9370  -18.0360   20.2610 C   0  0  0  0  0  2  0  0  0  0  0  0
  -30.8810  -17.2980   21.6110 C   0  0  0  0  0  2  0  0  0  0  0  0
  -31.0610  -14.9990   20.6900 C   0  0  0  0  0  0  0  0  0  0  0  0
  -30.7850  -12.8700   19.4830 C   0  0  0  0  0  2  0  0  0  0  0  0
  -29.9050  -13.0790   18.2370 C   0  0  0  0  0  2  0  0  0  0  0  0
  -28.4120  -12.9480   18.5940 C   0  0  0  0  0  2  0  0  0  0  0  0
  -28.0160  -13.7950   19.8320 C   0  0  0  0  0  3  0  0  0  0  0  0
  -29.0090  -13.5610   20.9930 C   0  0  0  0  0  2  0  0  0  0  0  0
  -30.3700  -13.8460   20.5000 N   0  0  0  0  0  0  0  0  0  0  0  0
  -32.1520  -15.2350   20.1660 O   0  0  0  0  0  0  0  0  0  0  0  0
  -30.4460  -15.9120   21.4440 N   0  0  0  0  0  0  0  0  0  0  0  0
  -29.5490  -15.6600   21.8310 H   0  0  0  0  0  0  0  0  0  0  0  0
  -25.5920  -14.4180   20.4420 C   0  0  0  0  0  0  0  0  0  0  0  0
  -24.4980  -13.6510   20.7390 C   0  0  0  0  0  0  0  0  0  0  0  0
  -24.9440  -12.2950   20.6980 C   0  0  0  0  0  0  0  0  0  0  0  0
  -26.6370  -13.5300   20.2400 N   0  0  0  0  0  0  0  0  0  0  0  0
  -26.2470  -12.2460   20.4480 N   0  0  0  0  0  0  0  0  0  0  0  0
  -24.1960  -11.0380   20.8260 C   0  0  0  0  0  0  0  0  0  0  0  0
  -24.5950  -10.0310   21.7320 C   0  0  0  0  0  3  0  0  0  0  0  0
  -23.8500   -8.8370   21.8510 C   0  0  0  0  0  3  0  0  0  0  0  0
  -22.6910   -8.6450   21.0630 C   0  0  0  0  0  0  0  0  0  0  0  0
  -22.3110   -9.6410   20.1460 C   0  0  0  0  0  3  0  0  0  0  0  0
  -23.0580  -10.8250   20.0250 C   0  0  0  0  0  3  0  0  0  0  0  0
  -21.9200   -7.5080   21.0910 O   0  0  0  0  0  0  0  0  0  0  0  0
  -21.8380   -6.7210   22.2110 C   0  0  0  0  0  0  0  0  0  0  0  0
  -21.4250   -7.2390   23.4580 C   0  0  0  0  0  3  0  0  0  0  0  0
  -21.2890   -6.3810   24.5680 C   0  0  0  0  0  3  0  0  0  0  0  0
  -21.5560   -5.0060   24.4310 C   0  0  0  0  0  0  0  0  0  0  0  0
  -21.9630   -4.4870   23.1890 C   0  0  0  0  0  3  0  0  0  0  0  0
  -22.1000   -5.3420   22.0820 C   0  0  0  0  0  0  0  0  0  0  0  0
  -22.4720   -4.8330   20.8820 F   0  0  0  0  0  0  0  0  0  0  0  0
  -21.4180   -4.1790   25.4940 F   0  0  0  0  0  0  0  0  0  0  0  0
  -23.0950  -14.1390   20.9630 C   0  0  0  0  0  0  0  0  0  0  0  0
  -22.3260  -13.4370   21.7880 N   0  0  0  0  0  0  0  0  0  0  0  0
  -22.6900  -15.1780   20.4420 O   0  0  0  0  0  0  0  0  0  0  0  0
  -22.6660  -12.5970   22.2300 H   0  0  0  0  0  0  0  0  0  0  0  0
  -21.3840  -13.7460   21.9790 H   0  0  0  0  0  0  0  0  0  0  0  0
  -25.7820  -15.7890   20.3120 N   0  0  0  0  0  0  0  0  0  0  0  0
  -25.0290  -16.4540   20.4420 H   0  0  0  0  0  0  0  0  0  0  0  0
  -26.6780  -16.2250   20.1300 H   0  0  0  0  0  0  0  0  0  0  0  0
  1  3  2  0
  2 52  1  0
  2  1  1  0
  4  2  1  0
  5  6  1  0
  5 11  1  0
  5  1  1  0
  6  8  2  0
  7 10  1  0
  7  6  1  0
  9  7  1  0
 12 23  2  0
 13 11  1  0
 13 18  1  0
 14 22  1  0
 14 24  1  0
 15 17  1  0
 16 22  1  0
 17 18  2  0
 17 16  1  0
 19 13  2  0
 20 19  1  0
 20 15  2  0
 21 15  1  0
 21 14  1  0
 22 12  1  0
 24 26  2  0
 25 24  1  0
 27 25  1  0
 28 37  2  0
 28 33  1  0
 29 25  1  0
 29 33  1  0
 30 29  1  0
 31 32  1  0
 31 30  1  0
 32 28  1  0
 33 34  2  0
 34 35  1  0
 36 35  2  0
 37 36  1  0
 38 12  1  0
 38 39  1  0
 38 48  1  0
 39 42  1  0
 40 44  1  0
 40 39  1  0
 41 40  2  0
 44 43  1  0
 46 47  1  0
 46 44  1  0
 46 45  1  0
 48 51  1  1
 48 49  1  0
 50 48  1  0
 53 52  1  0
 54 53  1  0
 55 54  1  0
 56 57  1  0
 56 55  1  0
 58 57  1  0
 58 59  1  0
 59 60  1  0
 60 61  1  0
 61 62  1  0
 63 71  1  0
 64 69  1  0
 65 66  1  0
 65 64  1  0
 67 66  1  0
 67 76  1  0
 67 68  1  0
 69 63  1  0
 69 68  1  0
 70 63  2  0
 71 62  1  0
 71 72  1  0
 73 74  2  0
 74 93  1  0
 75 74  1  0
 75 78  1  0
 76 73  1  0
 76 77  1  0
 77 75  2  0
 78 79  1  0
 79 80  2  0
 81 84  1  0
 81 80  1  0
 82 81  2  0
 83 82  1  0
 83 78  2  0
 84 85  1  0
 85 86  1  0
 86 87  2  0
 88 87  1  0
 88 92  1  0
 89 88  2  0
 90 85  2  0
 90 89  1  0
 91 90  1  0
 93 94  1  0
 94 97  1  0
 94 96  1  0
 95 93  2  0
 98 99  1  0
 98 73  1  0
100 98  1  0
M  ISO  4   5 101  11 101  63 100  71 100
M  END
>  <TORSDO>  (58) 
F 29

>  <SCORE>  (58) 
-10.199

>  <name>  (58) 
59

>  <ligand_id>  (58) 
59

>  <original_smiles>  (58) 
[H]c1c([H])c([H])c2c(c1[H])C([H])([H])C([H])([H])C([H])([H])C2([H])N([H])C(=O)C1([H])N(C(=O)C([H])(N([H])C(=O)C([H])(N([H])C([H])([H])[H])C([H])([H])[H])C(C([H])([H])[H])(C([H])([H])[H])C([H])([H])[H])C([H])([H])c2c([H])c(OC([H])(C(=O)N([H])[H])C(=O)N([H])C([H])([H])C([H])([H])OC([H])([H])C([H])([H])OC([H])([H])C([H])([H])OC([H])([H])C([H])([H])N([H])C(=O)N3C([H])([H])C([H])([H])C([H])([H])C([H])(n4nc(-c5c([H])c([H])c(Oc6c([H])c([H])c(F)c([H])c6F)c([H])c5[H])c(C(=O)N([H])[H])c4N([H])[H])C3([H])[H])c([H])c([H])c2C1([H])[H]

>  <smiles>  (58) 
[H]c1c([H])c([H])c2c(c1[H])C([H])([H])C([H])([H])C([H])([H])C2([H])N([H])C(=O)C1([H])N(C(=O)C([H])(N([H])C(=O)C([H])(N([H])C([H])([H])[H])C([H])([H])[H])C(C([H])([H])[H])(C([H])([H])[H])C([H])([H])[H])C([H])([H])c2c([H])c(OC([H])(C(=O)N([H])[H])C(=O)N([H])C([H])([H])C([H])([H])OC([H])([H])C([H])([H])OC([H])([H])C([H])([H])OC([H])([H])C([H])([H])N([H])C(=O)N3C([H])([H])C([H])([H])C([H])([H])C([H])(n4nc(-c5c([H])c([H])c(Oc6c([H])c([H])c(F)c([H])c6F)c([H])c5[H])c(C(=O)N([H])[H])c4N([H])[H])C3([H])[H])c([H])c([H])c2C1([H])[H]

$$$$
60:0:0
     RDKit          3D

 97104  0  0  1  0  0  0  0  0999 V2000
  -30.8150  -24.9350   22.8930 N   0  0  0  0  0  4  0  0  0  0  0  0
  -30.1060  -24.2180   22.8310 H   0  0  0  0  0  0  0  0  0  0  0  0
  -31.5840  -24.5640   23.4300 H   0  0  0  0  0  0  0  0  0  0  0  0
  -31.2530  -25.1820   21.5000 C   0  0  0  0  0  2  0  0  0  0  0  0
  -30.7710  -24.0320   20.6060 C   0  0  0  0  0  2  0  0  0  0  0  0
  -29.5410  -24.4730   20.0410 O   0  0  0  0  0  0  0  0  0  0  0  0
  -28.9840  -23.6160   19.0520 C   0  0  0  0  0  2  0  0  0  0  0  0
  -27.5320  -23.2560   19.4020 C   0  0  0  0  0  2  0  0  0  0  0  0
  -26.7150  -23.4760   18.2600 O   0  0  0  0  0  0  0  0  0  0  0  0
  -25.3350  -23.5590   18.5810 C   0  0  0  0  0  2  0  0  0  0  0  0
  -24.5430  -23.8890   17.3100 C   0  0  0  0  0  2  0  0  0  0  0  0
  -23.0260  -23.7830   17.5300 C   0  0  0  0  0  2  0  0  0  0  0  0
  -22.4710  -22.5840   15.4250 C   0  0  0  0  0  0  0  0  0  0  0  0
  -21.6230  -21.4800   13.3920 C   0  0  0  0  0  2  0  0  0  0  0  0
  -22.3490  -21.9670   12.1250 C   0  0  0  0  0  2  0  0  0  0  0  0
  -21.6890  -23.2430   11.5710 C   0  0  0  0  0  2  0  0  0  0  0  0
  -21.4700  -24.3230   12.6620 C   0  0  0  0  0  3  0  0  0  0  0  0
  -20.7990  -23.7110   13.9110 C   0  0  0  0  0  2  0  0  0  0  0  0
  -21.6140  -22.5730   14.3730 N   0  0  0  0  0  0  0  0  0  0  0  0
  -23.3100  -21.7030   15.6340 O   0  0  0  0  0  0  0  0  0  0  0  0
  -22.3000  -23.6000   16.2780 N   0  0  0  0  0  0  0  0  0  0  0  0
  -21.5610  -24.2550   16.0620 H   0  0  0  0  0  0  0  0  0  0  0  0
  -20.4810  -26.7010   12.7180 C   0  0  0  0  0  0  0  0  0  0  0  0
  -19.7750  -27.4200   11.7890 C   0  0  0  0  0  0  0  0  0  0  0  0
  -19.6190  -26.5590   10.6600 C   0  0  0  0  0  0  0  0  0  0  0  0
  -20.7120  -25.4620   12.1430 N   0  0  0  0  0  0  0  0  0  0  0  0
  -20.1430  -25.3670   10.9130 N   0  0  0  0  0  0  0  0  0  0  0  0
  -19.0510  -26.8190    9.3310 C   0  0  0  0  0  0  0  0  0  0  0  0
  -18.0180  -26.0160    8.8010 C   0  0  0  0  0  3  0  0  0  0  0  0
  -17.4730  -26.2970    7.5290 C   0  0  0  0  0  3  0  0  0  0  0  0
  -17.9620  -27.3900    6.7750 C   0  0  0  0  0  0  0  0  0  0  0  0
  -19.0050  -28.1740    7.2980 C   0  0  0  0  0  3  0  0  0  0  0  0
  -19.5490  -27.8910    8.5620 C   0  0  0  0  0  3  0  0  0  0  0  0
  -17.5140  -27.7190    5.5180 O   0  0  0  0  0  0  0  0  0  0  0  0
  -16.2880  -27.3110    5.0600 C   0  0  0  0  0  0  0  0  0  0  0  0
  -15.0950  -27.6100    5.7550 C   0  0  0  0  0  3  0  0  0  0  0  0
  -13.8520  -27.2320    5.2120 C   0  0  0  0  0  3  0  0  0  0  0  0
  -13.7960  -26.5610    3.9750 C   0  0  0  0  0  0  0  0  0  0  0  0
  -14.9820  -26.2680    3.2790 C   0  0  0  0  0  3  0  0  0  0  0  0
  -16.2250  -26.6440    3.8190 C   0  0  0  0  0  0  0  0  0  0  0  0
  -17.3640  -26.3780    3.1340 F   0  0  0  0  0  0  0  0  0  0  0  0
  -12.6010  -26.2050    3.4500 F   0  0  0  0  0  0  0  0  0  0  0  0
  -19.3530  -28.8560   11.9020 C   0  0  0  0  0  0  0  0  0  0  0  0
  -18.1940  -29.1990   11.3500 N   0  0  0  0  0  0  0  0  0  0  0  0
  -20.0290  -29.6770   12.5220 O   0  0  0  0  0  0  0  0  0  0  0  0
  -17.6290  -28.5200   10.8600 H   0  0  0  0  0  0  0  0  0  0  0  0
  -17.8660  -30.1520   11.4230 H   0  0  0  0  0  0  0  0  0  0  0  0
  -20.9540  -26.9990   13.9930 N   0  0  0  0  0  0  0  0  0  0  0  0
  -20.8410  -27.9110   14.4190 H   0  0  0  0  0  0  0  0  0  0  0  0
  -21.4810  -26.3560   14.5730 H   0  0  0  0  0  0  0  0  0  0  0  0
  -30.2240  -26.0820   23.6150 C   0  0  0  0  0  2  0  0  0  0  0  0
  -28.9210  -25.6840   24.3410 C   0  0  0  0  0  2  0  0  0  0  0  0
  -27.6180  -25.9580   23.5700 C   0  0  0  0  0  2  0  0  0  0  0  0
  -27.4950  -25.1230   22.4260 O   0  0  0  0  0  0  0  0  0  0  0  0
  -26.1500  -25.0010   21.9710 C   0  0  0  0  0  2  0  0  0  0  0  0
  -26.0990  -24.8990   20.4300 C   0  0  0  0  0  2  0  0  0  0  0  0
  -26.2410  -26.1830   19.8160 O   0  0  0  0  0  0  0  0  0  0  0  0
  -24.1720  -31.6000   23.8880 C   0  0  0  0  0  0  0  0  0  0  0  0
  -25.2550  -27.1200   20.0410 C   0  0  0  0  0  0  0  0  0  0  0  0
  -22.4660  -30.7430   22.3160 C   0  0  0  0  0  3  0  0  0  0  0  0
  -23.3110  -29.1050   20.5550 C   0  0  0  0  0  0  0  0  0  0  0  0
  -24.9560  -30.5340   21.7790 C   0  0  0  0  0  2  0  0  0  0  0  0
  -24.6230  -29.2750   21.0080 C   0  0  0  0  0  0  0  0  0  0  0  0
  -25.5990  -28.2900   20.7470 C   0  0  0  0  0  3  0  0  0  0  0  0
  -23.9250  -26.9590   19.5870 C   0  0  0  0  0  3  0  0  0  0  0  0
  -22.9550  -27.9470   19.8420 C   0  0  0  0  0  3  0  0  0  0  0  0
  -22.3290  -30.2120   20.8630 C   0  0  0  0  0  2  0  0  0  0  0  0
  -23.8930  -30.9610   22.7180 N   0  0  0  0  0  0  0  0  0  0  0  0
  -23.2660  -32.0460   24.6060 O   0  0  0  0  0  0  0  0  0  0  0  0
  -21.7030  -29.7870   23.2600 C   0  0  0  0  0  0  0  0  0  0  0  0
  -20.3900  -29.6310   23.0180 N   0  0  0  0  0  0  0  0  0  0  0  0
  -22.2900  -29.1860   24.1620 O   0  0  0  0  0  0  0  0  0  0  0  0
  -19.9840  -30.1690   22.2640 H   0  0  0  0  0  0  0  0  0  0  0  0
  -17.0700  -28.2140   22.9820 C   0  0  0  0  0  0  0  0  0  0  0  0
  -19.4770  -28.7550   23.7500 C   0  0  0  0  0  3  0  0  0  0  0  0
  -19.7930  -27.2670   23.4720 C   0  0  0  0  0  2  0  0  0  0  0  0
  -18.9720  -26.6820   22.3180 C   0  0  0  0  0  2  0  0  0  0  0  0
  -17.4730  -26.7960   22.6140 C   0  0  0  0  0  2  0  0  0  0  0  0
  -18.0150  -29.1380   23.5010 C   0  0  0  0  0  0  0  0  0  0  0  0
  -17.5970  -30.4540   23.7960 C   0  0  0  0  0  3  0  0  0  0  0  0
  -16.2620  -30.8490   23.5840 C   0  0  0  0  0  3  0  0  0  0  0  0
  -15.3270  -29.9250   23.0870 C   0  0  0  0  0  3  0  0  0  0  0  0
  -15.7300  -28.6110   22.7920 C   0  0  0  0  0  3  0  0  0  0  0  0
  -25.6410  -31.8260   24.3680 C   0  0  0  0  0  3  0  0  0  0  0  0
  -25.8260  -33.2700   24.5620 N   0  0  0  0  0  0  0  0  0  0  0  0
  -26.4490  -34.0780   23.6950 C   0  0  0  0  0  0  0  0  0  0  0  0
  -26.9960  -33.6660   22.6680 O   0  0  0  0  0  0  0  0  0  0  0  0
  -25.3540  -33.6840   25.3520 H   0  0  0  0  0  0  0  0  0  0  0  0
  -25.3960  -36.3030   23.1790 C   0  0  0  0  0  1  0  0  0  0  0  0
  -26.4660  -35.5850   24.0160 C   0  0  0  0  0  3  0  0  0  0  0  0
  -28.8120  -35.7580   24.7210 C   0  0  0  0  0  1  0  0  0  0  0  0
  -27.7840  -36.2200   23.7920 N   0  0  0  0  0  0  0  0  0  0  0  0
  -27.7150  -37.2320   23.8730 H   0  0  0  0  0  0  0  0  0  0  0  0
  -25.9910  -31.0350   25.6890 C   0  0  1  0  0  0  0  0  0  0  0  0
  -24.9410  -31.2030   26.8120 C   0  0  0  0  0  1  0  0  0  0  0  0
  -26.1310  -29.5230   25.3950 C   0  0  0  0  0  1  0  0  0  0  0  0
  -27.3560  -31.5100   26.2390 C   0  0  0  0  0  1  0  0  0  0  0  0
  1  3  1  0
  1 51  1  0
  2  1  1  0
  4  1  1  0
  5  4  1  0
  6  5  1  0
  7  8  1  0
  7  6  1  0
  9 10  1  0
  9  8  1  0
 11 12  1  0
 11 10  1  0
 13 20  2  0
 13 21  1  0
 14 19  1  0
 15 14  1  0
 16 15  1  0
 17 16  1  0
 17 18  1  0
 18 19  1  0
 19 13  1  0
 21 12  1  0
 22 21  1  0
 23 48  1  0
 24 43  1  0
 24 23  2  0
 25 27  2  0
 25 24  1  0
 26 17  1  0
 26 23  1  0
 27 26  1  0
 28 25  1  0
 29 28  1  0
 30 29  2  0
 31 32  2  0
 31 30  1  0
 32 33  1  0
 33 28  2  0
 34 31  1  0
 35 34  1  0
 35 36  1  0
 37 36  2  0
 38 37  1  0
 39 40  1  0
 39 38  2  0
 40 35  2  0
 41 40  1  0
 42 38  1  0
 43 45  2  0
 44 47  1  0
 44 43  1  0
 46 44  1  0
 48 49  1  0
 48 50  1  0
 51 52  1  0
 53 52  1  0
 54 53  1  0
 55 54  1  0
 56 55  1  0
 57 59  1  0
 57 56  1  0
 58 69  2  0
 59 64  1  0
 60 68  1  0
 60 70  1  0
 61 67  1  0
 61 63  1  0
 62 68  1  0
 63 62  1  0
 64 63  2  0
 65 66  1  0
 65 59  2  0
 66 61  2  0
 67 60  1  0
 68 58  1  0
 70 72  2  0
 71 70  1  0
 73 71  1  0
 74 79  1  0
 75 71  1  0
 76 75  1  0
 77 78  1  0
 77 76  1  0
 78 74  1  0
 79 75  1  0
 79 80  2  0
 81 80  1  0
 82 81  2  0
 83 74  2  0
 83 82  1  0
 84 58  1  0
 84 85  1  0
 84 94  1  0
 85 88  1  0
 86 90  1  0
 86 85  1  0
 87 86  2  0
 90 89  1  0
 92 93  1  0
 92 90  1  0
 92 91  1  0
 94 97  1  1
 94 95  1  0
 96 94  1  0
M  ISO  4  13 100  21 100  56 101  57 101
M  END
>  <TORSDO>  (59) 
F 31

>  <SCORE>  (59) 
-1.813

>  <name>  (59) 
60

>  <ligand_id>  (59) 
60

>  <original_smiles>  (59) 
[H]c1c([H])c([H])c2c(c1[H])C([H])([H])C([H])([H])C([H])([H])C2([H])N([H])C(=O)C1([H])N(C(=O)C([H])(N([H])C(=O)C([H])(N([H])C([H])([H])[H])C([H])([H])[H])C(C([H])([H])[H])(C([H])([H])[H])C([H])([H])[H])C([H])([H])c2c([H])c(OC([H])([H])C([H])([H])OC([H])([H])C([H])([H])C([H])([H])[N+]([H])([H])C([H])([H])C([H])([H])OC([H])([H])C([H])([H])OC([H])([H])C([H])([H])C([H])([H])N([H])C(=O)N3C([H])([H])C([H])([H])C([H])([H])C([H])(n4nc(-c5c([H])c([H])c(Oc6c([H])c([H])c(F)c([H])c6F)c([H])c5[H])c(C(=O)N([H])[H])c4N([H])[H])C3([H])[H])c([H])c([H])c2C1([H])[H]

>  <smiles>  (59) 
[H]c1c([H])c([H])c2c(c1[H])C([H])([H])C([H])([H])C([H])([H])C2([H])N([H])C(=O)C1([H])N(C(=O)C([H])(N([H])C(=O)C([H])(N([H])C([H])([H])[H])C([H])([H])[H])C(C([H])([H])[H])(C([H])([H])[H])C([H])([H])[H])C([H])([H])c2c([H])c(OC([H])([H])C([H])([H])OC([H])([H])C([H])([H])C([H])([H])[N+]([H])([H])C([H])([H])C([H])([H])OC([H])([H])C([H])([H])OC([H])([H])C([H])([H])C([H])([H])N([H])C(=O)N3C([H])([H])C([H])([H])C([H])([H])C([H])(n4nc(-c5c([H])c([H])c(Oc6c([H])c([H])c(F)c([H])c6F)c([H])c5[H])c(C(=O)N([H])[H])c4N([H])[H])C3([H])[H])c([H])c([H])c2C1([H])[H]

$$$$
61:0:0
     RDKit          3D

103110  0  0  1  0  0  0  0  0999 V2000
  -28.1610  -21.1520   19.5590 C   0  0  0  0  0  3  0  0  0  0  0  0
  -28.7420  -19.7570   19.2510 C   0  0  0  0  0  0  0  0  0  0  0  0
  -29.6550  -19.7020   18.2670 N   0  0  0  0  0  0  0  0  0  0  0  0
  -28.3990  -18.7590   19.8870 O   0  0  0  0  0  0  0  0  0  0  0  0
  -29.8460  -20.5420   17.7390 H   0  0  0  0  0  0  0  0  0  0  0  0
  -30.3470  -18.5060   17.7960 C   0  0  0  0  0  2  0  0  0  0  0  0
  -31.3820  -17.9750   18.8020 C   0  0  0  0  0  2  0  0  0  0  0  0
  -32.1880  -19.0280   19.3210 O   0  0  0  0  0  0  0  0  0  0  0  0
  -33.5490  -18.8900   18.9270 C   0  0  0  0  0  2  0  0  0  0  0  0
  -34.4160  -18.4770   20.1210 C   0  0  0  0  0  2  0  0  0  0  0  0
  -34.4390  -17.0580   20.2120 O   0  0  0  0  0  0  0  0  0  0  0  0
  -35.7490  -16.5500   20.4280 C   0  0  0  0  0  2  0  0  0  0  0  0
  -35.6860  -15.0220   20.5990 C   0  0  0  0  0  2  0  0  0  0  0  0
  -34.5680  -14.1500   18.5480 C   0  0  0  0  0  0  0  0  0  0  0  0
  -33.2010  -13.3920   16.6420 C   0  0  0  0  0  2  0  0  0  0  0  0
  -32.3340  -14.5440   16.0990 C   0  0  0  0  0  2  0  0  0  0  0  0
  -31.0040  -14.6380   16.8710 C   0  0  0  0  0  2  0  0  0  0  0  0
  -31.2080  -14.6360   18.4080 C   0  0  0  0  0  3  0  0  0  0  0  0
  -32.1490  -13.4880   18.8340 C   0  0  0  0  0  2  0  0  0  0  0  0
  -33.4100  -13.6200   18.0790 N   0  0  0  0  0  0  0  0  0  0  0  0
  -35.5520  -14.3750   17.8390 O   0  0  0  0  0  0  0  0  0  0  0  0
  -34.5790  -14.4240   19.8560 N   0  0  0  0  0  0  0  0  0  0  0  0
  -33.7320  -14.2280   20.3670 H   0  0  0  0  0  0  0  0  0  0  0  0
  -29.1580  -15.6030   19.6280 C   0  0  0  0  0  0  0  0  0  0  0  0
  -28.0250  -15.0120   20.1220 C   0  0  0  0  0  0  0  0  0  0  0  0
  -28.1660  -13.6150   19.8700 C   0  0  0  0  0  0  0  0  0  0  0  0
  -29.9280  -14.5720   19.1130 N   0  0  0  0  0  0  0  0  0  0  0  0
  -29.3430  -13.3640   19.3110 N   0  0  0  0  0  0  0  0  0  0  0  0
  -27.2260  -12.5060   20.0770 C   0  0  0  0  0  0  0  0  0  0  0  0
  -27.4730  -11.4990   21.0360 C   0  0  0  0  0  3  0  0  0  0  0  0
  -26.5460  -10.4510   21.2280 C   0  0  0  0  0  3  0  0  0  0  0  0
  -25.3570  -10.4050   20.4620 C   0  0  0  0  0  0  0  0  0  0  0  0
  -25.1280  -11.3980   19.4930 C   0  0  0  0  0  3  0  0  0  0  0  0
  -26.0540  -12.4360   19.2980 C   0  0  0  0  0  3  0  0  0  0  0  0
  -24.4130   -9.4130   20.5620 O   0  0  0  0  0  0  0  0  0  0  0  0
  -23.8660   -9.0590   21.7680 C   0  0  0  0  0  0  0  0  0  0  0  0
  -23.1400   -9.9790   22.5560 C   0  0  0  0  0  3  0  0  0  0  0  0
  -22.5340   -9.5560   23.7550 C   0  0  0  0  0  3  0  0  0  0  0  0
  -22.6440   -8.2140   24.1650 C   0  0  0  0  0  0  0  0  0  0  0  0
  -23.3640   -7.2950   23.3810 C   0  0  0  0  0  3  0  0  0  0  0  0
  -23.9690   -7.7160   22.1840 C   0  0  0  0  0  0  0  0  0  0  0  0
  -24.6420   -6.8220   21.4210 F   0  0  0  0  0  0  0  0  0  0  0  0
  -22.0570   -7.8040   25.3140 F   0  0  0  0  0  0  0  0  0  0  0  0
  -26.8340  -15.7140   20.7120 C   0  0  0  0  0  0  0  0  0  0  0  0
  -26.1610  -15.0780   21.6650 N   0  0  0  0  0  0  0  0  0  0  0  0
  -26.5220  -16.8500   20.3620 O   0  0  0  0  0  0  0  0  0  0  0  0
  -26.4300  -14.1530   21.9650 H   0  0  0  0  0  0  0  0  0  0  0  0
  -25.3650  -15.5230   22.1010 H   0  0  0  0  0  0  0  0  0  0  0  0
  -29.5910  -16.9220   19.5610 N   0  0  0  0  0  0  0  0  0  0  0  0
  -29.0560  -17.6910   19.9500 H   0  0  0  0  0  0  0  0  0  0  0  0
  -30.4860  -17.2050   19.1830 H   0  0  0  0  0  0  0  0  0  0  0  0
  -29.2490  -22.0660   19.9600 N   0  0  0  0  0  4  0  0  0  0  0  0
  -28.9560  -22.4450   20.8510 H   0  0  0  0  0  0  0  0  0  0  0  0
  -30.0460  -21.4720   20.1340 H   0  0  0  0  0  0  0  0  0  0  0  0
  -29.5810  -23.1350   18.9840 C   0  0  0  0  0  2  0  0  0  0  0  0
  -31.0640  -23.1360   18.5850 C   0  0  0  0  0  2  0  0  0  0  0  0
  -31.3890  -24.4750   18.2340 O   0  0  0  0  0  0  0  0  0  0  0  0
  -32.4170  -24.5960   17.2580 C   0  0  0  0  0  2  0  0  0  0  0  0
  -31.8660  -24.7840   15.8300 C   0  0  0  0  0  2  0  0  0  0  0  0
  -31.3410  -26.0980   15.6750 O   0  0  0  0  0  0  0  0  0  0  0  0
  -26.7070  -26.9970   20.9820 C   0  0  0  0  0  0  0  0  0  0  0  0
  -30.0280  -26.2920   16.0330 C   0  0  0  0  0  0  0  0  0  0  0  0
  -25.7170  -26.7390   18.7280 C   0  0  0  0  0  3  0  0  0  0  0  0
  -27.3610  -26.8230   16.7820 C   0  0  0  0  0  0  0  0  0  0  0  0
  -28.0660  -27.7020   19.0160 C   0  0  0  0  0  2  0  0  0  0  0  0
  -28.4080  -27.1100   17.6660 C   0  0  0  0  0  0  0  0  0  0  0  0
  -29.7440  -26.8530   17.2920 C   0  0  0  0  0  3  0  0  0  0  0  0
  -28.9650  -26.0140   15.1420 C   0  0  0  0  0  3  0  0  0  0  0  0
  -27.6320  -26.2740   15.5160 C   0  0  0  0  0  3  0  0  0  0  0  0
  -25.9630  -27.1550   17.2530 C   0  0  0  0  0  2  0  0  0  0  0  0
  -26.8500  -27.1230   19.6320 N   0  0  0  0  0  0  0  0  0  0  0  0
  -25.6400  -26.6120   21.4800 O   0  0  0  0  0  0  0  0  0  0  0  0
  -25.3940  -25.2290   18.7630 C   0  0  0  0  0  0  0  0  0  0  0  0
  -24.1700  -24.8740   18.3390 N   0  0  0  0  0  0  0  0  0  0  0  0
  -26.2370  -24.4070   19.1330 O   0  0  0  0  0  0  0  0  0  0  0  0
  -23.5360  -25.6080   18.0560 H   0  0  0  0  0  0  0  0  0  0  0  0
  -21.2510  -22.9170   17.5060 C   0  0  0  0  0  0  0  0  0  0  0  0
  -23.6560  -23.5090   18.2450 C   0  0  0  0  0  3  0  0  0  0  0  0
  -24.1170  -22.8300   16.9350 C   0  0  0  0  0  2  0  0  0  0  0  0
  -23.1090  -22.9820   15.7890 C   0  0  0  0  0  2  0  0  0  0  0  0
  -21.7580  -22.3770   16.1780 C   0  0  0  0  0  2  0  0  0  0  0  0
  -22.1410  -23.4630   18.4670 C   0  0  0  0  0  0  0  0  0  0  0  0
  -21.6160  -23.9840   19.6700 C   0  0  0  0  0  3  0  0  0  0  0  0
  -20.2310  -23.9630   19.9200 C   0  0  0  0  0  3  0  0  0  0  0  0
  -19.3550  -23.4050   18.9730 C   0  0  0  0  0  3  0  0  0  0  0  0
  -19.8660  -22.8820   17.7700 C   0  0  0  0  0  3  0  0  0  0  0  0
  -27.8670  -27.3530   21.9650 C   0  0  0  0  0  3  0  0  0  0  0  0
  -27.3330  -28.2920   22.9590 N   0  0  0  0  0  0  0  0  0  0  0  0
  -27.5880  -29.6070   22.9740 C   0  0  0  0  0  0  0  0  0  0  0  0
  -28.3650  -30.1500   22.1840 O   0  0  0  0  0  0  0  0  0  0  0  0
  -26.6460  -27.9290   23.6040 H   0  0  0  0  0  0  0  0  0  0  0  0
  -25.7300  -31.2510   23.3700 C   0  0  0  0  0  1  0  0  0  0  0  0
  -26.8640  -30.4570   24.0360 C   0  0  0  0  0  3  0  0  0  0  0  0
  -28.6810  -30.6990   25.6680 C   0  0  0  0  0  1  0  0  0  0  0  0
  -27.7620  -31.3800   24.7600 N   0  0  0  0  0  0  0  0  0  0  0  0
  -27.2270  -32.0550   25.2980 H   0  0  0  0  0  0  0  0  0  0  0  0
  -28.4960  -26.0890   22.6690 C   0  0  1  0  0  0  0  0  0  0  0  0
  -27.4510  -25.1600   23.3290 C   0  0  0  0  0  1  0  0  0  0  0  0
  -29.3020  -25.2500   21.6480 C   0  0  0  0  0  1  0  0  0  0  0  0
  -29.4920  -26.5390   23.7640 C   0  0  0  0  0  1  0  0  0  0  0  0
  -27.0390  -21.2150   20.6220 C   0  0  0  0  0  2  0  0  0  0  0  0
  -27.4840  -21.7870   21.8500 O   0  0  0  0  0  0  0  0  0  0  0  0
  -27.9420  -21.1080   22.3410 H   0  0  0  0  0  0  0  0  0  0  0  0
  1 52  1  0
  1101  1  0
  2  1  1  0
  2  4  2  0
  3  2  1  0
  5  3  1  0
  6  3  1  0
  6  7  1  0
  7  8  1  0
  9  8  1  0
  9 10  1  0
 10 11  1  0
 11 12  1  0
 12 13  1  0
 14 22  1  0
 15 20  1  0
 16 15  1  0
 16 17  1  0
 18 17  1  0
 18 19  1  0
 18 27  1  0
 20 14  1  0
 20 19  1  0
 21 14  2  0
 22 23  1  0
 22 13  1  0
 24 25  2  0
 25 44  1  0
 26 29  1  0
 26 25  1  0
 27 28  1  0
 27 24  1  0
 28 26  2  0
 29 30  1  0
 30 31  2  0
 32 35  1  0
 32 31  1  0
 33 32  2  0
 34 33  1  0
 34 29  2  0
 35 36  1  0
 36 41  2  0
 36 37  1  0
 37 38  2  0
 38 39  1  0
 39 43  1  0
 40 39  2  0
 41 40  1  0
 42 41  1  0
 44 45  1  0
 45 47  1  0
 45 48  1  0
 46 44  2  0
 49 24  1  0
 49 50  1  0
 51 49  1  0
 52 54  1  0
 52 53  1  0
 55 52  1  0
 56 55  1  0
 57 56  1  0
 58 57  1  0
 59 58  1  0
 60 59  1  0
 60 62  1  0
 61 72  2  0
 62 67  1  0
 63 73  1  0
 63 71  1  0
 64 70  1  0
 64 66  1  0
 65 71  1  0
 66 65  1  0
 67 66  2  0
 68 69  1  0
 68 62  2  0
 69 64  2  0
 70 63  1  0
 71 61  1  0
 73 75  2  0
 74 73  1  0
 76 74  1  0
 77 86  2  0
 77 82  1  0
 78 74  1  0
 78 82  1  0
 79 78  1  0
 80 81  1  0
 80 79  1  0
 81 77  1  0
 82 83  2  0
 83 84  1  0
 85 84  2  0
 86 85  1  0
 87 61  1  0
 87 97  1  0
 87 88  1  0
 88 89  1  0
 88 91  1  0
 89 93  1  0
 90 89  2  0
 93 92  1  0
 93 95  1  0
 95 96  1  0
 95 94  1  0
 97 98  1  1
 97100  1  0
 99 97  1  0
101102  1  0
102103  1  0
M  ISO  4  14 100  22 100  59 101  60 101
M  END
>  <TORSDO>  (60) 
F 33

>  <SCORE>  (60) 
1.175

>  <name>  (60) 
61

>  <ligand_id>  (60) 
61

>  <original_smiles>  (60) 
[H]OC([H])([H])C([H])(C(=O)N([H])C([H])([H])C([H])([H])OC([H])([H])C([H])([H])OC([H])([H])C([H])([H])N([H])C(=O)N1C([H])([H])C([H])([H])C([H])([H])C([H])(n2nc(-c3c([H])c([H])c(Oc4c([H])c([H])c(F)c([H])c4F)c([H])c3[H])c(C(=O)N([H])[H])c2N([H])[H])C1([H])[H])[N+]([H])([H])C([H])([H])C([H])([H])OC([H])([H])C([H])([H])Oc1c([H])c([H])c2c(c1[H])C([H])([H])N(C(=O)C([H])(N([H])C(=O)C([H])(N([H])C([H])([H])[H])C([H])([H])[H])C(C([H])([H])[H])(C([H])([H])[H])C([H])([H])[H])C([H])(C(=O)N([H])C1([H])c3c([H])c([H])c([H])c([H])c3C([H])([H])C([H])([H])C1([H])[H])C2([H])[H]

>  <smiles>  (60) 
[H]OC([H])([H])C([H])(C(=O)N([H])C([H])([H])C([H])([H])OC([H])([H])C([H])([H])OC([H])([H])C([H])([H])N([H])C(=O)N1C([H])([H])C([H])([H])C([H])([H])C([H])(n2nc(-c3c([H])c([H])c(Oc4c([H])c([H])c(F)c([H])c4F)c([H])c3[H])c(C(=O)N([H])[H])c2N([H])[H])C1([H])[H])[N+]([H])([H])C([H])([H])C([H])([H])OC([H])([H])C([H])([H])Oc1c([H])c([H])c2c(c1[H])C([H])([H])N(C(=O)C([H])(N([H])C(=O)C([H])(N([H])C([H])([H])[H])C([H])([H])[H])C(C([H])([H])[H])(C([H])([H])[H])C([H])([H])[H])C([H])(C(=O)N([H])C1([H])c3c([H])c([H])c([H])c([H])c3C([H])([H])C([H])([H])C1([H])[H])C2([H])[H]

$$$$
62:0:0
     RDKit          3D

 96104  0  0  1  0  0  0  0  0999 V2000
  -31.1310  -17.2150   22.1850 C   0  0  0  0  0  2  0  0  0  0  0  0
  -30.6710  -19.4410   20.2290 C   0  0  0  0  0  3  0  0  0  0  0  0
  -31.3430  -18.6870   22.5910 C   0  0  0  0  0  3  0  0  0  0  0  0
  -31.6950  -19.5800   21.3830 C   0  0  0  0  0  3  0  0  0  0  0  0
  -30.3220  -17.9100   19.9510 C   0  0  0  0  0  3  0  0  0  0  0  0
  -30.0580  -17.1430   21.1940 N   0  0  0  0  0  0  0  0  0  0  0  0
  -33.0250  -19.2720   20.9630 O   0  0  0  0  0  0  0  0  0  0  0  0
  -33.0280  -18.4080   20.5630 H   0  0  0  0  0  0  0  0  0  0  0  0
  -32.4370  -18.7850   23.4820 O   0  0  0  0  0  0  0  0  0  0  0  0
  -33.1870  -18.9460   22.9070 H   0  0  0  0  0  0  0  0  0  0  0  0
  -29.4810  -20.4670   20.3720 C   0  0  0  0  0  2  0  0  0  0  0  0
  -29.8940  -21.8620   20.3640 O   0  0  0  0  0  0  0  0  0  0  0  0
  -28.8220  -22.8220   20.1960 C   0  0  0  0  0  2  0  0  0  0  0  0
  -29.2290  -24.3390   20.2650 C   0  0  0  0  0  2  0  0  0  0  0  0
  -28.0540  -25.3090   19.9040 C   0  0  0  0  0  2  0  0  0  0  0  0
  -28.2570  -26.7500   20.0430 O   0  0  0  0  0  0  0  0  0  0  0  0
  -24.5550  -31.9890   23.2590 C   0  0  0  0  0  0  0  0  0  0  0  0
  -27.1080  -27.5460   20.0410 C   0  0  0  0  0  0  0  0  0  0  0  0
  -23.3080  -30.6190   21.6240 C   0  0  0  0  0  3  0  0  0  0  0  0
  -24.7250  -29.1060   20.1340 C   0  0  0  0  0  0  0  0  0  0  0  0
  -25.8370  -30.9620   21.3770 C   0  0  0  0  0  2  0  0  0  0  0  0
  -25.9040  -29.6010   20.7040 C   0  0  0  0  0  0  0  0  0  0  0  0
  -27.0970  -28.8310   20.6500 C   0  0  0  0  0  3  0  0  0  0  0  0
  -25.9010  -27.0920   19.4540 C   0  0  0  0  0  3  0  0  0  0  0  0
  -24.7210  -27.8540   19.5050 C   0  0  0  0  0  3  0  0  0  0  0  0
  -23.4840  -29.9690   20.2290 C   0  0  0  0  0  2  0  0  0  0  0  0
  -24.5860  -31.2040   22.1440 N   0  0  0  0  0  0  0  0  0  0  0  0
  -23.4860  -32.2530   23.8290 O   0  0  0  0  0  0  0  0  0  0  0  0
  -22.6760  -29.5810   22.5810 C   0  0  0  0  0  0  0  0  0  0  0  0
  -21.3560  -29.3660   22.4500 N   0  0  0  0  0  0  0  0  0  0  0  0
  -23.3700  -28.9730   23.4000 O   0  0  0  0  0  0  0  0  0  0  0  0
  -20.8530  -29.9100   21.7620 H   0  0  0  0  0  0  0  0  0  0  0  0
  -18.0180  -28.0600   22.9220 C   0  0  0  0  0  0  0  0  0  0  0  0
  -20.5620  -28.4080   23.2200 C   0  0  0  0  0  3  0  0  0  0  0  0
  -20.7190  -26.9760   22.6590 C   0  0  0  0  0  2  0  0  0  0  0  0
  -19.6420  -26.6080   21.6340 C   0  0  0  0  0  2  0  0  0  0  0  0
  -18.2470  -26.7120   22.2590 C   0  0  0  0  0  2  0  0  0  0  0  0
  -19.1050  -28.8630   23.3580 C   0  0  0  0  0  0  0  0  0  0  0  0
  -18.8370  -30.1230   23.9360 C   0  0  0  0  0  3  0  0  0  0  0  0
  -17.5150  -30.5820   24.0820 C   0  0  0  0  0  3  0  0  0  0  0  0
  -16.4420  -29.7770   23.6600 C   0  0  0  0  0  3  0  0  0  0  0  0
  -16.6940  -28.5190   23.0870 C   0  0  0  0  0  3  0  0  0  0  0  0
  -25.8550  -32.6100   23.8580 C   0  0  0  0  0  3  0  0  0  0  0  0
  -26.3900  -31.8320   25.1220 C   0  0  1  0  0  0  0  0  0  0  0  0
  -25.3130  -31.5890   26.2060 C   0  0  0  0  0  1  0  0  0  0  0  0
  -26.9680  -30.4560   24.7170 C   0  0  0  0  0  1  0  0  0  0  0  0
  -27.5520  -32.6220   25.7680 C   0  0  0  0  0  1  0  0  0  0  0  0
  -25.5610  -34.0090   24.1960 N   0  0  0  0  0  0  0  0  0  0  0  0
  -25.8950  -35.0620   23.4380 C   0  0  0  0  0  0  0  0  0  0  0  0
  -26.5530  -34.9570   22.4000 O   0  0  0  0  0  0  0  0  0  0  0  0
  -24.9740  -34.1650   25.0030 H   0  0  0  0  0  0  0  0  0  0  0  0
  -24.1860  -36.8750   23.0980 C   0  0  0  0  0  1  0  0  0  0  0  0
  -25.4240  -36.4530   23.9060 C   0  0  0  0  0  3  0  0  0  0  0  0
  -27.5690  -37.3060   24.7390 C   0  0  0  0  0  1  0  0  0  0  0  0
  -26.4670  -37.4960   23.7990 N   0  0  0  0  0  0  0  0  0  0  0  0
  -26.0730  -38.4180   23.9590 H   0  0  0  0  0  0  0  0  0  0  0  0
  -29.7280  -15.7020   20.9410 O   0  0  0  0  0  0  0  0  0  0  0  0
  -30.6190  -14.7540   20.4140 C   0  0  0  0  0  0  0  0  0  0  0  0
  -30.4360  -12.5290   19.2890 C   0  0  0  0  0  2  0  0  0  0  0  0
  -29.4960  -12.6840   18.0750 C   0  0  0  0  0  2  0  0  0  0  0  0
  -28.0210  -12.5020   18.4880 C   0  0  0  0  0  2  0  0  0  0  0  0
  -27.6390  -13.3470   19.7320 C   0  0  0  0  0  3  0  0  0  0  0  0
  -28.6790  -13.1690   20.8580 C   0  0  0  0  0  2  0  0  0  0  0  0
  -30.0010  -13.4930   20.3070 N   0  0  0  0  0  0  0  0  0  0  0  0
  -31.7410  -15.0230   19.9800 O   0  0  0  0  0  0  0  0  0  0  0  0
  -25.2130  -13.9020   20.3920 C   0  0  0  0  0  0  0  0  0  0  0  0
  -24.1620  -13.1080   20.7620 C   0  0  0  0  0  0  0  0  0  0  0  0
  -24.6620  -11.7690   20.7710 C   0  0  0  0  0  0  0  0  0  0  0  0
  -26.2870  -13.0460   20.1960 N   0  0  0  0  0  0  0  0  0  0  0  0
  -25.9560  -11.7590   20.4810 N   0  0  0  0  0  0  0  0  0  0  0  0
  -23.9680  -10.4920   20.9800 C   0  0  0  0  0  0  0  0  0  0  0  0
  -24.4020   -9.5660   21.9550 C   0  0  0  0  0  3  0  0  0  0  0  0
  -23.7070   -8.3520   22.1480 C   0  0  0  0  0  3  0  0  0  0  0  0
  -22.5650   -8.0570   21.3660 C   0  0  0  0  0  0  0  0  0  0  0  0
  -22.1520   -8.9700   20.3820 C   0  0  0  0  0  3  0  0  0  0  0  0
  -22.8480  -10.1750   20.1860 C   0  0  0  0  0  3  0  0  0  0  0  0
  -21.8430   -6.8920   21.4670 O   0  0  0  0  0  0  0  0  0  0  0  0
  -21.7710   -6.1890   22.6430 C   0  0  0  0  0  0  0  0  0  0  0  0
  -21.2690   -6.7670   23.8280 C   0  0  0  0  0  3  0  0  0  0  0  0
  -21.1490   -5.9870   24.9950 C   0  0  0  0  0  3  0  0  0  0  0  0
  -21.5220   -4.6300   24.9780 C   0  0  0  0  0  0  0  0  0  0  0  0
  -22.0180   -4.0510   23.7970 C   0  0  0  0  0  3  0  0  0  0  0  0
  -22.1400   -4.8270   22.6320 C   0  0  0  0  0  0  0  0  0  0  0  0
  -22.5990   -4.2590   21.4910 F   0  0  0  0  0  0  0  0  0  0  0  0
  -21.3990   -3.8780   26.0970 F   0  0  0  0  0  0  0  0  0  0  0  0
  -22.7480  -13.5520   21.0050 C   0  0  0  0  0  0  0  0  0  0  0  0
  -22.0260  -12.8480   21.8710 N   0  0  0  0  0  0  0  0  0  0  0  0
  -22.2910  -14.5550   20.4600 O   0  0  0  0  0  0  0  0  0  0  0  0
  -22.4090  -12.0360   22.3310 H   0  0  0  0  0  0  0  0  0  0  0  0
  -21.0790  -13.1290   22.0800 H   0  0  0  0  0  0  0  0  0  0  0  0
  -25.3460  -15.2720   20.1890 N   0  0  0  0  0  0  0  0  0  0  0  0
  -24.5690  -15.9170   20.2850 H   0  0  0  0  0  0  0  0  0  0  0  0
  -26.2070  -15.7270   19.9110 H   0  0  0  0  0  0  0  0  0  0  0  0
  -29.1810  -17.7360   18.9230 C   0  0  0  0  0  2  0  0  0  0  0  0
  -28.4200  -18.5010   16.8150 C   0  0  0  0  0  1  0  0  0  0  0  0
  -29.4690  -18.5200   17.7710 O   0  0  0  0  0  0  0  0  0  0  0  0
  1  3  1  0
  2 11  1  0
  2  4  1  0
  3  9  1  0
  4  7  1  0
  4  3  1  0
  5 94  1  0
  5  2  1  0
  5  6  1  0
  6  1  1  0
  8  7  1  0
 10  9  1  0
 12 11  1  0
 13 14  1  0
 13 12  1  0
 15 16  1  0
 15 14  1  0
 17 28  2  0
 18 16  1  0
 18 23  1  0
 19 27  1  0
 19 29  1  0
 20 26  1  0
 20 22  1  0
 21 27  1  0
 22 21  1  0
 23 22  2  0
 24 25  1  0
 24 18  2  0
 25 20  2  0
 26 19  1  0
 27 17  1  0
 29 31  2  0
 30 29  1  0
 32 30  1  0
 33 42  2  0
 33 38  1  0
 34 30  1  0
 34 38  1  0
 35 34  1  0
 36 37  1  0
 36 35  1  0
 37 33  1  0
 38 39  2  0
 39 40  1  0
 41 40  2  0
 42 41  1  0
 43 17  1  0
 43 48  1  0
 43 44  1  0
 44 47  1  1
 44 45  1  0
 46 44  1  0
 48 51  1  0
 49 53  1  0
 49 48  1  0
 50 49  2  0
 53 52  1  0
 55 53  1  0
 55 56  1  0
 55 54  1  0
 57  6  1  0
 58 57  1  0
 59 64  1  0
 60 61  1  0
 60 59  1  0
 62 61  1  0
 62 69  1  0
 62 63  1  0
 64 58  1  0
 64 63  1  0
 65 58  2  0
 66 67  2  0
 67 68  1  0
 67 86  1  0
 68 71  1  0
 69 66  1  0
 69 70  1  0
 70 68  2  0
 71 72  1  0
 72 73  2  0
 74 77  1  0
 74 73  1  0
 75 74  2  0
 76 75  1  0
 76 71  2  0
 77 78  1  0
 78 79  1  0
 79 80  2  0
 81 80  1  0
 81 85  1  0
 82 81  2  0
 83 78  2  0
 83 82  1  0
 84 83  1  0
 86 87  1  0
 87 90  1  0
 87 89  1  0
 88 86  2  0
 91 92  1  0
 91 66  1  0
 93 91  1  0
 95 96  1  0
 96 94  1  0
M  ISO  4  15 101  16 101  57 100  58 100
M  END
>  <TORSDO>  (61) 
F 26

>  <SCORE>  (61) 
-11.321

>  <name>  (61) 
62

>  <ligand_id>  (61) 
62

>  <original_smiles>  (61) 
[H]OC1([H])C([H])([H])N(OC(=O)N2C([H])([H])C([H])([H])C([H])([H])C([H])(n3nc(-c4c([H])c([H])c(Oc5c([H])c([H])c(F)c([H])c5F)c([H])c4[H])c(C(=O)N([H])[H])c3N([H])[H])C2([H])[H])C([H])(C([H])([H])OC([H])([H])[H])C([H])(C([H])([H])OC([H])([H])C([H])([H])C([H])([H])Oc2c([H])c([H])c3c(c2[H])C([H])([H])N(C(=O)C([H])(N([H])C(=O)C([H])(N([H])C([H])([H])[H])C([H])([H])[H])C(C([H])([H])[H])(C([H])([H])[H])C([H])([H])[H])C([H])(C(=O)N([H])C2([H])c4c([H])c([H])c([H])c([H])c4C([H])([H])C([H])([H])C2([H])[H])C3([H])[H])C1([H])O[H]

>  <smiles>  (61) 
[H]OC1([H])C([H])([H])N(OC(=O)N2C([H])([H])C([H])([H])C([H])([H])C([H])(n3nc(-c4c([H])c([H])c(Oc5c([H])c([H])c(F)c([H])c5F)c([H])c4[H])c(C(=O)N([H])[H])c3N([H])[H])C2([H])[H])C([H])(C([H])([H])OC([H])([H])[H])C([H])(C([H])([H])OC([H])([H])C([H])([H])C([H])([H])Oc2c([H])c([H])c3c(c2[H])C([H])([H])N(C(=O)C([H])(N([H])C(=O)C([H])(N([H])C([H])([H])[H])C([H])([H])[H])C(C([H])([H])[H])(C([H])([H])[H])C([H])([H])[H])C([H])(C(=O)N([H])C2([H])c4c([H])c([H])c([H])c([H])c4C([H])([H])C([H])([H])C2([H])[H])C3([H])[H])C1([H])O[H]

$$$$
63:0:0
     RDKit          3D

114121  0  0  1  0  0  0  0  0999 V2000
  -26.7100  -22.7460   20.2290 C   0  0  0  0  0  3  0  0  0  0  0  0
  -25.0380  -23.2880   18.5140 C   0  0  0  0  0  0  0  0  0  0  0  0
  -24.4110  -22.7040   17.4930 N   0  0  0  0  0  0  0  0  0  0  0  0
  -25.5970  -22.4110   19.3430 N   0  0  0  0  0  0  0  0  0  0  0  0
  -25.1920  -24.5080   18.6020 O   0  0  0  0  0  0  0  0  0  0  0  0
  -24.3100  -21.6970   17.4870 H   0  0  0  0  0  0  0  0  0  0  0  0
  -25.4070  -21.4270   19.2400 H   0  0  0  0  0  0  0  0  0  0  0  0
  -24.1120  -23.3930   16.2370 C   0  0  0  0  0  2  0  0  0  0  0  0
  -25.3480  -24.1570   15.7150 C   0  0  0  0  0  2  0  0  0  0  0  0
  -26.4920  -23.3170   15.8160 O   0  0  0  0  0  0  0  0  0  0  0  0
  -27.7060  -24.0290   15.6040 C   0  0  0  0  0  2  0  0  0  0  0  0
  -28.8490  -23.0590   15.2680 C   0  0  0  0  0  2  0  0  0  0  0  0
  -29.3680  -22.4800   16.4580 O   0  0  0  0  0  0  0  0  0  0  0  0
  -30.6320  -21.8610   16.2480 C   0  0  0  0  0  2  0  0  0  0  0  0
  -31.2110  -21.3730   17.5820 C   0  0  0  0  0  2  0  0  0  0  0  0
  -30.6560  -20.1040   17.9000 O   0  0  0  0  0  0  0  0  0  0  0  0
  -31.3060  -19.4730   18.9930 C   0  0  0  0  0  2  0  0  0  0  0  0
  -30.5210  -18.2050   19.3430 C   0  0  0  0  0  2  0  0  0  0  0  0
  -31.1200  -17.4320   20.5320 C   0  0  0  0  0  2  0  0  0  0  0  0
  -31.1510  -15.0860   19.7690 C   0  0  0  0  0  0  0  0  0  0  0  0
  -30.8490  -12.8230   18.8540 C   0  0  0  0  0  2  0  0  0  0  0  0
  -29.8440  -12.8390   17.6870 C   0  0  0  0  0  2  0  0  0  0  0  0
  -28.4020  -12.6940   18.2080 C   0  0  0  0  0  2  0  0  0  0  0  0
  -28.0850  -13.6760   19.3680 C   0  0  0  0  0  3  0  0  0  0  0  0
  -29.1950  -13.6410   20.4420 C   0  0  0  0  0  2  0  0  0  0  0  0
  -30.4890  -13.9020   19.7850 N   0  0  0  0  0  0  0  0  0  0  0  0
  -32.1440  -15.2970   19.0650 O   0  0  0  0  0  0  0  0  0  0  0  0
  -30.6440  -16.0500   20.5460 N   0  0  0  0  0  0  0  0  0  0  0  0
  -29.8410  -15.8230   21.1140 H   0  0  0  0  0  0  0  0  0  0  0  0
  -25.7670  -14.2930   20.3100 C   0  0  0  0  0  0  0  0  0  0  0  0
  -24.7160  -13.5220   20.7280 C   0  0  0  0  0  0  0  0  0  0  0  0
  -25.1390  -12.1650   20.5820 C   0  0  0  0  0  0  0  0  0  0  0  0
  -26.7690  -13.4060   19.9430 N   0  0  0  0  0  0  0  0  0  0  0  0
  -26.3950  -12.1170   20.1600 N   0  0  0  0  0  0  0  0  0  0  0  0
  -24.4000  -10.9080   20.7670 C   0  0  0  0  0  0  0  0  0  0  0  0
  -24.8330   -9.9230   21.6820 C   0  0  0  0  0  3  0  0  0  0  0  0
  -24.0950   -8.7320   21.8540 C   0  0  0  0  0  3  0  0  0  0  0  0
  -22.9110   -8.5170   21.1100 C   0  0  0  0  0  0  0  0  0  0  0  0
  -22.4970   -9.4910   20.1840 C   0  0  0  0  0  3  0  0  0  0  0  0
  -23.2340  -10.6740   20.0110 C   0  0  0  0  0  3  0  0  0  0  0  0
  -22.1450   -7.3800   21.1920 O   0  0  0  0  0  0  0  0  0  0  0  0
  -21.9780   -6.7070   22.3760 C   0  0  0  0  0  0  0  0  0  0  0  0
  -21.4430   -7.3360   23.5220 C   0  0  0  0  0  3  0  0  0  0  0  0
  -21.2260   -6.5890   24.6970 C   0  0  0  0  0  3  0  0  0  0  0  0
  -21.5320   -5.2160   24.7270 C   0  0  0  0  0  0  0  0  0  0  0  0
  -22.0620   -4.5880   23.5860 C   0  0  0  0  0  3  0  0  0  0  0  0
  -22.2810   -5.3300   22.4120 C   0  0  0  0  0  0  0  0  0  0  0  0
  -22.7690   -4.7150   21.3090 F   0  0  0  0  0  0  0  0  0  0  0  0
  -21.3160   -4.4970   25.8540 F   0  0  0  0  0  0  0  0  0  0  0  0
  -23.3610  -14.0100   21.1510 C   0  0  0  0  0  0  0  0  0  0  0  0
  -22.7010  -13.2880   22.0500 N   0  0  0  0  0  0  0  0  0  0  0  0
  -22.8980  -15.0650   20.7180 O   0  0  0  0  0  0  0  0  0  0  0  0
  -23.0890  -12.4320   22.4190 H   0  0  0  0  0  0  0  0  0  0  0  0
  -21.7970  -13.5960   22.3760 H   0  0  0  0  0  0  0  0  0  0  0  0
  -25.9530  -15.6660   20.1940 N   0  0  0  0  0  0  0  0  0  0  0  0
  -25.2210  -16.3330   20.4110 H   0  0  0  0  0  0  0  0  0  0  0  0
  -26.7900  -16.1000   19.8280 H   0  0  0  0  0  0  0  0  0  0  0  0
  -28.8520  -21.8080   21.2710 C   0  0  0  0  0  1  0  0  0  0  0  0
  -26.9090  -20.2590   20.9800 C   0  0  0  0  0  1  0  0  0  0  0  0
  -28.1980  -21.1260   18.9990 C   0  0  0  0  0  1  0  0  0  0  0  0
  -27.6320  -21.4920   20.3850 C   0  0  1  0  0  0  0  0  0  0  0  0
  -26.1960  -23.3150   21.5690 C   0  0  0  0  0  0  0  0  0  0  0  0
  -26.7280  -24.4810   21.9420 N   0  0  0  0  0  0  0  0  0  0  0  0
  -25.3480  -22.7220   22.2400 O   0  0  0  0  0  0  0  0  0  0  0  0
  -27.3980  -24.9260   21.3250 H   0  0  0  0  0  0  0  0  0  0  0  0
  -26.4680  -25.2090   23.1750 C   0  0  0  0  0  2  0  0  0  0  0  0
  -27.5350  -26.3030   23.3170 C   0  0  0  0  0  2  0  0  0  0  0  0
  -27.7950  -26.8480   22.0230 O   0  0  0  0  0  0  0  0  0  0  0  0
  -29.0120  -27.5770   21.9460 C   0  0  0  0  0  2  0  0  0  0  0  0
  -29.3630  -27.8390   20.4700 C   0  0  0  0  0  2  0  0  0  0  0  0
  -29.6550  -26.5980   19.8270 O   0  0  0  0  0  0  0  0  0  0  0  0
  -30.1810  -26.7220   18.5060 C   0  0  0  0  0  2  0  0  0  0  0  0
  -29.1640  -26.3280   17.4150 C   0  0  0  0  0  2  0  0  0  0  0  0
  -28.5820  -27.4920   16.8230 O   0  0  0  0  0  0  0  0  0  0  0  0
  -24.8590  -30.2820   22.1880 C   0  0  0  0  0  0  0  0  0  0  0  0
  -27.3440  -27.8200   17.3130 C   0  0  0  0  0  0  0  0  0  0  0  0
  -23.5490  -29.0900   20.4600 C   0  0  0  0  0  3  0  0  0  0  0  0
  -24.8040  -28.4990   18.3240 C   0  0  0  0  0  0  0  0  0  0  0  0
  -25.7640  -30.2230   19.8680 C   0  0  0  0  0  2  0  0  0  0  0  0
  -25.9440  -29.1640   18.7960 C   0  0  0  0  0  0  0  0  0  0  0  0
  -27.2170  -28.8310   18.2870 C   0  0  0  0  0  3  0  0  0  0  0  0
  -26.1890  -27.1690   16.8330 C   0  0  0  0  0  3  0  0  0  0  0  0
  -24.9180  -27.5050   17.3360 C   0  0  0  0  0  3  0  0  0  0  0  0
  -23.4790  -28.9060   18.9200 C   0  0  0  0  0  2  0  0  0  0  0  0
  -24.7570  -29.8680   20.8930 N   0  0  0  0  0  0  0  0  0  0  0  0
  -23.9500  -30.0710   23.0030 O   0  0  0  0  0  0  0  0  0  0  0  0
  -23.4400  -27.7020   21.1300 C   0  0  0  0  0  0  0  0  0  0  0  0
  -22.2630  -27.0680   21.0040 N   0  0  0  0  0  0  0  0  0  0  0  0
  -24.4070  -27.2060   21.7160 O   0  0  0  0  0  0  0  0  0  0  0  0
  -21.5190  -27.5500   20.5190 H   0  0  0  0  0  0  0  0  0  0  0  0
  -19.7380  -24.4810   20.9830 C   0  0  0  0  0  0  0  0  0  0  0  0
  -21.9350  -25.7360   21.5150 C   0  0  0  0  0  3  0  0  0  0  0  0
  -22.6430  -24.6320   20.6960 C   0  0  0  0  0  2  0  0  0  0  0  0
  -21.7850  -24.0860   19.5490 C   0  0  0  0  0  2  0  0  0  0  0  0
  -20.4770  -23.4990   20.0900 C   0  0  0  0  0  2  0  0  0  0  0  0
  -20.4210  -25.5410   21.6360 C   0  0  0  0  0  0  0  0  0  0  0  0
  -19.6790  -26.4470   22.4240 C   0  0  0  0  0  3  0  0  0  0  0  0
  -18.2870  -26.3040   22.5690 C   0  0  0  0  0  3  0  0  0  0  0  0
  -17.6200  -25.2390   21.9360 C   0  0  0  0  0  3  0  0  0  0  0  0
  -18.3460  -24.3310   21.1450 C   0  0  0  0  0  3  0  0  0  0  0  0
  -26.1100  -31.0650   22.6980 C   0  0  0  0  0  3  0  0  0  0  0  0
  -25.6290  -32.2100   23.4800 N   0  0  0  0  0  0  0  0  0  0  0  0
  -25.6560  -33.4820   23.0600 C   0  0  0  0  0  0  0  0  0  0  0  0
  -26.1710  -33.8250   21.9900 O   0  0  0  0  0  0  0  0  0  0  0  0
  -25.1490  -31.9970   24.3420 H   0  0  0  0  0  0  0  0  0  0  0  0
  -23.6500  -34.9550   23.4080 C   0  0  0  0  0  1  0  0  0  0  0  0
  -25.0170  -34.5460   23.9720 C   0  0  0  0  0  3  0  0  0  0  0  0
  -27.0700  -35.4920   24.9280 C   0  0  0  0  0  1  0  0  0  0  0  0
  -25.8570  -35.7490   24.1580 N   0  0  0  0  0  0  0  0  0  0  0  0
  -25.3370  -36.4860   24.6260 H   0  0  0  0  0  0  0  0  0  0  0  0
  -27.0950  -30.1750   23.5520 C   0  0  1  0  0  0  0  0  0  0  0  0
  -26.4000  -29.3670   24.6750 C   0  0  0  0  0  1  0  0  0  0  0  0
  -27.8470  -29.1700   22.6450 C   0  0  0  0  0  1  0  0  0  0  0  0
  -28.1720  -31.0730   24.2120 C   0  0  0  0  0  1  0  0  0  0  0  0
  1 61  1  0
  1 62  1  0
  2  5  2  0
  2  4  1  0
  3  2  1  0
  4  1  1  0
  6  3  1  0
  7  4  1  0
  8  3  1  0
  9 10  1  0
  9  8  1  0
 11 10  1  0
 12 11  1  0
 12 13  1  0
 14 13  1  0
 14 15  1  0
 15 16  1  0
 16 17  1  0
 17 18  1  0
 18 19  1  0
 19 28  1  0
 20 26  1  0
 20 28  1  0
 21 26  1  0
 22 23  1  0
 22 21  1  0
 24 23  1  0
 24 33  1  0
 24 25  1  0
 26 25  1  0
 27 20  2  0
 28 29  1  0
 30 31  2  0
 31 50  1  0
 32 31  1  0
 32 35  1  0
 33 34  1  0
 33 30  1  0
 34 32  2  0
 35 36  1  0
 36 37  2  0
 38 41  1  0
 38 37  1  0
 39 38  2  0
 40 39  1  0
 40 35  2  0
 41 42  1  0
 42 47  2  0
 42 43  1  0
 43 44  2  0
 44 45  1  0
 45 49  1  0
 46 45  2  0
 47 46  1  0
 48 47  1  0
 50 51  1  0
 51 54  1  0
 51 53  1  0
 52 50  2  0
 55 30  1  0
 55 56  1  0
 57 55  1  0
 61 60  1  6
 61 59  1  0
 61 58  1  0
 62 63  1  0
 62 64  2  0
 63 66  1  0
 65 63  1  0
 66 67  1  0
 68 67  1  0
 69 68  1  0
 70 69  1  0
 71 70  1  0
 72 71  1  0
 73 72  1  0
 74 76  1  0
 74 73  1  0
 75 86  2  0
 76 81  1  0
 77 85  1  0
 77 87  1  0
 78 80  1  0
 78 84  1  0
 79 85  1  0
 80 79  1  0
 81 80  2  0
 82 76  2  0
 82 83  1  0
 83 78  2  0
 84 77  1  0
 85 75  1  0
 87 89  2  0
 88 87  1  0
 90 88  1  0
 91100  2  0
 91 96  1  0
 92 88  1  0
 92 96  1  0
 93 92  1  0
 94 95  1  0
 94 93  1  0
 95 91  1  0
 96 97  2  0
 97 98  1  0
 99 98  2  0
100 99  1  0
101 75  1  0
101102  1  0
101111  1  0
102105  1  0
103102  1  0
103107  1  0
104103  2  0
107106  1  0
107109  1  0
109110  1  0
109108  1  0
111114  1  1
111112  1  0
113111  1  0
M  ISO  4  20 100  28 100  73 101  74 101
M  END
>  <TORSDO>  (62) 
F 39

>  <SCORE>  (62) 
-1.727

>  <name>  (62) 
63

>  <ligand_id>  (62) 
63

>  <original_smiles>  (62) 
[H]c1c([H])c([H])c2c(c1[H])C([H])([H])C([H])([H])C([H])([H])C2([H])N([H])C(=O)C1([H])N(C(=O)C([H])(N([H])C(=O)C([H])(N([H])C([H])([H])[H])C([H])([H])[H])C(C([H])([H])[H])(C([H])([H])[H])C([H])([H])[H])C([H])([H])c2c([H])c(OC([H])([H])C([H])([H])OC([H])([H])C([H])([H])OC([H])([H])C([H])([H])N([H])C(=O)C([H])(N([H])C(=O)N([H])C([H])([H])C([H])([H])OC([H])([H])C([H])([H])OC([H])([H])C([H])([H])OC([H])([H])C([H])([H])C([H])([H])N([H])C(=O)N3C([H])([H])C([H])([H])C([H])([H])C([H])(n4nc(-c5c([H])c([H])c(Oc6c([H])c([H])c(F)c([H])c6F)c([H])c5[H])c(C(=O)N([H])[H])c4N([H])[H])C3([H])[H])C(C([H])([H])[H])(C([H])([H])[H])C([H])([H])[H])c([H])c([H])c2C1([H])[H]

>  <smiles>  (62) 
[H]c1c([H])c([H])c2c(c1[H])C([H])([H])C([H])([H])C([H])([H])C2([H])N([H])C(=O)C1([H])N(C(=O)C([H])(N([H])C(=O)C([H])(N([H])C([H])([H])[H])C([H])([H])[H])C(C([H])([H])[H])(C([H])([H])[H])C([H])([H])[H])C([H])([H])c2c([H])c(OC([H])([H])C([H])([H])OC([H])([H])C([H])([H])OC([H])([H])C([H])([H])N([H])C(=O)C([H])(N([H])C(=O)N([H])C([H])([H])C([H])([H])OC([H])([H])C([H])([H])OC([H])([H])C([H])([H])OC([H])([H])C([H])([H])C([H])([H])N([H])C(=O)N3C([H])([H])C([H])([H])C([H])([H])C([H])(n4nc(-c5c([H])c([H])c(Oc6c([H])c([H])c(F)c([H])c6F)c([H])c5[H])c(C(=O)N([H])[H])c4N([H])[H])C3([H])[H])C(C([H])([H])[H])(C([H])([H])[H])C([H])([H])[H])c([H])c([H])c2C1([H])[H]

$$$$
64:0:0
     RDKit          3D

 97104  0  0  1  0  0  0  0  0999 V2000
  -32.8200  -19.4300   21.2080 C   0  0  0  0  0  2  0  0  0  0  0  0
  -30.9810  -17.7210   21.0480 C   0  0  0  0  0  0  0  0  0  0  0  0
  -31.8800  -18.5540   20.5040 N   0  0  0  0  0  0  0  0  0  0  0  0
  -30.8850  -17.5480   22.2660 O   0  0  0  0  0  0  0  0  0  0  0  0
  -31.9250  -18.5820   19.4950 H   0  0  0  0  0  0  0  0  0  0  0  0
  -30.0390  -16.9850   20.0600 C   0  0  0  0  0  3  0  0  0  0  0  0
  -30.5880  -14.5790   20.4450 C   0  0  0  0  0  0  0  0  0  0  0  0
  -30.3420  -12.4180   19.3360 C   0  0  0  0  0  2  0  0  0  0  0  0
  -29.4020  -12.6810   18.1400 C   0  0  0  0  0  2  0  0  0  0  0  0
  -27.9230  -12.5330   18.5540 C   0  0  0  0  0  2  0  0  0  0  0  0
  -27.5840  -13.3100   19.8550 C   0  0  0  0  0  3  0  0  0  0  0  0
  -28.6450  -13.0620   20.9500 C   0  0  0  0  0  2  0  0  0  0  0  0
  -29.9640  -13.3780   20.3810 N   0  0  0  0  0  0  0  0  0  0  0  0
  -31.7640  -14.7540   20.1170 O   0  0  0  0  0  0  0  0  0  0  0  0
  -29.7500  -15.6200   20.5310 N   0  0  0  0  0  0  0  0  0  0  0  0
  -28.7830  -15.4490   20.7560 H   0  0  0  0  0  0  0  0  0  0  0  0
  -25.1750  -13.8990   20.5410 C   0  0  0  0  0  0  0  0  0  0  0  0
  -24.1110  -13.1150   20.8950 C   0  0  0  0  0  0  0  0  0  0  0  0
  -24.5890  -11.7690   20.8770 C   0  0  0  0  0  0  0  0  0  0  0  0
  -26.2330  -13.0270   20.3250 N   0  0  0  0  0  0  0  0  0  0  0  0
  -25.8800  -11.7410   20.5810 N   0  0  0  0  0  0  0  0  0  0  0  0
  -23.8770  -10.4990   21.0680 C   0  0  0  0  0  0  0  0  0  0  0  0
  -24.3250   -9.5320   21.9950 C   0  0  0  0  0  3  0  0  0  0  0  0
  -23.6130   -8.3280   22.1720 C   0  0  0  0  0  3  0  0  0  0  0  0
  -22.4370   -8.0820   21.4240 C   0  0  0  0  0  0  0  0  0  0  0  0
  -22.0100   -9.0360   20.4840 C   0  0  0  0  0  3  0  0  0  0  0  0
  -22.7240  -10.2320   20.3030 C   0  0  0  0  0  3  0  0  0  0  0  0
  -21.6950   -6.9300   21.5120 O   0  0  0  0  0  0  0  0  0  0  0  0
  -21.6700   -6.1720   22.6560 C   0  0  0  0  0  0  0  0  0  0  0  0
  -21.2710   -6.7120   23.8980 C   0  0  0  0  0  3  0  0  0  0  0  0
  -21.1900   -5.8800   25.0330 C   0  0  0  0  0  3  0  0  0  0  0  0
  -21.5050   -4.5120   24.9280 C   0  0  0  0  0  0  0  0  0  0  0  0
  -21.8980   -3.9720   23.6910 C   0  0  0  0  0  3  0  0  0  0  0  0
  -21.9780   -4.8000   22.5580 C   0  0  0  0  0  0  0  0  0  0  0  0
  -22.3380   -4.2710   21.3620 F   0  0  0  0  0  0  0  0  0  0  0  0
  -21.4200   -3.7130   26.0160 F   0  0  0  0  0  0  0  0  0  0  0  0
  -22.7060  -13.5760   21.1590 C   0  0  0  0  0  0  0  0  0  0  0  0
  -21.9850  -12.8720   22.0230 N   0  0  0  0  0  0  0  0  0  0  0  0
  -22.2580  -14.5940   20.6340 O   0  0  0  0  0  0  0  0  0  0  0  0
  -22.3620  -12.0460   22.4650 H   0  0  0  0  0  0  0  0  0  0  0  0
  -21.0420  -13.1610   22.2440 H   0  0  0  0  0  0  0  0  0  0  0  0
  -25.3220  -15.2750   20.3680 N   0  0  0  0  0  0  0  0  0  0  0  0
  -24.5460  -15.9120   20.5060 H   0  0  0  0  0  0  0  0  0  0  0  0
  -26.1920  -15.7750   20.2010 H   0  0  0  0  0  0  0  0  0  0  0  0
  -28.7690  -19.2580   19.7150 C   0  0  0  0  0  1  0  0  0  0  0  0
  -27.9920  -17.2310   18.5210 C   0  0  0  0  0  1  0  0  0  0  0  0
  -28.6640  -17.7190   19.8210 C   0  0  1  0  0  0  0  0  0  0  0  0
  -27.7490  -17.4310   20.8740 O   0  0  0  0  0  0  0  0  0  0  0  0
  -28.0990  -17.7840   21.6840 H   0  0  0  0  0  0  0  0  0  0  0  0
  -32.1340  -20.5330   22.0330 C   0  0  0  0  0  2  0  0  0  0  0  0
  -31.1990  -21.2420   21.2260 O   0  0  0  0  0  0  0  0  0  0  0  0
  -30.7720  -22.4700   21.8140 C   0  0  0  0  0  2  0  0  0  0  0  0
  -29.3110  -22.7600   21.4400 C   0  0  0  0  0  2  0  0  0  0  0  0
  -29.2480  -23.4860   20.2130 O   0  0  0  0  0  0  0  0  0  0  0  0
  -28.0690  -24.2750   20.1000 C   0  0  0  0  0  2  0  0  0  0  0  0
  -28.1940  -25.5330   20.9880 C   0  0  0  0  0  2  0  0  0  0  0  0
  -28.3690  -26.7410   20.2420 O   0  0  0  0  0  0  0  0  0  0  0  0
  -24.5920  -31.9390   23.2440 C   0  0  0  0  0  0  0  0  0  0  0  0
  -27.2270  -27.4930   20.1930 C   0  0  0  0  0  0  0  0  0  0  0  0
  -23.3910  -30.5240   21.6140 C   0  0  0  0  0  3  0  0  0  0  0  0
  -24.8410  -28.9800   20.1990 C   0  0  0  0  0  0  0  0  0  0  0  0
  -25.9160  -30.8850   21.4140 C   0  0  0  0  0  2  0  0  0  0  0  0
  -25.9990  -29.5160   20.7760 C   0  0  0  0  0  0  0  0  0  0  0  0
  -27.2020  -28.7800   20.7670 C   0  0  0  0  0  3  0  0  0  0  0  0
  -26.0530  -26.9590   19.6170 C   0  0  0  0  0  3  0  0  0  0  0  0
  -24.8590  -27.7010   19.6200 C   0  0  0  0  0  3  0  0  0  0  0  0
  -23.5970  -29.8380   20.2370 C   0  0  0  0  0  2  0  0  0  0  0  0
  -24.6530  -31.1310   22.1470 N   0  0  0  0  0  0  0  0  0  0  0  0
  -23.5110  -32.2150   23.7790 O   0  0  0  0  0  0  0  0  0  0  0  0
  -22.7400  -29.5070   22.5780 C   0  0  0  0  0  0  0  0  0  0  0  0
  -21.4160  -29.3230   22.4480 N   0  0  0  0  0  0  0  0  0  0  0  0
  -23.4230  -28.8870   23.3970 O   0  0  0  0  0  0  0  0  0  0  0  0
  -20.9250  -29.8730   21.7560 H   0  0  0  0  0  0  0  0  0  0  0  0
  -18.0410  -28.1230   22.9280 C   0  0  0  0  0  0  0  0  0  0  0  0
  -20.5960  -28.3890   23.2200 C   0  0  0  0  0  3  0  0  0  0  0  0
  -20.7080  -26.9490   22.6640 C   0  0  0  0  0  2  0  0  0  0  0  0
  -19.6170  -26.6120   21.6450 C   0  0  0  0  0  2  0  0  0  0  0  0
  -18.2290  -26.7650   22.2730 C   0  0  0  0  0  2  0  0  0  0  0  0
  -19.1540  -28.8930   23.3590 C   0  0  0  0  0  0  0  0  0  0  0  0
  -18.9310  -30.1650   23.9290 C   0  0  0  0  0  3  0  0  0  0  0  0
  -17.6230  -30.6670   24.0750 C   0  0  0  0  0  3  0  0  0  0  0  0
  -16.5240  -29.8930   23.6620 C   0  0  0  0  0  3  0  0  0  0  0  0
  -16.7330  -28.6230   23.0960 C   0  0  0  0  0  3  0  0  0  0  0  0
  -25.8770  -32.5740   23.8600 C   0  0  0  0  0  3  0  0  0  0  0  0
  -25.5670  -33.9720   24.1820 N   0  0  0  0  0  0  0  0  0  0  0  0
  -25.9010  -35.0220   23.4240 C   0  0  0  0  0  0  0  0  0  0  0  0
  -26.5770  -34.9160   22.3950 O   0  0  0  0  0  0  0  0  0  0  0  0
  -24.9720  -34.1290   24.9840 H   0  0  0  0  0  0  0  0  0  0  0  0
  -24.1720  -36.8090   23.0500 C   0  0  0  0  0  1  0  0  0  0  0  0
  -25.4070  -36.4120   23.8730 C   0  0  0  0  0  3  0  0  0  0  0  0
  -27.5330  -37.2980   24.7170 C   0  0  0  0  0  1  0  0  0  0  0  0
  -26.4360  -37.4690   23.7660 N   0  0  0  0  0  0  0  0  0  0  0  0
  -26.0280  -38.3880   23.9170 H   0  0  0  0  0  0  0  0  0  0  0  0
  -26.4010  -31.8090   25.1360 C   0  0  1  0  0  0  0  0  0  0  0  0
  -25.3130  -31.5690   26.2080 C   0  0  0  0  0  1  0  0  0  0  0  0
  -26.9920  -30.4370   24.7390 C   0  0  0  0  0  1  0  0  0  0  0  0
  -27.5510  -32.6100   25.7920 C   0  0  0  0  0  1  0  0  0  0  0  0
  1 50  1  0
  2  4  2  0
  3  2  1  0
  3  1  1  0
  5  3  1  0
  6 15  1  0
  6  2  1  0
  7 15  1  0
  8 13  1  0
  9 10  1  0
  9  8  1  0
 11 10  1  0
 11 20  1  0
 11 12  1  0
 13  7  1  0
 13 12  1  0
 14  7  2  0
 15 16  1  0
 17 18  2  0
 18 37  1  0
 19 18  1  0
 19 22  1  0
 20 17  1  0
 20 21  1  0
 21 19  2  0
 22 23  1  0
 23 24  2  0
 25 28  1  0
 25 24  1  0
 26 25  2  0
 27 26  1  0
 27 22  2  0
 28 29  1  0
 29 30  1  0
 30 31  2  0
 32 31  1  0
 32 36  1  0
 33 32  2  0
 34 29  2  0
 34 33  1  0
 35 34  1  0
 37 38  1  0
 38 41  1  0
 38 40  1  0
 39 37  2  0
 42 43  1  0
 42 17  1  0
 44 42  1  0
 47 45  1  6
 46 47  1  0
 47  6  1  0
 47 48  1  0
 48 49  1  0
 51 52  1  0
 51 50  1  0
 53 52  1  0
 54 53  1  0
 55 54  1  0
 55 56  1  0
 57 56  1  0
 58 69  2  0
 59 57  1  0
 59 64  1  0
 60 68  1  0
 60 70  1  0
 61 67  1  0
 61 63  1  0
 62 68  1  0
 63 62  1  0
 64 63  2  0
 65 66  1  0
 65 59  2  0
 66 61  2  0
 67 60  1  0
 68 58  1  0
 70 72  2  0
 71 70  1  0
 73 71  1  0
 74 83  2  0
 74 79  1  0
 75 71  1  0
 75 79  1  0
 76 75  1  0
 77 78  1  0
 77 76  1  0
 78 74  1  0
 79 80  2  0
 80 81  1  0
 82 81  2  0
 83 82  1  0
 84 58  1  0
 84 85  1  0
 84 94  1  0
 85 88  1  0
 86 90  1  0
 86 85  1  0
 87 86  2  0
 90 89  1  0
 92 90  1  0
 92 93  1  0
 92 91  1  0
 94 97  1  1
 94 95  1  0
 96 94  1  0
M  ISO  4   7 100  15 100  56 101  57 101
M  END
>  <TORSDO>  (63) 
F 27

>  <SCORE>  (63) 
-12.309

>  <name>  (63) 
64

>  <ligand_id>  (63) 
64

>  <original_smiles>  (63) 
[H]OC(C([H])([H])[H])(C([H])([H])[H])C([H])(C(=O)N([H])C([H])([H])C([H])([H])OC([H])([H])C([H])([H])OC([H])([H])C([H])([H])Oc1c([H])c([H])c2c(c1[H])C([H])([H])N(C(=O)C([H])(N([H])C(=O)C([H])(N([H])C([H])([H])[H])C([H])([H])[H])C(C([H])([H])[H])(C([H])([H])[H])C([H])([H])[H])C([H])(C(=O)N([H])C1([H])c3c([H])c([H])c([H])c([H])c3C([H])([H])C([H])([H])C1([H])[H])C2([H])[H])N([H])C(=O)N1C([H])([H])C([H])([H])C([H])([H])C([H])(n2nc(-c3c([H])c([H])c(Oc4c([H])c([H])c(F)c([H])c4F)c([H])c3[H])c(C(=O)N([H])[H])c2N([H])[H])C1([H])[H]

>  <smiles>  (63) 
[H]OC(C([H])([H])[H])(C([H])([H])[H])C([H])(C(=O)N([H])C([H])([H])C([H])([H])OC([H])([H])C([H])([H])OC([H])([H])C([H])([H])Oc1c([H])c([H])c2c(c1[H])C([H])([H])N(C(=O)C([H])(N([H])C(=O)C([H])(N([H])C([H])([H])[H])C([H])([H])[H])C(C([H])([H])[H])(C([H])([H])[H])C([H])([H])[H])C([H])(C(=O)N([H])C1([H])c3c([H])c([H])c([H])c([H])c3C([H])([H])C([H])([H])C1([H])[H])C2([H])[H])N([H])C(=O)N1C([H])([H])C([H])([H])C([H])([H])C([H])(n2nc(-c3c([H])c([H])c(Oc4c([H])c([H])c(F)c([H])c4F)c([H])c3[H])c(C(=O)N([H])[H])c2N([H])[H])C1([H])[H]

$$$$
65:0:0
     RDKit          3D

100107  0  0  1  0  0  0  0  0999 V2000
  -31.5470  -26.2660   18.0950 C   0  0  0  0  0  0  0  0  0  0  0  0
  -32.0210  -25.1050   18.5530 N   0  0  0  0  0  0  0  0  0  0  0  0
  -32.2410  -27.0730   17.4730 O   0  0  0  0  0  0  0  0  0  0  0  0
  -31.4000  -24.4990   19.0740 H   0  0  0  0  0  0  0  0  0  0  0  0
  -30.0570  -26.5490   18.3380 C   0  0  0  0  0  3  0  0  0  0  0  0
  -29.5120  -27.3900   17.2540 N   0  0  0  0  0  4  0  0  0  0  0  0
  -30.0260  -28.2520   17.1940 H   0  0  0  0  0  0  0  0  0  0  0  0
  -28.5350  -27.5850   17.3860 H   0  0  0  0  0  0  0  0  0  0  0  0
  -29.6300  -26.9120   16.3780 H   0  0  0  0  0  0  0  0  0  0  0  0
  -29.7840  -27.1540   19.7390 C   0  0  0  0  0  2  0  0  0  0  0  0
  -28.5770  -26.5650   20.2290 O   0  0  0  0  0  0  0  0  0  0  0  0
  -24.8650  -31.7850   23.3770 C   0  0  0  0  0  0  0  0  0  0  0  0
  -27.4510  -27.3490   20.2650 C   0  0  0  0  0  0  0  0  0  0  0  0
  -23.6360  -30.4210   21.7160 C   0  0  0  0  0  3  0  0  0  0  0  0
  -25.0670  -28.8590   20.2980 C   0  0  0  0  0  0  0  0  0  0  0  0
  -26.1670  -30.7400   21.5290 C   0  0  0  0  0  2  0  0  0  0  0  0
  -26.2300  -29.3730   20.8840 C   0  0  0  0  0  0  0  0  0  0  0  0
  -27.4250  -28.6250   20.8700 C   0  0  0  0  0  3  0  0  0  0  0  0
  -26.2660  -26.8250   19.7110 C   0  0  0  0  0  3  0  0  0  0  0  0
  -25.0760  -27.5810   19.7140 C   0  0  0  0  0  3  0  0  0  0  0  0
  -23.8380  -29.7390   20.3380 C   0  0  0  0  0  2  0  0  0  0  0  0
  -24.9090  -30.9930   22.2680 N   0  0  0  0  0  0  0  0  0  0  0  0
  -23.7870  -32.0760   23.9130 O   0  0  0  0  0  0  0  0  0  0  0  0
  -22.9560  -29.4110   22.6670 C   0  0  0  0  0  0  0  0  0  0  0  0
  -21.6320  -29.2490   22.5190 N   0  0  0  0  0  0  0  0  0  0  0  0
  -23.6170  -28.7750   23.4920 O   0  0  0  0  0  0  0  0  0  0  0  0
  -21.1580  -29.8110   21.8240 H   0  0  0  0  0  0  0  0  0  0  0  0
  -18.2390  -28.0880   22.9440 C   0  0  0  0  0  0  0  0  0  0  0  0
  -20.7900  -28.3230   23.2750 C   0  0  0  0  0  3  0  0  0  0  0  0
  -20.8920  -26.8870   22.7090 C   0  0  0  0  0  2  0  0  0  0  0  0
  -19.8120  -26.5670   21.6710 C   0  0  0  0  0  2  0  0  0  0  0  0
  -18.4180  -26.7320   22.2810 C   0  0  0  0  0  2  0  0  0  0  0  0
  -19.3540  -28.8430   23.3960 C   0  0  0  0  0  0  0  0  0  0  0  0
  -19.1360  -30.1160   23.9680 C   0  0  0  0  0  3  0  0  0  0  0  0
  -17.8340  -30.6320   24.0990 C   0  0  0  0  0  3  0  0  0  0  0  0
  -16.7320  -29.8740   23.6680 C   0  0  0  0  0  3  0  0  0  0  0  0
  -16.9330  -28.6050   23.0950 C   0  0  0  0  0  3  0  0  0  0  0  0
  -26.1620  -32.3810   24.0090 C   0  0  0  0  0  3  0  0  0  0  0  0
  -25.8770  -33.7720   24.3860 N   0  0  0  0  0  0  0  0  0  0  0  0
  -26.2130  -34.8410   23.6520 C   0  0  0  0  0  0  0  0  0  0  0  0
  -26.8690  -34.7600   22.6100 O   0  0  0  0  0  0  0  0  0  0  0  0
  -25.2960  -33.9130   25.2010 H   0  0  0  0  0  0  0  0  0  0  0  0
  -24.4960  -36.6560   23.3770 C   0  0  0  0  0  1  0  0  0  0  0  0
  -25.7480  -36.2200   24.1550 C   0  0  0  0  0  3  0  0  0  0  0  0
  -27.9070  -37.0570   24.9700 C   0  0  0  0  0  1  0  0  0  0  0  0
  -26.7880  -37.2650   24.0530 N   0  0  0  0  0  0  0  0  0  0  0  0
  -26.3950  -38.1860   24.2360 H   0  0  0  0  0  0  0  0  0  0  0  0
  -26.6810  -31.5600   25.2510 C   0  0  1  0  0  0  0  0  0  0  0  0
  -25.5960  -31.2830   26.3180 C   0  0  0  0  0  1  0  0  0  0  0  0
  -27.2580  -30.2000   24.7990 C   0  0  0  0  0  1  0  0  0  0  0  0
  -27.8430  -32.3220   25.9340 C   0  0  0  0  0  1  0  0  0  0  0  0
  -33.3630  -24.5620   18.3720 C   0  0  0  0  0  2  0  0  0  0  0  0
  -33.7680  -23.7930   19.6380 C   0  0  0  0  0  2  0  0  0  0  0  0
  -32.6570  -23.0160   20.0850 O   0  0  0  0  0  0  0  0  0  0  0  0
  -32.5340  -22.9700   21.5040 C   0  0  0  0  0  2  0  0  0  0  0  0
  -31.2440  -22.2310   21.8860 C   0  0  0  0  0  2  0  0  0  0  0  0
  -31.5000  -20.8520   22.1150 O   0  0  0  0  0  0  0  0  0  0  0  0
  -30.3320  -20.1750   22.5660 C   0  0  0  0  0  2  0  0  0  0  0  0
  -30.6800  -18.7660   23.0600 C   0  0  0  0  0  2  0  0  0  0  0  0
  -31.1160  -17.9650   21.9700 O   0  0  0  0  0  0  0  0  0  0  0  0
  -30.9630  -16.5790   22.2280 C   0  0  0  0  0  2  0  0  0  0  0  0
  -31.5890  -15.7840   21.0780 C   0  0  0  0  0  2  0  0  0  0  0  0
  -31.4120  -13.5120   20.1340 C   0  0  0  0  0  0  0  0  0  0  0  0
  -30.8020  -11.4580   18.9240 C   0  0  0  0  0  2  0  0  0  0  0  0
  -29.8570  -11.7810   17.7520 C   0  0  0  0  0  2  0  0  0  0  0  0
  -28.3880  -11.8190   18.2140 C   0  0  0  0  0  2  0  0  0  0  0  0
  -28.1860  -12.6820   19.4890 C   0  0  0  0  0  3  0  0  0  0  0  0
  -29.2300  -12.3220   20.5690 C   0  0  0  0  0  2  0  0  0  0  0  0
  -30.5750  -12.4540   19.9800 N   0  0  0  0  0  0  0  0  0  0  0  0
  -32.4750  -13.6400   19.5250 O   0  0  0  0  0  0  0  0  0  0  0  0
  -30.9800  -14.4670   20.9600 N   0  0  0  0  0  0  0  0  0  0  0  0
  -30.1050  -14.3040   21.4370 H   0  0  0  0  0  0  0  0  0  0  0  0
  -25.8770  -13.5620   20.2220 C   0  0  0  0  0  0  0  0  0  0  0  0
  -24.7410  -12.9170   20.6340 C   0  0  0  0  0  0  0  0  0  0  0  0
  -25.0550  -11.5230   20.6300 C   0  0  0  0  0  0  0  0  0  0  0  0
  -26.8190  -12.5690   19.9990 N   0  0  0  0  0  0  0  0  0  0  0  0
  -26.3280  -11.3390   20.3000 N   0  0  0  0  0  0  0  0  0  0  0  0
  -24.2030  -10.3520   20.8700 C   0  0  0  0  0  0  0  0  0  0  0  0
  -24.5560   -9.3630   21.8140 C   0  0  0  0  0  3  0  0  0  0  0  0
  -23.7140   -8.2530   22.0370 C   0  0  0  0  0  3  0  0  0  0  0  0
  -22.5030   -8.1250   21.3160 C   0  0  0  0  0  0  0  0  0  0  0  0
  -22.1680   -9.0990   20.3600 C   0  0  0  0  0  3  0  0  0  0  0  0
  -23.0100  -10.2010   20.1350 C   0  0  0  0  0  3  0  0  0  0  0  0
  -21.6330   -7.0700   21.4500 O   0  0  0  0  0  0  0  0  0  0  0  0
  -21.5370   -6.3620   22.6210 C   0  0  0  0  0  0  0  0  0  0  0  0
  -21.2320   -6.9850   23.8500 C   0  0  0  0  0  3  0  0  0  0  0  0
  -21.0770   -6.2080   25.0150 C   0  0  0  0  0  3  0  0  0  0  0  0
  -21.2110   -4.8070   24.9520 C   0  0  0  0  0  0  0  0  0  0  0  0
  -21.5080   -4.1840   23.7260 C   0  0  0  0  0  3  0  0  0  0  0  0
  -21.6670   -4.9590   22.5640 C   0  0  0  0  0  0  0  0  0  0  0  0
  -21.9320   -4.3510   21.3830 F   0  0  0  0  0  0  0  0  0  0  0  0
  -21.0530   -4.0580   26.0690 F   0  0  0  0  0  0  0  0  0  0  0  0
  -23.4090  -13.5480   20.9180 C   0  0  0  0  0  0  0  0  0  0  0  0
  -22.6350  -12.9620   21.8270 N   0  0  0  0  0  0  0  0  0  0  0  0
  -23.0640  -14.5920   20.3660 O   0  0  0  0  0  0  0  0  0  0  0  0
  -22.9260  -12.1200   22.2990 H   0  0  0  0  0  0  0  0  0  0  0  0
  -21.7350  -13.3650   22.0490 H   0  0  0  0  0  0  0  0  0  0  0  0
  -26.1840  -14.9010   19.9980 N   0  0  0  0  0  0  0  0  0  0  0  0
  -25.4940  -15.6410   20.0810 H   0  0  0  0  0  0  0  0  0  0  0  0
  -27.0740  -15.2300   19.6410 H   0  0  0  0  0  0  0  0  0  0  0  0
  1  5  1  0
  1  2  1  0
  2  4  1  0
  3  1  2  0
  5 10  1  0
  6  8  1  0
  6  5  1  0
  7  6  1  0
  9  6  1  0
 10 11  1  0
 11 13  1  0
 12 23  2  0
 13 18  1  0
 14 22  1  0
 14 24  1  0
 15 21  1  0
 15 17  1  0
 16 22  1  0
 17 16  1  0
 18 17  2  0
 19 20  1  0
 19 13  2  0
 20 15  2  0
 21 14  1  0
 22 12  1  0
 24 26  2  0
 25 24  1  0
 27 25  1  0
 28 37  2  0
 28 33  1  0
 29 25  1  0
 29 33  1  0
 30 29  1  0
 31 32  1  0
 31 30  1  0
 32 28  1  0
 33 34  2  0
 34 35  1  0
 36 35  2  0
 37 36  1  0
 38 12  1  0
 38 39  1  0
 38 48  1  0
 39 42  1  0
 40 44  1  0
 40 39  1  0
 41 40  2  0
 44 43  1  0
 46 44  1  0
 46 47  1  0
 46 45  1  0
 48 51  1  1
 48 49  1  0
 50 48  1  0
 52  2  1  0
 52 53  1  0
 53 54  1  0
 54 55  1  0
 55 56  1  0
 56 57  1  0
 57 58  1  0
 58 59  1  0
 60 61  1  0
 60 59  1  0
 62 61  1  0
 63 71  1  0
 64 69  1  0
 65 66  1  0
 65 64  1  0
 67 66  1  0
 67 76  1  0
 67 68  1  0
 69 63  1  0
 69 68  1  0
 70 63  2  0
 71 62  1  0
 71 72  1  0
 73 74  2  0
 74 93  1  0
 75 74  1  0
 75 78  1  0
 76 73  1  0
 76 77  1  0
 77 75  2  0
 78 79  1  0
 79 80  2  0
 81 84  1  0
 81 80  1  0
 82 81  2  0
 83 82  1  0
 83 78  2  0
 84 85  1  0
 85 86  1  0
 86 87  2  0
 88 87  1  0
 88 92  1  0
 89 88  2  0
 90 85  2  0
 90 89  1  0
 91 90  1  0
 93 94  1  0
 94 97  1  0
 94 96  1  0
 95 93  2  0
 98 99  1  0
 98 73  1  0
100 98  1  0
M  ISO  4  10 101  11 101  63 100  71 100
M  END
>  <TORSDO>  (64) 
F 30

>  <SCORE>  (64) 
-8.834

>  <name>  (64) 
65

>  <ligand_id>  (64) 
65

>  <original_smiles>  (64) 
[H]c1c([H])c([H])c2c(c1[H])C([H])([H])C([H])([H])C([H])([H])C2([H])N([H])C(=O)C1([H])N(C(=O)C([H])(N([H])C(=O)C([H])(N([H])C([H])([H])[H])C([H])([H])[H])C(C([H])([H])[H])(C([H])([H])[H])C([H])([H])[H])C([H])([H])c2c([H])c(OC([H])([H])C([H])(C(=O)N([H])C([H])([H])C([H])([H])OC([H])([H])C([H])([H])OC([H])([H])C([H])([H])OC([H])([H])C([H])([H])N([H])C(=O)N3C([H])([H])C([H])([H])C([H])([H])C([H])(n4nc(-c5c([H])c([H])c(Oc6c([H])c([H])c(F)c([H])c6F)c([H])c5[H])c(C(=O)N([H])[H])c4N([H])[H])C3([H])[H])[N+]([H])([H])[H])c([H])c([H])c2C1([H])[H]

>  <smiles>  (64) 
[H]c1c([H])c([H])c2c(c1[H])C([H])([H])C([H])([H])C([H])([H])C2([H])N([H])C(=O)C1([H])N(C(=O)C([H])(N([H])C(=O)C([H])(N([H])C([H])([H])[H])C([H])([H])[H])C(C([H])([H])[H])(C([H])([H])[H])C([H])([H])[H])C([H])([H])c2c([H])c(OC([H])([H])C([H])(C(=O)N([H])C([H])([H])C([H])([H])OC([H])([H])C([H])([H])OC([H])([H])C([H])([H])OC([H])([H])C([H])([H])N([H])C(=O)N3C([H])([H])C([H])([H])C([H])([H])C([H])(n4nc(-c5c([H])c([H])c(Oc6c([H])c([H])c(F)c([H])c6F)c([H])c5[H])c(C(=O)N([H])[H])c4N([H])[H])C3([H])[H])[N+]([H])([H])[H])c([H])c([H])c2C1([H])[H]

$$$$
66:0:0
     RDKit          3D

 98105  0  0  1  0  0  0  0  0999 V2000
  -31.3000  -24.7280   21.5380 C   0  0  0  0  0  3  0  0  0  0  0  0
  -32.0960  -23.7350   20.6500 C   0  0  0  0  0  0  0  0  0  0  0  0
  -31.7780  -22.4360   20.7610 N   0  0  0  0  0  0  0  0  0  0  0  0
  -32.9700  -24.1350   19.8790 O   0  0  0  0  0  0  0  0  0  0  0  0
  -30.9700  -22.2040   21.3270 H   0  0  0  0  0  0  0  0  0  0  0  0
  -32.4320  -21.3090   20.1010 C   0  0  0  0  0  2  0  0  0  0  0  0
  -31.3840  -20.3130   19.5880 C   0  0  0  0  0  2  0  0  0  0  0  0
  -30.4950  -19.9810   20.6500 O   0  0  0  0  0  0  0  0  0  0  0  0
  -29.3310  -19.2770   20.2240 C   0  0  0  0  0  2  0  0  0  0  0  0
  -29.5910  -17.7900   19.8990 C   0  0  0  0  0  2  0  0  0  0  0  0
  -29.9220  -16.9290   21.1390 C   0  0  0  0  0  2  0  0  0  0  0  0
  -30.3130  -14.6060   20.2250 C   0  0  0  0  0  0  0  0  0  0  0  0
  -30.0180  -12.5070   18.9660 C   0  0  0  0  0  2  0  0  0  0  0  0
  -29.0050  -12.7470   17.8290 C   0  0  0  0  0  2  0  0  0  0  0  0
  -27.5540  -12.5640   18.3250 C   0  0  0  0  0  2  0  0  0  0  0  0
  -27.2720  -13.3260   19.6470 C   0  0  0  0  0  3  0  0  0  0  0  0
  -28.3860  -13.0500   20.6790 C   0  0  0  0  0  2  0  0  0  0  0  0
  -29.6750  -13.4170   20.0660 N   0  0  0  0  0  0  0  0  0  0  0  0
  -31.3740  -14.8930   19.6650 O   0  0  0  0  0  0  0  0  0  0  0  0
  -29.6270  -15.5060   20.9430 N   0  0  0  0  0  0  0  0  0  0  0  0
  -28.7700  -15.1650   21.3500 H   0  0  0  0  0  0  0  0  0  0  0  0
  -24.8800  -13.8550   20.4440 C   0  0  0  0  0  0  0  0  0  0  0  0
  -23.8570  -13.0480   20.8660 C   0  0  0  0  0  0  0  0  0  0  0  0
  -24.3660  -11.7140   20.8250 C   0  0  0  0  0  0  0  0  0  0  0  0
  -25.9470  -13.0100   20.1780 N   0  0  0  0  0  0  0  0  0  0  0  0
  -25.6430  -11.7180   20.4620 N   0  0  0  0  0  0  0  0  0  0  0  0
  -23.6960  -10.4290   21.0570 C   0  0  0  0  0  0  0  0  0  0  0  0
  -24.1980   -9.4930   21.9890 C   0  0  0  0  0  3  0  0  0  0  0  0
  -23.5280   -8.2700   22.2090 C   0  0  0  0  0  3  0  0  0  0  0  0
  -22.3420   -7.9730   21.4950 C   0  0  0  0  0  0  0  0  0  0  0  0
  -21.8600   -8.8990   20.5530 C   0  0  0  0  0  3  0  0  0  0  0  0
  -22.5300  -10.1130   20.3320 C   0  0  0  0  0  3  0  0  0  0  0  0
  -21.6390   -6.8000   21.6230 O   0  0  0  0  0  0  0  0  0  0  0  0
  -21.6570   -6.0720   22.7860 C   0  0  0  0  0  0  0  0  0  0  0  0
  -21.2350   -6.6230   24.0160 C   0  0  0  0  0  3  0  0  0  0  0  0
  -21.2040   -5.8170   25.1730 C   0  0  0  0  0  3  0  0  0  0  0  0
  -21.5830   -4.4630   25.0990 C   0  0  0  0  0  0  0  0  0  0  0  0
  -21.9980   -3.9130   23.8740 C   0  0  0  0  0  3  0  0  0  0  0  0
  -22.0310   -4.7150   22.7200 C   0  0  0  0  0  0  0  0  0  0  0  0
  -22.4100   -4.1730   21.5380 F   0  0  0  0  0  0  0  0  0  0  0  0
  -21.5460   -3.6890   26.2070 F   0  0  0  0  0  0  0  0  0  0  0  0
  -22.4550  -13.4740   21.1950 C   0  0  0  0  0  0  0  0  0  0  0  0
  -21.7920  -12.7600   22.0970 N   0  0  0  0  0  0  0  0  0  0  0  0
  -21.9550  -14.4780   20.6880 O   0  0  0  0  0  0  0  0  0  0  0  0
  -22.2090  -11.9510   22.5320 H   0  0  0  0  0  0  0  0  0  0  0  0
  -20.8540  -13.0290   22.3620 H   0  0  0  0  0  0  0  0  0  0  0  0
  -24.9870  -15.2290   20.2500 N   0  0  0  0  0  0  0  0  0  0  0  0
  -24.2050  -15.8580   20.3990 H   0  0  0  0  0  0  0  0  0  0  0  0
  -25.8060  -15.6960   19.8800 H   0  0  0  0  0  0  0  0  0  0  0  0
  -29.0160  -24.6080   20.5300 C   0  0  0  0  0  0  0  0  0  0  0  0
  -30.1340  -25.2700   20.8410 N   0  0  0  0  0  0  0  0  0  0  0  0
  -28.8560  -23.4200   20.8150 O   0  0  0  0  0  0  0  0  0  0  0  0
  -30.1980  -26.2430   20.5770 H   0  0  0  0  0  0  0  0  0  0  0  0
  -27.9060  -25.3800   19.8050 C   0  0  0  0  0  2  0  0  0  0  0  0
  -27.9630  -26.7760   20.1330 O   0  0  0  0  0  0  0  0  0  0  0  0
  -24.4110  -32.0690   23.2540 C   0  0  0  0  0  0  0  0  0  0  0  0
  -26.7950  -27.5120   20.1270 C   0  0  0  0  0  0  0  0  0  0  0  0
  -23.1000  -30.6880   21.6760 C   0  0  0  0  0  3  0  0  0  0  0  0
  -24.4470  -29.0940   20.2140 C   0  0  0  0  0  0  0  0  0  0  0  0
  -25.6270  -30.9620   21.3830 C   0  0  0  0  0  2  0  0  0  0  0  0
  -25.6410  -29.5840   20.7540 C   0  0  0  0  0  0  0  0  0  0  0  0
  -26.8140  -28.7990   20.7130 C   0  0  0  0  0  3  0  0  0  0  0  0
  -25.5810  -27.0480   19.5630 C   0  0  0  0  0  3  0  0  0  0  0  0
  -24.4110  -27.8250   19.6170 C   0  0  0  0  0  3  0  0  0  0  0  0
  -23.2350  -29.9910   20.2960 C   0  0  0  0  0  2  0  0  0  0  0  0
  -24.4000  -31.2540   22.1600 N   0  0  0  0  0  0  0  0  0  0  0  0
  -23.3620  -32.3810   23.8310 O   0  0  0  0  0  0  0  0  0  0  0  0
  -22.4540  -29.6970   22.6710 C   0  0  0  0  0  0  0  0  0  0  0  0
  -21.1310  -29.5080   22.5540 N   0  0  0  0  0  0  0  0  0  0  0  0
  -23.1420  -29.1000   23.5030 O   0  0  0  0  0  0  0  0  0  0  0  0
  -20.6390  -30.0400   21.8500 H   0  0  0  0  0  0  0  0  0  0  0  0
  -17.7690  -28.2810   23.0440 C   0  0  0  0  0  0  0  0  0  0  0  0
  -20.3140  -28.6000   23.3580 C   0  0  0  0  0  3  0  0  0  0  0  0
  -20.4560  -27.1420   22.8640 C   0  0  0  0  0  2  0  0  0  0  0  0
  -19.3840  -26.7430   21.8470 C   0  0  0  0  0  2  0  0  0  0  0  0
  -17.9840  -26.8990   22.4500 C   0  0  0  0  0  2  0  0  0  0  0  0
  -18.8640  -29.0860   23.4540 C   0  0  0  0  0  0  0  0  0  0  0  0
  -18.6090  -30.3780   23.9640 C   0  0  0  0  0  3  0  0  0  0  0  0
  -17.2920  -30.8630   24.0740 C   0  0  0  0  0  3  0  0  0  0  0  0
  -16.2110  -30.0550   23.6800 C   0  0  0  0  0  3  0  0  0  0  0  0
  -16.4500  -28.7660   23.1700 C   0  0  0  0  0  3  0  0  0  0  0  0
  -25.7410  -32.6630   23.8130 C   0  0  0  0  0  3  0  0  0  0  0  0
  -25.4910  -34.0720   24.1410 N   0  0  0  0  0  0  0  0  0  0  0  0
  -25.8480  -35.1060   23.3660 C   0  0  0  0  0  0  0  0  0  0  0  0
  -26.4920  -34.9710   22.3230 O   0  0  0  0  0  0  0  0  0  0  0  0
  -24.9220  -34.2560   24.9540 H   0  0  0  0  0  0  0  0  0  0  0  0
  -24.1810  -36.9560   23.0250 C   0  0  0  0  0  1  0  0  0  0  0  0
  -25.4180  -36.5130   23.8220 C   0  0  0  0  0  3  0  0  0  0  0  0
  -27.5960  -37.3220   24.6170 C   0  0  0  0  0  1  0  0  0  0  0  0
  -26.4860  -37.5270   23.6880 N   0  0  0  0  0  0  0  0  0  0  0  0
  -26.1170  -38.4620   23.8400 H   0  0  0  0  0  0  0  0  0  0  0  0
  -26.2880  -31.8850   25.0720 C   0  0  1  0  0  0  0  0  0  0  0  0
  -25.2360  -31.6870   26.1870 C   0  0  0  0  0  1  0  0  0  0  0  0
  -26.8120  -30.4900   24.6630 C   0  0  0  0  0  1  0  0  0  0  0  0
  -27.4850  -32.6510   25.6810 C   0  0  0  0  0  1  0  0  0  0  0  0
  -32.1480  -25.9480   21.9790 C   0  0  0  0  0  2  0  0  0  0  0  0
  -32.4190  -26.8320   20.8960 O   0  0  0  0  0  0  0  0  0  0  0  0
  -32.8570  -26.3080   20.2260 H   0  0  0  0  0  0  0  0  0  0  0  0
  1 96  1  0
  2  3  1  0
  2  1  1  0
  3  5  1  0
  4  2  2  0
  6  3  1  0
  7  6  1  0
  7  8  1  0
  9  8  1  0
 10  9  1  0
 10 11  1  0
 12 20  1  0
 13 18  1  0
 14 15  1  0
 14 13  1  0
 16 15  1  0
 16 25  1  0
 16 17  1  0
 18 12  1  0
 18 17  1  0
 19 12  2  0
 20 11  1  0
 20 21  1  0
 22 23  2  0
 23 42  1  0
 24 23  1  0
 24 27  1  0
 25 22  1  0
 25 26  1  0
 26 24  2  0
 27 28  1  0
 28 29  2  0
 30 33  1  0
 30 29  1  0
 31 30  2  0
 32 31  1  0
 32 27  2  0
 33 34  1  0
 34 35  1  0
 35 36  2  0
 37 36  1  0
 37 41  1  0
 38 37  2  0
 39 34  2  0
 39 38  1  0
 40 39  1  0
 42 43  1  0
 43 46  1  0
 43 45  1  0
 44 42  2  0
 47 48  1  0
 47 22  1  0
 49 47  1  0
 50 52  2  0
 50 51  1  0
 51  1  1  0
 53 51  1  0
 54 55  1  0
 54 50  1  0
 56 67  2  0
 57 55  1  0
 57 62  1  0
 58 66  1  0
 58 68  1  0
 59 65  1  0
 59 61  1  0
 60 66  1  0
 61 60  1  0
 62 61  2  0
 63 64  1  0
 63 57  2  0
 64 59  2  0
 65 58  1  0
 66 56  1  0
 68 70  2  0
 69 68  1  0
 71 69  1  0
 72 81  2  0
 72 77  1  0
 73 69  1  0
 73 77  1  0
 74 73  1  0
 75 76  1  0
 75 74  1  0
 76 72  1  0
 77 78  2  0
 78 79  1  0
 80 79  2  0
 81 80  1  0
 82 56  1  0
 82 83  1  0
 82 92  1  0
 83 86  1  0
 84 88  1  0
 84 83  1  0
 85 84  2  0
 88 87  1  0
 90 88  1  0
 90 91  1  0
 90 89  1  0
 92 95  1  1
 92 93  1  0
 94 92  1  0
 97 96  1  0
 98 97  1  0
M  ISO  4  12 100  20 100  54 101  55 101
M  END
>  <TORSDO>  (65) 
F 27

>  <SCORE>  (65) 
-9.986

>  <name>  (65) 
66

>  <ligand_id>  (65) 
66

>  <original_smiles>  (65) 
[H]OC([H])([H])C([H])(C(=O)N([H])C([H])([H])C([H])([H])OC([H])([H])C([H])([H])C([H])([H])N([H])C(=O)N1C([H])([H])C([H])([H])C([H])([H])C([H])(n2nc(-c3c([H])c([H])c(Oc4c([H])c([H])c(F)c([H])c4F)c([H])c3[H])c(C(=O)N([H])[H])c2N([H])[H])C1([H])[H])N([H])C(=O)C([H])([H])Oc1c([H])c([H])c2c(c1[H])C([H])([H])N(C(=O)C([H])(N([H])C(=O)C([H])(N([H])C([H])([H])[H])C([H])([H])[H])C(C([H])([H])[H])(C([H])([H])[H])C([H])([H])[H])C([H])(C(=O)N([H])C1([H])c3c([H])c([H])c([H])c([H])c3C([H])([H])C([H])([H])C1([H])[H])C2([H])[H]

>  <smiles>  (65) 
[H]OC([H])([H])C([H])(C(=O)N([H])C([H])([H])C([H])([H])OC([H])([H])C([H])([H])C([H])([H])N([H])C(=O)N1C([H])([H])C([H])([H])C([H])([H])C([H])(n2nc(-c3c([H])c([H])c(Oc4c([H])c([H])c(F)c([H])c4F)c([H])c3[H])c(C(=O)N([H])[H])c2N([H])[H])C1([H])[H])N([H])C(=O)C([H])([H])Oc1c([H])c([H])c2c(c1[H])C([H])([H])N(C(=O)C([H])(N([H])C(=O)C([H])(N([H])C([H])([H])[H])C([H])([H])[H])C(C([H])([H])[H])(C([H])([H])[H])C([H])([H])[H])C([H])(C(=O)N([H])C1([H])c3c([H])c([H])c([H])c([H])c3C([H])([H])C([H])([H])C1([H])[H])C2([H])[H]

$$$$
67:0:0
     RDKit          3D

103110  0  0  1  0  0  0  0  0999 V2000
  -30.7020  -25.4840   24.7270 O   0  0  0  0  0  0  0  0  0  0  0  0
  -31.8540  -25.9320   25.4320 C   0  0  0  0  0  2  0  0  0  0  0  0
  -32.3850  -27.1720   24.7070 C   0  0  0  0  0  2  0  0  0  0  0  0
  -32.7200  -26.7880   23.3750 O   0  0  0  0  0  0  0  0  0  0  0  0
  -33.5320  -27.7260   22.6780 C   0  0  0  0  0  2  0  0  0  0  0  0
  -32.6860  -28.2680   21.5160 C   0  0  0  0  0  2  0  0  0  0  0  0
  -31.3830  -28.7490   22.0230 N   0  0  0  0  0  4  0  0  0  0  0  0
  -30.9330  -27.9670   22.4790 H   0  0  0  0  0  0  0  0  0  0  0  0
  -31.5610  -29.4500   22.7270 H   0  0  0  0  0  0  0  0  0  0  0  0
  -30.4510  -29.3190   21.0190 C   0  0  0  0  0  2  0  0  0  0  0  0
  -29.1500  -29.7480   21.7140 C   0  0  0  0  0  2  0  0  0  0  0  0
  -28.0810  -29.9980   20.8000 O   0  0  0  0  0  0  0  0  0  0  0  0
  -23.7350  -27.7900   26.0230 C   0  0  0  0  0  0  0  0  0  0  0  0
  -26.7980  -29.8570   21.2950 C   0  0  0  0  0  0  0  0  0  0  0  0
  -22.6390  -28.4000   23.8860 C   0  0  0  0  0  3  0  0  0  0  0  0
  -24.1230  -29.5840   22.1790 C   0  0  0  0  0  0  0  0  0  0  0  0
  -24.8460  -29.4780   24.5790 C   0  0  0  0  0  2  0  0  0  0  0  0
  -25.1690  -29.6040   23.1070 C   0  0  0  0  0  0  0  0  0  0  0  0
  -26.4990  -29.7380   22.6750 C   0  0  0  0  0  3  0  0  0  0  0  0
  -25.7340  -29.8370   20.3700 C   0  0  0  0  0  3  0  0  0  0  0  0
  -24.3980  -29.6950   20.8050 C   0  0  0  0  0  3  0  0  0  0  0  0
  -22.7270  -29.4510   22.7440 C   0  0  0  0  0  2  0  0  0  0  0  0
  -23.7620  -28.5180   24.8710 N   0  0  0  0  0  0  0  0  0  0  0  0
  -22.7710  -27.0630   26.2990 O   0  0  0  0  0  0  0  0  0  0  0  0
  -22.5280  -26.9930   23.2530 C   0  0  0  0  0  0  0  0  0  0  0  0
  -21.4730  -26.7820   22.4510 N   0  0  0  0  0  0  0  0  0  0  0  0
  -23.3900  -26.1360   23.4630 O   0  0  0  0  0  0  0  0  0  0  0  0
  -20.8030  -27.5310   22.3450 H   0  0  0  0  0  0  0  0  0  0  0  0
  -19.4050  -25.3720   19.8490 C   0  0  0  0  0  0  0  0  0  0  0  0
  -21.1880  -25.5540   21.7110 C   0  0  0  0  0  3  0  0  0  0  0  0
  -22.2290  -25.3170   20.5930 C   0  0  0  0  0  2  0  0  0  0  0  0
  -21.8040  -25.8920   19.2380 C   0  0  0  0  0  2  0  0  0  0  0  0
  -20.4820  -25.2680   18.7840 C   0  0  0  0  0  2  0  0  0  0  0  0
  -19.7370  -25.5210   21.2230 C   0  0  0  0  0  0  0  0  0  0  0  0
  -18.6970  -25.6490   22.1690 C   0  0  0  0  0  3  0  0  0  0  0  0
  -17.3480  -25.6270   21.7640 C   0  0  0  0  0  3  0  0  0  0  0  0
  -17.0270  -25.4600   20.4050 C   0  0  0  0  0  3  0  0  0  0  0  0
  -18.0520  -25.3280   19.4530 C   0  0  0  0  0  3  0  0  0  0  0  0
  -24.9030  -27.8560   27.0600 C   0  0  0  0  0  3  0  0  0  0  0  0
  -26.1390  -26.9550   26.6670 C   0  0  1  0  0  0  0  0  0  0  0  0
  -25.7350  -25.5680   26.1190 C   0  0  0  0  0  1  0  0  0  0  0  0
  -27.0210  -27.6510   25.6020 C   0  0  0  0  0  1  0  0  0  0  0  0
  -27.0340  -26.7310   27.9080 C   0  0  0  0  0  1  0  0  0  0  0  0
  -24.3580  -27.4590   28.3640 N   0  0  0  0  0  0  0  0  0  0  0  0
  -24.1260  -28.3020   29.3810 C   0  0  0  0  0  0  0  0  0  0  0  0
  -24.4150  -29.5020   29.3410 O   0  0  0  0  0  0  0  0  0  0  0  0
  -24.0360  -26.5050   28.4480 H   0  0  0  0  0  0  0  0  0  0  0  0
  -21.9660  -28.0660   30.6460 C   0  0  0  0  0  1  0  0  0  0  0  0
  -23.4640  -27.7200   30.6420 C   0  0  0  0  0  3  0  0  0  0  0  0
  -25.4360  -27.6810   32.1060 C   0  0  0  0  0  1  0  0  0  0  0  0
  -24.0820  -28.1860   31.9010 N   0  0  0  0  0  0  0  0  0  0  0  0
  -23.5190  -27.9140   32.7020 H   0  0  0  0  0  0  0  0  0  0  0  0
  -30.2080  -24.2230   25.1600 C   0  0  0  0  0  2  0  0  0  0  0  0
  -29.1080  -23.8100   24.1750 C   0  0  0  0  0  2  0  0  0  0  0  0
  -29.6100  -23.7210   22.7200 C   0  0  0  0  0  2  0  0  0  0  0  0
  -30.4190  -22.5660   22.5270 O   0  0  0  0  0  0  0  0  0  0  0  0
  -29.8410  -21.6470   21.5990 C   0  0  0  0  0  2  0  0  0  0  0  0
  -30.8500  -20.5560   21.2180 C   0  0  0  0  0  0  0  0  0  0  0  0
  -30.9720  -20.3130   19.9040 N   0  0  0  0  0  0  0  0  0  0  0  0
  -31.4770  -19.9630   22.0980 O   0  0  0  0  0  0  0  0  0  0  0  0
  -30.4130  -20.9120   19.3130 H   0  0  0  0  0  0  0  0  0  0  0  0
  -32.8480  -18.5810   19.9800 C   0  0  0  0  0  1  0  0  0  0  0  0
  -31.8130  -19.3700   19.1510 C   0  0  0  0  0  3  0  0  0  0  0  0
  -32.1150  -21.4900   16.0840 C   0  0  0  0  0  0  0  0  0  0  0  0
  -31.2550  -22.6850   14.1030 C   0  0  0  0  0  2  0  0  0  0  0  0
  -31.2670  -24.2090   14.3040 C   0  0  0  0  0  2  0  0  0  0  0  0
  -29.9660  -24.6740   14.9830 C   0  0  0  0  0  2  0  0  0  0  0  0
  -29.6400  -23.8540   16.2570 C   0  0  0  0  0  3  0  0  0  0  0  0
  -29.7380  -22.3380   15.9750 C   0  0  0  0  0  2  0  0  0  0  0  0
  -31.0690  -22.0370   15.4100 N   0  0  0  0  0  0  0  0  0  0  0  0
  -33.2780  -21.5620   15.6700 O   0  0  0  0  0  0  0  0  0  0  0  0
  -32.5420  -20.1470   18.0480 C   0  0  0  0  0  0  0  0  0  0  0  0
  -31.7570  -20.7890   17.1700 N   0  0  0  0  0  0  0  0  0  0  0  0
  -33.7800  -20.1540   18.0440 O   0  0  0  0  0  0  0  0  0  0  0  0
  -30.7650  -20.7200   17.3330 H   0  0  0  0  0  0  0  0  0  0  0  0
  -27.8880  -24.1840   18.1170 C   0  0  0  0  0  0  0  0  0  0  0  0
  -26.6150  -24.6900   18.0940 C   0  0  0  0  0  0  0  0  0  0  0  0
  -26.3470  -25.0220   16.7320 C   0  0  0  0  0  0  0  0  0  0  0  0
  -28.3340  -24.2170   16.8050 N   0  0  0  0  0  0  0  0  0  0  0  0
  -27.3740  -24.6780   15.9630 N   0  0  0  0  0  0  0  0  0  0  0  0
  -25.1940  -25.6980   16.1210 C   0  0  0  0  0  0  0  0  0  0  0  0
  -24.5810  -25.2010   14.9510 C   0  0  0  0  0  3  0  0  0  0  0  0
  -23.4630  -25.8580   14.3930 C   0  0  0  0  0  3  0  0  0  0  0  0
  -22.9450  -27.0240   15.0070 C   0  0  0  0  0  0  0  0  0  0  0  0
  -23.5770  -27.5280   16.1600 C   0  0  0  0  0  3  0  0  0  0  0  0
  -24.6910  -26.8750   16.7090 C   0  0  0  0  0  3  0  0  0  0  0  0
  -21.8800  -27.7420   14.5220 O   0  0  0  0  0  0  0  0  0  0  0  0
  -21.0450  -27.2320   13.5610 C   0  0  0  0  0  0  0  0  0  0  0  0
  -20.0260  -26.3060   13.8760 C   0  0  0  0  0  3  0  0  0  0  0  0
  -19.1460  -25.8620   12.8680 C   0  0  0  0  0  3  0  0  0  0  0  0
  -19.2770  -26.3480   11.5540 C   0  0  0  0  0  0  0  0  0  0  0  0
  -20.2860  -27.2740   11.2420 C   0  0  0  0  0  3  0  0  0  0  0  0
  -21.1650  -27.7190   12.2440 C   0  0  0  0  0  0  0  0  0  0  0  0
  -22.1240  -28.6280   11.9440 F   0  0  0  0  0  0  0  0  0  0  0  0
  -18.4260  -25.9270   10.5880 F   0  0  0  0  0  0  0  0  0  0  0  0
  -25.7290  -24.9410   19.2830 C   0  0  0  0  0  0  0  0  0  0  0  0
  -24.4210  -24.7900   19.1150 N   0  0  0  0  0  0  0  0  0  0  0  0
  -26.2020  -25.2280   20.3820 O   0  0  0  0  0  0  0  0  0  0  0  0
  -24.0370  -24.5260   18.2190 H   0  0  0  0  0  0  0  0  0  0  0  0
  -23.7960  -24.9320   19.8950 H   0  0  0  0  0  0  0  0  0  0  0  0
  -28.7090  -23.7170   19.1370 N   0  0  0  0  0  0  0  0  0  0  0  0
  -28.4300  -23.7310   20.1100 H   0  0  0  0  0  0  0  0  0  0  0  0
  -29.6630  -23.4060   19.0030 H   0  0  0  0  0  0  0  0  0  0  0  0
  1 53  1  0
  1  2  1  0
  3  2  1  0
  4  3  1  0
  5  4  1  0
  6  7  1  0
  6  5  1  0
  7  8  1  0
  7  9  1  0
 10 11  1  0
 10  7  1  0
 12 14  1  0
 12 11  1  0
 13 24  2  0
 14 19  1  0
 15 25  1  0
 15 23  1  0
 16 22  1  0
 16 18  1  0
 17 23  1  0
 18 17  1  0
 19 18  2  0
 20 21  1  0
 20 14  2  0
 21 16  2  0
 22 15  1  0
 23 13  1  0
 25 27  2  0
 26 25  1  0
 28 26  1  0
 29 34  1  0
 30 26  1  0
 31 30  1  0
 32 31  1  0
 33 32  1  0
 33 29  1  0
 34 30  1  0
 34 35  2  0
 36 35  1  0
 37 36  2  0
 38 29  2  0
 38 37  1  0
 39 13  1  0
 39 44  1  0
 40 39  1  0
 40 43  1  1
 41 40  1  0
 42 40  1  0
 44 47  1  0
 44 45  1  0
 45 49  1  0
 46 45  2  0
 49 48  1  0
 49 51  1  0
 51 50  1  0
 51 52  1  0
 54 53  1  0
 55 54  1  0
 56 55  1  0
 57 56  1  0
 58 57  1  0
 58 60  2  0
 59 58  1  0
 61 59  1  0
 63 59  1  0
 63 62  1  0
 64 73  1  0
 65 66  1  0
 65 70  1  0
 66 67  1  0
 68 67  1  0
 68 79  1  0
 69 68  1  0
 70 69  1  0
 70 64  1  0
 71 64  2  0
 72 63  1  0
 73 75  1  0
 73 72  1  0
 74 72  2  0
 76101  1  0
 77 76  2  0
 77 96  1  0
 78 77  1  0
 79 76  1  0
 80 78  2  0
 80 79  1  0
 81 86  1  0
 81 78  1  0
 82 81  2  0
 83 82  1  0
 83 84  2  0
 84 85  1  0
 85 86  2  0
 87 84  1  0
 88 89  1  0
 88 87  1  0
 90 89  2  0
 91 90  1  0
 92 91  2  0
 92 93  1  0
 93 88  2  0
 94 93  1  0
 95 91  1  0
 96 98  2  0
 97 96  1  0
 97100  1  0
 99 97  1  0
101102  1  0
103101  1  0
M  ISO  4  11 101  12 101  64 100  73 100
M  END
>  <TORSDO>  (66) 
F 31

>  <SCORE>  (66) 
6.450

>  <name>  (66) 
67

>  <ligand_id>  (66) 
67

>  <original_smiles>  (66) 
[H]c1c([H])c([H])c2c(c1[H])C([H])([H])C([H])([H])C([H])([H])C2([H])N([H])C(=O)C1([H])N(C(=O)C([H])(N([H])C(=O)C([H])(N([H])C([H])([H])[H])C([H])([H])[H])C(C([H])([H])[H])(C([H])([H])[H])C([H])([H])[H])C([H])([H])c2c([H])c(OC([H])([H])C([H])([H])[N+]([H])([H])C([H])([H])C([H])([H])OC([H])([H])C([H])([H])OC([H])([H])C([H])([H])C([H])([H])OC([H])([H])C(=O)N([H])C([H])(C(=O)N([H])C(=O)N3C([H])([H])C([H])([H])C([H])([H])C([H])(n4nc(-c5c([H])c([H])c(Oc6c([H])c([H])c(F)c([H])c6F)c([H])c5[H])c(C(=O)N([H])[H])c4N([H])[H])C3([H])[H])C([H])([H])[H])c([H])c([H])c2C1([H])[H]

>  <smiles>  (66) 
[H]c1c([H])c([H])c2c(c1[H])C([H])([H])C([H])([H])C([H])([H])C2([H])N([H])C(=O)C1([H])N(C(=O)C([H])(N([H])C(=O)C([H])(N([H])C([H])([H])[H])C([H])([H])[H])C(C([H])([H])[H])(C([H])([H])[H])C([H])([H])[H])C([H])([H])c2c([H])c(OC([H])([H])C([H])([H])[N+]([H])([H])C([H])([H])C([H])([H])OC([H])([H])C([H])([H])OC([H])([H])C([H])([H])C([H])([H])OC([H])([H])C(=O)N([H])C([H])(C(=O)N([H])C(=O)N3C([H])([H])C([H])([H])C([H])([H])C([H])(n4nc(-c5c([H])c([H])c(Oc6c([H])c([H])c(F)c([H])c6F)c([H])c5[H])c(C(=O)N([H])[H])c4N([H])[H])C3([H])[H])C([H])([H])[H])c([H])c([H])c2C1([H])[H]

$$$$
68:0:0
     RDKit          3D

 95102  0  0  1  0  0  0  0  0999 V2000
  -31.7000  -18.9010   19.5700 C   0  0  0  0  0  0  0  0  0  0  0  0
  -30.9340  -19.8600   19.0260 N   0  0  0  0  0  0  0  0  0  0  0  0
  -32.8010  -19.0990   20.0940 O   0  0  0  0  0  0  0  0  0  0  0  0
  -30.0870  -19.5410   18.5740 H   0  0  0  0  0  0  0  0  0  0  0  0
  -31.0780  -17.4860   19.3660 C   0  0  0  0  0  0  0  0  0  0  0  0
  -31.0570  -17.0210   18.2200 O   0  0  0  0  0  0  0  0  0  0  0  0
  -30.3650  -16.7240   20.5470 C   0  0  0  0  0  0  0  0  0  0  0  0
  -31.1460  -14.3790   19.8030 C   0  0  0  0  0  0  0  0  0  0  0  0
  -30.6550  -12.3520   18.4890 C   0  0  0  0  0  2  0  0  0  0  0  0
  -29.6320  -12.7270   17.3930 C   0  0  0  0  0  2  0  0  0  0  0  0
  -28.1850  -12.6510   17.9250 C   0  0  0  0  0  2  0  0  0  0  0  0
  -28.0070  -13.3760   19.2890 C   0  0  0  0  0  3  0  0  0  0  0  0
  -29.1230  -12.9470   20.2710 C   0  0  0  0  0  2  0  0  0  0  0  0
  -30.4300  -13.2350   19.6420 N   0  0  0  0  0  0  0  0  0  0  0  0
  -32.1840  -14.6270   19.1790 O   0  0  0  0  0  0  0  0  0  0  0  0
  -30.5730  -15.2600   20.6380 N   0  0  0  0  0  4  0  0  0  0  0  0
  -29.8590  -14.8210   21.1980 H   0  0  0  0  0  0  0  0  0  0  0  0
  -25.6690  -14.0560   20.1370 C   0  0  0  0  0  0  0  0  0  0  0  0
  -24.6060  -13.3150   20.5820 C   0  0  0  0  0  0  0  0  0  0  0  0
  -25.0260  -11.9510   20.5280 C   0  0  0  0  0  0  0  0  0  0  0  0
  -26.6760  -13.1440   19.8480 N   0  0  0  0  0  0  0  0  0  0  0  0
  -26.2910  -11.8740   20.1340 N   0  0  0  0  0  0  0  0  0  0  0  0
  -24.2810  -10.7090   20.7690 C   0  0  0  0  0  0  0  0  0  0  0  0
  -24.6840   -9.7860   21.7610 C   0  0  0  0  0  3  0  0  0  0  0  0
  -23.9380   -8.6080   21.9900 C   0  0  0  0  0  3  0  0  0  0  0  0
  -22.7760   -8.3440   21.2260 C   0  0  0  0  0  0  0  0  0  0  0  0
  -22.3940   -9.2550   20.2240 C   0  0  0  0  0  3  0  0  0  0  0  0
  -23.1400  -10.4220   19.9950 C   0  0  0  0  0  3  0  0  0  0  0  0
  -22.0060   -7.2140   21.3590 O   0  0  0  0  0  0  0  0  0  0  0  0
  -21.8350   -6.5980   22.5730 C   0  0  0  0  0  0  0  0  0  0  0  0
  -21.2960   -7.2830   23.6840 C   0  0  0  0  0  3  0  0  0  0  0  0
  -21.0690   -6.5920   24.8920 C   0  0  0  0  0  3  0  0  0  0  0  0
  -21.3730   -5.2210   24.9890 C   0  0  0  0  0  0  0  0  0  0  0  0
  -21.9110   -4.5390   23.8840 C   0  0  0  0  0  3  0  0  0  0  0  0
  -22.1360   -5.2260   22.6770 C   0  0  0  0  0  0  0  0  0  0  0  0
  -22.6300   -4.5580   21.6080 F   0  0  0  0  0  0  0  0  0  0  0  0
  -21.1500   -4.5580   26.1480 F   0  0  0  0  0  0  0  0  0  0  0  0
  -23.2420  -13.8300   20.9410 C   0  0  0  0  0  0  0  0  0  0  0  0
  -22.5620  -13.1740   21.8760 N   0  0  0  0  0  0  0  0  0  0  0  0
  -22.7870  -14.8510   20.4270 O   0  0  0  0  0  0  0  0  0  0  0  0
  -22.9410  -12.3490   22.3180 H   0  0  0  0  0  0  0  0  0  0  0  0
  -21.6540  -13.5060   22.1610 H   0  0  0  0  0  0  0  0  0  0  0  0
  -25.8570  -15.4200   19.9390 N   0  0  0  0  0  0  0  0  0  0  0  0
  -25.1170  -16.0950   20.0920 H   0  0  0  0  0  0  0  0  0  0  0  0
  -26.6790  -15.8300   19.5190 H   0  0  0  0  0  0  0  0  0  0  0  0
  -29.0960  -16.5480   22.7550 C   0  0  0  0  0  1  0  0  0  0  0  0
  -29.6410  -18.8030   21.9370 C   0  0  0  0  0  1  0  0  0  0  0  0
  -31.4780  -17.3010   22.8150 C   0  0  0  0  0  1  0  0  0  0  0  0
  -30.1770  -17.3520   21.9820 C   0  0  2  0  0  0  0  0  0  0  0  0
  -31.2170  -21.2950   18.9460 C   0  0  0  0  0  2  0  0  0  0  0  0
  -30.1970  -22.1410   19.7410 C   0  0  0  0  0  2  0  0  0  0  0  0
  -30.0080  -23.4040   19.1030 O   0  0  0  0  0  0  0  0  0  0  0  0
  -29.1610  -24.3040   19.8200 C   0  0  0  0  0  2  0  0  0  0  0  0
  -28.8720  -25.5600   18.9700 C   0  0  0  0  0  2  0  0  0  0  0  0
  -28.6160  -26.6910   19.8100 O   0  0  0  0  0  0  0  0  0  0  0  0
  -24.7190  -31.6080   23.1340 C   0  0  0  0  0  0  0  0  0  0  0  0
  -27.3910  -27.3320   19.8320 C   0  0  0  0  0  0  0  0  0  0  0  0
  -23.5170  -30.2870   21.4200 C   0  0  0  0  0  3  0  0  0  0  0  0
  -24.9740  -28.8100   19.9360 C   0  0  0  0  0  0  0  0  0  0  0  0
  -26.0420  -30.6550   21.2470 C   0  0  0  0  0  2  0  0  0  0  0  0
  -26.1270  -29.3120   20.5510 C   0  0  0  0  0  0  0  0  0  0  0  0
  -27.3290  -28.5740   20.5040 C   0  0  0  0  0  3  0  0  0  0  0  0
  -26.2110  -26.8330   19.2280 C   0  0  0  0  0  3  0  0  0  0  0  0
  -25.0090  -27.5670   19.2810 C   0  0  0  0  0  3  0  0  0  0  0  0
  -23.7310  -29.6680   20.0120 C   0  0  0  0  0  2  0  0  0  0  0  0
  -24.7770  -30.8620   21.9930 N   0  0  0  0  0  0  0  0  0  0  0  0
  -23.6350  -31.8540   23.6820 O   0  0  0  0  0  0  0  0  0  0  0  0
  -22.8610  -29.2220   22.3280 C   0  0  0  0  0  0  0  0  0  0  0  0
  -21.5370  -29.0510   22.1870 N   0  0  0  0  0  0  0  0  0  0  0  0
  -23.5420  -28.5560   23.1110 O   0  0  0  0  0  0  0  0  0  0  0  0
  -21.0550  -29.6380   21.5210 H   0  0  0  0  0  0  0  0  0  0  0  0
  -18.1540  -27.8650   22.6280 C   0  0  0  0  0  0  0  0  0  0  0  0
  -20.7150  -28.0800   22.9060 C   0  0  0  0  0  3  0  0  0  0  0  0
  -20.8040  -26.6850   22.2480 C   0  0  0  0  0  2  0  0  0  0  0  0
  -19.6940  -26.4320   21.2210 C   0  0  0  0  0  2  0  0  0  0  0  0
  -18.3150  -26.5530   21.8750 C   0  0  0  0  0  2  0  0  0  0  0  0
  -19.2810  -28.5880   23.0960 C   0  0  0  0  0  0  0  0  0  0  0  0
  -19.0810  -29.8190   23.7590 C   0  0  0  0  0  3  0  0  0  0  0  0
  -17.7830  -30.3260   23.9580 C   0  0  0  0  0  3  0  0  0  0  0  0
  -16.6680  -29.5980   23.5060 C   0  0  0  0  0  3  0  0  0  0  0  0
  -16.8540  -28.3690   22.8470 C   0  0  0  0  0  3  0  0  0  0  0  0
  -26.0030  -32.2050   23.7900 C   0  0  0  0  0  3  0  0  0  0  0  0
  -25.6930  -33.5810   24.2000 N   0  0  0  0  0  0  0  0  0  0  0  0
  -26.0190  -34.6750   23.4990 C   0  0  0  0  0  0  0  0  0  0  0  0
  -26.6870  -34.6320   22.4630 O   0  0  0  0  0  0  0  0  0  0  0  0
  -25.1050  -33.6870   25.0140 H   0  0  0  0  0  0  0  0  0  0  0  0
  -24.2810  -36.4740   23.2470 C   0  0  0  0  0  1  0  0  0  0  0  0
  -25.5260  -36.0340   24.0320 C   0  0  0  0  0  3  0  0  0  0  0  0
  -27.6570  -36.8870   24.9050 C   0  0  0  0  0  1  0  0  0  0  0  0
  -26.5530  -37.0980   23.9710 N   0  0  0  0  0  0  0  0  0  0  0  0
  -26.1440  -38.0070   24.1650 H   0  0  0  0  0  0  0  0  0  0  0  0
  -26.5260  -31.3610   25.0170 C   0  0  1  0  0  0  0  0  0  0  0  0
  -25.4370  -31.0550   26.0720 C   0  0  0  0  0  1  0  0  0  0  0  0
  -27.1160  -30.0130   24.5410 C   0  0  0  0  0  1  0  0  0  0  0  0
  -27.6740  -32.1170   25.7260 C   0  0  0  0  0  1  0  0  0  0  0  0
  1  3  2  0
  2  1  1  0
  4  2  1  0
  5  1  1  0
  5  7  1  0
  6  5  2  0
  7 16  2  0
  7 49  1  0
  8 16  1  0
  9 14  1  0
 10 11  1  0
 10  9  1  0
 12 11  1  0
 12 21  1  0
 12 13  1  0
 14  8  1  0
 14 13  1  0
 15  8  2  0
 16 17  1  0
 18 19  2  0
 19 38  1  0
 20 19  1  0
 20 23  1  0
 21 22  1  0
 21 18  1  0
 22 20  2  0
 23 24  1  0
 24 25  2  0
 26 29  1  0
 26 25  1  0
 27 26  2  0
 28 27  1  0
 28 23  2  0
 29 30  1  0
 30 35  2  0
 30 31  1  0
 31 32  2  0
 32 33  1  0
 33 37  1  0
 34 33  2  0
 35 34  1  0
 36 35  1  0
 38 39  1  0
 39 42  1  0
 39 41  1  0
 40 38  2  0
 43 44  1  0
 43 18  1  0
 45 43  1  0
 49 47  1  6
 49 46  1  0
 49 48  1  0
 50  2  1  0
 50 51  1  0
 52 51  1  0
 52 53  1  0
 54 55  1  0
 54 53  1  0
 55 57  1  0
 56 67  2  0
 57 62  1  0
 58 66  1  0
 58 68  1  0
 59 65  1  0
 59 61  1  0
 60 66  1  0
 61 60  1  0
 62 61  2  0
 63 64  1  0
 63 57  2  0
 64 59  2  0
 65 58  1  0
 66 56  1  0
 68 70  2  0
 69 68  1  0
 71 69  1  0
 72 81  2  0
 72 77  1  0
 73 69  1  0
 73 77  1  0
 74 73  1  0
 75 76  1  0
 75 74  1  0
 76 72  1  0
 77 78  2  0
 78 79  1  0
 80 79  2  0
 81 80  1  0
 82 56  1  0
 82 83  1  0
 82 92  1  0
 83 86  1  0
 84 88  1  0
 84 83  1  0
 85 84  2  0
 88 87  1  0
 90 88  1  0
 90 91  1  0
 90 89  1  0
 92 95  1  1
 92 93  1  0
 94 92  1  0
M  ISO  4   8 100  16 100  54 101  55 101
M  END
>  <TORSDO>  (67) 
F 24

>  <SCORE>  (67) 
-7.246

>  <name>  (67) 
68

>  <ligand_id>  (67) 
68

>  <original_smiles>  (67) 
[H]c1c([H])c([H])c2c(c1[H])C([H])([H])C([H])([H])C([H])([H])C2([H])N([H])C(=O)C1([H])N(C(=O)C([H])(N([H])C(=O)C([H])(N([H])C([H])([H])[H])C([H])([H])[H])C(C([H])([H])[H])(C([H])([H])[H])C([H])([H])[H])C([H])([H])c2c([H])c(OC([H])([H])C([H])([H])OC([H])([H])C([H])([H])N([H])C(=O)C(=O)C([H])(N([H])C(=O)N3C([H])([H])C([H])([H])C([H])([H])C([H])(n4nc(-c5c([H])c([H])c(Oc6c([H])c([H])c(F)c([H])c6F)c([H])c5[H])c(C(=O)N([H])[H])c4N([H])[H])C3([H])[H])C(C([H])([H])[H])(C([H])([H])[H])C([H])([H])[H])c([H])c([H])c2C1([H])[H]

>  <smiles>  (67) 
[H]c1c([H])c([H])c2c(c1[H])C([H])([H])C([H])([H])C([H])([H])C2([H])N([H])C(=O)C1([H])N(C(=O)C([H])(N([H])C(=O)C([H])(N([H])C([H])([H])[H])C([H])([H])[H])C(C([H])([H])[H])(C([H])([H])[H])C([H])([H])[H])C([H])([H])c2c([H])c(OC([H])([H])C([H])([H])OC([H])([H])C([H])([H])N([H])C(=O)C(=O)C([H])(N([H])C(=O)N3C([H])([H])C([H])([H])C([H])([H])C([H])(n4nc(-c5c([H])c([H])c(Oc6c([H])c([H])c(F)c([H])c6F)c([H])c5[H])c(C(=O)N([H])[H])c4N([H])[H])C3([H])[H])C(C([H])([H])[H])(C([H])([H])[H])C([H])([H])[H])c([H])c([H])c2C1([H])[H]

$$$$
69:0:0
     RDKit          3D

 95102  0  0  1  0  0  0  0  0999 V2000
  -26.1460  -21.8820   20.4950 N   0  0  0  0  0  4  0  0  0  0  0  0
  -25.6530  -22.6200   20.9750 H   0  0  0  0  0  0  0  0  0  0  0  0
  -26.6020  -21.3330   21.2080 H   0  0  0  0  0  0  0  0  0  0  0  0
  -25.1760  -21.0140   19.7860 C   0  0  0  0  0  2  0  0  0  0  0  0
  -25.8010  -19.6400   19.4640 C   0  0  0  0  0  2  0  0  0  0  0  0
  -27.0120  -19.8530   18.7310 O   0  0  0  0  0  0  0  0  0  0  0  0
  -27.9410  -18.7760   18.8080 C   0  0  0  0  0  2  0  0  0  0  0  0
  -29.1980  -19.0580   17.9720 C   0  0  0  0  0  2  0  0  0  0  0  0
  -30.2090  -18.1900   18.4560 O   0  0  0  0  0  0  0  0  0  0  0  0
  -31.5220  -18.5100   18.0180 C   0  0  0  0  0  2  0  0  0  0  0  0
  -32.4760  -18.0580   19.1310 C   0  0  0  0  0  2  0  0  0  0  0  0
  -32.5370  -15.5890   19.0100 C   0  0  0  0  0  0  0  0  0  0  0  0
  -32.3550  -13.1360   19.0090 C   0  0  0  0  0  2  0  0  0  0  0  0
  -31.4060  -12.6050   17.9200 C   0  0  0  0  0  2  0  0  0  0  0  0
  -29.9400  -12.6200   18.3930 C   0  0  0  0  0  2  0  0  0  0  0  0
  -29.5270  -13.9670   19.0450 C   0  0  0  0  0  3  0  0  0  0  0  0
  -30.5800  -14.4090   20.0840 C   0  0  0  0  0  2  0  0  0  0  0  0
  -31.8990  -14.4650   19.4250 N   0  0  0  0  0  0  0  0  0  0  0  0
  -33.4930  -15.5890   18.2280 O   0  0  0  0  0  0  0  0  0  0  0  0
  -32.0890  -16.7180   19.5550 N   0  0  0  0  0  0  0  0  0  0  0  0
  -31.2860  -16.6510   20.1610 H   0  0  0  0  0  0  0  0  0  0  0  0
  -27.3380  -14.9040   20.0380 C   0  0  0  0  0  0  0  0  0  0  0  0
  -26.1860  -14.2890   20.4570 C   0  0  0  0  0  0  0  0  0  0  0  0
  -26.3950  -12.8890   20.2680 C   0  0  0  0  0  0  0  0  0  0  0  0
  -28.1870  -13.8850   19.6330 N   0  0  0  0  0  0  0  0  0  0  0  0
  -27.6250  -12.6630   19.8220 N   0  0  0  0  0  0  0  0  0  0  0  0
  -25.4780  -11.7530   20.4320 C   0  0  0  0  0  0  0  0  0  0  0  0
  -25.7350  -10.7150   21.3570 C   0  0  0  0  0  3  0  0  0  0  0  0
  -24.8240   -9.6460   21.5050 C   0  0  0  0  0  3  0  0  0  0  0  0
  -23.6430   -9.6060   20.7290 C   0  0  0  0  0  0  0  0  0  0  0  0
  -23.4060  -10.6280   19.7900 C   0  0  0  0  0  3  0  0  0  0  0  0
  -24.3150  -11.6870   19.6400 C   0  0  0  0  0  3  0  0  0  0  0  0
  -22.7140   -8.5940   20.7920 O   0  0  0  0  0  0  0  0  0  0  0  0
  -22.4100   -7.9670   21.9740 C   0  0  0  0  0  0  0  0  0  0  0  0
  -21.9000   -8.6760   23.0830 C   0  0  0  0  0  3  0  0  0  0  0  0
  -21.5340   -7.9820   24.2560 C   0  0  0  0  0  3  0  0  0  0  0  0
  -21.6670   -6.5830   24.3170 C   0  0  0  0  0  0  0  0  0  0  0  0
  -22.1660   -5.8730   23.2120 C   0  0  0  0  0  3  0  0  0  0  0  0
  -22.5330   -6.5630   22.0410 C   0  0  0  0  0  0  0  0  0  0  0  0
  -22.9950   -5.8720   20.9730 F   0  0  0  0  0  0  0  0  0  0  0  0
  -21.3070   -5.9170   25.4410 F   0  0  0  0  0  0  0  0  0  0  0  0
  -24.9240  -14.9690   20.9090 C   0  0  0  0  0  0  0  0  0  0  0  0
  -24.1590  -14.3260   21.7840 N   0  0  0  0  0  0  0  0  0  0  0  0
  -24.6330  -16.1010   20.5240 O   0  0  0  0  0  0  0  0  0  0  0  0
  -24.4040  -13.4080   22.1230 H   0  0  0  0  0  0  0  0  0  0  0  0
  -23.3120  -14.7610   22.1210 H   0  0  0  0  0  0  0  0  0  0  0  0
  -27.7260  -16.2380   19.9490 N   0  0  0  0  0  0  0  0  0  0  0  0
  -27.1050  -17.0070   20.1750 H   0  0  0  0  0  0  0  0  0  0  0  0
  -28.6080  -16.5380   19.5500 H   0  0  0  0  0  0  0  0  0  0  0  0
  -27.1920  -22.4900   19.6360 C   0  0  0  0  0  2  0  0  0  0  0  0
  -28.5470  -22.4840   20.3630 C   0  0  0  0  0  2  0  0  0  0  0  0
  -28.6940  -23.5910   21.2520 O   0  0  0  0  0  0  0  0  0  0  0  0
  -28.4440  -24.8600   20.6630 C   0  0  0  0  0  2  0  0  0  0  0  0
  -29.3400  -25.9360   21.3120 C   0  0  0  0  0  2  0  0  0  0  0  0
  -29.3150  -27.2030   20.6370 O   0  0  0  0  0  0  0  0  0  0  0  0
  -24.8880  -31.9600   23.5110 C   0  0  0  0  0  0  0  0  0  0  0  0
  -28.0870  -27.8150   20.5940 C   0  0  0  0  0  0  0  0  0  0  0  0
  -23.9040  -30.4400   21.8250 C   0  0  0  0  0  3  0  0  0  0  0  0
  -25.5640  -29.0660   20.4750 C   0  0  0  0  0  0  0  0  0  0  0  0
  -26.3780  -31.0620   21.7320 C   0  0  0  0  0  2  0  0  0  0  0  0
  -26.6310  -29.7070   21.1140 C   0  0  0  0  0  0  0  0  0  0  0  0
  -27.8980  -29.0850   21.1810 C   0  0  0  0  0  3  0  0  0  0  0  0
  -27.0090  -27.1990   19.9260 C   0  0  0  0  0  3  0  0  0  0  0  0
  -25.7440  -27.8050   19.8830 C   0  0  0  0  0  3  0  0  0  0  0  0
  -24.2400  -29.7920   20.4550 C   0  0  0  0  0  2  0  0  0  0  0  0
  -25.0690  -31.1740   22.4140 N   0  0  0  0  0  0  0  0  0  0  0  0
  -23.7650  -32.1150   24.0070 O   0  0  0  0  0  0  0  0  0  0  0  0
  -23.3260  -29.3550   22.7610 C   0  0  0  0  0  0  0  0  0  0  0  0
  -22.0790  -28.9330   22.4860 N   0  0  0  0  0  0  0  0  0  0  0  0
  -23.9960  -28.8990   23.6900 O   0  0  0  0  0  0  0  0  0  0  0  0
  -21.5940  -29.3650   21.7110 H   0  0  0  0  0  0  0  0  0  0  0  0
  -18.9480  -27.1450   22.5930 C   0  0  0  0  0  0  0  0  0  0  0  0
  -21.3440  -27.8970   23.2120 C   0  0  0  0  0  3  0  0  0  0  0  0
  -21.7880  -26.4850   22.7710 C   0  0  0  0  0  2  0  0  0  0  0  0
  -20.9460  -25.9280   21.6200 C   0  0  0  0  0  2  0  0  0  0  0  0
  -19.4720  -25.8350   22.0260 C   0  0  0  0  0  2  0  0  0  0  0  0
  -19.8280  -28.1250   23.1280 C   0  0  0  0  0  0  0  0  0  0  0  0
  -19.2960  -29.3470   23.5930 C   0  0  0  0  0  3  0  0  0  0  0  0
  -17.9100  -29.5940   23.5380 C   0  0  0  0  0  3  0  0  0  0  0  0
  -17.0420  -28.6120   23.0250 C   0  0  0  0  0  3  0  0  0  0  0  0
  -17.5610  -27.3920   22.5560 C   0  0  0  0  0  3  0  0  0  0  0  0
  -26.0780  -32.7220   24.1790 C   0  0  0  0  0  3  0  0  0  0  0  0
  -26.5300  -32.0880   25.5520 C   0  0  1  0  0  0  0  0  0  0  0  0
  -25.3590  -31.8070   26.5190 C   0  0  0  0  0  1  0  0  0  0  0  0
  -27.2830  -30.7560   25.3220 C   0  0  0  0  0  1  0  0  0  0  0  0
  -27.5230  -33.0370   26.2620 C   0  0  0  0  0  1  0  0  0  0  0  0
  -25.6640  -34.1200   24.3600 N   0  0  0  0  0  0  0  0  0  0  0  0
  -25.9760  -35.1190   23.5230 C   0  0  0  0  0  0  0  0  0  0  0  0
  -26.7150  -34.9710   22.5470 O   0  0  0  0  0  0  0  0  0  0  0  0
  -25.0150  -34.3040   25.1110 H   0  0  0  0  0  0  0  0  0  0  0  0
  -24.1480  -36.7360   22.9090 C   0  0  0  0  0  1  0  0  0  0  0  0
  -25.3710  -36.5070   23.8140 C   0  0  0  0  0  3  0  0  0  0  0  0
  -27.4000  -37.6160   24.6410 C   0  0  0  0  0  1  0  0  0  0  0  0
  -26.3330  -37.6180   23.6430 N   0  0  0  0  0  0  0  0  0  0  0  0
  -25.8580  -38.5160   23.6870 H   0  0  0  0  0  0  0  0  0  0  0  0
  1  2  1  0
  1  3  1  0
  4  1  1  0
  5  4  1  0
  6  7  1  0
  6  5  1  0
  8  9  1  0
  8  7  1  0
 10  9  1  0
 10 11  1  0
 11 20  1  0
 12 18  1  0
 12 20  1  0
 13 18  1  0
 14 15  1  0
 14 13  1  0
 16 15  1  0
 16 25  1  0
 16 17  1  0
 18 17  1  0
 19 12  2  0
 20 21  1  0
 22 23  2  0
 23 42  1  0
 24 27  1  0
 24 23  1  0
 25 26  1  0
 25 22  1  0
 26 24  2  0
 27 28  1  0
 28 29  2  0
 30 33  1  0
 30 29  1  0
 31 30  2  0
 32 31  1  0
 32 27  2  0
 33 34  1  0
 34 39  2  0
 34 35  1  0
 35 36  2  0
 36 37  1  0
 37 41  1  0
 38 37  2  0
 39 38  1  0
 40 39  1  0
 42 43  1  0
 43 46  1  0
 43 45  1  0
 44 42  2  0
 47 22  1  0
 47 48  1  0
 49 47  1  0
 50 51  1  0
 50  1  1  0
 51 52  1  0
 53 52  1  0
 53 54  1  0
 55 54  1  0
 56 67  2  0
 57 55  1  0
 57 62  1  0
 58 66  1  0
 58 68  1  0
 59 61  1  0
 60 66  1  0
 61 62  2  0
 61 60  1  0
 63 57  2  0
 64 63  1  0
 64 59  2  0
 65 59  1  0
 65 58  1  0
 66 56  1  0
 68 70  2  0
 69 68  1  0
 71 69  1  0
 72 77  1  0
 73 69  1  0
 74 73  1  0
 75 76  1  0
 75 74  1  0
 76 72  1  0
 77 73  1  0
 77 78  2  0
 79 78  1  0
 80 79  2  0
 81 72  2  0
 81 80  1  0
 82 56  1  0
 82 87  1  0
 82 83  1  0
 83 86  1  1
 83 84  1  0
 85 83  1  0
 87 90  1  0
 88 92  1  0
 88 87  1  0
 89 88  2  0
 92 91  1  0
 94 95  1  0
 94 92  1  0
 94 93  1  0
M  ISO  4  12 100  20 100  54 101  55 101
M  END
>  <TORSDO>  (68) 
F 29

>  <SCORE>  (68) 
-5.245

>  <name>  (68) 
69

>  <ligand_id>  (68) 
69

>  <original_smiles>  (68) 
[H]c1c([H])c([H])c2c(c1[H])C([H])([H])C([H])([H])C([H])([H])C2([H])N([H])C(=O)C1([H])N(C(=O)C([H])(N([H])C(=O)C([H])(N([H])C([H])([H])[H])C([H])([H])[H])C(C([H])([H])[H])(C([H])([H])[H])C([H])([H])[H])C([H])([H])c2c([H])c(OC([H])([H])C([H])([H])OC([H])([H])C([H])([H])[N+]([H])([H])C([H])([H])C([H])([H])OC([H])([H])C([H])([H])OC([H])([H])C([H])([H])N([H])C(=O)N3C([H])([H])C([H])([H])C([H])([H])C([H])(n4nc(-c5c([H])c([H])c(Oc6c([H])c([H])c(F)c([H])c6F)c([H])c5[H])c(C(=O)N([H])[H])c4N([H])[H])C3([H])[H])c([H])c([H])c2C1([H])[H]

>  <smiles>  (68) 
[H]c1c([H])c([H])c2c(c1[H])C([H])([H])C([H])([H])C([H])([H])C2([H])N([H])C(=O)C1([H])N(C(=O)C([H])(N([H])C(=O)C([H])(N([H])C([H])([H])[H])C([H])([H])[H])C(C([H])([H])[H])(C([H])([H])[H])C([H])([H])[H])C([H])([H])c2c([H])c(OC([H])([H])C([H])([H])OC([H])([H])C([H])([H])[N+]([H])([H])C([H])([H])C([H])([H])OC([H])([H])C([H])([H])OC([H])([H])C([H])([H])N([H])C(=O)N3C([H])([H])C([H])([H])C([H])([H])C([H])(n4nc(-c5c([H])c([H])c(Oc6c([H])c([H])c(F)c([H])c6F)c([H])c5[H])c(C(=O)N([H])[H])c4N([H])[H])C3([H])[H])c([H])c([H])c2C1([H])[H]

$$$$
70:0:0
     RDKit          3D

103102  0  0  1  0  0  0  0  0999 V2000
  -25.0680  -28.1820   19.0570 O   0  0  0  0  0 15  0  0  0  0  0  0
  -23.9250  -28.6070   20.7950 C   0  0  0  0  0 15  0  0  0  0  0  0
  -23.3550  -26.4340   22.1260 O   0  0  0  0  0 15  0  0  0  0  0  0
  -24.8290  -24.7560   22.0430 C   0  0  0  0  0 15  0  0  0  0  0  0
  -26.2690  -23.2740   20.9330 C   0  0  0  0  0 15  0  0  0  0  0  0
  -28.1220  -22.4880   20.4770 N   0  0  0  0  0  2  0  0  0  0  0  0
  -28.5640  -23.3080   20.0890 H   0  0  0  0  0  0  0  0  0  0  0  0
  -28.5280  -22.3980   21.3950 H   0  0  0  0  0  0  0  0  0  0  0  0
  -28.7470  -19.8500   20.3220 C   0  0  0  0  0  1  0  0  0  0  0  0
  -29.2450  -21.0730   19.5180 C   0  0  0  0  0  1  0  0  0  0  0  0
  -34.1340  -18.3290   17.2910 C   0  0  0  0  0  2  0  0  0  0  0  0
  -36.3200  -17.3180   15.6400 C   0  0  0  0  0  2  0  0  0  0  0  0
  -36.8770  -17.9030   14.2630 C   0  0  0  0  0  2  0  0  0  0  0  0
  -35.9650  -17.5690   13.0830 C   0  0  0  0  0  2  0  0  0  0  0  0
  -34.5220  -17.6440   13.5960 C   0  0  0  0  0  3  0  0  0  0  0  0
  -34.2150  -16.8670   14.9060 C   0  0  0  0  0  2  0  0  0  0  0  0
  -34.7890  -17.6400   16.0420 N   0  0  0  0  0  0  0  0  0  0  0  0
  -35.1710  -18.2270   18.0390 O   0  0  0  0  0  1  0  0  0  0  0  0
  -31.1610  -20.1510   18.7470 C   0  0  0  0  0  2  0  0  0  0  0  0
  -32.3710  -19.2410   17.7820 N   0  0  0  0  0  2  0  0  0  0  0  0
  -30.3400  -19.7450   17.7620 N   0  0  0  0  0  0  0  0  0  0  0  0
  -31.8350  -19.2180   16.9370 H   0  0  0  0  0  0  0  0  0  0  0  0
  -30.3210  -18.7750   17.4820 H   0  0  0  0  0  0  0  0  0  0  0  0
  -29.4370  -20.1930   17.7200 H   0  0  0  0  0  0  0  0  0  0  0  0
  -32.2570  -17.9220   12.5870 C   0  0  0  0  0  0  0  0  0  0  0  0
  -31.6650  -17.4340   11.4640 C   0  0  0  0  0  0  0  0  0  0  0  0
  -32.6300  -16.5800   10.8420 C   0  0  0  0  0  0  0  0  0  0  0  0
  -33.5200  -17.3760   12.6020 N   0  0  0  0  0  0  0  0  0  0  0  0
  -33.7320  -16.5060   11.5830 N   0  0  0  0  0  0  0  0  0  0  0  0
  -32.5800  -15.8830    9.5520 C   0  0  0  0  0  0  0  0  0  0  0  0
  -32.5740  -14.4730    9.4690 C   0  0  0  0  0  3  0  0  0  0  0  0
  -32.4950  -13.8330    8.2140 C   0  0  0  0  0  3  0  0  0  0  0  0
  -32.4200  -14.6030    7.0280 C   0  0  0  0  0  0  0  0  0  0  0  0
  -32.4550  -16.0050    7.1170 C   0  0  0  0  0  3  0  0  0  0  0  0
  -32.5380  -16.6400    8.3660 C   0  0  0  0  0  3  0  0  0  0  0  0
  -32.3680  -14.0690    5.7640 O   0  0  0  0  0  0  0  0  0  0  0  0
  -31.8390  -12.8250    5.5310 C   0  0  0  0  0  0  0  0  0  0  0  0
  -30.4530  -12.5730    5.6350 C   0  0  0  0  0  3  0  0  0  0  0  0
  -29.9440  -11.2980    5.3180 C   0  0  0  0  0  3  0  0  0  0  0  0
  -30.8150  -10.2780    4.8890 C   0  0  0  0  0  0  0  0  0  0  0  0
  -32.1940  -10.5290    4.7780 C   0  0  0  0  0  3  0  0  0  0  0  0
  -32.7030  -11.7990    5.0970 C   0  0  0  0  0  0  0  0  0  0  0  0
  -34.0300  -12.0430    4.9700 F   0  0  0  0  0  0  0  0  0  0  0  0
  -30.3260   -9.0550    4.5760 F   0  0  0  0  0  0  0  0  0  0  0  0
  -30.3160  -17.8280   10.9500 C   0  0  0  0  0  0  0  0  0  0  0  0
  -29.5520  -16.8690   10.4440 N   0  0  0  0  0  0  0  0  0  0  0  0
  -29.9130  -18.9860   11.0500 O   0  0  0  0  0  0  0  0  0  0  0  0
  -29.8810  -15.9170   10.3890 H   0  0  0  0  0  0  0  0  0  0  0  0
  -28.6260  -17.0870   10.1060 H   0  0  0  0  0  0  0  0  0  0  0  0
  -31.8470  -18.8050   13.5840 N   0  0  0  0  0  0  0  0  0  0  0  0
  -30.9800  -19.3210   13.4810 H   0  0  0  0  0  0  0  0  0  0  0  0
  -32.5030  -19.2540   14.2100 H   0  0  0  0  0  0  0  0  0  0  0  0
  -25.7560  -25.2710   18.1220 C   0  0  0  0  0  1  0  0  0  0  0  0
  -27.1560  -24.4750   18.3100 C   0  0  0  0  0  2  0  0  0  0  0  0
  -27.6270  -23.8920   17.0960 O   0  0  0  0  0  0  0  0  0  0  0  0
  -29.0390  -23.6840   17.0060 C   0  0  0  0  0  2  0  0  0  0  0  0
  -29.5960  -24.2030   15.6640 C   0  0  0  0  0  2  0  0  0  0  0  0
  -28.3910  -25.6880   14.0260 C   0  0  0  0  0  0  0  0  0  0  0  0
  -28.5460  -24.5360   14.7000 N   0  0  0  0  0  0  0  0  0  0  0  0
  -27.4330  -25.8210   13.2630 O   0  0  0  0  0  0  0  0  0  0  0  0
  -27.8460  -23.8250   14.5440 H   0  0  0  0  0  0  0  0  0  0  0  0
  -29.4080  -26.8410   14.1690 C   0  0  0  0  0  2  0  0  0  0  0  0
  -30.2740  -26.5940   15.2660 O   0  0  0  0  0  0  0  0  0  0  0  0
  -34.0310  -28.2040   20.2520 C   0  0  0  0  0  0  0  0  0  0  0  0
  -30.3930  -27.5890   16.2460 C   0  0  0  0  0  3  0  0  0  0  0  0
  -30.6030  -27.2620   20.5500 C   0  0  0  0  0  3  0  0  0  0  0  0
  -30.0210  -27.0740   19.4220 C   0  0  1  0  0  0  0  0  0  0  0  0
  -32.9900  -27.5360   18.3790 C   0  0  0  0  0  2  0  0  0  0  0  0
  -31.7130  -26.8250   18.4910 C   0  0  2  0  0  0  0  0  0  0  0  0
  -31.6890  -27.1770   16.9420 C   0  0  0  0  0  2  0  0  0  0  0  0
  -29.0490  -27.9110   17.0090 C   0  0  0  0  0  3  0  0  0  0  0  0
  -28.7930  -27.6290   18.5100 C   0  0  0  0  0  3  0  0  0  0  0  0
  -29.4430  -28.0620   20.3330 C   0  0  0  0  0  2  0  0  0  0  0  0
  -32.7990  -27.4290   19.5950 N   0  0  0  0  0  0  0  0  0  0  0  0
  -34.0040  -28.8460   21.3660 O   0  0  0  0  0  0  0  0  0  0  0  0
  -30.2310  -27.2220   22.2360 C   0  0  0  0  0  0  0  0  0  0  0  0
  -29.7180  -28.1390   23.1430 N   0  0  0  0  0  0  0  0  0  0  0  0
  -30.9140  -26.3470   22.7410 O   0  0  0  0  0  0  0  0  0  0  0  0
  -29.2810  -29.0200   22.9060 H   0  0  0  0  0  0  0  0  0  0  0  0
  -28.4130  -28.5730   26.3840 C   0  0  0  0  0  0  0  0  0  0  0  0
  -29.7260  -27.6170   24.4850 C   0  0  0  0  0  3  0  0  0  0  0  0
  -28.6640  -26.4640   24.5590 C   0  0  0  0  0  2  0  0  0  0  0  0
  -27.2850  -27.0360   24.7070 C   0  0  0  0  0  2  0  0  0  0  0  0
  -27.2650  -27.6070   26.1120 C   0  0  0  0  0  2  0  0  0  0  0  0
  -29.5540  -28.6430   25.5580 C   0  0  0  0  0  0  0  0  0  0  0  0
  -30.5630  -29.5970   25.8010 C   0  0  0  0  0  3  0  0  0  0  0  0
  -30.4440  -30.4650   26.9010 C   0  0  0  0  0  3  0  0  0  0  0  0
  -29.3280  -30.3670   27.7520 C   0  0  0  0  0  3  0  0  0  0  0  0
  -28.3180  -29.4230   27.4930 C   0  0  0  0  0  3  0  0  0  0  0  0
  -35.4810  -28.3150   19.7600 C   0  0  0  0  0  3  0  0  0  0  0  0
  -36.1220  -29.6790   19.9260 N   0  0  0  0  0  0  0  0  0  0  0  0
  -36.5890  -30.4960   18.9620 C   0  0  0  0  0  0  0  0  0  0  0  0
  -36.4460  -30.2270   17.7700 O   0  0  0  0  0  0  0  0  0  0  0  0
  -36.2130  -29.9900   20.8810 H   0  0  0  0  0  0  0  0  0  0  0  0
  -36.5790  -33.0460   19.0040 C   0  0  0  0  0  1  0  0  0  0  0  0
  -37.3820  -31.7790   19.3500 C   0  0  0  0  0  3  0  0  0  0  0  0
  -39.7080  -30.9600   19.2360 C   0  0  0  0  0  1  0  0  0  0  0  0
  -38.7130  -31.8830   18.6990 N   0  0  0  0  0  0  0  0  0  0  0  0
  -39.0770  -32.8280   18.7760 H   0  0  0  0  0  0  0  0  0  0  0  0
  -36.2310  -27.3140   20.6930 C   0  0  1  0  0  0  0  0  0  0  0  0
  -36.1050  -27.6020   22.2180 C   0  0  0  0  0  1  0  0  0  0  0  0
  -35.7710  -25.8580   20.4760 C   0  0  0  0  0  1  0  0  0  0  0  0
  -37.7110  -27.3460   20.2950 C   0  0  0  0  0  1  0  0  0  0  0  0
  6  8  1  0
  7  6  1  0
 10  9  1  0
 11 18  1  0
 12 17  1  0
 13 12  1  0
 14 15  1  0
 14 13  1  0
 15 28  1  0
 15 16  1  0
 16 17  1  0
 17 11  1  0
 20 19  1  0
 21 19  1  0
 22 20  1  0
 23 21  1  0
 24 21  1  0
 25 28  1  0
 25 50  1  0
 26 25  2  0
 27 26  1  0
 27 29  2  0
 29 28  1  0
 30 27  1  0
 31 30  1  0
 32 31  2  0
 33 34  2  0
 33 32  1  0
 34 35  1  0
 35 30  2  0
 36 33  1  0
 37 38  1  0
 37 36  1  0
 39 38  2  0
 40 39  1  0
 41 40  2  0
 41 42  1  0
 42 37  2  0
 43 42  1  0
 44 40  1  0
 45 47  2  0
 45 26  1  0
 46 45  1  0
 48 46  1  0
 49 46  1  0
 50 52  1  0
 51 50  1  0
 53 54  1  0
 55 54  1  0
 56 55  1  0
 57 56  1  0
 58 62  1  0
 58 59  1  0
 59 57  1  0
 60 58  2  0
 61 59  1  0
 62 63  1  0
 64 75  2  0
 65 63  1  0
 65 70  1  0
 65 71  1  0
 66 76  1  0
 67 72  1  0
 67 73  1  1
 67 66  1  0
 69 68  1  1
 68 74  1  0
 69 70  1  0
 69 67  1  0
 69 74  1  0
 71 72  2  0
 73 66  1  0
 74 64  1  0
 76 78  2  0
 76 77  1  0
 79 77  1  0
 80 89  1  0
 81 77  1  0
 81 82  1  0
 81 85  1  0
 82 83  1  0
 83 84  1  0
 84 80  1  0
 85 86  1  0
 85 80  2  0
 86 87  2  0
 87 88  1  0
 89 88  2  0
 90 91  1  0
 90 64  1  0
 90100  1  0
 91 94  1  0
 92 96  1  0
 92 91  1  0
 93 92  2  0
 96 95  1  0
 98 99  1  0
 98 97  1  0
 98 96  1  0
100101  1  1
102100  1  0
103100  1  0
M  ISO  4  11 100  20 100  62 101  63 101
M  END
>  <TORSDO>  (69) 
F 29

>  <SCORE>  (69) 
-4.033

>  <name>  (69) 
70

>  <ligand_id>  (69) 
70

>  <original_smiles>  (69) 
[H]c1c([H])c([H])c2c(c1[H])C([H])([H])C([H])([H])C([H])([H])C2([H])N([H])C(=O)C1([H])N(C(=O)C([H])(N([H])C(=O)C([H])(N([H])C([H])([H])[H])C([H])([H])[H])C(C([H])([H])[H])(C([H])([H])[H])C([H])([H])[H])C([H])([H])c2c([H])c(OC([H])([H])C(=O)N([H])C([H])([H])C([H])([H])OC([H])([H])C([H])([H])OC([H])([H])OC([H])([H])C([H])([H])[N+]([H])([H])C([H])(C(N([H])C(=O)N3C([H])([H])C([H])([H])C([H])([H])C([H])(n4nc(-c5c([H])c([H])c(Oc6c([H])c([H])c(F)c([H])c6F)c([H])c5[H])c(C(=O)N([H])[H])c4N([H])[H])C3([H])[H])=[N+]([H])[H])C([H])([H])[H])c([H])c([H])c2C1([H])[H]

>  <smiles>  (69) 
[H]c1c([H])c([H])c2c(c1[H])C([H])([H])C([H])([H])C([H])([H])C2([H])N([H])C(=O)C1([H])N(C(=O)C([H])(N([H])C(=O)C([H])(N([H])C([H])([H])[H])C([H])([H])[H])C(C([H])([H])[H])(C([H])([H])[H])C([H])([H])[H])C([H])([H])c2c([H])c(OC([H])([H])C(=O)N([H])C([H])([H])C([H])([H])OC([H])([H])C([H])([H])OC([H])([H])OC([H])([H])C([H])([H])[N+]([H])([H])C([H])(C(N([H])C(=O)N3C([H])([H])C([H])([H])C([H])([H])C([H])(n4nc(-c5c([H])c([H])c(Oc6c([H])c([H])c(F)c([H])c6F)c([H])c5[H])c(C(=O)N([H])[H])c4N([H])[H])C3([H])[H])=[N+]([H])[H])C([H])([H])[H])c([H])c([H])c2C1([H])[H]

$$$$
71:0:0
     RDKit          3D

 99106  0  0  1  0  0  0  0  0999 V2000
  -21.9010  -16.1420   20.6320 N   0  0  0  0  0  4  0  0  0  0  0  0
  -22.1640  -15.6720   19.7700 H   0  0  0  0  0  0  0  0  0  0  0  0
  -20.9740  -16.5130   20.4820 H   0  0  0  0  0  0  0  0  0  0  0  0
  -21.8110  -15.0500   21.6900 C   0  0  0  0  0  3  0  0  0  0  0  0
  -21.2750  -13.5980   21.2360 C   0  0  0  0  0  3  0  0  0  0  0  0
  -21.4010  -12.3300   22.2270 C   0  0  0  0  0  2  0  0  0  0  0  0
  -22.1350  -11.1500   21.7080 O   0  0  0  0  0  0  0  0  0  0  0  0
  -22.9590  -10.2790   22.5940 C   0  0  0  0  0  2  0  0  0  0  0  0
  -23.5450   -8.9320   21.8870 C   0  0  0  0  0  2  0  0  0  0  0  0
  -26.1230   -7.5610   21.6400 O   0  0  0  0  0  1  0  0  0  0  0  0
  -27.7920   -7.7970   22.1750 C   0  0  0  0  0  3  0  0  0  0  0  0
  -29.0220   -9.0100   22.9780 C   0  0  0  0  0  3  0  0  0  0  0  0
  -31.8440  -10.2690   23.0120 C   0  0  0  0  0  0  0  0  0  0  0  0
  -32.6160   -9.9180   20.9210 C   0  0  0  0  0  2  0  0  0  0  0  0
  -31.9510   -9.9940   19.5820 C   0  0  0  0  0  2  0  0  0  0  0  0
  -30.4310  -10.0530   19.7540 C   0  0  0  0  0  2  0  0  0  0  0  0
  -30.0270  -11.3500   20.4850 C   0  0  0  0  0  3  0  0  0  0  0  0
  -30.7840  -11.6500   21.7340 C   0  0  0  0  0  2  0  0  0  0  0  0
  -31.8350  -10.7180   21.8670 N   0  0  0  0  0  0  0  0  0  0  0  0
  -32.9860  -10.5990   23.4740 O   0  0  0  0  0  0  0  0  0  0  0  0
  -30.7230   -9.2580   23.1820 N   0  0  0  0  0  0  0  0  0  0  0  0
  -31.0620   -8.5810   23.8490 H   0  0  0  0  0  0  0  0  0  0  0  0
  -27.8570  -12.5800   20.7720 C   0  0  0  0  0  0  0  0  0  0  0  0
  -26.6270  -12.1280   21.0000 C   0  0  0  0  0  0  0  0  0  0  0  0
  -26.7710  -10.8060   21.3550 C   0  0  0  0  0  3  0  0  0  0  0  0
  -28.6400  -11.4620   20.7610 N   0  0  0  0  0  0  0  0  0  0  0  0
  -27.9330  -10.3700   21.0010 N   0  0  0  0  0  2  0  0  0  0  0  0
  -25.8000   -9.9070   21.7070 C   0  0  0  0  0  0  0  0  0  0  0  0
  -25.7270   -8.9590   23.1920 C   0  0  0  0  0  3  0  0  0  0  0  0
  -24.8130   -7.4710   23.1580 C   0  0  0  0  0  3  0  0  0  0  0  0
  -23.9970   -7.0170   21.7180 C   0  0  0  0  0  0  0  0  0  0  0  0
  -24.1170   -7.9470   20.3350 C   0  0  0  0  0  0  0  0  0  0  0  0
  -24.9890   -9.3760   20.3090 C   0  0  0  0  0  3  0  0  0  0  0  0
  -22.7900   -6.3450   21.7460 O   0  0  0  0  0  0  0  0  0  0  0  0
  -22.3080   -5.7710   22.8880 C   0  0  0  0  0  0  0  0  0  0  0  0
  -21.8560   -6.4940   24.0230 C   0  0  0  0  0  3  0  0  0  0  0  0
  -21.4300   -5.7950   25.1700 C   0  0  0  0  0  3  0  0  0  0  0  0
  -21.4250   -4.3870   25.1710 C   0  0  0  0  0  0  0  0  0  0  0  0
  -21.8140   -3.6770   24.0250 C   0  0  0  0  0  3  0  0  0  0  0  0
  -22.2370   -4.3720   22.8830 C   0  0  0  0  0  0  0  0  0  0  0  0
  -22.5920   -3.6970   21.7640 F   0  0  0  0  0  0  0  0  0  0  0  0
  -21.0470   -3.7150   26.2830 F   0  0  0  0  0  0  0  0  0  0  0  0
  -25.3790  -12.8200   20.8380 C   0  0  0  0  0  0  0  0  0  0  0  0
  -24.6480  -12.6630   21.8820 N   0  0  0  0  0  0  0  0  0  0  0  0
  -25.1060  -13.5430   19.8910 O   0  0  0  0  0  0  0  0  0  0  0  0
  -25.0310  -12.2210   22.7020 H   0  0  0  0  0  0  0  0  0  0  0  0
  -23.6400  -12.7270   21.7850 H   0  0  0  0  0  0  0  0  0  0  0  0
  -28.3550  -13.8360   20.5320 N   0  0  0  0  0  0  0  0  0  0  0  0
  -27.7520  -14.6400   20.4520 H   0  0  0  0  0  0  0  0  0  0  0  0
  -29.3110  -14.0310   20.2730 H   0  0  0  0  0  0  0  0  0  0  0  0
  -22.8540  -17.3050   20.8980 C   0  0  0  0  0  2  0  0  0  0  0  0
  -23.5000  -18.0600   19.6440 C   0  0  0  0  0  3  0  0  0  0  0  0
  -24.4790  -19.2920   19.9310 C   0  0  0  0  0  3  0  0  0  0  0  0
  -25.0960  -19.9960   18.7960 O   0  0  0  0  0  0  0  0  0  0  0  0
  -26.1310  -20.9910   19.1230 C   0  0  0  0  0  2  0  0  0  0  0  0
  -26.4110  -22.1730   18.0810 C   0  0  0  0  0  2  0  0  0  0  0  0
  -27.8700  -22.8270   17.9480 C   0  0  0  0  0  2  0  0  0  0  0  0
  -28.4680  -23.8640   19.0040 C   0  0  0  0  0  2  0  0  0  0  0  0
  -28.9920  -25.1940   18.5950 O   0  0  0  0  0  0  0  0  0  0  0  0
  -24.7140  -27.5220   23.7520 C   0  0  0  0  0  0  0  0  0  0  0  0
  -28.1250  -26.1920   18.9760 C   0  0  0  0  0  0  0  0  0  0  0  0
  -24.0660  -28.0040   21.4210 C   0  0  0  0  0  3  0  0  0  0  0  0
  -25.9000  -27.7660   19.6720 C   0  0  0  0  0  0  0  0  0  0  0  0
  -26.5410  -27.8750   22.0790 C   0  0  0  0  0  2  0  0  0  0  0  0
  -26.8340  -27.4230   20.6580 C   0  0  0  0  0  0  0  0  0  0  0  0
  -27.9730  -26.6490   20.3130 C   0  0  0  0  0  3  0  0  0  0  0  0
  -27.2200  -26.6230   17.9920 C   0  0  0  0  0  3  0  0  0  0  0  0
  -26.1040  -27.3910   18.3360 C   0  0  0  0  0  3  0  0  0  0  0  0
  -24.6740  -28.5360   20.1010 C   0  0  0  0  0  2  0  0  0  0  0  0
  -25.1090  -27.7700   22.4710 N   0  0  0  0  0  0  0  0  0  0  0  0
  -23.5130  -27.5260   24.0670 O   0  0  0  0  0  0  0  0  0  0  0  0
  -23.2000  -26.7590   21.1180 C   0  0  0  0  0  0  0  0  0  0  0  0
  -22.0700  -26.9660   20.4250 N   0  0  0  0  0  0  0  0  0  0  0  0
  -23.5560  -25.6360   21.4930 O   0  0  0  0  0  0  0  0  0  0  0  0
  -21.8610  -27.9130   20.1350 H   0  0  0  0  0  0  0  0  0  0  0  0
  -19.1090  -26.3630   18.4360 C   0  0  0  0  0  0  0  0  0  0  0  0
  -21.1120  -25.9360   20.0180 C   0  0  0  0  0  3  0  0  0  0  0  0
  -21.6910  -25.0650   18.8790 C   0  0  0  0  0  2  0  0  0  0  0  0
  -21.3200  -25.5720   17.4830 C   0  0  0  0  0  2  0  0  0  0  0  0
  -19.7980  -25.6100   17.3090 C   0  0  0  0  0  2  0  0  0  0  0  0
  -19.7330  -26.5290   19.7020 C   0  0  0  0  0  0  0  0  0  0  0  0
  -19.0600  -27.2640   20.7040 C   0  0  0  0  0  3  0  0  0  0  0  0
  -17.7940  -27.8270   20.4580 C   0  0  0  0  0  3  0  0  0  0  0  0
  -17.1770  -27.6490   19.2080 C   0  0  0  0  0  3  0  0  0  0  0  0
  -17.8300  -26.9120   18.2030 C   0  0  0  0  0  3  0  0  0  0  0  0
  -25.7470  -27.2570   24.8870 C   0  0  0  0  0  3  0  0  0  0  0  0
  -25.1730  -27.7710   26.1380 N   0  0  0  0  0  0  0  0  0  0  0  0
  -25.5270  -28.9260   26.7210 C   0  0  0  0  0  0  0  0  0  0  0  0
  -26.4360  -29.6390   26.2910 O   0  0  0  0  0  0  0  0  0  0  0  0
  -24.3820  -27.2680   26.5130 H   0  0  0  0  0  0  0  0  0  0  0  0
  -23.7350  -30.4480   27.6200 C   0  0  0  0  0  1  0  0  0  0  0  0
  -24.7500  -29.3510   27.9820 C   0  0  0  0  0  3  0  0  0  0  0  0
  -26.4320  -28.7650   29.6720 C   0  0  0  0  0  1  0  0  0  0  0  0
  -25.6210  -29.8260   29.0800 N   0  0  0  0  0  0  0  0  0  0  0  0
  -25.0680  -30.2520   29.8190 H   0  0  0  0  0  0  0  0  0  0  0  0
  -26.1260  -25.7310   25.0350 C   0  0  1  0  0  0  0  0  0  0  0  0
  -24.9020  -24.7940   25.1560 C   0  0  0  0  0  1  0  0  0  0  0  0
  -26.9630  -25.2580   23.8260 C   0  0  0  0  0  1  0  0  0  0  0  0
  -27.0050  -25.5300   26.2930 C   0  0  0  0  0  1  0  0  0  0  0  0
  1 51  1  0
  1  4  1  0
  2  1  1  0
  3  1  1  0
  5  4  2  0
  5  6  1  0
  7  6  1  0
  7  8  1  0
  9  8  1  0
 10 11  1  0
 11 12  2  0
 12 21  1  0
 13 21  1  0
 13 20  2  0
 14 19  1  0
 15 16  1  0
 15 14  1  0
 17 16  1  0
 17 26  1  0
 17 18  1  0
 18 19  1  0
 19 13  1  0
 21 22  1  0
 23 24  2  0
 24 25  1  0
 25 28  1  0
 26 23  1  0
 26 27  1  0
 27 25  1  0
 28 29  1  0
 30 29  2  0
 31 34  1  0
 31 30  1  0
 32 31  2  3
 32  9  1  0
 33 32  1  0
 33 28  2  0
 34 35  1  0
 35 36  1  0
 36 37  2  0
 37 38  1  0
 38 42  1  0
 39 38  2  0
 40 35  2  0
 40 39  1  0
 41 40  1  0
 43 24  1  0
 43 44  1  0
 44 46  1  0
 45 43  2  0
 47 44  1  0
 48 23  1  0
 49 48  1  0
 50 48  1  0
 52 53  2  0
 52 51  1  0
 54 55  1  0
 54 53  1  0
 56 55  1  0
 57 56  1  0
 57 58  1  0
 59 61  1  0
 59 58  1  0
 60 71  2  0
 61 66  1  0
 62 72  1  0
 62 70  1  0
 63 69  1  0
 63 65  1  0
 64 70  1  0
 65 64  1  0
 66 65  2  0
 67 68  1  0
 67 61  2  0
 68 63  2  0
 69 62  1  0
 70 60  1  0
 72 74  2  0
 73 72  1  0
 75 73  1  0
 76 81  1  0
 77 73  1  0
 78 77  1  0
 79 78  1  0
 80 79  1  0
 80 76  1  0
 81 77  1  0
 81 82  2  0
 83 82  1  0
 84 83  2  0
 85 76  2  0
 85 84  1  0
 86 60  1  0
 86 96  1  0
 86 87  1  0
 87 90  1  0
 87 88  1  0
 88 92  1  0
 89 88  2  0
 92 91  1  0
 92 94  1  0
 94 93  1  0
 94 95  1  0
 96 97  1  1
 96 99  1  0
 98 96  1  0
M  ISO  4  13 100  21 100  58 101  59 101
M  END
>  <TORSDO>  (70) 
F 33

>  <SCORE>  (70) 
11.231

>  <name>  (70) 
71

>  <ligand_id>  (70) 
71

>  <original_smiles>  (70) 
[H]c1c([H])c([H])c2c(c1[H])C([H])([H])C([H])([H])C([H])([H])C2([H])N([H])C(=O)C1([H])N(C(=O)C([H])(N([H])C(=O)C([H])(N([H])C([H])([H])[H])C([H])([H])[H])C(C([H])([H])[H])(C([H])([H])[H])C([H])([H])[H])C([H])([H])c2c([H])c(OC([H])([H])C([H])([H])C([H])([H])C([H])([H])OC([H])([H])C([H])([H])C([H])([H])[N+]([H])([H])C([H])([H])C([H])([H])C([H])([H])OC([H])([H])C([H])([H])OC([H])([H])C([H])([H])N([H])C(=O)N3C([H])([H])C([H])([H])C([H])([H])C([H])(n4nc(-c5c([H])c([H])c(Oc6c([H])c([H])c(F)c([H])c6F)c([H])c5[H])c(C(=O)N([H])[H])c4N([H])[H])C3([H])[H])c([H])c([H])c2C1([H])[H]

>  <smiles>  (70) 
[H]c1c([H])c([H])c2c(c1[H])C([H])([H])C([H])([H])C([H])([H])C2([H])N([H])C(=O)C1([H])N(C(=O)C([H])(N([H])C(=O)C([H])(N([H])C([H])([H])[H])C([H])([H])[H])C(C([H])([H])[H])(C([H])([H])[H])C([H])([H])[H])C([H])([H])c2c([H])c(OC([H])([H])C([H])([H])C([H])([H])C([H])([H])OC([H])([H])C([H])([H])C([H])([H])[N+]([H])([H])C([H])([H])C([H])([H])C([H])([H])OC([H])([H])C([H])([H])OC([H])([H])C([H])([H])N([H])C(=O)N3C([H])([H])C([H])([H])C([H])([H])C([H])(n4nc(-c5c([H])c([H])c(Oc6c([H])c([H])c(F)c([H])c6F)c([H])c5[H])c(C(=O)N([H])[H])c4N([H])[H])C3([H])[H])c([H])c([H])c2C1([H])[H]

$$$$
72:0:0
     RDKit          3D

 93100  0  0  1  0  0  0  0  0999 V2000
  -28.7370  -20.0230   20.1650 C   0  0  0  0  0  2  0  0  0  0  0  0
  -29.5110  -17.6750   20.4960 C   0  0  0  0  0  0  0  0  0  0  0  0
  -29.3780  -18.9430   20.9130 N   0  0  0  0  0  0  0  0  0  0  0  0
  -29.1540  -17.3090   19.3720 O   0  0  0  0  0  0  0  0  0  0  0  0
  -29.7030  -19.1830   21.8410 H   0  0  0  0  0  0  0  0  0  0  0  0
  -30.1000  -16.6550   21.4970 C   0  0  0  0  0  3  0  0  0  0  0  0
  -30.2260  -14.4490   20.2210 C   0  0  0  0  0  0  0  0  0  0  0  0
  -29.8210  -12.4240   18.8720 C   0  0  0  0  0  2  0  0  0  0  0  0
  -28.7900  -12.7380   17.7720 C   0  0  0  0  0  2  0  0  0  0  0  0
  -27.3580  -12.5130   18.2930 C   0  0  0  0  0  2  0  0  0  0  0  0
  -27.1120  -13.2220   19.6530 C   0  0  0  0  0  3  0  0  0  0  0  0
  -28.2530  -12.9320   20.6540 C   0  0  0  0  0  2  0  0  0  0  0  0
  -29.5350  -13.2950   20.0200 N   0  0  0  0  0  0  0  0  0  0  0  0
  -31.2170  -14.7540   19.5540 O   0  0  0  0  0  0  0  0  0  0  0  0
  -29.7180  -15.2700   21.1560 N   0  0  0  0  0  0  0  0  0  0  0  0
  -28.8900  -14.9340   21.6200 H   0  0  0  0  0  0  0  0  0  0  0  0
  -24.7270  -13.6960   20.5010 C   0  0  0  0  0  0  0  0  0  0  0  0
  -23.7290  -12.8680   20.9380 C   0  0  0  0  0  0  0  0  0  0  0  0
  -24.2600  -11.5450   20.8790 C   0  0  0  0  0  0  0  0  0  0  0  0
  -25.8070  -12.8750   20.2130 N   0  0  0  0  0  0  0  0  0  0  0  0
  -25.5300  -11.5760   20.4930 N   0  0  0  0  0  0  0  0  0  0  0  0
  -23.6150  -10.2450   21.1160 C   0  0  0  0  0  0  0  0  0  0  0  0
  -24.1330   -9.3240   22.0530 C   0  0  0  0  0  3  0  0  0  0  0  0
  -23.4860   -8.0880   22.2740 C   0  0  0  0  0  3  0  0  0  0  0  0
  -22.3070   -7.7660   21.5580 C   0  0  0  0  0  0  0  0  0  0  0  0
  -21.8110   -8.6780   20.6080 C   0  0  0  0  0  3  0  0  0  0  0  0
  -22.4590   -9.9040   20.3870 C   0  0  0  0  0  3  0  0  0  0  0  0
  -21.6240   -6.5820   21.6880 O   0  0  0  0  0  0  0  0  0  0  0  0
  -21.6360   -5.8690   22.8600 C   0  0  0  0  0  0  0  0  0  0  0  0
  -21.2000   -6.4300   24.0790 C   0  0  0  0  0  3  0  0  0  0  0  0
  -21.1660   -5.6400   25.2450 C   0  0  0  0  0  3  0  0  0  0  0  0
  -21.5590   -4.2890   25.1920 C   0  0  0  0  0  0  0  0  0  0  0  0
  -21.9920   -3.7270   23.9780 C   0  0  0  0  0  3  0  0  0  0  0  0
  -22.0270   -4.5170   22.8150 C   0  0  0  0  0  0  0  0  0  0  0  0
  -22.4210   -3.9650   21.6410 F   0  0  0  0  0  0  0  0  0  0  0  0
  -21.5220   -3.5260   26.3120 F   0  0  0  0  0  0  0  0  0  0  0  0
  -22.3270  -13.2690   21.3040 C   0  0  0  0  0  0  0  0  0  0  0  0
  -21.6990  -12.5400   22.2200 N   0  0  0  0  0  0  0  0  0  0  0  0
  -21.8000  -14.2650   20.8100 O   0  0  0  0  0  0  0  0  0  0  0  0
  -22.1400  -11.7360   22.6430 H   0  0  0  0  0  0  0  0  0  0  0  0
  -20.7650  -12.7930   22.5100 H   0  0  0  0  0  0  0  0  0  0  0  0
  -24.7970  -15.0750   20.3160 N   0  0  0  0  0  0  0  0  0  0  0  0
  -23.9760  -15.6600   20.4330 H   0  0  0  0  0  0  0  0  0  0  0  0
  -25.6040  -15.5880   19.9810 H   0  0  0  0  0  0  0  0  0  0  0  0
  -31.6070  -16.8470   21.7990 C   0  0  0  0  0  2  0  0  0  0  0  0
  -32.0470  -15.8930   22.7610 O   0  0  0  0  0  0  0  0  0  0  0  0
  -31.4710  -15.9460   23.5210 H   0  0  0  0  0  0  0  0  0  0  0  0
  -29.7500  -21.0690   19.6620 C   0  0  0  0  0  2  0  0  0  0  0  0
  -29.2790  -22.3740   19.9920 O   0  0  0  0  0  0  0  0  0  0  0  0
  -30.1070  -23.4070   19.4710 C   0  0  0  0  0  2  0  0  0  0  0  0
  -29.7680  -24.7610   20.1220 C   0  0  0  0  0  2  0  0  0  0  0  0
  -28.4340  -25.3970   19.6750 C   0  0  0  0  0  2  0  0  0  0  0  0
  -28.4030  -26.7570   20.1270 O   0  0  0  0  0  0  0  0  0  0  0  0
  -24.5740  -31.8890   23.2140 C   0  0  0  0  0  0  0  0  0  0  0  0
  -27.2080  -27.4510   20.1100 C   0  0  0  0  0  0  0  0  0  0  0  0
  -23.3630  -30.5020   21.5580 C   0  0  0  0  0  3  0  0  0  0  0  0
  -24.8120  -28.9620   20.1300 C   0  0  0  0  0  0  0  0  0  0  0  0
  -25.8880  -30.8510   21.3690 C   0  0  0  0  0  2  0  0  0  0  0  0
  -25.9690  -29.4810   20.7230 C   0  0  0  0  0  0  0  0  0  0  0  0
  -27.1670  -28.7330   20.7090 C   0  0  0  0  0  3  0  0  0  0  0  0
  -26.0270  -26.9440   19.5190 C   0  0  0  0  0  3  0  0  0  0  0  0
  -24.8330  -27.6930   19.5280 C   0  0  0  0  0  3  0  0  0  0  0  0
  -23.5720  -29.8280   20.1750 C   0  0  0  0  0  2  0  0  0  0  0  0
  -24.6260  -31.0950   22.1080 N   0  0  0  0  0  0  0  0  0  0  0  0
  -23.4930  -32.1620   23.7550 O   0  0  0  0  0  0  0  0  0  0  0  0
  -22.7050  -29.4790   22.5110 C   0  0  0  0  0  0  0  0  0  0  0  0
  -21.3820  -29.3060   22.3820 N   0  0  0  0  0  0  0  0  0  0  0  0
  -23.3840  -28.8460   23.3260 O   0  0  0  0  0  0  0  0  0  0  0  0
  -20.8900  -29.8740   21.7030 H   0  0  0  0  0  0  0  0  0  0  0  0
  -18.0010  -28.1270   22.8620 C   0  0  0  0  0  0  0  0  0  0  0  0
  -20.5590  -28.3680   23.1450 C   0  0  0  0  0  3  0  0  0  0  0  0
  -20.6560  -26.9390   22.5640 C   0  0  0  0  0  2  0  0  0  0  0  0
  -19.5560  -26.6260   21.5440 C   0  0  0  0  0  2  0  0  0  0  0  0
  -18.1730  -26.7780   22.1840 C   0  0  0  0  0  2  0  0  0  0  0  0
  -19.1230  -28.8810   23.3010 C   0  0  0  0  0  0  0  0  0  0  0  0
  -18.9080  -30.1440   23.8940 C   0  0  0  0  0  3  0  0  0  0  0  0
  -17.6060  -30.6530   24.0550 C   0  0  0  0  0  3  0  0  0  0  0  0
  -16.4990  -29.8960   23.6310 C   0  0  0  0  0  3  0  0  0  0  0  0
  -16.6990  -28.6360   23.0390 C   0  0  0  0  0  3  0  0  0  0  0  0
  -25.8600  -32.5090   23.8430 C   0  0  0  0  0  3  0  0  0  0  0  0
  -26.3780  -31.7240   25.1110 C   0  0  1  0  0  0  0  0  0  0  0  0
  -25.2840  -31.4830   26.1770 C   0  0  0  0  0  1  0  0  0  0  0  0
  -26.9550  -30.3500   24.7010 C   0  0  0  0  0  1  0  0  0  0  0  0
  -27.5330  -32.5090   25.7780 C   0  0  0  0  0  1  0  0  0  0  0  0
  -25.5620  -33.9050   24.1800 N   0  0  0  0  0  0  0  0  0  0  0  0
  -25.9030  -34.9590   23.4270 C   0  0  0  0  0  0  0  0  0  0  0  0
  -26.5740  -34.8580   22.3950 O   0  0  0  0  0  0  0  0  0  0  0  0
  -24.9690  -34.0640   24.9820 H   0  0  0  0  0  0  0  0  0  0  0  0
  -24.1870  -36.7600   23.0750 C   0  0  0  0  0  1  0  0  0  0  0  0
  -25.4220  -36.3470   23.8900 C   0  0  0  0  0  3  0  0  0  0  0  0
  -27.5590  -37.2130   24.7350 C   0  0  0  0  0  1  0  0  0  0  0  0
  -26.4620  -37.3920   23.7880 N   0  0  0  0  0  0  0  0  0  0  0  0
  -26.0610  -38.3150   23.9390 H   0  0  0  0  0  0  0  0  0  0  0  0
  1  3  1  0
  2  3  1  0
  2  6  1  0
  3  5  1  0
  4  2  2  0
  6 45  1  0
  7 15  1  0
  8 13  1  0
  9 10  1  0
  9  8  1  0
 11 10  1  0
 11 20  1  0
 11 12  1  0
 13  7  1  0
 13 12  1  0
 14  7  2  0
 15  6  1  0
 15 16  1  0
 17 18  2  0
 18 37  1  0
 19 18  1  0
 19 22  1  0
 20 21  1  0
 20 17  1  0
 21 19  2  0
 22 23  1  0
 23 24  2  0
 25 28  1  0
 25 24  1  0
 26 25  2  0
 27 26  1  0
 27 22  2  0
 28 29  1  0
 29 30  1  0
 30 31  2  0
 32 31  1  0
 32 36  1  0
 33 32  2  0
 34 29  2  0
 34 33  1  0
 35 34  1  0
 37 38  1  0
 38 41  1  0
 38 40  1  0
 39 37  2  0
 42 43  1  0
 42 17  1  0
 44 42  1  0
 45 46  1  0
 46 47  1  0
 48 49  1  0
 48  1  1  0
 50 49  1  0
 50 51  1  0
 52 51  1  0
 52 53  1  0
 54 65  2  0
 55 53  1  0
 55 60  1  0
 56 64  1  0
 56 66  1  0
 57 63  1  0
 57 59  1  0
 58 64  1  0
 59 58  1  0
 60 59  2  0
 61 62  1  0
 61 55  2  0
 62 57  2  0
 63 56  1  0
 64 54  1  0
 66 68  2  0
 67 66  1  0
 69 67  1  0
 70 79  2  0
 70 75  1  0
 71 67  1  0
 71 75  1  0
 72 71  1  0
 73 74  1  0
 73 72  1  0
 74 70  1  0
 75 76  2  0
 76 77  1  0
 78 77  2  0
 79 78  1  0
 80 54  1  0
 80 85  1  0
 80 81  1  0
 81 84  1  1
 81 82  1  0
 83 81  1  0
 85 88  1  0
 86 90  1  0
 86 85  1  0
 87 86  2  0
 90 89  1  0
 92 90  1  0
 92 93  1  0
 92 91  1  0
M  ISO  4   7 100  15 100  52 101  53 101
M  END
>  <TORSDO>  (71) 
F 25

>  <SCORE>  (71) 
-10.589

>  <name>  (71) 
72

>  <ligand_id>  (71) 
72

>  <original_smiles>  (71) 
[H]OC([H])([H])C([H])(C(=O)N([H])C([H])([H])C([H])([H])OC([H])([H])C([H])([H])C([H])([H])Oc1c([H])c([H])c2c(c1[H])C([H])([H])N(C(=O)C([H])(N([H])C(=O)C([H])(N([H])C([H])([H])[H])C([H])([H])[H])C(C([H])([H])[H])(C([H])([H])[H])C([H])([H])[H])C([H])(C(=O)N([H])C1([H])c3c([H])c([H])c([H])c([H])c3C([H])([H])C([H])([H])C1([H])[H])C2([H])[H])N([H])C(=O)N1C([H])([H])C([H])([H])C([H])([H])C([H])(n2nc(-c3c([H])c([H])c(Oc4c([H])c([H])c(F)c([H])c4F)c([H])c3[H])c(C(=O)N([H])[H])c2N([H])[H])C1([H])[H]

>  <smiles>  (71) 
[H]OC([H])([H])C([H])(C(=O)N([H])C([H])([H])C([H])([H])OC([H])([H])C([H])([H])C([H])([H])Oc1c([H])c([H])c2c(c1[H])C([H])([H])N(C(=O)C([H])(N([H])C(=O)C([H])(N([H])C([H])([H])[H])C([H])([H])[H])C(C([H])([H])[H])(C([H])([H])[H])C([H])([H])[H])C([H])(C(=O)N([H])C1([H])c3c([H])c([H])c([H])c([H])c3C([H])([H])C([H])([H])C1([H])[H])C2([H])[H])N([H])C(=O)N1C([H])([H])C([H])([H])C([H])([H])C([H])(n2nc(-c3c([H])c([H])c(Oc4c([H])c([H])c(F)c([H])c4F)c([H])c3[H])c(C(=O)N([H])[H])c2N([H])[H])C1([H])[H]

$$$$
73:0:0
     RDKit          3D

 97104  0  0  1  0  0  0  0  0999 V2000
  -28.4750  -23.5690   21.1870 N   0  0  0  0  0  4  0  0  0  0  0  0
  -28.0910  -23.0520   20.4110 H   0  0  0  0  0  0  0  0  0  0  0  0
  -29.4830  -23.6020   21.0770 H   0  0  0  0  0  0  0  0  0  0  0  0
  -28.1920  -22.8500   22.4510 C   0  0  0  0  0  2  0  0  0  0  0  0
  -29.0470  -21.5860   22.5720 C   0  0  0  0  0  2  0  0  0  0  0  0
  -30.2500  -21.8110   21.8380 O   0  0  0  0  0  0  0  0  0  0  0  0
  -31.4040  -21.1630   22.3700 C   0  0  0  0  0  2  0  0  0  0  0  0
  -31.2880  -19.6300   22.4280 C   0  0  0  0  0  2  0  0  0  0  0  0
  -31.6130  -19.0450   21.1700 O   0  0  0  0  0  0  0  0  0  0  0  0
  -31.2790  -17.6650   21.1490 C   0  0  0  0  0  2  0  0  0  0  0  0
  -32.1760  -16.8650   20.1930 C   0  0  0  0  0  2  0  0  0  0  0  0
  -32.2430  -14.4250   19.5990 C   0  0  0  0  0  0  0  0  0  0  0  0
  -31.7770  -12.0840   18.9640 C   0  0  0  0  0  2  0  0  0  0  0  0
  -30.8280  -12.0360   17.7510 C   0  0  0  0  0  2  0  0  0  0  0  0
  -29.3540  -12.1240   18.1940 C   0  0  0  0  0  2  0  0  0  0  0  0
  -29.0960  -13.2860   19.1860 C   0  0  0  0  0  3  0  0  0  0  0  0
  -30.1370  -13.2480   20.3270 C   0  0  0  0  0  2  0  0  0  0  0  0
  -31.4850  -13.3060   19.7240 N   0  0  0  0  0  0  0  0  0  0  0  0
  -33.2820  -14.4920   18.9360 O   0  0  0  0  0  0  0  0  0  0  0  0
  -31.7460  -15.4750   20.2500 N   0  0  0  0  0  0  0  0  0  0  0  0
  -30.9090  -15.2880   20.7810 H   0  0  0  0  0  0  0  0  0  0  0  0
  -26.8460  -14.3060   19.9280 C   0  0  0  0  0  0  0  0  0  0  0  0
  -25.6780  -13.7290   20.3510 C   0  0  0  0  0  0  0  0  0  0  0  0
  -25.9110  -12.3210   20.3550 C   0  0  0  0  0  0  0  0  0  0  0  0
  -27.7280  -13.2570   19.7040 N   0  0  0  0  0  0  0  0  0  0  0  0
  -27.1660  -12.0610   20.0130 N   0  0  0  0  0  0  0  0  0  0  0  0
  -24.9970  -11.2000   20.6100 C   0  0  0  0  0  0  0  0  0  0  0  0
  -25.3000  -10.2020   21.5620 C   0  0  0  0  0  3  0  0  0  0  0  0
  -24.3960   -9.1440   21.8020 C   0  0  0  0  0  3  0  0  0  0  0  0
  -23.1760   -9.0770   21.0880 C   0  0  0  0  0  0  0  0  0  0  0  0
  -22.8900  -10.0610   20.1250 C   0  0  0  0  0  3  0  0  0  0  0  0
  -23.7920  -11.1100   19.8840 C   0  0  0  0  0  3  0  0  0  0  0  0
  -22.2500   -8.0710   21.2350 O   0  0  0  0  0  0  0  0  0  0  0  0
  -22.0360   -7.4620   22.4450 C   0  0  0  0  0  0  0  0  0  0  0  0
  -21.7080   -8.2000   23.6040 C   0  0  0  0  0  3  0  0  0  0  0  0
  -21.4280   -7.5290   24.8100 C   0  0  0  0  0  3  0  0  0  0  0  0
  -21.4650   -6.1220   24.8590 C   0  0  0  0  0  0  0  0  0  0  0  0
  -21.7850   -5.3850   23.7060 C   0  0  0  0  0  3  0  0  0  0  0  0
  -22.0660   -6.0540   22.5010 C   0  0  0  0  0  0  0  0  0  0  0  0
  -22.3540   -5.3380   21.3880 F   0  0  0  0  0  0  0  0  0  0  0  0
  -21.1880   -5.4770   26.0170 F   0  0  0  0  0  0  0  0  0  0  0  0
  -24.3850  -14.4360   20.6460 C   0  0  0  0  0  0  0  0  0  0  0  0
  -23.5930  -13.9050   21.5730 N   0  0  0  0  0  0  0  0  0  0  0  0
  -24.0910  -15.4920   20.0870 O   0  0  0  0  0  0  0  0  0  0  0  0
  -23.8430  -13.0500   22.0450 H   0  0  0  0  0  0  0  0  0  0  0  0
  -22.7250  -14.3630   21.8130 H   0  0  0  0  0  0  0  0  0  0  0  0
  -27.2260  -15.6240   19.6980 N   0  0  0  0  0  0  0  0  0  0  0  0
  -26.5830  -16.4010   19.8010 H   0  0  0  0  0  0  0  0  0  0  0  0
  -28.1220  -15.9010   19.3180 H   0  0  0  0  0  0  0  0  0  0  0  0
  -28.0200  -24.9790   21.1520 C   0  0  0  0  0  3  0  0  0  0  0  0
  -28.8890  -25.7710   22.1360 C   0  0  0  0  0  0  0  0  0  0  0  0
  -28.2950  -26.6240   22.9630 N   0  0  0  0  0  0  0  0  0  0  0  0
  -30.1050  -25.5810   22.1760 O   0  0  0  0  0  0  0  0  0  0  0  0
  -27.2930  -26.7560   22.9410 H   0  0  0  0  0  0  0  0  0  0  0  0
  -28.8430  -27.1450   23.6330 H   0  0  0  0  0  0  0  0  0  0  0  0
  -28.1400  -25.5580   19.7170 C   0  0  0  0  0  2  0  0  0  0  0  0
  -28.1440  -26.9910   19.7030 O   0  0  0  0  0  0  0  0  0  0  0  0
  -24.5100  -31.9440   23.2540 C   0  0  0  0  0  0  0  0  0  0  0  0
  -26.9470  -27.6590   19.8130 C   0  0  0  0  0  0  0  0  0  0  0  0
  -23.1980  -30.6140   21.6320 C   0  0  0  0  0  3  0  0  0  0  0  0
  -24.5520  -29.1380   20.0570 C   0  0  0  0  0  0  0  0  0  0  0  0
  -25.7040  -30.9880   21.2870 C   0  0  0  0  0  2  0  0  0  0  0  0
  -25.7460  -29.6470   20.5850 C   0  0  0  0  0  0  0  0  0  0  0  0
  -26.9440  -28.9150   20.4550 C   0  0  0  0  0  3  0  0  0  0  0  0
  -25.7320  -27.1510   19.2920 C   0  0  0  0  0  3  0  0  0  0  0  0
  -24.5390  -27.8880   19.4140 C   0  0  0  0  0  3  0  0  0  0  0  0
  -23.3160  -29.9940   20.2150 C   0  0  0  0  0  2  0  0  0  0  0  0
  -24.4930  -31.1950   22.1150 N   0  0  0  0  0  0  0  0  0  0  0  0
  -23.4660  -32.1920   23.8730 O   0  0  0  0  0  0  0  0  0  0  0  0
  -22.6070  -29.5510   22.5870 C   0  0  0  0  0  0  0  0  0  0  0  0
  -21.2970  -29.2870   22.4500 N   0  0  0  0  0  0  0  0  0  0  0  0
  -23.3240  -28.9670   23.4030 O   0  0  0  0  0  0  0  0  0  0  0  0
  -20.7800  -29.8130   21.7590 H   0  0  0  0  0  0  0  0  0  0  0  0
  -18.0370  -27.7760   22.8090 C   0  0  0  0  0  0  0  0  0  0  0  0
  -20.5360  -28.3000   23.2120 C   0  0  0  0  0  3  0  0  0  0  0  0
  -20.8130  -26.8670   22.7020 C   0  0  0  0  0  2  0  0  0  0  0  0
  -19.8100  -26.4000   21.6420 C   0  0  0  0  0  2  0  0  0  0  0  0
  -18.3850  -26.4280   22.2040 C   0  0  0  0  0  2  0  0  0  0  0  0
  -19.0470  -28.6620   23.2690 C   0  0  0  0  0  0  0  0  0  0  0  0
  -18.6720  -29.9190   23.7920 C   0  0  0  0  0  3  0  0  0  0  0  0
  -17.3170  -30.2910   23.8640 C   0  0  0  0  0  3  0  0  0  0  0  0
  -16.3200  -29.4050   23.4210 C   0  0  0  0  0  3  0  0  0  0  0  0
  -16.6800  -28.1510   22.8970 C   0  0  0  0  0  3  0  0  0  0  0  0
  -25.8350  -32.5460   23.8180 C   0  0  0  0  0  3  0  0  0  0  0  0
  -25.5820  -33.9600   24.1250 N   0  0  0  0  0  0  0  0  0  0  0  0
  -25.9500  -34.9840   23.3430 C   0  0  0  0  0  0  0  0  0  0  0  0
  -26.6080  -34.8340   22.3100 O   0  0  0  0  0  0  0  0  0  0  0  0
  -24.9960  -34.1520   24.9240 H   0  0  0  0  0  0  0  0  0  0  0  0
  -24.2890  -36.8330   22.9640 C   0  0  0  0  0  1  0  0  0  0  0  0
  -25.5180  -36.3970   23.7770 C   0  0  0  0  0  3  0  0  0  0  0  0
  -27.6930  -37.2100   24.5740 C   0  0  0  0  0  1  0  0  0  0  0  0
  -26.5900  -37.4080   23.6390 N   0  0  0  0  0  0  0  0  0  0  0  0
  -26.2220  -38.3460   23.7760 H   0  0  0  0  0  0  0  0  0  0  0  0
  -26.3730  -31.7830   25.0900 C   0  0  1  0  0  0  0  0  0  0  0  0
  -25.3120  -31.5980   26.2010 C   0  0  0  0  0  1  0  0  0  0  0  0
  -26.9000  -30.3830   24.7020 C   0  0  0  0  0  1  0  0  0  0  0  0
  -27.5710  -32.5530   25.6930 C   0  0  0  0  0  1  0  0  0  0  0  0
  1  4  1  0
  2  1  1  0
  3  1  1  0
  4  5  1  0
  6  7  1  0
  6  5  1  0
  7  8  1  0
  9  8  1  0
 10  9  1  0
 11 20  1  0
 11 10  1  0
 12 18  1  0
 12 20  1  0
 13 18  1  0
 14 15  1  0
 14 13  1  0
 16 15  1  0
 16 25  1  0
 16 17  1  0
 18 17  1  0
 19 12  2  0
 20 21  1  0
 22 23  2  0
 23 24  1  0
 23 42  1  0
 24 27  1  0
 25 22  1  0
 25 26  1  0
 26 24  2  0
 27 28  1  0
 28 29  2  0
 30 33  1  0
 30 29  1  0
 31 30  2  0
 32 31  1  0
 32 27  2  0
 33 34  1  0
 34 39  2  0
 34 35  1  0
 35 36  2  0
 36 37  1  0
 37 41  1  0
 38 37  2  0
 39 38  1  0
 40 39  1  0
 42 43  1  0
 43 46  1  0
 43 45  1  0
 44 42  2  0
 47 48  1  0
 47 22  1  0
 49 47  1  0
 50 56  1  0
 50  1  1  0
 50 51  1  0
 51 53  2  0
 51 52  1  0
 52 55  1  0
 54 52  1  0
 57 56  1  0
 57 59  1  0
 58 69  2  0
 59 64  1  0
 60 68  1  0
 60 70  1  0
 61 67  1  0
 61 63  1  0
 62 68  1  0
 63 62  1  0
 64 63  2  0
 65 66  1  0
 65 59  2  0
 66 61  2  0
 67 60  1  0
 68 58  1  0
 70 72  2  0
 71 70  1  0
 73 71  1  0
 74 83  2  0
 74 79  1  0
 75 71  1  0
 75 79  1  0
 76 75  1  0
 77 78  1  0
 77 76  1  0
 78 74  1  0
 79 80  2  0
 80 81  1  0
 82 81  2  0
 83 82  1  0
 84 58  1  0
 84 85  1  0
 84 94  1  0
 85 88  1  0
 86 90  1  0
 86 85  1  0
 87 86  2  0
 90 89  1  0
 92 93  1  0
 92 90  1  0
 92 91  1  0
 94 97  1  1
 94 95  1  0
 96 94  1  0
M  ISO  4  12 100  20 100  56 101  57 101
M  END
>  <TORSDO>  (72) 
F 27

>  <SCORE>  (72) 
-9.510

>  <name>  (72) 
73

>  <ligand_id>  (72) 
73

>  <original_smiles>  (72) 
[H]c1c([H])c([H])c2c(c1[H])C([H])([H])C([H])([H])C([H])([H])C2([H])N([H])C(=O)C1([H])N(C(=O)C([H])(N([H])C(=O)C([H])(N([H])C([H])([H])[H])C([H])([H])[H])C(C([H])([H])[H])(C([H])([H])[H])C([H])([H])[H])C([H])([H])c2c([H])c(OC([H])([H])C([H])(C(=O)N([H])[H])[N+]([H])([H])C([H])([H])C([H])([H])OC([H])([H])C([H])([H])OC([H])([H])C([H])([H])N([H])C(=O)N3C([H])([H])C([H])([H])C([H])([H])C([H])(n4nc(-c5c([H])c([H])c(Oc6c([H])c([H])c(F)c([H])c6F)c([H])c5[H])c(C(=O)N([H])[H])c4N([H])[H])C3([H])[H])c([H])c([H])c2C1([H])[H]

>  <smiles>  (72) 
[H]c1c([H])c([H])c2c(c1[H])C([H])([H])C([H])([H])C([H])([H])C2([H])N([H])C(=O)C1([H])N(C(=O)C([H])(N([H])C(=O)C([H])(N([H])C([H])([H])[H])C([H])([H])[H])C(C([H])([H])[H])(C([H])([H])[H])C([H])([H])[H])C([H])([H])c2c([H])c(OC([H])([H])C([H])(C(=O)N([H])[H])[N+]([H])([H])C([H])([H])C([H])([H])OC([H])([H])C([H])([H])OC([H])([H])C([H])([H])N([H])C(=O)N3C([H])([H])C([H])([H])C([H])([H])C([H])(n4nc(-c5c([H])c([H])c(Oc6c([H])c([H])c(F)c([H])c6F)c([H])c5[H])c(C(=O)N([H])[H])c4N([H])[H])C3([H])[H])c([H])c([H])c2C1([H])[H]

$$$$
74:0:0
     RDKit          3D

 94101  0  0  1  0  0  0  0  0999 V2000
  -30.4470  -19.3530   23.0900 C   0  0  0  0  0  2  0  0  0  0  0  0
  -31.3650  -17.0230   23.5730 C   0  0  0  0  0  1  0  0  0  0  0  0
  -30.7010  -17.9360   22.5340 C   0  0  0  0  0  3  0  0  0  0  0  0
  -31.2800  -17.7930   20.0690 C   0  0  0  0  0  0  0  0  0  0  0  0
  -31.5590  -18.0410   21.3560 N   0  0  0  0  0  0  0  0  0  0  0  0
  -32.0720  -18.1670   19.2050 O   0  0  0  0  0  0  0  0  0  0  0  0
  -32.4410  -18.5080   21.5130 H   0  0  0  0  0  0  0  0  0  0  0  0
  -28.7450  -17.8440   19.7090 C   0  0  0  0  0  1  0  0  0  0  0  0
  -30.0300  -16.9970   19.6230 C   0  0  0  0  0  3  0  0  0  0  0  0
  -30.6710  -14.6740   20.1340 C   0  0  0  0  0  0  0  0  0  0  0  0
  -30.4130  -12.4570   19.1360 C   0  0  0  0  0  2  0  0  0  0  0  0
  -29.4320  -12.5930   17.9510 C   0  0  0  0  0  2  0  0  0  0  0  0
  -27.9750  -12.4370   18.4290 C   0  0  0  0  0  2  0  0  0  0  0  0
  -27.6450  -13.3180   19.6630 C   0  0  0  0  0  3  0  0  0  0  0  0
  -28.7380  -13.1840   20.7500 C   0  0  0  0  0  2  0  0  0  0  0  0
  -30.0430  -13.4720   20.1310 N   0  0  0  0  0  0  0  0  0  0  0  0
  -31.8110  -14.8420   19.6980 O   0  0  0  0  0  0  0  0  0  0  0  0
  -29.8470  -15.7160   20.3160 N   0  0  0  0  0  0  0  0  0  0  0  0
  -28.9280  -15.5030   20.6660 H   0  0  0  0  0  0  0  0  0  0  0  0
  -25.2770  -13.8830   20.5020 C   0  0  0  0  0  0  0  0  0  0  0  0
  -24.2340  -13.0900   20.8970 C   0  0  0  0  0  0  0  0  0  0  0  0
  -24.7030  -11.7430   20.8010 C   0  0  0  0  0  0  0  0  0  0  0  0
  -26.3160  -13.0190   20.1940 N   0  0  0  0  0  0  0  0  0  0  0  0
  -25.9770  -11.7270   20.4300 N   0  0  0  0  0  0  0  0  0  0  0  0
  -23.9990  -10.4670   20.9790 C   0  0  0  0  0  0  0  0  0  0  0  0
  -24.4220   -9.5170   21.9360 C   0  0  0  0  0  3  0  0  0  0  0  0
  -23.7150   -8.3080   22.1020 C   0  0  0  0  0  3  0  0  0  0  0  0
  -22.5750   -8.0370   21.3090 C   0  0  0  0  0  0  0  0  0  0  0  0
  -22.1730   -8.9750   20.3430 C   0  0  0  0  0  3  0  0  0  0  0  0
  -22.8800  -10.1770   20.1740 C   0  0  0  0  0  3  0  0  0  0  0  0
  -21.8430   -6.8770   21.3850 O   0  0  0  0  0  0  0  0  0  0  0  0
  -21.6930   -6.1950   22.5650 C   0  0  0  0  0  0  0  0  0  0  0  0
  -21.0920   -6.7880   23.6980 C   0  0  0  0  0  3  0  0  0  0  0  0
  -20.8950   -6.0290   24.8680 C   0  0  0  0  0  3  0  0  0  0  0  0
  -21.2880   -4.6780   24.9060 C   0  0  0  0  0  0  0  0  0  0  0  0
  -21.8810   -4.0840   23.7790 C   0  0  0  0  0  3  0  0  0  0  0  0
  -22.0800   -4.8400   22.6100 C   0  0  0  0  0  0  0  0  0  0  0  0
  -22.6320   -4.2570   21.5190 F   0  0  0  0  0  0  0  0  0  0  0  0
  -21.0910   -3.9460   26.0270 F   0  0  0  0  0  0  0  0  0  0  0  0
  -22.8440  -13.5430   21.2460 C   0  0  0  0  0  0  0  0  0  0  0  0
  -22.1640  -12.8140   22.1240 N   0  0  0  0  0  0  0  0  0  0  0  0
  -22.3730  -14.5780   20.7760 O   0  0  0  0  0  0  0  0  0  0  0  0
  -22.5570  -11.9760   22.5260 H   0  0  0  0  0  0  0  0  0  0  0  0
  -21.2350  -13.0990   22.4000 H   0  0  0  0  0  0  0  0  0  0  0  0
  -25.4220  -15.2610   20.3620 N   0  0  0  0  0  0  0  0  0  0  0  0
  -24.6530  -15.9020   20.5240 H   0  0  0  0  0  0  0  0  0  0  0  0
  -26.2430  -15.7190   19.9870 H   0  0  0  0  0  0  0  0  0  0  0  0
  -30.1120  -20.2480   22.0310 O   0  0  0  0  0  0  0  0  0  0  0  0
  -29.9660  -21.5970   22.4600 C   0  0  0  0  0  2  0  0  0  0  0  0
  -29.8090  -22.5300   21.2450 C   0  0  0  0  0  2  0  0  0  0  0  0
  -29.5800  -23.8660   21.6840 O   0  0  0  0  0  0  0  0  0  0  0  0
  -29.5140  -24.8230   20.6260 C   0  0  0  0  0  2  0  0  0  0  0  0
  -29.1030  -26.1890   21.2080 C   0  0  0  0  0  2  0  0  0  0  0  0
  -28.9900  -27.1880   20.1890 O   0  0  0  0  0  0  0  0  0  0  0  0
  -24.7860  -31.9630   23.3800 C   0  0  0  0  0  0  0  0  0  0  0  0
  -27.7900  -27.8520   20.1980 C   0  0  0  0  0  0  0  0  0  0  0  0
  -23.7140  -30.5610   21.6440 C   0  0  0  0  0  3  0  0  0  0  0  0
  -25.3030  -29.1810   20.2020 C   0  0  0  0  0  0  0  0  0  0  0  0
  -26.2130  -31.0930   21.5350 C   0  0  0  0  0  2  0  0  0  0  0  0
  -26.4060  -29.7570   20.8450 C   0  0  0  0  0  0  0  0  0  0  0  0
  -27.6540  -29.0980   20.8450 C   0  0  0  0  0  3  0  0  0  0  0  0
  -26.6750  -27.2800   19.5520 C   0  0  0  0  0  3  0  0  0  0  0  0
  -25.4300  -27.9390   19.5540 C   0  0  0  0  0  3  0  0  0  0  0  0
  -24.0040  -29.9540   20.2440 C   0  0  0  0  0  2  0  0  0  0  0  0
  -24.9200  -31.2180   22.2450 N   0  0  0  0  0  0  0  0  0  0  0  0
  -23.6760  -32.1420   23.8990 O   0  0  0  0  0  0  0  0  0  0  0  0
  -23.1050  -29.4600   22.5410 C   0  0  0  0  0  0  0  0  0  0  0  0
  -21.7960  -29.2110   22.3740 N   0  0  0  0  0  0  0  0  0  0  0  0
  -23.8070  -28.8360   23.3430 O   0  0  0  0  0  0  0  0  0  0  0  0
  -21.2910  -29.7680   21.6990 H   0  0  0  0  0  0  0  0  0  0  0  0
  -18.4830  -27.8170   22.7420 C   0  0  0  0  0  0  0  0  0  0  0  0
  -21.0170  -28.1960   23.0810 C   0  0  0  0  0  3  0  0  0  0  0  0
  -21.2090  -26.8020   22.4380 C   0  0  0  0  0  2  0  0  0  0  0  0
  -20.1430  -26.4740   21.3850 C   0  0  0  0  0  2  0  0  0  0  0  0
  -18.7440  -26.5140   22.0060 C   0  0  0  0  0  2  0  0  0  0  0  0
  -19.5510  -28.6140   23.2340 C   0  0  0  0  0  0  0  0  0  0  0  0
  -19.2540  -29.8340   23.8800 C   0  0  0  0  0  3  0  0  0  0  0  0
  -17.9220  -30.2580   24.0410 C   0  0  0  0  0  3  0  0  0  0  0  0
  -16.8680  -29.4570   23.5680 C   0  0  0  0  0  3  0  0  0  0  0  0
  -17.1490  -28.2390   22.9240 C   0  0  0  0  0  3  0  0  0  0  0  0
  -26.0140  -32.6420   24.0620 C   0  0  0  0  0  3  0  0  0  0  0  0
  -26.4730  -31.9140   25.3850 C   0  0  1  0  0  0  0  0  0  0  0  0
  -25.3140  -31.6450   26.3740 C   0  0  0  0  0  1  0  0  0  0  0  0
  -27.1450  -30.5590   25.0600 C   0  0  0  0  0  1  0  0  0  0  0  0
  -27.5370  -32.7690   26.1150 C   0  0  0  0  0  1  0  0  0  0  0  0
  -25.6520  -34.0390   24.3350 N   0  0  0  0  0  0  0  0  0  0  0  0
  -25.9910  -35.0760   23.5580 C   0  0  0  0  0  0  0  0  0  0  0  0
  -26.7120  -34.9610   22.5630 O   0  0  0  0  0  0  0  0  0  0  0  0
  -25.0160  -34.2010   25.1020 H   0  0  0  0  0  0  0  0  0  0  0  0
  -24.2200  -36.7950   23.0750 C   0  0  0  0  0  1  0  0  0  0  0  0
  -25.4420  -36.4620   23.9470 C   0  0  0  0  0  3  0  0  0  0  0  0
  -27.5110  -37.4490   24.8270 C   0  0  0  0  0  1  0  0  0  0  0  0
  -26.4440  -37.5450   23.8350 N   0  0  0  0  0  0  0  0  0  0  0  0
  -26.0030  -38.4560   23.9300 H   0  0  0  0  0  0  0  0  0  0  0  0
  3  1  1  0
  3  2  1  0
  4  5  1  0
  5  7  1  0
  5  3  1  0
  6  4  2  0
  9  8  1  0
  9  4  1  0
  9 18  1  0
 10 18  1  0
 11 16  1  0
 12 13  1  0
 12 11  1  0
 14 13  1  0
 14 23  1  0
 14 15  1  0
 16 10  1  0
 16 15  1  0
 17 10  2  0
 18 19  1  0
 20 21  2  0
 21 40  1  0
 22 21  1  0
 22 25  1  0
 23 24  1  0
 23 20  1  0
 24 22  2  0
 25 26  1  0
 26 27  2  0
 28 31  1  0
 28 27  1  0
 29 28  2  0
 30 29  1  0
 30 25  2  0
 31 32  1  0
 32 37  2  0
 32 33  1  0
 33 34  2  0
 34 35  1  0
 35 39  1  0
 36 35  2  0
 37 36  1  0
 38 37  1  0
 40 41  1  0
 41 44  1  0
 41 43  1  0
 42 40  2  0
 45 20  1  0
 45 46  1  0
 47 45  1  0
 48 49  1  0
 48  1  1  0
 50 51  1  0
 50 49  1  0
 52 53  1  0
 52 51  1  0
 54 56  1  0
 54 53  1  0
 55 66  2  0
 56 61  1  0
 57 65  1  0
 57 67  1  0
 58 64  1  0
 58 60  1  0
 59 65  1  0
 60 61  2  0
 60 59  1  0
 62 63  1  0
 62 56  2  0
 63 58  2  0
 64 57  1  0
 65 55  1  0
 67 69  2  0
 68 67  1  0
 70 68  1  0
 71 80  2  0
 71 76  1  0
 72 68  1  0
 72 76  1  0
 73 72  1  0
 74 75  1  0
 74 73  1  0
 75 71  1  0
 76 77  2  0
 77 78  1  0
 79 78  2  0
 80 79  1  0
 81 55  1  0
 81 86  1  0
 81 82  1  0
 82 85  1  1
 82 83  1  0
 84 82  1  0
 86 89  1  0
 87 91  1  0
 87 86  1  0
 88 87  2  0
 91 90  1  0
 93 94  1  0
 93 91  1  0
 93 92  1  0
M  ISO  4  10 100  18 100  53 101  54 101
M  END
>  <TORSDO>  (73) 
F 25

>  <SCORE>  (73) 
-10.088

>  <name>  (73) 
74

>  <ligand_id>  (73) 
74

>  <original_smiles>  (73) 
[H]c1c([H])c([H])c2c(c1[H])C([H])([H])C([H])([H])C([H])([H])C2([H])N([H])C(=O)C1([H])N(C(=O)C([H])(N([H])C(=O)C([H])(N([H])C([H])([H])[H])C([H])([H])[H])C(C([H])([H])[H])(C([H])([H])[H])C([H])([H])[H])C([H])([H])c2c([H])c(OC([H])([H])C([H])([H])OC([H])([H])C([H])([H])OC([H])([H])C([H])(N([H])C(=O)C([H])(N([H])C(=O)N3C([H])([H])C([H])([H])C([H])([H])C([H])(n4nc(-c5c([H])c([H])c(Oc6c([H])c([H])c(F)c([H])c6F)c([H])c5[H])c(C(=O)N([H])[H])c4N([H])[H])C3([H])[H])C([H])([H])[H])C([H])([H])[H])c([H])c([H])c2C1([H])[H]

>  <smiles>  (73) 
[H]c1c([H])c([H])c2c(c1[H])C([H])([H])C([H])([H])C([H])([H])C2([H])N([H])C(=O)C1([H])N(C(=O)C([H])(N([H])C(=O)C([H])(N([H])C([H])([H])[H])C([H])([H])[H])C(C([H])([H])[H])(C([H])([H])[H])C([H])([H])[H])C([H])([H])c2c([H])c(OC([H])([H])C([H])([H])OC([H])([H])C([H])([H])OC([H])([H])C([H])(N([H])C(=O)C([H])(N([H])C(=O)N3C([H])([H])C([H])([H])C([H])([H])C([H])(n4nc(-c5c([H])c([H])c(Oc6c([H])c([H])c(F)c([H])c6F)c([H])c5[H])c(C(=O)N([H])[H])c4N([H])[H])C3([H])[H])C([H])([H])[H])C([H])([H])[H])c([H])c([H])c2C1([H])[H]

$$$$
75:0:0
     RDKit          3D

102110  0  0  1  0  0  0  0  0999 V2000
  -24.7240  -19.4920   18.2260 C   0  0  0  0  0  2  0  0  0  0  0  0
  -24.9130  -18.3290   19.0230 O   0  0  0  0  0  0  0  0  0  0  0  0
  -25.4490  -17.2430   18.2640 C   0  0  0  0  0  2  0  0  0  0  0  0
  -26.8040  -16.7930   18.8350 C   0  0  0  0  0  2  0  0  0  0  0  0
  -27.5640  -17.9380   19.2230 O   0  0  0  0  0  0  0  0  0  0  0  0
  -29.7810  -18.1230   22.1750 C   0  0  0  0  0  3  0  0  0  0  0  0
  -28.7950  -18.4420   21.2270 C   0  0  0  0  0  3  0  0  0  0  0  0
  -29.4610  -16.5830   19.8410 C   0  0  0  0  0  3  0  0  0  0  0  0
  -30.6160  -17.0100   21.9630 C   0  0  0  0  0  0  0  0  0  0  0  0
  -30.4560  -16.2580   20.7800 C   0  0  0  0  0  0  0  0  0  0  0  0
  -28.5910  -17.6530   20.0840 C   0  0  0  0  0  0  0  0  0  0  0  0
  -31.6720  -14.0920   20.7140 C   0  0  0  0  0  0  0  0  0  0  0  0
  -30.9280  -12.5080   19.0390 C   0  0  0  0  0  2  0  0  0  0  0  0
  -30.0320  -13.2450   18.0260 C   0  0  0  0  0  2  0  0  0  0  0  0
  -28.5600  -13.1870   18.4840 C   0  0  0  0  0  2  0  0  0  0  0  0
  -28.3560  -13.5780   19.9730 C   0  0  0  0  0  3  0  0  0  0  0  0
  -29.4170  -12.9500   20.9060 C   0  0  0  0  0  2  0  0  0  0  0  0
  -30.7430  -13.1900   20.3210 N   0  0  0  0  0  0  0  0  0  0  0  0
  -32.8770  -13.9000   20.6980 O   0  0  0  0  0  0  0  0  0  0  0  0
  -31.4180  -15.3430   20.3520 N   0  0  0  0  0  0  0  0  0  0  0  0
  -32.2870  -15.8040   20.1300 H   0  0  0  0  0  0  0  0  0  0  0  0
  -25.9580  -14.2050   20.6460 C   0  0  0  0  0  0  0  0  0  0  0  0
  -24.8610  -13.4400   20.9420 C   0  0  0  0  0  0  0  0  0  0  0  0
  -25.2970  -12.0820   20.8830 C   0  0  0  0  0  0  0  0  0  0  0  0
  -26.9920  -13.3110   20.4170 N   0  0  0  0  0  0  0  0  0  0  0  0
  -26.5960  -12.0280   20.6200 N   0  0  0  0  0  0  0  0  0  0  0  0
  -24.5420  -10.8260   20.9990 C   0  0  0  0  0  0  0  0  0  0  0  0
  -24.8830   -9.8390   21.9500 C   0  0  0  0  0  3  0  0  0  0  0  0
  -24.1300   -8.6490   22.0510 C   0  0  0  0  0  3  0  0  0  0  0  0
  -23.0180   -8.4390   21.2000 C   0  0  0  0  0  0  0  0  0  0  0  0
  -22.6970   -9.4150   20.2390 C   0  0  0  0  0  3  0  0  0  0  0  0
  -23.4520  -10.5940   20.1360 C   0  0  0  0  0  3  0  0  0  0  0  0
  -22.2480   -7.3020   21.2120 O   0  0  0  0  0  0  0  0  0  0  0  0
  -21.8980   -6.6840   22.3860 C   0  0  0  0  0  0  0  0  0  0  0  0
  -21.2250   -7.3730   23.4180 C   0  0  0  0  0  3  0  0  0  0  0  0
  -20.8150   -6.6790   24.5770 C   0  0  0  0  0  3  0  0  0  0  0  0
  -21.0760   -5.3020   24.7020 C   0  0  0  0  0  0  0  0  0  0  0  0
  -21.7470   -4.6150   23.6760 C   0  0  0  0  0  3  0  0  0  0  0  0
  -22.1510   -5.3030   22.5180 C   0  0  0  0  0  0  0  0  0  0  0  0
  -22.7750   -4.6320   21.5190 F   0  0  0  0  0  0  0  0  0  0  0  0
  -20.6810   -4.6330   25.8110 F   0  0  0  0  0  0  0  0  0  0  0  0
  -23.4630  -13.9390   21.1740 C   0  0  0  0  0  0  0  0  0  0  0  0
  -22.6940  -13.2460   22.0050 N   0  0  0  0  0  0  0  0  0  0  0  0
  -23.0600  -14.9770   20.6560 O   0  0  0  0  0  0  0  0  0  0  0  0
  -23.0280  -12.4020   22.4450 H   0  0  0  0  0  0  0  0  0  0  0  0
  -21.7480  -13.5580   22.1860 H   0  0  0  0  0  0  0  0  0  0  0  0
  -26.1560  -15.5760   20.5350 N   0  0  0  0  0  0  0  0  0  0  0  0
  -25.3970  -16.2390   20.6440 H   0  0  0  0  0  0  0  0  0  0  0  0
  -27.0470  -16.0170   20.3520 H   0  0  0  0  0  0  0  0  0  0  0  0
  -31.6170  -16.7170   22.8900 N   0  0  0  0  0  0  0  0  0  0  0  0
  -32.4400  -16.2160   22.5800 H   0  0  0  0  0  0  0  0  0  0  0  0
  -31.8180  -17.3910   23.6230 H   0  0  0  0  0  0  0  0  0  0  0  0
  -24.7550  -20.7860   19.0610 C   0  0  0  0  0  2  0  0  0  0  0  0
  -25.5900  -21.8010   18.3620 N   0  0  0  0  0  4  0  0  0  0  0  0
  -26.2130  -21.3020   17.7470 H   0  0  0  0  0  0  0  0  0  0  0  0
  -24.9910  -22.3540   17.7660 H   0  0  0  0  0  0  0  0  0  0  0  0
  -26.4080  -22.7110   19.2040 C   0  0  0  0  0  2  0  0  0  0  0  0
  -27.8620  -22.8360   18.6730 C   0  0  0  0  0  2  0  0  0  0  0  0
  -28.6540  -23.7570   19.4270 O   0  0  0  0  0  0  0  0  0  0  0  0
  -28.2480  -25.1050   19.2430 C   0  0  0  0  0  2  0  0  0  0  0  0
  -28.9730  -26.0890   20.1910 C   0  0  0  0  0  2  0  0  0  0  0  0
  -28.9300  -27.4810   19.8100 O   0  0  0  0  0  0  0  0  0  0  0  0
  -24.5910  -31.7230   23.5690 C   0  0  0  0  0  0  0  0  0  0  0  0
  -27.7030  -28.1010   19.9030 C   0  0  0  0  0  0  0  0  0  0  0  0
  -23.5540  -30.4560   21.7220 C   0  0  0  0  0  3  0  0  0  0  0  0
  -25.1640  -29.3300   20.1080 C   0  0  0  0  0  0  0  0  0  0  0  0
  -26.0260  -31.1130   21.6220 C   0  0  0  0  0  2  0  0  0  0  0  0
  -26.2610  -29.8690   20.7920 C   0  0  0  0  0  0  0  0  0  0  0  0
  -27.5330  -29.2580   20.6970 C   0  0  0  0  0  3  0  0  0  0  0  0
  -26.5920  -27.6160   19.1780 C   0  0  0  0  0  3  0  0  0  0  0  0
  -25.3240  -28.1970   19.3010 C   0  0  0  0  0  3  0  0  0  0  0  0
  -23.8360  -30.0310   20.2580 C   0  0  0  0  0  2  0  0  0  0  0  0
  -24.7410  -31.1050   22.3650 N   0  0  0  0  0  0  0  0  0  0  0  0
  -23.4850  -31.7820   24.1260 O   0  0  0  0  0  0  0  0  0  0  0  0
  -23.0270  -29.2280   22.5010 C   0  0  0  0  0  0  0  0  0  0  0  0
  -21.7720  -28.8410   22.2260 N   0  0  0  0  0  0  0  0  0  0  0  0
  -23.7460  -28.6390   23.3120 O   0  0  0  0  0  0  0  0  0  0  0  0
  -21.2480  -29.3820   21.5510 H   0  0  0  0  0  0  0  0  0  0  0  0
  -18.6880  -26.9570   22.1580 C   0  0  0  0  0  0  0  0  0  0  0  0
  -21.0770  -27.6940   22.8130 C   0  0  0  0  0  3  0  0  0  0  0  0
  -21.5520  -26.3680   22.1750 C   0  0  0  0  0  2  0  0  0  0  0  0
  -20.6850  -25.9220   20.9950 C   0  0  0  0  0  2  0  0  0  0  0  0
  -19.2300  -25.7330   21.4390 C   0  0  0  0  0  2  0  0  0  0  0  0
  -19.5570  -27.8850   22.7890 C   0  0  0  0  0  0  0  0  0  0  0  0
  -19.0050  -29.0240   23.4150 C   0  0  0  0  0  3  0  0  0  0  0  0
  -17.6140  -29.2440   23.4130 C   0  0  0  0  0  3  0  0  0  0  0  0
  -16.7570  -28.3130   22.8000 C   0  0  0  0  0  3  0  0  0  0  0  0
  -17.2930  -27.1700   22.1800 C   0  0  0  0  0  3  0  0  0  0  0  0
  -25.7960  -32.3950   24.2940 C   0  0  0  0  0  3  0  0  0  0  0  0
  -25.4750  -33.8170   24.4520 N   0  0  0  0  0  0  0  0  0  0  0  0
  -25.9800  -34.7990   23.6930 C   0  0  0  0  0  0  0  0  0  0  0  0
  -26.8330  -34.6010   22.8240 O   0  0  0  0  0  0  0  0  0  0  0  0
  -24.7380  -34.0440   25.1050 H   0  0  0  0  0  0  0  0  0  0  0  0
  -24.4690  -36.6150   22.8230 C   0  0  0  0  0  1  0  0  0  0  0  0
  -25.4570  -36.2290   23.9370 C   0  0  0  0  0  3  0  0  0  0  0  0
  -27.3660  -37.1040   25.2130 C   0  0  0  0  0  1  0  0  0  0  0  0
  -26.5330  -37.2420   24.0220 N   0  0  0  0  0  0  0  0  0  0  0  0
  -26.1430  -38.1810   24.0130 H   0  0  0  0  0  0  0  0  0  0  0  0
  -26.1250  -31.7370   25.6890 C   0  0  1  0  0  0  0  0  0  0  0  0
  -24.8980  -31.6090   26.6220 C   0  0  0  0  0  1  0  0  0  0  0  0
  -26.7230  -30.3240   25.4970 C   0  0  0  0  0  1  0  0  0  0  0  0
  -27.1940  -32.5790   26.4250 C   0  0  0  0  0  1  0  0  0  0  0  0
  1  2  1  0
  1 53  1  0
  3  4  1  0
  3  2  1  0
  4  5  1  0
  5 11  1  0
  7  6  2  0
  8 11  2  0
  8 10  1  0
  9  6  1  0
  9 50  1  0
 10  9  2  0
 11  7  1  0
 13 18  1  0
 14 15  1  0
 14 13  1  0
 16 15  1  0
 16 25  1  0
 16 17  1  0
 18 12  1  0
 18 17  1  0
 19 12  2  0
 20 12  1  0
 20 10  1  0
 21 20  1  0
 22 23  2  0
 23 42  1  0
 24 23  1  0
 24 27  1  0
 25 26  1  0
 25 22  1  0
 26 24  2  0
 27 28  1  0
 28 29  2  0
 30 33  1  0
 30 29  1  0
 31 30  2  0
 32 31  1  0
 32 27  2  0
 33 34  1  0
 34 39  2  0
 34 35  1  0
 35 36  2  0
 36 37  1  0
 37 41  1  0
 38 37  2  0
 39 38  1  0
 40 39  1  0
 42 43  1  0
 43 46  1  0
 43 45  1  0
 44 42  2  0
 47 48  1  0
 47 22  1  0
 49 47  1  0
 50 52  1  0
 51 50  1  0
 54 53  1  0
 54 57  1  0
 55 54  1  0
 56 54  1  0
 58 57  1  0
 58 59  1  0
 60 59  1  0
 60 61  1  0
 62 64  1  0
 62 61  1  0
 63 74  2  0
 64 69  1  0
 65 73  1  0
 65 75  1  0
 66 72  1  0
 66 68  1  0
 67 73  1  0
 68 67  1  0
 69 68  2  0
 70 71  1  0
 70 64  2  0
 71 66  2  0
 72 65  1  0
 73 63  1  0
 75 77  2  0
 76 75  1  0
 78 76  1  0
 79 88  2  0
 79 84  1  0
 80 76  1  0
 81 80  1  0
 82 83  1  0
 82 81  1  0
 83 79  1  0
 84 80  1  0
 84 85  2  0
 86 85  1  0
 87 86  2  0
 88 87  1  0
 89 63  1  0
 89 90  1  0
 89 99  1  0
 90 93  1  0
 91 95  1  0
 91 90  1  0
 92 91  2  0
 95 94  1  0
 95 97  1  0
 97 96  1  0
 98 97  1  0
 99102  1  1
 99100  1  0
101 99  1  0
M  ISO  4  12 100  20 100  61 101  62 101
M  END
>  <TORSDO>  (74) 
F 29

>  <SCORE>  (74) 
-3.041

>  <name>  (74) 
75

>  <ligand_id>  (74) 
75

>  <original_smiles>  (74) 
[H]c1c([H])c([H])c2c(c1[H])C([H])([H])C([H])([H])C([H])([H])C2([H])N([H])C(=O)C1([H])N(C(=O)C([H])(N([H])C(=O)C([H])(N([H])C([H])([H])[H])C([H])([H])[H])C(C([H])([H])[H])(C([H])([H])[H])C([H])([H])[H])C([H])([H])c2c([H])c(OC([H])([H])C([H])([H])OC([H])([H])C([H])([H])[N+]([H])([H])C([H])([H])C([H])([H])OC([H])([H])C([H])([H])Oc3c([H])c([H])c(N([H])[H])c(N([H])C(=O)N4C([H])([H])C([H])([H])C([H])([H])C([H])(n5nc(-c6c([H])c([H])c(Oc7c([H])c([H])c(F)c([H])c7F)c([H])c6[H])c(C(=O)N([H])[H])c5N([H])[H])C4([H])[H])c3[H])c([H])c([H])c2C1([H])[H]

>  <smiles>  (74) 
[H]c1c([H])c([H])c2c(c1[H])C([H])([H])C([H])([H])C([H])([H])C2([H])N([H])C(=O)C1([H])N(C(=O)C([H])(N([H])C(=O)C([H])(N([H])C([H])([H])[H])C([H])([H])[H])C(C([H])([H])[H])(C([H])([H])[H])C([H])([H])[H])C([H])([H])c2c([H])c(OC([H])([H])C([H])([H])OC([H])([H])C([H])([H])[N+]([H])([H])C([H])([H])C([H])([H])OC([H])([H])C([H])([H])Oc3c([H])c([H])c(N([H])[H])c(N([H])C(=O)N4C([H])([H])C([H])([H])C([H])([H])C([H])(n5nc(-c6c([H])c([H])c(Oc7c([H])c([H])c(F)c([H])c7F)c([H])c6[H])c(C(=O)N([H])[H])c5N([H])[H])C4([H])[H])c3[H])c([H])c([H])c2C1([H])[H]

$$$$
76:0:0
     RDKit          3D

100107  0  0  1  0  0  0  0  0999 V2000
  -30.9880  -20.6240   16.7640 N   0  0  0  0  0  4  0  0  0  0  0  0
  -31.6170  -21.4130   16.8120 H   0  0  0  0  0  0  0  0  0  0  0  0
  -30.4520  -20.6710   17.6190 H   0  0  0  0  0  0  0  0  0  0  0  0
  -30.0620  -20.7650   15.6410 C   0  0  0  0  0  2  0  0  0  0  0  0
  -29.1620  -21.9920   15.8300 C   0  0  0  0  0  2  0  0  0  0  0  0
  -28.8050  -22.0650   17.2060 O   0  0  0  0  0  0  0  0  0  0  0  0
  -27.5060  -22.6070   17.3970 C   0  0  0  0  0  2  0  0  0  0  0  0
  -27.3320  -23.0490   18.8550 C   0  0  0  0  0  2  0  0  0  0  0  0
  -27.7440  -24.4010   19.0340 O   0  0  0  0  0  0  0  0  0  0  0  0
  -28.9760  -24.5760   19.7280 C   0  0  0  0  0  2  0  0  0  0  0  0
  -29.3650  -26.0710   19.7880 C   0  0  0  0  0  2  0  0  0  0  0  0
  -28.9070  -26.7900   20.9440 O   0  0  0  0  0  0  0  0  0  0  0  0
  -24.7710  -32.0150   23.5130 C   0  0  0  0  0  0  0  0  0  0  0  0
  -27.7120  -27.4700   20.8520 C   0  0  0  0  0  0  0  0  0  0  0  0
  -23.7060  -30.4930   21.8790 C   0  0  0  0  0  3  0  0  0  0  0  0
  -25.2850  -28.9110   20.6490 C   0  0  0  0  0  0  0  0  0  0  0  0
  -26.2350  -30.8940   21.8400 C   0  0  0  0  0  2  0  0  0  0  0  0
  -26.3910  -29.4920   21.2850 C   0  0  0  0  0  0  0  0  0  0  0  0
  -27.6040  -28.7710   21.3970 C   0  0  0  0  0  3  0  0  0  0  0  0
  -26.5740  -26.8960   20.2470 C   0  0  0  0  0  3  0  0  0  0  0  0
  -25.3700  -27.6080   20.1380 C   0  0  0  0  0  3  0  0  0  0  0  0
  -24.0240  -29.7430   20.5580 C   0  0  0  0  0  2  0  0  0  0  0  0
  -24.9170  -31.1520   22.4680 N   0  0  0  0  0  0  0  0  0  0  0  0
  -23.6530  -32.2930   23.9660 O   0  0  0  0  0  0  0  0  0  0  0  0
  -23.0180  -29.5090   22.8510 C   0  0  0  0  0  0  0  0  0  0  0  0
  -21.7180  -29.2570   22.6250 N   0  0  0  0  0  0  0  0  0  0  0  0
  -23.6510  -28.9730   23.7650 O   0  0  0  0  0  0  0  0  0  0  0  0
  -21.2740  -29.7430   21.8590 H   0  0  0  0  0  0  0  0  0  0  0  0
  -18.3720  -27.9200   22.8820 C   0  0  0  0  0  0  0  0  0  0  0  0
  -20.8720  -28.3410   23.3870 C   0  0  0  0  0  3  0  0  0  0  0  0
  -21.1010  -26.8750   22.9480 C   0  0  0  0  0  2  0  0  0  0  0  0
  -20.1270  -26.4100   21.8610 C   0  0  0  0  0  2  0  0  0  0  0  0
  -18.6800  -26.5310   22.3480 C   0  0  0  0  0  2  0  0  0  0  0  0
  -19.4020  -28.7760   23.3530 C   0  0  0  0  0  0  0  0  0  0  0  0
  -19.0640  -30.0710   23.8030 C   0  0  0  0  0  3  0  0  0  0  0  0
  -17.7280  -30.5120   23.7900 C   0  0  0  0  0  3  0  0  0  0  0  0
  -16.7100  -29.6540   23.3370 C   0  0  0  0  0  3  0  0  0  0  0  0
  -17.0320  -28.3610   22.8890 C   0  0  0  0  0  3  0  0  0  0  0  0
  -26.0040  -32.7100   24.1740 C   0  0  0  0  0  3  0  0  0  0  0  0
  -25.6480  -34.1160   24.4020 N   0  0  0  0  0  0  0  0  0  0  0  0
  -25.9900  -35.1270   23.5930 C   0  0  0  0  0  0  0  0  0  0  0  0
  -26.7100  -34.9800   22.6010 O   0  0  0  0  0  0  0  0  0  0  0  0
  -25.0170  -34.3020   25.1670 H   0  0  0  0  0  0  0  0  0  0  0  0
  -24.2210  -36.8320   23.0580 C   0  0  0  0  0  1  0  0  0  0  0  0
  -25.4430  -36.5250   23.9380 C   0  0  0  0  0  3  0  0  0  0  0  0
  -27.5190  -37.5290   24.7810 C   0  0  0  0  0  1  0  0  0  0  0  0
  -26.4470  -37.6020   23.7920 N   0  0  0  0  0  0  0  0  0  0  0  0
  -26.0100  -38.5160   23.8680 H   0  0  0  0  0  0  0  0  0  0  0  0
  -26.4570  -32.0230   25.5200 C   0  0  1  0  0  0  0  0  0  0  0  0
  -25.3020  -31.8010   26.5240 C   0  0  0  0  0  1  0  0  0  0  0  0
  -27.1060  -30.6470   25.2400 C   0  0  0  0  0  1  0  0  0  0  0  0
  -27.5370  -32.8870   26.2140 C   0  0  0  0  0  1  0  0  0  0  0  0
  -31.7330  -19.3740   16.6540 C   0  0  0  0  0  2  0  0  0  0  0  0
  -32.6460  -19.1380   17.8740 C   0  0  0  0  0  2  0  0  0  0  0  0
  -31.9330  -18.6870   19.1660 C   0  0  0  0  0  2  0  0  0  0  0  0
  -31.4790  -17.2080   19.1520 C   0  0  0  0  0  2  0  0  0  0  0  0
  -30.9530  -16.6790   20.5220 C   0  0  0  0  0  3  0  0  0  0  0  0
  -31.2640  -14.1850   20.1130 C   0  0  0  0  0  0  0  0  0  0  0  0
  -30.7740  -12.0830   18.9430 C   0  0  0  0  0  2  0  0  0  0  0  0
  -29.8280  -12.3940   17.7630 C   0  0  0  0  0  2  0  0  0  0  0  0
  -28.3560  -12.3680   18.2210 C   0  0  0  0  0  2  0  0  0  0  0  0
  -28.1080  -13.2080   19.5040 C   0  0  0  0  0  3  0  0  0  0  0  0
  -29.1630  -12.8770   20.5840 C   0  0  0  0  0  2  0  0  0  0  0  0
  -30.4990  -13.0710   19.9930 N   0  0  0  0  0  0  0  0  0  0  0  0
  -32.4270  -14.2600   19.7210 O   0  0  0  0  0  0  0  0  0  0  0  0
  -30.5760  -15.2660   20.4900 N   0  0  0  0  0  0  0  0  0  0  0  0
  -29.5970  -15.1190   20.6850 H   0  0  0  0  0  0  0  0  0  0  0  0
  -25.7610  -13.9790   20.2350 C   0  0  0  0  0  0  0  0  0  0  0  0
  -24.6490  -13.2800   20.6250 C   0  0  0  0  0  0  0  0  0  0  0  0
  -25.0290  -11.9020   20.6190 C   0  0  0  0  0  0  0  0  0  0  0  0
  -26.7480  -13.0300   20.0100 N   0  0  0  0  0  0  0  0  0  0  0  0
  -26.3100  -11.7790   20.2990 N   0  0  0  0  0  0  0  0  0  0  0  0
  -24.2300  -10.6910   20.8460 C   0  0  0  0  0  0  0  0  0  0  0  0
  -24.6100   -9.7260   21.8040 C   0  0  0  0  0  3  0  0  0  0  0  0
  -23.8160   -8.5760   22.0150 C   0  0  0  0  0  3  0  0  0  0  0  0
  -22.6290   -8.3850   21.2690 C   0  0  0  0  0  0  0  0  0  0  0  0
  -22.2700   -9.3380   20.2990 C   0  0  0  0  0  3  0  0  0  0  0  0
  -23.0630  -10.4780   20.0860 C   0  0  0  0  0  3  0  0  0  0  0  0
  -21.8100   -7.2890   21.3880 O   0  0  0  0  0  0  0  0  0  0  0  0
  -21.7110   -6.5890   22.5640 C   0  0  0  0  0  0  0  0  0  0  0  0
  -21.3190   -7.2100   23.7700 C   0  0  0  0  0  3  0  0  0  0  0  0
  -21.1640   -6.4390   24.9400 C   0  0  0  0  0  3  0  0  0  0  0  0
  -21.3880   -5.0490   24.9040 C   0  0  0  0  0  0  0  0  0  0  0  0
  -21.7730   -4.4290   23.7020 C   0  0  0  0  0  3  0  0  0  0  0  0
  -21.9310   -5.1970   22.5340 C   0  0  0  0  0  0  0  0  0  0  0  0
  -22.2800   -4.5920   21.3740 F   0  0  0  0  0  0  0  0  0  0  0  0
  -21.2320   -4.3070   26.0240 F   0  0  0  0  0  0  0  0  0  0  0  0
  -23.2870  -13.8460   20.9040 C   0  0  0  0  0  0  0  0  0  0  0  0
  -22.5320  -13.2170   21.8000 N   0  0  0  0  0  0  0  0  0  0  0  0
  -22.9010  -14.8800   20.3630 O   0  0  0  0  0  0  0  0  0  0  0  0
  -22.8600  -12.3820   22.2650 H   0  0  0  0  0  0  0  0  0  0  0  0
  -21.6150  -13.5740   22.0260 H   0  0  0  0  0  0  0  0  0  0  0  0
  -26.0090  -15.3350   20.0410 N   0  0  0  0  0  0  0  0  0  0  0  0
  -25.2890  -16.0360   20.1790 H   0  0  0  0  0  0  0  0  0  0  0  0
  -26.9270  -15.7500   19.8920 H   0  0  0  0  0  0  0  0  0  0  0  0
  -29.6450  -17.3850   20.8970 C   0  0  0  0  0  0  0  0  0  0  0  0
  -29.7130  -18.4570   21.6730 N   0  0  0  0  0  0  0  0  0  0  0  0
  -28.5650  -16.9450   20.5010 O   0  0  0  0  0  0  0  0  0  0  0  0
  -30.6060  -18.8110   21.9860 H   0  0  0  0  0  0  0  0  0  0  0  0
  -28.8640  -18.9120   21.9760 H   0  0  0  0  0  0  0  0  0  0  0  0
  1  2  1  0
  1  3  1  0
  4  5  1  0
  4  1  1  0
  5  6  1  0
  6  7  1  0
  7  8  1  0
  8  9  1  0
  9 10  1  0
 10 11  1  0
 11 12  1  0
 13 24  2  0
 14 12  1  0
 14 19  1  0
 15 23  1  0
 15 25  1  0
 16 18  1  0
 17 23  1  0
 18 19  2  0
 18 17  1  0
 20 14  2  0
 21 20  1  0
 21 16  2  0
 22 16  1  0
 22 15  1  0
 23 13  1  0
 25 27  2  0
 26 25  1  0
 28 26  1  0
 29 38  2  0
 29 34  1  0
 30 26  1  0
 31 30  1  0
 32 33  1  0
 32 31  1  0
 33 29  1  0
 34 30  1  0
 34 35  2  0
 36 35  1  0
 37 36  2  0
 38 37  1  0
 39 13  1  0
 39 40  1  0
 39 49  1  0
 40 43  1  0
 41 45  1  0
 41 40  1  0
 42 41  2  0
 45 44  1  0
 47 48  1  0
 47 45  1  0
 47 46  1  0
 49 52  1  1
 49 50  1  0
 51 49  1  0
 53  1  1  0
 53 54  1  0
 54 55  1  0
 56 55  1  0
 57 56  1  0
 57 96  1  0
 58 66  1  0
 59 64  1  0
 60 61  1  0
 60 59  1  0
 62 61  1  0
 62 71  1  0
 62 63  1  0
 64 58  1  0
 64 63  1  0
 65 58  2  0
 66 57  1  0
 66 67  1  0
 68 69  2  0
 69 88  1  0
 70 69  1  0
 70 73  1  0
 71 68  1  0
 71 72  1  0
 72 70  2  0
 73 74  1  0
 74 75  2  0
 76 79  1  0
 76 75  1  0
 77 76  2  0
 78 77  1  0
 78 73  2  0
 79 80  1  0
 80 81  1  0
 81 82  2  0
 83 82  1  0
 83 87  1  0
 84 83  2  0
 85 80  2  0
 85 84  1  0
 86 85  1  0
 88 89  1  0
 89 92  1  0
 89 91  1  0
 90 88  2  0
 93 94  1  0
 93 68  1  0
 95 93  1  0
 96 97  1  0
 97100  1  0
 97 99  1  0
 98 96  2  0
M  ISO  4  11 101  12 101  58 100  66 100
M  END
>  <TORSDO>  (75) 
F 30

>  <SCORE>  (75) 
-9.767

>  <name>  (75) 
76

>  <ligand_id>  (75) 
76

>  <original_smiles>  (75) 
[H]c1c([H])c([H])c2c(c1[H])C([H])([H])C([H])([H])C([H])([H])C2([H])N([H])C(=O)C1([H])N(C(=O)C([H])(N([H])C(=O)C([H])(N([H])C([H])([H])[H])C([H])([H])[H])C(C([H])([H])[H])(C([H])([H])[H])C([H])([H])[H])C([H])([H])c2c([H])c(OC([H])([H])C([H])([H])OC([H])([H])C([H])([H])OC([H])([H])C([H])([H])[N+]([H])([H])C([H])([H])C([H])([H])C([H])([H])C([H])([H])C([H])(C(=O)N([H])[H])N([H])C(=O)N3C([H])([H])C([H])([H])C([H])([H])C([H])(n4nc(-c5c([H])c([H])c(Oc6c([H])c([H])c(F)c([H])c6F)c([H])c5[H])c(C(=O)N([H])[H])c4N([H])[H])C3([H])[H])c([H])c([H])c2C1([H])[H]

>  <smiles>  (75) 
[H]c1c([H])c([H])c2c(c1[H])C([H])([H])C([H])([H])C([H])([H])C2([H])N([H])C(=O)C1([H])N(C(=O)C([H])(N([H])C(=O)C([H])(N([H])C([H])([H])[H])C([H])([H])[H])C(C([H])([H])[H])(C([H])([H])[H])C([H])([H])[H])C([H])([H])c2c([H])c(OC([H])([H])C([H])([H])OC([H])([H])C([H])([H])OC([H])([H])C([H])([H])[N+]([H])([H])C([H])([H])C([H])([H])C([H])([H])C([H])([H])C([H])(C(=O)N([H])[H])N([H])C(=O)N3C([H])([H])C([H])([H])C([H])([H])C([H])(n4nc(-c5c([H])c([H])c(Oc6c([H])c([H])c(F)c([H])c6F)c([H])c5[H])c(C(=O)N([H])[H])c4N([H])[H])C3([H])[H])c([H])c([H])c2C1([H])[H]

$$$$
77:0:0
     RDKit          3D

103110  0  0  1  0  0  0  0  0999 V2000
  -27.3660  -19.2410   21.5250 C   0  0  0  0  0  2  0  0  0  0  0  0
  -28.3240  -21.3940   20.7280 C   0  0  0  0  0  0  0  0  0  0  0  0
  -27.3510  -20.4720   20.7360 N   0  0  0  0  0  0  0  0  0  0  0  0
  -29.4860  -21.1830   21.0980 O   0  0  0  0  0  0  0  0  0  0  0  0
  -26.4560  -20.8070   20.3930 H   0  0  0  0  0  0  0  0  0  0  0  0
  -27.8700  -22.8270   20.3170 C   0  0  0  0  0  0  0  0  0  0  0  0
  -28.7830  -23.7810   20.5450 N   0  0  0  0  0  0  0  0  0  0  0  0
  -26.7340  -23.0340   19.8830 O   0  0  0  0  0  0  0  0  0  0  0  0
  -29.6590  -23.4360   20.9190 H   0  0  0  0  0  0  0  0  0  0  0  0
  -28.5880  -25.2310   20.4990 C   0  0  0  0  0  2  0  0  0  0  0  0
  -27.8290  -25.7480   19.2520 C   0  0  0  0  0  2  0  0  0  0  0  0
  -27.4780  -27.1330   19.3720 O   0  0  0  0  0  0  0  0  0  0  0  0
  -28.1020  -31.6810   24.7690 C   0  0  0  0  0  0  0  0  0  0  0  0
  -26.9410  -27.5560   20.5660 C   0  0  0  0  0  0  0  0  0  0  0  0
  -26.4570  -29.8640   25.0950 C   0  0  0  0  0  3  0  0  0  0  0  0
  -25.8930  -28.4930   23.0170 C   0  0  0  0  0  0  0  0  0  0  0  0
  -27.0040  -30.7230   22.7450 C   0  0  0  0  0  2  0  0  0  0  0  0
  -26.7000  -29.3320   22.2330 C   0  0  0  0  0  0  0  0  0  0  0  0
  -27.2150  -28.8680   21.0060 C   0  0  0  0  0  3  0  0  0  0  0  0
  -26.1240  -26.7220   21.3640 C   0  0  0  0  0  3  0  0  0  0  0  0
  -25.6050  -27.1860   22.5900 C   0  0  0  0  0  3  0  0  0  0  0  0
  -25.3740  -29.0700   24.3150 C   0  0  0  0  0  2  0  0  0  0  0  0
  -27.2450  -30.7810   24.2090 N   0  0  0  0  0  0  0  0  0  0  0  0
  -28.2130  -31.7810   25.9970 O   0  0  0  0  0  0  0  0  0  0  0  0
  -27.3380  -28.8570   25.8700 C   0  0  0  0  0  0  0  0  0  0  0  0
  -26.9410  -28.5500   27.1170 N   0  0  0  0  0  0  0  0  0  0  0  0
  -28.3300  -28.3480   25.3430 O   0  0  0  0  0  0  0  0  0  0  0  0
  -26.1290  -29.0230   27.4860 H   0  0  0  0  0  0  0  0  0  0  0  0
  -26.8850  -27.2220   30.4770 C   0  0  0  0  0  0  0  0  0  0  0  0
  -27.5890  -27.5990   28.0180 C   0  0  0  0  0  3  0  0  0  0  0  0
  -27.0920  -26.1560   27.7630 C   0  0  0  0  0  2  0  0  0  0  0  0
  -25.9130  -25.7580   28.6570 C   0  0  0  0  0  2  0  0  0  0  0  0
  -26.3010  -25.8620   30.1360 C   0  0  0  0  0  2  0  0  0  0  0  0
  -27.4720  -28.0450   29.4820 C   0  0  0  0  0  0  0  0  0  0  0  0
  -27.9630  -29.3180   29.8460 C   0  0  0  0  0  3  0  0  0  0  0  0
  -27.8770  -29.7650   31.1780 C   0  0  0  0  0  3  0  0  0  0  0  0
  -27.3070  -28.9400   32.1620 C   0  0  0  0  0  3  0  0  0  0  0  0
  -26.8180  -27.6700   31.8120 C   0  0  0  0  0  3  0  0  0  0  0  0
  -28.9660  -32.6430   23.8940 C   0  0  0  0  0  3  0  0  0  0  0  0
  -28.9330  -33.9690   24.5280 N   0  0  0  0  0  0  0  0  0  0  0  0
  -28.1630  -34.9880   24.1230 C   0  0  0  0  0  0  0  0  0  0  0  0
  -27.4480  -34.9290   23.1190 O   0  0  0  0  0  0  0  0  0  0  0  0
  -29.4580  -34.0740   25.3830 H   0  0  0  0  0  0  0  0  0  0  0  0
  -26.9480  -36.3240   25.8790 C   0  0  0  0  0  1  0  0  0  0  0  0
  -28.1870  -36.2760   24.9690 C   0  0  0  0  0  3  0  0  0  0  0  0
  -29.5320  -37.6880   23.4760 C   0  0  0  0  0  1  0  0  0  0  0  0
  -28.2540  -37.5100   24.1580 N   0  0  0  0  0  0  0  0  0  0  0  0
  -28.0890  -38.3290   24.7370 H   0  0  0  0  0  0  0  0  0  0  0  0
  -30.4530  -32.1460   23.7090 C   0  0  1  0  0  0  0  0  0  0  0  0
  -31.1500  -31.7410   25.0290 C   0  0  0  0  0  1  0  0  0  0  0  0
  -30.5040  -30.9280   22.7580 C   0  0  0  0  0  1  0  0  0  0  0  0
  -31.2980  -33.2600   23.0470 C   0  0  0  0  0  1  0  0  0  0  0  0
  -28.6680  -18.4110   21.4130 C   0  0  0  0  0  2  0  0  0  0  0  0
  -28.5800  -17.1890   20.4790 C   0  0  0  0  0  2  0  0  0  0  0  0
  -29.3900  -17.3460   19.1780 C   0  0  0  0  0  2  0  0  0  0  0  0
  -30.8940  -17.0050   19.3550 C   0  0  0  0  0  0  0  0  0  0  0  0
  -31.3930  -14.5050   19.3840 C   0  0  0  0  0  0  0  0  0  0  0  0
  -31.1630  -12.0560   19.3630 C   0  0  0  0  0  2  0  0  0  0  0  0
  -30.2520  -11.6320   18.1960 C   0  0  0  0  0  2  0  0  0  0  0  0
  -28.7730  -11.6360   18.6280 C   0  0  0  0  0  2  0  0  0  0  0  0
  -28.3670  -12.9560   19.3350 C   0  0  0  0  0  3  0  0  0  0  0  0
  -29.3980  -13.3580   20.4210 C   0  0  0  0  0  2  0  0  0  0  0  0
  -30.7470  -13.3930   19.8210 N   0  0  0  0  0  0  0  0  0  0  0  0
  -32.3070  -14.4460   18.5650 O   0  0  0  0  0  0  0  0  0  0  0  0
  -30.9830  -15.6540   19.9400 N   0  0  0  0  0  4  0  0  0  0  0  0
  -30.4000  -15.5180   20.7510 H   0  0  0  0  0  0  0  0  0  0  0  0
  -26.1400  -13.8840   20.2470 C   0  0  0  0  0  0  0  0  0  0  0  0
  -24.9830  -13.2680   20.6460 C   0  0  0  0  0  0  0  0  0  0  0  0
  -25.2020  -11.8690   20.4690 C   0  0  0  0  0  0  0  0  0  0  0  0
  -27.0100  -12.8680   19.8830 N   0  0  0  0  0  0  0  0  0  0  0  0
  -26.4470  -11.6440   20.0660 N   0  0  0  0  0  0  0  0  0  0  0  0
  -24.2780  -10.7340   20.6070 C   0  0  0  0  0  0  0  0  0  0  0  0
  -24.4960   -9.7220   21.5690 C   0  0  0  0  0  3  0  0  0  0  0  0
  -23.5870   -8.6490   21.6980 C   0  0  0  0  0  3  0  0  0  0  0  0
  -22.4440   -8.5820   20.8660 C   0  0  0  0  0  0  0  0  0  0  0  0
  -22.2450   -9.5790   19.8950 C   0  0  0  0  0  3  0  0  0  0  0  0
  -23.1530  -10.6430   19.7630 C   0  0  0  0  0  3  0  0  0  0  0  0
  -21.5210   -7.5660   20.9020 O   0  0  0  0  0  0  0  0  0  0  0  0
  -21.1760   -6.9460   22.0760 C   0  0  0  0  0  0  0  0  0  0  0  0
  -20.6230   -7.6600   23.1620 C   0  0  0  0  0  3  0  0  0  0  0  0
  -20.2200   -6.9730   24.3250 C   0  0  0  0  0  3  0  0  0  0  0  0
  -20.3600   -5.5750   24.4020 C   0  0  0  0  0  0  0  0  0  0  0  0
  -20.9040   -4.8610   23.3190 C   0  0  0  0  0  3  0  0  0  0  0  0
  -21.3080   -5.5440   22.1590 C   0  0  0  0  0  0  0  0  0  0  0  0
  -21.8140   -4.8490   21.1120 F   0  0  0  0  0  0  0  0  0  0  0  0
  -19.9640   -4.9140   25.5140 F   0  0  0  0  0  0  0  0  0  0  0  0
  -23.7080  -13.9430   21.0630 C   0  0  0  0  0  0  0  0  0  0  0  0
  -22.9380  -13.3160   21.9490 N   0  0  0  0  0  0  0  0  0  0  0  0
  -23.4110  -15.0600   20.6430 O   0  0  0  0  0  0  0  0  0  0  0  0
  -23.1880  -12.4120   22.3190 H   0  0  0  0  0  0  0  0  0  0  0  0
  -22.0820  -13.7520   22.2600 H   0  0  0  0  0  0  0  0  0  0  0  0
  -26.5130  -15.2170   20.1410 N   0  0  0  0  0  0  0  0  0  0  0  0
  -25.8650  -15.9790   20.3130 H   0  0  0  0  0  0  0  0  0  0  0  0
  -27.3860  -15.5250   19.7340 H   0  0  0  0  0  0  0  0  0  0  0  0
  -31.9120  -17.4250   18.2210 C   0  0  0  0  0  3  0  0  0  0  0  0
  -30.1680  -17.4850   16.2360 C   0  0  0  0  0  1  0  0  0  0  0  0
  -31.3160  -19.6450   17.0040 C   0  0  0  0  0  1  0  0  0  0  0  0
  -31.4060  -18.1070   16.9080 C   0  0  0  0  0  3  0  0  0  0  0  0
  -32.7510  -16.3420   17.8120 O   0  0  0  0  0  0  0  0  0  0  0  0
  -34.3000  -16.1230   19.7010 C   0  0  0  0  0  1  0  0  0  0  0  0
  -34.6300  -15.0090   17.4810 C   0  0  0  0  0  1  0  0  0  0  0  0
  -34.9000  -17.4950   17.6250 C   0  0  0  0  0  1  0  0  0  0  0  0
  -34.1300  -16.2820   18.1790 C   0  0  1  0  0  0  0  0  0  0  0  0
  2  3  1  0
  2  4  2  0
  3  1  1  0
  5  3  1  0
  6  7  1  0
  6  2  1  0
  7  9  1  0
  8  6  2  0
 10  7  1  0
 11 12  1  0
 11 10  1  0
 12 14  1  0
 13 24  2  0
 14 19  2  0
 14 20  1  0
 15 25  1  0
 16 22  1  0
 17 23  1  0
 18 17  1  0
 18 16  2  0
 19 18  1  0
 20 21  2  0
 21 16  1  0
 22 15  1  0
 23 13  1  0
 23 15  1  0
 25 26  1  0
 26 28  1  0
 27 25  2  0
 29 38  1  0
 30 26  1  0
 30 34  1  0
 31 30  1  0
 31 32  1  0
 32 33  1  0
 33 29  1  0
 34 35  1  0
 34 29  2  0
 35 36  2  0
 36 37  1  0
 38 37  2  0
 39 40  1  0
 39 13  1  0
 40 43  1  0
 41 40  1  0
 41 45  1  0
 42 41  2  0
 45 44  1  0
 46 47  1  0
 47 48  1  0
 47 45  1  0
 49 39  1  0
 49 50  1  1
 51 49  1  0
 52 49  1  0
 53  1  1  0
 54 53  1  0
 55 56  1  0
 55 54  1  0
 56 65  2  0
 57 63  1  0
 57 65  1  0
 58 63  1  0
 59 60  1  0
 59 58  1  0
 61 60  1  0
 61 70  1  0
 61 62  1  0
 63 62  1  0
 64 57  2  0
 65 66  1  0
 67 68  2  0
 68 87  1  0
 69 72  1  0
 69 68  1  0
 70 71  1  0
 70 67  1  0
 71 69  2  0
 72 73  1  0
 73 74  2  0
 75 78  1  0
 75 74  1  0
 76 75  2  0
 77 76  1  0
 77 72  2  0
 78 79  1  0
 79 84  2  0
 79 80  1  0
 80 81  2  0
 81 82  1  0
 82 86  1  0
 83 82  2  0
 84 83  1  0
 85 84  1  0
 87 88  1  0
 88 91  1  0
 88 90  1  0
 89 87  2  0
 92 67  1  0
 92 93  1  0
 94 92  1  0
 95 98  1  0
 95 56  1  0
 96 98  1  0
 98 97  1  0
 99103  1  0
 99 95  1  0
103101  1  6
102103  1  0
103100  1  0
M  ISO  4  11 101  12 101  57 100  65 100
M  END
>  <TORSDO>  (76) 
F 28

>  <SCORE>  (76) 
-2.777

>  <name>  (76) 
77

>  <ligand_id>  (76) 
77

>  <original_smiles>  (76) 
[H]c1c([H])c([H])c2c(c1[H])C([H])([H])C([H])([H])C([H])([H])C2([H])N([H])C(=O)C1([H])N(C(=O)C([H])(N([H])C(=O)C([H])(N([H])C([H])([H])[H])C([H])([H])[H])C(C([H])([H])[H])(C([H])([H])[H])C([H])([H])[H])C([H])([H])c2c([H])c(OC([H])([H])C([H])([H])N([H])C(=O)C(=O)N([H])C([H])([H])C([H])([H])C([H])([H])C([H])([H])C([H])(N([H])C(=O)N3C([H])([H])C([H])([H])C([H])([H])C([H])(n4nc(-c5c([H])c([H])c(Oc6c([H])c([H])c(F)c([H])c6F)c([H])c5[H])c(C(=O)N([H])[H])c4N([H])[H])C3([H])[H])C([H])(OC(C([H])([H])[H])(C([H])([H])[H])C([H])([H])[H])C([H])(C([H])([H])[H])C([H])([H])[H])c([H])c([H])c2C1([H])[H]

>  <smiles>  (76) 
[H]c1c([H])c([H])c2c(c1[H])C([H])([H])C([H])([H])C([H])([H])C2([H])N([H])C(=O)C1([H])N(C(=O)C([H])(N([H])C(=O)C([H])(N([H])C([H])([H])[H])C([H])([H])[H])C(C([H])([H])[H])(C([H])([H])[H])C([H])([H])[H])C([H])([H])c2c([H])c(OC([H])([H])C([H])([H])N([H])C(=O)C(=O)N([H])C([H])([H])C([H])([H])C([H])([H])C([H])([H])C([H])(N([H])C(=O)N3C([H])([H])C([H])([H])C([H])([H])C([H])(n4nc(-c5c([H])c([H])c(Oc6c([H])c([H])c(F)c([H])c6F)c([H])c5[H])c(C(=O)N([H])[H])c4N([H])[H])C3([H])[H])C([H])(OC(C([H])([H])[H])(C([H])([H])[H])C([H])([H])[H])C([H])(C([H])([H])[H])C([H])([H])[H])c([H])c([H])c2C1([H])[H]

$$$$
78:0:0
     RDKit          3D

 96103  0  0  1  0  0  0  0  0999 V2000
  -25.8020  -24.1790   22.7810 N   0  0  0  0  0  4  0  0  0  0  0  0
  -26.5130  -24.1720   22.0610 H   0  0  0  0  0  0  0  0  0  0  0  0
  -26.0410  -23.4530   23.4380 H   0  0  0  0  0  0  0  0  0  0  0  0
  -25.8460  -25.4860   23.4770 C   0  0  0  0  0  2  0  0  0  0  0  0
  -27.2940  -25.9380   23.6770 C   0  0  0  0  0  2  0  0  0  0  0  0
  -28.0240  -25.5650   22.5150 O   0  0  0  0  0  0  0  0  0  0  0  0
  -29.4280  -25.5130   22.7320 C   0  0  0  0  0  2  0  0  0  0  0  0
  -30.1630  -25.6410   21.3920 C   0  0  0  0  0  2  0  0  0  0  0  0
  -29.9610  -26.9490   20.8630 O   0  0  0  0  0  0  0  0  0  0  0  0
  -25.1640  -31.3610   23.6960 C   0  0  0  0  0  0  0  0  0  0  0  0
  -28.6780  -27.4430   20.7970 C   0  0  0  0  0  0  0  0  0  0  0  0
  -24.3290  -29.8840   21.8970 C   0  0  0  0  0  3  0  0  0  0  0  0
  -26.1090  -28.6000   20.6040 C   0  0  0  0  0  0  0  0  0  0  0  0
  -26.7880  -30.5770   21.9760 C   0  0  0  0  0  2  0  0  0  0  0  0
  -27.1190  -29.2540   21.3210 C   0  0  0  0  0  0  0  0  0  0  0  0
  -28.4050  -28.6820   21.4120 C   0  0  0  0  0  3  0  0  0  0  0  0
  -27.6490  -26.7860   20.0840 C   0  0  0  0  0  3  0  0  0  0  0  0
  -26.3670  -27.3620   19.9880 C   0  0  0  0  0  3  0  0  0  0  0  0
  -24.7680  -29.2890   20.5320 C   0  0  0  0  0  2  0  0  0  0  0  0
  -25.4380  -30.6210   22.5840 N   0  0  0  0  0  0  0  0  0  0  0  0
  -24.0080  -31.4720   24.1250 O   0  0  0  0  0  0  0  0  0  0  0  0
  -23.7240  -28.7500   22.7520 C   0  0  0  0  0  0  0  0  0  0  0  0
  -22.5150  -28.3020   22.3800 N   0  0  0  0  0  0  0  0  0  0  0  0
  -24.3450  -28.2750   23.7070 O   0  0  0  0  0  0  0  0  0  0  0  0
  -22.0640  -28.7530   21.5960 H   0  0  0  0  0  0  0  0  0  0  0  0
  -19.4330  -26.4180   22.2440 C   0  0  0  0  0  0  0  0  0  0  0  0
  -21.7680  -27.2150   23.0130 C   0  0  0  0  0  3  0  0  0  0  0  0
  -22.2840  -25.8350   22.5430 C   0  0  0  0  0  2  0  0  0  0  0  0
  -21.5030  -25.2710   21.3500 C   0  0  0  0  0  2  0  0  0  0  0  0
  -20.0210  -25.1270   21.6980 C   0  0  0  0  0  2  0  0  0  0  0  0
  -20.2560  -27.4030   22.8510 C   0  0  0  0  0  0  0  0  0  0  0  0
  -19.6650  -28.5970   23.3180 C   0  0  0  0  0  3  0  0  0  0  0  0
  -18.2800  -28.8120   23.1920 C   0  0  0  0  0  3  0  0  0  0  0  0
  -17.4680  -27.8270   22.6020 C   0  0  0  0  0  3  0  0  0  0  0  0
  -18.0430  -26.6320   22.1350 C   0  0  0  0  0  3  0  0  0  0  0  0
  -26.2870  -32.1240   24.4660 C   0  0  0  0  0  3  0  0  0  0  0  0
  -25.8410  -33.5120   24.6390 N   0  0  0  0  0  0  0  0  0  0  0  0
  -26.2410  -34.5410   23.8770 C   0  0  0  0  0  0  0  0  0  0  0  0
  -27.0930  -34.4260   22.9920 O   0  0  0  0  0  0  0  0  0  0  0  0
  -25.1030  -33.6700   25.3110 H   0  0  0  0  0  0  0  0  0  0  0  0
  -24.5180  -36.1890   23.0750 C   0  0  0  0  0  1  0  0  0  0  0  0
  -25.5920  -35.9120   24.1390 C   0  0  0  0  0  3  0  0  0  0  0  0
  -27.5020  -36.9470   25.2830 C   0  0  0  0  0  1  0  0  0  0  0  0
  -26.5640  -37.0260   24.1670 N   0  0  0  0  0  0  0  0  0  0  0  0
  -26.0850  -37.9200   24.2180 H   0  0  0  0  0  0  0  0  0  0  0  0
  -26.6420  -31.4730   25.8600 C   0  0  1  0  0  0  0  0  0  0  0  0
  -25.4010  -31.1160   26.7110 C   0  0  0  0  0  1  0  0  0  0  0  0
  -27.4690  -30.1790   25.6630 C   0  0  0  0  0  1  0  0  0  0  0  0
  -27.5240  -32.4400   26.6850 C   0  0  0  0  0  1  0  0  0  0  0  0
  -24.4940  -23.8550   22.1740 C   0  0  0  0  0  2  0  0  0  0  0  0
  -24.6260  -22.9600   20.9290 C   0  0  0  0  0  2  0  0  0  0  0  0
  -25.8300  -23.3030   20.0350 C   0  0  0  0  0  2  0  0  0  0  0  0
  -27.0130  -23.4310   20.8260 O   0  0  0  0  0  0  0  0  0  0  0  0
  -27.7340  -22.2150   21.0190 C   0  0  0  0  0  2  0  0  0  0  0  0
  -28.3200  -21.6740   19.6980 C   0  0  0  0  0  2  0  0  0  0  0  0
  -28.5310  -20.2710   19.7750 O   0  0  0  0  0  0  0  0  0  0  0  0
  -29.8920  -19.8780   19.8710 C   0  0  0  0  0  2  0  0  0  0  0  0
  -29.9210  -18.4470   20.4340 C   0  0  0  0  0  2  0  0  0  0  0  0
  -31.8570  -16.8130   20.5520 C   0  0  0  0  0  0  0  0  0  0  0  0
  -31.9320  -14.3690   20.3320 C   0  0  0  0  0  2  0  0  0  0  0  0
  -31.2790  -13.9960   18.9850 C   0  0  0  0  0  2  0  0  0  0  0  0
  -29.7490  -13.8570   19.1270 C   0  0  0  0  0  2  0  0  0  0  0  0
  -29.0970  -15.0430   19.8930 C   0  0  0  0  0  3  0  0  0  0  0  0
  -29.8930  -15.3360   21.1890 C   0  0  0  0  0  2  0  0  0  0  0  0
  -31.2820  -15.6050   20.7940 N   0  0  0  0  0  0  0  0  0  0  0  0
  -33.0690  -16.9570   20.3930 O   0  0  0  0  0  0  0  0  0  0  0  0
  -31.0860  -17.7200   19.9350 N   0  0  0  0  0  0  0  0  0  0  0  0
  -31.6430  -18.2900   19.3150 H   0  0  0  0  0  0  0  0  0  0  0  0
  -26.6320  -15.7060   20.2170 C   0  0  0  0  0  0  0  0  0  0  0  0
  -25.5060  -14.9580   20.4360 C   0  0  0  0  0  0  0  0  0  0  0  0
  -25.9420  -13.5990   20.4950 C   0  0  0  0  0  0  0  0  0  0  0  0
  -27.6840  -14.8030   20.1640 N   0  0  0  0  0  0  0  0  0  0  0  0
  -27.2620  -13.5340   20.3820 N   0  0  0  0  0  0  0  0  0  0  0  0
  -25.1750  -12.3520   20.5920 C   0  0  0  0  0  0  0  0  0  0  0  0
  -25.4630  -11.3810   21.5770 C   0  0  0  0  0  3  0  0  0  0  0  0
  -24.6960  -10.1980   21.6610 C   0  0  0  0  0  3  0  0  0  0  0  0
  -23.6310   -9.9770   20.7570 C   0  0  0  0  0  0  0  0  0  0  0  0
  -23.3650  -10.9350   19.7620 C   0  0  0  0  0  3  0  0  0  0  0  0
  -24.1310  -12.1100   19.6770 C   0  0  0  0  0  3  0  0  0  0  0  0
  -22.8530   -8.8450   20.7430 O   0  0  0  0  0  0  0  0  0  0  0  0
  -22.5610   -8.1620   21.8960 C   0  0  0  0  0  0  0  0  0  0  0  0
  -21.9280   -8.7890   22.9920 C   0  0  0  0  0  3  0  0  0  0  0  0
  -21.5840   -8.0350   24.1320 C   0  0  0  0  0  3  0  0  0  0  0  0
  -21.8600   -6.6550   24.1720 C   0  0  0  0  0  0  0  0  0  0  0  0
  -22.4840   -6.0270   23.0810 C   0  0  0  0  0  3  0  0  0  0  0  0
  -22.8300   -6.7790   21.9440 C   0  0  0  0  0  0  0  0  0  0  0  0
  -23.4130   -6.1670   20.8850 F   0  0  0  0  0  0  0  0  0  0  0  0
  -21.5200   -5.9280   25.2620 F   0  0  0  0  0  0  0  0  0  0  0  0
  -24.0920  -15.4610   20.4860 C   0  0  0  0  0  0  0  0  0  0  0  0
  -23.2210  -14.7680   21.2110 N   0  0  0  0  0  0  0  0  0  0  0  0
  -23.7640  -16.5060   19.9240 O   0  0  0  0  0  0  0  0  0  0  0  0
  -23.4910  -13.9230   21.6910 H   0  0  0  0  0  0  0  0  0  0  0  0
  -22.2670  -15.0910   21.2910 H   0  0  0  0  0  0  0  0  0  0  0  0
  -26.8440  -17.0680   20.0390 N   0  0  0  0  0  0  0  0  0  0  0  0
  -26.0990  -17.7520   20.1100 H   0  0  0  0  0  0  0  0  0  0  0  0
  -27.7520  -17.4840   19.8790 H   0  0  0  0  0  0  0  0  0  0  0  0
  1  3  1  0
  1  4  1  0
  2  1  1  0
  4  5  1  0
  6  7  1  0
  6  5  1  0
  8  7  1  0
  9  8  1  0
 10 21  2  0
 11  9  1  0
 11 16  1  0
 12 20  1  0
 12 22  1  0
 13 15  1  0
 14 20  1  0
 15 16  2  0
 15 14  1  0
 17 11  2  0
 18 17  1  0
 18 13  2  0
 19 13  1  0
 19 12  1  0
 20 10  1  0
 22 24  2  0
 23 22  1  0
 25 23  1  0
 26 31  1  0
 27 23  1  0
 28 27  1  0
 29 30  1  0
 29 28  1  0
 30 26  1  0
 31 27  1  0
 31 32  2  0
 33 32  1  0
 34 33  2  0
 35 26  2  0
 35 34  1  0
 36 10  1  0
 36 37  1  0
 36 46  1  0
 37 40  1  0
 38 42  1  0
 38 37  1  0
 39 38  2  0
 42 41  1  0
 42 44  1  0
 44 45  1  0
 44 43  1  0
 46 49  1  1
 46 47  1  0
 48 46  1  0
 50  1  1  0
 51 50  1  0
 52 53  1  0
 52 51  1  0
 53 54  1  0
 55 56  1  0
 55 54  1  0
 56 57  1  0
 57 58  1  0
 59 65  1  0
 60 65  1  0
 61 62  1  0
 61 60  1  0
 63 62  1  0
 63 72  1  0
 63 64  1  0
 65 64  1  0
 66 59  2  0
 67 58  1  0
 67 59  1  0
 68 67  1  0
 69 70  2  0
 70 89  1  0
 70 71  1  0
 71 74  1  0
 72 69  1  0
 72 73  1  0
 73 71  2  0
 74 75  1  0
 75 76  2  0
 77 76  1  0
 78 77  2  0
 79 78  1  0
 79 74  2  0
 80 77  1  0
 80 81  1  0
 81 86  2  0
 81 82  1  0
 82 83  2  0
 83 84  1  0
 84 88  1  0
 85 84  2  0
 86 85  1  0
 87 86  1  0
 89 90  1  0
 90 93  1  0
 90 92  1  0
 91 89  2  0
 94 95  1  0
 94 69  1  0
 96 94  1  0
M  ISO  4   8 101   9 101  59 100  67 100
M  END
>  <TORSDO>  (77) 
F 30

>  <SCORE>  (77) 
-5.992

>  <name>  (77) 
78

>  <ligand_id>  (77) 
78

>  <original_smiles>  (77) 
[H]c1c([H])c([H])c2c(c1[H])C([H])([H])C([H])([H])C([H])([H])C2([H])N([H])C(=O)C1([H])N(C(=O)C([H])(N([H])C(=O)C([H])(N([H])C([H])([H])[H])C([H])([H])[H])C(C([H])([H])[H])(C([H])([H])[H])C([H])([H])[H])C([H])([H])c2c([H])c(OC([H])([H])C([H])([H])OC([H])([H])C([H])([H])[N+]([H])([H])C([H])([H])C([H])([H])C([H])([H])OC([H])([H])C([H])([H])OC([H])([H])C([H])([H])N([H])C(=O)N3C([H])([H])C([H])([H])C([H])([H])C([H])(n4nc(-c5c([H])c([H])c(Oc6c([H])c([H])c(F)c([H])c6F)c([H])c5[H])c(C(=O)N([H])[H])c4N([H])[H])C3([H])[H])c([H])c([H])c2C1([H])[H]

>  <smiles>  (77) 
[H]c1c([H])c([H])c2c(c1[H])C([H])([H])C([H])([H])C([H])([H])C2([H])N([H])C(=O)C1([H])N(C(=O)C([H])(N([H])C(=O)C([H])(N([H])C([H])([H])[H])C([H])([H])[H])C(C([H])([H])[H])(C([H])([H])[H])C([H])([H])[H])C([H])([H])c2c([H])c(OC([H])([H])C([H])([H])OC([H])([H])C([H])([H])[N+]([H])([H])C([H])([H])C([H])([H])C([H])([H])OC([H])([H])C([H])([H])OC([H])([H])C([H])([H])N([H])C(=O)N3C([H])([H])C([H])([H])C([H])([H])C([H])(n4nc(-c5c([H])c([H])c(Oc6c([H])c([H])c(F)c([H])c6F)c([H])c5[H])c(C(=O)N([H])[H])c4N([H])[H])C3([H])[H])c([H])c([H])c2C1([H])[H]

$$$$
79:0:0
     RDKit          3D

 92 99  0  0  1  0  0  0  0  0999 V2000
  -29.5480  -20.7230   21.1150 C   0  0  0  0  0  2  0  0  0  0  0  0
  -29.9350  -18.2140   20.8790 C   0  0  0  0  0  0  0  0  0  0  0  0
  -29.3450  -19.3810   20.5290 N   0  0  0  0  0  0  0  0  0  0  0  0
  -30.7640  -18.1370   21.7890 O   0  0  0  0  0  0  0  0  0  0  0  0
  -28.6700  -19.3380   19.7790 H   0  0  0  0  0  0  0  0  0  0  0  0
  -29.4970  -16.9360   20.1020 C   0  0  0  0  0  0  0  0  0  0  0  0
  -30.5630  -14.6100   20.4540 C   0  0  0  0  0  0  0  0  0  0  0  0
  -30.4090  -12.4050   19.3730 C   0  0  0  0  0  2  0  0  0  0  0  0
  -29.4740  -12.5810   18.1540 C   0  0  0  0  0  2  0  0  0  0  0  0
  -27.9930  -12.4190   18.5610 C   0  0  0  0  0  2  0  0  0  0  0  0
  -27.6230  -13.2420   19.8240 C   0  0  0  0  0  3  0  0  0  0  0  0
  -28.6680  -13.0260   20.9430 C   0  0  0  0  0  2  0  0  0  0  0  0
  -29.9900  -13.3730   20.3960 N   0  0  0  0  0  0  0  0  0  0  0  0
  -31.6920  -14.8450   20.0140 O   0  0  0  0  0  0  0  0  0  0  0  0
  -29.6780  -15.5940   20.7220 N   0  0  0  0  0  4  0  0  0  0  0  0
  -28.8410  -15.2560   21.1690 H   0  0  0  0  0  0  0  0  0  0  0  0
  -25.2120  -13.8330   20.5080 C   0  0  0  0  0  0  0  0  0  0  0  0
  -24.1490  -13.0540   20.8790 C   0  0  0  0  0  0  0  0  0  0  0  0
  -24.6200  -11.7050   20.8530 C   0  0  0  0  0  0  0  0  0  0  0  0
  -26.2660  -12.9580   20.2850 N   0  0  0  0  0  0  0  0  0  0  0  0
  -25.9120  -11.6750   20.5480 N   0  0  0  0  0  0  0  0  0  0  0  0
  -23.9020  -10.4400   21.0460 C   0  0  0  0  0  0  0  0  0  0  0  0
  -24.3410   -9.4810   21.9860 C   0  0  0  0  0  3  0  0  0  0  0  0
  -23.6280   -8.2750   22.1630 C   0  0  0  0  0  3  0  0  0  0  0  0
  -22.4600   -8.0230   21.4020 C   0  0  0  0  0  0  0  0  0  0  0  0
  -22.0420   -8.9730   20.4540 C   0  0  0  0  0  3  0  0  0  0  0  0
  -22.7550  -10.1690   20.2740 C   0  0  0  0  0  3  0  0  0  0  0  0
  -21.7170   -6.8710   21.4910 O   0  0  0  0  0  0  0  0  0  0  0  0
  -21.6710   -6.1320   22.6450 C   0  0  0  0  0  0  0  0  0  0  0  0
  -21.2230   -6.6850   23.8650 C   0  0  0  0  0  3  0  0  0  0  0  0
  -21.1230   -5.8690   25.0110 C   0  0  0  0  0  3  0  0  0  0  0  0
  -21.4580   -4.5040   24.9380 C   0  0  0  0  0  0  0  0  0  0  0  0
  -21.8990   -3.9520   23.7240 C   0  0  0  0  0  3  0  0  0  0  0  0
  -22.0000   -4.7630   22.5800 C   0  0  0  0  0  0  0  0  0  0  0  0
  -22.4030   -4.2230   21.4040 F   0  0  0  0  0  0  0  0  0  0  0  0
  -21.3580   -3.7180   26.0360 F   0  0  0  0  0  0  0  0  0  0  0  0
  -22.7460  -13.5220   21.1420 C   0  0  0  0  0  0  0  0  0  0  0  0
  -22.0130  -12.8250   22.0060 N   0  0  0  0  0  0  0  0  0  0  0  0
  -22.3050  -14.5440   20.6170 O   0  0  0  0  0  0  0  0  0  0  0  0
  -22.3810  -12.0040   22.4640 H   0  0  0  0  0  0  0  0  0  0  0  0
  -21.0700  -13.1190   22.2130 H   0  0  0  0  0  0  0  0  0  0  0  0
  -25.3640  -15.2070   20.3250 N   0  0  0  0  0  0  0  0  0  0  0  0
  -24.5840  -15.8460   20.4170 H   0  0  0  0  0  0  0  0  0  0  0  0
  -26.1950  -15.6470   19.9510 H   0  0  0  0  0  0  0  0  0  0  0  0
  -29.7350  -16.9340   18.5690 C   0  0  0  0  0  2  0  0  0  0  0  0
  -31.1110  -16.8930   18.2360 O   0  0  0  0  0  0  0  0  0  0  0  0
  -31.4910  -16.1580   18.7260 H   0  0  0  0  0  0  0  0  0  0  0  0
  -28.8430  -21.8490   20.3040 C   0  0  0  0  0  2  0  0  0  0  0  0
  -29.0650  -23.1430   20.8780 O   0  0  0  0  0  0  0  0  0  0  0  0
  -28.5330  -24.2440   20.1200 C   0  0  0  0  0  2  0  0  0  0  0  0
  -28.5520  -25.5560   20.9540 C   0  0  0  0  0  2  0  0  0  0  0  0
  -28.4800  -26.7630   20.1740 O   0  0  0  0  0  0  0  0  0  0  0  0
  -24.5870  -31.9020   23.2510 C   0  0  0  0  0  0  0  0  0  0  0  0
  -27.2930  -27.4660   20.2150 C   0  0  0  0  0  0  0  0  0  0  0  0
  -23.4020  -30.4870   21.5990 C   0  0  0  0  0  3  0  0  0  0  0  0
  -24.8810  -28.9480   20.1950 C   0  0  0  0  0  0  0  0  0  0  0  0
  -25.9270  -30.8610   21.4220 C   0  0  0  0  0  2  0  0  0  0  0  0
  -26.0290  -29.4870   20.7900 C   0  0  0  0  0  0  0  0  0  0  0  0
  -27.2380  -28.7540   20.7920 C   0  0  0  0  0  3  0  0  0  0  0  0
  -26.1310  -26.9370   19.6190 C   0  0  0  0  0  3  0  0  0  0  0  0
  -24.9280  -27.6720   19.6050 C   0  0  0  0  0  3  0  0  0  0  0  0
  -23.6300  -29.7970   20.2260 C   0  0  0  0  0  2  0  0  0  0  0  0
  -24.6550  -31.1000   22.1490 N   0  0  0  0  0  0  0  0  0  0  0  0
  -23.4990  -32.1680   23.7840 O   0  0  0  0  0  0  0  0  0  0  0  0
  -22.7470  -29.4680   22.5590 C   0  0  0  0  0  0  0  0  0  0  0  0
  -21.4240  -29.2810   22.4220 N   0  0  0  0  0  0  0  0  0  0  0  0
  -23.4270  -28.8460   23.3790 O   0  0  0  0  0  0  0  0  0  0  0  0
  -20.9390  -29.8350   21.7300 H   0  0  0  0  0  0  0  0  0  0  0  0
  -18.0510  -28.0800   22.9010 C   0  0  0  0  0  0  0  0  0  0  0  0
  -20.6070  -28.3380   23.1860 C   0  0  0  0  0  3  0  0  0  0  0  0
  -20.7140  -26.9100   22.6040 C   0  0  0  0  0  2  0  0  0  0  0  0
  -19.6170  -26.5900   21.5840 C   0  0  0  0  0  2  0  0  0  0  0  0
  -18.2320  -26.7320   22.2200 C   0  0  0  0  0  2  0  0  0  0  0  0
  -19.1670  -28.8400   23.3390 C   0  0  0  0  0  0  0  0  0  0  0  0
  -18.9440  -30.1020   23.9310 C   0  0  0  0  0  3  0  0  0  0  0  0
  -17.6380  -30.6030   24.0900 C   0  0  0  0  0  3  0  0  0  0  0  0
  -16.5360  -29.8390   23.6660 C   0  0  0  0  0  3  0  0  0  0  0  0
  -16.7440  -28.5790   23.0770 C   0  0  0  0  0  3  0  0  0  0  0  0
  -25.8660  -32.5360   23.8830 C   0  0  0  0  0  3  0  0  0  0  0  0
  -25.5540  -33.9350   24.2050 N   0  0  0  0  0  0  0  0  0  0  0  0
  -25.8990  -34.9840   23.4470 C   0  0  0  0  0  0  0  0  0  0  0  0
  -26.5830  -34.8760   22.4260 O   0  0  0  0  0  0  0  0  0  0  0  0
  -24.9490  -34.0910   24.9970 H   0  0  0  0  0  0  0  0  0  0  0  0
  -24.1830  -36.7790   23.0480 C   0  0  0  0  0  1  0  0  0  0  0  0
  -25.4030  -36.3730   23.8910 C   0  0  0  0  0  3  0  0  0  0  0  0
  -27.5170  -37.2550   24.7720 C   0  0  0  0  0  1  0  0  0  0  0  0
  -26.4390  -37.4250   23.8010 N   0  0  0  0  0  0  0  0  0  0  0  0
  -26.0320  -38.3460   23.9350 H   0  0  0  0  0  0  0  0  0  0  0  0
  -26.3780  -31.7690   25.1630 C   0  0  1  0  0  0  0  0  0  0  0  0
  -25.2790  -31.5280   26.2240 C   0  0  0  0  0  1  0  0  0  0  0  0
  -26.9700  -30.3920   24.7770 C   0  0  0  0  0  1  0  0  0  0  0  0
  -27.5200  -32.5690   25.8300 C   0  0  0  0  0  1  0  0  0  0  0  0
  2  4  2  0
  3  2  1  0
  3  1  1  0
  5  3  1  0
  6 15  2  3
  6  2  1  0
  7 15  1  0
  8 13  1  0
  9 10  1  0
  9  8  1  0
 11 10  1  0
 11 20  1  0
 11 12  1  0
 13  7  1  0
 13 12  1  0
 14  7  2  0
 15 16  1  0
 17 18  2  0
 18 37  1  0
 19 18  1  0
 19 22  1  0
 20 17  1  0
 20 21  1  0
 21 19  2  0
 22 23  1  0
 23 24  2  0
 25 28  1  0
 25 24  1  0
 26 25  2  0
 27 26  1  0
 27 22  2  0
 28 29  1  0
 29 30  1  0
 30 31  2  0
 32 31  1  0
 32 36  1  0
 33 32  2  0
 34 29  2  0
 34 33  1  0
 35 34  1  0
 37 38  1  0
 38 41  1  0
 38 40  1  0
 39 37  2  0
 42 43  1  0
 42 17  1  0
 44 42  1  0
 45  6  1  0
 46 45  1  0
 46 47  1  0
 48 49  1  0
 48  1  1  0
 50 49  1  0
 50 51  1  0
 52 54  1  0
 52 51  1  0
 53 64  2  0
 54 59  1  0
 55 63  1  0
 55 65  1  0
 56 62  1  0
 56 58  1  0
 57 63  1  0
 58 59  2  0
 58 57  1  0
 60 54  2  0
 61 60  1  0
 61 56  2  0
 62 55  1  0
 63 53  1  0
 65 67  2  0
 66 65  1  0
 68 66  1  0
 69 78  2  0
 69 74  1  0
 70 66  1  0
 70 74  1  0
 71 70  1  0
 72 73  1  0
 72 71  1  0
 73 69  1  0
 74 75  2  0
 75 76  1  0
 77 76  2  0
 78 77  1  0
 79 53  1  0
 79 80  1  0
 79 89  1  0
 80 83  1  0
 81 85  1  0
 81 80  1  0
 82 81  2  0
 85 84  1  0
 87 85  1  0
 87 88  1  0
 87 86  1  0
 89 92  1  1
 89 90  1  0
 91 89  1  0
M  ISO  4   7 100  15 100  51 101  52 101
M  END
>  <TORSDO>  (78) 
F 24

>  <SCORE>  (78) 
-12.688

>  <name>  (78) 
79

>  <ligand_id>  (78) 
79

>  <original_smiles>  (78) 
[H]OC([H])([H])C([H])(C(=O)N([H])C([H])([H])C([H])([H])OC([H])([H])C([H])([H])Oc1c([H])c([H])c2c(c1[H])C([H])([H])N(C(=O)C([H])(N([H])C(=O)C([H])(N([H])C([H])([H])[H])C([H])([H])[H])C(C([H])([H])[H])(C([H])([H])[H])C([H])([H])[H])C([H])(C(=O)N([H])C1([H])c3c([H])c([H])c([H])c([H])c3C([H])([H])C([H])([H])C1([H])[H])C2([H])[H])N([H])C(=O)N1C([H])([H])C([H])([H])C([H])([H])C([H])(n2nc(-c3c([H])c([H])c(Oc4c([H])c([H])c(F)c([H])c4F)c([H])c3[H])c(C(=O)N([H])[H])c2N([H])[H])C1([H])[H]

>  <smiles>  (78) 
[H]OC([H])([H])C([H])(C(=O)N([H])C([H])([H])C([H])([H])OC([H])([H])C([H])([H])Oc1c([H])c([H])c2c(c1[H])C([H])([H])N(C(=O)C([H])(N([H])C(=O)C([H])(N([H])C([H])([H])[H])C([H])([H])[H])C(C([H])([H])[H])(C([H])([H])[H])C([H])([H])[H])C([H])(C(=O)N([H])C1([H])c3c([H])c([H])c([H])c([H])c3C([H])([H])C([H])([H])C1([H])[H])C2([H])[H])N([H])C(=O)N1C([H])([H])C([H])([H])C([H])([H])C([H])(n2nc(-c3c([H])c([H])c(Oc4c([H])c([H])c(F)c([H])c4F)c([H])c3[H])c(C(=O)N([H])[H])c2N([H])[H])C1([H])[H]

$$$$
80:0:0
     RDKit          3D

 92 99  0  0  1  0  0  0  0  0999 V2000
  -28.9560  -22.7210   20.5480 C   0  0  0  0  0  3  0  0  0  0  0  0
  -29.4300  -19.7900   20.5680 C   0  0  0  0  0  0  0  0  0  0  0  0
  -28.9090  -21.1020   20.0760 N   0  0  0  0  0  0  0  0  0  0  0  0
  -29.9180  -19.8210   21.7000 O   0  0  0  0  0  0  0  0  0  0  0  0
  -28.5250  -20.9930   19.1450 H   0  0  0  0  0  0  0  0  0  0  0  0
  -29.5110  -18.1890   19.8210 C   0  0  0  0  0  0  0  0  0  0  0  0
  -30.4240  -15.3430   20.1730 C   0  0  0  0  0  0  0  0  0  0  0  0
  -30.4210  -12.8880   19.3140 C   0  0  0  0  0  2  0  0  0  0  0  0
  -29.4990  -12.7000   18.0810 C   0  0  0  0  0  2  0  0  0  0  0  0
  -28.0470  -12.4300   18.5180 C   0  0  0  0  0  2  0  0  0  0  0  0
  -27.6040  -13.3810   19.6570 C   0  0  0  0  0  3  0  0  0  0  0  0
  -28.6560  -13.5080   20.7830 C   0  0  0  0  0  2  0  0  0  0  0  0
  -29.8870  -14.0210   20.1620 N   0  0  0  0  0  0  0  0  0  0  0  0
  -31.6190  -15.3740   19.8460 O   0  0  0  0  0  0  0  0  0  0  0  0
  -29.6150  -16.5810   20.3220 N   0  0  0  0  0  4  0  0  0  0  0  0
  -28.7250  -16.3210   20.7200 H   0  0  0  0  0  0  0  0  0  0  0  0
  -25.2350  -13.9390   20.4100 C   0  0  0  0  0  0  0  0  0  0  0  0
  -24.1750  -13.1660   20.7920 C   0  0  0  0  0  0  0  0  0  0  0  0
  -24.6420  -11.8160   20.7700 C   0  0  0  0  0  0  0  0  0  0  0  0
  -26.2770  -13.0640   20.1690 N   0  0  0  0  0  0  0  0  0  0  0  0
  -25.9330  -11.7790   20.4520 N   0  0  0  0  0  0  0  0  0  0  0  0
  -23.9160  -10.5540   20.9720 C   0  0  0  0  0  0  0  0  0  0  0  0
  -24.3520   -9.5910   21.9090 C   0  0  0  0  0  3  0  0  0  0  0  0
  -23.6230   -8.3980   22.1030 C   0  0  0  0  0  3  0  0  0  0  0  0
  -22.4440   -8.1570   21.3570 C   0  0  0  0  0  0  0  0  0  0  0  0
  -22.0270   -9.1090   20.4100 C   0  0  0  0  0  3  0  0  0  0  0  0
  -22.7560  -10.2940   20.2160 C   0  0  0  0  0  3  0  0  0  0  0  0
  -21.6880   -7.0150   21.4570 O   0  0  0  0  0  0  0  0  0  0  0  0
  -21.6490   -6.2760   22.6120 C   0  0  0  0  0  0  0  0  0  0  0  0
  -21.2420   -6.8360   23.8420 C   0  0  0  0  0  3  0  0  0  0  0  0
  -21.1510   -6.0240   24.9900 C   0  0  0  0  0  3  0  0  0  0  0  0
  -21.4570   -4.6520   24.9090 C   0  0  0  0  0  0  0  0  0  0  0  0
  -21.8570   -4.0910   23.6830 C   0  0  0  0  0  3  0  0  0  0  0  0
  -21.9510   -4.9010   22.5390 C   0  0  0  0  0  0  0  0  0  0  0  0
  -22.3150   -4.3500   21.3550 F   0  0  0  0  0  0  0  0  0  0  0  0
  -21.3620   -3.8700   26.0100 F   0  0  0  0  0  0  0  0  0  0  0  0
  -22.7770  -13.6450   21.0580 C   0  0  0  0  0  0  0  0  0  0  0  0
  -22.0480  -12.9630   21.9330 N   0  0  0  0  0  0  0  0  0  0  0  0
  -22.3400  -14.6620   20.5200 O   0  0  0  0  0  0  0  0  0  0  0  0
  -22.4130  -12.1420   22.3940 H   0  0  0  0  0  0  0  0  0  0  0  0
  -21.1110  -13.2710   22.1510 H   0  0  0  0  0  0  0  0  0  0  0  0
  -25.3940  -15.3100   20.2200 N   0  0  0  0  0  0  0  0  0  0  0  0
  -24.6200  -15.9560   20.3200 H   0  0  0  0  0  0  0  0  0  0  0  0
  -26.2220  -15.7390   19.8270 H   0  0  0  0  0  0  0  0  0  0  0  0
  -30.2050  -18.2460   18.4400 C   0  0  0  0  0  2  0  0  0  0  0  0
  -29.7560  -19.3050   17.6070 O   0  0  0  0  0  0  0  0  0  0  0  0
  -30.1880  -19.2120   16.7630 H   0  0  0  0  0  0  0  0  0  0  0  0
  -30.4510  -23.1060   20.4820 C   0  0  0  0  0  2  0  0  0  0  0  0
  -30.8420  -23.8700   21.6100 O   0  0  0  0  0  0  0  0  0  0  0  0
  -31.7670  -24.0770   21.5130 H   0  0  0  0  0  0  0  0  0  0  0  0
  -28.0410  -24.2180   20.0490 C   0  0  0  0  0  2  0  0  0  0  0  0
  -28.1940  -25.8510   20.3410 O   0  0  0  0  0  0  0  0  0  0  0  0
  -24.6380  -31.8590   23.2390 C   0  0  0  0  0  0  0  0  0  0  0  0
  -27.1850  -26.9540   20.2430 C   0  0  0  0  0  0  0  0  0  0  0  0
  -23.4410  -30.4580   21.6070 C   0  0  0  0  0  3  0  0  0  0  0  0
  -24.8880  -28.8440   20.1860 C   0  0  0  0  0  0  0  0  0  0  0  0
  -26.0080  -30.6630   21.4580 C   0  0  0  0  0  2  0  0  0  0  0  0
  -26.0750  -29.2490   20.8070 C   0  0  0  0  0  0  0  0  0  0  0  0
  -27.2160  -28.3250   20.8100 C   0  0  0  0  0  3  0  0  0  0  0  0
  -25.9690  -26.7050   19.5690 C   0  0  0  0  0  3  0  0  0  0  0  0
  -24.8610  -27.5940   19.5450 C   0  0  0  0  0  3  0  0  0  0  0  0
  -23.6700  -29.7680   20.2320 C   0  0  0  0  0  2  0  0  0  0  0  0
  -24.7180  -31.0220   22.1540 N   0  0  0  0  0  0  0  0  0  0  0  0
  -23.5490  -32.1530   23.7610 O   0  0  0  0  0  0  0  0  0  0  0  0
  -22.7470  -29.4670   22.5780 C   0  0  0  0  0  0  0  0  0  0  0  0
  -21.4160  -29.3050   22.4560 N   0  0  0  0  0  0  0  0  0  0  0  0
  -23.4110  -28.8460   23.4100 O   0  0  0  0  0  0  0  0  0  0  0  0
  -20.9310  -29.8550   21.7620 H   0  0  0  0  0  0  0  0  0  0  0  0
  -18.0360  -28.0870   22.9650 C   0  0  0  0  0  0  0  0  0  0  0  0
  -20.5940  -28.3700   23.2330 C   0  0  0  0  0  3  0  0  0  0  0  0
  -20.7030  -26.9330   22.6710 C   0  0  0  0  0  2  0  0  0  0  0  0
  -19.6070  -26.5960   21.6560 C   0  0  0  0  0  2  0  0  0  0  0  0
  -18.2220  -26.7360   22.2960 C   0  0  0  0  0  2  0  0  0  0  0  0
  -19.1480  -28.8620   23.3910 C   0  0  0  0  0  0  0  0  0  0  0  0
  -18.9160  -30.1240   23.9790 C   0  0  0  0  0  3  0  0  0  0  0  0
  -17.6060  -30.6130   24.1440 C   0  0  0  0  0  3  0  0  0  0  0  0
  -16.5100  -29.8370   23.7320 C   0  0  0  0  0  3  0  0  0  0  0  0
  -16.7250  -28.5760   23.1490 C   0  0  0  0  0  3  0  0  0  0  0  0
  -25.9100  -32.5050   23.8680 C   0  0  0  0  0  3  0  0  0  0  0  0
  -25.5930  -33.9060   24.1980 N   0  0  0  0  0  0  0  0  0  0  0  0
  -25.9130  -34.9650   23.4440 C   0  0  0  0  0  0  0  0  0  0  0  0
  -26.5700  -34.8670   22.4030 O   0  0  0  0  0  0  0  0  0  0  0  0
  -25.0070  -34.0540   25.0070 H   0  0  0  0  0  0  0  0  0  0  0  0
  -24.1710  -36.7590   23.1360 C   0  0  0  0  0  1  0  0  0  0  0  0
  -25.4340  -36.3550   23.9140 C   0  0  0  0  0  3  0  0  0  0  0  0
  -27.5860  -37.2520   24.6920 C   0  0  0  0  0  1  0  0  0  0  0  0
  -26.4600  -37.4130   23.7750 N   0  0  0  0  0  0  0  0  0  0  0  0
  -26.0540  -38.3320   23.9280 H   0  0  0  0  0  0  0  0  0  0  0  0
  -26.4150  -31.7460   25.1580 C   0  0  1  0  0  0  0  0  0  0  0  0
  -25.3140  -31.5240   26.2220 C   0  0  0  0  0  1  0  0  0  0  0  0
  -26.9960  -30.3610   24.7930 C   0  0  0  0  0  1  0  0  0  0  0  0
  -27.5660  -32.5430   25.8170 C   0  0  0  0  0  1  0  0  0  0  0  0
  1 51  1  0
  2  4  2  0
  3  1  1  0
  3  2  1  0
  5  3  1  0
  6 15  2  0
  6  2  1  0
  7 15  1  0
  8 13  1  0
  9 10  1  0
  9  8  1  0
 11 10  1  0
 11 20  1  0
 11 12  1  0
 13  7  1  0
 13 12  1  0
 14  7  2  0
 15 16  1  0
 17 18  2  0
 18 37  1  0
 19 18  1  0
 19 22  1  0
 20 17  1  0
 20 21  1  0
 21 19  2  0
 22 23  1  0
 23 24  2  0
 25 28  1  0
 25 24  1  0
 26 25  2  0
 27 26  1  0
 27 22  2  0
 28 29  1  0
 29 30  1  0
 30 31  2  0
 32 31  1  0
 32 36  1  0
 33 32  2  0
 34 29  2  0
 34 33  1  0
 35 34  1  0
 37 38  1  0
 38 41  1  0
 38 40  1  0
 39 37  2  0
 42 43  1  0
 42 17  1  0
 44 42  1  0
 45  6  1  0
 46 45  1  0
 47 46  1  0
 48  1  1  0
 48 49  1  0
 50 49  1  0
 51 52  1  0
 53 64  2  0
 54 52  1  0
 54 59  1  0
 55 63  1  0
 55 65  1  0
 56 62  1  0
 56 58  1  0
 57 63  1  0
 58 59  2  0
 58 57  1  0
 60 54  2  0
 61 60  1  0
 61 56  2  0
 62 55  1  0
 63 53  1  0
 65 67  2  0
 66 65  1  0
 68 66  1  0
 69 78  2  0
 69 74  1  0
 70 66  1  0
 70 74  1  0
 71 70  1  0
 72 73  1  0
 72 71  1  0
 73 69  1  0
 74 75  2  0
 75 76  1  0
 77 76  2  0
 78 77  1  0
 79 53  1  0
 79 80  1  0
 79 89  1  0
 80 83  1  0
 81 85  1  0
 81 80  1  0
 82 81  2  0
 85 84  1  0
 87 85  1  0
 87 88  1  0
 87 86  1  0
 89 92  1  1
 89 90  1  0
 91 89  1  0
M  ISO  4   7 100  15 100  51 101  52 101
M  END
>  <TORSDO>  (79) 
F 23

>  <SCORE>  (79) 
-15.717

>  <name>  (79) 
80

>  <ligand_id>  (79) 
80

>  <original_smiles>  (79) 
[H]OC([H])([H])C([H])(C(=O)N([H])C([H])(C([H])([H])O[H])C([H])([H])Oc1c([H])c([H])c2c(c1[H])C([H])([H])N(C(=O)C([H])(N([H])C(=O)C([H])(N([H])C([H])([H])[H])C([H])([H])[H])C(C([H])([H])[H])(C([H])([H])[H])C([H])([H])[H])C([H])(C(=O)N([H])C1([H])c3c([H])c([H])c([H])c([H])c3C([H])([H])C([H])([H])C1([H])[H])C2([H])[H])N([H])C(=O)N1C([H])([H])C([H])([H])C([H])([H])C([H])(n2nc(-c3c([H])c([H])c(Oc4c([H])c([H])c(F)c([H])c4F)c([H])c3[H])c(C(=O)N([H])[H])c2N([H])[H])C1([H])[H]

>  <smiles>  (79) 
[H]OC([H])([H])C([H])(C(=O)N([H])C([H])(C([H])([H])O[H])C([H])([H])Oc1c([H])c([H])c2c(c1[H])C([H])([H])N(C(=O)C([H])(N([H])C(=O)C([H])(N([H])C([H])([H])[H])C([H])([H])[H])C(C([H])([H])[H])(C([H])([H])[H])C([H])([H])[H])C([H])(C(=O)N([H])C1([H])c3c([H])c([H])c([H])c([H])c3C([H])([H])C([H])([H])C1([H])[H])C2([H])[H])N([H])C(=O)N1C([H])([H])C([H])([H])C([H])([H])C([H])(n2nc(-c3c([H])c([H])c(Oc4c([H])c([H])c(F)c([H])c4F)c([H])c3[H])c(C(=O)N([H])[H])c2N([H])[H])C1([H])[H]

$$$$
81:0:0
     RDKit          3D

101108  0  0  1  0  0  0  0  0999 V2000
  -26.6820  -21.3910   18.8070 C   0  0  0  0  0  0  0  0  0  0  0  0
  -25.8700  -20.4400   19.2920 N   0  0  0  0  0  0  0  0  0  0  0  0
  -27.8570  -21.1770   18.4950 O   0  0  0  0  0  0  0  0  0  0  0  0
  -24.9320  -20.7210   19.5460 H   0  0  0  0  0  0  0  0  0  0  0  0
  -24.9620  -22.6170   17.5000 C   0  0  0  0  0  1  0  0  0  0  0  0
  -26.0310  -22.7740   18.5980 C   0  0  0  0  0  3  0  0  0  0  0  0
  -27.7660  -24.5720   18.9010 C   0  0  0  0  0  0  0  0  0  0  0  0
  -26.9370  -23.8350   18.1490 N   0  0  0  0  0  0  0  0  0  0  0  0
  -28.1420  -24.2290   20.0260 O   0  0  0  0  0  0  0  0  0  0  0  0
  -26.7530  -24.1930   17.2220 H   0  0  0  0  0  0  0  0  0  0  0  0
  -28.1000  -25.9630   18.3210 C   0  0  0  0  0  2  0  0  0  0  0  0
  -28.0700  -27.0190   19.3020 O   0  0  0  0  0  0  0  0  0  0  0  0
  -24.7790  -31.6590   23.5730 C   0  0  0  0  0  0  0  0  0  0  0  0
  -26.9430  -27.8050   19.4740 C   0  0  0  0  0  0  0  0  0  0  0  0
  -23.4020  -30.7110   21.7550 C   0  0  0  0  0  3  0  0  0  0  0  0
  -24.6720  -29.4300   19.9560 C   0  0  0  0  0  0  0  0  0  0  0  0
  -25.9370  -30.9420   21.4860 C   0  0  0  0  0  2  0  0  0  0  0  0
  -25.8880  -29.7290   20.5760 C   0  0  0  0  0  0  0  0  0  0  0  0
  -27.0250  -28.9180   20.3440 C   0  0  0  0  0  3  0  0  0  0  0  0
  -25.7060  -27.5410   18.8390 C   0  0  0  0  0  3  0  0  0  0  0  0
  -24.5740  -28.3320   19.0880 C   0  0  0  0  0  3  0  0  0  0  0  0
  -23.4980  -30.3320   20.2550 C   0  0  0  0  0  2  0  0  0  0  0  0
  -24.7290  -31.1030   22.3300 N   0  0  0  0  0  0  0  0  0  0  0  0
  -23.7460  -31.8820   24.2180 O   0  0  0  0  0  0  0  0  0  0  0  0
  -22.7210  -29.5520   22.5170 C   0  0  0  0  0  0  0  0  0  0  0  0
  -21.3990  -29.4140   22.3360 N   0  0  0  0  0  0  0  0  0  0  0  0
  -23.3800  -28.7860   23.2250 O   0  0  0  0  0  0  0  0  0  0  0  0
  -20.9270  -30.0860   21.7470 H   0  0  0  0  0  0  0  0  0  0  0  0
  -18.0280  -28.1110   22.4260 C   0  0  0  0  0  0  0  0  0  0  0  0
  -20.5510  -28.3740   22.9230 C   0  0  0  0  0  3  0  0  0  0  0  0
  -20.7330  -27.0270   22.1870 C   0  0  0  0  0  2  0  0  0  0  0  0
  -19.7160  -26.8130   21.0610 C   0  0  0  0  0  2  0  0  0  0  0  0
  -18.2870  -26.8570   21.6080 C   0  0  0  0  0  2  0  0  0  0  0  0
  -19.0930  -28.8320   23.0300 C   0  0  0  0  0  0  0  0  0  0  0  0
  -18.8000  -30.0120   23.7480 C   0  0  0  0  0  3  0  0  0  0  0  0
  -17.4730  -30.4680   23.8740 C   0  0  0  0  0  3  0  0  0  0  0  0
  -16.4220  -29.7400   23.2900 C   0  0  0  0  0  3  0  0  0  0  0  0
  -16.7000  -28.5650   22.5690 C   0  0  0  0  0  3  0  0  0  0  0  0
  -26.1340  -32.0630   24.2330 C   0  0  0  0  0  3  0  0  0  0  0  0
  -25.9610  -33.4000   24.8150 N   0  0  0  0  0  0  0  0  0  0  0  0
  -26.4080  -34.5340   24.2580 C   0  0  0  0  0  0  0  0  0  0  0  0
  -27.0790  -34.5540   23.2250 O   0  0  0  0  0  0  0  0  0  0  0  0
  -25.3780  -33.4630   25.6370 H   0  0  0  0  0  0  0  0  0  0  0  0
  -24.8880  -36.5370   24.2210 C   0  0  0  0  0  1  0  0  0  0  0  0
  -26.0520  -35.8600   24.9600 C   0  0  0  0  0  3  0  0  0  0  0  0
  -28.2420  -36.3350   25.9660 C   0  0  0  0  0  1  0  0  0  0  0  0
  -27.1930  -36.7970   25.0610 N   0  0  0  0  0  0  0  0  0  0  0  0
  -26.8820  -37.7120   25.3760 H   0  0  0  0  0  0  0  0  0  0  0  0
  -26.6230  -31.0370   25.3270 C   0  0  1  0  0  0  0  0  0  0  0  0
  -25.5500  -30.7030   26.3900 C   0  0  0  0  0  1  0  0  0  0  0  0
  -27.0670  -29.7110   24.6700 C   0  0  0  0  0  1  0  0  0  0  0  0
  -27.8600  -31.6050   26.0640 C   0  0  0  0  0  1  0  0  0  0  0  0
  -26.1710  -19.0210   19.4630 C   0  0  0  0  0  2  0  0  0  0  0  0
  -27.6030  -18.8000   19.9650 C   0  0  0  0  0  2  0  0  0  0  0  0
  -27.9930  -19.8980   20.7880 O   0  0  0  0  0  0  0  0  0  0  0  0
  -29.2900  -20.4220   20.5010 C   0  0  0  0  0  2  0  0  0  0  0  0
  -30.3830  -19.9700   21.4930 C   0  0  0  0  0  2  0  0  0  0  0  0
  -30.7920  -18.6190   21.3200 O   0  0  0  0  0  0  0  0  0  0  0  0
  -31.9640  -18.4070   20.5380 C   0  0  0  0  0  2  0  0  0  0  0  0
  -32.3090  -16.9210   20.7070 C   0  0  0  0  0  2  0  0  0  0  0  0
  -33.4580  -16.5110   19.9610 O   0  0  0  0  0  0  0  0  0  0  0  0
  -33.3790  -15.1340   19.5960 C   0  0  0  0  0  2  0  0  0  0  0  0
  -34.6000  -14.3060   20.0450 C   0  0  0  0  0  2  0  0  0  0  0  0
  -34.4940  -12.0360   21.0980 C   0  0  0  0  0  0  0  0  0  0  0  0
  -33.7110   -9.7560   21.6220 C   0  0  0  0  0  2  0  0  0  0  0  0
  -33.1550   -9.0900   20.3470 C   0  0  0  0  0  2  0  0  0  0  0  0
  -31.6600   -9.4220   20.1880 C   0  0  0  0  0  2  0  0  0  0  0  0
  -31.3800  -10.9440   20.2970 C   0  0  0  0  0  3  0  0  0  0  0  0
  -32.0620  -11.5460   21.5460 C   0  0  0  0  0  2  0  0  0  0  0  0
  -33.5020  -11.2070   21.5170 N   0  0  0  0  0  0  0  0  0  0  0  0
  -35.6300  -11.6580   20.8020 O   0  0  0  0  0  0  0  0  0  0  0  0
  -34.1370  -13.3190   21.0220 N   0  0  0  0  0  0  0  0  0  0  0  0
  -33.2450  -13.5260   21.4460 H   0  0  0  0  0  0  0  0  0  0  0  0
  -29.2700  -12.3320   19.7860 C   0  0  0  0  0  0  0  0  0  0  0  0
  -27.9380  -12.0680   19.9520 C   0  0  0  0  0  0  0  0  0  0  0  0
  -27.8650  -10.7710   20.5510 C   0  0  0  0  0  0  0  0  0  0  0  0
  -29.9450  -11.2250   20.2780 N   0  0  0  0  0  0  0  0  0  0  0  0
  -29.0870  -10.3040   20.7870 N   0  0  0  0  0  0  0  0  0  0  0  0
  -26.7060   -9.9260   20.8650 C   0  0  0  0  0  0  0  0  0  0  0  0
  -26.4840   -9.4240   22.1660 C   0  0  0  0  0  3  0  0  0  0  0  0
  -25.3530   -8.6260   22.4440 C   0  0  0  0  0  3  0  0  0  0  0  0
  -24.4260   -8.3260   21.4180 C   0  0  0  0  0  0  0  0  0  0  0  0
  -24.6610   -8.8120   20.1200 C   0  0  0  0  0  3  0  0  0  0  0  0
  -25.7880   -9.6020   19.8430 C   0  0  0  0  0  3  0  0  0  0  0  0
  -23.3160   -7.5350   21.5920 O   0  0  0  0  0  0  0  0  0  0  0  0
  -22.6610   -7.4640   22.7960 C   0  0  0  0  0  0  0  0  0  0  0  0
  -22.1360   -8.6150   23.4250 C   0  0  0  0  0  3  0  0  0  0  0  0
  -21.4120   -8.4900   24.6270 C   0  0  0  0  0  3  0  0  0  0  0  0
  -21.2030   -7.2200   25.1960 C   0  0  0  0  0  0  0  0  0  0  0  0
  -21.7200   -6.0720   24.5700 C   0  0  0  0  0  3  0  0  0  0  0  0
  -22.4470   -6.1960   23.3710 C   0  0  0  0  0  0  0  0  0  0  0  0
  -22.9260   -5.0860   22.7600 F   0  0  0  0  0  0  0  0  0  0  0  0
  -20.5000   -7.0990   26.3470 F   0  0  0  0  0  0  0  0  0  0  0  0
  -26.7910  -12.9270   19.5010 C   0  0  0  0  0  0  0  0  0  0  0  0
  -25.6780  -12.8940   20.2260 N   0  0  0  0  0  0  0  0  0  0  0  0
  -26.8970  -13.6730   18.5270 O   0  0  0  0  0  0  0  0  0  0  0  0
  -25.6090  -12.3020   21.0400 H   0  0  0  0  0  0  0  0  0  0  0  0
  -24.8930  -13.4740   19.9740 H   0  0  0  0  0  0  0  0  0  0  0  0
  -29.9550  -13.4150   19.2420 N   0  0  0  0  0  0  0  0  0  0  0  0
  -29.4490  -14.1710   18.7930 H   0  0  0  0  0  0  0  0  0  0  0  0
  -30.9510  -13.4470   19.0740 H   0  0  0  0  0  0  0  0  0  0  0  0
  1  2  1  0
  2 53  1  0
  2  4  1  0
  3  1  2  0
  6  5  1  0
  6  1  1  0
  7  9  2  0
  8  6  1  0
  8  7  1  0
 10  8  1  0
 11  7  1  0
 11 12  1  0
 12 14  1  0
 13 24  2  0
 14 19  1  0
 15 23  1  0
 15 25  1  0
 16 22  1  0
 16 18  1  0
 17 23  1  0
 18 17  1  0
 19 18  2  0
 20 21  1  0
 20 14  2  0
 21 16  2  0
 22 15  1  0
 23 13  1  0
 25 27  2  0
 26 25  1  0
 28 26  1  0
 29 38  2  0
 29 34  1  0
 30 26  1  0
 30 34  1  0
 31 30  1  0
 32 33  1  0
 32 31  1  0
 33 29  1  0
 34 35  2  0
 35 36  1  0
 37 36  2  0
 38 37  1  0
 39 13  1  0
 39 40  1  0
 39 49  1  0
 40 43  1  0
 41 40  1  0
 41 45  1  0
 42 41  2  0
 45 44  1  0
 45 47  1  0
 47 48  1  0
 47 46  1  0
 49 52  1  1
 49 50  1  0
 51 49  1  0
 53 54  1  0
 54 55  1  0
 56 55  1  0
 56 57  1  0
 58 57  1  0
 59 60  1  0
 59 58  1  0
 61 60  1  0
 62 61  1  0
 62 63  1  0
 63 72  1  0
 64 70  1  0
 66 65  1  0
 67 66  1  0
 68 67  1  0
 68 69  1  0
 70 69  1  0
 70 65  1  0
 71 64  2  0
 72 64  1  0
 72 73  1  0
 74 75  2  0
 74 77  1  0
 75 76  1  0
 76 78  2  0
 76 79  1  0
 77 68  1  0
 77 78  1  0
 79 80  1  0
 80 81  2  0
 82 85  1  0
 82 81  1  0
 83 82  2  0
 84 83  1  0
 84 79  2  0
 85 86  1  0
 86 91  2  0
 86 87  1  0
 87 88  2  0
 88 89  1  0
 89 93  1  0
 90 89  2  0
 91 90  1  0
 92 91  1  0
 94 75  1  0
 94 95  1  0
 95 97  1  0
 96 94  2  0
 98 95  1  0
 99 74  1  0
100 99  1  0
101 99  1  0
M  ISO  4  11 101  12 101  64 100  72 100
M  END
>  <TORSDO>  (80) 
F 30

>  <SCORE>  (80) 
-5.886

>  <name>  (80) 
81

>  <ligand_id>  (80) 
81

>  <original_smiles>  (80) 
[H]c1c([H])c([H])c2c(c1[H])C([H])([H])C([H])([H])C([H])([H])C2([H])N([H])C(=O)C1([H])N(C(=O)C([H])(N([H])C(=O)C([H])(N([H])C([H])([H])[H])C([H])([H])[H])C(C([H])([H])[H])(C([H])([H])[H])C([H])([H])[H])C([H])([H])c2c([H])c(OC([H])([H])C(=O)N([H])C([H])(C(=O)N([H])C([H])([H])C([H])([H])OC([H])([H])C([H])([H])OC([H])([H])C([H])([H])OC([H])([H])C([H])([H])N([H])C(=O)N3C([H])([H])C([H])([H])C([H])([H])C([H])(n4nc(-c5c([H])c([H])c(Oc6c([H])c([H])c(F)c([H])c6F)c([H])c5[H])c(C(=O)N([H])[H])c4N([H])[H])C3([H])[H])C([H])([H])[H])c([H])c([H])c2C1([H])[H]

>  <smiles>  (80) 
[H]c1c([H])c([H])c2c(c1[H])C([H])([H])C([H])([H])C([H])([H])C2([H])N([H])C(=O)C1([H])N(C(=O)C([H])(N([H])C(=O)C([H])(N([H])C([H])([H])[H])C([H])([H])[H])C(C([H])([H])[H])(C([H])([H])[H])C([H])([H])[H])C([H])([H])c2c([H])c(OC([H])([H])C(=O)N([H])C([H])(C(=O)N([H])C([H])([H])C([H])([H])OC([H])([H])C([H])([H])OC([H])([H])C([H])([H])OC([H])([H])C([H])([H])N([H])C(=O)N3C([H])([H])C([H])([H])C([H])([H])C([H])(n4nc(-c5c([H])c([H])c(Oc6c([H])c([H])c(F)c([H])c6F)c([H])c5[H])c(C(=O)N([H])[H])c4N([H])[H])C3([H])[H])C([H])([H])[H])c([H])c([H])c2C1([H])[H]

$$$$
82:0:0
     RDKit          3D

 93101  0  0  1  0  0  0  0  0999 V2000
  -29.2070  -20.6640   20.5730 C   0  0  0  0  0  0  0  0  0  0  0  0
  -29.7640  -20.4840   21.7760 N   0  0  0  0  0  0  0  0  0  0  0  0
  -29.7450  -21.6630   22.4610 N   0  0  0  0  0  0  0  0  0  0  0  0
  -29.1910  -22.6340   21.8160 N   0  0  0  0  0  0  0  0  0  0  0  0
  -28.7800  -22.2320   20.5820 N   0  0  0  0  0  0  0  0  0  0  0  0
  -27.9990  -23.7520   19.9520 C   0  0  0  0  0  2  0  0  0  0  0  0
  -28.1190  -25.4660   20.3950 O   0  0  0  0  0  0  0  0  0  0  0  0
  -24.6060  -31.8690   23.2310 C   0  0  0  0  0  0  0  0  0  0  0  0
  -27.1530  -26.7080   20.2800 C   0  0  0  0  0  0  0  0  0  0  0  0
  -23.4330  -30.4620   21.5920 C   0  0  0  0  0  3  0  0  0  0  0  0
  -24.8910  -28.7900   20.2000 C   0  0  0  0  0  0  0  0  0  0  0  0
  -26.0160  -30.5750   21.5040 C   0  0  0  0  0  2  0  0  0  0  0  0
  -26.0830  -29.1320   20.8500 C   0  0  0  0  0  0  0  0  0  0  0  0
  -27.1920  -28.1210   20.8590 C   0  0  0  0  0  3  0  0  0  0  0  0
  -25.9320  -26.5990   19.5620 C   0  0  0  0  0  3  0  0  0  0  0  0
  -24.8630  -27.5520   19.5310 C   0  0  0  0  0  3  0  0  0  0  0  0
  -23.6850  -29.7480   20.2310 C   0  0  0  0  0  2  0  0  0  0  0  0
  -24.7100  -31.0040   22.1620 N   0  0  0  0  0  0  0  0  0  0  0  0
  -23.5080  -32.1760   23.7270 O   0  0  0  0  0  0  0  0  0  0  0  0
  -22.6970  -29.4980   22.5640 C   0  0  0  0  0  0  0  0  0  0  0  0
  -21.3650  -29.3530   22.4320 N   0  0  0  0  0  0  0  0  0  0  0  0
  -23.3430  -28.8750   23.4100 O   0  0  0  0  0  0  0  0  0  0  0  0
  -20.8950  -29.9000   21.7250 H   0  0  0  0  0  0  0  0  0  0  0  0
  -17.9660  -28.1660   22.9390 C   0  0  0  0  0  0  0  0  0  0  0  0
  -20.5280  -28.4250   23.2040 C   0  0  0  0  0  3  0  0  0  0  0  0
  -20.6210  -26.9910   22.6330 C   0  0  0  0  0  2  0  0  0  0  0  0
  -19.5220  -26.6730   21.6150 C   0  0  0  0  0  2  0  0  0  0  0  0
  -18.1410  -26.8200   22.2570 C   0  0  0  0  0  2  0  0  0  0  0  0
  -19.0860  -28.9290   23.3680 C   0  0  0  0  0  0  0  0  0  0  0  0
  -18.8670  -30.1850   23.9740 C   0  0  0  0  0  3  0  0  0  0  0  0
  -17.5610  -30.6820   24.1520 C   0  0  0  0  0  3  0  0  0  0  0  0
  -16.4570  -29.9190   23.7350 C   0  0  0  0  0  3  0  0  0  0  0  0
  -16.6600  -28.6630   23.1350 C   0  0  0  0  0  3  0  0  0  0  0  0
  -25.8590  -32.5270   23.8850 C   0  0  0  0  0  3  0  0  0  0  0  0
  -26.3240  -31.7930   25.2040 C   0  0  1  0  0  0  0  0  0  0  0  0
  -25.1940  -31.5970   26.2440 C   0  0  0  0  0  1  0  0  0  0  0  0
  -26.9070  -30.3980   24.8880 C   0  0  0  0  0  1  0  0  0  0  0  0
  -27.4640  -32.5950   25.8770 C   0  0  0  0  0  1  0  0  0  0  0  0
  -25.5370  -33.9370   24.1890 N   0  0  0  0  0  0  0  0  0  0  0  0
  -25.8900  -34.9890   23.4360 C   0  0  0  0  0  0  0  0  0  0  0  0
  -26.5740  -34.8760   22.4170 O   0  0  0  0  0  0  0  0  0  0  0  0
  -24.9280  -34.0980   24.9790 H   0  0  0  0  0  0  0  0  0  0  0  0
  -24.1870  -36.8110   23.0630 C   0  0  0  0  0  1  0  0  0  0  0  0
  -25.4150  -36.3900   23.8850 C   0  0  0  0  0  3  0  0  0  0  0  0
  -27.5430  -37.2730   24.7420 C   0  0  0  0  0  1  0  0  0  0  0  0
  -26.4610  -37.4320   23.7750 N   0  0  0  0  0  0  0  0  0  0  0  0
  -26.0610  -38.3590   23.8940 H   0  0  0  0  0  0  0  0  0  0  0  0
  -29.4160  -18.9790   19.7290 C   0  0  0  0  0  0  0  0  0  0  0  0
  -30.3050  -15.8400   20.0840 C   0  0  0  0  0  0  0  0  0  0  0  0
  -30.4310  -13.2650   19.3280 C   0  0  0  0  0  2  0  0  0  0  0  0
  -29.5340  -12.8350   18.1270 C   0  0  0  0  0  2  0  0  0  0  0  0
  -28.1340  -12.4340   18.6140 C   0  0  0  0  0  2  0  0  0  0  0  0
  -27.6160  -13.4300   19.6750 C   0  0  0  0  0  3  0  0  0  0  0  0
  -28.6560  -13.7970   20.7690 C   0  0  0  0  0  2  0  0  0  0  0  0
  -29.8110  -14.4480   20.0980 N   0  0  0  0  0  0  0  0  0  0  0  0
  -31.5000  -15.7970   19.7300 O   0  0  0  0  0  0  0  0  0  0  0  0
  -29.5570  -17.2240   20.2240 N   0  0  0  0  0  4  0  0  0  0  0  0
  -28.6850  -17.0100   20.6890 H   0  0  0  0  0  0  0  0  0  0  0  0
  -25.2680  -13.9190   20.5070 C   0  0  0  0  0  0  0  0  0  0  0  0
  -24.2280  -13.1220   20.8910 C   0  0  0  0  0  0  0  0  0  0  0  0
  -24.7130  -11.7790   20.8300 C   0  0  0  0  0  0  0  0  0  0  0  0
  -26.3150  -13.0650   20.2190 N   0  0  0  0  0  0  0  0  0  0  0  0
  -26.0000  -11.7700   20.4860 N   0  0  0  0  0  0  0  0  0  0  0  0
  -24.0030  -10.5050   21.0250 C   0  0  0  0  0  0  0  0  0  0  0  0
  -24.4530   -9.5400   21.9510 C   0  0  0  0  0  3  0  0  0  0  0  0
  -23.7400   -8.3350   22.1370 C   0  0  0  0  0  3  0  0  0  0  0  0
  -22.5620   -8.0880   21.3910 C   0  0  0  0  0  0  0  0  0  0  0  0
  -22.1290   -9.0420   20.4530 C   0  0  0  0  0  3  0  0  0  0  0  0
  -22.8440  -10.2380   20.2670 C   0  0  0  0  0  3  0  0  0  0  0  0
  -21.8170   -6.9370   21.4820 O   0  0  0  0  0  0  0  0  0  0  0  0
  -21.7720   -6.2010   22.6380 C   0  0  0  0  0  0  0  0  0  0  0  0
  -21.2950   -6.7430   23.8500 C   0  0  0  0  0  3  0  0  0  0  0  0
  -21.2020   -5.9310   24.9970 C   0  0  0  0  0  3  0  0  0  0  0  0
  -21.5730   -4.5750   24.9330 C   0  0  0  0  0  0  0  0  0  0  0  0
  -22.0410   -4.0290   23.7250 C   0  0  0  0  0  3  0  0  0  0  0  0
  -22.1380   -4.8400   22.5800 C   0  0  0  0  0  0  0  0  0  0  0  0
  -22.5690   -4.3050   21.4140 F   0  0  0  0  0  0  0  0  0  0  0  0
  -21.4750   -3.7930   26.0330 F   0  0  0  0  0  0  0  0  0  0  0  0
  -22.8320  -13.5810   21.1900 C   0  0  0  0  0  0  0  0  0  0  0  0
  -22.1180  -12.8700   22.0520 N   0  0  0  0  0  0  0  0  0  0  0  0
  -22.3790  -14.6110   20.6900 O   0  0  0  0  0  0  0  0  0  0  0  0
  -22.4930  -12.0420   22.4870 H   0  0  0  0  0  0  0  0  0  0  0  0
  -21.1810  -13.1640   22.2870 H   0  0  0  0  0  0  0  0  0  0  0  0
  -25.4130  -15.2970   20.3500 N   0  0  0  0  0  0  0  0  0  0  0  0
  -24.6560  -15.9440   20.5360 H   0  0  0  0  0  0  0  0  0  0  0  0
  -26.2530  -15.7480   20.0100 H   0  0  0  0  0  0  0  0  0  0  0  0
  -31.8160  -19.5260   18.9980 C   0  0  0  0  0  1  0  0  0  0  0  0
  -29.8990  -20.3550   17.6040 C   0  0  0  0  0  1  0  0  0  0  0  0
  -30.3900  -19.1910   18.5010 C   0  0  2  0  0  0  0  0  0  0  0  0
  -30.4900  -17.9780   17.6550 N   0  0  0  0  0  4  0  0  0  0  0  0
  -31.0750  -18.1480   16.8530 H   0  0  0  0  0  0  0  0  0  0  0  0
  -29.5870  -17.6920   17.3180 H   0  0  0  0  0  0  0  0  0  0  0  0
  -30.8990  -17.2200   18.1830 H   0  0  0  0  0  0  0  0  0  0  0  0
  1  5  1  0
  1  2  2  0
  2  3  1  0
  4  3  2  0
  5  4  1  0
  6  7  1  0
  6  5  1  0
  8 19  2  0
  9  7  1  0
  9 14  1  0
 10 18  1  0
 10 20  1  0
 11 17  1  0
 11 13  1  0
 12 18  1  0
 13 14  2  0
 13 12  1  0
 15  9  2  0
 16 15  1  0
 16 11  2  0
 17 10  1  0
 18  8  1  0
 20 22  2  0
 21 20  1  0
 23 21  1  0
 24 33  2  0
 24 29  1  0
 25 21  1  0
 25 29  1  0
 26 25  1  0
 27 28  1  0
 27 26  1  0
 28 24  1  0
 29 30  2  0
 30 31  1  0
 32 31  2  0
 33 32  1  0
 34  8  1  0
 34 39  1  0
 34 35  1  0
 35 38  1  1
 35 36  1  0
 37 35  1  0
 39 42  1  0
 40 44  1  0
 40 39  1  0
 41 40  2  0
 44 43  1  0
 46 44  1  0
 46 47  1  0
 46 45  1  0
 48 57  2  0
 48  1  1  0
 49 55  1  0
 49 57  1  0
 50 55  1  0
 51 52  1  0
 51 50  1  0
 53 52  1  0
 53 62  1  0
 53 54  1  0
 55 54  1  0
 56 49  2  0
 57 58  1  0
 59 60  2  0
 60 79  1  0
 61 60  1  0
 61 64  1  0
 62 63  1  0
 62 59  1  0
 63 61  2  0
 64 65  1  0
 65 66  2  0
 67 70  1  0
 67 66  1  0
 68 67  2  0
 69 68  1  0
 69 64  2  0
 70 71  1  0
 71 72  1  0
 72 73  2  0
 74 73  1  0
 74 78  1  0
 75 74  2  0
 76 71  2  0
 76 75  1  0
 77 76  1  0
 79 80  1  0
 80 83  1  0
 80 82  1  0
 81 79  2  0
 84 59  1  0
 84 85  1  0
 86 84  1  0
 89 88  1  6
 89 87  1  0
 89 48  1  0
 90 93  1  0
 90 89  1  0
 91 90  1  0
 92 90  1  0
M  ISO  4   6 101   7 101  49 100  57 100
M  END
>  <TORSDO>  (81) 
F 20

>  <SCORE>  (81) 
-16.326

>  <name>  (81) 
82

>  <ligand_id>  (81) 
82

>  <original_smiles>  (81) 
[H]c1c([H])c([H])c2c(c1[H])C([H])([H])C([H])([H])C([H])([H])C2([H])N([H])C(=O)C1([H])N(C(=O)C([H])(N([H])C(=O)C([H])(N([H])C([H])([H])[H])C([H])([H])[H])C(C([H])([H])[H])(C([H])([H])[H])C([H])([H])[H])C([H])([H])c2c([H])c(OC([H])([H])n3nnnc3C([H])(N([H])C(=O)N3C([H])([H])C([H])([H])C([H])([H])C([H])(n4nc(-c5c([H])c([H])c(Oc6c([H])c([H])c(F)c([H])c6F)c([H])c5[H])c(C(=O)N([H])[H])c4N([H])[H])C3([H])[H])C(C([H])([H])[H])(C([H])([H])[H])[N+]([H])([H])[H])c([H])c([H])c2C1([H])[H]

>  <smiles>  (81) 
[H]c1c([H])c([H])c2c(c1[H])C([H])([H])C([H])([H])C([H])([H])C2([H])N([H])C(=O)C1([H])N(C(=O)C([H])(N([H])C(=O)C([H])(N([H])C([H])([H])[H])C([H])([H])[H])C(C([H])([H])[H])(C([H])([H])[H])C([H])([H])[H])C([H])([H])c2c([H])c(OC([H])([H])n3nnnc3C([H])(N([H])C(=O)N3C([H])([H])C([H])([H])C([H])([H])C([H])(n4nc(-c5c([H])c([H])c(Oc6c([H])c([H])c(F)c([H])c6F)c([H])c5[H])c(C(=O)N([H])[H])c4N([H])[H])C3([H])[H])C(C([H])([H])[H])(C([H])([H])[H])[N+]([H])([H])[H])c([H])c([H])c2C1([H])[H]

$$$$
83:0:0
     RDKit          3D

 98106  0  0  1  0  0  0  0  0999 V2000
  -29.0610  -18.1480   20.3330 C   0  0  0  0  0  0  0  0  0  0  0  0
  -29.7320  -19.7930   18.5770 C   0  0  0  0  0  2  0  0  0  0  0  0
  -28.6650  -19.7250   17.4670 C   0  0  0  0  0  2  0  0  0  0  0  0
  -26.9660  -20.3880   19.0180 C   0  0  0  0  0  2  0  0  0  0  0  0
  -28.0010  -20.4410   20.1700 C   0  0  0  0  0  3  0  0  0  0  0  0
  -29.0560  -19.4290   19.8300 N   0  0  0  0  0  0  0  0  0  0  0  0
  -28.1160  -17.7360   21.0160 O   0  0  0  0  0  0  0  0  0  0  0  0
  -27.6010  -20.6380   17.7590 O   0  0  0  0  0  0  0  0  0  0  0  0
  -28.4930  -21.8750   20.5820 C   0  0  0  0  0  0  0  0  0  0  0  0
  -27.6930  -22.9520   20.3730 N   0  0  0  0  0  0  0  0  0  0  0  0
  -29.5840  -22.0010   21.1440 O   0  0  0  0  0  0  0  0  0  0  0  0
  -26.8110  -22.7770   19.9100 H   0  0  0  0  0  0  0  0  0  0  0  0
  -27.8780  -24.3490   20.8460 C   0  0  0  0  0  2  0  0  0  0  0  0
  -28.2200  -25.3840   19.7250 C   0  0  0  0  0  2  0  0  0  0  0  0
  -28.1970  -26.7780   20.1340 O   0  0  0  0  0  0  0  0  0  0  0  0
  -24.5550  -32.0550   23.2730 C   0  0  0  0  0  0  0  0  0  0  0  0
  -27.0210  -27.5180   20.1420 C   0  0  0  0  0  0  0  0  0  0  0  0
  -23.2720  -30.6560   21.6920 C   0  0  0  0  0  3  0  0  0  0  0  0
  -24.6500  -29.0920   20.2200 C   0  0  0  0  0  0  0  0  0  0  0  0
  -25.7970  -30.9740   21.3960 C   0  0  0  0  0  2  0  0  0  0  0  0
  -25.8410  -29.5960   20.7600 C   0  0  0  0  0  0  0  0  0  0  0  0
  -27.0250  -28.8200   20.7080 C   0  0  0  0  0  3  0  0  0  0  0  0
  -25.8030  -27.0350   19.6050 C   0  0  0  0  0  3  0  0  0  0  0  0
  -24.6310  -27.8150   19.6370 C   0  0  0  0  0  3  0  0  0  0  0  0
  -23.4230  -29.9740   20.3070 C   0  0  0  0  0  2  0  0  0  0  0  0
  -24.5620  -31.2450   22.1780 N   0  0  0  0  0  0  0  0  0  0  0  0
  -23.4980  -32.3410   23.8550 O   0  0  0  0  0  0  0  0  0  0  0  0
  -22.6520  -29.6430   22.6830 C   0  0  0  0  0  0  0  0  0  0  0  0
  -21.3310  -29.4320   22.5780 N   0  0  0  0  0  0  0  0  0  0  0  0
  -23.3560  -29.0480   23.5020 O   0  0  0  0  0  0  0  0  0  0  0  0
  -20.8190  -29.9760   21.8990 H   0  0  0  0  0  0  0  0  0  0  0  0
  -17.9920  -28.1420   23.0970 C   0  0  0  0  0  0  0  0  0  0  0  0
  -20.5400  -28.4950   23.3770 C   0  0  0  0  0  3  0  0  0  0  0  0
  -20.6920  -27.0460   22.8620 C   0  0  0  0  0  2  0  0  0  0  0  0
  -19.6110  -26.6440   21.8540 C   0  0  0  0  0  2  0  0  0  0  0  0
  -18.2190  -26.7720   22.4790 C   0  0  0  0  0  2  0  0  0  0  0  0
  -19.0830  -28.9560   23.5050 C   0  0  0  0  0  0  0  0  0  0  0  0
  -18.8180  -30.2350   24.0390 C   0  0  0  0  0  3  0  0  0  0  0  0
  -17.4980  -30.7040   24.1690 C   0  0  0  0  0  3  0  0  0  0  0  0
  -16.4210  -29.8890   23.7790 C   0  0  0  0  0  3  0  0  0  0  0  0
  -16.6690  -28.6100   23.2490 C   0  0  0  0  0  3  0  0  0  0  0  0
  -25.8720  -32.6770   23.8360 C   0  0  0  0  0  3  0  0  0  0  0  0
  -25.5980  -34.0900   24.1320 N   0  0  0  0  0  0  0  0  0  0  0  0
  -25.9140  -35.1120   23.3250 C   0  0  0  0  0  0  0  0  0  0  0  0
  -26.5420  -34.9630   22.2720 O   0  0  0  0  0  0  0  0  0  0  0  0
  -25.0420  -34.2800   24.9520 H   0  0  0  0  0  0  0  0  0  0  0  0
  -24.1940  -36.9150   22.9880 C   0  0  0  0  0  1  0  0  0  0  0  0
  -25.4660  -36.5210   23.7540 C   0  0  0  0  0  3  0  0  0  0  0  0
  -27.6480  -37.4100   24.4540 C   0  0  0  0  0  1  0  0  0  0  0  0
  -26.5060  -37.5560   23.5550 N   0  0  0  0  0  0  0  0  0  0  0  0
  -26.1170  -38.4860   23.6830 H   0  0  0  0  0  0  0  0  0  0  0  0
  -26.4140  -31.9310   25.1180 C   0  0  1  0  0  0  0  0  0  0  0  0
  -25.3470  -31.7260   26.2150 C   0  0  0  0  0  1  0  0  0  0  0  0
  -26.9820  -30.5410   24.7450 C   0  0  0  0  0  1  0  0  0  0  0  0
  -27.5780  -32.7380   25.7370 C   0  0  0  0  0  1  0  0  0  0  0  0
  -30.2680  -17.1490   20.1390 C   0  0  0  0  0  3  0  0  0  0  0  0
  -30.3960  -14.6630   19.5230 C   0  0  0  0  0  0  0  0  0  0  0  0
  -29.9740  -12.4610   18.4710 C   0  0  0  0  0  2  0  0  0  0  0  0
  -28.8820  -12.6190   17.3910 C   0  0  0  0  0  2  0  0  0  0  0  0
  -27.4810  -12.4680   18.0120 C   0  0  0  0  0  2  0  0  0  0  0  0
  -27.2970  -13.3200   19.2960 C   0  0  0  0  0  3  0  0  0  0  0  0
  -28.4940  -13.1530   20.2610 C   0  0  0  0  0  2  0  0  0  0  0  0
  -29.7220  -13.4730   19.5170 N   0  0  0  0  0  0  0  0  0  0  0  0
  -31.4240  -14.8170   18.8580 O   0  0  0  0  0  0  0  0  0  0  0  0
  -29.8300  -15.7150   20.1710 N   0  0  0  0  0  0  0  0  0  0  0  0
  -28.9620  -15.5480   20.6560 H   0  0  0  0  0  0  0  0  0  0  0  0
  -25.0230  -13.8880   20.3430 C   0  0  0  0  0  0  0  0  0  0  0  0
  -24.0140  -13.1010   20.8300 C   0  0  0  0  0  0  0  0  0  0  0  0
  -24.4690  -11.7530   20.7040 C   0  0  0  0  0  0  0  0  0  0  0  0
  -26.0260  -13.0200   19.9520 N   0  0  0  0  0  0  0  0  0  0  0  0
  -25.7050  -11.7280   20.2250 N   0  0  0  0  0  0  0  0  0  0  0  0
  -23.7780  -10.4830   20.9630 C   0  0  0  0  0  0  0  0  0  0  0  0
  -24.2970   -9.5340   21.8710 C   0  0  0  0  0  3  0  0  0  0  0  0
  -23.6030   -8.3300   22.1220 C   0  0  0  0  0  3  0  0  0  0  0  0
  -22.3770   -8.0680   21.4640 C   0  0  0  0  0  0  0  0  0  0  0  0
  -21.8760   -9.0070   20.5450 C   0  0  0  0  0  3  0  0  0  0  0  0
  -22.5710  -10.2030   20.2940 C   0  0  0  0  0  3  0  0  0  0  0  0
  -21.6490   -6.9140   21.6240 O   0  0  0  0  0  0  0  0  0  0  0  0
  -21.6650   -6.2120   22.8030 C   0  0  0  0  0  0  0  0  0  0  0  0
  -21.2480   -6.7900   24.0220 C   0  0  0  0  0  3  0  0  0  0  0  0
  -21.2130   -6.0120   25.1950 C   0  0  0  0  0  3  0  0  0  0  0  0
  -21.5850   -4.6550   25.1530 C   0  0  0  0  0  0  0  0  0  0  0  0
  -21.9960   -4.0750   23.9400 C   0  0  0  0  0  3  0  0  0  0  0  0
  -22.0330   -4.8510   22.7680 C   0  0  0  0  0  0  0  0  0  0  0  0
  -22.4110   -4.2810   21.5970 F   0  0  0  0  0  0  0  0  0  0  0  0
  -21.5420   -3.9040   26.2790 F   0  0  0  0  0  0  0  0  0  0  0  0
  -22.6660  -13.5650   21.3000 C   0  0  0  0  0  0  0  0  0  0  0  0
  -22.0680  -12.8510   22.2470 N   0  0  0  0  0  0  0  0  0  0  0  0
  -22.1560  -14.5950   20.8600 O   0  0  0  0  0  0  0  0  0  0  0  0
  -22.4980  -12.0170   22.6230 H   0  0  0  0  0  0  0  0  0  0  0  0
  -21.1680  -13.1380   22.6060 H   0  0  0  0  0  0  0  0  0  0  0  0
  -25.1660  -15.2640   20.1880 N   0  0  0  0  0  0  0  0  0  0  0  0
  -24.4530  -15.9160   20.4920 H   0  0  0  0  0  0  0  0  0  0  0  0
  -26.0130  -15.7240   19.8780 H   0  0  0  0  0  0  0  0  0  0  0  0
  -31.9940  -18.8700   21.0440 C   0  0  0  0  0  1  0  0  0  0  0  0
  -31.0610  -17.1070   22.5860 C   0  0  0  0  0  1  0  0  0  0  0  0
  -32.7010  -16.5220   20.8100 C   0  0  0  0  0  1  0  0  0  0  0  0
  -31.4780  -17.4080   21.1270 C   0  0  1  0  0  0  0  0  0  0  0  0
  1  7  2  0
  2  6  1  0
  3  8  1  0
  3  2  1  0
  4  5  1  0
  5  9  1  0
  6  5  1  0
  6  1  1  0
  8  4  1  0
  9 11  2  0
 10  9  1  0
 10 13  1  0
 12 10  1  0
 14 15  1  0
 14 13  1  0
 15 17  1  0
 16 27  2  0
 17 22  1  0
 18 26  1  0
 18 28  1  0
 19 25  1  0
 19 21  1  0
 20 26  1  0
 21 20  1  0
 22 21  2  0
 23 24  1  0
 23 17  2  0
 24 19  2  0
 25 18  1  0
 26 16  1  0
 28 30  2  0
 29 28  1  0
 31 29  1  0
 32 41  2  0
 32 37  1  0
 33 29  1  0
 33 37  1  0
 34 33  1  0
 35 36  1  0
 35 34  1  0
 36 32  1  0
 37 38  2  0
 38 39  1  0
 40 39  2  0
 41 40  1  0
 42 16  1  0
 42 43  1  0
 42 52  1  0
 43 46  1  0
 44 48  1  0
 44 43  1  0
 45 44  2  0
 48 47  1  0
 50 51  1  0
 50 48  1  0
 50 49  1  0
 52 55  1  1
 52 53  1  0
 54 52  1  0
 56 65  1  0
 56  1  1  0
 56 98  1  0
 57 65  1  0
 58 63  1  0
 59 60  1  0
 59 58  1  0
 61 60  1  0
 61 70  1  0
 61 62  1  0
 63 57  1  0
 63 62  1  0
 64 57  2  0
 65 66  1  0
 67 68  2  0
 68 87  1  0
 69 68  1  0
 69 72  1  0
 70 71  1  0
 70 67  1  0
 71 69  2  0
 72 73  1  0
 73 74  2  0
 75 78  1  0
 75 74  1  0
 76 75  2  0
 77 76  1  0
 77 72  2  0
 78 79  1  0
 79 80  1  0
 80 81  2  0
 82 81  1  0
 82 86  1  0
 83 82  2  0
 84 79  2  0
 84 83  1  0
 85 84  1  0
 87 88  1  0
 88 91  1  0
 88 90  1  0
 89 87  2  0
 92 67  1  0
 92 93  1  0
 94 92  1  0
 98 95  1  1
 97 98  1  0
 98 96  1  0
M  ISO  4  14 101  15 101  57 100  65 100
M  END
>  <TORSDO>  (82) 
F 21

>  <SCORE>  (82) 
-11.871

>  <name>  (82) 
83

>  <ligand_id>  (82) 
83

>  <original_smiles>  (82) 
[H]c1c([H])c([H])c2c(c1[H])C([H])([H])C([H])([H])C([H])([H])C2([H])N([H])C(=O)C1([H])N(C(=O)C([H])(N([H])C(=O)C([H])(N([H])C([H])([H])[H])C([H])([H])[H])C(C([H])([H])[H])(C([H])([H])[H])C([H])([H])[H])C([H])([H])c2c([H])c(OC([H])([H])C([H])([H])N([H])C(=O)C3([H])N(C(=O)C([H])(N([H])C(=O)N4C([H])([H])C([H])([H])C([H])([H])C([H])(n5nc(-c6c([H])c([H])c(Oc7c([H])c([H])c(F)c([H])c7F)c([H])c6[H])c(C(=O)N([H])[H])c5N([H])[H])C4([H])[H])C(C([H])([H])[H])(C([H])([H])[H])C([H])([H])[H])C([H])([H])C([H])([H])OC3([H])[H])c([H])c([H])c2C1([H])[H]

>  <smiles>  (82) 
[H]c1c([H])c([H])c2c(c1[H])C([H])([H])C([H])([H])C([H])([H])C2([H])N([H])C(=O)C1([H])N(C(=O)C([H])(N([H])C(=O)C([H])(N([H])C([H])([H])[H])C([H])([H])[H])C(C([H])([H])[H])(C([H])([H])[H])C([H])([H])[H])C([H])([H])c2c([H])c(OC([H])([H])C([H])([H])N([H])C(=O)C3([H])N(C(=O)C([H])(N([H])C(=O)N4C([H])([H])C([H])([H])C([H])([H])C([H])(n5nc(-c6c([H])c([H])c(Oc7c([H])c([H])c(F)c([H])c7F)c([H])c6[H])c(C(=O)N([H])[H])c5N([H])[H])C4([H])[H])C(C([H])([H])[H])(C([H])([H])[H])C([H])([H])[H])C([H])([H])C([H])([H])OC3([H])[H])c([H])c([H])c2C1([H])[H]

$$$$
84:0:0
     RDKit          3D

 97104  0  0  1  0  0  0  0  0999 V2000
  -29.1960  -18.9100   22.4060 C   0  0  0  0  0  2  0  0  0  0  0  0
  -30.9010  -17.2050   21.7630 C   0  0  0  0  0  0  0  0  0  0  0  0
  -29.8470  -17.9880   21.4790 N   0  0  0  0  0  0  0  0  0  0  0  0
  -31.3290  -17.0900   22.9140 O   0  0  0  0  0  0  0  0  0  0  0  0
  -29.5520  -18.0380   20.5090 H   0  0  0  0  0  0  0  0  0  0  0  0
  -31.5610  -16.3960   20.6200 C   0  0  0  0  0  3  0  0  0  0  0  0
  -31.5270  -13.9990   20.0240 C   0  0  0  0  0  0  0  0  0  0  0  0
  -30.9100  -11.9430   18.8270 C   0  0  0  0  0  2  0  0  0  0  0  0
  -29.9270  -12.2980   17.6930 C   0  0  0  0  0  2  0  0  0  0  0  0
  -28.4740  -12.3260   18.2120 C   0  0  0  0  0  2  0  0  0  0  0  0
  -28.3170  -13.1530   19.5180 C   0  0  0  0  0  3  0  0  0  0  0  0
  -29.4000  -12.7630   20.5500 C   0  0  0  0  0  2  0  0  0  0  0  0
  -30.7150  -12.9210   19.9060 N   0  0  0  0  0  0  0  0  0  0  0  0
  -32.6530  -14.0590   19.5230 O   0  0  0  0  0  0  0  0  0  0  0  0
  -30.9330  -15.0870   20.5140 N   0  0  0  0  0  0  0  0  0  0  0  0
  -29.9770  -15.0140   20.8200 H   0  0  0  0  0  0  0  0  0  0  0  0
  -26.0580  -14.0150   20.4010 C   0  0  0  0  0  0  0  0  0  0  0  0
  -24.9320  -13.3600   20.8230 C   0  0  0  0  0  0  0  0  0  0  0  0
  -25.2240  -11.9660   20.7210 C   0  0  0  0  0  0  0  0  0  0  0  0
  -26.9720  -13.0250   20.0760 N   0  0  0  0  0  0  0  0  0  0  0  0
  -26.4770  -11.7860   20.3230 N   0  0  0  0  0  0  0  0  0  0  0  0
  -24.3660  -10.7920   20.9230 C   0  0  0  0  0  0  0  0  0  0  0  0
  -24.7440   -9.7410   21.7870 C   0  0  0  0  0  3  0  0  0  0  0  0
  -23.8940   -8.6290   21.9770 C   0  0  0  0  0  3  0  0  0  0  0  0
  -22.6520   -8.5630   21.3040 C   0  0  0  0  0  0  0  0  0  0  0  0
  -22.2900   -9.6000   20.4280 C   0  0  0  0  0  3  0  0  0  0  0  0
  -23.1380  -10.7040   20.2360 C   0  0  0  0  0  3  0  0  0  0  0  0
  -21.7760   -7.5100   21.4070 O   0  0  0  0  0  0  0  0  0  0  0  0
  -21.7070   -6.7390   22.5400 C   0  0  0  0  0  0  0  0  0  0  0  0
  -21.4350   -7.2980   23.8080 C   0  0  0  0  0  3  0  0  0  0  0  0
  -21.3040   -6.4610   24.9340 C   0  0  0  0  0  3  0  0  0  0  0  0
  -21.4360   -5.0660   24.7930 C   0  0  0  0  0  0  0  0  0  0  0  0
  -21.7020   -4.5070   23.5310 C   0  0  0  0  0  3  0  0  0  0  0  0
  -21.8330   -5.3410   22.4090 C   0  0  0  0  0  0  0  0  0  0  0  0
  -22.0680   -4.7960   21.1900 F   0  0  0  0  0  0  0  0  0  0  0  0
  -21.3040   -4.2610   25.8730 F   0  0  0  0  0  0  0  0  0  0  0  0
  -23.6210  -13.9870   21.2040 C   0  0  0  0  0  0  0  0  0  0  0  0
  -22.8930  -13.3690   22.1260 N   0  0  0  0  0  0  0  0  0  0  0  0
  -23.2580  -15.0590   20.7200 O   0  0  0  0  0  0  0  0  0  0  0  0
  -23.2000  -12.5030   22.5420 H   0  0  0  0  0  0  0  0  0  0  0  0
  -22.0160  -13.7720   22.4260 H   0  0  0  0  0  0  0  0  0  0  0  0
  -26.3740  -15.3620   20.2480 N   0  0  0  0  0  0  0  0  0  0  0  0
  -25.6880  -16.0920   20.4050 H   0  0  0  0  0  0  0  0  0  0  0  0
  -27.2160  -15.7040   19.8020 H   0  0  0  0  0  0  0  0  0  0  0  0
  -31.4020  -17.1180   19.2660 C   0  0  0  0  0  0  0  0  0  0  0  0
  -32.4810  -17.6710   18.7240 N   0  0  0  0  0  0  0  0  0  0  0  0
  -30.3210  -17.1300   18.6760 O   0  0  0  0  0  0  0  0  0  0  0  0
  -33.3760  -17.6380   19.1960 H   0  0  0  0  0  0  0  0  0  0  0  0
  -32.4250  -18.1040   17.8140 H   0  0  0  0  0  0  0  0  0  0  0  0
  -28.7680  -20.1930   21.6790 C   0  0  0  0  0  2  0  0  0  0  0  0
  -29.9180  -20.9670   21.3580 O   0  0  0  0  0  0  0  0  0  0  0  0
  -29.6000  -22.1290   20.6000 C   0  0  0  0  0  2  0  0  0  0  0  0
  -30.8690  -22.9580   20.3480 C   0  0  0  0  0  2  0  0  0  0  0  0
  -31.0360  -23.9670   21.3390 O   0  0  0  0  0  0  0  0  0  0  0  0
  -31.9520  -24.9810   20.9150 C   0  0  0  0  0  2  0  0  0  0  0  0
  -31.8260  -26.2660   21.7790 C   0  0  0  0  0  2  0  0  0  0  0  0
  -31.4260  -27.6240   21.4740 O   0  0  0  0  0  0  0  0  0  0  0  0
  -25.8290  -31.2770   23.8490 C   0  0  0  0  0  0  0  0  0  0  0  0
  -30.1090  -27.9730   21.2460 C   0  0  0  0  0  0  0  0  0  0  0  0
  -25.3820  -29.7760   21.9310 C   0  0  0  0  0  3  0  0  0  0  0  0
  -27.4440  -28.7920   20.7940 C   0  0  0  0  0  0  0  0  0  0  0  0
  -27.7020  -30.7840   22.2850 C   0  0  0  0  0  2  0  0  0  0  0  0
  -28.2740  -29.5420   21.6360 C   0  0  0  0  0  0  0  0  0  0  0  0
  -29.6070  -29.1390   21.8580 C   0  0  0  0  0  3  0  0  0  0  0  0
  -29.2680  -27.2320   20.3860 C   0  0  0  0  0  3  0  0  0  0  0  0
  -27.9370  -27.6360   20.1630 C   0  0  0  0  0  3  0  0  0  0  0  0
  -26.0310  -29.2970   20.6030 C   0  0  0  0  0  2  0  0  0  0  0  0
  -26.3070  -30.6250   22.7510 N   0  0  0  0  0  0  0  0  0  0  0  0
  -24.6320  -31.2140   24.1620 O   0  0  0  0  0  0  0  0  0  0  0  0
  -24.8540  -28.5390   22.6910 C   0  0  0  0  0  0  0  0  0  0  0  0
  -23.6890  -28.0260   22.2650 N   0  0  0  0  0  0  0  0  0  0  0  0
  -25.4970  -28.0470   23.6240 O   0  0  0  0  0  0  0  0  0  0  0  0
  -23.2170  -28.4970   21.5070 H   0  0  0  0  0  0  0  0  0  0  0  0
  -20.7570  -25.9430   21.9380 C   0  0  0  0  0  0  0  0  0  0  0  0
  -23.0200  -26.8410   22.8030 C   0  0  0  0  0  3  0  0  0  0  0  0
  -23.6350  -25.5430   22.2320 C   0  0  0  0  0  2  0  0  0  0  0  0
  -22.9150  -25.0370   20.9790 C   0  0  0  0  0  2  0  0  0  0  0  0
  -21.4400  -24.7570   21.2780 C   0  0  0  0  0  2  0  0  0  0  0  0
  -21.4990  -26.9320   22.6350 C   0  0  0  0  0  0  0  0  0  0  0  0
  -20.8160  -28.0370   23.1870 C   0  0  0  0  0  3  0  0  0  0  0  0
  -19.4200  -28.1610   23.0540 C   0  0  0  0  0  3  0  0  0  0  0  0
  -18.6890  -27.1680   22.3800 C   0  0  0  0  0  3  0  0  0  0  0  0
  -19.3560  -26.0620   21.8270 C   0  0  0  0  0  3  0  0  0  0  0  0
  -26.7560  -32.1490   24.7520 C   0  0  0  0  0  3  0  0  0  0  0  0
  -27.0040  -31.5210   26.1790 C   0  0  1  0  0  0  0  0  0  0  0  0
  -25.7080  -31.1190   26.9200 C   0  0  0  0  0  1  0  0  0  0  0  0
  -27.8950  -30.2610   26.0700 C   0  0  0  0  0  1  0  0  0  0  0  0
  -27.7690  -32.5280   27.0700 C   0  0  0  0  0  1  0  0  0  0  0  0
  -26.1400  -33.4770   24.8670 N   0  0  0  0  0  0  0  0  0  0  0  0
  -26.5030  -34.5460   24.1460 C   0  0  0  0  0  0  0  0  0  0  0  0
  -27.4510  -34.5310   23.3560 O   0  0  0  0  0  0  0  0  0  0  0  0
  -25.3190  -33.5470   25.4530 H   0  0  0  0  0  0  0  0  0  0  0  0
  -24.6860  -35.9830   23.1650 C   0  0  0  0  0  1  0  0  0  0  0  0
  -25.6820  -35.8370   24.3250 C   0  0  0  0  0  3  0  0  0  0  0  0
  -27.3080  -37.1190   25.6450 C   0  0  0  0  0  1  0  0  0  0  0  0
  -26.5170  -37.0540   24.4200 N   0  0  0  0  0  0  0  0  0  0  0  0
  -25.9410  -37.8900   24.3710 H   0  0  0  0  0  0  0  0  0  0  0  0
  2  4  2  0
  3  2  1  0
  3  1  1  0
  5  3  1  0
  6 45  1  0
  6  2  1  0
  7 15  1  0
  8 13  1  0
  9 10  1  0
  9  8  1  0
 11 10  1  0
 11 20  1  0
 11 12  1  0
 13  7  1  0
 13 12  1  0
 14  7  2  0
 15  6  1  0
 15 16  1  0
 17 18  2  0
 18 37  1  0
 19 18  1  0
 19 22  1  0
 20 21  1  0
 20 17  1  0
 21 19  2  0
 22 23  1  0
 23 24  2  0
 25 28  1  0
 25 24  1  0
 26 25  2  0
 27 26  1  0
 27 22  2  0
 28 29  1  0
 29 30  1  0
 30 31  2  0
 32 31  1  0
 32 36  1  0
 33 32  2  0
 34 29  2  0
 34 33  1  0
 35 34  1  0
 37 38  1  0
 38 41  1  0
 38 40  1  0
 39 37  2  0
 42 17  1  0
 42 43  1  0
 44 42  1  0
 46 48  1  0
 46 45  1  0
 47 45  2  0
 49 46  1  0
 50  1  1  0
 51 50  1  0
 52 51  1  0
 53 52  1  0
 53 54  1  0
 55 54  1  0
 55 56  1  0
 57 56  1  0
 58 69  2  0
 59 57  1  0
 59 64  1  0
 60 70  1  0
 60 68  1  0
 61 63  1  0
 62 68  1  0
 63 64  2  0
 63 62  1  0
 65 59  2  0
 66 65  1  0
 66 61  2  0
 67 61  1  0
 67 60  1  0
 68 58  1  0
 70 72  2  0
 71 70  1  0
 73 71  1  0
 74 79  1  0
 75 71  1  0
 76 75  1  0
 77 78  1  0
 77 76  1  0
 78 74  1  0
 79 75  1  0
 79 80  2  0
 81 80  1  0
 82 81  2  0
 83 74  2  0
 83 82  1  0
 84 58  1  0
 84 89  1  0
 84 85  1  0
 85 86  1  1
 85 88  1  0
 87 85  1  0
 89 92  1  0
 90 94  1  0
 90 89  1  0
 91 90  2  0
 94 93  1  0
 94 96  1  0
 96 95  1  0
 97 96  1  0
M  ISO  4   7 100  15 100  56 101  57 101
M  END
>  <TORSDO>  (83) 
F 26

>  <SCORE>  (83) 
-6.073

>  <name>  (83) 
84

>  <ligand_id>  (83) 
84

>  <original_smiles>  (83) 
[H]c1c([H])c([H])c2c(c1[H])C([H])([H])C([H])([H])C([H])([H])C2([H])N([H])C(=O)C1([H])N(C(=O)C([H])(N([H])C(=O)C([H])(N([H])C([H])([H])[H])C([H])([H])[H])C(C([H])([H])[H])(C([H])([H])[H])C([H])([H])[H])C([H])([H])c2c([H])c(OC([H])([H])C([H])([H])OC([H])([H])C([H])([H])OC([H])([H])C([H])([H])N([H])C(=O)C([H])(C(=O)N([H])[H])N([H])C(=O)N3C([H])([H])C([H])([H])C([H])([H])C([H])(n4nc(-c5c([H])c([H])c(Oc6c([H])c([H])c(F)c([H])c6F)c([H])c5[H])c(C(=O)N([H])[H])c4N([H])[H])C3([H])[H])c([H])c([H])c2C1([H])[H]

>  <smiles>  (83) 
[H]c1c([H])c([H])c2c(c1[H])C([H])([H])C([H])([H])C([H])([H])C2([H])N([H])C(=O)C1([H])N(C(=O)C([H])(N([H])C(=O)C([H])(N([H])C([H])([H])[H])C([H])([H])[H])C(C([H])([H])[H])(C([H])([H])[H])C([H])([H])[H])C([H])([H])c2c([H])c(OC([H])([H])C([H])([H])OC([H])([H])C([H])([H])OC([H])([H])C([H])([H])N([H])C(=O)C([H])(C(=O)N([H])[H])N([H])C(=O)N3C([H])([H])C([H])([H])C([H])([H])C([H])(n4nc(-c5c([H])c([H])c(Oc6c([H])c([H])c(F)c([H])c6F)c([H])c5[H])c(C(=O)N([H])[H])c4N([H])[H])C3([H])[H])c([H])c([H])c2C1([H])[H]

$$$$
85:0:0
     RDKit          3D

 94101  0  0  1  0  0  0  0  0999 V2000
  -24.3610  -22.2410   18.4820 N   0  0  0  0  0  4  0  0  0  0  0  0
  -23.7510  -21.5800   18.9360 H   0  0  0  0  0  0  0  0  0  0  0  0
  -23.9250  -22.4350   17.5930 H   0  0  0  0  0  0  0  0  0  0  0  0
  -24.3630  -23.5270   19.2350 C   0  0  0  0  0  2  0  0  0  0  0  0
  -25.3460  -23.6390   20.4190 C   0  0  0  0  0  2  0  0  0  0  0  0
  -26.6150  -23.9250   19.8510 O   0  0  0  0  0  0  0  0  0  0  0  0
  -27.5800  -24.5140   20.7090 C   0  0  0  0  0  2  0  0  0  0  0  0
  -28.4770  -25.3800   19.7960 C   0  0  0  0  0  2  0  0  0  0  0  0
  -28.4500  -26.7690   20.1170 O   0  0  0  0  0  0  0  0  0  0  0  0
  -24.6110  -31.8330   23.2340 C   0  0  0  0  0  0  0  0  0  0  0  0
  -27.2610  -27.4630   20.0780 C   0  0  0  0  0  0  0  0  0  0  0  0
  -23.4030  -30.4670   21.5600 C   0  0  0  0  0  3  0  0  0  0  0  0
  -24.8570  -28.9530   20.1110 C   0  0  0  0  0  0  0  0  0  0  0  0
  -25.9280  -30.8180   21.3880 C   0  0  0  0  0  2  0  0  0  0  0  0
  -26.0090  -29.4620   20.7260 C   0  0  0  0  0  0  0  0  0  0  0  0
  -27.2070  -28.7180   20.7160 C   0  0  0  0  0  3  0  0  0  0  0  0
  -26.0990  -26.9810   19.4320 C   0  0  0  0  0  3  0  0  0  0  0  0
  -24.8950  -27.7080   19.4650 C   0  0  0  0  0  3  0  0  0  0  0  0
  -23.6170  -29.8170   20.1690 C   0  0  0  0  0  2  0  0  0  0  0  0
  -24.6640  -31.0510   22.1200 N   0  0  0  0  0  0  0  0  0  0  0  0
  -23.5290  -32.1030   23.7740 O   0  0  0  0  0  0  0  0  0  0  0  0
  -22.7410  -29.4310   22.4960 C   0  0  0  0  0  0  0  0  0  0  0  0
  -21.4140  -29.2770   22.3700 N   0  0  0  0  0  0  0  0  0  0  0  0
  -23.4190  -28.7690   23.2860 O   0  0  0  0  0  0  0  0  0  0  0  0
  -20.9240  -29.8590   21.7040 H   0  0  0  0  0  0  0  0  0  0  0  0
  -18.0190  -28.1550   22.8650 C   0  0  0  0  0  0  0  0  0  0  0  0
  -20.5850  -28.3370   23.1210 C   0  0  0  0  0  3  0  0  0  0  0  0
  -20.6470  -26.9250   22.4950 C   0  0  0  0  0  2  0  0  0  0  0  0
  -19.5290  -26.6720   21.4810 C   0  0  0  0  0  2  0  0  0  0  0  0
  -18.1540  -26.8300   22.1360 C   0  0  0  0  0  2  0  0  0  0  0  0
  -19.1600  -28.8720   23.3110 C   0  0  0  0  0  0  0  0  0  0  0  0
  -18.9790  -30.1200   23.9470 C   0  0  0  0  0  3  0  0  0  0  0  0
  -17.6880  -30.6520   24.1290 C   0  0  0  0  0  3  0  0  0  0  0  0
  -16.5620  -29.9280   23.7030 C   0  0  0  0  0  3  0  0  0  0  0  0
  -16.7290  -28.6820   23.0780 C   0  0  0  0  0  3  0  0  0  0  0  0
  -25.9020  -32.4430   23.8690 C   0  0  0  0  0  3  0  0  0  0  0  0
  -26.4000  -31.6530   25.1400 C   0  0  1  0  0  0  0  0  0  0  0  0
  -25.2980  -31.4190   26.1990 C   0  0  0  0  0  1  0  0  0  0  0  0
  -26.9700  -30.2730   24.7350 C   0  0  0  0  0  1  0  0  0  0  0  0
  -27.5590  -32.4220   25.8190 C   0  0  0  0  0  1  0  0  0  0  0  0
  -25.6120  -33.8410   24.2070 N   0  0  0  0  0  0  0  0  0  0  0  0
  -25.9570  -34.8900   23.4510 C   0  0  0  0  0  0  0  0  0  0  0  0
  -26.6320  -34.7850   22.4220 O   0  0  0  0  0  0  0  0  0  0  0  0
  -25.0200  -34.0000   25.0090 H   0  0  0  0  0  0  0  0  0  0  0  0
  -24.2470  -36.6980   23.0940 C   0  0  0  0  0  1  0  0  0  0  0  0
  -25.4820  -36.2820   23.9090 C   0  0  0  0  0  3  0  0  0  0  0  0
  -27.6210  -37.1440   24.7490 C   0  0  0  0  0  1  0  0  0  0  0  0
  -26.5250  -37.3240   23.8010 N   0  0  0  0  0  0  0  0  0  0  0  0
  -26.1260  -38.2470   23.9500 H   0  0  0  0  0  0  0  0  0  0  0  0
  -25.6610  -21.5790   18.2070 C   0  0  0  0  0  2  0  0  0  0  0  0
  -25.8690  -20.3570   19.1230 C   0  0  0  0  0  2  0  0  0  0  0  0
  -27.3160  -19.8260   19.1650 C   0  0  0  0  0  2  0  0  0  0  0  0
  -27.3980  -18.4320   19.8230 C   0  0  0  0  0  2  0  0  0  0  0  0
  -28.6880  -18.0650   20.3010 O   0  0  0  0  0  0  0  0  0  0  0  0
  -29.6520  -17.7450   19.3070 C   0  0  0  0  0  2  0  0  0  0  0  0
  -30.8410  -17.0530   19.9930 C   0  0  0  0  0  2  0  0  0  0  0  0
  -31.1540  -14.6030   20.0210 C   0  0  0  0  0  0  0  0  0  0  0  0
  -30.7780  -12.3770   19.0640 C   0  0  0  0  0  2  0  0  0  0  0  0
  -29.8340  -12.5360   17.8540 C   0  0  0  0  0  2  0  0  0  0  0  0
  -28.3610  -12.4540   18.3030 C   0  0  0  0  0  2  0  0  0  0  0  0
  -28.0550  -13.3720   19.5150 C   0  0  0  0  0  3  0  0  0  0  0  0
  -29.1250  -13.2300   20.6230 C   0  0  0  0  0  2  0  0  0  0  0  0
  -30.4490  -13.4450   20.0140 N   0  0  0  0  0  0  0  0  0  0  0  0
  -32.2770  -14.7150   19.5200 O   0  0  0  0  0  0  0  0  0  0  0  0
  -30.4790  -15.6930   20.4030 N   0  0  0  0  0  0  0  0  0  0  0  0
  -29.5500  -15.5670   20.7780 H   0  0  0  0  0  0  0  0  0  0  0  0
  -25.7000  -14.0490   20.3010 C   0  0  0  0  0  0  0  0  0  0  0  0
  -24.6200  -13.3090   20.7010 C   0  0  0  0  0  0  0  0  0  0  0  0
  -25.0380  -11.9460   20.6560 C   0  0  0  0  0  0  0  0  0  0  0  0
  -26.7090  -13.1350   20.0360 N   0  0  0  0  0  0  0  0  0  0  0  0
  -26.3170  -11.8660   20.3070 N   0  0  0  0  0  0  0  0  0  0  0  0
  -24.2800  -10.7060   20.8670 C   0  0  0  0  0  0  0  0  0  0  0  0
  -24.6770   -9.7470   21.8240 C   0  0  0  0  0  3  0  0  0  0  0  0
  -23.9190   -8.5710   22.0160 C   0  0  0  0  0  3  0  0  0  0  0  0
  -22.7510   -8.3490   21.2500 C   0  0  0  0  0  0  0  0  0  0  0  0
  -22.3710   -9.2970   20.2840 C   0  0  0  0  0  3  0  0  0  0  0  0
  -23.1310  -10.4630   20.0890 C   0  0  0  0  0  3  0  0  0  0  0  0
  -21.9640   -7.2250   21.3540 O   0  0  0  0  0  0  0  0  0  0  0  0
  -21.8410   -6.5400   22.5340 C   0  0  0  0  0  0  0  0  0  0  0  0
  -21.3750   -7.1620   23.7140 C   0  0  0  0  0  3  0  0  0  0  0  0
  -21.1950   -6.4000   24.8860 C   0  0  0  0  0  3  0  0  0  0  0  0
  -21.4800   -5.0210   24.8830 C   0  0  0  0  0  0  0  0  0  0  0  0
  -21.9430   -4.4010   23.7070 C   0  0  0  0  0  3  0  0  0  0  0  0
  -22.1210   -5.1580   22.5380 C   0  0  0  0  0  0  0  0  0  0  0  0
  -22.5460   -4.5500   21.4030 F   0  0  0  0  0  0  0  0  0  0  0  0
  -21.3000   -4.2910   26.0070 F   0  0  0  0  0  0  0  0  0  0  0  0
  -23.2480  -13.8320   21.0190 C   0  0  0  0  0  0  0  0  0  0  0  0
  -22.5270  -13.1610   21.9100 N   0  0  0  0  0  0  0  0  0  0  0  0
  -22.8280  -14.8710   20.5140 O   0  0  0  0  0  0  0  0  0  0  0  0
  -22.8780  -12.3190   22.3380 H   0  0  0  0  0  0  0  0  0  0  0  0
  -21.6140  -13.5060   22.1710 H   0  0  0  0  0  0  0  0  0  0  0  0
  -25.9050  -15.4120   20.1230 N   0  0  0  0  0  0  0  0  0  0  0  0
  -25.1720  -16.0970   20.2640 H   0  0  0  0  0  0  0  0  0  0  0  0
  -26.7730  -15.8210   19.8040 H   0  0  0  0  0  0  0  0  0  0  0  0
  1  2  1  0
  1  4  1  0
  3  1  1  0
  4  5  1  0
  6  5  1  0
  6  7  1  0
  8  9  1  0
  8  7  1  0
 10 21  2  0
 11  9  1  0
 11 16  1  0
 12 20  1  0
 12 22  1  0
 13 19  1  0
 13 15  1  0
 14 20  1  0
 15 14  1  0
 16 15  2  0
 17 18  1  0
 17 11  2  0
 18 13  2  0
 19 12  1  0
 20 10  1  0
 22 24  2  0
 23 22  1  0
 25 23  1  0
 26 35  2  0
 26 31  1  0
 27 23  1  0
 27 31  1  0
 28 27  1  0
 29 30  1  0
 29 28  1  0
 30 26  1  0
 31 32  2  0
 32 33  1  0
 34 33  2  0
 35 34  1  0
 36 10  1  0
 36 41  1  0
 36 37  1  0
 37 40  1  1
 37 38  1  0
 39 37  1  0
 41 44  1  0
 42 46  1  0
 42 41  1  0
 43 42  2  0
 46 45  1  0
 48 46  1  0
 48 49  1  0
 48 47  1  0
 50  1  1  0
 50 51  1  0
 51 52  1  0
 52 53  1  0
 53 54  1  0
 55 56  1  0
 55 54  1  0
 56 65  1  0
 57 65  1  0
 58 63  1  0
 59 60  1  0
 59 58  1  0
 61 60  1  0
 61 70  1  0
 61 62  1  0
 63 57  1  0
 63 62  1  0
 64 57  2  0
 65 66  1  0
 67 68  2  0
 68 87  1  0
 69 68  1  0
 69 72  1  0
 70 67  1  0
 70 71  1  0
 71 69  2  0
 72 73  1  0
 73 74  2  0
 75 78  1  0
 75 74  1  0
 76 75  2  0
 77 76  1  0
 77 72  2  0
 78 79  1  0
 79 84  2  0
 79 80  1  0
 80 81  2  0
 82 81  1  0
 82 86  1  0
 83 82  2  0
 84 83  1  0
 85 84  1  0
 87 88  1  0
 88 91  1  0
 88 90  1  0
 89 87  2  0
 92 93  1  0
 92 67  1  0
 94 92  1  0
M  ISO  4   8 101   9 101  57 100  65 100
M  END
>  <TORSDO>  (84) 
F 28

>  <SCORE>  (84) 
-10.982

>  <name>  (84) 
85

>  <ligand_id>  (84) 
85

>  <original_smiles>  (84) 
[H]c1c([H])c([H])c2c(c1[H])C([H])([H])C([H])([H])C([H])([H])C2([H])N([H])C(=O)C1([H])N(C(=O)C([H])(N([H])C(=O)C([H])(N([H])C([H])([H])[H])C([H])([H])[H])C(C([H])([H])[H])(C([H])([H])[H])C([H])([H])[H])C([H])([H])c2c([H])c(OC([H])([H])C([H])([H])OC([H])([H])C([H])([H])[N+]([H])([H])C([H])([H])C([H])([H])C([H])([H])C([H])([H])OC([H])([H])C([H])([H])N([H])C(=O)N3C([H])([H])C([H])([H])C([H])([H])C([H])(n4nc(-c5c([H])c([H])c(Oc6c([H])c([H])c(F)c([H])c6F)c([H])c5[H])c(C(=O)N([H])[H])c4N([H])[H])C3([H])[H])c([H])c([H])c2C1([H])[H]

>  <smiles>  (84) 
[H]c1c([H])c([H])c2c(c1[H])C([H])([H])C([H])([H])C([H])([H])C2([H])N([H])C(=O)C1([H])N(C(=O)C([H])(N([H])C(=O)C([H])(N([H])C([H])([H])[H])C([H])([H])[H])C(C([H])([H])[H])(C([H])([H])[H])C([H])([H])[H])C([H])([H])c2c([H])c(OC([H])([H])C([H])([H])OC([H])([H])C([H])([H])[N+]([H])([H])C([H])([H])C([H])([H])C([H])([H])C([H])([H])OC([H])([H])C([H])([H])N([H])C(=O)N3C([H])([H])C([H])([H])C([H])([H])C([H])(n4nc(-c5c([H])c([H])c(Oc6c([H])c([H])c(F)c([H])c6F)c([H])c5[H])c(C(=O)N([H])[H])c4N([H])[H])C3([H])[H])c([H])c([H])c2C1([H])[H]

$$$$
86:0:0
     RDKit          3D

 96103  0  0  1  0  0  0  0  0999 V2000
  -28.6210  -21.6640   20.8660 C   0  0  0  0  0  3  0  0  0  0  0  0
  -29.4890  -20.4770   21.3970 C   0  0  0  0  0  0  0  0  0  0  0  0
  -29.3070  -19.2560   20.8440 N   0  0  0  0  0  0  0  0  0  0  0  0
  -30.2490  -20.6480   22.3490 O   0  0  0  0  0  0  0  0  0  0  0  0
  -28.7060  -19.2440   20.0290 H   0  0  0  0  0  0  0  0  0  0  0  0
  -29.6510  -17.9420   21.4320 C   0  0  0  0  0  2  0  0  0  0  0  0
  -30.4610  -16.9960   20.4990 C   0  0  0  0  0  2  0  0  0  0  0  0
  -30.8580  -14.5490   20.1480 C   0  0  0  0  0  0  0  0  0  0  0  0
  -30.5190  -12.3980   18.9830 C   0  0  0  0  0  2  0  0  0  0  0  0
  -29.5410  -12.6200   17.8090 C   0  0  0  0  0  2  0  0  0  0  0  0
  -28.0800  -12.4940   18.2830 C   0  0  0  0  0  2  0  0  0  0  0  0
  -27.7900  -13.3120   19.5710 C   0  0  0  0  0  3  0  0  0  0  0  0
  -28.8780  -13.0640   20.6420 C   0  0  0  0  0  2  0  0  0  0  0  0
  -30.1860  -13.3680   20.0400 N   0  0  0  0  0  0  0  0  0  0  0  0
  -31.9510  -14.7440   19.6110 O   0  0  0  0  0  0  0  0  0  0  0  0
  -30.1790  -15.5630   20.7190 N   0  0  0  0  0  0  0  0  0  0  0  0
  -29.3040  -15.3220   21.1600 H   0  0  0  0  0  0  0  0  0  0  0  0
  -25.4120  -13.9290   20.3380 C   0  0  0  0  0  0  0  0  0  0  0  0
  -24.3510  -13.1610   20.7350 C   0  0  0  0  0  0  0  0  0  0  0  0
  -24.8010  -11.8070   20.6840 C   0  0  0  0  0  0  0  0  0  0  0  0
  -26.4470  -13.0430   20.0820 N   0  0  0  0  0  0  0  0  0  0  0  0
  -26.0840  -11.7600   20.3430 N   0  0  0  0  0  0  0  0  0  0  0  0
  -24.0690  -10.5500   20.8860 C   0  0  0  0  0  0  0  0  0  0  0  0
  -24.4840   -9.6050   21.8500 C   0  0  0  0  0  3  0  0  0  0  0  0
  -23.7570   -8.4110   22.0410 C   0  0  0  0  0  3  0  0  0  0  0  0
  -22.6000   -8.1530   21.2670 C   0  0  0  0  0  0  0  0  0  0  0  0
  -22.2030   -9.0870   20.2930 C   0  0  0  0  0  3  0  0  0  0  0  0
  -22.9320  -10.2730   20.1020 C   0  0  0  0  0  3  0  0  0  0  0  0
  -21.8440   -7.0120   21.3680 O   0  0  0  0  0  0  0  0  0  0  0  0
  -21.7220   -6.3300   22.5510 C   0  0  0  0  0  0  0  0  0  0  0  0
  -21.2020   -6.9410   23.7130 C   0  0  0  0  0  3  0  0  0  0  0  0
  -21.0260   -6.1830   24.8890 C   0  0  0  0  0  3  0  0  0  0  0  0
  -21.3660   -4.8170   24.9040 C   0  0  0  0  0  0  0  0  0  0  0  0
  -21.8790   -4.2060   23.7460 C   0  0  0  0  0  3  0  0  0  0  0  0
  -22.0540   -4.9600   22.5730 C   0  0  0  0  0  0  0  0  0  0  0  0
  -22.5280   -4.3620   21.4540 F   0  0  0  0  0  0  0  0  0  0  0  0
  -21.1920   -4.0860   26.0300 F   0  0  0  0  0  0  0  0  0  0  0  0
  -22.9650  -13.6470   21.0460 C   0  0  0  0  0  0  0  0  0  0  0  0
  -22.2610  -12.9540   21.9370 N   0  0  0  0  0  0  0  0  0  0  0  0
  -22.5170  -14.6730   20.5380 O   0  0  0  0  0  0  0  0  0  0  0  0
  -22.6390  -12.1260   22.3710 H   0  0  0  0  0  0  0  0  0  0  0  0
  -21.3290  -13.2570   22.1810 H   0  0  0  0  0  0  0  0  0  0  0  0
  -25.5750  -15.2980   20.1570 N   0  0  0  0  0  0  0  0  0  0  0  0
  -24.7960  -15.9400   20.2650 H   0  0  0  0  0  0  0  0  0  0  0  0
  -26.3940  -15.7300   19.7480 H   0  0  0  0  0  0  0  0  0  0  0  0
  -29.2480  -23.0950   20.9530 C   0  0  0  0  0  3  0  0  0  0  0  0
  -28.2930  -24.2680   20.5300 C   0  0  0  0  0  3  0  0  0  0  0  0
  -28.7120  -25.6910   21.0160 C   0  0  0  0  0  2  0  0  0  0  0  0
  -28.4770  -26.7740   20.0920 O   0  0  0  0  0  0  0  0  0  0  0  0
  -24.5900  -31.9150   23.2370 C   0  0  0  0  0  0  0  0  0  0  0  0
  -27.2930  -27.4770   20.1850 C   0  0  0  0  0  0  0  0  0  0  0  0
  -23.4080  -30.4970   21.5900 C   0  0  0  0  0  3  0  0  0  0  0  0
  -24.8830  -28.9640   20.1800 C   0  0  0  0  0  0  0  0  0  0  0  0
  -25.9310  -30.8770   21.4040 C   0  0  0  0  0  2  0  0  0  0  0  0
  -26.0330  -29.5020   20.7730 C   0  0  0  0  0  0  0  0  0  0  0  0
  -27.2430  -28.7650   20.7720 C   0  0  0  0  0  3  0  0  0  0  0  0
  -26.1290  -26.9550   19.5870 C   0  0  0  0  0  3  0  0  0  0  0  0
  -24.9270  -27.6910   19.5850 C   0  0  0  0  0  3  0  0  0  0  0  0
  -23.6320  -29.8160   20.2150 C   0  0  0  0  0  2  0  0  0  0  0  0
  -24.6600  -31.1140   22.1340 N   0  0  0  0  0  0  0  0  0  0  0  0
  -23.5030  -32.1760   23.7720 O   0  0  0  0  0  0  0  0  0  0  0  0
  -22.7610  -29.4720   22.5510 C   0  0  0  0  0  0  0  0  0  0  0  0
  -21.4390  -29.2770   22.4220 N   0  0  0  0  0  0  0  0  0  0  0  0
  -23.4490  -28.8510   23.3660 O   0  0  0  0  0  0  0  0  0  0  0  0
  -20.9440  -29.8290   21.7330 H   0  0  0  0  0  0  0  0  0  0  0  0
  -18.0720  -28.0700   22.9350 C   0  0  0  0  0  0  0  0  0  0  0  0
  -20.6310  -28.3320   23.1900 C   0  0  0  0  0  3  0  0  0  0  0  0
  -20.7310  -26.9060   22.5980 C   0  0  0  0  0  2  0  0  0  0  0  0
  -19.6220  -26.5930   21.5900 C   0  0  0  0  0  2  0  0  0  0  0  0
  -18.2450  -26.7290   22.2450 C   0  0  0  0  0  2  0  0  0  0  0  0
  -19.1910  -28.8310   23.3640 C   0  0  0  0  0  0  0  0  0  0  0  0
  -18.9740  -30.0890   23.9670 C   0  0  0  0  0  3  0  0  0  0  0  0
  -17.6710  -30.5860   24.1460 C   0  0  0  0  0  3  0  0  0  0  0  0
  -16.5650  -29.8210   23.7340 C   0  0  0  0  0  3  0  0  0  0  0  0
  -16.7660  -28.5660   23.1340 C   0  0  0  0  0  3  0  0  0  0  0  0
  -25.8670  -32.5620   23.8610 C   0  0  0  0  0  3  0  0  0  0  0  0
  -26.3820  -31.8040   25.1450 C   0  0  1  0  0  0  0  0  0  0  0  0
  -25.2850  -31.5620   26.2090 C   0  0  0  0  0  1  0  0  0  0  0  0
  -26.9800  -30.4290   24.7660 C   0  0  0  0  0  1  0  0  0  0  0  0
  -27.5190  -32.6140   25.8100 C   0  0  0  0  0  1  0  0  0  0  0  0
  -25.5470  -33.9610   24.1740 N   0  0  0  0  0  0  0  0  0  0  0  0
  -25.8880  -35.0070   23.4100 C   0  0  0  0  0  0  0  0  0  0  0  0
  -26.5720  -34.8980   22.3900 O   0  0  0  0  0  0  0  0  0  0  0  0
  -24.9410  -34.1220   24.9640 H   0  0  0  0  0  0  0  0  0  0  0  0
  -24.1610  -36.7930   23.0050 C   0  0  0  0  0  1  0  0  0  0  0  0
  -25.3840  -36.3960   23.8480 C   0  0  0  0  0  3  0  0  0  0  0  0
  -27.4970  -37.2950   24.7220 C   0  0  0  0  0  1  0  0  0  0  0  0
  -26.4170  -37.4520   23.7520 N   0  0  0  0  0  0  0  0  0  0  0  0
  -26.0050  -38.3730   23.8810 H   0  0  0  0  0  0  0  0  0  0  0  0
  -28.2120  -21.3970   19.5240 O   0  0  0  0  0  0  0  0  0  0  0  0
  -26.8020  -21.2130   19.4070 C   0  0  0  0  0  2  0  0  0  0  0  0
  -26.4120  -20.9800   17.9440 C   0  0  0  0  0  0  0  0  0  0  0  0
  -25.1160  -20.9730   17.6580 N   0  0  0  0  0  0  0  0  0  0  0  0
  -27.2600  -20.7980   17.0710 O   0  0  0  0  0  0  0  0  0  0  0  0
  -24.4340  -21.1330   18.3870 H   0  0  0  0  0  0  0  0  0  0  0  0
  -24.7980  -20.8090   16.7140 H   0  0  0  0  0  0  0  0  0  0  0  0
  1 46  1  0
  1  2  1  0
  2  4  2  0
  3  2  1  0
  3  6  1  0
  5  3  1  0
  7 16  1  0
  7  6  1  0
  8 16  1  0
  9 14  1  0
 10 11  1  0
 10  9  1  0
 12 11  1  0
 12 21  1  0
 12 13  1  0
 14  8  1  0
 14 13  1  0
 15  8  2  0
 16 17  1  0
 18 19  2  0
 19 38  1  0
 20 19  1  0
 20 23  1  0
 21 18  1  0
 21 22  1  0
 22 20  2  0
 23 24  1  0
 24 25  2  0
 26 29  1  0
 26 25  1  0
 27 26  2  0
 28 27  1  0
 28 23  2  0
 29 30  1  0
 30 35  2  0
 30 31  1  0
 31 32  2  0
 32 33  1  0
 33 37  1  0
 34 33  2  0
 35 34  1  0
 36 35  1  0
 38 39  1  0
 39 42  1  0
 39 41  1  0
 40 38  2  0
 43 44  1  0
 43 18  1  0
 45 43  1  0
 47 46  2  0
 47 48  1  0
 49 51  1  0
 49 48  1  0
 50 61  2  0
 51 56  1  0
 52 60  1  0
 52 62  1  0
 53 59  1  0
 53 55  1  0
 54 60  1  0
 55 54  1  0
 56 55  2  0
 57 51  2  0
 58 57  1  0
 58 53  2  0
 59 52  1  0
 60 50  1  0
 62 64  2  0
 63 62  1  0
 65 63  1  0
 66 75  2  0
 66 71  1  0
 67 63  1  0
 67 71  1  0
 68 67  1  0
 69 70  1  0
 69 68  1  0
 70 66  1  0
 71 72  2  0
 72 73  1  0
 74 73  2  0
 75 74  1  0
 76 50  1  0
 76 81  1  0
 76 77  1  0
 77 80  1  1
 77 78  1  0
 79 77  1  0
 81 84  1  0
 82 86  1  0
 82 81  1  0
 83 82  2  0
 86 85  1  0
 88 86  1  0
 88 89  1  0
 88 87  1  0
 90  1  1  0
 91 90  1  0
 92 91  1  0
 93 92  1  0
 93 95  1  0
 94 92  2  0
 96 93  1  0
M  ISO  4   8 100  16 100  48 101  49 101
M  END
>  <TORSDO>  (85) 
F 25

>  <SCORE>  (85) 
-12.169

>  <name>  (85) 
86

>  <ligand_id>  (85) 
86

>  <original_smiles>  (85) 
[H]c1c([H])c([H])c2c(c1[H])C([H])([H])C([H])([H])C([H])([H])C2([H])N([H])C(=O)C1([H])N(C(=O)C([H])(N([H])C(=O)C([H])(N([H])C([H])([H])[H])C([H])([H])[H])C(C([H])([H])[H])(C([H])([H])[H])C([H])([H])[H])C([H])([H])c2c([H])c(OC([H])([H])C([H])([H])C([H])([H])C([H])(OC([H])([H])C(=O)N([H])[H])C(=O)N([H])C([H])([H])C([H])([H])N([H])C(=O)N3C([H])([H])C([H])([H])C([H])([H])C([H])(n4nc(-c5c([H])c([H])c(Oc6c([H])c([H])c(F)c([H])c6F)c([H])c5[H])c(C(=O)N([H])[H])c4N([H])[H])C3([H])[H])c([H])c([H])c2C1([H])[H]

>  <smiles>  (85) 
[H]c1c([H])c([H])c2c(c1[H])C([H])([H])C([H])([H])C([H])([H])C2([H])N([H])C(=O)C1([H])N(C(=O)C([H])(N([H])C(=O)C([H])(N([H])C([H])([H])[H])C([H])([H])[H])C(C([H])([H])[H])(C([H])([H])[H])C([H])([H])[H])C([H])([H])c2c([H])c(OC([H])([H])C([H])([H])C([H])([H])C([H])(OC([H])([H])C(=O)N([H])[H])C(=O)N([H])C([H])([H])C([H])([H])N([H])C(=O)N3C([H])([H])C([H])([H])C([H])([H])C([H])(n4nc(-c5c([H])c([H])c(Oc6c([H])c([H])c(F)c([H])c6F)c([H])c5[H])c(C(=O)N([H])[H])c4N([H])[H])C3([H])[H])c([H])c([H])c2C1([H])[H]

$$$$
87:0:0
     RDKit          3D

103111  0  0  1  0  0  0  0  0999 V2000
  -29.8500  -19.7770   18.3090 C   0  0  0  0  0  3  0  0  0  0  0  0
  -26.7320  -19.2510   15.9550 C   0  0  0  0  0  2  0  0  0  0  0  0
  -27.9180  -18.8130   16.8340 C   0  0  0  0  0  2  0  0  0  0  0  0
  -25.6640  -20.0280   16.7560 C   0  0  0  0  0  2  0  0  0  0  0  0
  -27.4010  -20.6940   18.4120 C   0  0  0  0  0  2  0  0  0  0  0  0
  -28.5130  -20.0480   17.5530 C   0  0  0  0  0  3  0  0  0  0  0  0
  -26.2520  -21.1120   17.5750 N   0  0  0  0  0  4  0  0  0  0  0  0
  -25.5310  -21.4830   18.1740 H   0  0  0  0  0  0  0  0  0  0  0  0
  -26.5380  -21.8640   16.9670 H   0  0  0  0  0  0  0  0  0  0  0  0
  -29.9500  -17.6510   19.6200 C   0  0  0  0  0  0  0  0  0  0  0  0
  -29.6770  -18.9490   19.5010 N   0  0  0  0  0  0  0  0  0  0  0  0
  -30.1990  -16.9380   18.6460 O   0  0  0  0  0  0  0  0  0  0  0  0
  -29.5410  -19.4740   20.3550 H   0  0  0  0  0  0  0  0  0  0  0  0
  -31.1980  -17.5870   21.8420 C   0  0  0  0  0  1  0  0  0  0  0  0
  -29.9660  -17.1020   21.0580 C   0  0  0  0  0  3  0  0  0  0  0  0
  -30.5850  -14.7200   20.5170 C   0  0  0  0  0  0  0  0  0  0  0  0
  -30.2980  -12.6530   19.2190 C   0  0  0  0  0  2  0  0  0  0  0  0
  -29.3190  -12.9530   18.0660 C   0  0  0  0  0  2  0  0  0  0  0  0
  -27.8570  -12.7640   18.5200 C   0  0  0  0  0  2  0  0  0  0  0  0
  -27.5490  -13.4940   19.8550 C   0  0  0  0  0  3  0  0  0  0  0  0
  -28.6340  -13.1760   20.9090 C   0  0  0  0  0  2  0  0  0  0  0  0
  -29.9450  -13.5380   20.3360 N   0  0  0  0  0  0  0  0  0  0  0  0
  -31.6920  -14.9790   20.0410 O   0  0  0  0  0  0  0  0  0  0  0  0
  -29.8140  -15.6480   21.0950 N   0  0  0  0  0  0  0  0  0  0  0  0
  -28.9210  -15.3080   21.4150 H   0  0  0  0  0  0  0  0  0  0  0  0
  -25.1330  -14.0050   20.5880 C   0  0  0  0  0  0  0  0  0  0  0  0
  -24.0980  -13.1830   20.9540 C   0  0  0  0  0  0  0  0  0  0  0  0
  -24.6130  -11.8530   20.9000 C   0  0  0  0  0  0  0  0  0  0  0  0
  -26.2090  -13.1680   20.3380 N   0  0  0  0  0  0  0  0  0  0  0  0
  -25.8990  -11.8690   20.5810 N   0  0  0  0  0  0  0  0  0  0  0  0
  -23.9450  -10.5590   21.0860 C   0  0  0  0  0  0  0  0  0  0  0  0
  -24.4130   -9.6190   22.0310 C   0  0  0  0  0  3  0  0  0  0  0  0
  -23.7480   -8.3870   22.2030 C   0  0  0  0  0  3  0  0  0  0  0  0
  -22.6020   -8.0850   21.4300 C   0  0  0  0  0  0  0  0  0  0  0  0
  -22.1530   -9.0160   20.4750 C   0  0  0  0  0  3  0  0  0  0  0  0
  -22.8190  -10.2420   20.3000 C   0  0  0  0  0  3  0  0  0  0  0  0
  -21.9020   -6.9050   21.5120 O   0  0  0  0  0  0  0  0  0  0  0  0
  -21.8540   -6.1780   22.6740 C   0  0  0  0  0  0  0  0  0  0  0  0
  -21.3480   -6.7250   23.8740 C   0  0  0  0  0  3  0  0  0  0  0  0
  -21.2480   -5.9210   25.0270 C   0  0  0  0  0  3  0  0  0  0  0  0
  -21.6410   -4.5690   24.9790 C   0  0  0  0  0  0  0  0  0  0  0  0
  -22.1430   -4.0240   23.7830 C   0  0  0  0  0  3  0  0  0  0  0  0
  -22.2430   -4.8260   22.6330 C   0  0  0  0  0  0  0  0  0  0  0  0
  -22.7040   -4.2880   21.4780 F   0  0  0  0  0  0  0  0  0  0  0  0
  -21.5430   -3.7940   26.0840 F   0  0  0  0  0  0  0  0  0  0  0  0
  -22.6850  -13.5970   21.2440 C   0  0  0  0  0  0  0  0  0  0  0  0
  -21.9950  -12.8640   22.1120 N   0  0  0  0  0  0  0  0  0  0  0  0
  -22.1940  -14.6030   20.7350 O   0  0  0  0  0  0  0  0  0  0  0  0
  -22.4010  -12.0450   22.5450 H   0  0  0  0  0  0  0  0  0  0  0  0
  -21.0480  -13.1260   22.3470 H   0  0  0  0  0  0  0  0  0  0  0  0
  -25.2420  -15.3850   20.4330 N   0  0  0  0  0  0  0  0  0  0  0  0
  -24.4660  -16.0140   20.6150 H   0  0  0  0  0  0  0  0  0  0  0  0
  -26.0780  -15.8730   20.1430 H   0  0  0  0  0  0  0  0  0  0  0  0
  -30.6610  -21.0210   18.7250 C   0  0  0  0  0  0  0  0  0  0  0  0
  -31.3830  -21.6310   17.7750 N   0  0  0  0  0  0  0  0  0  0  0  0
  -30.6510  -21.3810   19.9070 O   0  0  0  0  0  0  0  0  0  0  0  0
  -31.2790  -21.2640   16.8350 H   0  0  0  0  0  0  0  0  0  0  0  0
  -32.4550  -22.6250   17.9250 C   0  0  0  0  0  2  0  0  0  0  0  0
  -32.1900  -23.7950   18.8950 C   0  0  0  0  0  2  0  0  0  0  0  0
  -30.9210  -24.3840   18.6300 O   0  0  0  0  0  0  0  0  0  0  0  0
  -30.5890  -25.3920   19.5780 C   0  0  0  0  0  2  0  0  0  0  0  0
  -29.1250  -25.8220   19.4010 C   0  0  0  0  0  2  0  0  0  0  0  0
  -28.8920  -26.9800   20.1970 O   0  0  0  0  0  0  0  0  0  0  0  0
  -24.7310  -31.8170   23.2870 C   0  0  0  0  0  0  0  0  0  0  0  0
  -27.6540  -27.5870   20.1680 C   0  0  0  0  0  0  0  0  0  0  0  0
  -23.6250  -30.4090   21.5760 C   0  0  0  0  0  3  0  0  0  0  0  0
  -25.1810  -28.9620   20.1620 C   0  0  0  0  0  0  0  0  0  0  0  0
  -26.1360  -30.8750   21.4620 C   0  0  0  0  0  2  0  0  0  0  0  0
  -26.2950  -29.5260   20.7940 C   0  0  0  0  0  0  0  0  0  0  0  0
  -27.5280  -28.8420   20.7990 C   0  0  0  0  0  3  0  0  0  0  0  0
  -26.5170  -27.0200   19.5450 C   0  0  0  0  0  3  0  0  0  0  0  0
  -25.2840  -27.7040   19.5420 C   0  0  0  0  0  3  0  0  0  0  0  0
  -23.9000  -29.7630   20.1900 C   0  0  0  0  0  2  0  0  0  0  0  0
  -24.8460  -31.0490   22.1680 N   0  0  0  0  0  0  0  0  0  0  0  0
  -23.6240  -32.0350   23.8010 O   0  0  0  0  0  0  0  0  0  0  0  0
  -22.9880  -29.3430   22.4950 C   0  0  0  0  0  0  0  0  0  0  0  0
  -21.6770  -29.1130   22.3190 N   0  0  0  0  0  0  0  0  0  0  0  0
  -23.6700  -28.7250   23.3160 O   0  0  0  0  0  0  0  0  0  0  0  0
  -21.1890  -29.6640   21.6290 H   0  0  0  0  0  0  0  0  0  0  0  0
  -18.3360  -27.7890   22.6800 C   0  0  0  0  0  0  0  0  0  0  0  0
  -20.8730  -28.1270   23.0400 C   0  0  0  0  0  3  0  0  0  0  0  0
  -21.0440  -26.7160   22.4290 C   0  0  0  0  0  2  0  0  0  0  0  0
  -19.9860  -26.3840   21.3720 C   0  0  0  0  0  2  0  0  0  0  0  0
  -18.5810  -26.4650   21.9760 C   0  0  0  0  0  2  0  0  0  0  0  0
  -19.4140  -28.5770   23.1650 C   0  0  0  0  0  0  0  0  0  0  0  0
  -19.1330  -29.8180   23.7780 C   0  0  0  0  0  3  0  0  0  0  0  0
  -17.8080  -30.2700   23.9150 C   0  0  0  0  0  3  0  0  0  0  0  0
  -16.7430  -29.4780   23.4480 C   0  0  0  0  0  3  0  0  0  0  0  0
  -17.0090  -28.2400   22.8370 C   0  0  0  0  0  3  0  0  0  0  0  0
  -25.9760  -32.4770   23.9600 C   0  0  0  0  0  3  0  0  0  0  0  0
  -26.4640  -31.7110   25.2520 C   0  0  1  0  0  0  0  0  0  0  0  0
  -25.3370  -31.4430   26.2740 C   0  0  0  0  0  1  0  0  0  0  0  0
  -27.0980  -30.3530   24.8750 C   0  0  0  0  0  1  0  0  0  0  0  0
  -27.5660  -32.5340   25.9610 C   0  0  0  0  0  1  0  0  0  0  0  0
  -25.6180  -33.8640   24.2810 N   0  0  0  0  0  0  0  0  0  0  0  0
  -25.9370  -34.9260   23.5290 C   0  0  0  0  0  0  0  0  0  0  0  0
  -26.6340  -34.8430   22.5130 O   0  0  0  0  0  0  0  0  0  0  0  0
  -24.9970  -34.0030   25.0640 H   0  0  0  0  0  0  0  0  0  0  0  0
  -24.1510  -36.6540   23.1470 C   0  0  0  0  0  1  0  0  0  0  0  0
  -25.3960  -36.2980   23.9730 C   0  0  0  0  0  3  0  0  0  0  0  0
  -27.4880  -37.2630   24.8250 C   0  0  0  0  0  1  0  0  0  0  0  0
  -26.3930  -37.3850   23.8650 N   0  0  0  0  0  0  0  0  0  0  0  0
  -25.9530  -38.2920   24.0010 H   0  0  0  0  0  0  0  0  0  0  0  0
  1 54  1  0
  1 11  1  0
  2  4  1  0
  2  3  1  0
  3  6  1  0
  4  7  1  0
  6  1  1  0
  6  5  1  0
  7  8  1  0
  7  5  1  0
  9  7  1  0
 10 15  1  0
 11 10  1  0
 11 13  1  0
 12 10  2  0
 15 24  1  0
 15 14  1  0
 16 24  1  0
 17 22  1  0
 18 19  1  0
 18 17  1  0
 20 19  1  0
 20 29  1  0
 20 21  1  0
 22 16  1  0
 22 21  1  0
 23 16  2  0
 24 25  1  0
 26 27  2  0
 27 46  1  0
 28 27  1  0
 28 31  1  0
 29 30  1  0
 29 26  1  0
 30 28  2  0
 31 32  1  0
 32 33  2  0
 34 37  1  0
 34 33  1  0
 35 34  2  0
 36 35  1  0
 36 31  2  0
 37 38  1  0
 38 39  1  0
 39 40  2  0
 41 40  1  0
 41 45  1  0
 42 41  2  0
 43 38  2  0
 43 42  1  0
 44 43  1  0
 46 47  1  0
 47 50  1  0
 47 49  1  0
 48 46  2  0
 51 26  1  0
 51 52  1  0
 53 51  1  0
 54 56  2  0
 55 58  1  0
 55 54  1  0
 57 55  1  0
 58 59  1  0
 60 59  1  0
 60 61  1  0
 62 61  1  0
 62 63  1  0
 64 75  2  0
 65 63  1  0
 65 70  1  0
 66 74  1  0
 66 76  1  0
 67 73  1  0
 67 69  1  0
 68 74  1  0
 69 70  2  0
 69 68  1  0
 71 65  2  0
 72 71  1  0
 72 67  2  0
 73 66  1  0
 74 64  1  0
 76 78  2  0
 77 76  1  0
 79 77  1  0
 80 89  2  0
 80 85  1  0
 81 77  1  0
 81 85  1  0
 82 81  1  0
 83 84  1  0
 83 82  1  0
 84 80  1  0
 85 86  2  0
 86 87  1  0
 88 87  2  0
 89 88  1  0
 90 64  1  0
 90 95  1  0
 90 91  1  0
 91 94  1  1
 91 92  1  0
 93 91  1  0
 95 98  1  0
 96100  1  0
 96 95  1  0
 97 96  2  0
100 99  1  0
102100  1  0
102103  1  0
102101  1  0
M  ISO  4  16 100  24 100  62 101  63 101
M  END
>  <TORSDO>  (86) 
F 25

>  <SCORE>  (86) 
-11.377

>  <name>  (86) 
87

>  <ligand_id>  (86) 
87

>  <original_smiles>  (86) 
[H]c1c([H])c([H])c2c(c1[H])C([H])([H])C([H])([H])C([H])([H])C2([H])N([H])C(=O)C1([H])N(C(=O)C([H])(N([H])C(=O)C([H])(N([H])C([H])([H])[H])C([H])([H])[H])C(C([H])([H])[H])(C([H])([H])[H])C([H])([H])[H])C([H])([H])c2c([H])c(OC([H])([H])C([H])([H])OC([H])([H])C([H])([H])N([H])C(=O)C([H])(N([H])C(=O)C([H])(N([H])C(=O)N3C([H])([H])C([H])([H])C([H])([H])C([H])(n4nc(-c5c([H])c([H])c(Oc6c([H])c([H])c(F)c([H])c6F)c([H])c5[H])c(C(=O)N([H])[H])c4N([H])[H])C3([H])[H])C([H])([H])[H])C3([H])C([H])([H])C([H])([H])C([H])([H])[N+]([H])([H])C3([H])[H])c([H])c([H])c2C1([H])[H]

>  <smiles>  (86) 
[H]c1c([H])c([H])c2c(c1[H])C([H])([H])C([H])([H])C([H])([H])C2([H])N([H])C(=O)C1([H])N(C(=O)C([H])(N([H])C(=O)C([H])(N([H])C([H])([H])[H])C([H])([H])[H])C(C([H])([H])[H])(C([H])([H])[H])C([H])([H])[H])C([H])([H])c2c([H])c(OC([H])([H])C([H])([H])OC([H])([H])C([H])([H])N([H])C(=O)C([H])(N([H])C(=O)C([H])(N([H])C(=O)N3C([H])([H])C([H])([H])C([H])([H])C([H])(n4nc(-c5c([H])c([H])c(Oc6c([H])c([H])c(F)c([H])c6F)c([H])c5[H])c(C(=O)N([H])[H])c4N([H])[H])C3([H])[H])C([H])([H])[H])C3([H])C([H])([H])C([H])([H])C([H])([H])[N+]([H])([H])C3([H])[H])c([H])c([H])c2C1([H])[H]

$$$$
88:0:0
     RDKit          3D

 98105  0  0  1  0  0  0  0  0999 V2000
  -28.1100  -18.6830   17.1420 C   0  0  0  0  0  2  0  0  0  0  0  0
  -28.1890  -19.7510   18.1120 O   0  0  0  0  0  0  0  0  0  0  0  0
  -28.3540  -21.0770   17.5880 C   0  0  0  0  0  2  0  0  0  0  0  0
  -29.0390  -22.0230   18.6210 C   0  0  0  0  0  2  0  0  0  0  0  0
  -28.6300  -24.4760   19.0620 C   0  0  0  0  0  0  0  0  0  0  0  0
  -28.2610  -23.1760   19.1310 N   0  0  0  0  0  0  0  0  0  0  0  0
  -29.4090  -24.8880   18.2000 O   0  0  0  0  0  0  0  0  0  0  0  0
  -27.5610  -22.9530   19.8280 H   0  0  0  0  0  0  0  0  0  0  0  0
  -28.1340  -25.4320   20.1780 C   0  0  0  0  0  2  0  0  0  0  0  0
  -28.3340  -26.8400   19.8700 O   0  0  0  0  0  0  0  0  0  0  0  0
  -24.6540  -31.8560   23.4220 C   0  0  0  0  0  0  0  0  0  0  0  0
  -27.2040  -27.6310   19.9420 C   0  0  0  0  0  0  0  0  0  0  0  0
  -23.4210  -30.6000   21.6900 C   0  0  0  0  0  3  0  0  0  0  0  0
  -24.8400  -29.1770   20.1240 C   0  0  0  0  0  0  0  0  0  0  0  0
  -25.9510  -30.9430   21.4950 C   0  0  0  0  0  2  0  0  0  0  0  0
  -26.0150  -29.6260   20.7410 C   0  0  0  0  0  0  0  0  0  0  0  0
  -27.2040  -28.8600   20.6500 C   0  0  0  0  0  3  0  0  0  0  0  0
  -26.0160  -27.2210   19.3000 C   0  0  0  0  0  3  0  0  0  0  0  0
  -24.8350  -27.9730   19.4020 C   0  0  0  0  0  3  0  0  0  0  0  0
  -23.6090  -30.0420   20.2570 C   0  0  0  0  0  2  0  0  0  0  0  0
  -24.6950  -31.1430   22.2610 N   0  0  0  0  0  0  0  0  0  0  0  0
  -23.5800  -32.0910   23.9930 O   0  0  0  0  0  0  0  0  0  0  0  0
  -22.7740  -29.5040   22.5690 C   0  0  0  0  0  0  0  0  0  0  0  0
  -21.4520  -29.3150   22.4170 N   0  0  0  0  0  0  0  0  0  0  0  0
  -23.4570  -28.8320   23.3460 O   0  0  0  0  0  0  0  0  0  0  0  0
  -20.9610  -29.9150   21.7700 H   0  0  0  0  0  0  0  0  0  0  0  0
  -18.1000  -28.0070   22.7490 C   0  0  0  0  0  0  0  0  0  0  0  0
  -20.6400  -28.3160   23.1120 C   0  0  0  0  0  3  0  0  0  0  0  0
  -20.7990  -26.9200   22.4680 C   0  0  0  0  0  2  0  0  0  0  0  0
  -19.7360  -26.6200   21.4060 C   0  0  0  0  0  2  0  0  0  0  0  0
  -18.3330  -26.6970   22.0140 C   0  0  0  0  0  2  0  0  0  0  0  0
  -19.1840  -28.7740   23.2520 C   0  0  0  0  0  0  0  0  0  0  0  0
  -18.9140  -30.0000   23.8970 C   0  0  0  0  0  3  0  0  0  0  0  0
  -17.5910  -30.4590   24.0470 C   0  0  0  0  0  3  0  0  0  0  0  0
  -16.5210  -29.6880   23.5600 C   0  0  0  0  0  3  0  0  0  0  0  0
  -16.7760  -28.4640   22.9180 C   0  0  0  0  0  3  0  0  0  0  0  0
  -25.9490  -32.4300   24.0750 C   0  0  0  0  0  3  0  0  0  0  0  0
  -26.4750  -31.5590   25.2810 C   0  0  1  0  0  0  0  0  0  0  0  0
  -25.3940  -31.2520   26.3440 C   0  0  0  0  0  1  0  0  0  0  0  0
  -27.0380  -30.2100   24.7760 C   0  0  0  0  0  1  0  0  0  0  0  0
  -27.6420  -32.2890   25.9860 C   0  0  0  0  0  1  0  0  0  0  0  0
  -25.6540  -33.8000   24.5140 N   0  0  0  0  0  0  0  0  0  0  0  0
  -26.0130  -34.9060   23.8490 C   0  0  0  0  0  0  0  0  0  0  0  0
  -26.7000  -34.8780   22.8230 O   0  0  0  0  0  0  0  0  0  0  0  0
  -25.0490  -33.8970   25.3160 H   0  0  0  0  0  0  0  0  0  0  0  0
  -24.3210  -36.7520   23.6040 C   0  0  0  0  0  1  0  0  0  0  0  0
  -25.5340  -36.2600   24.4100 C   0  0  0  0  0  3  0  0  0  0  0  0
  -27.6670  -37.0280   25.3530 C   0  0  0  0  0  1  0  0  0  0  0  0
  -26.5860  -37.3000   24.4110 N   0  0  0  0  0  0  0  0  0  0  0  0
  -26.1910  -38.2100   24.6340 H   0  0  0  0  0  0  0  0  0  0  0  0
  -27.8950  -17.3580   17.9210 C   0  0  0  0  0  2  0  0  0  0  0  0
  -27.7480  -16.0620   17.2460 O   0  0  0  0  0  0  0  0  0  0  0  0
  -27.1940  -15.0770   18.1590 C   0  0  0  0  0  3  0  0  0  0  0  0
  -27.3710  -13.4870   18.0080 C   0  0  0  0  0  3  0  0  0  0  0  0
  -26.9760  -12.3570   18.9040 O   0  0  0  0  0  0  0  0  0  0  0  0
  -27.6500  -11.6380   20.0730 C   0  0  0  0  0  3  0  0  0  0  0  0
  -28.7150  -10.3620   19.5400 C   0  0  0  0  0  2  0  0  0  0  0  0
  -29.8190   -9.5990   20.3710 O   0  0  0  0  0  0  0  0  0  0  0  0
  -31.3050   -9.7660   20.7950 C   0  0  0  0  0  2  0  0  0  0  0  0
  -32.0500  -10.3480   22.1850 C   0  0  0  0  0  2  0  0  0  0  0  0
  -33.9260  -12.3310   21.9800 C   0  0  0  0  0  0  0  0  0  0  0  0
  -33.4580  -12.0510   19.8510 C   0  0  0  0  0  2  0  0  0  0  0  0
  -32.6060  -12.5570   18.7600 C   0  0  0  0  0  2  0  0  0  0  0  0
  -31.2150  -12.5930   19.2450 C   0  0  0  0  0  2  0  0  0  0  0  0
  -30.9880  -13.4340   20.5630 C   0  0  0  0  0  3  0  0  0  0  0  0
  -31.8960  -13.2170   21.6700 C   0  0  0  0  0  2  0  0  0  0  0  0
  -33.1080  -12.6940   21.1220 N   0  0  0  0  0  0  0  0  0  0  0  0
  -35.0300  -12.9070   22.0040 O   0  0  0  0  0  0  0  0  0  0  0  0
  -33.4600  -11.0660   22.3630 N   0  0  0  0  0  0  0  0  0  0  0  0
  -34.1300  -10.5440   22.9100 H   0  0  0  0  0  0  0  0  0  0  0  0
  -28.4400  -14.6400   21.0260 C   0  0  0  0  0  3  0  0  0  0  0  0
  -26.9390  -13.9290   21.3170 C   0  0  0  0  0  3  0  0  0  0  0  0
  -27.1350  -12.1790   21.7430 C   0  0  2  0  0  0  0  0  0  0  0  0
  -29.7450  -13.3840   21.1900 N   0  0  0  0  0  2  0  0  0  0  0  0
  -28.8990  -11.7860   21.7440 N   0  0  0  0  0  1  0  0  0  0  0  0
  -26.1510  -11.2000   21.6540 C   0  0  0  0  0  0  0  0  0  0  0  0
  -26.2410  -10.1010   22.4950 C   0  0  0  0  0  3  0  0  0  0  0  0
  -25.2250   -9.1500   22.4300 C   0  0  0  0  0  3  0  0  0  0  0  0
  -24.1540   -9.3210   21.5200 C   0  0  0  0  0  0  0  0  0  0  0  0
  -24.1320  -10.3990   20.6240 C   0  0  0  0  0  3  0  0  0  0  0  0
  -25.1470  -11.3480   20.6840 C   0  0  0  0  0  3  0  0  0  0  0  0
  -23.1090   -8.4530   21.4470 O   0  0  0  0  0  0  0  0  0  0  0  0
  -22.6860   -7.8100   22.5760 C   0  0  0  0  0  0  0  0  0  0  0  0
  -22.2580   -8.5180   23.7200 C   0  0  0  0  0  3  0  0  0  0  0  0
  -21.7840   -7.8090   24.8400 C   0  0  0  0  0  3  0  0  0  0  0  0
  -21.7250   -6.4040   24.8080 C   0  0  0  0  0  0  0  0  0  0  0  0
  -22.1590   -5.7020   23.6680 C   0  0  0  0  0  3  0  0  0  0  0  0
  -22.6440   -6.4060   22.5560 C   0  0  0  0  0  0  0  0  0  0  0  0
  -23.0560   -5.7400   21.4510 F   0  0  0  0  0  0  0  0  0  0  0  0
  -21.2460   -5.7190   25.8720 F   0  0  0  0  0  0  0  0  0  0  0  0
  -25.7510  -14.7200   21.6530 C   0  0  0  0  0  0  0  0  0  0  0  0
  -24.8880  -14.1650   22.4890 N   0  0  0  0  0  0  0  0  0  0  0  0
  -25.6510  -15.8670   21.2400 O   0  0  0  0  0  0  0  0  0  0  0  0
  -25.0080  -13.2270   22.8330 H   0  0  0  0  0  0  0  0  0  0  0  0
  -24.0820  -14.6960   22.7860 H   0  0  0  0  0  0  0  0  0  0  0  0
  -28.7940  -15.9550   21.1740 N   0  0  0  0  0  0  0  0  0  0  0  0
  -29.7120  -16.2960   21.4220 H   0  0  0  0  0  0  0  0  0  0  0  0
  -28.0710  -16.6580   21.2460 H   0  0  0  0  0  0  0  0  0  0  0  0
  1 51  1  0
  1  2  1  0
  3  2  1  0
  3  4  1  0
  4  6  1  0
  5  6  1  0
  5  9  1  0
  6  8  1  0
  7  5  2  0
 10 12  1  0
 10  9  1  0
 11 22  2  0
 12 17  1  0
 13 21  1  0
 13 23  1  0
 14 20  1  0
 14 16  1  0
 15 21  1  0
 16 15  1  0
 17 16  2  0
 18 19  1  0
 18 12  2  0
 19 14  2  0
 20 13  1  0
 21 11  1  0
 23 25  2  0
 24 23  1  0
 26 24  1  0
 27 36  2  0
 27 32  1  0
 28 24  1  0
 28 32  1  0
 29 28  1  0
 30 31  1  0
 30 29  1  0
 31 27  1  0
 32 33  2  0
 33 34  1  0
 35 34  2  0
 36 35  1  0
 37 11  1  0
 37 42  1  0
 37 38  1  0
 38 41  1  1
 38 39  1  0
 40 38  1  0
 42 45  1  0
 43 47  1  0
 43 42  1  0
 44 43  2  0
 47 46  1  0
 47 49  1  0
 49 50  1  0
 49 48  1  0
 52 51  1  0
 52 53  1  0
 54 53  2  0
 54 55  1  0
 56 55  1  0
 56 73  1  0
 57 56  1  0
 57 58  1  0
 58 59  1  0
 59 60  1  0
 60 69  1  0
 61 68  2  0
 61 69  1  0
 62 67  1  0
 63 64  1  0
 63 62  1  0
 65 64  1  0
 65 74  1  0
 65 66  1  0
 67 66  1  0
 67 61  1  0
 69 70  1  0
 71 96  1  0
 71 74  1  0
 71 72  1  0
 72 91  1  0
 72 73  1  0
 73 75  1  1
 76 73  1  0
 76 77  1  0
 78 77  2  0
 79 78  1  0
 80 81  1  0
 80 79  2  0
 81 76  2  0
 82 79  1  0
 82 83  1  0
 83 84  1  0
 84 85  2  0
 86 85  1  0
 86 90  1  0
 87 86  2  0
 88 83  2  0
 88 87  1  0
 89 88  1  0
 91 92  1  0
 92 95  1  0
 92 94  1  0
 93 91  2  0
 96 98  1  0
 96 97  1  0
M  ISO  4   9 101  10 101  61 100  69 100
M  END
>  <TORSDO>  (87) 
F 31

>  <SCORE>  (87) 
-3.021

>  <name>  (87) 
88

>  <ligand_id>  (87) 
88

>  <original_smiles>  (87) 
[H]c1c([H])c([H])c2c(c1[H])C([H])([H])C([H])([H])C([H])([H])C2([H])N([H])C(=O)C1([H])N(C(=O)C([H])(N([H])C(=O)C([H])(N([H])C([H])([H])[H])C([H])([H])[H])C(C([H])([H])[H])(C([H])([H])[H])C([H])([H])[H])C([H])([H])c2c([H])c(OC([H])([H])C(=O)N([H])C([H])([H])C([H])([H])OC([H])([H])C([H])([H])OC([H])([H])C([H])([H])OC([H])([H])C([H])([H])OC([H])([H])C([H])([H])N([H])C(=O)N3C([H])([H])C([H])([H])C([H])([H])C([H])(n4nc(-c5c([H])c([H])c(Oc6c([H])c([H])c(F)c([H])c6F)c([H])c5[H])c(C(=O)N([H])[H])c4N([H])[H])C3([H])[H])c([H])c([H])c2C1([H])[H]

>  <smiles>  (87) 
[H]c1c([H])c([H])c2c(c1[H])C([H])([H])C([H])([H])C([H])([H])C2([H])N([H])C(=O)C1([H])N(C(=O)C([H])(N([H])C(=O)C([H])(N([H])C([H])([H])[H])C([H])([H])[H])C(C([H])([H])[H])(C([H])([H])[H])C([H])([H])[H])C([H])([H])c2c([H])c(OC([H])([H])C(=O)N([H])C([H])([H])C([H])([H])OC([H])([H])C([H])([H])OC([H])([H])C([H])([H])OC([H])([H])C([H])([H])OC([H])([H])C([H])([H])N([H])C(=O)N3C([H])([H])C([H])([H])C([H])([H])C([H])(n4nc(-c5c([H])c([H])c(Oc6c([H])c([H])c(F)c([H])c6F)c([H])c5[H])c(C(=O)N([H])[H])c4N([H])[H])C3([H])[H])c([H])c([H])c2C1([H])[H]

$$$$
89:0:0
     RDKit          3D

 97104  0  0  1  0  0  0  0  0999 V2000
  -32.7410  -21.2090   20.0820 C   0  0  0  0  0  0  0  0  0  0  0  0
  -33.6000  -22.2200   20.2660 N   0  0  0  0  0  0  0  0  0  0  0  0
  -32.3400  -20.8690   18.9650 O   0  0  0  0  0  0  0  0  0  0  0  0
  -33.9190  -22.3720   21.2140 H   0  0  0  0  0  0  0  0  0  0  0  0
  -33.9720  -23.2310   19.2770 C   0  0  0  0  0  2  0  0  0  0  0  0
  -32.8370  -24.2510   19.0300 C   0  0  0  0  0  2  0  0  0  0  0  0
  -32.4410  -25.0300   20.2940 C   0  0  0  0  0  2  0  0  0  0  0  0
  -31.3060  -25.8510   20.0470 O   0  0  0  0  0  0  0  0  0  0  0  0
  -30.6770  -26.2240   21.2700 C   0  0  0  0  0  2  0  0  0  0  0  0
  -29.5820  -27.2750   21.0680 C   0  0  0  0  0  2  0  0  0  0  0  0
  -28.4140  -26.7070   20.4700 O   0  0  0  0  0  0  0  0  0  0  0  0
  -24.4800  -31.9480   23.3110 C   0  0  0  0  0  0  0  0  0  0  0  0
  -27.2610  -27.4670   20.4550 C   0  0  0  0  0  0  0  0  0  0  0  0
  -23.3210  -30.4830   21.6840 C   0  0  0  0  0  3  0  0  0  0  0  0
  -24.8230  -28.9050   20.3550 C   0  0  0  0  0  0  0  0  0  0  0  0
  -25.8390  -30.8700   21.5280 C   0  0  0  0  0  2  0  0  0  0  0  0
  -25.9530  -29.4800   20.9440 C   0  0  0  0  0  0  0  0  0  0  0  0
  -27.1690  -28.7760   20.9870 C   0  0  0  0  0  3  0  0  0  0  0  0
  -26.1090  -26.8950   19.8730 C   0  0  0  0  0  3  0  0  0  0  0  0
  -24.8930  -27.6080   19.8150 C   0  0  0  0  0  3  0  0  0  0  0  0
  -23.5680  -29.7490   20.3370 C   0  0  0  0  0  2  0  0  0  0  0  0
  -24.5630  -31.1150   22.2350 N   0  0  0  0  0  0  0  0  0  0  0  0
  -23.3850  -32.2310   23.8160 O   0  0  0  0  0  0  0  0  0  0  0  0
  -22.6510  -29.4940   22.6630 C   0  0  0  0  0  0  0  0  0  0  0  0
  -21.3310  -29.3020   22.5030 N   0  0  0  0  0  0  0  0  0  0  0  0
  -23.3140  -28.9010   23.5170 O   0  0  0  0  0  0  0  0  0  0  0  0
  -20.8610  -29.8300   21.7820 H   0  0  0  0  0  0  0  0  0  0  0  0
  -17.9490  -28.1140   22.9310 C   0  0  0  0  0  0  0  0  0  0  0  0
  -20.4950  -28.3890   23.2790 C   0  0  0  0  0  3  0  0  0  0  0  0
  -20.6210  -26.9390   22.7550 C   0  0  0  0  0  2  0  0  0  0  0  0
  -19.5530  -26.5780   21.7180 C   0  0  0  0  0  2  0  0  0  0  0  0
  -18.1510  -26.7420   22.3110 C   0  0  0  0  0  2  0  0  0  0  0  0
  -19.0510  -28.8940   23.3710 C   0  0  0  0  0  0  0  0  0  0  0  0
  -18.8110  -30.1790   23.9060 C   0  0  0  0  0  3  0  0  0  0  0  0
  -17.5010  -30.6820   24.0100 C   0  0  0  0  0  3  0  0  0  0  0  0
  -16.4120  -29.9000   23.5890 C   0  0  0  0  0  3  0  0  0  0  0  0
  -16.6370  -28.6170   23.0550 C   0  0  0  0  0  3  0  0  0  0  0  0
  -25.7490  -32.6010   23.9440 C   0  0  0  0  0  3  0  0  0  0  0  0
  -25.4270  -34.0050   24.2310 N   0  0  0  0  0  0  0  0  0  0  0  0
  -25.7790  -35.0380   23.4540 C   0  0  0  0  0  0  0  0  0  0  0  0
  -26.4790  -34.9110   22.4450 O   0  0  0  0  0  0  0  0  0  0  0  0
  -24.8090  -34.1770   25.0110 H   0  0  0  0  0  0  0  0  0  0  0  0
  -24.0490  -36.8070   23.0060 C   0  0  0  0  0  1  0  0  0  0  0  0
  -25.2720  -36.4340   23.8600 C   0  0  0  0  0  3  0  0  0  0  0  0
  -27.3830  -37.3500   24.7150 C   0  0  0  0  0  1  0  0  0  0  0  0
  -26.3000  -37.4910   23.7460 N   0  0  0  0  0  0  0  0  0  0  0  0
  -25.8850  -38.4100   23.8670 H   0  0  0  0  0  0  0  0  0  0  0  0
  -26.2450  -31.8610   25.2470 C   0  0  1  0  0  0  0  0  0  0  0  0
  -25.1300  -31.6230   26.2910 C   0  0  0  0  0  1  0  0  0  0  0  0
  -26.8620  -30.4890   24.8900 C   0  0  0  0  0  1  0  0  0  0  0  0
  -27.3650  -32.6880   25.9250 C   0  0  0  0  0  1  0  0  0  0  0  0
  -32.2090  -20.5510   21.3630 C   0  0  0  0  0  2  0  0  0  0  0  0
  -31.2860  -19.5030   21.0620 O   0  0  0  0  0  0  0  0  0  0  0  0
  -30.2920  -19.3630   22.0760 C   0  0  0  0  0  2  0  0  0  0  0  0
  -29.3980  -18.1400   21.8250 C   0  0  0  0  0  2  0  0  0  0  0  0
  -28.8230  -18.2190   20.5260 O   0  0  0  0  0  0  0  0  0  0  0  0
  -28.8310  -16.9960   19.7960 C   0  0  0  0  0  2  0  0  0  0  0  0
  -30.1320  -16.8350   18.9880 C   0  0  0  0  0  2  0  0  0  0  0  0
  -31.2860  -16.1020   19.7020 C   0  0  0  0  0  2  0  0  0  0  0  0
  -31.4560  -13.6220   19.7190 C   0  0  0  0  0  0  0  0  0  0  0  0
  -30.8500  -11.4110   18.8400 C   0  0  0  0  0  2  0  0  0  0  0  0
  -29.8740  -11.6180   17.6640 C   0  0  0  0  0  2  0  0  0  0  0  0
  -28.4180  -11.7250   18.1630 C   0  0  0  0  0  2  0  0  0  0  0  0
  -28.2550  -12.7100   19.3500 C   0  0  0  0  0  3  0  0  0  0  0  0
  -29.3360  -12.4560   20.4270 C   0  0  0  0  0  2  0  0  0  0  0  0
  -30.6570  -12.5260   19.7750 N   0  0  0  0  0  0  0  0  0  0  0  0
  -32.5620  -13.6340   19.1670 O   0  0  0  0  0  0  0  0  0  0  0  0
  -30.8740  -14.7590   20.1220 N   0  0  0  0  0  0  0  0  0  0  0  0
  -29.9770  -14.6630   20.5740 H   0  0  0  0  0  0  0  0  0  0  0  0
  -26.0230  -13.6910   20.1720 C   0  0  0  0  0  0  0  0  0  0  0  0
  -24.8740  -13.0970   20.6220 C   0  0  0  0  0  0  0  0  0  0  0  0
  -25.1190  -11.6900   20.5930 C   0  0  0  0  0  0  0  0  0  0  0  0
  -26.9070  -12.6560   19.9090 N   0  0  0  0  0  0  0  0  0  0  0  0
  -26.3670  -11.4480   20.2120 N   0  0  0  0  0  0  0  0  0  0  0  0
  -24.2210  -10.5570   20.8500 C   0  0  0  0  0  0  0  0  0  0  0  0
  -24.5760   -9.5260   21.7470 C   0  0  0  0  0  3  0  0  0  0  0  0
  -23.6920   -8.4540   21.9930 C   0  0  0  0  0  3  0  0  0  0  0  0
  -22.4340   -8.4100   21.3440 C   0  0  0  0  0  0  0  0  0  0  0  0
  -22.0960   -9.4260   20.4330 C   0  0  0  0  0  3  0  0  0  0  0  0
  -22.9800  -10.4890   20.1850 C   0  0  0  0  0  3  0  0  0  0  0  0
  -21.5200   -7.3970   21.5010 O   0  0  0  0  0  0  0  0  0  0  0  0
  -21.4720   -6.6430   22.6460 C   0  0  0  0  0  0  0  0  0  0  0  0
  -21.2780   -7.2280   23.9180 C   0  0  0  0  0  3  0  0  0  0  0  0
  -21.1720   -6.4090   25.0610 C   0  0  0  0  0  3  0  0  0  0  0  0
  -21.2400   -5.0090   24.9340 C   0  0  0  0  0  0  0  0  0  0  0  0
  -21.4210   -4.4260   23.6670 C   0  0  0  0  0  3  0  0  0  0  0  0
  -21.5350   -5.2400   22.5270 C   0  0  0  0  0  0  0  0  0  0  0  0
  -21.6910   -4.6730   21.3080 F   0  0  0  0  0  0  0  0  0  0  0  0
  -21.1270   -4.2210   26.0290 F   0  0  0  0  0  0  0  0  0  0  0  0
  -23.5840  -13.7840   20.9620 C   0  0  0  0  0  0  0  0  0  0  0  0
  -22.8230  -13.2260   21.9000 N   0  0  0  0  0  0  0  0  0  0  0  0
  -23.2660  -14.8480   20.4340 O   0  0  0  0  0  0  0  0  0  0  0  0
  -23.0910  -12.3640   22.3500 H   0  0  0  0  0  0  0  0  0  0  0  0
  -21.9580  -13.6700   22.1750 H   0  0  0  0  0  0  0  0  0  0  0  0
  -26.3800  -15.0170   19.9450 N   0  0  0  0  0  0  0  0  0  0  0  0
  -25.6910  -15.7600   19.9820 H   0  0  0  0  0  0  0  0  0  0  0  0
  -27.2460  -15.2950   19.5040 H   0  0  0  0  0  0  0  0  0  0  0  0
  1  2  1  0
  1 52  1  0
  2  4  1  0
  3  1  2  0
  5  2  1  0
  6  5  1  0
  6  7  1  0
  8  7  1  0
  8  9  1  0
 10  9  1  0
 11 10  1  0
 12 23  2  0
 13 11  1  0
 13 18  1  0
 14 22  1  0
 14 24  1  0
 15 17  1  0
 16 22  1  0
 17 18  2  0
 17 16  1  0
 19 13  2  0
 20 19  1  0
 20 15  2  0
 21 15  1  0
 21 14  1  0
 22 12  1  0
 24 26  2  0
 25 24  1  0
 27 25  1  0
 28 37  2  0
 28 33  1  0
 29 25  1  0
 29 33  1  0
 30 29  1  0
 31 32  1  0
 31 30  1  0
 32 28  1  0
 33 34  2  0
 34 35  1  0
 36 35  2  0
 37 36  1  0
 38 12  1  0
 38 39  1  0
 38 48  1  0
 39 42  1  0
 40 44  1  0
 40 39  1  0
 41 40  2  0
 44 43  1  0
 46 44  1  0
 46 47  1  0
 46 45  1  0
 48 51  1  1
 48 49  1  0
 50 48  1  0
 53 52  1  0
 53 54  1  0
 55 54  1  0
 56 55  1  0
 57 56  1  0
 58 59  1  0
 58 57  1  0
 59 68  1  0
 60 66  1  0
 60 68  1  0
 61 66  1  0
 62 63  1  0
 62 61  1  0
 64 63  1  0
 64 73  1  0
 64 65  1  0
 66 65  1  0
 67 60  2  0
 68 69  1  0
 70 71  2  0
 71 90  1  0
 72 71  1  0
 72 75  1  0
 73 70  1  0
 73 74  1  0
 74 72  2  0
 75 76  1  0
 76 77  2  0
 78 81  1  0
 78 77  1  0
 79 78  2  0
 80 79  1  0
 80 75  2  0
 81 82  1  0
 82 83  1  0
 83 84  2  0
 85 84  1  0
 85 89  1  0
 86 85  2  0
 87 82  2  0
 87 86  1  0
 88 87  1  0
 90 91  1  0
 91 94  1  0
 91 93  1  0
 92 90  2  0
 95 96  1  0
 95 70  1  0
 97 95  1  0
M  ISO  4  10 101  11 101  60 100  68 100
M  END
>  <TORSDO>  (88) 
F 30

>  <SCORE>  (88) 
-9.643

>  <name>  (88) 
89

>  <ligand_id>  (88) 
89

>  <original_smiles>  (88) 
[H]c1c([H])c([H])c2c(c1[H])C([H])([H])C([H])([H])C([H])([H])C2([H])N([H])C(=O)C1([H])N(C(=O)C([H])(N([H])C(=O)C([H])(N([H])C([H])([H])[H])C([H])([H])[H])C(C([H])([H])[H])(C([H])([H])[H])C([H])([H])[H])C([H])([H])c2c([H])c(OC([H])([H])C([H])([H])OC([H])([H])C([H])([H])C([H])([H])N([H])C(=O)C([H])([H])OC([H])([H])C([H])([H])OC([H])([H])C([H])([H])C([H])([H])N([H])C(=O)N3C([H])([H])C([H])([H])C([H])([H])C([H])(n4nc(-c5c([H])c([H])c(Oc6c([H])c([H])c(F)c([H])c6F)c([H])c5[H])c(C(=O)N([H])[H])c4N([H])[H])C3([H])[H])c([H])c([H])c2C1([H])[H]

>  <smiles>  (88) 
[H]c1c([H])c([H])c2c(c1[H])C([H])([H])C([H])([H])C([H])([H])C2([H])N([H])C(=O)C1([H])N(C(=O)C([H])(N([H])C(=O)C([H])(N([H])C([H])([H])[H])C([H])([H])[H])C(C([H])([H])[H])(C([H])([H])[H])C([H])([H])[H])C([H])([H])c2c([H])c(OC([H])([H])C([H])([H])OC([H])([H])C([H])([H])C([H])([H])N([H])C(=O)C([H])([H])OC([H])([H])C([H])([H])OC([H])([H])C([H])([H])C([H])([H])N([H])C(=O)N3C([H])([H])C([H])([H])C([H])([H])C([H])(n4nc(-c5c([H])c([H])c(Oc6c([H])c([H])c(F)c([H])c6F)c([H])c5[H])c(C(=O)N([H])[H])c4N([H])[H])C3([H])[H])c([H])c([H])c2C1([H])[H]

$$$$
90:0:0
     RDKit          3D

100107  0  0  1  0  0  0  0  0999 V2000
  -28.0720  -21.9270   20.6160 C   0  0  0  0  0  0  0  0  0  0  0  0
  -28.6150  -20.7410   20.3160 N   0  0  0  0  0  0  0  0  0  0  0  0
  -27.7610  -22.2340   21.7710 O   0  0  0  0  0  0  0  0  0  0  0  0
  -28.8730  -20.5680   19.3530 H   0  0  0  0  0  0  0  0  0  0  0  0
  -27.8450  -22.9230   19.4580 C   0  0  0  0  0  3  0  0  0  0  0  0
  -27.8730  -24.3020   20.0080 N   0  0  0  0  0  4  0  0  0  0  0  0
  -27.0200  -24.4170   20.5370 H   0  0  0  0  0  0  0  0  0  0  0  0
  -28.6120  -24.2960   20.6940 H   0  0  0  0  0  0  0  0  0  0  0  0
  -28.0840  -25.4370   19.0730 C   0  0  0  0  0  2  0  0  0  0  0  0
  -28.3600  -26.7620   19.8100 C   0  0  0  0  0  2  0  0  0  0  0  0
  -28.0920  -27.8830   18.9650 O   0  0  0  0  0  0  0  0  0  0  0  0
  -24.4480  -32.2380   23.2150 C   0  0  0  0  0  0  0  0  0  0  0  0
  -26.8870  -28.4840   19.2270 C   0  0  0  0  0  0  0  0  0  0  0  0
  -23.0980  -30.9060   21.6240 C   0  0  0  0  0  3  0  0  0  0  0  0
  -24.4110  -29.6950   19.8060 C   0  0  0  0  0  0  0  0  0  0  0  0
  -25.5080  -31.5570   21.0660 C   0  0  0  0  0  2  0  0  0  0  0  0
  -25.6000  -30.2800   20.2610 C   0  0  0  0  0  0  0  0  0  0  0  0
  -26.8430  -29.6800   19.9710 C   0  0  0  0  0  3  0  0  0  0  0  0
  -25.6840  -27.9030   18.7710 C   0  0  0  0  0  3  0  0  0  0  0  0
  -24.4460  -28.5030   19.0630 C   0  0  0  0  0  3  0  0  0  0  0  0
  -23.1220  -30.4030   20.1570 C   0  0  0  0  0  2  0  0  0  0  0  0
  -24.3790  -31.5750   22.0260 N   0  0  0  0  0  0  0  0  0  0  0  0
  -23.4570  -32.3350   23.9510 O   0  0  0  0  0  0  0  0  0  0  0  0
  -22.7110  -29.7240   22.5420 C   0  0  0  0  0  0  0  0  0  0  0  0
  -21.4360  -29.3040   22.4710 N   0  0  0  0  0  0  0  0  0  0  0  0
  -23.5500  -29.1880   23.2690 O   0  0  0  0  0  0  0  0  0  0  0  0
  -20.8060  -29.8030   21.8590 H   0  0  0  0  0  0  0  0  0  0  0  0
  -18.4270  -27.3570   22.9100 C   0  0  0  0  0  0  0  0  0  0  0  0
  -20.8570  -28.1850   23.2120 C   0  0  0  0  0  3  0  0  0  0  0  0
  -21.2880  -26.8290   22.6050 C   0  0  0  0  0  2  0  0  0  0  0  0
  -20.2930  -26.2870   21.5740 C   0  0  0  0  0  2  0  0  0  0  0  0
  -18.9110  -26.1010   22.2060 C   0  0  0  0  0  2  0  0  0  0  0  0
  -19.3390  -28.3440   23.3680 C   0  0  0  0  0  0  0  0  0  0  0  0
  -18.8340  -29.5110   23.9780 C   0  0  0  0  0  3  0  0  0  0  0  0
  -17.4480  -29.6970   24.1410 C   0  0  0  0  0  3  0  0  0  0  0  0
  -16.5510  -28.7090   23.7010 C   0  0  0  0  0  3  0  0  0  0  0  0
  -17.0410  -27.5410   23.0890 C   0  0  0  0  0  3  0  0  0  0  0  0
  -25.7650  -32.9250   23.6950 C   0  0  0  0  0  3  0  0  0  0  0  0
  -25.4450  -34.3240   24.0100 N   0  0  0  0  0  0  0  0  0  0  0  0
  -25.6810  -35.3600   23.1930 C   0  0  0  0  0  0  0  0  0  0  0  0
  -26.2640  -35.2420   22.1120 O   0  0  0  0  0  0  0  0  0  0  0  0
  -24.9240  -34.4930   24.8580 H   0  0  0  0  0  0  0  0  0  0  0  0
  -23.8960  -37.1030   22.9060 C   0  0  0  0  0  1  0  0  0  0  0  0
  -25.1910  -36.7450   23.6520 C   0  0  0  0  0  3  0  0  0  0  0  0
  -27.3470  -37.6930   24.3420 C   0  0  0  0  0  1  0  0  0  0  0  0
  -26.1920  -37.8170   23.4580 N   0  0  0  0  0  0  0  0  0  0  0  0
  -25.7720  -38.7290   23.6100 H   0  0  0  0  0  0  0  0  0  0  0  0
  -26.4240  -32.2110   24.9360 C   0  0  1  0  0  0  0  0  0  0  0  0
  -25.4410  -31.9560   26.1020 C   0  0  0  0  0  1  0  0  0  0  0  0
  -27.0290  -30.8510   24.5180 C   0  0  0  0  0  1  0  0  0  0  0  0
  -27.5900  -33.0710   25.4790 C   0  0  0  0  0  1  0  0  0  0  0  0
  -26.6800  -22.8970   17.1350 C   0  0  0  0  0  1  0  0  0  0  0  0
  -25.2320  -23.0820   19.2410 C   0  0  0  0  0  1  0  0  0  0  0  0
  -26.5570  -22.5650   18.6380 C   0  0  0  0  0  3  0  0  0  0  0  0
  -28.9220  -19.6740   21.2680 C   0  0  0  0  0  2  0  0  0  0  0  0
  -30.4360  -19.5560   21.4910 C   0  0  0  0  0  2  0  0  0  0  0  0
  -30.9800  -18.8930   20.3610 O   0  0  0  0  0  0  0  0  0  0  0  0
  -32.3890  -19.0110   20.2460 C   0  0  0  0  0  2  0  0  0  0  0  0
  -32.8670  -17.8260   19.4040 C   0  0  0  0  0  2  0  0  0  0  0  0
  -32.5980  -16.6230   20.1080 O   0  0  0  0  0  0  0  0  0  0  0  0
  -33.1470  -15.4890   19.4580 C   0  0  0  0  0  2  0  0  0  0  0  0
  -33.5020  -14.4420   20.5160 C   0  0  0  0  0  2  0  0  0  0  0  0
  -32.7610  -12.0830   20.3290 C   0  0  0  0  0  0  0  0  0  0  0  0
  -32.4380   -9.8980   21.4100 C   0  0  0  0  0  2  0  0  0  0  0  0
  -31.7490   -8.8370   20.5420 C   0  0  0  0  0  2  0  0  0  0  0  0
  -30.2230   -8.9480   20.6730 C   0  0  0  0  0  2  0  0  0  0  0  0
  -29.7180  -10.3930   20.4310 C   0  0  0  0  0  3  0  0  0  0  0  0
  -30.5220  -11.4200   21.2610 C   0  0  0  0  0  2  0  0  0  0  0  0
  -31.9630  -11.2280   21.0090 N   0  0  0  0  0  0  0  0  0  0  0  0
  -33.7940  -11.7450   19.7410 O   0  0  0  0  0  0  0  0  0  0  0  0
  -32.5140  -13.3670   20.6010 N   0  0  0  0  0  0  0  0  0  0  0  0
  -31.6660  -13.5670   21.1110 H   0  0  0  0  0  0  0  0  0  0  0  0
  -27.4220  -11.5610   20.4470 C   0  0  0  0  0  0  0  0  0  0  0  0
  -26.1730  -11.1170   20.7900 C   0  0  0  0  0  0  0  0  0  0  0  0
  -26.3370   -9.7650   21.2210 C   0  0  0  0  0  0  0  0  0  0  0  0
  -28.2820  -10.4970   20.6830 N   0  0  0  0  0  0  0  0  0  0  0  0
  -27.6210   -9.4290   21.2010 N   0  0  0  0  0  0  0  0  0  0  0  0
  -25.3420   -8.7540   21.5970 C   0  0  0  0  0  0  0  0  0  0  0  0
  -25.1700   -8.3480   22.9390 C   0  0  0  0  0  3  0  0  0  0  0  0
  -24.1930   -7.3860   23.2780 C   0  0  0  0  0  3  0  0  0  0  0  0
  -23.3730   -6.8230   22.2710 C   0  0  0  0  0  0  0  0  0  0  0  0
  -23.5640   -7.2120   20.9330 C   0  0  0  0  0  3  0  0  0  0  0  0
  -24.5400   -8.1650   20.5980 C   0  0  0  0  0  3  0  0  0  0  0  0
  -22.4170   -5.8640   22.5040 O   0  0  0  0  0  0  0  0  0  0  0  0
  -21.5860   -5.9260   23.5920 C   0  0  0  0  0  0  0  0  0  0  0  0
  -20.6700   -6.9860   23.7730 C   0  0  0  0  0  3  0  0  0  0  0  0
  -19.7860   -6.9730   24.8700 C   0  0  0  0  0  3  0  0  0  0  0  0
  -19.8090   -5.9010   25.7810 C   0  0  0  0  0  0  0  0  0  0  0  0
  -20.7160   -4.8420   25.6010 C   0  0  0  0  0  3  0  0  0  0  0  0
  -21.6000   -4.8530   24.5080 C   0  0  0  0  0  0  0  0  0  0  0  0
  -22.4570   -3.8200   24.3260 F   0  0  0  0  0  0  0  0  0  0  0  0
  -18.9540   -5.8840   26.8310 F   0  0  0  0  0  0  0  0  0  0  0  0
  -24.8820  -11.8700   20.6380 C   0  0  0  0  0  0  0  0  0  0  0  0
  -23.9240  -11.6310   21.5270 N   0  0  0  0  0  0  0  0  0  0  0  0
  -24.7350  -12.7150   19.7560 O   0  0  0  0  0  0  0  0  0  0  0  0
  -24.0530  -10.9510   22.2620 H   0  0  0  0  0  0  0  0  0  0  0  0
  -23.0490  -12.1330   21.4710 H   0  0  0  0  0  0  0  0  0  0  0  0
  -27.8950  -12.7650   19.9370 N   0  0  0  0  0  0  0  0  0  0  0  0
  -27.2730  -13.5270   19.6870 H   0  0  0  0  0  0  0  0  0  0  0  0
  -28.8580  -12.9360   19.6770 H   0  0  0  0  0  0  0  0  0  0  0  0
  1  3  2  0
  2  1  1  0
  2 55  1  0
  4  2  1  0
  5 54  1  0
  5  6  1  0
  5  1  1  0
  6  7  1  0
  6  8  1  0
  9 10  1  0
  9  6  1  0
 11 13  1  0
 11 10  1  0
 12 23  2  0
 13 18  1  0
 14 22  1  0
 14 24  1  0
 15 21  1  0
 15 17  1  0
 16 22  1  0
 17 16  1  0
 18 17  2  0
 19 20  1  0
 19 13  2  0
 20 15  2  0
 21 14  1  0
 22 12  1  0
 24 26  2  0
 25 24  1  0
 27 25  1  0
 28 37  2  0
 28 33  1  0
 29 25  1  0
 29 33  1  0
 30 29  1  0
 31 32  1  0
 31 30  1  0
 32 28  1  0
 33 34  2  0
 34 35  1  0
 36 35  2  0
 37 36  1  0
 38 12  1  0
 38 39  1  0
 38 48  1  0
 39 42  1  0
 40 44  1  0
 40 39  1  0
 41 40  2  0
 44 43  1  0
 46 47  1  0
 46 44  1  0
 46 45  1  0
 48 51  1  1
 48 49  1  0
 50 48  1  0
 52 54  1  0
 54 53  1  0
 55 56  1  0
 57 56  1  0
 58 57  1  0
 59 60  1  0
 59 58  1  0
 61 60  1  0
 61 62  1  0
 62 71  1  0
 63 71  1  0
 63 69  1  0
 65 66  1  0
 65 64  1  0
 67 66  1  0
 67 76  1  0
 67 68  1  0
 69 68  1  0
 69 64  1  0
 70 63  2  0
 71 72  1  0
 73 76  1  0
 73 74  2  0
 74 75  1  0
 75 78  1  0
 76 77  1  0
 77 75  2  0
 78 79  1  0
 79 80  2  0
 81 84  1  0
 81 80  1  0
 82 81  2  0
 83 82  1  0
 83 78  2  0
 84 85  1  0
 85 86  2  0
 85 90  1  0
 86 87  1  0
 87 88  2  0
 88 92  1  0
 89 88  1  0
 90 89  2  0
 91 90  1  0
 93 74  1  0
 93 94  1  0
 94 96  1  0
 95 93  2  0
 97 94  1  0
 98 73  1  0
 99 98  1  0
100 98  1  0
M  ISO  4  10 101  11 101  63 100  71 100
M  END
>  <TORSDO>  (89) 
F 29

>  <SCORE>  (89) 
-2.901

>  <name>  (89) 
90

>  <ligand_id>  (89) 
90

>  <original_smiles>  (89) 
[H]c1c([H])c([H])c2c(c1[H])C([H])([H])C([H])([H])C([H])([H])C2([H])N([H])C(=O)C1([H])N(C(=O)C([H])(N([H])C(=O)C([H])(N([H])C([H])([H])[H])C([H])([H])[H])C(C([H])([H])[H])(C([H])([H])[H])C([H])([H])[H])C([H])([H])c2c([H])c(OC([H])([H])C([H])([H])[N+]([H])([H])C([H])(C(=O)N([H])C([H])([H])C([H])([H])OC([H])([H])C([H])([H])OC([H])([H])C([H])([H])N([H])C(=O)N3C([H])([H])C([H])([H])C([H])([H])C([H])(n4nc(-c5c([H])c([H])c(Oc6c([H])c([H])c(F)c([H])c6F)c([H])c5[H])c(C(=O)N([H])[H])c4N([H])[H])C3([H])[H])C([H])(C([H])([H])[H])C([H])([H])[H])c([H])c([H])c2C1([H])[H]

>  <smiles>  (89) 
[H]c1c([H])c([H])c2c(c1[H])C([H])([H])C([H])([H])C([H])([H])C2([H])N([H])C(=O)C1([H])N(C(=O)C([H])(N([H])C(=O)C([H])(N([H])C([H])([H])[H])C([H])([H])[H])C(C([H])([H])[H])(C([H])([H])[H])C([H])([H])[H])C([H])([H])c2c([H])c(OC([H])([H])C([H])([H])[N+]([H])([H])C([H])(C(=O)N([H])C([H])([H])C([H])([H])OC([H])([H])C([H])([H])OC([H])([H])C([H])([H])N([H])C(=O)N3C([H])([H])C([H])([H])C([H])([H])C([H])(n4nc(-c5c([H])c([H])c(Oc6c([H])c([H])c(F)c([H])c6F)c([H])c5[H])c(C(=O)N([H])[H])c4N([H])[H])C3([H])[H])C([H])(C([H])([H])[H])C([H])([H])[H])c([H])c([H])c2C1([H])[H]

$$$$
91:0:0
     RDKit          3D

101109  0  0  1  0  0  0  0  0999 V2000
  -21.0800  -31.7660   24.6100 C   0  0  0  0  0  1  0  0  0  0  0  0
  -21.6410  -30.7160   23.5670 C   0  0  0  0  0  3  0  0  0  0  0  0
  -22.3260  -29.2110   24.3070 C   0  0  0  0  0  0  0  0  0  0  0  0
  -23.2950  -28.0880   24.0390 N   0  0  2  0  0  4  0  0  0  0  0  0
  -21.7900  -29.0000   25.3900 O   0  0  0  0  0  0  0  0  0  0  0  0
  -23.1000  -27.4450   24.8040 H   0  0  0  0  0  0  0  0  0  0  0  0
  -24.6530  -27.3980   23.3420 C   0  0  0  0  0  3  0  0  0  0  0  0
  -25.0270  -26.4210   21.9320 C   0  0  0  0  0  3  0  0  0  0  0  0
  -26.4380  -25.8190   21.4210 O   0  0  0  0  0  0  0  0  0  0  0  0
  -26.8530  -24.9490   20.1160 C   0  0  0  0  0  3  0  0  0  0  0  0
  -28.4270  -24.4350   19.4300 C   0  0  0  0  0  3  0  0  0  0  0  0
  -28.8810  -23.5040   18.1610 O   0  0  0  0  0  0  0  0  0  0  0  0
  -30.3370  -23.1070   17.5260 C   0  0  0  0  0  3  0  0  0  0  0  0
  -30.8940  -22.1310   16.1020 C   0  0  0  0  0  3  0  0  0  0  0  0
  -33.3870  -21.1000   14.6310 C   0  0  0  0  0  0  0  0  0  0  0  0
  -34.3360  -20.6700   12.2430 C   0  0  0  0  0  2  0  0  0  0  0  0
  -34.2480  -21.8630   11.2520 C   0  0  0  0  0  2  0  0  0  0  0  0
  -32.8400  -21.9500   10.6450 C   0  0  0  0  0  2  0  0  0  0  0  0
  -31.7500  -21.7350   11.7220 C   0  0  0  0  0  3  0  0  0  0  0  0
  -31.9790  -20.5000   12.6010 C   0  0  0  0  0  2  0  0  0  0  0  0
  -33.2260  -20.7550   13.2730 N   0  0  0  0  0  0  0  0  0  0  0  0
  -34.5810  -20.9890   14.9720 O   0  0  0  0  0  0  0  0  0  0  0  0
  -32.4330  -21.7350   15.5920 N   0  0  0  0  0  0  0  0  0  0  0  0
  -33.0210  -21.9640   16.3830 H   0  0  0  0  0  0  0  0  0  0  0  0
  -29.2880  -22.3130   11.6810 C   0  0  0  0  0  0  0  0  0  0  0  0
  -28.2860  -22.0100   10.7890 C   0  0  0  0  0  0  0  0  0  0  0  0
  -28.8850  -21.2000    9.7840 C   0  0  0  0  0  0  0  0  0  0  0  0
  -30.4150  -21.6990   11.1720 N   0  0  0  0  0  0  0  0  0  0  0  0
  -30.1600  -20.9650   10.0670 N   0  0  0  0  0  0  0  0  0  0  0  0
  -28.3330  -20.6840    8.5260 C   0  0  0  0  0  0  0  0  0  0  0  0
  -28.4290  -19.3200    8.1780 C   0  0  0  0  0  3  0  0  0  0  0  0
  -27.8680  -18.8490    6.9710 C   0  0  0  0  0  3  0  0  0  0  0  0
  -27.2020  -19.7460    6.1040 C   0  0  0  0  0  0  0  0  0  0  0  0
  -27.1290  -21.1080    6.4460 C   0  0  0  0  0  3  0  0  0  0  0  0
  -27.6940  -21.5750    7.6440 C   0  0  0  0  0  3  0  0  0  0  0  0
  -26.6460  -19.3850    4.9010 O   0  0  0  0  0  0  0  0  0  0  0  0
  -26.2220  -18.1040    4.6610 C   0  0  0  0  0  0  0  0  0  0  0  0
  -25.2790  -17.4620    5.4920 C   0  0  0  0  0  3  0  0  0  0  0  0
  -24.8180  -16.1690    5.1690 C   0  0  0  0  0  3  0  0  0  0  0  0
  -25.2920  -15.5210    4.0110 C   0  0  0  0  0  0  0  0  0  0  0  0
  -26.2260  -16.1610    3.1770 C   0  0  0  0  0  3  0  0  0  0  0  0
  -26.6890  -17.4520    3.5020 C   0  0  0  0  0  0  0  0  0  0  0  0
  -27.5730  -18.0700    2.6850 F   0  0  0  0  0  0  0  0  0  0  0  0
  -24.8450  -14.2840    3.6960 F   0  0  0  0  0  0  0  0  0  0  0  0
  -26.8910  -22.5470   10.8350 C   0  0  0  0  0  0  0  0  0  0  0  0
  -25.9300  -21.7720   10.3280 N   0  0  0  0  0  0  0  0  0  0  0  0
  -26.6310  -23.6210   11.3620 O   0  0  0  0  0  0  0  0  0  0  0  0
  -26.1470  -20.8790    9.9160 H   0  0  0  0  0  0  0  0  0  0  0  0
  -24.9710  -22.0840   10.3550 H   0  0  0  0  0  0  0  0  0  0  0  0
  -29.3310  -23.0670   12.8410 N   0  0  0  0  0  0  0  0  0  0  0  0
  -28.5260  -23.5910   13.1730 H   0  0  0  0  0  0  0  0  0  0  0  0
  -30.1780  -23.2690   13.3600 H   0  0  0  0  0  0  0  0  0  0  0  0
  -20.6970  -31.1880   22.2010 N   0  0  0  0  0  4  0  0  0  0  0  0
  -19.7720  -31.1860   22.6210 H   0  0  0  0  0  0  0  0  0  0  0  0
  -20.8850  -32.1900   22.1900 H   0  0  0  0  0  0  0  0  0  0  0  0
  -20.3160  -30.7290   20.5800 C   0  0  0  0  0  2  0  0  0  0  0  0
  -20.8630  -29.5170   19.3420 C   0  0  0  0  0  2  0  0  0  0  0  0
  -22.1780  -28.6740   19.2300 O   0  0  0  0  0  0  0  0  0  0  0  0
  -22.7220  -27.2230   19.0910 C   0  0  0  0  0  2  0  0  0  0  0  0
  -24.2540  -26.6070   19.6390 C   0  0  0  0  0  2  0  0  0  0  0  0
  -25.7620  -26.6010   19.1300 O   0  0  0  0  0  0  0  0  0  0  0  0
  -24.6710  -31.2020   23.5390 C   0  0  0  0  0  0  0  0  0  0  0  0
  -26.2060  -27.8280   18.8590 C   0  0  0  0  0  3  0  0  0  0  0  0
  -23.2590  -30.4300   21.5950 C   0  0  0  0  0  3  0  0  0  0  0  0
  -24.5370  -29.8590   19.5090 C   0  0  0  0  0  0  0  0  0  0  0  0
  -25.8040  -30.5110   21.5030 C   0  0  0  0  0  2  0  0  0  0  0  0
  -25.6520  -29.6390   20.2980 C   0  0  0  0  0  0  0  0  0  0  0  0
  -26.5610  -28.6270   19.9630 C   0  0  0  0  0  2  0  0  0  0  0  0
  -25.3400  -28.2760   17.8740 C   0  0  0  0  0  3  0  0  0  0  0  0
  -24.4440  -29.2780   18.2350 C   0  0  0  0  0  3  0  0  0  0  0  0
  -23.5220  -30.7840   20.1020 C   0  0  0  0  0  2  0  0  0  0  0  0
  -24.5690  -30.6860   22.2860 N   0  0  0  0  0  0  0  0  0  0  0  0
  -23.7070  -31.6530   24.1520 O   0  0  0  0  0  0  0  0  0  0  0  0
  -22.6930  -28.9360   21.9640 C   0  0  0  0  0  3  0  0  0  0  0  0
  -21.3290  -28.5150   21.8350 N   0  0  0  0  0  0  0  0  0  0  0  0
  -23.4880  -28.2790   22.5570 O   0  0  0  0  0  0  0  0  0  0  0  0
  -20.9900  -29.2180   21.2060 H   0  0  0  0  0  0  0  0  0  0  0  0
  -17.3760  -28.5920   22.1050 C   0  0  0  0  0  0  0  0  0  0  0  0
  -19.9510  -27.9180   22.3310 C   0  0  0  0  0  3  0  0  0  0  0  0
  -19.5830  -26.8740   21.2830 C   0  0  0  0  0  2  0  0  0  0  0  0
  -18.4880  -27.2730   20.3060 C   0  0  0  0  0  2  0  0  0  0  0  0
  -17.2250  -27.5100   21.0830 C   0  0  0  0  0  2  0  0  0  0  0  0
  -18.6160  -28.7970   22.7640 C   0  0  0  0  0  0  0  0  0  0  0  0
  -18.4250  -29.6830   23.8890 C   0  0  0  0  0  3  0  0  0  0  0  0
  -17.3330  -30.5540   24.0990 C   0  0  0  0  0  3  0  0  0  0  0  0
  -16.1730  -30.3220   23.3750 C   0  0  0  0  0  3  0  0  0  0  0  0
  -16.1920  -29.2890   22.4370 C   0  0  0  0  0  3  0  0  0  0  0  0
  -26.0270  -31.3130   24.2720 C   0  0  0  0  0  3  0  0  0  0  0  0
  -26.3470  -30.0540   25.1610 C   0  0  1  0  0  0  0  0  0  0  0  0
  -25.2010  -29.6570   26.1250 C   0  0  0  0  0  1  0  0  0  0  0  0
  -26.7030  -28.8210   24.2980 C   0  0  0  0  0  1  0  0  0  0  0  0
  -27.6090  -30.3460   26.0010 C   0  0  0  0  0  1  0  0  0  0  0  0
  -25.9600  -32.5160   25.1090 N   0  0  0  0  0  0  0  0  0  0  0  0
  -26.3470  -33.7300   24.7090 C   0  0  0  0  0  0  0  0  0  0  0  0
  -26.9100  -33.9160   23.6240 O   0  0  0  0  0  0  0  0  0  0  0  0
  -25.5280  -32.4180   26.0170 H   0  0  0  0  0  0  0  0  0  0  0  0
  -24.8940  -35.7300   25.1260 C   0  0  0  0  0  1  0  0  0  0  0  0
  -26.0750  -34.9030   25.6620 C   0  0  0  0  0  3  0  0  0  0  0  0
  -28.3340  -35.1360   26.5760 C   0  0  0  0  0  1  0  0  0  0  0  0
  -27.2460  -35.7820   25.8540 N   0  0  0  0  0  0  0  0  0  0  0  0
  -26.9900  -36.6230   26.3630 H   0  0  0  0  0  0  0  0  0  0  0  0
  2  3  1  0
  2  1  1  0
  3  5  2  0
  4  3  1  0
  4  6  1  6
  7  4  1  0
  8  7  2  0
  9  8  1  0
 10  9  1  0
 11 10  2  0
 12 11  1  0
 13 12  1  0
 14 13  2  0
 15 22  2  0
 15 23  1  0
 16 21  1  0
 17 16  1  0
 18 17  1  0
 19 18  1  0
 19 20  1  0
 20 21  1  0
 21 15  1  0
 23 14  1  0
 23 24  1  0
 25 50  1  0
 26 45  1  0
 26 25  2  0
 27 29  2  0
 27 26  1  0
 28 25  1  0
 28 19  1  0
 29 28  1  0
 30 27  1  0
 31 30  1  0
 32 31  2  0
 33 34  2  0
 33 32  1  0
 34 35  1  0
 35 30  2  0
 36 33  1  0
 37 36  1  0
 37 38  1  0
 39 38  2  0
 40 39  1  0
 41 42  1  0
 41 40  2  0
 42 37  2  0
 43 42  1  0
 44 40  1  0
 45 47  2  0
 46 49  1  0
 46 45  1  0
 48 46  1  0
 50 51  1  0
 50 52  1  0
 53 54  1  0
 53  2  1  0
 55 53  1  0
 56 53  1  0
 57 56  1  0
 58 57  1  0
 59 58  1  0
 59 60  1  0
 61 60  1  0
 62 73  2  0
 63 69  1  0
 63 61  1  0
 63 68  1  0
 64 71  1  0
 64 74  1  0
 64 72  1  0
 65 71  1  0
 65 67  2  0
 66 72  1  0
 67 66  1  0
 68 67  1  0
 69 70  2  0
 70 65  1  0
 72 62  1  0
 74 75  1  0
 74 76  1  0
 76  4  1  0
 77 75  1  0
 78 87  2  0
 78 83  1  0
 79 75  1  0
 79 83  1  0
 80 79  1  0
 81 82  1  0
 81 80  1  0
 82 78  1  0
 83 84  2  0
 84 85  1  0
 86 85  2  0
 87 86  1  0
 88 62  1  0
 88 93  1  0
 88 89  1  0
 89 92  1  1
 89 90  1  0
 91 89  1  0
 93 96  1  0
 94 93  1  0
 94 98  1  0
 95 94  2  0
 98 97  1  0
 98100  1  0
100101  1  0
100 99  1  0
M  ISO  4  15 100  23 100  60 101  61 101
M  END
>  <TORSDO>  (90) 
F 31

>  <SCORE>  (90) 
15.989

>  <name>  (90) 
91

>  <ligand_id>  (90) 
91

>  <original_smiles>  (90) 
[H]c1c([H])c([H])c2c(c1[H])C([H])([H])C([H])([H])C([H])([H])C2([H])N([H])C(=O)C1([H])N(C(=O)C([H])(N([H])C(=O)C([H])(N([H])C([H])([H])[H])C([H])([H])[H])C(C([H])([H])[H])(C([H])([H])[H])C([H])([H])[H])C([H])([H])c2c([H])c(OC([H])([H])C([H])([H])OC([H])([H])C([H])([H])[N+]([H])([H])C([H])(C(=O)N([H])C([H])([H])C([H])([H])OC([H])([H])C([H])([H])OC([H])([H])C([H])([H])N([H])C(=O)N3C([H])([H])C([H])([H])C([H])([H])C([H])(n4nc(-c5c([H])c([H])c(Oc6c([H])c([H])c(F)c([H])c6F)c([H])c5[H])c(C(=O)N([H])[H])c4N([H])[H])C3([H])[H])C([H])([H])[H])c([H])c([H])c2C1([H])[H]

>  <smiles>  (90) 
[H]c1c([H])c([H])c2c(c1[H])C([H])([H])C([H])([H])C([H])([H])C2([H])N([H])C(=O)C1([H])N(C(=O)C([H])(N([H])C(=O)C([H])(N([H])C([H])([H])[H])C([H])([H])[H])C(C([H])([H])[H])(C([H])([H])[H])C([H])([H])[H])C([H])([H])c2c([H])c(OC([H])([H])C([H])([H])OC([H])([H])C([H])([H])[N+]([H])([H])C([H])(C(=O)N([H])C([H])([H])C([H])([H])OC([H])([H])C([H])([H])OC([H])([H])C([H])([H])N([H])C(=O)N3C([H])([H])C([H])([H])C([H])([H])C([H])(n4nc(-c5c([H])c([H])c(Oc6c([H])c([H])c(F)c([H])c6F)c([H])c5[H])c(C(=O)N([H])[H])c4N([H])[H])C3([H])[H])C([H])([H])[H])c([H])c([H])c2C1([H])[H]

$$$$
92:0:0
     RDKit          3D

 99106  0  0  1  0  0  0  0  0999 V2000
  -28.4740  -20.7780   17.8700 O   0  0  0  0  0  0  0  0  0  0  0  0
  -27.9080  -21.8110   17.0700 C   0  0  0  0  0  2  0  0  0  0  0  0
  -28.1660  -23.1830   17.7050 C   0  0  0  0  0  2  0  0  0  0  0  0
  -29.4450  -23.6770   17.3260 O   0  0  0  0  0  0  0  0  0  0  0  0
  -29.7110  -24.9780   17.8440 C   0  0  0  0  0  2  0  0  0  0  0  0
  -30.7330  -24.8980   18.9880 C   0  0  0  0  0  2  0  0  0  0  0  0
  -30.2310  -24.1420   20.0860 O   0  0  0  0  0  0  0  0  0  0  0  0
  -29.7820  -24.9050   21.2020 C   0  0  0  0  0  2  0  0  0  0  0  0
  -28.3900  -25.5180   20.9900 C   0  0  0  0  0  2  0  0  0  0  0  0
  -28.4920  -26.7660   20.3100 O   0  0  0  0  0  0  0  0  0  0  0  0
  -24.5960  -31.9000   23.2590 C   0  0  0  0  0  0  0  0  0  0  0  0
  -27.3150  -27.4670   20.2730 C   0  0  0  0  0  0  0  0  0  0  0  0
  -23.4180  -30.4660   21.6210 C   0  0  0  0  0  3  0  0  0  0  0  0
  -24.9010  -28.9220   20.2360 C   0  0  0  0  0  0  0  0  0  0  0  0
  -25.9390  -30.8540   21.4420 C   0  0  0  0  0  2  0  0  0  0  0  0
  -26.0440  -29.4770   20.8250 C   0  0  0  0  0  0  0  0  0  0  0  0
  -27.2560  -28.7570   20.8380 C   0  0  0  0  0  3  0  0  0  0  0  0
  -26.1590  -26.9160   19.6800 C   0  0  0  0  0  3  0  0  0  0  0  0
  -24.9500  -27.6400   19.6600 C   0  0  0  0  0  3  0  0  0  0  0  0
  -23.6480  -29.7660   20.2540 C   0  0  0  0  0  2  0  0  0  0  0  0
  -24.6690  -31.0890   22.1670 N   0  0  0  0  0  0  0  0  0  0  0  0
  -23.5070  -32.1700   23.7850 O   0  0  0  0  0  0  0  0  0  0  0  0
  -22.7650  -29.4530   22.5890 C   0  0  0  0  0  0  0  0  0  0  0  0
  -21.4430  -29.2630   22.4510 N   0  0  0  0  0  0  0  0  0  0  0  0
  -23.4450  -28.8410   23.4160 O   0  0  0  0  0  0  0  0  0  0  0  0
  -20.9570  -29.8110   21.7540 H   0  0  0  0  0  0  0  0  0  0  0  0
  -18.0670  -28.0770   22.9360 C   0  0  0  0  0  0  0  0  0  0  0  0
  -20.6230  -28.3330   23.2240 C   0  0  0  0  0  3  0  0  0  0  0  0
  -20.7270  -26.8970   22.6570 C   0  0  0  0  0  2  0  0  0  0  0  0
  -19.6310  -26.5700   21.6380 C   0  0  0  0  0  2  0  0  0  0  0  0
  -18.2460  -26.7210   22.2730 C   0  0  0  0  0  2  0  0  0  0  0  0
  -19.1840  -28.8390   23.3680 C   0  0  0  0  0  0  0  0  0  0  0  0
  -18.9630  -30.1080   23.9470 C   0  0  0  0  0  3  0  0  0  0  0  0
  -17.6580  -30.6130   24.1000 C   0  0  0  0  0  3  0  0  0  0  0  0
  -16.5550  -29.8470   23.6840 C   0  0  0  0  0  3  0  0  0  0  0  0
  -16.7610  -28.5810   23.1080 C   0  0  0  0  0  3  0  0  0  0  0  0
  -25.8720  -32.5450   23.8860 C   0  0  0  0  0  3  0  0  0  0  0  0
  -25.5490  -33.9430   24.2020 N   0  0  0  0  0  0  0  0  0  0  0  0
  -25.8910  -34.9920   23.4400 C   0  0  0  0  0  0  0  0  0  0  0  0
  -26.5800  -34.8850   22.4230 O   0  0  0  0  0  0  0  0  0  0  0  0
  -24.9390  -34.0990   24.9900 H   0  0  0  0  0  0  0  0  0  0  0  0
  -24.1640  -36.7730   23.0330 C   0  0  0  0  0  1  0  0  0  0  0  0
  -25.3840  -36.3800   23.8780 C   0  0  0  0  0  3  0  0  0  0  0  0
  -27.4950  -37.2760   24.7570 C   0  0  0  0  0  1  0  0  0  0  0  0
  -26.4160  -37.4370   23.7870 N   0  0  0  0  0  0  0  0  0  0  0  0
  -26.0010  -38.3550   23.9210 H   0  0  0  0  0  0  0  0  0  0  0  0
  -26.3880  -31.7870   25.1700 C   0  0  1  0  0  0  0  0  0  0  0  0
  -25.2900  -31.5420   26.2300 C   0  0  0  0  0  1  0  0  0  0  0  0
  -26.9900  -30.4140   24.7860 C   0  0  0  0  0  1  0  0  0  0  0  0
  -27.5260  -32.5960   25.8360 C   0  0  0  0  0  1  0  0  0  0  0  0
  -28.2570  -19.4790   17.3290 C   0  0  0  0  0  2  0  0  0  0  0  0
  -27.9310  -18.5040   18.4680 C   0  0  0  0  0  2  0  0  0  0  0  0
  -29.7700  -16.9820   19.1590 C   0  0  0  0  0  0  0  0  0  0  0  0
  -29.1110  -18.1410   19.2530 N   0  0  0  0  0  0  0  0  0  0  0  0
  -29.4880  -16.1850   18.2620 O   0  0  0  0  0  0  0  0  0  0  0  0
  -29.4020  -18.7870   19.9760 H   0  0  0  0  0  0  0  0  0  0  0  0
  -30.8960  -16.6330   20.1840 C   0  0  0  0  0  3  0  0  0  0  0  0
  -31.3400  -14.1780   19.9900 C   0  0  0  0  0  0  0  0  0  0  0  0
  -30.8860  -11.9790   18.9920 C   0  0  0  0  0  2  0  0  0  0  0  0
  -29.9280  -12.1800   17.7990 C   0  0  0  0  0  2  0  0  0  0  0  0
  -28.4570  -12.1770   18.2630 C   0  0  0  0  0  2  0  0  0  0  0  0
  -28.2110  -13.1120   19.4770 C   0  0  0  0  0  3  0  0  0  0  0  0
  -29.2710  -12.8660   20.5750 C   0  0  0  0  0  2  0  0  0  0  0  0
  -30.6070  -13.0360   19.9720 N   0  0  0  0  0  0  0  0  0  0  0  0
  -32.4330  -14.3040   19.4300 O   0  0  0  0  0  0  0  0  0  0  0  0
  -30.7030  -15.2210   20.5330 N   0  0  0  0  0  0  0  0  0  0  0  0
  -29.8200  -15.0040   20.9630 H   0  0  0  0  0  0  0  0  0  0  0  0
  -25.9150  -13.9570   20.2820 C   0  0  0  0  0  0  0  0  0  0  0  0
  -24.7830  -13.2930   20.6720 C   0  0  0  0  0  0  0  0  0  0  0  0
  -25.0950  -11.9020   20.5890 C   0  0  0  0  0  0  0  0  0  0  0  0
  -26.8520  -12.9750   19.9930 N   0  0  0  0  0  0  0  0  0  0  0  0
  -26.3610  -11.7340   20.2320 N   0  0  0  0  0  0  0  0  0  0  0  0
  -24.2470  -10.7170   20.7760 C   0  0  0  0  0  0  0  0  0  0  0  0
  -24.5970   -9.6960   21.6860 C   0  0  0  0  0  3  0  0  0  0  0  0
  -23.7570   -8.5740   21.8610 C   0  0  0  0  0  3  0  0  0  0  0  0
  -22.5520   -8.4680   21.1250 C   0  0  0  0  0  0  0  0  0  0  0  0
  -22.2210   -9.4770   20.2030 C   0  0  0  0  0  3  0  0  0  0  0  0
  -23.0610  -10.5900   20.0270 C   0  0  0  0  0  3  0  0  0  0  0  0
  -21.6880   -7.4040   21.2090 O   0  0  0  0  0  0  0  0  0  0  0  0
  -21.5720   -6.6610   22.3560 C   0  0  0  0  0  0  0  0  0  0  0  0
  -21.2180   -7.2470   23.5910 C   0  0  0  0  0  3  0  0  0  0  0  0
  -21.0420   -6.4360   24.7310 C   0  0  0  0  0  3  0  0  0  0  0  0
  -21.2110   -5.0410   24.6360 C   0  0  0  0  0  0  0  0  0  0  0  0
  -21.5580   -4.4560   23.4060 C   0  0  0  0  0  3  0  0  0  0  0  0
  -21.7360   -5.2640   22.2690 C   0  0  0  0  0  0  0  0  0  0  0  0
  -22.0500   -4.6920   21.0810 F   0  0  0  0  0  0  0  0  0  0  0  0
  -21.0340   -4.2620   25.7280 F   0  0  0  0  0  0  0  0  0  0  0  0
  -23.4540  -13.9070   21.0090 C   0  0  0  0  0  0  0  0  0  0  0  0
  -22.7020  -13.2850   21.9100 N   0  0  0  0  0  0  0  0  0  0  0  0
  -23.0950  -14.9720   20.5070 O   0  0  0  0  0  0  0  0  0  0  0  0
  -23.0030  -12.4230   22.3380 H   0  0  0  0  0  0  0  0  0  0  0  0
  -21.8110  -13.6800   22.1770 H   0  0  0  0  0  0  0  0  0  0  0  0
  -26.2210  -15.3070   20.1310 N   0  0  0  0  0  0  0  0  0  0  0  0
  -25.5320  -16.0360   20.2810 H   0  0  0  0  0  0  0  0  0  0  0  0
  -27.0940  -15.6550   19.7550 H   0  0  0  0  0  0  0  0  0  0  0  0
  -31.4050  -18.9080   21.3380 C   0  0  0  0  0  1  0  0  0  0  0  0
  -31.9360  -16.7990   22.4980 C   0  0  0  0  0  1  0  0  0  0  0  0
  -29.5400  -17.4740   22.2450 C   0  0  0  0  0  1  0  0  0  0  0  0
  -30.9140  -17.4520   21.5340 C   0  0  2  0  0  0  0  0  0  0  0  0
  2  3  1  0
  2  1  1  0
  4  3  1  0
  4  5  1  0
  5  6  1  0
  6  7  1  0
  7  8  1  0
  9  8  1  0
 10  9  1  0
 11 22  2  0
 12 10  1  0
 12 17  1  0
 13 21  1  0
 13 23  1  0
 14 20  1  0
 14 16  1  0
 15 21  1  0
 16 17  2  0
 16 15  1  0
 18 12  2  0
 19 18  1  0
 19 14  2  0
 20 13  1  0
 21 11  1  0
 23 25  2  0
 24 23  1  0
 26 24  1  0
 27 36  2  0
 27 32  1  0
 28 24  1  0
 28 32  1  0
 29 28  1  0
 30 31  1  0
 30 29  1  0
 31 27  1  0
 32 33  2  0
 33 34  1  0
 35 34  2  0
 36 35  1  0
 37 11  1  0
 37 38  1  0
 37 47  1  0
 38 41  1  0
 39 43  1  0
 39 38  1  0
 40 39  2  0
 43 42  1  0
 45 43  1  0
 45 46  1  0
 45 44  1  0
 47 50  1  1
 47 48  1  0
 49 47  1  0
 51  1  1  0
 51 52  1  0
 52 54  1  0
 53 54  1  0
 54 56  1  0
 55 53  2  0
 57 53  1  0
 57 66  1  0
 57 99  1  0
 58 66  1  0
 59 64  1  0
 60 61  1  0
 60 59  1  0
 62 61  1  0
 62 71  1  0
 62 63  1  0
 64 58  1  0
 64 63  1  0
 65 58  2  0
 66 67  1  0
 68 69  2  0
 69 88  1  0
 70 69  1  0
 70 73  1  0
 71 72  1  0
 71 68  1  0
 72 70  2  0
 73 74  1  0
 74 75  2  0
 76 79  1  0
 76 75  1  0
 77 76  2  0
 78 77  1  0
 78 73  2  0
 79 80  1  0
 80 81  1  0
 81 82  2  0
 83 82  1  0
 83 87  1  0
 84 83  2  0
 85 80  2  0
 85 84  1  0
 86 85  1  0
 88 89  1  0
 89 92  1  0
 89 91  1  0
 90 88  2  0
 93 94  1  0
 93 68  1  0
 95 93  1  0
 99 96  1  6
 99 98  1  0
 99 97  1  0
M  ISO  4   9 101  10 101  58 100  66 100
M  END
>  <TORSDO>  (91) 
F 29

>  <SCORE>  (91) 
-8.447

>  <name>  (91) 
92

>  <ligand_id>  (91) 
92

>  <original_smiles>  (91) 
[H]c1c([H])c([H])c2c(c1[H])C([H])([H])C([H])([H])C([H])([H])C2([H])N([H])C(=O)C1([H])N(C(=O)C([H])(N([H])C(=O)C([H])(N([H])C([H])([H])[H])C([H])([H])[H])C(C([H])([H])[H])(C([H])([H])[H])C([H])([H])[H])C([H])([H])c2c([H])c(OC([H])([H])C([H])([H])OC([H])([H])C([H])([H])OC([H])([H])C([H])([H])OC([H])([H])C([H])([H])N([H])C(=O)C([H])(N([H])C(=O)N3C([H])([H])C([H])([H])C([H])([H])C([H])(n4nc(-c5c([H])c([H])c(Oc6c([H])c([H])c(F)c([H])c6F)c([H])c5[H])c(C(=O)N([H])[H])c4N([H])[H])C3([H])[H])C(C([H])([H])[H])(C([H])([H])[H])C([H])([H])[H])c([H])c([H])c2C1([H])[H]

>  <smiles>  (91) 
[H]c1c([H])c([H])c2c(c1[H])C([H])([H])C([H])([H])C([H])([H])C2([H])N([H])C(=O)C1([H])N(C(=O)C([H])(N([H])C(=O)C([H])(N([H])C([H])([H])[H])C([H])([H])[H])C(C([H])([H])[H])(C([H])([H])[H])C([H])([H])[H])C([H])([H])c2c([H])c(OC([H])([H])C([H])([H])OC([H])([H])C([H])([H])OC([H])([H])C([H])([H])OC([H])([H])C([H])([H])N([H])C(=O)C([H])(N([H])C(=O)N3C([H])([H])C([H])([H])C([H])([H])C([H])(n4nc(-c5c([H])c([H])c(Oc6c([H])c([H])c(F)c([H])c6F)c([H])c5[H])c(C(=O)N([H])[H])c4N([H])[H])C3([H])[H])C(C([H])([H])[H])(C([H])([H])[H])C([H])([H])[H])c([H])c([H])c2C1([H])[H]

$$$$
