0:0:0
     RDKit          3D

 93101  0  0  1  0  0  0  0  0999 V2000
  -28.9260  -21.2780   21.4020 C   0  0  0  0  0  3  0  0  0  0  0  0
  -27.7850  -22.1190   20.8720 C   0  0  0  0  0  3  0  0  0  0  0  0
  -28.2180  -22.2110   22.2350 O   0  0  0  0  0  0  0  0  0  0  0  0
  -28.7740  -19.8290   21.8160 C   0  0  0  0  0  2  0  0  0  0  0  0
  -29.5360  -17.7290   20.7250 C   0  0  0  0  0  0  0  0  0  0  0  0
  -29.7730  -18.9420   21.2270 N   0  0  0  0  0  0  0  0  0  0  0  0
  -28.4260  -17.1890   20.7830 O   0  0  0  0  0  0  0  0  0  0  0  0
  -30.7140  -19.3040   21.1510 H   0  0  0  0  0  0  0  0  0  0  0  0
  -30.6580  -17.3780   18.5110 C   0  0  0  0  0  1  0  0  0  0  0  0
  -30.6990  -17.0220   20.0130 C   0  0  0  0  0  3  0  0  0  0  0  0
  -31.2300  -14.5620   19.7650 C   0  0  0  0  0  0  0  0  0  0  0  0
  -30.9230  -12.2640   18.9400 C   0  0  0  0  0  2  0  0  0  0  0  0
  -29.9020  -12.2900   17.7820 C   0  0  0  0  0  2  0  0  0  0  0  0
  -28.4550  -12.2120   18.3140 C   0  0  0  0  0  2  0  0  0  0  0  0
  -28.1850  -13.2130   19.4700 C   0  0  0  0  0  3  0  0  0  0  0  0
  -29.3060  -13.1320   20.5290 C   0  0  0  0  0  2  0  0  0  0  0  0
  -30.5930  -13.3680   19.8490 N   0  0  0  0  0  0  0  0  0  0  0  0
  -32.3080  -14.7260   19.1850 O   0  0  0  0  0  0  0  0  0  0  0  0
  -30.5090  -15.5900   20.2200 N   0  0  0  0  0  0  0  0  0  0  0  0
  -29.6340  -15.3710   20.6770 H   0  0  0  0  0  0  0  0  0  0  0  0
  -25.9150  -13.9350   20.4440 C   0  0  0  0  0  0  0  0  0  0  0  0
  -24.8320  -13.2130   20.8700 C   0  0  0  0  0  0  0  0  0  0  0  0
  -25.1910  -11.8380   20.7220 C   0  0  0  0  0  0  0  0  0  0  0  0
  -26.8680  -13.0030   20.0660 N   0  0  0  0  0  0  0  0  0  0  0  0
  -26.4400  -11.7330   20.2860 N   0  0  0  0  0  0  0  0  0  0  0  0
  -24.4020  -10.6160   20.9200 C   0  0  0  0  0  0  0  0  0  0  0  0
  -24.7980   -9.6190   21.8390 C   0  0  0  0  0  3  0  0  0  0  0  0
  -24.0110   -8.4610   22.0250 C   0  0  0  0  0  3  0  0  0  0  0  0
  -22.8130   -8.2940   21.2900 C   0  0  0  0  0  0  0  0  0  0  0  0
  -22.4340   -9.2770   20.3610 C   0  0  0  0  0  3  0  0  0  0  0  0
  -23.2210  -10.4260   20.1730 C   0  0  0  0  0  3  0  0  0  0  0  0
  -21.9990   -7.1900   21.3820 O   0  0  0  0  0  0  0  0  0  0  0  0
  -21.8420   -6.5100   22.5620 C   0  0  0  0  0  0  0  0  0  0  0  0
  -21.3810   -7.1450   23.7360 C   0  0  0  0  0  3  0  0  0  0  0  0
  -21.1710   -6.3920   24.9080 C   0  0  0  0  0  3  0  0  0  0  0  0
  -21.4120   -5.0040   24.9070 C   0  0  0  0  0  0  0  0  0  0  0  0
  -21.8670   -4.3700   23.7390 C   0  0  0  0  0  3  0  0  0  0  0  0
  -22.0800   -5.1190   22.5690 C   0  0  0  0  0  0  0  0  0  0  0  0
  -22.4990   -4.4990   21.4390 F   0  0  0  0  0  0  0  0  0  0  0  0
  -21.2020   -4.2780   26.0310 F   0  0  0  0  0  0  0  0  0  0  0  0
  -23.5050  -13.7620   21.3110 C   0  0  0  0  0  0  0  0  0  0  0  0
  -22.8410  -13.0850   22.2410 N   0  0  0  0  0  0  0  0  0  0  0  0
  -23.0740  -14.8240   20.8670 O   0  0  0  0  0  0  0  0  0  0  0  0
  -23.2040  -12.2230   22.6200 H   0  0  0  0  0  0  0  0  0  0  0  0
  -21.9560  -13.4360   22.5800 H   0  0  0  0  0  0  0  0  0  0  0  0
  -26.1650  -15.3000   20.3380 N   0  0  0  0  0  0  0  0  0  0  0  0
  -25.4970  -15.9940   20.6560 H   0  0  0  0  0  0  0  0  0  0  0  0
  -27.0950  -15.6830   20.2020 H   0  0  0  0  0  0  0  0  0  0  0  0
  -27.9900  -23.3780   20.0480 C   0  0  0  0  0  2  0  0  0  0  0  0
  -29.3750  -23.5560   19.7670 O   0  0  0  0  0  0  0  0  0  0  0  0
  -29.6800  -24.7750   19.1000 C   0  0  0  0  0  2  0  0  0  0  0  0
  -29.7150  -25.9570   20.0890 C   0  0  0  0  0  2  0  0  0  0  0  0
  -29.4670  -27.2010   19.4390 O   0  0  0  0  0  0  0  0  0  0  0  0
  -24.7750  -31.0880   23.0950 C   0  0  0  0  0  0  0  0  0  0  0  0
  -28.1770  -27.6650   19.5270 C   0  0  0  0  0  0  0  0  0  0  0  0
  -23.8420  -29.7370   21.2450 C   0  0  0  0  0  3  0  0  0  0  0  0
  -25.5520  -28.6850   19.6770 C   0  0  0  0  0  0  0  0  0  0  0  0
  -26.2630  -30.5610   21.1690 C   0  0  0  0  0  2  0  0  0  0  0  0
  -26.5920  -29.3270   20.3580 C   0  0  0  0  0  0  0  0  0  0  0  0
  -27.9090  -28.8270   20.2780 C   0  0  0  0  0  3  0  0  0  0  0  0
  -27.1210  -27.0220   18.8490 C   0  0  0  0  0  3  0  0  0  0  0  0
  -25.8100  -27.5280   18.9220 C   0  0  0  0  0  3  0  0  0  0  0  0
  -24.1750  -29.2960   19.7940 C   0  0  0  0  0  2  0  0  0  0  0  0
  -24.9760  -30.4710   21.8970 N   0  0  0  0  0  0  0  0  0  0  0  0
  -23.6610  -31.0920   23.6350 O   0  0  0  0  0  0  0  0  0  0  0  0
  -23.3780  -28.4960   22.0390 C   0  0  0  0  0  0  0  0  0  0  0  0
  -22.1300  -28.0630   21.7930 N   0  0  0  0  0  0  0  0  0  0  0  0
  -24.1370  -27.9310   22.8300 O   0  0  0  0  0  0  0  0  0  0  0  0
  -21.5720  -28.5830   21.1310 H   0  0  0  0  0  0  0  0  0  0  0  0
  -19.0890  -26.1160   21.8550 C   0  0  0  0  0  0  0  0  0  0  0  0
  -21.4940  -26.8940   22.3960 C   0  0  0  0  0  3  0  0  0  0  0  0
  -21.9620  -25.5900   21.7100 C   0  0  0  0  0  2  0  0  0  0  0  0
  -21.0410  -25.1440   20.5690 C   0  0  0  0  0  2  0  0  0  0  0  0
  -19.6170  -24.9180   21.0850 C   0  0  0  0  0  2  0  0  0  0  0  0
  -19.9690  -27.0520   22.4560 C   0  0  0  0  0  0  0  0  0  0  0  0
  -19.4280  -28.1690   23.1310 C   0  0  0  0  0  3  0  0  0  0  0  0
  -18.0340  -28.3540   23.2090 C   0  0  0  0  0  3  0  0  0  0  0  0
  -17.1670  -27.4150   22.6240 C   0  0  0  0  0  3  0  0  0  0  0  0
  -17.6930  -26.2960   21.9550 C   0  0  0  0  0  3  0  0  0  0  0  0
  -25.9280  -31.8410   23.8300 C   0  0  0  0  0  3  0  0  0  0  0  0
  -25.4370  -33.1820   24.1690 N   0  0  0  0  0  0  0  0  0  0  0  0
  -25.7040  -34.2890   23.4640 C   0  0  0  0  0  0  0  0  0  0  0  0
  -26.4610  -34.2960   22.4880 O   0  0  0  0  0  0  0  0  0  0  0  0
  -24.7700  -33.2420   24.9250 H   0  0  0  0  0  0  0  0  0  0  0  0
  -23.8090  -35.8790   23.0120 C   0  0  0  0  0  1  0  0  0  0  0  0
  -25.0230  -35.5960   23.9120 C   0  0  0  0  0  3  0  0  0  0  0  0
  -26.9670  -36.6950   24.9310 C   0  0  0  0  0  1  0  0  0  0  0  0
  -25.9300  -36.7650   23.9040 N   0  0  0  0  0  0  0  0  0  0  0  0
  -25.4090  -37.6260   24.0360 H   0  0  0  0  0  0  0  0  0  0  0  0
  -26.4380  -31.0890   25.1220 C   0  0  1  0  0  0  0  0  0  0  0  0
  -25.3040  -30.6740   26.0880 C   0  0  0  0  0  1  0  0  0  0  0  0
  -27.2190  -29.8120   24.7330 C   0  0  0  0  0  1  0  0  0  0  0  0
  -27.4270  -31.9900   25.8960 C   0  0  0  0  0  1  0  0  0  0  0  0
  1  4  1  0
  1  3  1  0
  2 49  1  0
  2  1  1  0
  2  3  1  0
  5  7  2  0
  5  6  1  0
  6  4  1  0
  8  6  1  0
 10  9  1  0
 10 19  1  0
 10  5  1  0
 11 17  1  0
 11 19  1  0
 12 17  1  0
 13 14  1  0
 13 12  1  0
 15 14  1  0
 15 24  1  0
 15 16  1  0
 17 16  1  0
 18 11  2  0
 19 20  1  0
 21 22  2  0
 22 41  1  0
 23 22  1  0
 23 26  1  0
 24 25  1  0
 24 21  1  0
 25 23  2  0
 26 27  1  0
 27 28  2  0
 29 32  1  0
 29 28  1  0
 30 29  2  0
 31 30  1  0
 31 26  2  0
 32 33  1  0
 33 38  2  0
 33 34  1  0
 34 35  2  0
 36 35  1  0
 36 40  1  0
 37 36  2  0
 38 37  1  0
 39 38  1  0
 41 42  1  0
 42 45  1  0
 42 44  1  0
 43 41  2  0
 46 21  1  0
 46 47  1  0
 48 46  1  0
 50 49  1  0
 51 50  1  0
 51 52  1  0
 53 55  1  0
 53 52  1  0
 54 65  2  0
 55 60  1  0
 56 64  1  0
 56 66  1  0
 57 63  1  0
 57 59  1  0
 58 64  1  0
 59 58  1  0
 60 59  2  0
 61 62  1  0
 61 55  2  0
 62 57  2  0
 63 56  1  0
 64 54  1  0
 66 68  2  0
 67 66  1  0
 69 67  1  0
 70 79  2  0
 70 75  1  0
 71 67  1  0
 71 75  1  0
 72 71  1  0
 73 74  1  0
 73 72  1  0
 74 70  1  0
 75 76  2  0
 76 77  1  0
 78 77  2  0
 79 78  1  0
 80 54  1  0
 80 81  1  0
 80 90  1  0
 81 84  1  0
 82 86  1  0
 82 81  1  0
 83 82  2  0
 86 85  1  0
 88 86  1  0
 88 89  1  0
 88 87  1  0
 90 93  1  1
 90 91  1  0
 92 90  1  0
M  ISO  4  11 100  19 100  52 101  53 101
M  END
>  <TORSDO>  (1) 
F 23

>  <SCORE>  (1) 
-8.913

>  <name>  (1) 
0

>  <ligand_id>  (1) 
0

>  <original_smiles>  (1) 
[H]c1c([H])c([H])c2c(c1[H])C([H])([H])C([H])([H])C([H])([H])C2([H])N([H])C(=O)C1([H])N(C(=O)C([H])(N([H])C(=O)C([H])(N([H])C([H])([H])[H])C([H])([H])[H])C(C([H])([H])[H])(C([H])([H])[H])C([H])([H])[H])C([H])([H])c2c([H])c(OC([H])([H])C([H])([H])OC([H])([H])C3([H])OC3([H])C([H])([H])N([H])C(=O)C([H])(N([H])C(=O)N3C([H])([H])C([H])([H])C([H])([H])C([H])(n4nc(-c5c([H])c([H])c(Oc6c([H])c([H])c(F)c([H])c6F)c([H])c5[H])c(C(=O)N([H])[H])c4N([H])[H])C3([H])[H])C([H])([H])[H])c([H])c([H])c2C1([H])[H]

>  <smiles>  (1) 
[H]c1c([H])c([H])c2c(c1[H])C([H])([H])C([H])([H])C([H])([H])C2([H])N([H])C(=O)C1([H])N(C(=O)C([H])(N([H])C(=O)C([H])(N([H])C([H])([H])[H])C([H])([H])[H])C(C([H])([H])[H])(C([H])([H])[H])C([H])([H])[H])C([H])([H])c2c([H])c(OC([H])([H])C([H])([H])OC([H])([H])C3([H])OC3([H])C([H])([H])N([H])C(=O)C([H])(N([H])C(=O)N3C([H])([H])C([H])([H])C([H])([H])C([H])(n4nc(-c5c([H])c([H])c(Oc6c([H])c([H])c(F)c([H])c6F)c([H])c5[H])c(C(=O)N([H])[H])c4N([H])[H])C3([H])[H])C([H])([H])[H])c([H])c([H])c2C1([H])[H]

$$$$
1:0:0
     RDKit          3D

103110  0  0  1  0  0  0  0  0999 V2000
  -31.4740  -20.0420   21.8500 C   0  0  0  0  0  3  0  0  0  0  0  0
  -30.8530  -17.6620   21.4690 C   0  0  0  0  0  0  0  0  0  0  0  0
  -30.5330  -18.9300   21.7380 N   0  0  0  0  0  0  0  0  0  0  0  0
  -31.9990  -17.2270   21.5940 O   0  0  0  0  0  0  0  0  0  0  0  0
  -29.5630  -19.2070   21.6490 H   0  0  0  0  0  0  0  0  0  0  0  0
  -29.7180  -16.7840   20.9290 C   0  0  0  0  0  3  0  0  0  0  0  0
  -30.6160  -14.4940   20.3830 C   0  0  0  0  0  0  0  0  0  0  0  0
  -30.3160  -12.4310   19.0710 C   0  0  0  0  0  2  0  0  0  0  0  0
  -29.3320  -12.7370   17.9200 C   0  0  0  0  0  2  0  0  0  0  0  0
  -27.8700  -12.5750   18.3800 C   0  0  0  0  0  2  0  0  0  0  0  0
  -27.5790  -13.3150   19.7130 C   0  0  0  0  0  3  0  0  0  0  0  0
  -28.6580  -12.9610   20.7640 C   0  0  0  0  0  2  0  0  0  0  0  0
  -29.9800  -13.3070   20.2020 N   0  0  0  0  0  0  0  0  0  0  0  0
  -31.6460  -14.8130   19.7780 O   0  0  0  0  0  0  0  0  0  0  0  0
  -29.9240  -15.3470   21.1500 N   0  0  0  0  0  0  0  0  0  0  0  0
  -29.2120  -14.9090   21.7150 H   0  0  0  0  0  0  0  0  0  0  0  0
  -25.1820  -13.8990   20.4610 C   0  0  0  0  0  0  0  0  0  0  0  0
  -24.1310  -13.1140   20.8490 C   0  0  0  0  0  0  0  0  0  0  0  0
  -24.6050  -11.7660   20.7970 C   0  0  0  0  0  0  0  0  0  0  0  0
  -26.2310  -13.0290   20.2030 N   0  0  0  0  0  0  0  0  0  0  0  0
  -25.8850  -11.7430   20.4540 N   0  0  0  0  0  0  0  0  0  0  0  0
  -23.8990  -10.4940   20.9970 C   0  0  0  0  0  0  0  0  0  0  0  0
  -24.3520   -9.5360   21.9310 C   0  0  0  0  0  3  0  0  0  0  0  0
  -23.6470   -8.3300   22.1190 C   0  0  0  0  0  3  0  0  0  0  0  0
  -22.4730   -8.0680   21.3710 C   0  0  0  0  0  0  0  0  0  0  0  0
  -22.0370   -9.0150   20.4270 C   0  0  0  0  0  3  0  0  0  0  0  0
  -22.7440  -10.2150   20.2380 C   0  0  0  0  0  3  0  0  0  0  0  0
  -21.7410   -6.9100   21.4640 O   0  0  0  0  0  0  0  0  0  0  0  0
  -21.7010   -6.1760   22.6240 C   0  0  0  0  0  0  0  0  0  0  0  0
  -21.2660   -6.7340   23.8440 C   0  0  0  0  0  3  0  0  0  0  0  0
  -21.1750   -5.9260   24.9950 C   0  0  0  0  0  3  0  0  0  0  0  0
  -21.5070   -4.5610   24.9250 C   0  0  0  0  0  0  0  0  0  0  0  0
  -21.9370   -4.0020   23.7090 C   0  0  0  0  0  3  0  0  0  0  0  0
  -22.0300   -4.8080   22.5610 C   0  0  0  0  0  0  0  0  0  0  0  0
  -22.4240   -4.2610   21.3860 F   0  0  0  0  0  0  0  0  0  0  0  0
  -21.4130   -3.7800   26.0270 F   0  0  0  0  0  0  0  0  0  0  0  0
  -22.7350  -13.5740   21.1570 C   0  0  0  0  0  0  0  0  0  0  0  0
  -22.0330  -12.8610   22.0300 N   0  0  0  0  0  0  0  0  0  0  0  0
  -22.2730  -14.5990   20.6540 O   0  0  0  0  0  0  0  0  0  0  0  0
  -22.4170  -12.0310   22.4560 H   0  0  0  0  0  0  0  0  0  0  0  0
  -21.0980  -13.1530   22.2770 H   0  0  0  0  0  0  0  0  0  0  0  0
  -25.3250  -15.2700   20.2890 N   0  0  0  0  0  0  0  0  0  0  0  0
  -24.5540  -15.9110   20.4370 H   0  0  0  0  0  0  0  0  0  0  0  0
  -26.1270  -15.7270   19.8710 H   0  0  0  0  0  0  0  0  0  0  0  0
  -29.3350  -17.1200   19.4560 C   0  0  0  0  0  2  0  0  0  0  0  0
  -28.1810  -18.1210   19.3430 C   0  0  0  0  0  0  0  0  0  0  0  0
  -28.4770  -19.4010   19.1570 N   0  0  0  0  0  0  0  0  0  0  0  0
  -27.0170  -17.7390   19.4240 O   0  0  0  0  0  0  0  0  0  0  0  0
  -29.4530  -19.7000   19.1060 H   0  0  0  0  0  0  0  0  0  0  0  0
  -27.7450  -20.0890   19.0550 H   0  0  0  0  0  0  0  0  0  0  0  0
  -31.6640  -20.6600   20.4370 C   0  0  0  0  0  0  0  0  0  0  0  0
  -32.0530  -21.9340   20.3310 N   0  0  0  0  0  0  0  0  0  0  0  0
  -31.4650  -19.9730   19.4300 O   0  0  0  0  0  0  0  0  0  0  0  0
  -32.2200  -22.4640   21.1750 H   0  0  0  0  0  0  0  0  0  0  0  0
  -32.2710  -22.6270   19.0630 C   0  0  0  0  0  2  0  0  0  0  0  0
  -31.9200  -24.1160   19.1570 C   0  0  0  0  0  2  0  0  0  0  0  0
  -30.5230  -24.2710   19.3920 O   0  0  0  0  0  0  0  0  0  0  0  0
  -30.0540  -25.5390   18.9470 C   0  0  0  0  0  2  0  0  0  0  0  0
  -28.5570  -25.7300   19.2430 C   0  0  0  0  0  2  0  0  0  0  0  0
  -28.3930  -26.8180   20.1490 O   0  0  0  0  0  0  0  0  0  0  0  0
  -24.5470  -31.9080   23.2700 C   0  0  0  0  0  0  0  0  0  0  0  0
  -27.1870  -27.4830   20.1680 C   0  0  0  0  0  0  0  0  0  0  0  0
  -23.3340  -30.5070   21.6310 C   0  0  0  0  0  3  0  0  0  0  0  0
  -24.7800  -28.9670   20.2060 C   0  0  0  0  0  0  0  0  0  0  0  0
  -25.8580  -30.8670   21.4250 C   0  0  0  0  0  2  0  0  0  0  0  0
  -25.9380  -29.4960   20.7900 C   0  0  0  0  0  0  0  0  0  0  0  0
  -27.1380  -28.7560   20.7760 C   0  0  0  0  0  3  0  0  0  0  0  0
  -26.0000  -26.9520   19.6040 C   0  0  0  0  0  3  0  0  0  0  0  0
  -24.8030  -27.6910   19.6190 C   0  0  0  0  0  3  0  0  0  0  0  0
  -23.5360  -29.8250   20.2520 C   0  0  0  0  0  2  0  0  0  0  0  0
  -24.5980  -31.1070   22.1680 N   0  0  0  0  0  0  0  0  0  0  0  0
  -23.4670  -32.1820   23.8140 O   0  0  0  0  0  0  0  0  0  0  0  0
  -22.6860  -29.4840   22.5920 C   0  0  0  0  0  0  0  0  0  0  0  0
  -21.3620  -29.2990   22.4630 N   0  0  0  0  0  0  0  0  0  0  0  0
  -23.3700  -28.8620   23.4080 O   0  0  0  0  0  0  0  0  0  0  0  0
  -20.8720  -29.8540   21.7760 H   0  0  0  0  0  0  0  0  0  0  0  0
  -17.9890  -28.1090   22.9590 C   0  0  0  0  0  0  0  0  0  0  0  0
  -20.5450  -28.3620   23.2340 C   0  0  0  0  0  3  0  0  0  0  0  0
  -20.6470  -26.9310   22.6580 C   0  0  0  0  0  2  0  0  0  0  0  0
  -19.5460  -26.6100   21.6430 C   0  0  0  0  0  2  0  0  0  0  0  0
  -18.1630  -26.7570   22.2860 C   0  0  0  0  0  2  0  0  0  0  0  0
  -19.1070  -28.8690   23.3900 C   0  0  0  0  0  0  0  0  0  0  0  0
  -18.8900  -30.1340   23.9790 C   0  0  0  0  0  3  0  0  0  0  0  0
  -17.5860  -30.6390   24.1410 C   0  0  0  0  0  3  0  0  0  0  0  0
  -16.4820  -29.8750   23.7280 C   0  0  0  0  0  3  0  0  0  0  0  0
  -16.6840  -28.6110   23.1430 C   0  0  0  0  0  3  0  0  0  0  0  0
  -25.8360  -32.5350   23.8850 C   0  0  0  0  0  3  0  0  0  0  0  0
  -25.5350  -33.9370   24.2040 N   0  0  0  0  0  0  0  0  0  0  0  0
  -25.8840  -34.9810   23.4410 C   0  0  0  0  0  0  0  0  0  0  0  0
  -26.5650  -34.8650   22.4180 O   0  0  0  0  0  0  0  0  0  0  0  0
  -24.9350  -34.1020   24.9990 H   0  0  0  0  0  0  0  0  0  0  0  0
  -24.1800  -36.7870   23.0450 C   0  0  0  0  0  1  0  0  0  0  0  0
  -25.4020  -36.3770   23.8830 C   0  0  0  0  0  3  0  0  0  0  0  0
  -27.5310  -37.2420   24.7470 C   0  0  0  0  0  1  0  0  0  0  0  0
  -26.4470  -37.4180   23.7840 N   0  0  0  0  0  0  0  0  0  0  0  0
  -26.0470  -38.3430   23.9210 H   0  0  0  0  0  0  0  0  0  0  0  0
  -26.3510  -31.7700   25.1640 C   0  0  1  0  0  0  0  0  0  0  0  0
  -25.2600  -31.5410   26.2350 C   0  0  0  0  0  1  0  0  0  0  0  0
  -26.9280  -30.3890   24.7770 C   0  0  0  0  0  1  0  0  0  0  0  0
  -27.5060  -32.5630   25.8220 C   0  0  0  0  0  1  0  0  0  0  0  0
  -30.8670  -21.0270   22.8820 C   0  0  0  0  0  2  0  0  0  0  0  0
  -29.5550  -21.4630   22.5440 O   0  0  0  0  0  0  0  0  0  0  0  0
  -29.6110  -22.0130   21.7690 H   0  0  0  0  0  0  0  0  0  0  0  0
  1101  1  0
  2  4  2  0
  2  3  1  0
  3  1  1  0
  5  3  1  0
  6 45  1  0
  6 15  1  0
  6  2  1  0
  7 15  1  0
  8 13  1  0
  9 10  1  0
  9  8  1  0
 11 10  1  0
 11 20  1  0
 11 12  1  0
 13  7  1  0
 13 12  1  0
 14  7  2  0
 15 16  1  0
 17 18  2  0
 18 37  1  0
 19 18  1  0
 19 22  1  0
 20 21  1  0
 20 17  1  0
 21 19  2  0
 22 23  1  0
 23 24  2  0
 25 28  1  0
 25 24  1  0
 26 25  2  0
 27 26  1  0
 27 22  2  0
 28 29  1  0
 29 30  1  0
 30 31  2  0
 32 31  1  0
 32 36  1  0
 33 32  2  0
 34 29  2  0
 34 33  1  0
 35 34  1  0
 37 38  1  0
 38 41  1  0
 38 40  1  0
 39 37  2  0
 42 43  1  0
 42 17  1  0
 44 42  1  0
 46 48  2  0
 46 45  1  0
 47 46  1  0
 49 47  1  0
 50 47  1  0
 51  1  1  0
 52 51  1  0
 52 54  1  0
 53 51  2  0
 55 56  1  0
 55 52  1  0
 56 57  1  0
 58 59  1  0
 58 57  1  0
 59 60  1  0
 60 62  1  0
 61 72  2  0
 62 67  1  0
 63 71  1  0
 63 73  1  0
 64 70  1  0
 64 66  1  0
 65 71  1  0
 66 65  1  0
 67 66  2  0
 68 69  1  0
 68 62  2  0
 69 64  2  0
 70 63  1  0
 71 61  1  0
 73 75  2  0
 74 73  1  0
 76 74  1  0
 77 86  2  0
 77 82  1  0
 78 74  1  0
 78 82  1  0
 79 78  1  0
 80 81  1  0
 80 79  1  0
 81 77  1  0
 82 83  2  0
 83 84  1  0
 85 84  2  0
 86 85  1  0
 87 61  1  0
 87 88  1  0
 87 97  1  0
 88 91  1  0
 89 93  1  0
 89 88  1  0
 90 89  2  0
 93 92  1  0
 95 93  1  0
 95 96  1  0
 95 94  1  0
 97100  1  1
 97 98  1  0
 99 97  1  0
102101  1  0
103102  1  0
M  ISO  4   7 100  15 100  59 101  60 101
M  END
>  <TORSDO>  (2) 
F 28

>  <SCORE>  (2) 
-12.201

>  <name>  (2) 
1

>  <ligand_id>  (2) 
1

>  <original_smiles>  (2) 
[H]OC([H])([H])C([H])(C(=O)N([H])C([H])([H])C([H])([H])OC([H])([H])C([H])([H])Oc1c([H])c([H])c2c(c1[H])C([H])([H])N(C(=O)C([H])(N([H])C(=O)C([H])(N([H])C([H])([H])[H])C([H])([H])[H])C(C([H])([H])[H])(C([H])([H])[H])C([H])([H])[H])C([H])(C(=O)N([H])C1([H])c3c([H])c([H])c([H])c([H])c3C([H])([H])C([H])([H])C1([H])[H])C2([H])[H])N([H])C(=O)C([H])(N([H])C(=O)N1C([H])([H])C([H])([H])C([H])([H])C([H])(n2nc(-c3c([H])c([H])c(Oc4c([H])c([H])c(F)c([H])c4F)c([H])c3[H])c(C(=O)N([H])[H])c2N([H])[H])C1([H])[H])C([H])([H])C(=O)N([H])[H]

>  <smiles>  (2) 
[H]OC([H])([H])C([H])(C(=O)N([H])C([H])([H])C([H])([H])OC([H])([H])C([H])([H])Oc1c([H])c([H])c2c(c1[H])C([H])([H])N(C(=O)C([H])(N([H])C(=O)C([H])(N([H])C([H])([H])[H])C([H])([H])[H])C(C([H])([H])[H])(C([H])([H])[H])C([H])([H])[H])C([H])(C(=O)N([H])C1([H])c3c([H])c([H])c([H])c([H])c3C([H])([H])C([H])([H])C1([H])[H])C2([H])[H])N([H])C(=O)C([H])(N([H])C(=O)N1C([H])([H])C([H])([H])C([H])([H])C([H])(n2nc(-c3c([H])c([H])c(Oc4c([H])c([H])c(F)c([H])c4F)c([H])c3[H])c(C(=O)N([H])[H])c2N([H])[H])C1([H])[H])C([H])([H])C(=O)N([H])[H]

$$$$
2:0:0
     RDKit          3D

 93100  0  0  1  0  0  0  0  0999 V2000
  -29.6910  -18.1260   20.1340 C   0  0  0  0  0  0  0  0  0  0  0  0
  -29.9900  -19.4420   20.0680 N   0  0  0  0  0  0  0  0  0  0  0  0
  -28.5230  -17.7300   20.0670 O   0  0  0  0  0  0  0  0  0  0  0  0
  -30.9690  -19.6930   20.1050 H   0  0  0  0  0  0  0  0  0  0  0  0
  -29.0090  -20.5480   20.0220 C   0  0  0  0  0  2  0  0  0  0  0  0
  -29.6090  -21.9810   20.1910 C   0  0  0  0  0  2  0  0  0  0  0  0
  -28.6450  -22.9940   19.8430 O   0  0  0  0  0  0  0  0  0  0  0  0
  -29.0350  -24.3680   20.0680 C   0  0  0  0  0  2  0  0  0  0  0  0
  -27.9000  -25.3370   19.6210 C   0  0  0  0  0  2  0  0  0  0  0  0
  -28.0570  -26.7520   19.9360 O   0  0  0  0  0  0  0  0  0  0  0  0
  -24.4050  -31.9800   23.2190 C   0  0  0  0  0  0  0  0  0  0  0  0
  -26.9060  -27.5390   19.9540 C   0  0  0  0  0  0  0  0  0  0  0  0
  -23.1340  -30.6020   21.6120 C   0  0  0  0  0  3  0  0  0  0  0  0
  -24.5230  -29.0940   20.0960 C   0  0  0  0  0  0  0  0  0  0  0  0
  -25.6580  -30.9450   21.3240 C   0  0  0  0  0  2  0  0  0  0  0  0
  -25.7120  -29.5860   20.6490 C   0  0  0  0  0  0  0  0  0  0  0  0
  -26.9030  -28.8170   20.5770 C   0  0  0  0  0  3  0  0  0  0  0  0
  -25.6910  -27.0900   19.3790 C   0  0  0  0  0  3  0  0  0  0  0  0
  -24.5110  -27.8460   19.4580 C   0  0  0  0  0  3  0  0  0  0  0  0
  -23.2850  -29.9520   20.2130 C   0  0  0  0  0  2  0  0  0  0  0  0
  -24.4200  -31.1910   22.1080 N   0  0  0  0  0  0  0  0  0  0  0  0
  -23.3460  -32.2460   23.8030 O   0  0  0  0  0  0  0  0  0  0  0  0
  -22.5220  -29.5620   22.5820 C   0  0  0  0  0  0  0  0  0  0  0  0
  -21.2070  -29.3210   22.4540 N   0  0  0  0  0  0  0  0  0  0  0  0
  -23.2290  -28.9770   23.4070 O   0  0  0  0  0  0  0  0  0  0  0  0
  -20.6930  -29.8520   21.7650 H   0  0  0  0  0  0  0  0  0  0  0  0
  -17.9020  -27.9310   22.9110 C   0  0  0  0  0  0  0  0  0  0  0  0
  -20.4300  -28.3570   23.2350 C   0  0  0  0  0  3  0  0  0  0  0  0
  -20.6350  -26.9180   22.7110 C   0  0  0  0  0  2  0  0  0  0  0  0
  -19.5820  -26.4940   21.6800 C   0  0  0  0  0  2  0  0  0  0  0  0
  -18.1790  -26.5740   22.2850 C   0  0  0  0  0  2  0  0  0  0  0  0
  -18.9590  -28.7740   23.3420 C   0  0  0  0  0  0  0  0  0  0  0  0
  -18.6480  -30.0400   23.8860 C   0  0  0  0  0  3  0  0  0  0  0  0
  -17.3110  -30.4650   24.0010 C   0  0  0  0  0  3  0  0  0  0  0  0
  -16.2670  -29.6200   23.5870 C   0  0  0  0  0  3  0  0  0  0  0  0
  -16.5630  -28.3540   23.0490 C   0  0  0  0  0  3  0  0  0  0  0  0
  -25.7130  -32.6050   23.7930 C   0  0  0  0  0  3  0  0  0  0  0  0
  -25.4240  -34.0070   24.1220 N   0  0  0  0  0  0  0  0  0  0  0  0
  -25.7250  -35.0510   23.3390 C   0  0  0  0  0  0  0  0  0  0  0  0
  -26.3470  -34.9340   22.2790 O   0  0  0  0  0  0  0  0  0  0  0  0
  -24.8640  -34.1730   24.9470 H   0  0  0  0  0  0  0  0  0  0  0  0
  -23.9800  -36.8400   23.0590 C   0  0  0  0  0  1  0  0  0  0  0  0
  -25.2650  -36.4450   23.8050 C   0  0  0  0  0  3  0  0  0  0  0  0
  -27.4380  -37.3420   24.5100 C   0  0  0  0  0  1  0  0  0  0  0  0
  -26.2890  -37.4950   23.6210 N   0  0  0  0  0  0  0  0  0  0  0  0
  -25.8910  -38.4180   23.7750 H   0  0  0  0  0  0  0  0  0  0  0  0
  -26.2680  -31.8400   25.0570 C   0  0  1  0  0  0  0  0  0  0  0  0
  -25.2040  -31.5940   26.1510 C   0  0  0  0  0  1  0  0  0  0  0  0
  -26.8570  -30.4680   24.6540 C   0  0  0  0  0  1  0  0  0  0  0  0
  -27.4250  -32.6480   25.6920 C   0  0  0  0  0  1  0  0  0  0  0  0
  -30.8420  -17.0840   20.3200 C   0  0  0  0  0  3  0  0  0  0  0  0
  -30.9740  -14.6910   19.4380 C   0  0  0  0  0  0  0  0  0  0  0  0
  -30.5430  -12.4810   18.4040 C   0  0  0  0  0  2  0  0  0  0  0  0
  -29.4550  -12.6220   17.3200 C   0  0  0  0  0  2  0  0  0  0  0  0
  -28.0470  -12.5080   17.9400 C   0  0  0  0  0  2  0  0  0  0  0  0
  -27.8670  -13.4110   19.1900 C   0  0  0  0  0  3  0  0  0  0  0  0
  -29.0490  -13.2300   20.1660 C   0  0  0  0  0  2  0  0  0  0  0  0
  -30.2890  -13.5110   19.4230 N   0  0  0  0  0  0  0  0  0  0  0  0
  -32.0370  -14.8510   18.8310 O   0  0  0  0  0  0  0  0  0  0  0  0
  -30.3540  -15.7100   20.0610 N   0  0  0  0  0  0  0  0  0  0  0  0
  -29.4390  -15.5140   20.4330 H   0  0  0  0  0  0  0  0  0  0  0  0
  -25.6420  -14.0920   20.2910 C   0  0  0  0  0  0  0  0  0  0  0  0
  -24.5860  -13.3540   20.7560 C   0  0  0  0  0  0  0  0  0  0  0  0
  -24.9460  -11.9850   20.5590 C   0  0  0  0  0  0  0  0  0  0  0  0
  -26.5800  -13.1760   19.8430 N   0  0  0  0  0  0  0  0  0  0  0  0
  -26.1740  -11.8990   20.0590 N   0  0  0  0  0  0  0  0  0  0  0  0
  -24.1740  -10.7520   20.7610 C   0  0  0  0  0  0  0  0  0  0  0  0
  -24.6460   -9.7120   21.5920 C   0  0  0  0  0  3  0  0  0  0  0  0
  -23.8750   -8.5460   21.7880 C   0  0  0  0  0  3  0  0  0  0  0  0
  -22.6180   -8.4120   21.1520 C   0  0  0  0  0  0  0  0  0  0  0  0
  -22.1620   -9.4410   20.3080 C   0  0  0  0  0  3  0  0  0  0  0  0
  -22.9340  -10.5990   20.1120 C   0  0  0  0  0  3  0  0  0  0  0  0
  -21.8130   -7.3030   21.2580 O   0  0  0  0  0  0  0  0  0  0  0  0
  -21.8090   -6.5250   22.3880 C   0  0  0  0  0  0  0  0  0  0  0  0
  -21.4760   -7.0530   23.6550 C   0  0  0  0  0  3  0  0  0  0  0  0
  -21.4140   -6.2020   24.7770 C   0  0  0  0  0  3  0  0  0  0  0  0
  -21.6780   -4.8270   24.6330 C   0  0  0  0  0  0  0  0  0  0  0  0
  -22.0080   -4.3000   23.3730 C   0  0  0  0  0  3  0  0  0  0  0  0
  -22.0700   -5.1460   22.2530 C   0  0  0  0  0  0  0  0  0  0  0  0
  -22.3660   -4.6310   21.0350 F   0  0  0  0  0  0  0  0  0  0  0  0
  -21.6130   -4.0090   25.7100 F   0  0  0  0  0  0  0  0  0  0  0  0
  -23.2780  -13.8850   21.2650 C   0  0  0  0  0  0  0  0  0  0  0  0
  -22.6460  -13.1740   22.1940 N   0  0  0  0  0  0  0  0  0  0  0  0
  -22.8310  -14.9620   20.8780 O   0  0  0  0  0  0  0  0  0  0  0  0
  -23.0250  -12.3030   22.5340 H   0  0  0  0  0  0  0  0  0  0  0  0
  -21.7750  -13.5120   22.5760 H   0  0  0  0  0  0  0  0  0  0  0  0
  -25.8710  -15.4610   20.1960 N   0  0  0  0  0  0  0  0  0  0  0  0
  -25.1730  -16.1430   20.4730 H   0  0  0  0  0  0  0  0  0  0  0  0
  -26.7050  -15.8880   19.8080 H   0  0  0  0  0  0  0  0  0  0  0  0
  -32.3410  -18.3790   21.9970 C   0  0  0  0  0  1  0  0  0  0  0  0
  -32.5000  -15.9140   21.8900 C   0  0  0  0  0  1  0  0  0  0  0  0
  -30.4570  -16.9940   22.8730 C   0  0  0  0  0  1  0  0  0  0  0  0
  -31.5140  -17.0980   21.7480 C   0  0  2  0  0  0  0  0  0  0  0  0
  2  4  1  0
  2  1  1  0
  3  1  2  0
  5  2  1  0
  5  6  1  0
  7  8  1  0
  7  6  1  0
  9 10  1  0
  9  8  1  0
 10 12  1  0
 11 22  2  0
 12 17  1  0
 13 21  1  0
 13 23  1  0
 14 20  1  0
 14 16  1  0
 15 21  1  0
 16 15  1  0
 17 16  2  0
 18 19  1  0
 18 12  2  0
 19 14  2  0
 20 13  1  0
 21 11  1  0
 23 25  2  0
 24 23  1  0
 26 24  1  0
 27 36  2  0
 27 32  1  0
 28 24  1  0
 28 32  1  0
 29 28  1  0
 30 31  1  0
 30 29  1  0
 31 27  1  0
 32 33  2  0
 33 34  1  0
 35 34  2  0
 36 35  1  0
 37 11  1  0
 37 38  1  0
 37 47  1  0
 38 41  1  0
 39 43  1  0
 39 38  1  0
 40 39  2  0
 43 42  1  0
 45 46  1  0
 45 43  1  0
 45 44  1  0
 47 50  1  1
 47 48  1  0
 49 47  1  0
 51  1  1  0
 51 93  1  0
 52 60  1  0
 53 58  1  0
 54 55  1  0
 54 53  1  0
 56 55  1  0
 56 65  1  0
 56 57  1  0
 58 52  1  0
 58 57  1  0
 59 52  2  0
 60 51  1  0
 60 61  1  0
 62 63  2  0
 63 82  1  0
 64 63  1  0
 64 67  1  0
 65 66  1  0
 65 62  1  0
 66 64  2  0
 67 68  1  0
 68 69  2  0
 70 73  1  0
 70 69  1  0
 71 70  2  0
 72 71  1  0
 72 67  2  0
 73 74  1  0
 74 75  1  0
 75 76  2  0
 77 76  1  0
 77 81  1  0
 78 77  2  0
 79 74  2  0
 79 78  1  0
 80 79  1  0
 82 83  1  0
 83 85  1  0
 83 86  1  0
 84 82  2  0
 87 62  1  0
 87 88  1  0
 89 87  1  0
 93 91  1  6
 93 90  1  0
 93 92  1  0
M  ISO  4   9 101  10 101  52 100  60 100
M  END
>  <TORSDO>  (3) 
F 23

>  <SCORE>  (3) 
-8.653

>  <name>  (3) 
2

>  <ligand_id>  (3) 
2

>  <original_smiles>  (3) 
[H]c1c([H])c([H])c2c(c1[H])C([H])([H])C([H])([H])C([H])([H])C2([H])N([H])C(=O)C1([H])N(C(=O)C([H])(N([H])C(=O)C([H])(N([H])C([H])([H])[H])C([H])([H])[H])C(C([H])([H])[H])(C([H])([H])[H])C([H])([H])[H])C([H])([H])c2c([H])c(OC([H])([H])C([H])([H])OC([H])([H])C([H])([H])N([H])C(=O)C([H])(N([H])C(=O)N3C([H])([H])C([H])([H])C([H])([H])C([H])(n4nc(-c5c([H])c([H])c(Oc6c([H])c([H])c(F)c([H])c6F)c([H])c5[H])c(C(=O)N([H])[H])c4N([H])[H])C3([H])[H])C(C([H])([H])[H])(C([H])([H])[H])C([H])([H])[H])c([H])c([H])c2C1([H])[H]

>  <smiles>  (3) 
[H]c1c([H])c([H])c2c(c1[H])C([H])([H])C([H])([H])C([H])([H])C2([H])N([H])C(=O)C1([H])N(C(=O)C([H])(N([H])C(=O)C([H])(N([H])C([H])([H])[H])C([H])([H])[H])C(C([H])([H])[H])(C([H])([H])[H])C([H])([H])[H])C([H])([H])c2c([H])c(OC([H])([H])C([H])([H])OC([H])([H])C([H])([H])N([H])C(=O)C([H])(N([H])C(=O)N3C([H])([H])C([H])([H])C([H])([H])C([H])(n4nc(-c5c([H])c([H])c(Oc6c([H])c([H])c(F)c([H])c6F)c([H])c5[H])c(C(=O)N([H])[H])c4N([H])[H])C3([H])[H])C(C([H])([H])[H])(C([H])([H])[H])C([H])([H])[H])c([H])c([H])c2C1([H])[H]

$$$$
3:0:0
     RDKit          3D

 98105  0  0  1  0  0  0  0  0999 V2000
  -28.3260  -20.6090   20.7880 C   0  0  0  0  0  2  0  0  0  0  0  0
  -27.8280  -21.0950   19.5460 O   0  0  0  0  0  0  0  0  0  0  0  0
  -27.4500  -20.0120   18.7030 C   0  0  0  0  0  2  0  0  0  0  0  0
  -27.2830  -20.4700   17.2530 C   0  0  0  0  0  2  0  0  0  0  0  0
  -28.5660  -21.0230   16.5940 C   0  0  0  0  0  2  0  0  0  0  0  0
  -29.6750  -19.9920   16.3130 C   0  0  0  0  0  2  0  0  0  0  0  0
  -30.3350  -19.5850   17.5050 O   0  0  0  0  0  0  0  0  0  0  0  0
  -31.3840  -18.6640   17.2160 C   0  0  0  0  0  2  0  0  0  0  0  0
  -32.1210  -18.2680   18.5010 C   0  0  0  0  0  2  0  0  0  0  0  0
  -31.2530  -17.4080   19.2260 O   0  0  0  0  0  0  0  0  0  0  0  0
  -31.1940  -17.6610   20.6190 C   0  0  0  0  0  2  0  0  0  0  0  0
  -29.9010  -17.0420   21.1450 C   0  0  0  0  0  2  0  0  0  0  0  0
  -30.6480  -14.5850   20.8360 C   0  0  0  0  0  0  0  0  0  0  0  0
  -30.4520  -12.3340   19.7960 C   0  0  0  0  0  2  0  0  0  0  0  0
  -29.6360  -12.5270   18.5010 C   0  0  0  0  0  2  0  0  0  0  0  0
  -28.1190  -12.4800   18.8000 C   0  0  0  0  0  2  0  0  0  0  0  0
  -27.7030  -13.3290   20.0350 C   0  0  0  0  0  3  0  0  0  0  0  0
  -28.6670  -13.1020   21.2200 C   0  0  0  0  0  2  0  0  0  0  0  0
  -30.0250  -13.3800   20.7360 N   0  0  0  0  0  0  0  0  0  0  0  0
  -31.8250  -14.7690   20.5340 O   0  0  0  0  0  0  0  0  0  0  0  0
  -29.7840  -15.5780   21.1190 N   0  0  0  0  0  0  0  0  0  0  0  0
  -28.8330  -15.2630   21.2660 H   0  0  0  0  0  0  0  0  0  0  0  0
  -25.2760  -13.9690   20.5660 C   0  0  0  0  0  0  0  0  0  0  0  0
  -24.1820  -13.2110   20.8840 C   0  0  0  0  0  0  0  0  0  0  0  0
  -24.6360  -11.8590   20.9210 C   0  0  0  0  0  0  0  0  0  0  0  0
  -26.3220  -13.0760   20.4270 N   0  0  0  0  0  0  0  0  0  0  0  0
  -25.9420  -11.8030   20.7050 N   0  0  0  0  0  0  0  0  0  0  0  0
  -23.8920  -10.6040   21.1020 C   0  0  0  0  0  0  0  0  0  0  0  0
  -24.2910   -9.6430   22.0570 C   0  0  0  0  0  3  0  0  0  0  0  0
  -23.5540   -8.4520   22.2160 C   0  0  0  0  0  3  0  0  0  0  0  0
  -22.4070   -8.2140   21.4240 C   0  0  0  0  0  0  0  0  0  0  0  0
  -22.0280   -9.1660   20.4620 C   0  0  0  0  0  3  0  0  0  0  0  0
  -22.7630  -10.3490   20.2980 C   0  0  0  0  0  3  0  0  0  0  0  0
  -21.6420   -7.0760   21.4930 O   0  0  0  0  0  0  0  0  0  0  0  0
  -21.5810   -6.3200   22.6360 C   0  0  0  0  0  0  0  0  0  0  0  0
  -21.1940   -6.8760   23.8720 C   0  0  0  0  0  3  0  0  0  0  0  0
  -21.0700   -6.0500   25.0030 C   0  0  0  0  0  3  0  0  0  0  0  0
  -21.3360   -4.6690   24.9080 C   0  0  0  0  0  0  0  0  0  0  0  0
  -21.7270   -4.1180   23.6740 C   0  0  0  0  0  3  0  0  0  0  0  0
  -21.8510   -4.9420   22.5420 C   0  0  0  0  0  0  0  0  0  0  0  0
  -22.2060   -4.4000   21.3530 F   0  0  0  0  0  0  0  0  0  0  0  0
  -21.2110   -3.8740   25.9940 F   0  0  0  0  0  0  0  0  0  0  0  0
  -22.7750  -13.7080   21.0520 C   0  0  0  0  0  0  0  0  0  0  0  0
  -21.9890  -13.0430   21.8960 N   0  0  0  0  0  0  0  0  0  0  0  0
  -22.3760  -14.7200   20.4780 O   0  0  0  0  0  0  0  0  0  0  0  0
  -22.3200  -12.2230   22.3820 H   0  0  0  0  0  0  0  0  0  0  0  0
  -21.0450  -13.3600   22.0510 H   0  0  0  0  0  0  0  0  0  0  0  0
  -25.4520  -15.3360   20.3710 N   0  0  0  0  0  0  0  0  0  0  0  0
  -24.6690  -15.9740   20.4430 H   0  0  0  0  0  0  0  0  0  0  0  0
  -26.3080  -15.7800   20.0820 H   0  0  0  0  0  0  0  0  0  0  0  0
  -28.6260  -21.7620   21.7560 C   0  0  0  0  0  2  0  0  0  0  0  0
  -29.5290  -22.8510   21.1600 C   0  0  0  0  0  2  0  0  0  0  0  0
  -28.7720  -23.7270   20.2410 N   0  0  0  0  0  4  0  0  0  0  0  0
  -28.0860  -24.2300   20.7870 H   0  0  0  0  0  0  0  0  0  0  0  0
  -28.2730  -23.1280   19.5950 H   0  0  0  0  0  0  0  0  0  0  0  0
  -29.6030  -24.7100   19.5090 C   0  0  0  0  0  2  0  0  0  0  0  0
  -28.7730  -25.8950   18.9910 C   0  0  0  0  0  2  0  0  0  0  0  0
  -28.4560  -26.7530   20.0950 O   0  0  0  0  0  0  0  0  0  0  0  0
  -24.6520  -31.8940   23.2110 C   0  0  0  0  0  0  0  0  0  0  0  0
  -27.2670  -27.4530   20.0890 C   0  0  0  0  0  0  0  0  0  0  0  0
  -23.4300  -30.4920   21.5830 C   0  0  0  0  0  3  0  0  0  0  0  0
  -24.8640  -28.9510   20.1500 C   0  0  0  0  0  0  0  0  0  0  0  0
  -25.9520  -30.8480   21.3600 C   0  0  0  0  0  2  0  0  0  0  0  0
  -26.0280  -29.4750   20.7250 C   0  0  0  0  0  0  0  0  0  0  0  0
  -27.2280  -28.7280   20.7000 C   0  0  0  0  0  3  0  0  0  0  0  0
  -26.0720  -26.9280   19.5440 C   0  0  0  0  0  3  0  0  0  0  0  0
  -24.8780  -27.6720   19.5690 C   0  0  0  0  0  3  0  0  0  0  0  0
  -23.6270  -29.8170   20.2010 C   0  0  0  0  0  2  0  0  0  0  0  0
  -24.6970  -31.0920   22.1100 N   0  0  0  0  0  0  0  0  0  0  0  0
  -23.5750  -32.1670   23.7620 O   0  0  0  0  0  0  0  0  0  0  0  0
  -22.7860  -29.4710   22.5500 C   0  0  0  0  0  0  0  0  0  0  0  0
  -21.4590  -29.2930   22.4390 N   0  0  0  0  0  0  0  0  0  0  0  0
  -23.4770  -28.8420   23.3560 O   0  0  0  0  0  0  0  0  0  0  0  0
  -20.9600  -29.8590   21.7660 H   0  0  0  0  0  0  0  0  0  0  0  0
  -18.0900  -28.0970   22.9630 C   0  0  0  0  0  0  0  0  0  0  0  0
  -20.6490  -28.3580   23.2180 C   0  0  0  0  0  3  0  0  0  0  0  0
  -20.7480  -26.9220   22.6520 C   0  0  0  0  0  2  0  0  0  0  0  0
  -19.6430  -26.5940   21.6440 C   0  0  0  0  0  2  0  0  0  0  0  0
  -18.2640  -26.7440   22.2920 C   0  0  0  0  0  2  0  0  0  0  0  0
  -19.2120  -28.8610   23.3830 C   0  0  0  0  0  0  0  0  0  0  0  0
  -18.9970  -30.1280   23.9680 C   0  0  0  0  0  3  0  0  0  0  0  0
  -17.6930  -30.6320   24.1340 C   0  0  0  0  0  3  0  0  0  0  0  0
  -16.5870  -29.8670   23.7280 C   0  0  0  0  0  3  0  0  0  0  0  0
  -16.7860  -28.6010   23.1510 C   0  0  0  0  0  3  0  0  0  0  0  0
  -25.9440  -32.5260   23.8160 C   0  0  0  0  0  3  0  0  0  0  0  0
  -25.6330  -33.9180   24.1690 N   0  0  0  0  0  0  0  0  0  0  0  0
  -25.9480  -34.9810   23.4150 C   0  0  0  0  0  0  0  0  0  0  0  0
  -26.6050  -34.8930   22.3750 O   0  0  0  0  0  0  0  0  0  0  0  0
  -25.0450  -34.0600   24.9780 H   0  0  0  0  0  0  0  0  0  0  0  0
  -24.1980  -36.7630   23.1070 C   0  0  0  0  0  1  0  0  0  0  0  0
  -25.4570  -36.3610   23.8930 C   0  0  0  0  0  3  0  0  0  0  0  0
  -27.6050  -37.2460   24.6870 C   0  0  0  0  0  1  0  0  0  0  0  0
  -26.4800  -37.4240   23.7740 N   0  0  0  0  0  0  0  0  0  0  0  0
  -26.0700  -38.3370   23.9520 H   0  0  0  0  0  0  0  0  0  0  0  0
  -26.4920  -31.7410   25.0720 C   0  0  1  0  0  0  0  0  0  0  0  0
  -25.4230  -31.4830   26.1600 C   0  0  0  0  0  1  0  0  0  0  0  0
  -27.0720  -30.3720   24.6490 C   0  0  0  0  0  1  0  0  0  0  0  0
  -27.6500  -32.5320   25.7240 C   0  0  0  0  0  1  0  0  0  0  0  0
  1 51  1  0
  2  1  1  0
  3  2  1  0
  4  3  1  0
  5  4  1  0
  6  5  1  0
  6  7  1  0
  8  7  1  0
  8  9  1  0
  9 10  1  0
 10 11  1  0
 11 12  1  0
 13 21  1  0
 14 19  1  0
 15 16  1  0
 15 14  1  0
 17 16  1  0
 17 26  1  0
 17 18  1  0
 19 13  1  0
 19 18  1  0
 20 13  2  0
 21 12  1  0
 21 22  1  0
 23 24  2  0
 24 25  1  0
 24 43  1  0
 25 28  1  0
 26 23  1  0
 26 27  1  0
 27 25  2  0
 28 29  1  0
 29 30  2  0
 31 34  1  0
 31 30  1  0
 32 31  2  0
 33 32  1  0
 33 28  2  0
 34 35  1  0
 35 36  1  0
 36 37  2  0
 38 37  1  0
 38 42  1  0
 39 38  2  0
 40 35  2  0
 40 39  1  0
 41 40  1  0
 43 44  1  0
 44 47  1  0
 44 46  1  0
 45 43  2  0
 48 49  1  0
 48 23  1  0
 50 48  1  0
 52 51  1  0
 53 54  1  0
 53 52  1  0
 55 53  1  0
 56 53  1  0
 57 56  1  0
 57 58  1  0
 59 70  2  0
 60 58  1  0
 60 65  1  0
 61 69  1  0
 61 71  1  0
 62 68  1  0
 62 64  1  0
 63 69  1  0
 64 63  1  0
 65 64  2  0
 66 67  1  0
 66 60  2  0
 67 62  2  0
 68 61  1  0
 69 59  1  0
 71 73  2  0
 72 71  1  0
 74 72  1  0
 75 84  2  0
 75 80  1  0
 76 72  1  0
 76 80  1  0
 77 76  1  0
 78 79  1  0
 78 77  1  0
 79 75  1  0
 80 81  2  0
 81 82  1  0
 83 82  2  0
 84 83  1  0
 85 59  1  0
 85 86  1  0
 85 95  1  0
 86 89  1  0
 87 91  1  0
 87 86  1  0
 88 87  2  0
 91 90  1  0
 93 91  1  0
 93 94  1  0
 93 92  1  0
 95 98  1  1
 95 96  1  0
 97 95  1  0
M  ISO  4  13 100  21 100  57 101  58 101
M  END
>  <TORSDO>  (4) 
F 32

>  <SCORE>  (4) 
-10.460

>  <name>  (4) 
3

>  <ligand_id>  (4) 
3

>  <original_smiles>  (4) 
[H]c1c([H])c([H])c2c(c1[H])C([H])([H])C([H])([H])C([H])([H])C2([H])N([H])C(=O)C1([H])N(C(=O)C([H])(N([H])C(=O)C([H])(N([H])C([H])([H])[H])C([H])([H])[H])C(C([H])([H])[H])(C([H])([H])[H])C([H])([H])[H])C([H])([H])c2c([H])c(OC([H])([H])C([H])([H])[N+]([H])([H])C([H])([H])C([H])([H])C([H])([H])OC([H])([H])C([H])([H])C([H])([H])C([H])([H])OC([H])([H])C([H])([H])OC([H])([H])C([H])([H])N([H])C(=O)N3C([H])([H])C([H])([H])C([H])([H])C([H])(n4nc(-c5c([H])c([H])c(Oc6c([H])c([H])c(F)c([H])c6F)c([H])c5[H])c(C(=O)N([H])[H])c4N([H])[H])C3([H])[H])c([H])c([H])c2C1([H])[H]

>  <smiles>  (4) 
[H]c1c([H])c([H])c2c(c1[H])C([H])([H])C([H])([H])C([H])([H])C2([H])N([H])C(=O)C1([H])N(C(=O)C([H])(N([H])C(=O)C([H])(N([H])C([H])([H])[H])C([H])([H])[H])C(C([H])([H])[H])(C([H])([H])[H])C([H])([H])[H])C([H])([H])c2c([H])c(OC([H])([H])C([H])([H])[N+]([H])([H])C([H])([H])C([H])([H])C([H])([H])OC([H])([H])C([H])([H])C([H])([H])C([H])([H])OC([H])([H])C([H])([H])OC([H])([H])C([H])([H])N([H])C(=O)N3C([H])([H])C([H])([H])C([H])([H])C([H])(n4nc(-c5c([H])c([H])c(Oc6c([H])c([H])c(F)c([H])c6F)c([H])c5[H])c(C(=O)N([H])[H])c4N([H])[H])C3([H])[H])c([H])c([H])c2C1([H])[H]

$$$$
4:0:0
     RDKit          3D

 98105  0  0  1  0  0  0  0  0999 V2000
  -32.5140  -20.6440   16.9730 C   0  0  0  0  0  2  0  0  0  0  0  0
  -32.2910  -19.2540   17.2140 O   0  0  0  0  0  0  0  0  0  0  0  0
  -30.9820  -18.7890   16.8850 C   0  0  0  0  0  2  0  0  0  0  0  0
  -30.0410  -18.8600   18.0990 C   0  0  0  0  0  2  0  0  0  0  0  0
  -30.2370  -16.9450   19.6690 C   0  0  0  0  0  0  0  0  0  0  0  0
  -30.6160  -18.1550   19.2420 N   0  0  0  0  0  0  0  0  0  0  0  0
  -29.3150  -16.3180   19.1390 O   0  0  0  0  0  0  0  0  0  0  0  0
  -31.3920  -18.6030   19.7110 H   0  0  0  0  0  0  0  0  0  0  0  0
  -31.0090  -16.3360   20.8640 C   0  0  0  0  0  3  0  0  0  0  0  0
  -31.2570  -13.9830   20.1160 C   0  0  0  0  0  0  0  0  0  0  0  0
  -30.8440  -11.8250   19.0050 C   0  0  0  0  0  2  0  0  0  0  0  0
  -29.9240  -12.0270   17.7860 C   0  0  0  0  0  2  0  0  0  0  0  0
  -28.4420  -11.9770   18.2040 C   0  0  0  0  0  2  0  0  0  0  0  0
  -28.1360  -12.8970   19.4160 C   0  0  0  0  0  3  0  0  0  0  0  0
  -29.1580  -12.6560   20.5490 C   0  0  0  0  0  2  0  0  0  0  0  0
  -30.5170  -12.8510   20.0040 N   0  0  0  0  0  0  0  0  0  0  0  0
  -32.2980  -14.1880   19.4860 O   0  0  0  0  0  0  0  0  0  0  0  0
  -30.7430  -14.9020   20.9380 N   0  0  0  0  0  0  0  0  0  0  0  0
  -29.9120  -14.6350   21.4400 H   0  0  0  0  0  0  0  0  0  0  0  0
  -25.7450  -13.6600   19.9980 C   0  0  0  0  0  0  0  0  0  0  0  0
  -24.6400  -12.9650   20.4150 C   0  0  0  0  0  0  0  0  0  0  0  0
  -25.0500  -11.6010   20.5240 C   0  0  0  0  0  0  0  0  0  0  0  0
  -26.7610  -12.7240   19.8820 N   0  0  0  0  0  0  0  0  0  0  0  0
  -26.3440  -11.4860   20.2500 N   0  0  0  0  0  0  0  0  0  0  0  0
  -24.2770  -10.3890   20.8200 C   0  0  0  0  0  0  0  0  0  0  0  0
  -24.6570   -9.5030   21.8520 C   0  0  0  0  0  3  0  0  0  0  0  0
  -23.8860   -8.3530   22.1290 C   0  0  0  0  0  3  0  0  0  0  0  0
  -22.7200   -8.0810   21.3730 C   0  0  0  0  0  0  0  0  0  0  0  0
  -22.3590   -8.9550   20.3330 C   0  0  0  0  0  3  0  0  0  0  0  0
  -23.1300  -10.0960   20.0560 C   0  0  0  0  0  3  0  0  0  0  0  0
  -21.9250   -6.9760   21.5540 O   0  0  0  0  0  0  0  0  0  0  0  0
  -21.8230   -6.3520   22.7720 C   0  0  0  0  0  0  0  0  0  0  0  0
  -21.4050   -7.0440   23.9300 C   0  0  0  0  0  3  0  0  0  0  0  0
  -21.2490   -6.3490   25.1470 C   0  0  0  0  0  3  0  0  0  0  0  0
  -21.4980   -4.9650   25.2040 C   0  0  0  0  0  0  0  0  0  0  0  0
  -21.9100   -4.2740   24.0520 C   0  0  0  0  0  3  0  0  0  0  0  0
  -22.0680   -4.9660   22.8380 C   0  0  0  0  0  0  0  0  0  0  0  0
  -22.4440   -4.2920   21.7240 F   0  0  0  0  0  0  0  0  0  0  0  0
  -21.3410   -4.2960   26.3710 F   0  0  0  0  0  0  0  0  0  0  0  0
  -23.2570  -13.5150   20.6140 C   0  0  0  0  0  0  0  0  0  0  0  0
  -22.4970  -12.9410   21.5400 N   0  0  0  0  0  0  0  0  0  0  0  0
  -22.8580  -14.4910   19.9790 O   0  0  0  0  0  0  0  0  0  0  0  0
  -22.8310  -12.1540   22.0760 H   0  0  0  0  0  0  0  0  0  0  0  0
  -21.5680  -13.2960   21.7190 H   0  0  0  0  0  0  0  0  0  0  0  0
  -25.9670  -15.0000   19.6940 N   0  0  0  0  0  0  0  0  0  0  0  0
  -25.2310  -15.6960   19.7240 H   0  0  0  0  0  0  0  0  0  0  0  0
  -26.8590  -15.3770   19.3890 H   0  0  0  0  0  0  0  0  0  0  0  0
  -29.1610  -16.6570   22.6790 C   0  0  0  0  0  1  0  0  0  0  0  0
  -31.5970  -16.6300   23.3250 C   0  0  0  0  0  1  0  0  0  0  0  0
  -30.5960  -16.9890   22.2130 C   0  0  0  0  0  3  0  0  0  0  0  0
  -32.9030  -21.3670   18.2690 C   0  0  0  0  0  2  0  0  0  0  0  0
  -31.7210  -21.5610   19.0260 O   0  0  0  0  0  0  0  0  0  0  0  0
  -31.9090  -22.3500   20.1870 C   0  0  0  0  0  2  0  0  0  0  0  0
  -30.5920  -22.3450   20.9800 C   0  0  0  0  0  2  0  0  0  0  0  0
  -29.5310  -23.0090   20.2990 O   0  0  0  0  0  0  0  0  0  0  0  0
  -29.6570  -24.4260   20.2670 C   0  0  0  0  0  2  0  0  0  0  0  0
  -28.3090  -25.0420   19.8800 C   0  0  0  0  0  2  0  0  0  0  0  0
  -28.3690  -26.4380   20.1440 O   0  0  0  0  0  0  0  0  0  0  0  0
  -24.5700  -31.6240   23.1480 C   0  0  0  0  0  0  0  0  0  0  0  0
  -27.1890  -27.1460   20.1150 C   0  0  0  0  0  0  0  0  0  0  0  0
  -23.3800  -30.2680   21.4570 C   0  0  0  0  0  3  0  0  0  0  0  0
  -24.8310  -28.7020   20.0710 C   0  0  0  0  0  0  0  0  0  0  0  0
  -25.9180  -30.5610   21.3430 C   0  0  0  0  0  2  0  0  0  0  0  0
  -25.9830  -29.1940   20.6960 C   0  0  0  0  0  0  0  0  0  0  0  0
  -27.1650  -28.4240   20.7130 C   0  0  0  0  0  3  0  0  0  0  0  0
  -26.0130  -26.6560   19.4990 C   0  0  0  0  0  3  0  0  0  0  0  0
  -24.8380  -27.4300   19.4740 C   0  0  0  0  0  3  0  0  0  0  0  0
  -23.6150  -29.5980   20.0780 C   0  0  0  0  0  2  0  0  0  0  0  0
  -24.6400  -30.8300   22.0420 N   0  0  0  0  0  0  0  0  0  0  0  0
  -23.4790  -31.9210   23.6530 O   0  0  0  0  0  0  0  0  0  0  0  0
  -22.6720  -29.2540   22.3840 C   0  0  0  0  0  0  0  0  0  0  0  0
  -21.3440  -29.1340   22.2290 N   0  0  0  0  0  0  0  0  0  0  0  0
  -23.3130  -28.5860   23.1980 O   0  0  0  0  0  0  0  0  0  0  0  0
  -20.8920  -29.7270   21.5460 H   0  0  0  0  0  0  0  0  0  0  0  0
  -17.9080  -28.1030   22.6550 C   0  0  0  0  0  0  0  0  0  0  0  0
  -20.4720  -28.2190   22.9640 C   0  0  0  0  0  3  0  0  0  0  0  0
  -20.5080  -26.8000   22.3520 C   0  0  0  0  0  2  0  0  0  0  0  0
  -19.4020  -26.5610   21.3180 C   0  0  0  0  0  2  0  0  0  0  0  0
  -18.0210  -26.7630   21.9490 C   0  0  0  0  0  2  0  0  0  0  0  0
  -19.0590  -28.7940   23.1170 C   0  0  0  0  0  0  0  0  0  0  0  0
  -18.8990  -30.0530   23.7360 C   0  0  0  0  0  3  0  0  0  0  0  0
  -17.6210  -30.6190   23.8980 C   0  0  0  0  0  3  0  0  0  0  0  0
  -16.4840  -29.9240   23.4520 C   0  0  0  0  0  3  0  0  0  0  0  0
  -16.6280  -28.6690   22.8350 C   0  0  0  0  0  3  0  0  0  0  0  0
  -25.8520  -32.2100   23.8160 C   0  0  0  0  0  3  0  0  0  0  0  0
  -25.5640  -33.6040   24.1720 N   0  0  0  0  0  0  0  0  0  0  0  0
  -25.9310  -34.6670   23.4440 C   0  0  0  0  0  0  0  0  0  0  0  0
  -26.6210  -34.5740   22.4260 O   0  0  0  0  0  0  0  0  0  0  0  0
  -24.9520  -33.7510   24.9610 H   0  0  0  0  0  0  0  0  0  0  0  0
  -24.2360  -36.4910   23.1030 C   0  0  0  0  0  1  0  0  0  0  0  0
  -25.4590  -36.0520   23.9240 C   0  0  0  0  0  3  0  0  0  0  0  0
  -27.5960  -36.8810   24.8020 C   0  0  0  0  0  1  0  0  0  0  0  0
  -26.5090  -37.0910   23.8490 N   0  0  0  0  0  0  0  0  0  0  0  0
  -26.1150  -38.0130   24.0120 H   0  0  0  0  0  0  0  0  0  0  0  0
  -26.3220  -31.3960   25.0820 C   0  0  1  0  0  0  0  0  0  0  0  0
  -25.1980  -31.1580   26.1180 C   0  0  0  0  0  1  0  0  0  0  0  0
  -26.8820  -30.0170   24.6620 C   0  0  0  0  0  1  0  0  0  0  0  0
  -27.4730  -32.1490   25.7900 C   0  0  0  0  0  1  0  0  0  0  0  0
  1  2  1  0
  1 51  1  0
  3  2  1  0
  3  4  1  0
  4  6  1  0
  6  5  1  0
  6  8  1  0
  7  5  2  0
  9  5  1  0
  9 18  1  0
  9 50  1  0
 10 18  1  0
 11 16  1  0
 12 13  1  0
 12 11  1  0
 14 13  1  0
 14 23  1  0
 14 15  1  0
 16 10  1  0
 16 15  1  0
 17 10  2  0
 18 19  1  0
 20 21  2  0
 21 22  1  0
 21 40  1  0
 22 25  1  0
 23 20  1  0
 23 24  1  0
 24 22  2  0
 25 26  1  0
 26 27  2  0
 28 31  1  0
 28 27  1  0
 29 28  2  0
 30 29  1  0
 30 25  2  0
 31 32  1  0
 32 37  2  0
 32 33  1  0
 33 34  2  0
 34 35  1  0
 35 39  1  0
 36 35  2  0
 37 36  1  0
 38 37  1  0
 40 41  1  0
 41 44  1  0
 41 43  1  0
 42 40  2  0
 45 46  1  0
 45 20  1  0
 47 45  1  0
 50 48  1  0
 50 49  1  0
 51 52  1  0
 52 53  1  0
 53 54  1  0
 55 54  1  0
 56 55  1  0
 57 58  1  0
 57 56  1  0
 59 70  2  0
 60 58  1  0
 60 65  1  0
 61 69  1  0
 61 71  1  0
 62 68  1  0
 62 64  1  0
 63 69  1  0
 64 65  2  0
 64 63  1  0
 66 60  2  0
 67 66  1  0
 67 62  2  0
 68 61  1  0
 69 59  1  0
 71 73  2  0
 72 71  1  0
 74 72  1  0
 75 84  2  0
 75 80  1  0
 76 72  1  0
 76 80  1  0
 77 76  1  0
 78 79  1  0
 78 77  1  0
 79 75  1  0
 80 81  2  0
 81 82  1  0
 83 82  2  0
 84 83  1  0
 85 59  1  0
 85 86  1  0
 85 95  1  0
 86 89  1  0
 87 91  1  0
 87 86  1  0
 88 87  2  0
 91 90  1  0
 93 91  1  0
 93 94  1  0
 93 92  1  0
 95 98  1  1
 95 96  1  0
 97 95  1  0
M  ISO  4  10 100  18 100  57 101  58 101
M  END
>  <TORSDO>  (5) 
F 29

>  <SCORE>  (5) 
-7.007

>  <name>  (5) 
4

>  <ligand_id>  (5) 
4

>  <original_smiles>  (5) 
[H]c1c([H])c([H])c2c(c1[H])C([H])([H])C([H])([H])C([H])([H])C2([H])N([H])C(=O)C1([H])N(C(=O)C([H])(N([H])C(=O)C([H])(N([H])C([H])([H])[H])C([H])([H])[H])C(C([H])([H])[H])(C([H])([H])[H])C([H])([H])[H])C([H])([H])c2c([H])c(OC([H])([H])C([H])([H])OC([H])([H])C([H])([H])OC([H])([H])C([H])([H])OC([H])([H])C([H])([H])N([H])C(=O)C([H])(N([H])C(=O)N3C([H])([H])C([H])([H])C([H])([H])C([H])(n4nc(-c5c([H])c([H])c(Oc6c([H])c([H])c(F)c([H])c6F)c([H])c5[H])c(C(=O)N([H])[H])c4N([H])[H])C3([H])[H])C([H])(C([H])([H])[H])C([H])([H])[H])c([H])c([H])c2C1([H])[H]

>  <smiles>  (5) 
[H]c1c([H])c([H])c2c(c1[H])C([H])([H])C([H])([H])C([H])([H])C2([H])N([H])C(=O)C1([H])N(C(=O)C([H])(N([H])C(=O)C([H])(N([H])C([H])([H])[H])C([H])([H])[H])C(C([H])([H])[H])(C([H])([H])[H])C([H])([H])[H])C([H])([H])c2c([H])c(OC([H])([H])C([H])([H])OC([H])([H])C([H])([H])OC([H])([H])C([H])([H])OC([H])([H])C([H])([H])N([H])C(=O)C([H])(N([H])C(=O)N3C([H])([H])C([H])([H])C([H])([H])C([H])(n4nc(-c5c([H])c([H])c(Oc6c([H])c([H])c(F)c([H])c6F)c([H])c5[H])c(C(=O)N([H])[H])c4N([H])[H])C3([H])[H])C([H])(C([H])([H])[H])C([H])([H])[H])c([H])c([H])c2C1([H])[H]

$$$$
5:0:0
     RDKit          3D

102109  0  0  1  0  0  0  0  0999 V2000
  -33.1440  -20.9220   21.1790 C   0  0  0  0  0  0  0  0  0  0  0  0
  -32.4230  -20.5470   20.1150 N   0  0  0  0  0  0  0  0  0  0  0  0
  -33.4910  -22.0810   21.4200 O   0  0  0  0  0  0  0  0  0  0  0  0
  -32.2930  -19.5380   20.0590 H   0  0  0  0  0  0  0  0  0  0  0  0
  -33.6330  -19.7420   22.0770 C   0  0  0  0  0  0  0  0  0  0  0  0
  -32.7410  -18.8950   22.6240 N   0  0  0  0  0  0  0  0  0  0  0  0
  -34.8440  -19.5690   22.2320 O   0  0  0  0  0  0  0  0  0  0  0  0
  -33.1800  -18.1200   23.1000 H   0  0  0  0  0  0  0  0  0  0  0  0
  -30.8870  -20.3010   23.6050 C   0  0  0  0  0  1  0  0  0  0  0  0
  -31.3000  -19.0070   22.8770 C   0  0  0  0  0  3  0  0  0  0  0  0
  -30.3330  -17.7530   20.7300 C   0  0  0  0  0  3  0  0  0  0  0  0
  -30.3260  -18.6430   21.7490 C   0  0  0  0  0  3  0  0  0  0  0  0
  -31.5860  -14.4890   19.7980 C   0  0  0  0  0  0  0  0  0  0  0  0
  -31.1200  -12.2200   18.9440 C   0  0  0  0  0  2  0  0  0  0  0  0
  -30.1450  -12.3280   17.7540 C   0  0  0  0  0  2  0  0  0  0  0  0
  -28.6870  -12.3090   18.2550 C   0  0  0  0  0  2  0  0  0  0  0  0
  -28.4410  -13.3190   19.4080 C   0  0  0  0  0  3  0  0  0  0  0  0
  -29.5330  -13.1980   20.4960 C   0  0  0  0  0  2  0  0  0  0  0  0
  -30.8440  -13.3500   19.8430 N   0  0  0  0  0  0  0  0  0  0  0  0
  -32.6810  -14.5310   19.2320 O   0  0  0  0  0  0  0  0  0  0  0  0
  -31.4000  -16.8470   20.3420 C   0  0  0  0  0  0  0  0  0  0  0  0
  -30.9650  -15.5740   20.3050 N   0  0  0  0  0  0  0  0  0  0  0  0
  -32.5200  -17.2140   19.9860 O   0  0  0  0  0  0  0  0  0  0  0  0
  -30.0340  -15.4120   20.6490 H   0  0  0  0  0  0  0  0  0  0  0  0
  -26.1840  -14.1490   20.3270 C   0  0  0  0  0  0  0  0  0  0  0  0
  -25.0630  -13.4800   20.7420 C   0  0  0  0  0  0  0  0  0  0  0  0
  -25.3650  -12.0900   20.6120 C   0  0  0  0  0  0  0  0  0  0  0  0
  -27.1000  -13.1720   19.9720 N   0  0  0  0  0  0  0  0  0  0  0  0
  -26.6150  -11.9240   20.2010 N   0  0  0  0  0  0  0  0  0  0  0  0
  -24.5130  -10.9070   20.8000 C   0  0  0  0  0  0  0  0  0  0  0  0
  -24.8720   -9.8760   21.6980 C   0  0  0  0  0  3  0  0  0  0  0  0
  -24.0290   -8.7570   21.8740 C   0  0  0  0  0  3  0  0  0  0  0  0
  -22.8150   -8.6600   21.1560 C   0  0  0  0  0  0  0  0  0  0  0  0
  -22.4760   -9.6780   20.2480 C   0  0  0  0  0  3  0  0  0  0  0  0
  -23.3150  -10.7910   20.0690 C   0  0  0  0  0  3  0  0  0  0  0  0
  -21.9460   -7.5990   21.2440 O   0  0  0  0  0  0  0  0  0  0  0  0
  -21.8100   -6.8780   22.4030 C   0  0  0  0  0  0  0  0  0  0  0  0
  -21.3680   -7.4740   23.6040 C   0  0  0  0  0  3  0  0  0  0  0  0
  -21.1730   -6.6820   24.7540 C   0  0  0  0  0  3  0  0  0  0  0  0
  -21.4090   -5.2950   24.7010 C   0  0  0  0  0  0  0  0  0  0  0  0
  -21.8420   -4.6980   23.5030 C   0  0  0  0  0  3  0  0  0  0  0  0
  -22.0390   -5.4890   22.3570 C   0  0  0  0  0  0  0  0  0  0  0  0
  -22.4370   -4.9060   21.2000 F   0  0  0  0  0  0  0  0  0  0  0  0
  -21.2150   -4.5320   25.8020 F   0  0  0  0  0  0  0  0  0  0  0  0
  -23.7520  -14.0910   21.1430 C   0  0  0  0  0  0  0  0  0  0  0  0
  -23.0250  -13.4450   22.0480 N   0  0  0  0  0  0  0  0  0  0  0  0
  -23.3900  -15.1780   20.6910 O   0  0  0  0  0  0  0  0  0  0  0  0
  -23.3340  -12.5640   22.4330 H   0  0  0  0  0  0  0  0  0  0  0  0
  -22.1460  -13.8350   22.3570 H   0  0  0  0  0  0  0  0  0  0  0  0
  -26.4860  -15.5000   20.2000 N   0  0  0  0  0  0  0  0  0  0  0  0
  -25.7890  -16.2130   20.3810 H   0  0  0  0  0  0  0  0  0  0  0  0
  -27.3320  -15.8700   19.7850 H   0  0  0  0  0  0  0  0  0  0  0  0
  -33.3150  -21.3200   17.9830 C   0  0  0  0  0  1  0  0  0  0  0  0
  -32.0850  -21.3120   18.9130 C   0  0  0  0  0  3  0  0  0  0  0  0
  -31.5000  -22.7310   19.1970 C   0  0  0  0  0  3  0  0  0  0  0  0
  -31.3490  -23.4140   17.9610 O   0  0  0  0  0  0  0  0  0  0  0  0
  -30.7880  -22.8870   17.4000 H   0  0  0  0  0  0  0  0  0  0  0  0
  -30.1190  -22.7080   19.9060 C   0  0  0  0  0  2  0  0  0  0  0  0
  -29.9640  -23.7760   20.8430 O   0  0  0  0  0  0  0  0  0  0  0  0
  -29.9420  -25.0930   20.2890 C   0  0  0  0  0  2  0  0  0  0  0  0
  -28.5840  -25.7620   20.5530 C   0  0  0  0  0  2  0  0  0  0  0  0
  -28.6180  -27.1250   20.1220 O   0  0  0  0  0  0  0  0  0  0  0  0
  -24.5850  -31.9850   23.3820 C   0  0  0  0  0  0  0  0  0  0  0  0
  -27.4120  -27.7860   20.1510 C   0  0  0  0  0  0  0  0  0  0  0  0
  -23.4460  -30.6270   21.6560 C   0  0  0  0  0  3  0  0  0  0  0  0
  -24.9670  -29.1990   20.1890 C   0  0  0  0  0  0  0  0  0  0  0  0
  -25.9590  -31.0750   21.5150 C   0  0  0  0  0  2  0  0  0  0  0  0
  -26.0960  -29.7390   20.8170 C   0  0  0  0  0  0  0  0  0  0  0  0
  -27.3220  -29.0410   20.7920 C   0  0  0  0  0  3  0  0  0  0  0  0
  -26.2650  -27.2530   19.5220 C   0  0  0  0  0  3  0  0  0  0  0  0
  -25.0440  -27.9550   19.5400 C   0  0  0  0  0  3  0  0  0  0  0  0
  -23.6970  -30.0140   20.2510 C   0  0  0  0  0  2  0  0  0  0  0  0
  -24.6800  -31.2430   22.2440 N   0  0  0  0  0  0  0  0  0  0  0  0
  -23.4890  -32.2010   23.9180 O   0  0  0  0  0  0  0  0  0  0  0  0
  -22.8110  -29.5440   22.5580 C   0  0  0  0  0  0  0  0  0  0  0  0
  -21.5030  -29.2990   22.3680 N   0  0  0  0  0  0  0  0  0  0  0  0
  -23.4900  -28.9300   23.3830 O   0  0  0  0  0  0  0  0  0  0  0  0
  -21.0150  -29.8500   21.6760 H   0  0  0  0  0  0  0  0  0  0  0  0
  -18.1820  -27.9150   22.6750 C   0  0  0  0  0  0  0  0  0  0  0  0
  -20.7060  -28.2970   23.0750 C   0  0  0  0  0  3  0  0  0  0  0  0
  -20.9130  -26.8910   22.4630 C   0  0  0  0  0  2  0  0  0  0  0  0
  -19.8770  -26.5440   21.3900 C   0  0  0  0  0  2  0  0  0  0  0  0
  -18.4600  -26.5970   21.9730 C   0  0  0  0  0  2  0  0  0  0  0  0
  -19.2360  -28.7200   23.1780 C   0  0  0  0  0  0  0  0  0  0  0  0
  -18.9240  -29.9520   23.7930 C   0  0  0  0  0  3  0  0  0  0  0  0
  -17.5890  -30.3810   23.9070 C   0  0  0  0  0  3  0  0  0  0  0  0
  -16.5470  -29.5720   23.4220 C   0  0  0  0  0  3  0  0  0  0  0  0
  -16.8440  -28.3400   22.8130 C   0  0  0  0  0  3  0  0  0  0  0  0
  -25.8430  -32.6220   24.0510 C   0  0  0  0  0  3  0  0  0  0  0  0
  -26.2820  -31.8870   25.3760 C   0  0  1  0  0  0  0  0  0  0  0  0
  -25.1250  -31.6650   26.3770 C   0  0  0  0  0  1  0  0  0  0  0  0
  -26.8970  -30.5050   25.0530 C   0  0  0  0  0  1  0  0  0  0  0  0
  -27.3830  -32.7050   26.0940 C   0  0  0  0  0  1  0  0  0  0  0  0
  -25.5380  -34.0340   24.3170 N   0  0  0  0  0  0  0  0  0  0  0  0
  -25.9260  -35.0550   23.5410 C   0  0  0  0  0  0  0  0  0  0  0  0
  -26.6540  -34.9070   22.5550 O   0  0  0  0  0  0  0  0  0  0  0  0
  -24.9040  -34.2230   25.0800 H   0  0  0  0  0  0  0  0  0  0  0  0
  -24.2490  -36.8520   23.0220 C   0  0  0  0  0  1  0  0  0  0  0  0
  -25.4330  -36.4630   23.9220 C   0  0  0  0  0  3  0  0  0  0  0  0
  -27.5200  -37.3580   24.8560 C   0  0  0  0  0  1  0  0  0  0  0  0
  -26.4850  -37.4990   23.8350 N   0  0  0  0  0  0  0  0  0  0  0  0
  -26.0830  -38.4280   23.9210 H   0  0  0  0  0  0  0  0  0  0  0  0
  1  3  2  0
  1  5  1  0
  2  1  1  0
  4  2  1  0
  5  7  2  0
  5  6  1  0
  6 10  1  0
  6  8  1  0
 10  9  1  0
 11 12  2  0
 12 10  1  0
 13 19  1  0
 13 22  1  0
 14 19  1  0
 15 16  1  0
 15 14  1  0
 17 16  1  0
 17 28  1  0
 17 18  1  0
 19 18  1  0
 20 13  2  0
 21 11  1  0
 22 21  1  0
 22 24  1  0
 23 21  2  0
 25 26  2  0
 26 45  1  0
 27 26  1  0
 27 30  1  0
 28 29  1  0
 28 25  1  0
 29 27  2  0
 30 31  1  0
 31 32  2  0
 33 36  1  0
 33 32  1  0
 34 33  2  0
 35 34  1  0
 35 30  2  0
 36 37  1  0
 37 38  1  0
 38 39  2  0
 40 39  1  0
 40 44  1  0
 41 40  2  0
 42 37  2  0
 42 41  1  0
 43 42  1  0
 45 46  1  0
 46 49  1  0
 46 48  1  0
 47 45  2  0
 50 25  1  0
 50 51  1  0
 52 50  1  0
 54 53  1  0
 54 55  1  0
 54  2  1  0
 55 58  1  0
 56 55  1  0
 57 56  1  0
 58 59  1  0
 60 61  1  0
 60 59  1  0
 62 64  1  0
 62 61  1  0
 63 74  2  0
 64 69  1  0
 65 73  1  0
 65 75  1  0
 66 72  1  0
 66 68  1  0
 67 73  1  0
 68 67  1  0
 69 68  2  0
 70 71  1  0
 70 64  2  0
 71 66  2  0
 72 65  1  0
 73 63  1  0
 75 77  2  0
 76 75  1  0
 78 76  1  0
 79 88  2  0
 79 84  1  0
 80 76  1  0
 80 84  1  0
 81 80  1  0
 82 83  1  0
 82 81  1  0
 83 79  1  0
 84 85  2  0
 85 86  1  0
 87 86  2  0
 88 87  1  0
 89 63  1  0
 89 94  1  0
 89 90  1  0
 90 93  1  1
 90 91  1  0
 92 90  1  0
 94 97  1  0
 95 99  1  0
 95 94  1  0
 96 95  2  0
 99 98  1  0
101102  1  0
101 99  1  0
101100  1  0
M  ISO  4  13 100  22 100  61 101  62 101
M  END
>  <TORSDO>  (6) 
F 26

>  <SCORE>  (6) 
-10.430

>  <name>  (6) 
5

>  <ligand_id>  (6) 
5

>  <original_smiles>  (6) 
[H]OC([H])(C([H])([H])OC([H])([H])C([H])([H])Oc1c([H])c([H])c2c(c1[H])C([H])([H])N(C(=O)C([H])(N([H])C(=O)C([H])(N([H])C([H])([H])[H])C([H])([H])[H])C(C([H])([H])[H])(C([H])([H])[H])C([H])([H])[H])C([H])(C(=O)N([H])C1([H])c3c([H])c([H])c([H])c([H])c3C([H])([H])C([H])([H])C1([H])[H])C2([H])[H])C([H])(N([H])C(=O)C(=O)N([H])C([H])(C([H])=C([H])C(=O)N([H])C(=O)N1C([H])([H])C([H])([H])C([H])([H])C([H])(n2nc(-c3c([H])c([H])c(Oc4c([H])c([H])c(F)c([H])c4F)c([H])c3[H])c(C(=O)N([H])[H])c2N([H])[H])C1([H])[H])C([H])([H])[H])C([H])([H])[H]

>  <smiles>  (6) 
[H]OC([H])(C([H])([H])OC([H])([H])C([H])([H])Oc1c([H])c([H])c2c(c1[H])C([H])([H])N(C(=O)C([H])(N([H])C(=O)C([H])(N([H])C([H])([H])[H])C([H])([H])[H])C(C([H])([H])[H])(C([H])([H])[H])C([H])([H])[H])C([H])(C(=O)N([H])C1([H])c3c([H])c([H])c([H])c([H])c3C([H])([H])C([H])([H])C1([H])[H])C2([H])[H])C([H])(N([H])C(=O)C(=O)N([H])C([H])(C([H])=C([H])C(=O)N([H])C(=O)N1C([H])([H])C([H])([H])C([H])([H])C([H])(n2nc(-c3c([H])c([H])c(Oc4c([H])c([H])c(F)c([H])c4F)c([H])c3[H])c(C(=O)N([H])[H])c2N([H])[H])C1([H])[H])C([H])([H])[H])C([H])([H])[H]

$$$$
6:0:0
     RDKit          3D

102109  0  0  1  0  0  0  0  0999 V2000
  -27.9640  -21.1350   21.5940 C   0  0  0  0  0  2  0  0  0  0  0  0
  -26.9060  -22.1000   21.0150 C   0  0  0  0  0  2  0  0  0  0  0  0
  -26.9300  -23.5280   21.6040 C   0  0  0  0  0  2  0  0  0  0  0  0
  -27.6510  -25.8160   20.9080 C   0  0  0  0  0  0  0  0  0  0  0  0
  -27.6880  -24.4730   20.7710 N   0  0  0  0  0  0  0  0  0  0  0  0
  -26.9360  -26.3610   21.7540 O   0  0  0  0  0  0  0  0  0  0  0  0
  -28.3050  -24.0880   20.0680 H   0  0  0  0  0  0  0  0  0  0  0  0
  -28.5540  -26.6950   19.9850 C   0  0  0  0  0  3  0  0  0  0  0  0
  -30.8220  -26.9410   18.8270 C   0  0  0  0  0  1  0  0  0  0  0  0
  -30.6900  -25.6080   20.9690 C   0  0  0  0  0  1  0  0  0  0  0  0
  -29.9290  -26.0250   19.6850 C   0  0  0  0  0  3  0  0  0  0  0  0
  -27.8580  -27.0590   18.7560 O   0  0  0  0  0  0  0  0  0  0  0  0
  -24.4480  -31.7060   22.8800 C   0  0  0  0  0  0  0  0  0  0  0  0
  -26.7390  -27.8570   18.9140 C   0  0  0  0  0  0  0  0  0  0  0  0
  -23.0640  -30.5630   21.1710 C   0  0  0  0  0  3  0  0  0  0  0  0
  -24.3580  -29.3260   19.3480 C   0  0  0  0  0  0  0  0  0  0  0  0
  -25.5440  -31.0210   20.7460 C   0  0  0  0  0  2  0  0  0  0  0  0
  -25.5680  -29.7660   19.9000 C   0  0  0  0  0  0  0  0  0  0  0  0
  -26.7610  -29.0400   19.6840 C   0  0  0  0  0  3  0  0  0  0  0  0
  -25.5240  -27.4490   18.3230 C   0  0  0  0  0  3  0  0  0  0  0  0
  -24.3340  -28.1740   18.5410 C   0  0  0  0  0  3  0  0  0  0  0  0
  -23.1140  -30.1230   19.6800 C   0  0  0  0  0  2  0  0  0  0  0  0
  -24.3770  -31.1020   21.6590 N   0  0  0  0  0  0  0  0  0  0  0  0
  -23.4370  -31.8660   23.5750 O   0  0  0  0  0  0  0  0  0  0  0  0
  -22.5250  -29.3880   22.0210 C   0  0  0  0  0  0  0  0  0  0  0  0
  -21.1980  -29.1770   21.9850 N   0  0  0  0  0  0  0  0  0  0  0  0
  -23.2920  -28.6770   22.6770 O   0  0  0  0  0  0  0  0  0  0  0  0
  -20.6440  -29.7890   21.4020 H   0  0  0  0  0  0  0  0  0  0  0  0
  -17.9190  -27.7820   22.5600 C   0  0  0  0  0  0  0  0  0  0  0  0
  -20.4770  -28.1130   22.6880 C   0  0  0  0  0  3  0  0  0  0  0  0
  -20.5780  -26.7670   21.9280 C   0  0  0  0  0  2  0  0  0  0  0  0
  -19.4250  -26.5530   20.9450 C   0  0  0  0  0  2  0  0  0  0  0  0
  -18.0940  -26.5410   21.7020 C   0  0  0  0  0  2  0  0  0  0  0  0
  -19.0400  -28.5290   23.0130 C   0  0  0  0  0  0  0  0  0  0  0  0
  -18.8200  -29.6850   23.7930 C   0  0  0  0  0  3  0  0  0  0  0  0
  -17.5150  -30.0960   24.1190 C   0  0  0  0  0  3  0  0  0  0  0  0
  -16.4120  -29.3480   23.6780 C   0  0  0  0  0  3  0  0  0  0  0  0
  -16.6140  -28.1920   22.9040 C   0  0  0  0  0  3  0  0  0  0  0  0
  -25.7950  -32.2480   23.4490 C   0  0  0  0  0  3  0  0  0  0  0  0
  -25.5310  -33.5660   24.0440 N   0  0  0  0  0  0  0  0  0  0  0  0
  -25.8170  -34.7370   23.4590 C   0  0  0  0  0  0  0  0  0  0  0  0
  -26.4140  -34.8190   22.3810 O   0  0  0  0  0  0  0  0  0  0  0  0
  -24.9980  -33.5730   24.9000 H   0  0  0  0  0  0  0  0  0  0  0  0
  -24.0950  -36.5700   23.5400 C   0  0  0  0  0  1  0  0  0  0  0  0
  -25.3780  -36.0250   24.1850 C   0  0  0  0  0  3  0  0  0  0  0  0
  -27.5760  -36.7320   25.0150 C   0  0  0  0  0  1  0  0  0  0  0  0
  -26.4170  -37.0780   24.1980 N   0  0  0  0  0  0  0  0  0  0  0  0
  -26.0370  -37.9520   24.5500 H   0  0  0  0  0  0  0  0  0  0  0  0
  -26.4610  -31.2800   24.5030 C   0  0  1  0  0  0  0  0  0  0  0  0
  -25.4990  -30.8270   25.6260 C   0  0  0  0  0  1  0  0  0  0  0  0
  -26.9950  -30.0060   23.8060 C   0  0  0  0  0  1  0  0  0  0  0  0
  -27.6720  -31.9780   25.1670 C   0  0  0  0  0  1  0  0  0  0  0  0
  -29.3000  -21.0440   20.8130 C   0  0  0  0  0  2  0  0  0  0  0  0
  -29.3850  -19.8470   19.8240 C   0  0  0  0  0  3  0  0  0  0  0  0
  -30.4640  -17.8020   20.7910 C   0  0  0  0  0  0  0  0  0  0  0  0
  -29.4030  -18.5670   20.5300 N   0  0  0  0  0  0  0  0  0  0  0  0
  -31.6290  -18.1800   20.6410 O   0  0  0  0  0  0  0  0  0  0  0  0
  -28.4850  -18.1850   20.7210 H   0  0  0  0  0  0  0  0  0  0  0  0
  -29.8670  -16.4290   22.7910 C   0  0  0  0  0  1  0  0  0  0  0  0
  -30.1610  -16.3780   21.2780 C   0  0  0  0  0  3  0  0  0  0  0  0
  -31.5750  -14.7350   20.0250 C   0  0  0  0  0  0  0  0  0  0  0  0
  -31.1460  -12.5750   18.9080 C   0  0  0  0  0  2  0  0  0  0  0  0
  -30.1340  -12.7050   17.7520 C   0  0  0  0  0  2  0  0  0  0  0  0
  -28.6920  -12.5820   18.2740 C   0  0  0  0  0  2  0  0  0  0  0  0
  -28.4360  -13.5080   19.4900 C   0  0  0  0  0  3  0  0  0  0  0  0
  -29.5390  -13.3140   20.5580 C   0  0  0  0  0  2  0  0  0  0  0  0
  -30.8390  -13.5930   19.9240 N   0  0  0  0  0  0  0  0  0  0  0  0
  -32.5660  -14.9500   19.3190 O   0  0  0  0  0  0  0  0  0  0  0  0
  -31.3470  -15.5420   21.0690 N   0  0  0  0  0  0  0  0  0  0  0  0
  -32.1540  -16.1410   21.1850 H   0  0  0  0  0  0  0  0  0  0  0  0
  -26.1430  -14.2160   20.4280 C   0  0  0  0  0  0  0  0  0  0  0  0
  -25.0560  -13.4890   20.8240 C   0  0  0  0  0  0  0  0  0  0  0  0
  -25.4160  -12.1160   20.6490 C   0  0  0  0  0  0  0  0  0  0  0  0
  -27.1040  -13.2910   20.0500 N   0  0  0  0  0  0  0  0  0  0  0  0
  -26.6710  -12.0190   20.2350 N   0  0  0  0  0  0  0  0  0  0  0  0
  -24.6200  -10.8920   20.7960 C   0  0  0  0  0  0  0  0  0  0  0  0
  -24.9940   -9.8700   21.6970 C   0  0  0  0  0  3  0  0  0  0  0  0
  -24.2040   -8.7070   21.8280 C   0  0  0  0  0  3  0  0  0  0  0  0
  -23.0260   -8.5600   21.0600 C   0  0  0  0  0  0  0  0  0  0  0  0
  -22.6720   -9.5670   20.1460 C   0  0  0  0  0  3  0  0  0  0  0  0
  -23.4610  -10.7210   20.0120 C   0  0  0  0  0  3  0  0  0  0  0  0
  -22.2090   -7.4560   21.1060 O   0  0  0  0  0  0  0  0  0  0  0  0
  -22.0290   -6.7420   22.2640 C   0  0  0  0  0  0  0  0  0  0  0  0
  -21.5490   -7.3480   23.4460 C   0  0  0  0  0  3  0  0  0  0  0  0
  -21.3120   -6.5610   24.5920 C   0  0  0  0  0  3  0  0  0  0  0  0
  -21.5440   -5.1730   24.5540 C   0  0  0  0  0  0  0  0  0  0  0  0
  -22.0160   -4.5700   23.3770 C   0  0  0  0  0  3  0  0  0  0  0  0
  -22.2540   -5.3510   22.2330 C   0  0  0  0  0  0  0  0  0  0  0  0
  -22.6880   -4.7610   21.0930 F   0  0  0  0  0  0  0  0  0  0  0  0
  -21.3100   -4.4160   25.6520 F   0  0  0  0  0  0  0  0  0  0  0  0
  -23.7210  -14.0270   21.2510 C   0  0  0  0  0  0  0  0  0  0  0  0
  -23.0430  -13.3270   22.1510 N   0  0  0  0  0  0  0  0  0  0  0  0
  -23.2970  -15.0990   20.8180 O   0  0  0  0  0  0  0  0  0  0  0  0
  -23.4020  -12.4550   22.5110 H   0  0  0  0  0  0  0  0  0  0  0  0
  -22.1490  -13.6630   22.4800 H   0  0  0  0  0  0  0  0  0  0  0  0
  -26.3920  -15.5840   20.3300 N   0  0  0  0  0  0  0  0  0  0  0  0
  -25.6400  -16.2560   20.4370 H   0  0  0  0  0  0  0  0  0  0  0  0
  -27.1860  -15.9710   19.8400 H   0  0  0  0  0  0  0  0  0  0  0  0
  -28.2650  -19.8010   18.7680 C   0  0  0  0  0  0  0  0  0  0  0  0
  -27.4670  -18.8630   18.6660 O   0  0  0  0  0  0  0  0  0  0  0  0
  -27.2620  -21.0530   16.9970 C   0  0  0  0  0  1  0  0  0  0  0  0
  -28.2630  -20.8970   17.9970 O   0  0  0  0  0  0  0  0  0  0  0  0
  2  1  1  0
  2  3  1  0
  4  6  2  0
  5  4  1  0
  5  3  1  0
  7  5  1  0
  8 12  1  0
  8  4  1  0
  9 11  1  0
 11  8  1  0
 11 10  1  0
 12 14  1  0
 13 24  2  0
 14 19  1  0
 15 23  1  0
 15 25  1  0
 16 22  1  0
 16 18  1  0
 17 23  1  0
 18 17  1  0
 19 18  2  0
 20 21  1  0
 20 14  2  0
 21 16  2  0
 22 15  1  0
 23 13  1  0
 25 27  2  0
 26 25  1  0
 28 26  1  0
 29 38  2  0
 29 34  1  0
 30 26  1  0
 30 34  1  0
 31 30  1  0
 32 33  1  0
 32 31  1  0
 33 29  1  0
 34 35  2  0
 35 36  1  0
 37 36  2  0
 38 37  1  0
 39 13  1  0
 39 40  1  0
 39 49  1  0
 40 43  1  0
 41 40  1  0
 41 45  1  0
 42 41  2  0
 45 44  1  0
 45 47  1  0
 47 48  1  0
 47 46  1  0
 49 52  1  1
 49 50  1  0
 51 49  1  0
 53  1  1  0
 54 56  1  0
 54 53  1  0
 55 60  1  0
 56 58  1  0
 56 55  1  0
 57 55  2  0
 60 59  1  0
 61 69  1  0
 62 67  1  0
 63 64  1  0
 63 62  1  0
 65 64  1  0
 65 74  1  0
 65 66  1  0
 67 61  1  0
 67 66  1  0
 68 61  2  0
 69 70  1  0
 69 60  1  0
 71 72  2  0
 72 91  1  0
 73 76  1  0
 73 72  1  0
 74 75  1  0
 74 71  1  0
 75 73  2  0
 76 77  1  0
 77 78  2  0
 79 82  1  0
 79 78  1  0
 80 79  2  0
 81 80  1  0
 81 76  2  0
 82 83  1  0
 83 84  1  0
 84 85  2  0
 86 85  1  0
 86 90  1  0
 87 86  2  0
 88 83  2  0
 88 87  1  0
 89 88  1  0
 91 92  1  0
 92 95  1  0
 92 94  1  0
 93 91  2  0
 96 71  1  0
 96 97  1  0
 98 96  1  0
 99 54  1  0
100 99  2  0
101102  1  0
102 99  1  0
M  ISO  4   8 101  12 101  61 100  69 100
M  END
>  <TORSDO>  (7) 
F 27

>  <SCORE>  (7) 
-7.811

>  <name>  (7) 
6

>  <ligand_id>  (7) 
6

>  <original_smiles>  (7) 
[H]c1c([H])c([H])c2c(c1[H])C([H])([H])C([H])([H])C([H])([H])C2([H])N([H])C(=O)C1([H])N(C(=O)C([H])(N([H])C(=O)C([H])(N([H])C([H])([H])[H])C([H])([H])[H])C(C([H])([H])[H])(C([H])([H])[H])C([H])([H])[H])C([H])([H])c2c([H])c(OC([H])(C(=O)N([H])C([H])([H])C([H])([H])C([H])([H])C([H])([H])C([H])(C(=O)OC([H])([H])[H])N([H])C(=O)C([H])(N([H])C(=O)N3C([H])([H])C([H])([H])C([H])([H])C([H])(n4nc(-c5c([H])c([H])c(Oc6c([H])c([H])c(F)c([H])c6F)c([H])c5[H])c(C(=O)N([H])[H])c4N([H])[H])C3([H])[H])C([H])([H])[H])C([H])(C([H])([H])[H])C([H])([H])[H])c([H])c([H])c2C1([H])[H]

>  <smiles>  (7) 
[H]c1c([H])c([H])c2c(c1[H])C([H])([H])C([H])([H])C([H])([H])C2([H])N([H])C(=O)C1([H])N(C(=O)C([H])(N([H])C(=O)C([H])(N([H])C([H])([H])[H])C([H])([H])[H])C(C([H])([H])[H])(C([H])([H])[H])C([H])([H])[H])C([H])([H])c2c([H])c(OC([H])(C(=O)N([H])C([H])([H])C([H])([H])C([H])([H])C([H])([H])C([H])(C(=O)OC([H])([H])[H])N([H])C(=O)C([H])(N([H])C(=O)N3C([H])([H])C([H])([H])C([H])([H])C([H])(n4nc(-c5c([H])c([H])c(Oc6c([H])c([H])c(F)c([H])c6F)c([H])c5[H])c(C(=O)N([H])[H])c4N([H])[H])C3([H])[H])C([H])([H])[H])C([H])(C([H])([H])[H])C([H])([H])[H])c([H])c([H])c2C1([H])[H]

$$$$
7:0:0
     RDKit          3D

104111  0  0  1  0  0  0  0  0999 V2000
  -29.7710  -20.7270   20.4660 C   0  0  0  0  0  3  0  0  0  0  0  0
  -30.3410  -18.2180   20.4060 C   0  0  0  0  0  0  0  0  0  0  0  0
  -30.6130  -19.5260   20.2240 N   0  0  0  0  0  0  0  0  0  0  0  0
  -29.2400  -17.7990   20.7640 O   0  0  0  0  0  0  0  0  0  0  0  0
  -31.5430  -19.7300   19.8860 H   0  0  0  0  0  0  0  0  0  0  0  0
  -31.4910  -17.2070   20.1870 C   0  0  0  0  0  3  0  0  0  0  0  0
  -31.5720  -14.7600   19.6690 C   0  0  0  0  0  0  0  0  0  0  0  0
  -31.1440  -12.4990   18.7890 C   0  0  0  0  0  2  0  0  0  0  0  0
  -30.1290  -12.5590   17.6290 C   0  0  0  0  0  2  0  0  0  0  0  0
  -28.6880  -12.5120   18.1700 C   0  0  0  0  0  2  0  0  0  0  0  0
  -28.4410  -13.5310   19.3160 C   0  0  0  0  0  3  0  0  0  0  0  0
  -29.5530  -13.4350   20.3850 C   0  0  0  0  0  2  0  0  0  0  0  0
  -30.8490  -13.6110   19.7060 N   0  0  0  0  0  0  0  0  0  0  0  0
  -32.6500  -14.8660   19.0810 O   0  0  0  0  0  0  0  0  0  0  0  0
  -30.9820  -15.8290   20.2170 N   0  0  0  0  0  0  0  0  0  0  0  0
  -30.0670  -15.7160   20.6280 H   0  0  0  0  0  0  0  0  0  0  0  0
  -26.1750  -14.3190   20.2540 C   0  0  0  0  0  0  0  0  0  0  0  0
  -25.0700  -13.6300   20.6780 C   0  0  0  0  0  0  0  0  0  0  0  0
  -25.3950  -12.2460   20.5420 C   0  0  0  0  0  0  0  0  0  0  0  0
  -27.1110  -13.3620   19.8980 N   0  0  0  0  0  0  0  0  0  0  0  0
  -26.6470  -12.1070   20.1250 N   0  0  0  0  0  0  0  0  0  0  0  0
  -24.5650  -11.0500   20.7290 C   0  0  0  0  0  0  0  0  0  0  0  0
  -24.9300  -10.0330   21.6370 C   0  0  0  0  0  3  0  0  0  0  0  0
  -24.1070   -8.8970   21.8120 C   0  0  0  0  0  3  0  0  0  0  0  0
  -22.9040   -8.7710   21.0790 C   0  0  0  0  0  0  0  0  0  0  0  0
  -22.5560   -9.7760   20.1590 C   0  0  0  0  0  3  0  0  0  0  0  0
  -23.3760  -10.9020   19.9820 C   0  0  0  0  0  3  0  0  0  0  0  0
  -22.0590   -7.6910   21.1660 O   0  0  0  0  0  0  0  0  0  0  0  0
  -21.9010   -6.9950   22.3360 C   0  0  0  0  0  0  0  0  0  0  0  0
  -21.4450   -7.6180   23.5190 C   0  0  0  0  0  3  0  0  0  0  0  0
  -21.2300   -6.8500   24.6810 C   0  0  0  0  0  3  0  0  0  0  0  0
  -21.4590   -5.4610   24.6600 C   0  0  0  0  0  0  0  0  0  0  0  0
  -21.9050   -4.8380   23.4800 C   0  0  0  0  0  3  0  0  0  0  0  0
  -22.1220   -5.6030   22.3220 C   0  0  0  0  0  0  0  0  0  0  0  0
  -22.5340   -4.9960   21.1820 F   0  0  0  0  0  0  0  0  0  0  0  0
  -21.2440   -4.7200   25.7720 F   0  0  0  0  0  0  0  0  0  0  0  0
  -23.7550  -14.2180   21.0970 C   0  0  0  0  0  0  0  0  0  0  0  0
  -23.0420  -13.5550   22.0010 N   0  0  0  0  0  0  0  0  0  0  0  0
  -23.3710  -15.3010   20.6570 O   0  0  0  0  0  0  0  0  0  0  0  0
  -23.3660  -12.6770   22.3830 H   0  0  0  0  0  0  0  0  0  0  0  0
  -22.1650  -13.9400   22.3250 H   0  0  0  0  0  0  0  0  0  0  0  0
  -26.4570  -15.6740   20.1200 N   0  0  0  0  0  0  0  0  0  0  0  0
  -25.7600  -16.3880   20.2990 H   0  0  0  0  0  0  0  0  0  0  0  0
  -27.3300  -16.0520   19.7710 H   0  0  0  0  0  0  0  0  0  0  0  0
  -32.6780  -17.3350   21.1700 C   0  0  0  0  0  2  0  0  0  0  0  0
  -32.2990  -17.0840   22.5200 O   0  0  0  0  0  0  0  0  0  0  0  0
  -31.5790  -17.6600   22.7490 H   0  0  0  0  0  0  0  0  0  0  0  0
  -28.2340  -20.4490   20.4080 C   0  0  0  0  0  0  0  0  0  0  0  0
  -27.4530  -20.9280   19.4260 N   0  0  0  0  0  0  0  0  0  0  0  0
  -27.6840  -19.7880   21.2860 O   0  0  0  0  0  0  0  0  0  0  0  0
  -26.4810  -20.6860   19.5310 H   0  0  0  0  0  0  0  0  0  0  0  0
  -27.7510  -21.7140   18.2310 C   0  0  0  0  0  2  0  0  0  0  0  0
  -27.1690  -23.1360   18.3460 C   0  0  0  0  0  2  0  0  0  0  0  0
  -27.7860  -23.8420   19.4210 O   0  0  0  0  0  0  0  0  0  0  0  0
  -28.9190  -24.6030   19.0110 C   0  0  0  0  0  2  0  0  0  0  0  0
  -28.5170  -25.9830   18.4390 C   0  0  0  0  0  2  0  0  0  0  0  0
  -28.2460  -26.9220   19.4850 O   0  0  0  0  0  0  0  0  0  0  0  0
  -24.4650  -31.6890   23.1120 C   0  0  0  0  0  0  0  0  0  0  0  0
  -27.0410  -27.5930   19.5320 C   0  0  0  0  0  0  0  0  0  0  0  0
  -23.3660  -30.1460   21.5160 C   0  0  0  0  0  3  0  0  0  0  0  0
  -24.6360  -29.0620   19.6890 C   0  0  0  0  0  0  0  0  0  0  0  0
  -25.7200  -30.8860   21.0830 C   0  0  0  0  0  2  0  0  0  0  0  0
  -25.8110  -29.5790   20.2780 C   0  0  0  0  0  0  0  0  0  0  0  0
  -27.0030  -28.8280   20.2170 C   0  0  0  0  0  3  0  0  0  0  0  0
  -25.8480  -27.0880   18.9660 C   0  0  0  0  0  3  0  0  0  0  0  0
  -24.6460  -27.8140   19.0480 C   0  0  0  0  0  3  0  0  0  0  0  0
  -23.3350  -29.7770   20.0130 C   0  0  0  0  0  2  0  0  0  0  0  0
  -24.4870  -31.0290   21.9200 N   0  0  0  0  0  0  0  0  0  0  0  0
  -23.4050  -31.8630   23.7310 O   0  0  0  0  0  0  0  0  0  0  0  0
  -22.5470  -29.2790   22.4930 C   0  0  0  0  0  0  0  0  0  0  0  0
  -21.2560  -29.0700   22.2350 N   0  0  0  0  0  0  0  0  0  0  0  0
  -23.1140  -28.6770   23.4190 O   0  0  0  0  0  0  0  0  0  0  0  0
  -20.8130  -29.5580   21.4690 H   0  0  0  0  0  0  0  0  0  0  0  0
  -17.9530  -27.6800   22.6860 C   0  0  0  0  0  0  0  0  0  0  0  0
  -20.4780  -28.0590   22.9510 C   0  0  0  0  0  3  0  0  0  0  0  0
  -20.6680  -26.6630   22.3160 C   0  0  0  0  0  2  0  0  0  0  0  0
  -19.5840  -26.3180   21.2950 C   0  0  0  0  0  2  0  0  0  0  0  0
  -18.2010  -26.3690   21.9530 C   0  0  0  0  0  2  0  0  0  0  0  0
  -19.0300  -28.4820   23.1390 C   0  0  0  0  0  0  0  0  0  0  0  0
  -18.7630  -29.7030   23.7930 C   0  0  0  0  0  3  0  0  0  0  0  0
  -17.4390  -30.1280   23.9980 C   0  0  0  0  0  3  0  0  0  0  0  0
  -16.3720  -29.3230   23.5630 C   0  0  0  0  0  3  0  0  0  0  0  0
  -16.6290  -28.1030   22.9130 C   0  0  0  0  0  3  0  0  0  0  0  0
  -25.7670  -32.2880   23.7250 C   0  0  0  0  0  3  0  0  0  0  0  0
  -25.4830  -33.6800   24.0920 N   0  0  0  0  0  0  0  0  0  0  0  0
  -25.8490  -34.7410   23.3620 C   0  0  0  0  0  0  0  0  0  0  0  0
  -26.5270  -34.6480   22.3340 O   0  0  0  0  0  0  0  0  0  0  0  0
  -24.8830  -33.8270   24.8920 H   0  0  0  0  0  0  0  0  0  0  0  0
  -24.1710  -36.5840   23.0280 C   0  0  0  0  0  1  0  0  0  0  0  0
  -25.3880  -36.1280   23.8490 C   0  0  0  0  0  3  0  0  0  0  0  0
  -27.5250  -36.9370   24.7470 C   0  0  0  0  0  1  0  0  0  0  0  0
  -26.4490  -37.1560   23.7840 N   0  0  0  0  0  0  0  0  0  0  0  0
  -26.0610  -38.0820   23.9500 H   0  0  0  0  0  0  0  0  0  0  0  0
  -26.2940  -31.4770   24.9720 C   0  0  1  0  0  0  0  0  0  0  0  0
  -25.2190  -31.2390   26.0580 C   0  0  0  0  0  1  0  0  0  0  0  0
  -26.8410  -30.0980   24.5330 C   0  0  0  0  0  1  0  0  0  0  0  0
  -27.4720  -32.2350   25.6300 C   0  0  0  0  0  1  0  0  0  0  0  0
  -29.3270  -22.7240   22.0500 C   0  0  0  0  0  1  0  0  0  0  0  0
  -30.3200  -20.6500   23.0340 C   0  0  0  0  0  1  0  0  0  0  0  0
  -30.2610  -21.5180   21.7500 C   0  0  1  0  0  0  0  0  0  0  0  0
  -31.6250  -22.0430   21.4910 N   0  0  0  0  0  4  0  0  0  0  0  0
  -31.9440  -22.6180   22.2550 H   0  0  0  0  0  0  0  0  0  0  0  0
  -32.2900  -21.3030   21.3580 H   0  0  0  0  0  0  0  0  0  0  0  0
  -31.6420  -22.6210   20.6680 H   0  0  0  0  0  0  0  0  0  0  0  0
  1 48  1  0
  1100  1  0
  2  4  2  0
  3  2  1  0
  3  1  1  0
  5  3  1  0
  6 15  1  0
  6  2  1  0
  6 45  1  0
  7 13  1  0
  7 15  1  0
  8 13  1  0
  9 10  1  0
  9  8  1  0
 11 10  1  0
 11 20  1  0
 11 12  1  0
 13 12  1  0
 14  7  2  0
 15 16  1  0
 17 18  2  0
 18 37  1  0
 19 18  1  0
 19 22  1  0
 20 21  1  0
 20 17  1  0
 21 19  2  0
 22 23  1  0
 23 24  2  0
 25 28  1  0
 25 24  1  0
 26 25  2  0
 27 26  1  0
 27 22  2  0
 28 29  1  0
 29 30  1  0
 30 31  2  0
 32 31  1  0
 32 36  1  0
 33 32  2  0
 34 29  2  0
 34 33  1  0
 35 34  1  0
 37 38  1  0
 38 41  1  0
 38 40  1  0
 39 37  2  0
 42 17  1  0
 42 43  1  0
 44 42  1  0
 45 46  1  0
 46 47  1  0
 48 50  2  0
 49 51  1  0
 49 48  1  0
 52 53  1  0
 52 49  1  0
 53 54  1  0
 55 54  1  0
 56 55  1  0
 56 57  1  0
 57 59  1  0
 58 69  2  0
 59 64  1  0
 60 68  1  0
 60 70  1  0
 61 67  1  0
 61 63  1  0
 62 68  1  0
 63 62  1  0
 64 63  2  0
 65 66  1  0
 65 59  2  0
 66 61  2  0
 67 60  1  0
 68 58  1  0
 70 72  2  0
 71 70  1  0
 73 71  1  0
 74 83  2  0
 74 79  1  0
 75 71  1  0
 75 79  1  0
 76 75  1  0
 77 78  1  0
 77 76  1  0
 78 74  1  0
 79 80  2  0
 80 81  1  0
 82 81  2  0
 83 82  1  0
 84 58  1  0
 84 85  1  0
 84 94  1  0
 85 88  1  0
 86 90  1  0
 86 85  1  0
 87 86  2  0
 90 89  1  0
 92 90  1  0
 92 93  1  0
 92 91  1  0
 94 97  1  1
 94 95  1  0
 96 94  1  0
100 98  1  1
100 99  1  0
101100  1  0
101102  1  0
103101  1  0
104101  1  0
M  ISO  4   7 100  15 100  56 101  57 101
M  END
>  <TORSDO>  (8) 
F 28

>  <SCORE>  (8) 
-8.523

>  <name>  (8) 
7

>  <ligand_id>  (8) 
7

>  <original_smiles>  (8) 
[H]OC([H])([H])C([H])(C(=O)N([H])C([H])(C(=O)N([H])C([H])([H])C([H])([H])OC([H])([H])C([H])([H])Oc1c([H])c([H])c2c(c1[H])C([H])([H])N(C(=O)C([H])(N([H])C(=O)C([H])(N([H])C([H])([H])[H])C([H])([H])[H])C(C([H])([H])[H])(C([H])([H])[H])C([H])([H])[H])C([H])(C(=O)N([H])C1([H])c3c([H])c([H])c([H])c([H])c3C([H])([H])C([H])([H])C1([H])[H])C2([H])[H])C(C([H])([H])[H])(C([H])([H])[H])[N+]([H])([H])[H])N([H])C(=O)N1C([H])([H])C([H])([H])C([H])([H])C([H])(n2nc(-c3c([H])c([H])c(Oc4c([H])c([H])c(F)c([H])c4F)c([H])c3[H])c(C(=O)N([H])[H])c2N([H])[H])C1([H])[H]

>  <smiles>  (8) 
[H]OC([H])([H])C([H])(C(=O)N([H])C([H])(C(=O)N([H])C([H])([H])C([H])([H])OC([H])([H])C([H])([H])Oc1c([H])c([H])c2c(c1[H])C([H])([H])N(C(=O)C([H])(N([H])C(=O)C([H])(N([H])C([H])([H])[H])C([H])([H])[H])C(C([H])([H])[H])(C([H])([H])[H])C([H])([H])[H])C([H])(C(=O)N([H])C1([H])c3c([H])c([H])c([H])c([H])c3C([H])([H])C([H])([H])C1([H])[H])C2([H])[H])C(C([H])([H])[H])(C([H])([H])[H])[N+]([H])([H])[H])N([H])C(=O)N1C([H])([H])C([H])([H])C([H])([H])C([H])(n2nc(-c3c([H])c([H])c(Oc4c([H])c([H])c(F)c([H])c4F)c([H])c3[H])c(C(=O)N([H])[H])c2N([H])[H])C1([H])[H]

$$$$
8:0:0
     RDKit          3D

104111  0  0  1  0  0  0  0  0999 V2000
  -31.6290  -20.0460   21.9250 C   0  0  0  0  0  3  0  0  0  0  0  0
  -30.9850  -17.7360   21.1180 C   0  0  0  0  0  0  0  0  0  0  0  0
  -30.7290  -19.0270   21.3790 N   0  0  0  0  0  0  0  0  0  0  0  0
  -32.0270  -17.1850   21.4700 O   0  0  0  0  0  0  0  0  0  0  0  0
  -29.8370  -19.3850   21.0700 H   0  0  0  0  0  0  0  0  0  0  0  0
  -29.8780  -16.9680   20.3450 C   0  0  0  0  0  0  0  0  0  0  0  0
  -30.5490  -14.4790   20.1440 C   0  0  0  0  0  0  0  0  0  0  0  0
  -30.2000  -12.3370   18.9830 C   0  0  0  0  0  2  0  0  0  0  0  0
  -29.2110  -12.5860   17.8230 C   0  0  0  0  0  2  0  0  0  0  0  0
  -27.7450  -12.4870   18.3050 C   0  0  0  0  0  2  0  0  0  0  0  0
  -27.4780  -13.2440   19.6360 C   0  0  0  0  0  3  0  0  0  0  0  0
  -28.5880  -12.9670   20.6740 C   0  0  0  0  0  2  0  0  0  0  0  0
  -29.8840  -13.2930   20.0530 N   0  0  0  0  0  0  0  0  0  0  0  0
  -31.6540  -14.6610   19.6330 O   0  0  0  0  0  0  0  0  0  0  0  0
  -29.8110  -15.5040   20.6200 N   0  0  0  0  0  4  0  0  0  0  0  0
  -28.9950  -15.2200   21.1400 H   0  0  0  0  0  0  0  0  0  0  0  0
  -25.1030  -13.8310   20.4350 C   0  0  0  0  0  0  0  0  0  0  0  0
  -24.0540  -13.0470   20.8290 C   0  0  0  0  0  0  0  0  0  0  0  0
  -24.5270  -11.7010   20.7850 C   0  0  0  0  0  0  0  0  0  0  0  0
  -26.1480  -12.9580   20.1670 N   0  0  0  0  0  0  0  0  0  0  0  0
  -25.8080  -11.6710   20.4360 N   0  0  0  0  0  0  0  0  0  0  0  0
  -23.8180  -10.4330   21.0070 C   0  0  0  0  0  0  0  0  0  0  0  0
  -24.2780   -9.4960   21.9580 C   0  0  0  0  0  3  0  0  0  0  0  0
  -23.5770   -8.2900   22.1720 C   0  0  0  0  0  3  0  0  0  0  0  0
  -22.3990   -8.0150   21.4380 C   0  0  0  0  0  0  0  0  0  0  0  0
  -21.9570   -8.9420   20.4770 C   0  0  0  0  0  3  0  0  0  0  0  0
  -22.6600  -10.1400   20.2580 C   0  0  0  0  0  3  0  0  0  0  0  0
  -21.6660   -6.8590   21.5590 O   0  0  0  0  0  0  0  0  0  0  0  0
  -21.6200   -6.1540   22.7360 C   0  0  0  0  0  0  0  0  0  0  0  0
  -21.1770   -6.7380   23.9410 C   0  0  0  0  0  3  0  0  0  0  0  0
  -21.0780   -5.9530   25.1100 C   0  0  0  0  0  3  0  0  0  0  0  0
  -21.4190   -4.5900   25.0720 C   0  0  0  0  0  0  0  0  0  0  0  0
  -21.8620   -4.0040   23.8720 C   0  0  0  0  0  3  0  0  0  0  0  0
  -21.9590   -4.7850   22.7060 C   0  0  0  0  0  0  0  0  0  0  0  0
  -22.3600   -4.2110   21.5470 F   0  0  0  0  0  0  0  0  0  0  0  0
  -21.3210   -3.8350   26.1910 F   0  0  0  0  0  0  0  0  0  0  0  0
  -22.6620  -13.5110   21.1550 C   0  0  0  0  0  0  0  0  0  0  0  0
  -21.9690  -12.8030   22.0410 N   0  0  0  0  0  0  0  0  0  0  0  0
  -22.2000  -14.5340   20.6580 O   0  0  0  0  0  0  0  0  0  0  0  0
  -22.3490  -11.9660   22.4620 H   0  0  0  0  0  0  0  0  0  0  0  0
  -21.0270  -13.0840   22.2850 H   0  0  0  0  0  0  0  0  0  0  0  0
  -25.2610  -15.2070   20.2790 N   0  0  0  0  0  0  0  0  0  0  0  0
  -24.4970  -15.7960   20.5950 H   0  0  0  0  0  0  0  0  0  0  0  0
  -26.1520  -15.6160   20.5190 H   0  0  0  0  0  0  0  0  0  0  0  0
  -29.3140  -18.8980   18.6790 C   0  0  0  0  0  1  0  0  0  0  0  0
  -30.9360  -17.1480   17.9700 C   0  0  0  0  0  1  0  0  0  0  0  0
  -29.6740  -17.3950   18.8240 C   0  0  1  0  0  0  0  0  0  0  0  0
  -28.5330  -16.6630   18.2320 N   0  0  0  0  0  4  0  0  0  0  0  0
  -28.3270  -17.0440   17.3230 H   0  0  0  0  0  0  0  0  0  0  0  0
  -27.7010  -16.7700   18.7870 H   0  0  0  0  0  0  0  0  0  0  0  0
  -28.7280  -15.6900   18.1130 H   0  0  0  0  0  0  0  0  0  0  0  0
  -32.0770  -20.9590   20.7520 C   0  0  0  0  0  0  0  0  0  0  0  0
  -31.9720  -22.2940   20.8690 N   0  0  0  0  0  0  0  0  0  0  0  0
  -32.5380  -20.4480   19.7280 O   0  0  0  0  0  0  0  0  0  0  0  0
  -31.6240  -22.6660   21.7430 H   0  0  0  0  0  0  0  0  0  0  0  0
  -32.3800  -23.2430   19.8340 C   0  0  0  0  0  2  0  0  0  0  0  0
  -32.2470  -24.7080   20.2850 C   0  0  0  0  0  2  0  0  0  0  0  0
  -30.8960  -25.1640   20.1980 O   0  0  0  0  0  0  0  0  0  0  0  0
  -30.7330  -26.4890   20.7120 C   0  0  0  0  0  2  0  0  0  0  0  0
  -29.5690  -27.2430   20.0350 C   0  0  0  0  0  2  0  0  0  0  0  0
  -28.3110  -26.6670   20.3800 O   0  0  0  0  0  0  0  0  0  0  0  0
  -24.5000  -31.9490   23.3200 C   0  0  0  0  0  0  0  0  0  0  0  0
  -27.1900  -27.4710   20.3490 C   0  0  0  0  0  0  0  0  0  0  0  0
  -23.3120  -30.5280   21.6780 C   0  0  0  0  0  3  0  0  0  0  0  0
  -24.7860  -28.9590   20.3040 C   0  0  0  0  0  0  0  0  0  0  0  0
  -25.8390  -30.8790   21.5140 C   0  0  0  0  0  2  0  0  0  0  0  0
  -25.9330  -29.4990   20.8980 C   0  0  0  0  0  0  0  0  0  0  0  0
  -27.1380  -28.7630   20.9230 C   0  0  0  0  0  3  0  0  0  0  0  0
  -26.0220  -26.9330   19.7740 C   0  0  0  0  0  3  0  0  0  0  0  0
  -24.8220  -27.6720   19.7400 C   0  0  0  0  0  3  0  0  0  0  0  0
  -23.5420  -29.8200   20.3140 C   0  0  0  0  0  2  0  0  0  0  0  0
  -24.5680  -31.1330   22.2300 N   0  0  0  0  0  0  0  0  0  0  0  0
  -23.4110  -32.2350   23.8390 O   0  0  0  0  0  0  0  0  0  0  0  0
  -22.6360  -29.5300   22.6440 C   0  0  0  0  0  0  0  0  0  0  0  0
  -21.3180  -29.3320   22.4740 N   0  0  0  0  0  0  0  0  0  0  0  0
  -23.2950  -28.9340   23.4990 O   0  0  0  0  0  0  0  0  0  0  0  0
  -20.8500  -29.8650   21.7550 H   0  0  0  0  0  0  0  0  0  0  0  0
  -17.9400  -28.1110   22.8710 C   0  0  0  0  0  0  0  0  0  0  0  0
  -20.4820  -28.4090   23.2390 C   0  0  0  0  0  3  0  0  0  0  0  0
  -20.6240  -26.9620   22.7130 C   0  0  0  0  0  2  0  0  0  0  0  0
  -19.5690  -26.5950   21.6640 C   0  0  0  0  0  2  0  0  0  0  0  0
  -18.1610  -26.7420   22.2450 C   0  0  0  0  0  2  0  0  0  0  0  0
  -19.0320  -28.8990   23.3230 C   0  0  0  0  0  0  0  0  0  0  0  0
  -18.7760  -30.1770   23.8640 C   0  0  0  0  0  3  0  0  0  0  0  0
  -17.4600  -30.6690   23.9600 C   0  0  0  0  0  3  0  0  0  0  0  0
  -16.3820  -29.8780   23.5260 C   0  0  0  0  0  3  0  0  0  0  0  0
  -16.6230  -28.6010   22.9880 C   0  0  0  0  0  3  0  0  0  0  0  0
  -25.7800  -32.5770   23.9540 C   0  0  0  0  0  3  0  0  0  0  0  0
  -25.4850  -33.9870   24.2390 N   0  0  0  0  0  0  0  0  0  0  0  0
  -25.8620  -35.0150   23.4650 C   0  0  0  0  0  0  0  0  0  0  0  0
  -26.5640  -34.8730   22.4600 O   0  0  0  0  0  0  0  0  0  0  0  0
  -24.8670  -34.1730   25.0150 H   0  0  0  0  0  0  0  0  0  0  0  0
  -24.1810  -36.8250   23.0000 C   0  0  0  0  0  1  0  0  0  0  0  0
  -25.3830  -36.4210   23.8690 C   0  0  0  0  0  3  0  0  0  0  0  0
  -27.5010  -37.2880   24.7590 C   0  0  0  0  0  1  0  0  0  0  0  0
  -26.4390  -37.4530   23.7700 N   0  0  0  0  0  0  0  0  0  0  0  0
  -26.0440  -38.3830   23.8790 H   0  0  0  0  0  0  0  0  0  0  0  0
  -26.2610  -31.8310   25.2580 C   0  0  1  0  0  0  0  0  0  0  0  0
  -25.1410  -31.6250   26.3050 C   0  0  0  0  0  1  0  0  0  0  0  0
  -26.8430  -30.4410   24.9090 C   0  0  0  0  0  1  0  0  0  0  0  0
  -27.4010  -32.6320   25.9300 C   0  0  0  0  0  1  0  0  0  0  0  0
  -30.8310  -20.7980   23.0120 C   0  0  0  0  0  2  0  0  0  0  0  0
  -30.9210  -22.5830   24.5510 C   0  0  0  0  0  1  0  0  0  0  0  0
  -31.6690  -21.6510   23.7820 O   0  0  0  0  0  0  0  0  0  0  0  0
  1102  1  0
  2  3  1  0
  2  4  2  0
  3  1  1  0
  5  3  1  0
  6 15  2  3
  6  2  1  0
  7 15  1  0
  8 13  1  0
  9 10  1  0
  9  8  1  0
 11 10  1  0
 11 20  1  0
 11 12  1  0
 13  7  1  0
 13 12  1  0
 14  7  2  0
 15 16  1  0
 17 18  2  0
 18 37  1  0
 19 18  1  0
 19 22  1  0
 20 17  1  0
 20 21  1  0
 21 19  2  0
 22 23  1  0
 23 24  2  0
 25 28  1  0
 25 24  1  0
 26 25  2  0
 27 26  1  0
 27 22  2  0
 28 29  1  0
 29 30  1  0
 30 31  2  0
 32 31  1  0
 32 36  1  0
 33 32  2  0
 34 29  2  0
 34 33  1  0
 35 34  1  0
 37 38  1  0
 38 41  1  0
 38 40  1  0
 39 37  2  0
 42 17  1  0
 42 44  1  0
 42 43  1  0
 47 45  1  1
 46 47  1  0
 47  6  1  0
 48 50  1  0
 48 47  1  0
 49 48  1  0
 51 48  1  0
 52 53  1  0
 52  1  1  0
 53 55  1  0
 54 52  2  0
 56 57  1  0
 56 53  1  0
 58 57  1  0
 58 59  1  0
 60 61  1  0
 60 59  1  0
 62 73  2  0
 63 61  1  0
 63 68  1  0
 64 72  1  0
 64 74  1  0
 65 71  1  0
 65 67  1  0
 66 72  1  0
 67 68  2  0
 67 66  1  0
 69 63  2  0
 70 69  1  0
 70 65  2  0
 71 64  1  0
 72 62  1  0
 74 76  2  0
 75 74  1  0
 77 75  1  0
 78 87  2  0
 78 83  1  0
 79 75  1  0
 79 83  1  0
 80 79  1  0
 81 82  1  0
 81 80  1  0
 82 78  1  0
 83 84  2  0
 84 85  1  0
 86 85  2  0
 87 86  1  0
 88 62  1  0
 88 89  1  0
 88 98  1  0
 89 92  1  0
 90 94  1  0
 90 89  1  0
 91 90  2  0
 94 93  1  0
 96 94  1  0
 96 97  1  0
 96 95  1  0
 98101  1  1
 98 99  1  0
100 98  1  0
102104  1  0
104103  1  0
M  ISO  4   7 100  15 100  60 101  61 101
M  END
>  <TORSDO>  (9) 
F 28

>  <SCORE>  (9) 
-11.313

>  <name>  (9) 
8

>  <ligand_id>  (9) 
8

>  <original_smiles>  (9) 
[H]c1c([H])c([H])c2c(c1[H])C([H])([H])C([H])([H])C([H])([H])C2([H])N([H])C(=O)C1([H])N(C(=O)C([H])(N([H])C(=O)C([H])(N([H])C([H])([H])[H])C([H])([H])[H])C(C([H])([H])[H])(C([H])([H])[H])C([H])([H])[H])C([H])([H])c2c([H])c(OC([H])([H])C([H])([H])OC([H])([H])C([H])([H])N([H])C(=O)C([H])(N([H])C(=O)C([H])(N([H])C(=O)N3C([H])([H])C([H])([H])C([H])([H])C([H])(n4nc(-c5c([H])c([H])c(Oc6c([H])c([H])c(F)c([H])c6F)c([H])c5[H])c(C(=O)N([H])[H])c4N([H])[H])C3([H])[H])C(C([H])([H])[H])(C([H])([H])[H])[N+]([H])([H])[H])C([H])([H])OC([H])([H])[H])c([H])c([H])c2C1([H])[H]

>  <smiles>  (9) 
[H]c1c([H])c([H])c2c(c1[H])C([H])([H])C([H])([H])C([H])([H])C2([H])N([H])C(=O)C1([H])N(C(=O)C([H])(N([H])C(=O)C([H])(N([H])C([H])([H])[H])C([H])([H])[H])C(C([H])([H])[H])(C([H])([H])[H])C([H])([H])[H])C([H])([H])c2c([H])c(OC([H])([H])C([H])([H])OC([H])([H])C([H])([H])N([H])C(=O)C([H])(N([H])C(=O)C([H])(N([H])C(=O)N3C([H])([H])C([H])([H])C([H])([H])C([H])(n4nc(-c5c([H])c([H])c(Oc6c([H])c([H])c(F)c([H])c6F)c([H])c5[H])c(C(=O)N([H])[H])c4N([H])[H])C3([H])[H])C(C([H])([H])[H])(C([H])([H])[H])[N+]([H])([H])[H])C([H])([H])OC([H])([H])[H])c([H])c([H])c2C1([H])[H]

$$$$
9:0:0
     RDKit          3D

 99102  0  0  1  0  0  0  0  0999 V2000
  -21.4450  -26.6210   20.7970 C   0  0  0  0  0  1  0  0  0  0  0  0
  -21.7800  -29.1360   19.6920 C   0  0  0  0  0  0  0  0  0  0  0  0
  -21.1170  -27.9380   20.0760 N   0  0  0  0  0  0  0  0  0  0  0  0
  -21.0510  -29.8540   19.0070 O   0  0  0  0  0  0  0  0  0  0  0  0
  -20.1650  -27.9290   19.7250 H   0  0  0  0  0  0  0  0  0  0  0  0
  -23.2820  -29.8630   19.8990 C   0  0  0  0  0  2  0  0  0  0  0  0
  -24.3320  -30.2700   21.1970 C   0  0  0  0  0  2  0  0  0  0  0  0
  -24.2080  -31.2910   22.3620 O   0  0  0  0  0  0  0  0  0  0  0  0
  -28.1200  -28.1560   27.2460 C   0  0  0  0  0  0  0  0  0  0  0  0
  -24.0840  -30.5890   23.5050 C   0  0  0  0  0  0  0  0  0  0  0  0
  -27.0510  -27.0610   25.3300 C   0  0  0  0  0  3  0  0  0  0  0  0
  -24.9470  -28.1940   24.4650 C   0  0  0  0  0  0  0  0  0  0  0  0
  -25.9900  -29.1230   26.4730 C   0  0  0  0  0  2  0  0  0  0  0  0
  -25.2760  -29.3500   25.1740 C   0  0  0  0  0  0  0  0  0  0  0  0
  -24.9350  -30.6180   24.6360 C   0  0  0  0  0  3  0  0  0  0  0  0
  -23.3660  -29.4550   23.2080 C   0  0  0  0  0  3  0  0  0  0  0  0
  -23.9020  -28.2370   23.5730 C   0  0  0  0  0  3  0  0  0  0  0  0
  -25.6170  -26.8920   24.7790 C   0  0  0  0  0  2  0  0  0  0  0  0
  -27.0710  -28.1110   26.3960 N   0  0  0  0  0  0  0  0  0  0  0  0
  -28.9970  -27.2850   27.2180 O   0  0  0  0  0  0  0  0  0  0  0  0
  -28.1000  -27.4140   24.2200 C   0  0  0  0  0  0  0  0  0  0  0  0
  -28.6250  -26.4670   23.4670 N   0  0  0  0  0  0  0  0  0  0  0  0
  -28.4850  -28.5540   24.0470 O   0  0  0  0  0  0  0  0  0  0  0  0
  -28.3130  -25.5360   23.7020 H   0  0  0  0  0  0  0  0  0  0  0  0
  -30.2340  -23.9400   21.1540 C   0  0  0  0  0  0  0  0  0  0  0  0
  -29.7540  -26.4120   22.4450 C   0  0  0  0  0  3  0  0  0  0  0  0
  -29.6110  -26.5100   20.8810 C   0  0  0  0  0  2  0  0  0  0  0  0
  -29.1490  -25.3770   19.8000 C   0  0  0  0  0  2  0  0  0  0  0  0
  -30.0080  -24.2020   19.7770 C   0  0  0  0  0  2  0  0  0  0  0  0
  -30.3000  -25.0800   22.4980 C   0  0  0  0  0  0  0  0  0  0  0  0
  -30.0040  -24.4810   23.9830 C   0  0  0  0  0  3  0  0  0  0  0  0
  -29.6550  -22.9850   24.1820 C   0  0  0  0  0  3  0  0  0  0  0  0
  -29.5800  -21.9880   22.9920 C   0  0  0  0  0  3  0  0  0  0  0  0
  -29.8470  -22.4090   21.5040 C   0  0  0  0  0  3  0  0  0  0  0  0
  -28.2520  -29.3060   28.2820 C   0  0  0  0  0  3  0  0  0  0  0  0
  -29.2650  -30.4250   27.8180 C   0  0  1  0  0  0  0  0  0  0  0  0
  -30.6390  -29.8690   27.3740 C   0  0  0  0  0  1  0  0  0  0  0  0
  -28.7030  -31.2540   26.6380 C   0  0  0  0  0  1  0  0  0  0  0  0
  -29.4940  -31.4190   28.9770 C   0  0  0  0  0  1  0  0  0  0  0  0
  -28.6720  -28.7020   29.5490 N   0  0  0  0  0  0  0  0  0  0  0  0
  -27.8440  -28.4340   30.5680 C   0  0  0  0  0  0  0  0  0  0  0  0
  -26.6490  -28.7450   30.5630 O   0  0  0  0  0  0  0  0  0  0  0  0
  -29.6240  -28.3720   29.6010 H   0  0  0  0  0  0  0  0  0  0  0  0
  -28.0330  -26.2190   31.7370 C   0  0  0  0  0  1  0  0  0  0  0  0
  -28.4350  -27.7010   31.7840 C   0  0  0  0  0  3  0  0  0  0  0  0
  -28.6000  -29.6140   33.3110 C   0  0  0  0  0  1  0  0  0  0  0  0
  -28.0310  -28.2890   33.0790 N   0  0  0  0  0  0  0  0  0  0  0  0
  -28.3080  -27.6860   33.8490 H   0  0  0  0  0  0  0  0  0  0  0  0
  -23.2580  -26.5410   19.8860 C   0  0  0  0  0  2  0  0  0  0  0  0
  -24.3710  -26.8350   18.7120 N   0  0  0  0  0  0  0  0  0  0  0  0
  -24.0450  -26.2520   20.7810 O   0  0  0  0  0  1  0  0  0  0  0  0
  -25.1250  -26.5960   19.3470 H   0  0  0  0  0  0  0  0  0  0  0  0
  -26.3950  -26.0690   17.5780 C   0  0  0  0  0  1  0  0  0  0  0  0
  -25.4590  -27.2210   17.2030 C   0  0  0  0  0  2  0  0  0  0  0  0
  -28.0550  -28.3640   15.1700 C   0  0  0  0  0  2  0  0  0  0  0  0
  -26.9510  -28.2120   16.3460 C   0  0  0  0  0  1  0  0  0  0  0  0
  -31.7910  -29.7420   12.3340 C   0  0  0  0  0  0  0  0  0  0  0  0
  -32.9860  -30.1850    9.9130 C   0  0  0  0  0  2  0  0  0  0  0  0
  -31.9900  -30.4000    8.7290 C   0  0  0  0  0  2  0  0  0  0  0  0
  -31.3550  -29.0650    8.2940 C   0  0  0  0  0  2  0  0  0  0  0  0
  -31.0670  -28.1830    9.5300 C   0  0  0  0  0  3  0  0  0  0  0  0
  -32.2630  -28.0340   10.4550 C   0  0  0  0  0  2  0  0  0  0  0  0
  -32.3230  -29.3480   11.0330 N   0  0  0  0  0  0  0  0  0  0  0  0
  -32.5100  -30.7440   12.6140 O   0  0  0  0  0  0  0  0  0  0  0  0
  -29.5190  -29.1570   14.4480 C   0  0  0  0  0  0  0  0  0  0  0  0
  -30.5110  -29.1560   13.1700 N   0  0  0  0  0  0  0  0  0  0  0  0
  -30.0130  -30.0030   15.2090 O   0  0  0  0  0  0  0  0  0  0  0  0
  -30.9000  -29.8780   13.7660 H   0  0  0  0  0  0  0  0  0  0  0  0
  -29.4920  -26.2790    9.8960 C   0  0  0  0  0  0  0  0  0  0  0  0
  -29.3150  -25.1000    9.2390 C   0  0  0  0  0  0  0  0  0  0  0  0
  -30.3340  -25.0460    8.2360 C   0  0  0  0  0  0  0  0  0  0  0  0
  -30.5450  -26.8880    9.2520 N   0  0  0  0  0  0  0  0  0  0  0  0
  -31.1170  -26.1110    8.3070 N   0  0  0  0  0  0  0  0  0  0  0  0
  -30.5700  -24.0830    7.1620 C   0  0  0  0  0  0  0  0  0  0  0  0
  -31.8110  -23.4250    7.0180 C   0  0  0  0  0  3  0  0  0  0  0  0
  -31.9970  -22.4850    5.9850 C   0  0  0  0  0  3  0  0  0  0  0  0
  -30.9410  -22.2000    5.0890 C   0  0  0  0  0  0  0  0  0  0  0  0
  -29.7170  -22.8760    5.2270 C   0  0  0  0  0  3  0  0  0  0  0  0
  -29.5330  -23.8150    6.2510 C   0  0  0  0  0  3  0  0  0  0  0  0
  -31.0370  -21.3180    4.0430 O   0  0  0  0  0  0  0  0  0  0  0  0
  -31.8790  -20.2380    4.0890 C   0  0  0  0  0  0  0  0  0  0  0  0
  -31.7860  -19.2600    5.1030 C   0  0  0  0  0  3  0  0  0  0  0  0
  -32.6300  -18.1320    5.0720 C   0  0  0  0  0  3  0  0  0  0  0  0
  -33.5560  -17.9740    4.0240 C   0  0  0  0  0  0  0  0  0  0  0  0
  -33.6470  -18.9450    3.0110 C   0  0  0  0  0  3  0  0  0  0  0  0
  -32.8090  -20.0720    3.0420 C   0  0  0  0  0  0  0  0  0  0  0  0
  -32.8850  -20.9960    2.0520 F   0  0  0  0  0  0  0  0  0  0  0  0
  -34.3590  -16.8860    3.9870 F   0  0  0  0  0  0  0  0  0  0  0  0
  -28.2000  -24.1290    9.4620 C   0  0  0  0  0  0  0  0  0  0  0  0
  -28.4650  -22.8420    9.2710 N   0  0  0  0  0  0  0  0  0  0  0  0
  -27.0980  -24.5070    9.8580 O   0  0  0  0  0  0  0  0  0  0  0  0
  -29.3790  -22.5360    8.9660 H   0  0  0  0  0  0  0  0  0  0  0  0
  -27.7450  -22.1510    9.4340 H   0  0  0  0  0  0  0  0  0  0  0  0
  -28.8340  -26.8980   10.9560 N   0  0  0  0  0  0  0  0  0  0  0  0
  -28.0360  -26.4820   11.4220 H   0  0  0  0  0  0  0  0  0  0  0  0
  -29.1150  -27.7840   11.3580 H   0  0  0  0  0  0  0  0  0  0  0  0
  -18.6200  -26.1340   21.3990 C   0  0  0  0  0  1  0  0  0  0  0  0
  -19.4450  -22.6220   24.0720 C   0  0  0  0  0 15  0  0  0  0  0  0
  -19.8210  -25.5850   22.2600 C   0  0  0  0  0  1  0  0  0  0  0  0
  2  6  1  0
  2  3  1  0
  3  1  1  0
  4  2  2  0
  5  3  1  0
  6  7  1  0
  7  8  1  0
  8 10  1  0
 10 15  1  0
 11 21  1  0
 11 19  1  0
 12 18  1  0
 12 14  1  0
 14 13  1  0
 15 14  2  0
 16 10  2  0
 16 17  1  0
 17 12  2  0
 18 11  1  0
 19 13  1  0
 19  9  1  0
 20  9  2  0
 22 24  1  0
 22 21  1  0
 23 21  2  0
 25 34  2  0
 25 30  1  0
 26 30  1  0
 26 22  1  0
 27 26  1  0
 28 27  1  0
 29 28  1  0
 29 25  1  0
 30 31  2  0
 31 32  1  0
 33 32  2  0
 34 33  1  0
 35  9  1  0
 35 40  1  0
 36 35  1  0
 36 39  1  1
 37 36  1  0
 38 36  1  0
 40 43  1  0
 40 41  1  0
 41 45  1  0
 42 41  2  0
 45 44  1  0
 45 47  1  0
 47 46  1  0
 47 48  1  0
 49 51  1  0
 50 52  1  0
 50 49  1  0
 54 53  1  0
 54 50  1  0
 55 56  1  0
 57 64  2  0
 57 66  1  0
 58 63  1  0
 59 58  1  0
 60 59  1  0
 61 60  1  0
 61 62  1  0
 62 63  1  0
 63 57  1  0
 65 55  1  0
 65 67  2  0
 66 68  1  0
 66 65  1  0
 69 94  1  0
 70 89  1  0
 70 69  2  0
 71 73  2  0
 71 70  1  0
 72 61  1  0
 72 69  1  0
 73 72  1  0
 74 71  1  0
 75 74  1  0
 76 75  2  0
 77 78  2  0
 77 76  1  0
 78 79  1  0
 79 74  2  0
 80 81  1  0
 80 77  1  0
 81 82  1  0
 83 82  2  0
 84 83  1  0
 85 86  1  0
 85 84  2  0
 86 81  2  0
 87 86  1  0
 88 84  1  0
 89 91  2  0
 90 93  1  0
 90 89  1  0
 92 90  1  0
 94 96  1  0
 94 95  1  0
 97 99  1  0
M  ISO  4   7 101   8 101  57 100  66 100
M  END
>  <TORSDO>  (10) 
F 23

>  <SCORE>  (10) 
4.231

>  <name>  (10) 
9

>  <ligand_id>  (10) 
9

>  <original_smiles>  (10) 
[H]C(C(=O)N([H])C(=O)N1C([H])([H])C([H])([H])C([H])([H])C([H])(n2nc(-c3c([H])c([H])c(Oc4c([H])c([H])c(F)c([H])c4F)c([H])c3[H])c(C(=O)N([H])[H])c2N([H])[H])C1([H])[H])=C([H])C([H])(N([H])C(=O)C([H])(N([H])C(=O)C([H])([H])C([H])([H])Oc1c([H])c([H])c2c(c1[H])C([H])([H])N(C(=O)C([H])(N([H])C(=O)C([H])(N([H])C([H])([H])[H])C([H])([H])[H])C(C([H])([H])[H])(C([H])([H])[H])C([H])([H])[H])C([H])(C(=O)N([H])C1([H])c3c([H])c([H])c([H])c([H])c3C([H])([H])C([H])([H])C1([H])[H])C2([H])[H])C([H])(C([H])([H])[H])C([H])([H])[H])C([H])([H])[H]

>  <smiles>  (10) 
[H]C(C(=O)N([H])C(=O)N1C([H])([H])C([H])([H])C([H])([H])C([H])(n2nc(-c3c([H])c([H])c(Oc4c([H])c([H])c(F)c([H])c4F)c([H])c3[H])c(C(=O)N([H])[H])c2N([H])[H])C1([H])[H])=C([H])C([H])(N([H])C(=O)C([H])(N([H])C(=O)C([H])([H])C([H])([H])Oc1c([H])c([H])c2c(c1[H])C([H])([H])N(C(=O)C([H])(N([H])C(=O)C([H])(N([H])C([H])([H])[H])C([H])([H])[H])C(C([H])([H])[H])(C([H])([H])[H])C([H])([H])[H])C([H])(C(=O)N([H])C1([H])c3c([H])c([H])c([H])c([H])c3C([H])([H])C([H])([H])C1([H])[H])C2([H])[H])C([H])(C([H])([H])[H])C([H])([H])[H])C([H])([H])[H]

$$$$
10:0:0
     RDKit          3D

105112  0  0  1  0  0  0  0  0999 V2000
  -28.6140  -21.6520   20.6250 C   0  0  0  0  0  3  0  0  0  0  0  0
  -29.8010  -20.8540   21.2040 C   0  0  0  0  0  0  0  0  0  0  0  0
  -29.8620  -20.6720   22.5230 N   0  0  0  0  0  0  0  0  0  0  0  0
  -30.6610  -20.3670   20.4700 O   0  0  0  0  0  0  0  0  0  0  0  0
  -29.1500  -21.0350   23.1420 H   0  0  0  0  0  0  0  0  0  0  0  0
  -30.6320  -20.1560   22.9250 H   0  0  0  0  0  0  0  0  0  0  0  0
  -29.1370  -23.0420   20.2190 C   0  0  0  0  0  0  0  0  0  0  0  0
  -28.9510  -24.0560   21.0750 N   0  0  0  0  0  0  0  0  0  0  0  0
  -29.6120  -23.2090   19.0880 O   0  0  0  0  0  0  0  0  0  0  0  0
  -28.5930  -23.8400   21.9950 H   0  0  0  0  0  0  0  0  0  0  0  0
  -29.0630  -25.4780   20.7550 C   0  0  0  0  0  3  0  0  0  0  0  0
  -29.6380  -26.0550   23.1800 C   0  0  0  0  0  1  0  0  0  0  0  0
  -27.2120  -26.0870   22.4720 C   0  0  0  0  0  1  0  0  0  0  0  0
  -28.6680  -26.3060   22.0100 C   0  0  0  0  0  3  0  0  0  0  0  0
  -28.1960  -25.7880   19.5090 C   0  0  0  0  0  2  0  0  0  0  0  0
  -28.1860  -27.1790   19.1960 O   0  0  0  0  0  0  0  0  0  0  0  0
  -24.5000  -31.7860   23.1210 C   0  0  0  0  0  0  0  0  0  0  0  0
  -26.9890  -27.8390   19.3400 C   0  0  0  0  0  0  0  0  0  0  0  0
  -23.2030  -30.5670   21.4020 C   0  0  0  0  0  3  0  0  0  0  0  0
  -24.5750  -29.2600   19.7020 C   0  0  0  0  0  0  0  0  0  0  0  0
  -25.7030  -31.0070   21.0860 C   0  0  0  0  0  2  0  0  0  0  0  0
  -25.7600  -29.7280   20.2830 C   0  0  0  0  0  0  0  0  0  0  0  0
  -26.9670  -29.0210   20.1090 C   0  0  0  0  0  3  0  0  0  0  0  0
  -25.7900  -27.3950   18.7330 C   0  0  0  0  0  3  0  0  0  0  0  0
  -24.5830  -28.0890   18.9280 C   0  0  0  0  0  3  0  0  0  0  0  0
  -23.3260  -30.0760   19.9340 C   0  0  0  0  0  2  0  0  0  0  0  0
  -24.4900  -31.1290   21.9260 N   0  0  0  0  0  0  0  0  0  0  0  0
  -23.4540  -31.9700   23.7590 O   0  0  0  0  0  0  0  0  0  0  0  0
  -22.6410  -29.4170   22.2670 C   0  0  0  0  0  0  0  0  0  0  0  0
  -21.3420  -29.1250   22.0990 N   0  0  0  0  0  0  0  0  0  0  0  0
  -23.3710  -28.7970   23.0470 O   0  0  0  0  0  0  0  0  0  0  0  0
  -20.8140  -29.6850   21.4430 H   0  0  0  0  0  0  0  0  0  0  0  0
  -18.1250  -27.4920   22.3150 C   0  0  0  0  0  0  0  0  0  0  0  0
  -20.6030  -28.0650   22.7820 C   0  0  0  0  0  3  0  0  0  0  0  0
  -20.9320  -26.6820   22.1760 C   0  0  0  0  0  2  0  0  0  0  0  0
  -19.9520  -26.2560   21.0770 C   0  0  0  0  0  2  0  0  0  0  0  0
  -18.5200  -26.2020   21.6190 C   0  0  0  0  0  2  0  0  0  0  0  0
  -19.1050  -28.3740   22.8470 C   0  0  0  0  0  0  0  0  0  0  0  0
  -18.6850  -29.5780   23.4530 C   0  0  0  0  0  3  0  0  0  0  0  0
  -17.3180  -29.9020   23.5410 C   0  0  0  0  0  3  0  0  0  0  0  0
  -16.3530  -29.0200   23.0250 C   0  0  0  0  0  3  0  0  0  0  0  0
  -16.7570  -27.8180   22.4180 C   0  0  0  0  0  3  0  0  0  0  0  0
  -25.8180  -32.3600   23.7280 C   0  0  0  0  0  3  0  0  0  0  0  0
  -25.5350  -33.7260   24.1870 N   0  0  0  0  0  0  0  0  0  0  0  0
  -25.8750  -34.8380   23.5210 C   0  0  0  0  0  0  0  0  0  0  0  0
  -26.5390  -34.8180   22.4810 O   0  0  0  0  0  0  0  0  0  0  0  0
  -24.9550  -33.8170   25.0080 H   0  0  0  0  0  0  0  0  0  0  0  0
  -24.1750  -36.6830   23.3260 C   0  0  0  0  0  1  0  0  0  0  0  0
  -25.4030  -36.1840   24.1030 C   0  0  0  0  0  3  0  0  0  0  0  0
  -27.5460  -36.9520   25.0250 C   0  0  0  0  0  1  0  0  0  0  0  0
  -26.4530  -37.2250   24.0950 N   0  0  0  0  0  0  0  0  0  0  0  0
  -26.0590  -38.1330   24.3280 H   0  0  0  0  0  0  0  0  0  0  0  0
  -26.4050  -31.4830   24.9020 C   0  0  1  0  0  0  0  0  0  0  0  0
  -25.3650  -31.1250   25.9890 C   0  0  0  0  0  1  0  0  0  0  0  0
  -26.9950  -30.1590   24.3550 C   0  0  0  0  0  1  0  0  0  0  0  0
  -27.5690  -32.2370   25.5870 C   0  0  0  0  0  1  0  0  0  0  0  0
  -28.0960  -21.0060   19.4060 N   0  0  0  0  0  4  0  0  0  0  0  0
  -28.7380  -21.3310   18.6960 H   0  0  0  0  0  0  0  0  0  0  0  0
  -28.2100  -20.0060   19.4950 H   0  0  0  0  0  0  0  0  0  0  0  0
  -26.6920  -21.3540   19.0520 C   0  0  0  0  0  2  0  0  0  0  0  0
  -26.3010  -20.8490   17.6580 C   0  0  0  0  0  2  0  0  0  0  0  0
  -26.6810  -19.4820   17.5980 O   0  0  0  0  0  0  0  0  0  0  0  0
  -27.8640  -19.2510   16.8460 C   0  0  0  0  0  2  0  0  0  0  0  0
  -28.5070  -17.9900   17.4010 C   0  0  0  0  0  2  0  0  0  0  0  0
  -28.8320  -18.2250   18.7690 O   0  0  0  0  0  0  0  0  0  0  0  0
  -29.6750  -17.1960   19.2540 C   0  0  0  0  0  2  0  0  0  0  0  0
  -29.7620  -17.1940   20.7960 C   0  0  0  0  0  2  0  0  0  0  0  0
  -30.5960  -14.8950   20.8050 C   0  0  0  0  0  0  0  0  0  0  0  0
  -30.3940  -12.8330   19.5000 C   0  0  0  0  0  2  0  0  0  0  0  0
  -29.4700  -13.1150   18.2950 C   0  0  0  0  0  2  0  0  0  0  0  0
  -27.9860  -12.9350   18.6760 C   0  0  0  0  0  2  0  0  0  0  0  0
  -27.6060  -13.6520   20.0000 C   0  0  0  0  0  3  0  0  0  0  0  0
  -28.6420  -13.3430   21.1070 C   0  0  0  0  0  2  0  0  0  0  0  0
  -29.9780  -13.7070   20.6030 N   0  0  0  0  0  0  0  0  0  0  0  0
  -31.7000  -15.1950   20.3440 O   0  0  0  0  0  0  0  0  0  0  0  0
  -29.7810  -15.8280   21.2980 N   0  0  0  0  0  0  0  0  0  0  0  0
  -28.9120  -15.4830   21.6800 H   0  0  0  0  0  0  0  0  0  0  0  0
  -25.1860  -14.1620   20.7140 C   0  0  0  0  0  0  0  0  0  0  0  0
  -24.1240  -13.3450   20.9920 C   0  0  0  0  0  0  0  0  0  0  0  0
  -24.6070  -12.0080   20.8360 C   0  0  0  0  0  0  0  0  0  0  0  0
  -26.2470  -13.3210   20.4200 N   0  0  0  0  0  0  0  0  0  0  0  0
  -25.9010  -12.0160   20.5470 N   0  0  0  0  0  0  0  0  0  0  0  0
  -23.9020  -10.7220   20.8940 C   0  0  0  0  0  0  0  0  0  0  0  0
  -24.3090   -9.6960   21.7740 C   0  0  0  0  0  3  0  0  0  0  0  0
  -23.6070   -8.4720   21.8220 C   0  0  0  0  0  3  0  0  0  0  0  0
  -22.4820   -8.2670   20.9880 C   0  0  0  0  0  0  0  0  0  0  0  0
  -22.0970   -9.2840   20.0950 C   0  0  0  0  0  3  0  0  0  0  0  0
  -22.8010  -10.4980   20.0440 C   0  0  0  0  0  3  0  0  0  0  0  0
  -21.7550   -7.1050   20.9470 O   0  0  0  0  0  0  0  0  0  0  0  0
  -21.5660   -6.3340   22.0670 C   0  0  0  0  0  0  0  0  0  0  0  0
  -20.9560   -6.8510   23.2310 C   0  0  0  0  0  3  0  0  0  0  0  0
  -20.7160   -6.0060   24.3330 C   0  0  0  0  0  3  0  0  0  0  0  0
  -21.0780   -4.6480   24.2730 C   0  0  0  0  0  0  0  0  0  0  0  0
  -21.6820   -4.1310   23.1130 C   0  0  0  0  0  3  0  0  0  0  0  0
  -21.9240   -4.9730   22.0120 C   0  0  0  0  0  0  0  0  0  0  0  0
  -22.4860   -4.4640   20.8900 F   0  0  0  0  0  0  0  0  0  0  0  0
  -20.8440   -3.8350   25.3300 F   0  0  0  0  0  0  0  0  0  0  0  0
  -22.7170  -13.7710   21.2950 C   0  0  0  0  0  0  0  0  0  0  0  0
  -21.9970  -12.9860   22.0870 N   0  0  0  0  0  0  0  0  0  0  0  0
  -22.2640  -14.8330   20.8680 O   0  0  0  0  0  0  0  0  0  0  0  0
  -22.3760  -12.1220   22.4470 H   0  0  0  0  0  0  0  0  0  0  0  0
  -21.0550  -13.2520   22.3410 H   0  0  0  0  0  0  0  0  0  0  0  0
  -25.3400  -15.5460   20.6710 N   0  0  0  0  0  0  0  0  0  0  0  0
  -24.5680  -16.1860   20.8160 H   0  0  0  0  0  0  0  0  0  0  0  0
  -26.2000  -16.0140   20.4110 H   0  0  0  0  0  0  0  0  0  0  0  0
  1  7  1  0
  1  2  1  0
  2  3  1  0
  3  6  1  0
  3  5  1  0
  4  2  2  0
  7  8  1  0
  8 10  1  0
  9  7  2  0
 11 15  1  0
 11  8  1  0
 11 14  1  0
 14 13  1  0
 14 12  1  0
 16 18  1  0
 16 15  1  0
 17 28  2  0
 18 23  1  0
 19 27  1  0
 19 29  1  0
 20 26  1  0
 20 22  1  0
 21 27  1  0
 22 21  1  0
 23 22  2  0
 24 25  1  0
 24 18  2  0
 25 20  2  0
 26 19  1  0
 27 17  1  0
 29 31  2  0
 30 29  1  0
 32 30  1  0
 33 42  2  0
 33 38  1  0
 34 30  1  0
 34 38  1  0
 35 34  1  0
 36 37  1  0
 36 35  1  0
 37 33  1  0
 38 39  2  0
 39 40  1  0
 41 40  2  0
 42 41  1  0
 43 17  1  0
 43 44  1  0
 43 53  1  0
 44 47  1  0
 45 49  1  0
 45 44  1  0
 46 45  2  0
 49 48  1  0
 51 49  1  0
 51 52  1  0
 51 50  1  0
 53 56  1  1
 53 54  1  0
 55 53  1  0
 57 59  1  0
 57  1  1  0
 58 57  1  0
 60 57  1  0
 61 60  1  0
 62 61  1  0
 63 64  1  0
 63 62  1  0
 64 65  1  0
 65 66  1  0
 66 67  1  0
 67 76  1  0
 68 76  1  0
 69 74  1  0
 70 71  1  0
 70 69  1  0
 72 71  1  0
 72 81  1  0
 72 73  1  0
 74 68  1  0
 74 73  1  0
 75 68  2  0
 76 77  1  0
 78 79  2  0
 79 98  1  0
 80 83  1  0
 80 79  1  0
 81 82  1  0
 81 78  1  0
 82 80  2  0
 83 84  1  0
 84 85  2  0
 86 85  1  0
 87 86  2  0
 88 87  1  0
 88 83  2  0
 89 86  1  0
 89 90  1  0
 90 91  1  0
 91 92  2  0
 93 92  1  0
 93 97  1  0
 94 93  2  0
 95 90  2  0
 95 94  1  0
 96 95  1  0
 98 99  1  0
 99102  1  0
 99101  1  0
100 98  2  0
103 78  1  0
103104  1  0
105103  1  0
M  ISO  4  15 101  16 101  68 100  76 100
M  END
>  <TORSDO>  (11) 
F 30

>  <SCORE>  (11) 
-9.982

>  <name>  (11) 
10

>  <ligand_id>  (11) 
10

>  <original_smiles>  (11) 
[H]c1c([H])c([H])c2c(c1[H])C([H])([H])C([H])([H])C([H])([H])C2([H])N([H])C(=O)C1([H])N(C(=O)C([H])(N([H])C(=O)C([H])(N([H])C([H])([H])[H])C([H])([H])[H])C(C([H])([H])[H])(C([H])([H])[H])C([H])([H])[H])C([H])([H])c2c([H])c(OC([H])([H])C([H])(N([H])C(=O)C([H])(C(=O)N([H])[H])[N+]([H])([H])C([H])([H])C([H])([H])OC([H])([H])C([H])([H])OC([H])([H])C([H])([H])N([H])C(=O)N3C([H])([H])C([H])([H])C([H])([H])C([H])(n4nc(-c5c([H])c([H])c(Oc6c([H])c([H])c(F)c([H])c6F)c([H])c5[H])c(C(=O)N([H])[H])c4N([H])[H])C3([H])[H])C([H])(C([H])([H])[H])C([H])([H])[H])c([H])c([H])c2C1([H])[H]

>  <smiles>  (11) 
[H]c1c([H])c([H])c2c(c1[H])C([H])([H])C([H])([H])C([H])([H])C2([H])N([H])C(=O)C1([H])N(C(=O)C([H])(N([H])C(=O)C([H])(N([H])C([H])([H])[H])C([H])([H])[H])C(C([H])([H])[H])(C([H])([H])[H])C([H])([H])[H])C([H])([H])c2c([H])c(OC([H])([H])C([H])(N([H])C(=O)C([H])(C(=O)N([H])[H])[N+]([H])([H])C([H])([H])C([H])([H])OC([H])([H])C([H])([H])OC([H])([H])C([H])([H])N([H])C(=O)N3C([H])([H])C([H])([H])C([H])([H])C([H])(n4nc(-c5c([H])c([H])c(Oc6c([H])c([H])c(F)c([H])c6F)c([H])c5[H])c(C(=O)N([H])[H])c4N([H])[H])C3([H])[H])C([H])(C([H])([H])[H])C([H])([H])[H])c([H])c([H])c2C1([H])[H]

$$$$
11:0:0
     RDKit          3D

 93101  0  0  1  0  0  0  0  0999 V2000
  -33.1140  -25.8740   14.9860 O   0  0  0  0  0  0  0  0  0  0  0  0
  -34.1170  -25.1060   14.3370 C   0  0  0  0  0  2  0  0  0  0  0  0
  -34.5410  -23.9170   15.2290 C   0  0  0  0  0  2  0  0  0  0  0  0
  -36.3490  -25.8690   19.9900 C   0  0  0  0  0  0  0  0  0  0  0  0
  -37.0860  -27.6540   21.5160 C   0  0  0  0  0  2  0  0  0  0  0  0
  -35.9680  -28.6540   21.8590 C   0  0  0  0  0  2  0  0  0  0  0  0
  -35.9420  -29.7960   20.8260 C   0  0  0  0  0  2  0  0  0  0  0  0
  -35.9160  -29.2640   19.3750 C   0  0  0  0  0  3  0  0  0  0  0  0
  -36.9860  -28.1780   19.1480 C   0  0  0  0  0  2  0  0  0  0  0  0
  -36.8650  -27.1200   20.1630 N   0  0  0  0  0  0  0  0  0  0  0  0
  -35.7910  -25.2760   20.9210 O   0  0  0  0  0  0  0  0  0  0  0  0
  -37.5650  -25.7480   16.5120 C   0  0  0  0  0  2  0  0  0  0  0  0
  -37.7800  -25.3280   17.9930 C   0  0  0  0  0  2  0  0  0  0  0  0
  -35.8250  -23.9350   18.6660 C   0  0  0  0  0  2  0  0  0  0  0  0
  -36.8690  -24.7120   15.6130 C   0  0  0  0  0  2  0  0  0  0  0  0
  -35.8380  -23.2570   17.2890 C   0  0  0  0  0  2  0  0  0  0  0  0
  -36.5330  -25.2320   18.7910 N   0  0  0  0  0  0  0  0  0  0  0  0
  -35.5960  -24.2610   16.2200 N   0  0  2  0  0  4  0  0  0  0  0  0
  -35.2400  -25.0770   16.6940 H   0  0  0  0  0  0  0  0  0  0  0  0
  -35.0680  -31.1140   17.7920 C   0  0  0  0  0  0  0  0  0  0  0  0
  -35.7350  -32.0290   17.0200 C   0  0  0  0  0  0  0  0  0  0  0  0
  -37.1240  -31.7790   17.2190 C   0  0  0  0  0  0  0  0  0  0  0  0
  -36.0520  -30.3520   18.4040 N   0  0  0  0  0  0  0  0  0  0  0  0
  -37.2940  -30.7260   18.0090 N   0  0  0  0  0  0  0  0  0  0  0  0
  -38.3080  -32.5110   16.7470 C   0  0  0  0  0  0  0  0  0  0  0  0
  -38.7700  -32.3990   15.4170 C   0  0  0  0  0  3  0  0  0  0  0  0
  -39.8960  -33.1370   14.9880 C   0  0  0  0  0  3  0  0  0  0  0  0
  -40.5640  -33.9990   15.8880 C   0  0  0  0  0  0  0  0  0  0  0  0
  -40.1150  -34.0860   17.2170 C   0  0  0  0  0  3  0  0  0  0  0  0
  -39.0010  -33.3470   17.6440 C   0  0  0  0  0  3  0  0  0  0  0  0
  -41.6830  -34.7290   15.5620 O   0  0  0  0  0  0  0  0  0  0  0  0
  -41.6260  -36.0830   15.3460 C   0  0  0  0  0  0  0  0  0  0  0  0
  -41.4740  -37.0010   16.4080 C   0  0  0  0  0  3  0  0  0  0  0  0
  -41.4900  -38.3870   16.1490 C   0  0  0  0  0  3  0  0  0  0  0  0
  -41.6610  -38.8550   14.8310 C   0  0  0  0  0  0  0  0  0  0  0  0
  -41.8120  -37.9420   13.7710 C   0  0  0  0  0  3  0  0  0  0  0  0
  -41.7970  -36.5600   14.0290 C   0  0  0  0  0  0  0  0  0  0  0  0
  -41.9670  -35.6840   13.0090 F   0  0  0  0  0  0  0  0  0  0  0  0
  -41.6810  -40.1830   14.5810 F   0  0  0  0  0  0  0  0  0  0  0  0
  -35.1180  -33.1430   16.2240 C   0  0  0  0  0  0  0  0  0  0  0  0
  -35.4320  -33.2120   14.9330 N   0  0  0  0  0  0  0  0  0  0  0  0
  -34.3200  -33.9290   16.7310 O   0  0  0  0  0  0  0  0  0  0  0  0
  -36.0800  -32.5580   14.5190 H   0  0  0  0  0  0  0  0  0  0  0  0
  -35.0260  -33.9290   14.3510 H   0  0  0  0  0  0  0  0  0  0  0  0
  -33.7190  -30.8760   18.0400 N   0  0  0  0  0  0  0  0  0  0  0  0
  -32.9810  -31.4400   17.6310 H   0  0  0  0  0  0  0  0  0  0  0  0
  -33.3660  -30.1850   18.6910 H   0  0  0  0  0  0  0  0  0  0  0  0
  -33.3570  -27.2710   14.8930 C   0  0  0  0  0  2  0  0  0  0  0  0
  -34.6320  -27.6620   15.6550 C   0  0  0  0  0  2  0  0  0  0  0  0
  -35.0080  -28.9280   15.1410 O   0  0  0  0  0  0  0  0  0  0  0  0
  -36.4000  -29.0880   14.9580 C   0  0  0  0  0  2  0  0  0  0  0  0
  -36.5940  -29.9500   13.7030 C   0  0  0  0  0  2  0  0  0  0  0  0
  -37.1290  -29.1790   12.6470 O   0  0  0  0  0  0  0  0  0  0  0  0
  -35.8420  -31.5530    6.0300 C   0  0  0  0  0  0  0  0  0  0  0  0
  -36.3750  -29.1390   11.5050 C   0  0  0  0  0  0  0  0  0  0  0  0
  -34.2400  -29.8930    6.9300 C   0  0  0  0  0  3  0  0  0  0  0  0
  -34.9090  -28.7950    9.1290 C   0  0  0  0  0  0  0  0  0  0  0  0
  -36.6510  -29.9640    7.7670 C   0  0  0  0  0  2  0  0  0  0  0  0
  -36.1390  -29.4660    9.1010 C   0  0  0  0  0  0  0  0  0  0  0  0
  -36.8740  -29.6500   10.2910 C   0  0  0  0  0  3  0  0  0  0  0  0
  -35.1340  -28.4800   11.5270 C   0  0  0  0  0  3  0  0  0  0  0  0
  -34.3910  -28.3110   10.3420 C   0  0  0  0  0  3  0  0  0  0  0  0
  -34.2050  -28.6120    7.8040 C   0  0  0  0  0  2  0  0  0  0  0  0
  -35.5960  -30.5310    6.8970 N   0  0  0  0  0  0  0  0  0  0  0  0
  -34.9750  -31.9340    5.2300 O   0  0  0  0  0  0  0  0  0  0  0  0
  -33.1250  -30.8450    7.4140 C   0  0  0  0  0  0  0  0  0  0  0  0
  -31.9030  -30.6450    6.8970 N   0  0  0  0  0  0  0  0  0  0  0  0
  -33.3600  -31.7160    8.2580 O   0  0  0  0  0  0  0  0  0  0  0  0
  -31.7940  -29.9120    6.2090 H   0  0  0  0  0  0  0  0  0  0  0  0
  -28.8470  -31.9980    5.5290 C   0  0  0  0  0  0  0  0  0  0  0  0
  -30.6950  -31.3970    7.2330 C   0  0  0  0  0  3  0  0  0  0  0  0
  -29.6420  -30.4810    7.8980 C   0  0  0  0  0  2  0  0  0  0  0  0
  -28.6470  -29.8800    6.9010 C   0  0  0  0  0  2  0  0  0  0  0  0
  -27.8990  -30.9890    6.1560 C   0  0  0  0  0  2  0  0  0  0  0  0
  -30.1650  -32.1770    6.0250 C   0  0  0  0  0  0  0  0  0  0  0  0
  -31.0180  -33.1010    5.3840 C   0  0  0  0  0  3  0  0  0  0  0  0
  -30.5740  -33.8390    4.2710 C   0  0  0  0  0  3  0  0  0  0  0  0
  -29.2640  -33.6680    3.7940 C   0  0  0  0  0  3  0  0  0  0  0  0
  -28.4010  -32.7550    4.4270 C   0  0  0  0  0  3  0  0  0  0  0  0
  -37.2270  -32.2710    5.9800 C   0  0  0  0  0  3  0  0  0  0  0  0
  -37.2250  -33.6730    6.7020 C   0  0  1  0  0  0  0  0  0  0  0  0
  -36.7060  -34.8260    5.8120 C   0  0  0  0  0  1  0  0  0  0  0  0
  -36.3510  -33.6270    7.9770 C   0  0  0  0  0  1  0  0  0  0  0  0
  -38.6580  -34.0310    7.1590 C   0  0  0  0  0  1  0  0  0  0  0  0
  -37.6050  -32.4120    4.5680 N   0  0  0  0  0  0  0  0  0  0  0  0
  -38.8130  -32.1150    4.0730 C   0  0  0  0  0  0  0  0  0  0  0  0
  -39.7610  -31.7630    4.7810 O   0  0  0  0  0  0  0  0  0  0  0  0
  -36.8650  -32.6500    3.9230 H   0  0  0  0  0  0  0  0  0  0  0  0
  -38.9030  -30.8260    1.9170 C   0  0  0  0  0  1  0  0  0  0  0  0
  -39.0010  -32.2240    2.5480 C   0  0  0  0  0  3  0  0  0  0  0  0
  -40.1880  -34.3160    2.0430 C   0  0  0  0  0  1  0  0  0  0  0  0
  -40.2780  -32.8620    2.1580 N   0  0  0  0  0  0  0  0  0  0  0  0
  -40.6070  -32.4960    1.2700 H   0  0  0  0  0  0  0  0  0  0  0  0
  2  1  1  0
  2  3  1  0
  3 18  1  0
  4 10  1  0
  4 11  2  0
  5  6  1  0
  7  6  1  0
  8 23  1  0
  8  7  1  0
  9  8  1  0
  9 10  1  0
 10  5  1  0
 12 13  1  0
 13 17  1  0
 14 17  1  0
 15 18  1  0
 15 12  1  0
 16 14  1  0
 17  4  1  0
 18 19  1  1
 18 16  1  0
 20 45  1  0
 20 23  1  0
 21 22  1  0
 21 20  2  0
 22 24  2  0
 24 23  1  0
 25 22  1  0
 25 30  1  0
 26 25  2  0
 27 26  1  0
 27 28  2  0
 28 29  1  0
 29 30  2  0
 31 28  1  0
 32 31  1  0
 32 33  1  0
 34 33  2  0
 35 34  1  0
 36 37  1  0
 36 35  2  0
 37 32  2  0
 38 37  1  0
 39 35  1  0
 40 42  2  0
 40 21  1  0
 41 40  1  0
 43 41  1  0
 44 41  1  0
 45 47  1  0
 46 45  1  0
 48  1  1  0
 48 49  1  0
 50 49  1  0
 51 50  1  0
 52 51  1  0
 53 52  1  0
 54 64  1  0
 55 61  1  0
 55 53  1  0
 56 66  1  0
 56 63  1  0
 57 62  1  0
 58 59  1  0
 59 57  2  0
 59 60  1  0
 60 55  2  0
 62 61  2  0
 63 57  1  0
 64 56  1  0
 64 58  1  0
 65 54  2  0
 66 68  2  0
 67 66  1  0
 69 67  1  0
 70 75  1  0
 70 74  1  0
 71 67  1  0
 71 72  1  0
 73 72  1  0
 74 73  1  0
 75 71  1  0
 76 75  2  0
 77 76  1  0
 78 77  2  0
 78 79  1  0
 79 70  2  0
 80 54  1  0
 80 81  1  0
 81 84  1  1
 81 83  1  0
 82 81  1  0
 85 80  1  0
 86 85  1  0
 86 87  2  0
 88 85  1  0
 90 89  1  0
 90 86  1  0
 91 92  1  0
 92 90  1  0
 93 92  1  0
M  ISO  4   4 100  17 100  52 101  53 101
M  END
>  <TORSDO>  (12) 
F 23

>  <SCORE>  (12) 
-2.408

>  <name>  (12) 
11

>  <ligand_id>  (12) 
11

>  <original_smiles>  (12) 
[H]c1c([H])c([H])c2c(c1[H])C([H])([H])C([H])([H])C([H])([H])C2([H])N([H])C(=O)C1([H])N(C(=O)C([H])(N([H])C(=O)C([H])(N([H])C([H])([H])[H])C([H])([H])[H])C(C([H])([H])[H])(C([H])([H])[H])C([H])([H])[H])C([H])([H])c2c([H])c(OC([H])([H])C([H])([H])OC([H])([H])C([H])([H])OC([H])([H])C([H])([H])[N+]3([H])C([H])([H])C([H])([H])N(C(=O)N4C([H])([H])C([H])([H])C([H])([H])C([H])(n5nc(-c6c([H])c([H])c(Oc7c([H])c([H])c(F)c([H])c7F)c([H])c6[H])c(C(=O)N([H])[H])c5N([H])[H])C4([H])[H])C([H])([H])C([H])([H])C3([H])[H])c([H])c([H])c2C1([H])[H]

>  <smiles>  (12) 
[H]c1c([H])c([H])c2c(c1[H])C([H])([H])C([H])([H])C([H])([H])C2([H])N([H])C(=O)C1([H])N(C(=O)C([H])(N([H])C(=O)C([H])(N([H])C([H])([H])[H])C([H])([H])[H])C(C([H])([H])[H])(C([H])([H])[H])C([H])([H])[H])C([H])([H])c2c([H])c(OC([H])([H])C([H])([H])OC([H])([H])C([H])([H])OC([H])([H])C([H])([H])[N+]3([H])C([H])([H])C([H])([H])N(C(=O)N4C([H])([H])C([H])([H])C([H])([H])C([H])(n5nc(-c6c([H])c([H])c(Oc7c([H])c([H])c(F)c([H])c7F)c([H])c6[H])c(C(=O)N([H])[H])c5N([H])[H])C4([H])[H])C([H])([H])C([H])([H])C3([H])[H])c([H])c([H])c2C1([H])[H]

$$$$
12:0:0
     RDKit          3D

 94101  0  0  1  0  0  0  0  0999 V2000
  -28.9290  -21.8350   20.8200 C   0  0  0  0  0  3  0  0  0  0  0  0
  -29.7160  -22.1940   22.0960 C   0  0  0  0  0  0  0  0  0  0  0  0
  -29.0590  -22.2950   23.2480 N   0  0  0  0  0  0  0  0  0  0  0  0
  -30.9340  -22.3660   22.0570 O   0  0  0  0  0  0  0  0  0  0  0  0
  -28.0690  -22.1010   23.3100 H   0  0  0  0  0  0  0  0  0  0  0  0
  -29.5610  -22.5320   24.0930 H   0  0  0  0  0  0  0  0  0  0  0  0
  -29.2460  -19.1140   20.3000 C   0  0  0  0  0  0  0  0  0  0  0  0
  -29.6220  -20.4910   20.3050 N   0  0  0  0  0  0  0  0  0  0  0  0
  -28.1020  -18.8260   20.6430 O   0  0  0  0  0  0  0  0  0  0  0  0
  -30.5730  -20.6580   20.0130 H   0  0  0  0  0  0  0  0  0  0  0  0
  -30.7600  -18.0700   18.4920 C   0  0  0  0  0  1  0  0  0  0  0  0
  -30.2230  -17.8170   19.9110 C   0  0  0  0  0  3  0  0  0  0  0  0
  -30.5870  -15.0520   19.8880 C   0  0  0  0  0  0  0  0  0  0  0  0
  -30.3970  -12.6960   18.9450 C   0  0  0  0  0  2  0  0  0  0  0  0
  -29.3910  -12.6420   17.7750 C   0  0  0  0  0  2  0  0  0  0  0  0
  -27.9620  -12.4160   18.3050 C   0  0  0  0  0  2  0  0  0  0  0  0
  -27.6240  -13.3440   19.5010 C   0  0  0  0  0  3  0  0  0  0  0  0
  -28.7480  -13.3740   20.5570 C   0  0  0  0  0  2  0  0  0  0  0  0
  -29.9710  -13.7980   19.8620 N   0  0  0  0  0  0  0  0  0  0  0  0
  -31.7780  -15.0820   19.5690 O   0  0  0  0  0  0  0  0  0  0  0  0
  -29.8440  -16.2680   20.0370 N   0  0  0  0  0  0  0  0  0  0  0  0
  -28.8630  -16.1230   20.2280 H   0  0  0  0  0  0  0  0  0  0  0  0
  -25.3130  -13.9170   20.4300 C   0  0  0  0  0  0  0  0  0  0  0  0
  -24.2690  -13.1440   20.8550 C   0  0  0  0  0  0  0  0  0  0  0  0
  -24.7160  -11.7910   20.7560 C   0  0  0  0  0  0  0  0  0  0  0  0
  -26.3250  -13.0400   20.0870 N   0  0  0  0  0  0  0  0  0  0  0  0
  -25.9810  -11.7510   20.3520 N   0  0  0  0  0  0  0  0  0  0  0  0
  -23.9930  -10.5300   20.9660 C   0  0  0  0  0  0  0  0  0  0  0  0
  -24.4500   -9.5570   21.8820 C   0  0  0  0  0  3  0  0  0  0  0  0
  -23.7250   -8.3620   22.0800 C   0  0  0  0  0  3  0  0  0  0  0  0
  -22.5290   -8.1320   21.3600 C   0  0  0  0  0  0  0  0  0  0  0  0
  -22.0890   -9.0920   20.4310 C   0  0  0  0  0  3  0  0  0  0  0  0
  -22.8150  -10.2800   20.2340 C   0  0  0  0  0  3  0  0  0  0  0  0
  -21.7730   -6.9890   21.4640 O   0  0  0  0  0  0  0  0  0  0  0  0
  -21.7330   -6.2570   22.6240 C   0  0  0  0  0  0  0  0  0  0  0  0
  -21.2860   -6.8160   23.8410 C   0  0  0  0  0  3  0  0  0  0  0  0
  -21.1940   -6.0110   24.9950 C   0  0  0  0  0  3  0  0  0  0  0  0
  -21.5380   -4.6490   24.9310 C   0  0  0  0  0  0  0  0  0  0  0  0
  -21.9780   -4.0880   23.7190 C   0  0  0  0  0  3  0  0  0  0  0  0
  -22.0700   -4.8900   22.5690 C   0  0  0  0  0  0  0  0  0  0  0  0
  -22.4770   -4.3420   21.3980 F   0  0  0  0  0  0  0  0  0  0  0  0
  -21.4430   -3.8720   26.0360 F   0  0  0  0  0  0  0  0  0  0  0  0
  -22.9010  -13.6270   21.2350 C   0  0  0  0  0  0  0  0  0  0  0  0
  -22.2220  -12.9110   22.1240 N   0  0  0  0  0  0  0  0  0  0  0  0
  -22.4460  -14.6730   20.7770 O   0  0  0  0  0  0  0  0  0  0  0  0
  -22.6080  -12.0670   22.5210 H   0  0  0  0  0  0  0  0  0  0  0  0
  -21.3030  -13.2160   22.4130 H   0  0  0  0  0  0  0  0  0  0  0  0
  -25.4740  -15.2910   20.2760 N   0  0  0  0  0  0  0  0  0  0  0  0
  -24.7170  -15.9420   20.4550 H   0  0  0  0  0  0  0  0  0  0  0  0
  -26.2890  -15.7380   19.8770 H   0  0  0  0  0  0  0  0  0  0  0  0
  -28.8150  -23.3260   19.9870 C   0  0  0  0  0  0  0  0  0  0  0  0
  -29.2900  -23.4170   18.8480 O   0  0  0  0  0  0  0  0  0  0  0  0
  -28.0480  -24.6840   20.5920 C   0  0  0  0  0  2  0  0  0  0  0  0
  -28.3660  -26.1690   20.2010 O   0  0  0  0  0  0  0  0  0  0  0  0
  -24.7060  -31.8590   23.2070 C   0  0  0  0  0  0  0  0  0  0  0  0
  -27.3190  -27.1640   20.1720 C   0  0  0  0  0  0  0  0  0  0  0  0
  -23.5210  -30.4650   21.5550 C   0  0  0  0  0  3  0  0  0  0  0  0
  -24.9830  -28.9020   20.1320 C   0  0  0  0  0  0  0  0  0  0  0  0
  -26.0740  -30.7460   21.4020 C   0  0  0  0  0  2  0  0  0  0  0  0
  -26.1600  -29.3550   20.7440 C   0  0  0  0  0  0  0  0  0  0  0  0
  -27.3330  -28.5040   20.7400 C   0  0  0  0  0  3  0  0  0  0  0  0
  -26.1180  -26.8200   19.5170 C   0  0  0  0  0  3  0  0  0  0  0  0
  -24.9770  -27.6500   19.4990 C   0  0  0  0  0  3  0  0  0  0  0  0
  -23.7500  -29.7890   20.1770 C   0  0  0  0  0  2  0  0  0  0  0  0
  -24.7870  -31.0460   22.1080 N   0  0  0  0  0  0  0  0  0  0  0  0
  -23.6170  -32.1350   23.7330 O   0  0  0  0  0  0  0  0  0  0  0  0
  -22.8410  -29.4530   22.5130 C   0  0  0  0  0  0  0  0  0  0  0  0
  -21.5130  -29.2820   22.3850 N   0  0  0  0  0  0  0  0  0  0  0  0
  -23.5130  -28.8210   23.3310 O   0  0  0  0  0  0  0  0  0  0  0  0
  -21.0260  -29.8400   21.6980 H   0  0  0  0  0  0  0  0  0  0  0  0
  -18.1370  -28.0600   22.8680 C   0  0  0  0  0  0  0  0  0  0  0  0
  -20.6930  -28.3380   23.1490 C   0  0  0  0  0  3  0  0  0  0  0  0
  -20.8060  -26.9080   22.5700 C   0  0  0  0  0  2  0  0  0  0  0  0
  -19.7120  -26.5820   21.5480 C   0  0  0  0  0  2  0  0  0  0  0  0
  -18.3250  -26.7160   22.1850 C   0  0  0  0  0  2  0  0  0  0  0  0
  -19.2480  -28.8290   23.3060 C   0  0  0  0  0  0  0  0  0  0  0  0
  -19.0160  -30.0860   23.9040 C   0  0  0  0  0  3  0  0  0  0  0  0
  -17.7070  -30.5760   24.0650 C   0  0  0  0  0  3  0  0  0  0  0  0
  -16.6100  -29.8040   23.6440 C   0  0  0  0  0  3  0  0  0  0  0  0
  -16.8260  -28.5480   23.0520 C   0  0  0  0  0  3  0  0  0  0  0  0
  -25.9780  -32.4970   23.8430 C   0  0  0  0  0  3  0  0  0  0  0  0
  -25.6640  -33.8990   24.1660 N   0  0  0  0  0  0  0  0  0  0  0  0
  -26.0060  -34.9520   23.4110 C   0  0  0  0  0  0  0  0  0  0  0  0
  -26.6860  -34.8440   22.3870 O   0  0  0  0  0  0  0  0  0  0  0  0
  -25.0550  -34.0520   24.9560 H   0  0  0  0  0  0  0  0  0  0  0  0
  -24.2890  -36.7540   23.0380 C   0  0  0  0  0  1  0  0  0  0  0  0
  -25.5200  -36.3430   23.8630 C   0  0  0  0  0  3  0  0  0  0  0  0
  -27.6470  -37.2290   24.7180 C   0  0  0  0  0  1  0  0  0  0  0  0
  -26.5590  -37.3920   23.7570 N   0  0  0  0  0  0  0  0  0  0  0  0
  -26.1540  -38.3150   23.8890 H   0  0  0  0  0  0  0  0  0  0  0  0
  -26.4750  -31.7340   25.1330 C   0  0  1  0  0  0  0  0  0  0  0  0
  -25.3630  -31.5070   26.1850 C   0  0  0  0  0  1  0  0  0  0  0  0
  -27.0580  -30.3480   24.7680 C   0  0  0  0  0  1  0  0  0  0  0  0
  -27.6200  -32.5270   25.8050 C   0  0  0  0  0  1  0  0  0  0  0  0
  1 51  1  0
  1  2  1  0
  2  3  1  0
  3  5  1  0
  3  6  1  0
  4  2  2  0
  7  8  1  0
  7  9  2  0
  8  1  1  0
 10  8  1  0
 12 11  1  0
 12 21  1  0
 12  7  1  0
 13 21  1  0
 14 19  1  0
 15 16  1  0
 15 14  1  0
 17 16  1  0
 17 26  1  0
 17 18  1  0
 19 13  1  0
 19 18  1  0
 20 13  2  0
 21 22  1  0
 23 24  2  0
 24 43  1  0
 25 24  1  0
 25 28  1  0
 26 27  1  0
 26 23  1  0
 27 25  2  0
 28 29  1  0
 29 30  2  0
 31 34  1  0
 31 30  1  0
 32 31  2  0
 33 32  1  0
 33 28  2  0
 34 35  1  0
 35 36  1  0
 36 37  2  0
 38 37  1  0
 38 42  1  0
 39 38  2  0
 40 35  2  0
 40 39  1  0
 41 40  1  0
 43 44  1  0
 44 47  1  0
 44 46  1  0
 45 43  2  0
 48 23  1  0
 48 49  1  0
 50 48  1  0
 51 53  1  0
 52 51  2  0
 54 53  1  0
 55 66  2  0
 56 54  1  0
 56 61  1  0
 57 65  1  0
 57 67  1  0
 58 64  1  0
 58 60  1  0
 59 65  1  0
 60 59  1  0
 61 60  2  0
 62 56  2  0
 63 62  1  0
 63 58  2  0
 64 57  1  0
 65 55  1  0
 67 69  2  0
 68 67  1  0
 70 68  1  0
 71 80  2  0
 71 76  1  0
 72 68  1  0
 72 76  1  0
 73 72  1  0
 74 75  1  0
 74 73  1  0
 75 71  1  0
 76 77  2  0
 77 78  1  0
 79 78  2  0
 80 79  1  0
 81 55  1  0
 81 82  1  0
 81 91  1  0
 82 85  1  0
 83 87  1  0
 83 82  1  0
 84 83  2  0
 87 86  1  0
 89 87  1  0
 89 90  1  0
 89 88  1  0
 91 94  1  1
 91 92  1  0
 93 91  1  0
M  ISO  4  13 100  21 100  53 101  54 101
M  END
>  <TORSDO>  (13) 
F 21

>  <SCORE>  (13) 
-13.942

>  <name>  (13) 
12

>  <ligand_id>  (13) 
12

>  <original_smiles>  (13) 
[H]c1c([H])c([H])c2c(c1[H])C([H])([H])C([H])([H])C([H])([H])C2([H])N([H])C(=O)C1([H])N(C(=O)C([H])(N([H])C(=O)C([H])(N([H])C([H])([H])[H])C([H])([H])[H])C(C([H])([H])[H])(C([H])([H])[H])C([H])([H])[H])C([H])([H])c2c([H])c(OC([H])([H])C(=O)C([H])(C(=O)N([H])[H])N([H])C(=O)C([H])(N([H])C(=O)N3C([H])([H])C([H])([H])C([H])([H])C([H])(n4nc(-c5c([H])c([H])c(Oc6c([H])c([H])c(F)c([H])c6F)c([H])c5[H])c(C(=O)N([H])[H])c4N([H])[H])C3([H])[H])C([H])([H])[H])c([H])c([H])c2C1([H])[H]

>  <smiles>  (13) 
[H]c1c([H])c([H])c2c(c1[H])C([H])([H])C([H])([H])C([H])([H])C2([H])N([H])C(=O)C1([H])N(C(=O)C([H])(N([H])C(=O)C([H])(N([H])C([H])([H])[H])C([H])([H])[H])C(C([H])([H])[H])(C([H])([H])[H])C([H])([H])[H])C([H])([H])c2c([H])c(OC([H])([H])C(=O)C([H])(C(=O)N([H])[H])N([H])C(=O)C([H])(N([H])C(=O)N3C([H])([H])C([H])([H])C([H])([H])C([H])(n4nc(-c5c([H])c([H])c(Oc6c([H])c([H])c(F)c([H])c6F)c([H])c5[H])c(C(=O)N([H])[H])c4N([H])[H])C3([H])[H])C([H])([H])[H])c([H])c([H])c2C1([H])[H]

$$$$
13:0:0
     RDKit          3D

 99106  0  0  1  0  0  0  0  0999 V2000
  -31.2060  -21.5170   17.4050 C   0  0  0  0  0  2  0  0  0  0  0  0
  -30.1910  -21.3180   16.3390 N   0  0  0  0  0  4  0  0  0  0  0  0
  -29.4770  -20.6740   16.6410 H   0  0  0  0  0  0  0  0  0  0  0  0
  -30.6640  -20.8820   15.5600 H   0  0  0  0  0  0  0  0  0  0  0  0
  -29.5490  -22.5510   15.8050 C   0  0  0  0  0  2  0  0  0  0  0  0
  -28.5900  -23.2670   16.7820 C   0  0  0  0  0  2  0  0  0  0  0  0
  -29.2610  -24.2730   17.5550 O   0  0  0  0  0  0  0  0  0  0  0  0
  -28.3550  -25.0260   18.3720 C   0  0  0  0  0  2  0  0  0  0  0  0
  -28.9650  -26.3330   18.9420 C   0  0  0  0  0  2  0  0  0  0  0  0
  -28.4610  -26.7540   20.2250 O   0  0  0  0  0  0  0  0  0  0  0  0
  -24.5680  -31.9300   23.2920 C   0  0  0  0  0  0  0  0  0  0  0  0
  -27.2790  -27.4660   20.2450 C   0  0  0  0  0  0  0  0  0  0  0  0
  -23.3900  -30.5030   21.6500 C   0  0  0  0  0  3  0  0  0  0  0  0
  -24.8660  -28.9430   20.2750 C   0  0  0  0  0  0  0  0  0  0  0  0
  -25.9190  -30.8560   21.4920 C   0  0  0  0  0  2  0  0  0  0  0  0
  -26.0170  -29.4750   20.8730 C   0  0  0  0  0  0  0  0  0  0  0  0
  -27.2230  -28.7350   20.8670 C   0  0  0  0  0  3  0  0  0  0  0  0
  -26.0990  -26.9380   19.6830 C   0  0  0  0  0  3  0  0  0  0  0  0
  -24.8970  -27.6650   19.6950 C   0  0  0  0  0  3  0  0  0  0  0  0
  -23.6220  -29.7980   20.2900 C   0  0  0  0  0  2  0  0  0  0  0  0
  -24.6420  -31.1140   22.2020 N   0  0  0  0  0  0  0  0  0  0  0  0
  -23.4780  -32.2100   23.8120 O   0  0  0  0  0  0  0  0  0  0  0  0
  -22.7200  -29.4980   22.6140 C   0  0  0  0  0  0  0  0  0  0  0  0
  -21.4010  -29.2960   22.4490 N   0  0  0  0  0  0  0  0  0  0  0  0
  -23.3850  -28.9010   23.4660 O   0  0  0  0  0  0  0  0  0  0  0  0
  -20.9260  -29.8220   21.7270 H   0  0  0  0  0  0  0  0  0  0  0  0
  -18.0370  -28.0470   22.8500 C   0  0  0  0  0  0  0  0  0  0  0  0
  -20.5740  -28.3630   23.2160 C   0  0  0  0  0  3  0  0  0  0  0  0
  -20.7300  -26.9190   22.6860 C   0  0  0  0  0  2  0  0  0  0  0  0
  -19.6780  -26.5460   21.6370 C   0  0  0  0  0  2  0  0  0  0  0  0
  -18.2670  -26.6830   22.2190 C   0  0  0  0  0  2  0  0  0  0  0  0
  -19.1220  -28.8420   23.3010 C   0  0  0  0  0  0  0  0  0  0  0  0
  -18.8570  -30.1150   23.8480 C   0  0  0  0  0  3  0  0  0  0  0  0
  -17.5400  -30.6010   23.9440 C   0  0  0  0  0  3  0  0  0  0  0  0
  -16.4650  -29.8030   23.5120 C   0  0  0  0  0  3  0  0  0  0  0  0
  -16.7150  -28.5280   22.9740 C   0  0  0  0  0  3  0  0  0  0  0  0
  -25.8440  -32.5670   23.9240 C   0  0  0  0  0  3  0  0  0  0  0  0
  -26.3410  -31.8140   25.2190 C   0  0  1  0  0  0  0  0  0  0  0  0
  -25.2300  -31.5870   26.2730 C   0  0  0  0  0  1  0  0  0  0  0  0
  -26.9300  -30.4330   24.8450 C   0  0  0  0  0  1  0  0  0  0  0  0
  -27.4840  -32.6180   25.8850 C   0  0  0  0  0  1  0  0  0  0  0  0
  -25.5380  -33.9700   24.2270 N   0  0  0  0  0  0  0  0  0  0  0  0
  -25.8850  -35.0080   23.4540 C   0  0  0  0  0  0  0  0  0  0  0  0
  -26.5710  -34.8840   22.4340 O   0  0  0  0  0  0  0  0  0  0  0  0
  -24.9410  -34.1440   25.0210 H   0  0  0  0  0  0  0  0  0  0  0  0
  -24.1730  -36.7980   23.0330 C   0  0  0  0  0  1  0  0  0  0  0  0
  -25.3930  -36.4020   23.8780 C   0  0  0  0  0  3  0  0  0  0  0  0
  -27.5060  -37.2930   24.7490 C   0  0  0  0  0  1  0  0  0  0  0  0
  -26.4300  -37.4510   23.7750 N   0  0  0  0  0  0  0  0  0  0  0  0
  -26.0200  -38.3740   23.9020 H   0  0  0  0  0  0  0  0  0  0  0  0
  -32.0840  -20.2580   17.6470 C   0  0  0  0  0  2  0  0  0  0  0  0
  -31.6920  -19.4550   18.8930 C   0  0  0  0  0  0  0  0  0  0  0  0
  -30.6380  -18.6290   18.7990 N   0  0  0  0  0  0  0  0  0  0  0  0
  -32.3320  -19.5920   19.9380 O   0  0  0  0  0  0  0  0  0  0  0  0
  -30.2390  -18.4560   17.8870 H   0  0  0  0  0  0  0  0  0  0  0  0
  -29.9580  -17.9530   19.9150 C   0  0  0  0  0  3  0  0  0  0  0  0
  -30.9570  -14.4000   20.3120 C   0  0  0  0  0  0  0  0  0  0  0  0
  -30.5460  -12.3070   19.0820 C   0  0  0  0  0  2  0  0  0  0  0  0
  -29.5890  -12.5710   17.9040 C   0  0  0  0  0  2  0  0  0  0  0  0
  -28.1200  -12.4720   18.3630 C   0  0  0  0  0  2  0  0  0  0  0  0
  -27.8290  -13.2750   19.6600 C   0  0  0  0  0  3  0  0  0  0  0  0
  -28.8990  -12.9990   20.7400 C   0  0  0  0  0  2  0  0  0  0  0  0
  -30.2160  -13.2710   20.1410 N   0  0  0  0  0  0  0  0  0  0  0  0
  -32.1270  -14.4850   19.9220 O   0  0  0  0  0  0  0  0  0  0  0  0
  -29.9760  -16.4200   19.6540 C   0  0  0  0  0  0  0  0  0  0  0  0
  -30.3120  -15.9220   22.0600 C   0  0  0  0  0  1  0  0  0  0  0  0
  -30.2860  -15.5290   20.6440 N   0  0  0  0  0  0  0  0  0  0  0  0
  -29.7660  -16.0650   18.4870 O   0  0  0  0  0  0  0  0  0  0  0  0
  -25.4470  -13.9180   20.3840 C   0  0  0  0  0  0  0  0  0  0  0  0
  -24.3720  -13.1600   20.7640 C   0  0  0  0  0  0  0  0  0  0  0  0
  -24.8170  -11.8050   20.7440 C   0  0  0  0  0  0  0  0  0  0  0  0
  -26.4780  -13.0210   20.1550 N   0  0  0  0  0  0  0  0  0  0  0  0
  -26.1060  -11.7470   20.4350 N   0  0  0  0  0  0  0  0  0  0  0  0
  -24.0790  -10.5520   20.9520 C   0  0  0  0  0  0  0  0  0  0  0  0
  -24.4970   -9.6000   21.9080 C   0  0  0  0  0  3  0  0  0  0  0  0
  -23.7610   -8.4120   22.1010 C   0  0  0  0  0  3  0  0  0  0  0  0
  -22.5910   -8.1670   21.3420 C   0  0  0  0  0  0  0  0  0  0  0  0
  -22.1920   -9.1080   20.3790 C   0  0  0  0  0  3  0  0  0  0  0  0
  -22.9290  -10.2890   20.1830 C   0  0  0  0  0  3  0  0  0  0  0  0
  -21.8290   -7.0300   21.4450 O   0  0  0  0  0  0  0  0  0  0  0  0
  -21.7560   -6.3200   22.6170 C   0  0  0  0  0  0  0  0  0  0  0  0
  -21.3060   -6.9070   23.8210 C   0  0  0  0  0  3  0  0  0  0  0  0
  -21.1730   -6.1210   24.9800 C   0  0  0  0  0  3  0  0  0  0  0  0
  -21.4850   -4.7480   24.9430 C   0  0  0  0  0  0  0  0  0  0  0  0
  -21.9300   -4.1610   23.7480 C   0  0  0  0  0  3  0  0  0  0  0  0
  -22.0630   -4.9450   22.5880 C   0  0  0  0  0  0  0  0  0  0  0  0
  -22.4690   -4.3670   21.4300 F   0  0  0  0  0  0  0  0  0  0  0  0
  -21.3560   -3.9910   26.0590 F   0  0  0  0  0  0  0  0  0  0  0  0
  -22.9820  -13.6550   21.0400 C   0  0  0  0  0  0  0  0  0  0  0  0
  -22.2530  -12.9760   21.9190 N   0  0  0  0  0  0  0  0  0  0  0  0
  -22.5480  -14.6760   20.5070 O   0  0  0  0  0  0  0  0  0  0  0  0
  -22.6150  -12.1500   22.3740 H   0  0  0  0  0  0  0  0  0  0  0  0
  -21.3170  -13.2860   22.1420 H   0  0  0  0  0  0  0  0  0  0  0  0
  -25.6280  -15.2830   20.1920 N   0  0  0  0  0  0  0  0  0  0  0  0
  -24.8770  -15.9520   20.3280 H   0  0  0  0  0  0  0  0  0  0  0  0
  -26.4950  -15.7100   19.8990 H   0  0  0  0  0  0  0  0  0  0  0  0
  -28.6150  -20.0860   20.3940 C   0  0  0  0  0  1  0  0  0  0  0  0
  -27.5860  -18.3360   18.8840 C   0  0  0  0  0  1  0  0  0  0  0  0
  -28.5340  -18.5730   20.0820 C   0  0  0  0  0  3  0  0  0  0  0  0
  1 51  1  0
  2  3  1  0
  2  1  1  0
  4  2  1  0
  5  2  1  0
  5  6  1  0
  6  7  1  0
  7  8  1  0
  8  9  1  0
  9 10  1  0
 10 12  1  0
 11 22  2  0
 12 17  1  0
 13 21  1  0
 13 23  1  0
 14 20  1  0
 14 16  1  0
 15 21  1  0
 16 15  1  0
 17 16  2  0
 18 19  1  0
 18 12  2  0
 19 14  2  0
 20 13  1  0
 21 11  1  0
 23 25  2  0
 24 23  1  0
 26 24  1  0
 27 36  2  0
 27 32  1  0
 28 24  1  0
 28 32  1  0
 29 28  1  0
 30 31  1  0
 30 29  1  0
 31 27  1  0
 32 33  2  0
 33 34  1  0
 35 34  2  0
 36 35  1  0
 37 11  1  0
 37 42  1  0
 37 38  1  0
 38 41  1  1
 38 39  1  0
 40 38  1  0
 42 45  1  0
 43 47  1  0
 43 42  1  0
 44 43  2  0
 47 46  1  0
 49 47  1  0
 49 50  1  0
 49 48  1  0
 51 52  1  0
 52 54  2  0
 53 52  1  0
 53 56  1  0
 55 53  1  0
 56 65  1  0
 56 99  1  0
 57 67  1  0
 58 63  1  0
 59 60  1  0
 59 58  1  0
 61 60  1  0
 61 72  1  0
 61 62  1  0
 63 57  1  0
 63 62  1  0
 64 57  2  0
 65 67  1  0
 67 66  1  0
 68 65  2  0
 69 70  2  0
 70 89  1  0
 71 70  1  0
 71 74  1  0
 72 69  1  0
 72 73  1  0
 73 71  2  0
 74 75  1  0
 75 76  2  0
 77 80  1  0
 77 76  1  0
 78 77  2  0
 79 78  1  0
 79 74  2  0
 80 81  1  0
 81 82  1  0
 82 83  2  0
 84 83  1  0
 84 88  1  0
 85 84  2  0
 86 81  2  0
 86 85  1  0
 87 86  1  0
 89 90  1  0
 90 93  1  0
 90 92  1  0
 91 89  2  0
 94 95  1  0
 94 69  1  0
 96 94  1  0
 98 99  1  0
 99 97  1  0
M  ISO  4   9 101  10 101  57 100  67 100
M  END
>  <TORSDO>  (14) 
F 26

>  <SCORE>  (14) 
-11.388

>  <name>  (14) 
13

>  <ligand_id>  (14) 
13

>  <original_smiles>  (14) 
[H]c1c([H])c([H])c2c(c1[H])C([H])([H])C([H])([H])C([H])([H])C2([H])N([H])C(=O)C1([H])N(C(=O)C([H])(N([H])C(=O)C([H])(N([H])C([H])([H])[H])C([H])([H])[H])C(C([H])([H])[H])(C([H])([H])[H])C([H])([H])[H])C([H])([H])c2c([H])c(OC([H])([H])C([H])([H])OC([H])([H])C([H])([H])[N+]([H])([H])C([H])([H])C([H])([H])C(=O)N([H])C([H])(C(=O)N(C(=O)N3C([H])([H])C([H])([H])C([H])([H])C([H])(n4nc(-c5c([H])c([H])c(Oc6c([H])c([H])c(F)c([H])c6F)c([H])c5[H])c(C(=O)N([H])[H])c4N([H])[H])C3([H])[H])C([H])([H])[H])C([H])(C([H])([H])[H])C([H])([H])[H])c([H])c([H])c2C1([H])[H]

>  <smiles>  (14) 
[H]c1c([H])c([H])c2c(c1[H])C([H])([H])C([H])([H])C([H])([H])C2([H])N([H])C(=O)C1([H])N(C(=O)C([H])(N([H])C(=O)C([H])(N([H])C([H])([H])[H])C([H])([H])[H])C(C([H])([H])[H])(C([H])([H])[H])C([H])([H])[H])C([H])([H])c2c([H])c(OC([H])([H])C([H])([H])OC([H])([H])C([H])([H])[N+]([H])([H])C([H])([H])C([H])([H])C(=O)N([H])C([H])(C(=O)N(C(=O)N3C([H])([H])C([H])([H])C([H])([H])C([H])(n4nc(-c5c([H])c([H])c(Oc6c([H])c([H])c(F)c([H])c6F)c([H])c5[H])c(C(=O)N([H])[H])c4N([H])[H])C3([H])[H])C([H])([H])[H])C([H])(C([H])([H])[H])C([H])([H])[H])c([H])c([H])c2C1([H])[H]

$$$$
14:0:0
     RDKit          3D

 96103  0  0  1  0  0  0  0  0999 V2000
  -30.2460  -21.5590   16.6300 C   0  0  0  0  0  2  0  0  0  0  0  0
  -29.3550  -21.1390   17.6620 O   0  0  0  0  0  0  0  0  0  0  0  0
  -29.1020  -19.7370   17.5920 C   0  0  0  0  0  2  0  0  0  0  0  0
  -28.1330  -19.2680   18.6940 C   0  0  0  0  0  2  0  0  0  0  0  0
  -29.3550  -17.4860   19.9020 C   0  0  0  0  0  0  0  0  0  0  0  0
  -28.8130  -18.7100   19.8620 N   0  0  0  0  0  0  0  0  0  0  0  0
  -29.4000  -16.7620   18.9050 O   0  0  0  0  0  0  0  0  0  0  0  0
  -28.8040  -19.2610   20.7130 H   0  0  0  0  0  0  0  0  0  0  0  0
  -31.3010  -17.5560   21.6010 C   0  0  0  0  0  1  0  0  0  0  0  0
  -29.9110  -16.9910   21.2520 C   0  0  0  0  0  3  0  0  0  0  0  0
  -30.5790  -14.5900   20.7530 C   0  0  0  0  0  0  0  0  0  0  0  0
  -30.3810  -12.4330   19.5820 C   0  0  0  0  0  2  0  0  0  0  0  0
  -29.4780  -12.6360   18.3480 C   0  0  0  0  0  2  0  0  0  0  0  0
  -27.9900  -12.4710   18.7190 C   0  0  0  0  0  2  0  0  0  0  0  0
  -27.5950  -13.2940   19.9760 C   0  0  0  0  0  3  0  0  0  0  0  0
  -28.6090  -13.0620   21.1180 C   0  0  0  0  0  2  0  0  0  0  0  0
  -29.9550  -13.3930   20.6090 N   0  0  0  0  0  0  0  0  0  0  0  0
  -31.6850  -14.8380   20.2610 O   0  0  0  0  0  0  0  0  0  0  0  0
  -29.8190  -15.5250   21.3410 N   0  0  0  0  0  0  0  0  0  0  0  0
  -28.9360  -15.1780   21.6840 H   0  0  0  0  0  0  0  0  0  0  0  0
  -25.1590  -13.8640   20.5900 C   0  0  0  0  0  0  0  0  0  0  0  0
  -24.0950  -13.0750   20.9340 C   0  0  0  0  0  0  0  0  0  0  0  0
  -24.5810  -11.7310   20.9300 C   0  0  0  0  0  0  0  0  0  0  0  0
  -26.2280  -13.0020   20.4030 N   0  0  0  0  0  0  0  0  0  0  0  0
  -25.8820  -11.7150   20.6650 N   0  0  0  0  0  0  0  0  0  0  0  0
  -23.8750  -10.4570   21.1100 C   0  0  0  0  0  0  0  0  0  0  0  0
  -24.3150   -9.4970   22.0470 C   0  0  0  0  0  3  0  0  0  0  0  0
  -23.6090   -8.2860   22.2150 C   0  0  0  0  0  3  0  0  0  0  0  0
  -22.4500   -8.0280   21.4460 C   0  0  0  0  0  0  0  0  0  0  0  0
  -22.0320   -8.9760   20.4960 C   0  0  0  0  0  3  0  0  0  0  0  0
  -22.7380  -10.1780   20.3260 C   0  0  0  0  0  3  0  0  0  0  0  0
  -21.7180   -6.8670   21.5200 O   0  0  0  0  0  0  0  0  0  0  0  0
  -21.6800   -6.1100   22.6630 C   0  0  0  0  0  0  0  0  0  0  0  0
  -21.2580   -6.6470   23.8990 C   0  0  0  0  0  3  0  0  0  0  0  0
  -21.1720   -5.8160   25.0350 C   0  0  0  0  0  3  0  0  0  0  0  0
  -21.4960   -4.4500   24.9350 C   0  0  0  0  0  0  0  0  0  0  0  0
  -21.9120   -3.9120   23.7050 C   0  0  0  0  0  3  0  0  0  0  0  0
  -22.0010   -4.7410   22.5710 C   0  0  0  0  0  0  0  0  0  0  0  0
  -22.3800   -4.2140   21.3820 F   0  0  0  0  0  0  0  0  0  0  0  0
  -21.4050   -3.6500   26.0230 F   0  0  0  0  0  0  0  0  0  0  0  0
  -22.6800  -13.5240   21.1550 C   0  0  0  0  0  0  0  0  0  0  0  0
  -21.9360  -12.8220   22.0030 N   0  0  0  0  0  0  0  0  0  0  0  0
  -22.2380  -14.5330   20.6100 O   0  0  0  0  0  0  0  0  0  0  0  0
  -22.3000  -12.0020   22.4640 H   0  0  0  0  0  0  0  0  0  0  0  0
  -20.9860  -13.1070   22.1910 H   0  0  0  0  0  0  0  0  0  0  0  0
  -25.3040  -15.2370   20.4040 N   0  0  0  0  0  0  0  0  0  0  0  0
  -24.5210  -15.8790   20.4810 H   0  0  0  0  0  0  0  0  0  0  0  0
  -26.1570  -15.6870   20.0990 H   0  0  0  0  0  0  0  0  0  0  0  0
  -30.1590  -23.0680   16.3580 C   0  0  0  0  0  2  0  0  0  0  0  0
  -30.9010  -23.8310   17.3050 O   0  0  0  0  0  0  0  0  0  0  0  0
  -31.1200  -25.1560   16.8280 C   0  0  0  0  0  2  0  0  0  0  0  0
  -31.8870  -26.0210   17.8420 C   0  0  0  0  0  2  0  0  0  0  0  0
  -30.9870  -26.8080   18.6100 O   0  0  0  0  0  0  0  0  0  0  0  0
  -30.7260  -26.3020   19.9120 C   0  0  0  0  0  2  0  0  0  0  0  0
  -29.6130  -27.1520   20.5420 C   0  0  0  0  0  2  0  0  0  0  0  0
  -28.3770  -26.6820   20.0190 O   0  0  0  0  0  0  0  0  0  0  0  0
  -24.5690  -31.8640   23.1980 C   0  0  0  0  0  0  0  0  0  0  0  0
  -27.2470  -27.4610   20.1150 C   0  0  0  0  0  0  0  0  0  0  0  0
  -23.3670  -30.4600   21.5520 C   0  0  0  0  0  3  0  0  0  0  0  0
  -24.8290  -28.9260   20.1350 C   0  0  0  0  0  0  0  0  0  0  0  0
  -25.8860  -30.8340   21.3550 C   0  0  0  0  0  2  0  0  0  0  0  0
  -25.9800  -29.4610   20.7260 C   0  0  0  0  0  0  0  0  0  0  0  0
  -27.1890  -28.7360   20.7280 C   0  0  0  0  0  3  0  0  0  0  0  0
  -26.0780  -26.9300   19.5350 C   0  0  0  0  0  3  0  0  0  0  0  0
  -24.8690  -27.6530   19.5410 C   0  0  0  0  0  3  0  0  0  0  0  0
  -23.5790  -29.7760   20.1750 C   0  0  0  0  0  2  0  0  0  0  0  0
  -24.6250  -31.0670   22.0950 N   0  0  0  0  0  0  0  0  0  0  0  0
  -23.4870  -32.1350   23.7380 O   0  0  0  0  0  0  0  0  0  0  0  0
  -22.7180  -29.4370   22.5120 C   0  0  0  0  0  0  0  0  0  0  0  0
  -21.3910  -29.2660   22.3920 N   0  0  0  0  0  0  0  0  0  0  0  0
  -23.4030  -28.8030   23.3190 O   0  0  0  0  0  0  0  0  0  0  0  0
  -20.9010  -29.8300   21.7100 H   0  0  0  0  0  0  0  0  0  0  0  0
  -18.0090  -28.1080   22.9090 C   0  0  0  0  0  0  0  0  0  0  0  0
  -20.5710  -28.3310   23.1610 C   0  0  0  0  0  3  0  0  0  0  0  0
  -20.6520  -26.9040   22.5690 C   0  0  0  0  0  2  0  0  0  0  0  0
  -19.5370  -26.6050   21.5630 C   0  0  0  0  0  2  0  0  0  0  0  0
  -18.1640  -26.7620   22.2200 C   0  0  0  0  0  2  0  0  0  0  0  0
  -19.1400  -28.8520   23.3360 C   0  0  0  0  0  0  0  0  0  0  0  0
  -18.9430  -30.1140   23.9380 C   0  0  0  0  0  3  0  0  0  0  0  0
  -17.6460  -30.6300   24.1170 C   0  0  0  0  0  3  0  0  0  0  0  0
  -16.5280  -29.8820   23.7080 C   0  0  0  0  0  3  0  0  0  0  0  0
  -16.7120  -28.6220   23.1090 C   0  0  0  0  0  3  0  0  0  0  0  0
  -25.8560  -32.4950   23.8190 C   0  0  0  0  0  3  0  0  0  0  0  0
  -26.3890  -31.7060   25.0780 C   0  0  1  0  0  0  0  0  0  0  0  0
  -25.3070  -31.4440   26.1520 C   0  0  0  0  0  1  0  0  0  0  0  0
  -26.9760  -30.3380   24.6540 C   0  0  0  0  0  1  0  0  0  0  0  0
  -27.5430  -32.4950   25.7400 C   0  0  0  0  0  1  0  0  0  0  0  0
  -25.5410  -33.8870   24.1700 N   0  0  0  0  0  0  0  0  0  0  0  0
  -25.8640  -34.9490   23.4200 C   0  0  0  0  0  0  0  0  0  0  0  0
  -26.5270  -34.8610   22.3830 O   0  0  0  0  0  0  0  0  0  0  0  0
  -24.9520  -34.0270   24.9770 H   0  0  0  0  0  0  0  0  0  0  0  0
  -24.1200  -36.7310   23.0920 C   0  0  0  0  0  1  0  0  0  0  0  0
  -25.3680  -36.3290   23.8950 C   0  0  0  0  0  3  0  0  0  0  0  0
  -27.5040  -37.2150   24.7210 C   0  0  0  0  0  1  0  0  0  0  0  0
  -26.3930  -37.3890   23.7880 N   0  0  0  0  0  0  0  0  0  0  0  0
  -25.9840  -38.3040   23.9520 H   0  0  0  0  0  0  0  0  0  0  0  0
  1  2  1  0
  3  2  1  0
  3  4  1  0
  4  6  1  0
  5 10  1  0
  6  5  1  0
  6  8  1  0
  7  5  2  0
 10 19  1  0
 10  9  1  0
 11 19  1  0
 12 17  1  0
 13 14  1  0
 13 12  1  0
 15 14  1  0
 15 24  1  0
 15 16  1  0
 17 11  1  0
 17 16  1  0
 18 11  2  0
 19 20  1  0
 21 22  2  0
 22 41  1  0
 23 22  1  0
 23 26  1  0
 24 21  1  0
 24 25  1  0
 25 23  2  0
 26 27  1  0
 27 28  2  0
 29 32  1  0
 29 28  1  0
 30 29  2  0
 31 30  1  0
 31 26  2  0
 32 33  1  0
 33 34  1  0
 34 35  2  0
 36 35  1  0
 36 40  1  0
 37 36  2  0
 38 33  2  0
 38 37  1  0
 39 38  1  0
 41 42  1  0
 42 45  1  0
 42 44  1  0
 43 41  2  0
 46 47  1  0
 46 21  1  0
 48 46  1  0
 49  1  1  0
 49 50  1  0
 51 50  1  0
 51 52  1  0
 52 53  1  0
 53 54  1  0
 54 55  1  0
 56 58  1  0
 56 55  1  0
 57 68  2  0
 58 63  1  0
 59 67  1  0
 59 69  1  0
 60 66  1  0
 60 62  1  0
 61 67  1  0
 62 63  2  0
 62 61  1  0
 64 65  1  0
 64 58  2  0
 65 60  2  0
 66 59  1  0
 67 57  1  0
 69 71  2  0
 70 69  1  0
 72 70  1  0
 73 82  2  0
 73 78  1  0
 74 70  1  0
 74 78  1  0
 75 74  1  0
 76 77  1  0
 76 75  1  0
 77 73  1  0
 78 79  2  0
 79 80  1  0
 81 80  2  0
 82 81  1  0
 83 57  1  0
 83 88  1  0
 83 84  1  0
 84 87  1  1
 84 85  1  0
 86 84  1  0
 88 91  1  0
 89 93  1  0
 89 88  1  0
 90 89  2  0
 93 92  1  0
 95 93  1  0
 95 96  1  0
 95 94  1  0
M  ISO  4  11 100  19 100  55 101  56 101
M  END
>  <TORSDO>  (15) 
F 28

>  <SCORE>  (15) 
-11.448

>  <name>  (15) 
14

>  <ligand_id>  (15) 
14

>  <original_smiles>  (15) 
[H]c1c([H])c([H])c2c(c1[H])C([H])([H])C([H])([H])C([H])([H])C2([H])N([H])C(=O)C1([H])N(C(=O)C([H])(N([H])C(=O)C([H])(N([H])C([H])([H])[H])C([H])([H])[H])C(C([H])([H])[H])(C([H])([H])[H])C([H])([H])[H])C([H])([H])c2c([H])c(OC([H])([H])C([H])([H])OC([H])([H])C([H])([H])OC([H])([H])C([H])([H])OC([H])([H])C([H])([H])N([H])C(=O)C([H])(N([H])C(=O)N3C([H])([H])C([H])([H])C([H])([H])C([H])(n4nc(-c5c([H])c([H])c(Oc6c([H])c([H])c(F)c([H])c6F)c([H])c5[H])c(C(=O)N([H])[H])c4N([H])[H])C3([H])[H])C([H])([H])[H])c([H])c([H])c2C1([H])[H]

>  <smiles>  (15) 
[H]c1c([H])c([H])c2c(c1[H])C([H])([H])C([H])([H])C([H])([H])C2([H])N([H])C(=O)C1([H])N(C(=O)C([H])(N([H])C(=O)C([H])(N([H])C([H])([H])[H])C([H])([H])[H])C(C([H])([H])[H])(C([H])([H])[H])C([H])([H])[H])C([H])([H])c2c([H])c(OC([H])([H])C([H])([H])OC([H])([H])C([H])([H])OC([H])([H])C([H])([H])OC([H])([H])C([H])([H])N([H])C(=O)C([H])(N([H])C(=O)N3C([H])([H])C([H])([H])C([H])([H])C([H])(n4nc(-c5c([H])c([H])c(Oc6c([H])c([H])c(F)c([H])c6F)c([H])c5[H])c(C(=O)N([H])[H])c4N([H])[H])C3([H])[H])C([H])([H])[H])c([H])c([H])c2C1([H])[H]

$$$$
15:0:0
     RDKit          3D

 98105  0  0  1  0  0  0  0  0999 V2000
  -29.5170  -19.5080   21.2230 C   0  0  0  0  0  0  0  0  0  0  0  0
  -30.2450  -20.0280   20.2240 N   0  0  0  0  0  0  0  0  0  0  0  0
  -29.5770  -19.9570   22.3690 O   0  0  0  0  0  0  0  0  0  0  0  0
  -30.1150  -19.6700   19.2890 H   0  0  0  0  0  0  0  0  0  0  0  0
  -31.1880  -21.1200   20.4010 C   0  0  0  0  0  2  0  0  0  0  0  0
  -31.7650  -21.5870   19.0630 C   0  0  0  0  0  2  0  0  0  0  0  0
  -32.6270  -22.6710   19.3530 O   0  0  0  0  0  0  0  0  0  0  0  0
  -32.9910  -23.4120   18.2020 C   0  0  0  0  0  2  0  0  0  0  0  0
  -33.5990  -24.7370   18.6690 C   0  0  0  0  0  2  0  0  0  0  0  0
  -33.1080  -25.7770   17.8390 O   0  0  0  0  0  0  0  0  0  0  0  0
  -28.2590  -28.3650   22.3580 C   0  0  0  0  0  0  0  0  0  0  0  0
  -31.8030  -26.1180   18.0690 C   0  0  0  0  0  0  0  0  0  0  0  0
  -27.3840  -27.5030   20.2060 C   0  0  0  0  0  3  0  0  0  0  0  0
  -29.1400  -26.9470   18.4450 C   0  0  0  0  0  0  0  0  0  0  0  0
  -29.7690  -28.4020   20.3800 C   0  0  0  0  0  2  0  0  0  0  0  0
  -30.1480  -27.4240   19.2930 C   0  0  0  0  0  0  0  0  0  0  0  0
  -31.4820  -27.0100   19.1110 C   0  0  0  0  0  3  0  0  0  0  0  0
  -30.7830  -25.6280   17.2300 C   0  0  0  0  0  3  0  0  0  0  0  0
  -29.4490  -26.0370   17.4180 C   0  0  0  0  0  3  0  0  0  0  0  0
  -27.7400  -27.4580   18.6970 C   0  0  0  0  0  2  0  0  0  0  0  0
  -28.4850  -28.0830   21.0430 N   0  0  0  0  0  0  0  0  0  0  0  0
  -27.1410  -28.1930   22.8650 O   0  0  0  0  0  0  0  0  0  0  0  0
  -26.9610  -26.0850   20.6510 C   0  0  0  0  0  0  0  0  0  0  0  0
  -25.8510  -25.5900   20.0810 N   0  0  0  0  0  0  0  0  0  0  0  0
  -27.6340  -25.4480   21.4680 O   0  0  0  0  0  0  0  0  0  0  0  0
  -25.3510  -26.1770   19.4280 H   0  0  0  0  0  0  0  0  0  0  0  0
  -23.2120  -23.3390   19.0780 C   0  0  0  0  0  0  0  0  0  0  0  0
  -25.2830  -24.2630   20.3170 C   0  0  0  0  0  3  0  0  0  0  0  0
  -26.0870  -23.1750   19.5710 C   0  0  0  0  0  2  0  0  0  0  0  0
  -25.5260  -22.8550   18.1800 C   0  0  0  0  0  2  0  0  0  0  0  0
  -24.0770  -22.3740   18.2850 C   0  0  0  0  0  2  0  0  0  0  0  0
  -23.7810  -24.2360   20.0210 C   0  0  0  0  0  0  0  0  0  0  0  0
  -22.9350  -25.1360   20.7050 C   0  0  0  0  0  3  0  0  0  0  0  0
  -21.5470  -25.1480   20.4650 C   0  0  0  0  0  3  0  0  0  0  0  0
  -20.9870  -24.2470   19.5440 C   0  0  0  0  0  3  0  0  0  0  0  0
  -21.8170  -23.3430   18.8570 C   0  0  0  0  0  3  0  0  0  0  0  0
  -29.3810  -28.9410   23.2780 C   0  0  0  0  0  3  0  0  0  0  0  0
  -29.9760  -27.8720   24.2740 C   0  0  1  0  0  0  0  0  0  0  0  0
  -28.8990  -27.0460   25.0120 C   0  0  0  0  0  1  0  0  0  0  0  0
  -30.9000  -26.8840   23.5250 C   0  0  0  0  0  1  0  0  0  0  0  0
  -30.8500  -28.5770   25.3390 C   0  0  0  0  0  1  0  0  0  0  0  0
  -28.8110  -30.0780   24.0100 N   0  0  0  0  0  0  0  0  0  0  0  0
  -29.0580  -31.3640   23.7270 C   0  0  0  0  0  0  0  0  0  0  0  0
  -29.8620  -31.7180   22.8600 O   0  0  0  0  0  0  0  0  0  0  0  0
  -28.1010  -29.8620   24.6950 H   0  0  0  0  0  0  0  0  0  0  0  0
  -27.1560  -33.0100   23.6910 C   0  0  0  0  0  1  0  0  0  0  0  0
  -28.2960  -32.4270   24.5430 C   0  0  0  0  0  3  0  0  0  0  0  0
  -30.1140  -33.0970   26.0550 C   0  0  0  0  0  1  0  0  0  0  0  0
  -29.1620  -33.5240   25.0320 N   0  0  0  0  0  0  0  0  0  0  0  0
  -28.6010  -34.2800   25.4160 H   0  0  0  0  0  0  0  0  0  0  0  0
  -28.6210  -18.3010   20.9090 C   0  0  0  0  0  3  0  0  0  0  0  0
  -30.1530  -16.3540   20.5750 C   0  0  0  0  0  0  0  0  0  0  0  0
  -29.3140  -17.2830   20.1050 N   0  0  0  0  0  0  0  0  0  0  0  0
  -30.4860  -16.2860   21.7590 O   0  0  0  0  0  0  0  0  0  0  0  0
  -29.1040  -17.2600   19.1170 H   0  0  0  0  0  0  0  0  0  0  0  0
  -32.1520  -15.6340   19.1610 C   0  0  0  0  0  1  0  0  0  0  0  0
  -30.7020  -15.3250   19.5780 C   0  0  0  0  0  3  0  0  0  0  0  0
  -31.2660  -12.8830   19.9900 C   0  0  0  0  0  0  0  0  0  0  0  0
  -31.2860  -10.4730   20.5780 C   0  0  0  0  0  2  0  0  0  0  0  0
  -30.4380   -9.6370   19.5970 C   0  0  0  0  0  2  0  0  0  0  0  0
  -28.9410   -9.6670   19.9670 C   0  0  0  0  0  2  0  0  0  0  0  0
  -28.4260  -11.1040   20.2460 C   0  0  0  0  0  3  0  0  0  0  0  0
  -29.3700  -11.8050   21.2420 C   0  0  0  0  0  2  0  0  0  0  0  0
  -30.7240  -11.8300   20.6480 N   0  0  0  0  0  0  0  0  0  0  0  0
  -32.2740  -12.7990   19.2750 O   0  0  0  0  0  0  0  0  0  0  0  0
  -30.6070  -14.0230   20.2230 N   0  0  0  0  0  0  0  0  0  0  0  0
  -29.8270  -13.9360   20.8650 H   0  0  0  0  0  0  0  0  0  0  0  0
  -26.1710  -12.1650   20.9190 C   0  0  0  0  0  0  0  0  0  0  0  0
  -24.9820  -11.6090   21.3150 C   0  0  0  0  0  0  0  0  0  0  0  0
  -25.1920  -10.1980   21.3220 C   0  0  0  0  0  0  0  0  0  0  0  0
  -27.0450  -11.1020   20.7270 N   0  0  0  0  0  0  0  0  0  0  0  0
  -26.4530   -9.9150   21.0210 N   0  0  0  0  0  0  0  0  0  0  0  0
  -24.2510   -9.0940   21.5570 C   0  0  0  0  0  0  0  0  0  0  0  0
  -24.2010   -8.4270   22.8000 C   0  0  0  0  0  3  0  0  0  0  0  0
  -23.2810   -7.3780   23.0090 C   0  0  0  0  0  3  0  0  0  0  0  0
  -22.4020   -6.9900   21.9730 C   0  0  0  0  0  0  0  0  0  0  0  0
  -22.4700   -7.6410   20.7290 C   0  0  0  0  0  3  0  0  0  0  0  0
  -23.3860   -8.6850   20.5210 C   0  0  0  0  0  3  0  0  0  0  0  0
  -21.4930   -5.9660   22.0720 O   0  0  0  0  0  0  0  0  0  0  0  0
  -20.6340   -5.8730   23.1350 C   0  0  0  0  0  0  0  0  0  0  0  0
  -19.6910   -6.8860   23.4170 C   0  0  0  0  0  3  0  0  0  0  0  0
  -18.7810   -6.7220   24.4820 C   0  0  0  0  0  3  0  0  0  0  0  0
  -18.8000   -5.5400   25.2490 C   0  0  0  0  0  0  0  0  0  0  0  0
  -19.7310   -4.5280   24.9640 C   0  0  0  0  0  3  0  0  0  0  0  0
  -20.6470   -4.6940   23.9070 C   0  0  0  0  0  0  0  0  0  0  0  0
  -21.5320   -3.7070   23.6220 F   0  0  0  0  0  0  0  0  0  0  0  0
  -17.9220   -5.3780   26.2670 F   0  0  0  0  0  0  0  0  0  0  0  0
  -23.6970  -12.3410   21.5760 C   0  0  0  0  0  0  0  0  0  0  0  0
  -22.8740  -11.8300   22.4840 N   0  0  0  0  0  0  0  0  0  0  0  0
  -23.4280  -13.3990   21.0100 O   0  0  0  0  0  0  0  0  0  0  0  0
  -22.0120  -12.3170   22.6940 H   0  0  0  0  0  0  0  0  0  0  0  0
  -23.0860  -10.9770   22.9790 H   0  0  0  0  0  0  0  0  0  0  0  0
  -26.5750  -13.4770   20.7100 N   0  0  0  0  0  0  0  0  0  0  0  0
  -25.9040  -14.2350   20.6560 H   0  0  0  0  0  0  0  0  0  0  0  0
  -27.4840  -13.7110   20.3300 H   0  0  0  0  0  0  0  0  0  0  0  0
  -27.2830  -18.6880   20.2470 C   0  0  0  0  0  2  0  0  0  0  0  0
  -26.3380  -17.6320   20.3290 O   0  0  0  0  0  0  0  0  0  0  0  0
  -25.7470  -17.7320   19.5880 H   0  0  0  0  0  0  0  0  0  0  0  0
  1  3  2  0
  2  5  1  0
  2  1  1  0
  4  2  1  0
  6  7  1  0
  6  5  1  0
  8  9  1  0
  8  7  1  0
 10 12  1  0
 10  9  1  0
 11 22  2  0
 12 17  1  0
 13 23  1  0
 13 21  1  0
 14 20  1  0
 14 16  1  0
 15 21  1  0
 16 15  1  0
 17 16  2  0
 18 19  1  0
 18 12  2  0
 19 14  2  0
 20 13  1  0
 21 11  1  0
 23 25  2  0
 24 23  1  0
 26 24  1  0
 27 32  1  0
 28 24  1  0
 29 28  1  0
 30 31  1  0
 30 29  1  0
 31 27  1  0
 32 28  1  0
 32 33  2  0
 34 33  1  0
 35 34  2  0
 36 27  2  0
 36 35  1  0
 37 11  1  0
 37 42  1  0
 37 38  1  0
 38 39  1  1
 38 41  1  0
 40 38  1  0
 42 45  1  0
 43 42  1  0
 43 47  1  0
 44 43  2  0
 47 46  1  0
 47 49  1  0
 49 50  1  0
 49 48  1  0
 51 96  1  0
 51  1  1  0
 52 54  2  0
 53 52  1  0
 53 51  1  0
 55 53  1  0
 57 56  1  0
 57 66  1  0
 57 52  1  0
 58 66  1  0
 58 64  1  0
 59 64  1  0
 60 61  1  0
 60 59  1  0
 62 61  1  0
 62 71  1  0
 62 63  1  0
 64 63  1  0
 65 58  2  0
 66 67  1  0
 68 69  2  0
 69 70  1  0
 69 88  1  0
 70 73  1  0
 71 68  1  0
 71 72  1  0
 72 70  2  0
 73 74  1  0
 74 75  2  0
 76 79  1  0
 76 75  1  0
 77 76  2  0
 78 77  1  0
 78 73  2  0
 79 80  1  0
 80 81  2  0
 80 85  1  0
 81 82  1  0
 82 83  2  0
 83 87  1  0
 84 83  1  0
 85 84  2  0
 86 85  1  0
 88 89  1  0
 89 91  1  0
 89 92  1  0
 90 88  2  0
 93 68  1  0
 94 93  1  0
 95 93  1  0
 96 97  1  0
 98 97  1  0
M  ISO  4   9 101  10 101  58 100  66 100
M  END
>  <TORSDO>  (16) 
F 26

>  <SCORE>  (16) 
-4.186

>  <name>  (16) 
15

>  <ligand_id>  (16) 
15

>  <original_smiles>  (16) 
[H]OC([H])([H])C([H])(C(=O)N([H])C([H])([H])C([H])([H])OC([H])([H])C([H])([H])Oc1c([H])c([H])c2c(c1[H])C([H])([H])N(C(=O)C([H])(N([H])C(=O)C([H])(N([H])C([H])([H])[H])C([H])([H])[H])C(C([H])([H])[H])(C([H])([H])[H])C([H])([H])[H])C([H])(C(=O)N([H])C1([H])c3c([H])c([H])c([H])c([H])c3C([H])([H])C([H])([H])C1([H])[H])C2([H])[H])N([H])C(=O)C([H])(N([H])C(=O)N1C([H])([H])C([H])([H])C([H])([H])C([H])(n2nc(-c3c([H])c([H])c(Oc4c([H])c([H])c(F)c([H])c4F)c([H])c3[H])c(C(=O)N([H])[H])c2N([H])[H])C1([H])[H])C([H])([H])[H]

>  <smiles>  (16) 
[H]OC([H])([H])C([H])(C(=O)N([H])C([H])([H])C([H])([H])OC([H])([H])C([H])([H])Oc1c([H])c([H])c2c(c1[H])C([H])([H])N(C(=O)C([H])(N([H])C(=O)C([H])(N([H])C([H])([H])[H])C([H])([H])[H])C(C([H])([H])[H])(C([H])([H])[H])C([H])([H])[H])C([H])(C(=O)N([H])C1([H])c3c([H])c([H])c([H])c([H])c3C([H])([H])C([H])([H])C1([H])[H])C2([H])[H])N([H])C(=O)C([H])(N([H])C(=O)N1C([H])([H])C([H])([H])C([H])([H])C([H])(n2nc(-c3c([H])c([H])c(Oc4c([H])c([H])c(F)c([H])c4F)c([H])c3[H])c(C(=O)N([H])[H])c2N([H])[H])C1([H])[H])C([H])([H])[H]

$$$$
16:0:0
     RDKit          3D

 91 99  0  0  1  0  0  0  0  0999 V2000
  -29.6080  -21.2540   21.1160 C   0  0  0  0  0  2  0  0  0  0  0  0
  -29.9910  -17.7190   19.5460 C   0  0  0  0  0  2  0  0  0  0  0  0
  -30.1660  -17.5330   22.0470 C   0  0  0  0  0  2  0  0  0  0  0  0
  -30.1800  -19.2520   19.6860 C   0  0  0  0  0  2  0  0  0  0  0  0
  -30.2980  -19.0750   22.1140 C   0  0  0  0  0  2  0  0  0  0  0  0
  -30.6330  -16.9220   20.7060 C   0  0  0  0  0  3  0  0  0  0  0  0
  -29.6240  -19.7570   20.9720 N   0  0  1  0  0  4  0  0  0  0  0  0
  -28.6580  -19.4670   21.0070 H   0  0  0  0  0  0  0  0  0  0  0  0
  -30.9220  -14.4920   20.0320 C   0  0  0  0  0  0  0  0  0  0  0  0
  -30.5780  -12.3110   18.9270 C   0  0  0  0  0  2  0  0  0  0  0  0
  -29.5770  -12.4860   17.7680 C   0  0  0  0  0  2  0  0  0  0  0  0
  -28.1250  -12.3500   18.2700 C   0  0  0  0  0  2  0  0  0  0  0  0
  -27.8460  -13.2000   19.5400 C   0  0  0  0  0  3  0  0  0  0  0  0
  -28.9590  -13.0030   20.5950 C   0  0  0  0  0  2  0  0  0  0  0  0
  -30.2510  -13.3090   19.9560 N   0  0  0  0  0  0  0  0  0  0  0  0
  -32.0010  -14.6930   19.4690 O   0  0  0  0  0  0  0  0  0  0  0  0
  -30.2650  -15.4890   20.6530 N   0  0  0  0  0  0  0  0  0  0  0  0
  -29.3990  -15.2230   21.0950 H   0  0  0  0  0  0  0  0  0  0  0  0
  -25.4920  -13.8000   20.3970 C   0  0  0  0  0  0  0  0  0  0  0  0
  -24.4470  -13.0250   20.8220 C   0  0  0  0  0  0  0  0  0  0  0  0
  -24.9020  -11.6740   20.7450 C   0  0  0  0  0  0  0  0  0  0  0  0
  -26.5210  -12.9220   20.0930 N   0  0  0  0  0  0  0  0  0  0  0  0
  -26.1710  -11.6370   20.3580 N   0  0  0  0  0  0  0  0  0  0  0  0
  -24.1840  -10.4100   20.9610 C   0  0  0  0  0  0  0  0  0  0  0  0
  -24.6090   -9.4810   21.9350 C   0  0  0  0  0  3  0  0  0  0  0  0
  -23.8940   -8.2800   22.1390 C   0  0  0  0  0  3  0  0  0  0  0  0
  -22.7410   -8.0000   21.3680 C   0  0  0  0  0  0  0  0  0  0  0  0
  -22.3360   -8.9200   20.3860 C   0  0  0  0  0  3  0  0  0  0  0  0
  -23.0490  -10.1120   20.1810 C   0  0  0  0  0  3  0  0  0  0  0  0
  -21.9980   -6.8500   21.4790 O   0  0  0  0  0  0  0  0  0  0  0  0
  -21.8460   -6.2070   22.6810 C   0  0  0  0  0  0  0  0  0  0  0  0
  -21.2740   -6.8480   23.8030 C   0  0  0  0  0  3  0  0  0  0  0  0
  -21.0700   -6.1260   24.9960 C   0  0  0  0  0  3  0  0  0  0  0  0
  -21.4260   -4.7660   25.0690 C   0  0  0  0  0  0  0  0  0  0  0  0
  -21.9900   -4.1260   23.9500 C   0  0  0  0  0  3  0  0  0  0  0  0
  -22.1970   -4.8440   22.7600 C   0  0  0  0  0  0  0  0  0  0  0  0
  -22.7180   -4.2170   21.6790 F   0  0  0  0  0  0  0  0  0  0  0  0
  -21.2240   -4.0700   26.2130 F   0  0  0  0  0  0  0  0  0  0  0  0
  -23.0690  -13.5020   21.1830 C   0  0  0  0  0  0  0  0  0  0  0  0
  -22.3960  -12.8030   22.0900 N   0  0  0  0  0  0  0  0  0  0  0  0
  -22.6000  -14.5290   20.6950 O   0  0  0  0  0  0  0  0  0  0  0  0
  -22.7880  -11.9730   22.5110 H   0  0  0  0  0  0  0  0  0  0  0  0
  -21.4730  -13.1020   22.3700 H   0  0  0  0  0  0  0  0  0  0  0  0
  -25.6500  -15.1720   20.2260 N   0  0  0  0  0  0  0  0  0  0  0  0
  -24.8900  -15.8250   20.3850 H   0  0  0  0  0  0  0  0  0  0  0  0
  -26.4730  -15.6130   19.8350 H   0  0  0  0  0  0  0  0  0  0  0  0
  -28.7970  -22.0000   20.0200 C   0  0  0  0  0  2  0  0  0  0  0  0
  -28.3480  -23.3110   20.4120 O   0  0  0  0  0  0  0  0  0  0  0  0
  -29.3070  -24.3710   20.3290 C   0  0  0  0  0  2  0  0  0  0  0  0
  -28.8000  -25.5590   19.4600 C   0  0  0  0  0  2  0  0  0  0  0  0
  -28.5230  -26.7470   20.2260 O   0  0  0  0  0  0  0  0  0  0  0  0
  -24.5800  -31.8290   23.2430 C   0  0  0  0  0  0  0  0  0  0  0  0
  -27.3120  -27.4190   20.1660 C   0  0  0  0  0  0  0  0  0  0  0  0
  -23.4070  -30.4240   21.5780 C   0  0  0  0  0  3  0  0  0  0  0  0
  -24.8910  -28.9050   20.1640 C   0  0  0  0  0  0  0  0  0  0  0  0
  -25.9300  -30.8050   21.4140 C   0  0  0  0  0  2  0  0  0  0  0  0
  -26.0350  -29.4370   20.7690 C   0  0  0  0  0  0  0  0  0  0  0  0
  -27.2400  -28.6990   20.7690 C   0  0  0  0  0  3  0  0  0  0  0  0
  -26.1390  -26.8970   19.5710 C   0  0  0  0  0  3  0  0  0  0  0  0
  -24.9380  -27.6340   19.5670 C   0  0  0  0  0  3  0  0  0  0  0  0
  -23.6390  -29.7530   20.1970 C   0  0  0  0  0  2  0  0  0  0  0  0
  -24.6550  -31.0360   22.1370 N   0  0  0  0  0  0  0  0  0  0  0  0
  -23.4910  -32.0880   23.7750 O   0  0  0  0  0  0  0  0  0  0  0  0
  -22.7540  -29.3930   22.5290 C   0  0  0  0  0  0  0  0  0  0  0  0
  -21.4400  -29.1720   22.3610 N   0  0  0  0  0  0  0  0  0  0  0  0
  -23.4300  -28.7940   23.3670 O   0  0  0  0  0  0  0  0  0  0  0  0
  -20.9550  -29.7070   21.6540 H   0  0  0  0  0  0  0  0  0  0  0  0
  -18.0960  -27.8630   22.7450 C   0  0  0  0  0  0  0  0  0  0  0  0
  -20.6280  -28.2170   23.1160 C   0  0  0  0  0  3  0  0  0  0  0  0
  -20.8050  -26.7820   22.5700 C   0  0  0  0  0  2  0  0  0  0  0  0
  -19.7600  -26.4040   21.5160 C   0  0  0  0  0  2  0  0  0  0  0  0
  -18.3480  -26.5120   22.1000 C   0  0  0  0  0  2  0  0  0  0  0  0
  -19.1670  -28.6700   23.2080 C   0  0  0  0  0  0  0  0  0  0  0  0
  -18.8810  -29.9340   23.7690 C   0  0  0  0  0  3  0  0  0  0  0  0
  -17.5550  -30.3940   23.8690 C   0  0  0  0  0  3  0  0  0  0  0  0
  -16.4950  -29.5840   23.4220 C   0  0  0  0  0  3  0  0  0  0  0  0
  -16.7670  -28.3200   22.8680 C   0  0  0  0  0  3  0  0  0  0  0  0
  -25.8530  -32.4690   23.8790 C   0  0  0  0  0  3  0  0  0  0  0  0
  -25.5300  -33.8650   24.2070 N   0  0  0  0  0  0  0  0  0  0  0  0
  -25.8750  -34.9210   23.4580 C   0  0  0  0  0  0  0  0  0  0  0  0
  -26.5690  -34.8240   22.4420 O   0  0  0  0  0  0  0  0  0  0  0  0
  -24.9170  -34.0140   24.9950 H   0  0  0  0  0  0  0  0  0  0  0  0
  -24.1510  -36.7090   23.0620 C   0  0  0  0  0  1  0  0  0  0  0  0
  -25.3680  -36.3040   23.9090 C   0  0  0  0  0  3  0  0  0  0  0  0
  -27.4710  -37.1920   24.8130 C   0  0  0  0  0  1  0  0  0  0  0  0
  -26.3990  -37.3620   23.8350 N   0  0  0  0  0  0  0  0  0  0  0  0
  -25.9850  -38.2790   23.9780 H   0  0  0  0  0  0  0  0  0  0  0  0
  -26.3670  -31.7010   25.1590 C   0  0  1  0  0  0  0  0  0  0  0  0
  -25.2650  -31.4440   26.2120 C   0  0  0  0  0  1  0  0  0  0  0  0
  -26.9730  -30.3340   24.7660 C   0  0  0  0  0  1  0  0  0  0  0  0
  -27.4990  -32.5080   25.8370 C   0  0  0  0  0  1  0  0  0  0  0  0
  2  4  1  0
  2  6  1  0
  3  5  1  0
  4  7  1  0
  6 17  1  0
  6  3  1  0
  7  8  1  6
  7  1  1  0
  7  5  1  0
  9 17  1  0
 10 15  1  0
 11 12  1  0
 11 10  1  0
 13 12  1  0
 13 22  1  0
 13 14  1  0
 15  9  1  0
 15 14  1  0
 16  9  2  0
 17 18  1  0
 19 20  2  0
 20 39  1  0
 21 20  1  0
 21 24  1  0
 22 23  1  0
 22 19  1  0
 23 21  2  0
 24 25  1  0
 25 26  2  0
 27 30  1  0
 27 26  1  0
 28 27  2  0
 29 28  1  0
 29 24  2  0
 30 31  1  0
 31 36  2  0
 31 32  1  0
 32 33  2  0
 33 34  1  0
 34 38  1  0
 35 34  2  0
 36 35  1  0
 37 36  1  0
 39 40  1  0
 40 43  1  0
 40 42  1  0
 41 39  2  0
 44 45  1  0
 44 19  1  0
 46 44  1  0
 47 48  1  0
 47  1  1  0
 49 48  1  0
 50 51  1  0
 50 49  1  0
 52 63  2  0
 53 51  1  0
 53 58  1  0
 54 62  1  0
 54 64  1  0
 55 61  1  0
 55 57  1  0
 56 62  1  0
 57 58  2  0
 57 56  1  0
 59 53  2  0
 60 59  1  0
 60 55  2  0
 61 54  1  0
 62 52  1  0
 64 66  2  0
 65 64  1  0
 67 65  1  0
 68 77  2  0
 68 73  1  0
 69 65  1  0
 69 73  1  0
 70 69  1  0
 71 72  1  0
 71 70  1  0
 72 68  1  0
 73 74  2  0
 74 75  1  0
 76 75  2  0
 77 76  1  0
 78 52  1  0
 78 79  1  0
 78 88  1  0
 79 82  1  0
 80 84  1  0
 80 79  1  0
 81 80  2  0
 84 83  1  0
 86 84  1  0
 86 87  1  0
 86 85  1  0
 88 91  1  1
 88 89  1  0
 90 88  1  0
M  ISO  4   9 100  17 100  50 101  51 101
M  END
>  <TORSDO>  (17) 
F 21

>  <SCORE>  (17) 
-12.783

>  <name>  (17) 
16

>  <ligand_id>  (17) 
16

>  <original_smiles>  (17) 
[H]c1c([H])c([H])c2c(c1[H])C([H])([H])C([H])([H])C([H])([H])C2([H])N([H])C(=O)C1([H])N(C(=O)C([H])(N([H])C(=O)C([H])(N([H])C([H])([H])[H])C([H])([H])[H])C(C([H])([H])[H])(C([H])([H])[H])C([H])([H])[H])C([H])([H])c2c([H])c(OC([H])([H])C([H])([H])OC([H])([H])C([H])([H])[N+]3([H])C([H])([H])C([H])([H])C([H])(N([H])C(=O)N4C([H])([H])C([H])([H])C([H])([H])C([H])(n5nc(-c6c([H])c([H])c(Oc7c([H])c([H])c(F)c([H])c7F)c([H])c6[H])c(C(=O)N([H])[H])c5N([H])[H])C4([H])[H])C([H])([H])C3([H])[H])c([H])c([H])c2C1([H])[H]

>  <smiles>  (17) 
[H]c1c([H])c([H])c2c(c1[H])C([H])([H])C([H])([H])C([H])([H])C2([H])N([H])C(=O)C1([H])N(C(=O)C([H])(N([H])C(=O)C([H])(N([H])C([H])([H])[H])C([H])([H])[H])C(C([H])([H])[H])(C([H])([H])[H])C([H])([H])[H])C([H])([H])c2c([H])c(OC([H])([H])C([H])([H])OC([H])([H])C([H])([H])[N+]3([H])C([H])([H])C([H])([H])C([H])(N([H])C(=O)N4C([H])([H])C([H])([H])C([H])([H])C([H])(n5nc(-c6c([H])c([H])c(Oc7c([H])c([H])c(F)c([H])c7F)c([H])c6[H])c(C(=O)N([H])[H])c5N([H])[H])C4([H])[H])C([H])([H])C3([H])[H])c([H])c([H])c2C1([H])[H]

$$$$
17:0:0
     RDKit          3D

105112  0  0  1  0  0  0  0  0999 V2000
  -24.5770  -19.9060   25.8680 C   0  0  0  0  0  0  0  0  0  0  0  0
  -24.1020  -21.2760   25.3400 C   0  0  0  0  0  0  0  0  0  0  0  0
  -23.5600  -21.3220   24.1160 N   0  0  0  0  0  0  0  0  0  0  0  0
  -24.1710  -22.2660   26.0720 O   0  0  0  0  0  0  0  0  0  0  0  0
  -23.6240  -20.4630   23.5780 H   0  0  0  0  0  0  0  0  0  0  0  0
  -22.7120  -22.3910   23.5870 C   0  0  0  0  0  2  0  0  0  0  0  0
  -23.4630  -23.6080   23.0130 C   0  0  0  0  0  2  0  0  0  0  0  0
  -24.3500  -23.3130   21.7970 C   0  0  0  0  0  2  0  0  0  0  0  0
  -25.2660  -24.3920   21.6640 O   0  0  0  0  0  0  0  0  0  0  0  0
  -26.1650  -24.2440   20.5720 C   0  0  0  0  0  2  0  0  0  0  0  0
  -27.1190  -25.4560   20.5180 C   0  0  0  0  0  2  0  0  0  0  0  0
  -26.7720  -26.3540   19.4650 O   0  0  0  0  0  0  0  0  0  0  0  0
  -24.3020  -31.6830   23.5070 C   0  0  0  0  0  0  0  0  0  0  0  0
  -25.7570  -27.2300   19.7570 C   0  0  0  0  0  0  0  0  0  0  0  0
  -22.6700  -30.6360   21.9700 C   0  0  0  0  0  3  0  0  0  0  0  0
  -23.6490  -29.0370   20.2410 C   0  0  0  0  0  0  0  0  0  0  0  0
  -25.1670  -30.6390   21.4190 C   0  0  0  0  0  2  0  0  0  0  0  0
  -24.9430  -29.3330   20.6890 C   0  0  0  0  0  0  0  0  0  0  0  0
  -26.0030  -28.4330   20.4530 C   0  0  0  0  0  3  0  0  0  0  0  0
  -24.4560  -26.9460   19.2980 C   0  0  0  0  0  3  0  0  0  0  0  0
  -23.3970  -27.8390   19.5470 C   0  0  0  0  0  3  0  0  0  0  0  0
  -22.5740  -30.0610   20.5300 C   0  0  0  0  0  2  0  0  0  0  0  0
  -24.0740  -30.9930   22.3540 N   0  0  0  0  0  0  0  0  0  0  0  0
  -23.3650  -32.0600   24.2230 O   0  0  0  0  0  0  0  0  0  0  0  0
  -22.0040  -29.6380   22.9430 C   0  0  0  0  0  0  0  0  0  0  0  0
  -20.6820  -29.4550   22.8000 N   0  0  0  0  0  0  0  0  0  0  0  0
  -22.6750  -29.0290   23.7820 O   0  0  0  0  0  0  0  0  0  0  0  0
  -20.2030  -29.9990   22.0960 H   0  0  0  0  0  0  0  0  0  0  0  0
  -17.3570  -28.0760   23.0870 C   0  0  0  0  0  0  0  0  0  0  0  0
  -19.8520  -28.5360   23.5780 C   0  0  0  0  0  3  0  0  0  0  0  0
  -20.1010  -27.0690   23.1580 C   0  0  0  0  0  2  0  0  0  0  0  0
  -19.1300  -26.5780   22.0790 C   0  0  0  0  0  2  0  0  0  0  0  0
  -17.6830  -26.6840   22.5700 C   0  0  0  0  0  2  0  0  0  0  0  0
  -18.3760  -28.9500   23.5460 C   0  0  0  0  0  0  0  0  0  0  0  0
  -18.0220  -30.2460   23.9830 C   0  0  0  0  0  3  0  0  0  0  0  0
  -16.6790  -30.6670   23.9700 C   0  0  0  0  0  3  0  0  0  0  0  0
  -15.6720  -29.7920   23.5290 C   0  0  0  0  0  3  0  0  0  0  0  0
  -16.0110  -28.4980   23.0930 C   0  0  0  0  0  3  0  0  0  0  0  0
  -25.7480  -32.0530   23.9660 C   0  0  0  0  0  3  0  0  0  0  0  0
  -26.2480  -31.1970   25.1940 C   0  0  1  0  0  0  0  0  0  0  0  0
  -25.2600  -31.1760   26.3830 C   0  0  0  0  0  1  0  0  0  0  0  0
  -26.5070  -29.7330   24.7690 C   0  0  0  0  0  1  0  0  0  0  0  0
  -27.5970  -31.7540   25.7060 C   0  0  0  0  0  1  0  0  0  0  0  0
  -25.7550  -33.4850   24.2930 N   0  0  0  0  0  0  0  0  0  0  0  0
  -26.2600  -34.4410   23.5010 C   0  0  0  0  0  0  0  0  0  0  0  0
  -26.8390  -34.1960   22.4400 O   0  0  0  0  0  0  0  0  0  0  0  0
  -25.2510  -33.7640   25.1200 H   0  0  0  0  0  0  0  0  0  0  0  0
  -24.9580  -36.5670   23.1670 C   0  0  0  0  0  1  0  0  0  0  0  0
  -26.0950  -35.9020   23.9610 C   0  0  0  0  0  3  0  0  0  0  0  0
  -28.3850  -36.2990   24.7500 C   0  0  0  0  0  1  0  0  0  0  0  0
  -27.3290  -36.7050   23.8260 N   0  0  0  0  0  0  0  0  0  0  0  0
  -27.1370  -37.6920   23.9780 H   0  0  0  0  0  0  0  0  0  0  0  0
  -26.9950  -19.2000   25.5290 C   0  0  0  0  0  0  0  0  0  0  0  0
  -26.0120  -19.8440   26.1720 N   0  0  0  0  0  4  0  0  0  0  0  0
  -26.8060  -18.5710   24.4880 O   0  0  0  0  0  0  0  0  0  0  0  0
  -26.2800  -20.3740   26.9910 H   0  0  0  0  0  0  0  0  0  0  0  0
  -28.3800  -19.1820   26.2090 C   0  0  0  0  0  3  0  0  0  0  0  0
  -28.1850  -17.7790   28.2670 C   0  0  0  0  0  1  0  0  0  0  0  0
  -28.5910  -17.8650   26.8470 N   0  0  0  0  0  4  0  0  0  0  0  0
  -28.0790  -17.1820   26.3100 H   0  0  0  0  0  0  0  0  0  0  0  0
  -29.5700  -17.6380   26.7950 H   0  0  0  0  0  0  0  0  0  0  0  0
  -29.5680  -19.5180   25.2660 C   0  0  0  0  0  2  0  0  0  0  0  0
  -29.6310  -18.7700   23.9140 C   0  0  0  0  0  2  0  0  0  0  0  0
  -31.0320  -18.2210   23.5930 C   0  0  0  0  0  2  0  0  0  0  0  0
  -32.1640  -17.6040   21.4930 C   0  0  0  0  0  0  0  0  0  0  0  0
  -32.2800  -15.7480   19.8770 C   0  0  0  0  0  2  0  0  0  0  0  0
  -31.5280  -16.1270   18.5850 C   0  0  0  0  0  2  0  0  0  0  0  0
  -30.0280  -15.7900   18.7020 C   0  0  0  0  0  2  0  0  0  0  0  0
  -29.3990  -16.3170   20.0200 C   0  0  0  0  0  3  0  0  0  0  0  0
  -30.2770  -15.9380   21.2320 C   0  0  0  0  0  2  0  0  0  0  0  0
  -31.6390  -16.4520   20.9960 N   0  0  0  0  0  0  0  0  0  0  0  0
  -33.2730  -18.0360   21.1730 O   0  0  0  0  0  0  0  0  0  0  0  0
  -31.3350  -18.3970   22.1770 N   0  0  0  0  0  0  0  0  0  0  0  0
  -31.5670  -19.3640   21.9980 H   0  0  0  0  0  0  0  0  0  0  0  0
  -26.8350  -16.5550   20.0980 C   0  0  0  0  0  0  0  0  0  0  0  0
  -25.8350  -15.6330   20.2540 C   0  0  0  0  0  0  0  0  0  0  0  0
  -26.4840  -14.3720   20.4210 C   0  0  0  0  0  0  0  0  0  0  0  0
  -28.0240  -15.8460   20.1810 N   0  0  0  0  0  0  0  0  0  0  0  0
  -27.8020  -14.5290   20.4270 N   0  0  0  0  0  0  0  0  0  0  0  0
  -25.9290  -13.0160   20.5190 C   0  0  0  0  0  0  0  0  0  0  0  0
  -26.0320  -12.2610   21.7080 C   0  0  0  0  0  3  0  0  0  0  0  0
  -25.4760  -10.9650   21.7840 C   0  0  0  0  0  3  0  0  0  0  0  0
  -24.8060  -10.4150   20.6660 C   0  0  0  0  0  0  0  0  0  0  0  0
  -24.7270  -11.1620   19.4780 C   0  0  0  0  0  3  0  0  0  0  0  0
  -25.2850  -12.4480   19.4020 C   0  0  0  0  0  3  0  0  0  0  0  0
  -24.2560   -9.1560   20.6390 O   0  0  0  0  0  0  0  0  0  0  0  0
  -23.4160   -8.7160   21.6300 C   0  0  0  0  0  0  0  0  0  0  0  0
  -22.2440   -9.4200   21.9830 C   0  0  0  0  0  3  0  0  0  0  0  0
  -21.3750   -8.8950   22.9600 C   0  0  0  0  0  3  0  0  0  0  0  0
  -21.6690   -7.6660   23.5780 C   0  0  0  0  0  0  0  0  0  0  0  0
  -22.8330   -6.9600   23.2240 C   0  0  0  0  0  3  0  0  0  0  0  0
  -23.7030   -7.4830   22.2510 C   0  0  0  0  0  0  0  0  0  0  0  0
  -24.8120   -6.7890   21.8990 F   0  0  0  0  0  0  0  0  0  0  0  0
  -20.8300   -7.1570   24.5100 F   0  0  0  0  0  0  0  0  0  0  0  0
  -24.3570  -15.8880   20.1610 C   0  0  0  0  0  0  0  0  0  0  0  0
  -23.5560  -15.1220   20.8940 N   0  0  0  0  0  0  0  0  0  0  0  0
  -23.9090  -16.8040   19.4740 O   0  0  0  0  0  0  0  0  0  0  0  0
  -23.9220  -14.3840   21.4750 H   0  0  0  0  0  0  0  0  0  0  0  0
  -22.5580  -15.2760   20.8690 H   0  0  0  0  0  0  0  0  0  0  0  0
  -26.8340  -17.9280   19.8810 N   0  0  0  0  0  0  0  0  0  0  0  0
  -25.9790  -18.4620   19.7730 H   0  0  0  0  0  0  0  0  0  0  0  0
  -27.6690  -18.4920   19.7710 H   0  0  0  0  0  0  0  0  0  0  0  0
  -23.9660  -18.6020   25.2750 C   0  0  0  0  0  2  0  0  0  0  0  0
  -24.4030  -18.3280   23.9530 O   0  0  0  0  0  0  0  0  0  0  0  0
  -25.3570  -18.2320   24.0090 H   0  0  0  0  0  0  0  0  0  0  0  0
  1 54  2  0
  2  1  1  0
  2  4  2  0
  3  2  1  0
  5  3  1  0
  6  3  1  0
  7  6  1  0
  8  7  1  0
  9  8  1  0
 10  9  1  0
 11 10  1  0
 12 14  1  0
 12 11  1  0
 13 24  2  0
 14 19  1  0
 15 23  1  0
 15 25  1  0
 16 22  1  0
 16 18  1  0
 17 23  1  0
 18 17  1  0
 19 18  2  0
 20 21  1  0
 20 14  2  0
 21 16  2  0
 22 15  1  0
 23 13  1  0
 25 27  2  0
 26 25  1  0
 28 26  1  0
 29 38  2  0
 29 34  1  0
 30 26  1  0
 31 30  1  0
 32 33  1  0
 32 31  1  0
 33 29  1  0
 34 30  1  0
 34 35  2  0
 36 35  1  0
 37 36  2  0
 38 37  1  0
 39 13  1  0
 39 44  1  0
 39 40  1  0
 40 43  1  1
 40 41  1  0
 42 40  1  0
 44 47  1  0
 45 49  1  0
 45 44  1  0
 46 45  2  0
 49 48  1  0
 51 49  1  0
 51 52  1  0
 51 50  1  0
 53 54  1  0
 53 57  1  0
 54 56  1  0
 55 53  2  0
 57 62  1  0
 57 59  1  0
 59 58  1  0
 60 59  1  0
 61 59  1  0
 63 62  1  0
 64 63  1  0
 65 73  1  0
 66 71  1  0
 67 68  1  0
 67 66  1  0
 69 68  1  0
 69 78  1  0
 69 70  1  0
 71 70  1  0
 71 65  1  0
 72 65  2  0
 73 64  1  0
 74 73  1  0
 75 78  1  0
 75 76  2  0
 76 77  1  0
 77 79  2  0
 77 80  1  0
 78 79  1  0
 80 81  1  0
 81 82  2  0
 83 82  1  0
 84 83  2  0
 85 84  1  0
 85 80  2  0
 86 83  1  0
 86 87  1  0
 87 88  2  0
 87 92  1  0
 88 89  1  0
 89 90  2  0
 90 94  1  0
 91 90  1  0
 92 91  2  0
 93 92  1  0
 95 76  1  0
 95 96  1  0
 96 98  1  0
 97 95  2  0
 99 96  1  0
100 75  1  0
101100  1  0
102100  1  0
103  1  1  0
104105  1  0
104103  1  0
M  ISO  4  11 101  12 101  65 100  73 100
M  END
>  <TORSDO>  (18) 
F 31

>  <SCORE>  (18) 
46.860

>  <name>  (18) 
17

>  <ligand_id>  (18) 
17

>  <original_smiles>  (18) 
[H]OC([H])([H])C([H])(C(=O)N([H])C([H])([H])C([H])([H])C([H])([H])OC([H])([H])C([H])([H])Oc1c([H])c([H])c2c(c1[H])C([H])([H])N(C(=O)C([H])(N([H])C(=O)C([H])(N([H])C([H])([H])[H])C([H])([H])[H])C(C([H])([H])[H])(C([H])([H])[H])C([H])([H])[H])C([H])(C(=O)N([H])C1([H])c3c([H])c([H])c([H])c([H])c3C([H])([H])C([H])([H])C1([H])[H])C2([H])[H])N([H])C(=O)C([H])(C([H])([H])C([H])([H])C([H])([H])N([H])C(=O)N1C([H])([H])C([H])([H])C([H])([H])C([H])(n2nc(-c3c([H])c([H])c(Oc4c([H])c([H])c(F)c([H])c4F)c([H])c3[H])c(C(=O)N([H])[H])c2N([H])[H])C1([H])[H])[N+]([H])([H])C([H])([H])[H]

>  <smiles>  (18) 
[H]OC([H])([H])C([H])(C(=O)N([H])C([H])([H])C([H])([H])C([H])([H])OC([H])([H])C([H])([H])Oc1c([H])c([H])c2c(c1[H])C([H])([H])N(C(=O)C([H])(N([H])C(=O)C([H])(N([H])C([H])([H])[H])C([H])([H])[H])C(C([H])([H])[H])(C([H])([H])[H])C([H])([H])[H])C([H])(C(=O)N([H])C1([H])c3c([H])c([H])c([H])c([H])c3C([H])([H])C([H])([H])C1([H])[H])C2([H])[H])N([H])C(=O)C([H])(C([H])([H])C([H])([H])C([H])([H])N([H])C(=O)N1C([H])([H])C([H])([H])C([H])([H])C([H])(n2nc(-c3c([H])c([H])c(Oc4c([H])c([H])c(F)c([H])c4F)c([H])c3[H])c(C(=O)N([H])[H])c2N([H])[H])C1([H])[H])[N+]([H])([H])C([H])([H])[H]

$$$$
18:0:0
     RDKit          3D

102109  0  0  1  0  0  0  0  0999 V2000
  -28.2050  -19.7470   19.9860 C   0  0  0  0  0  2  0  0  0  0  0  0
  -28.4240  -20.2440   18.5480 C   0  0  0  0  0  0  0  0  0  0  0  0
  -27.9840  -21.4710   18.2450 N   0  0  0  0  0  0  0  0  0  0  0  0
  -28.9810  -19.5280   17.7150 O   0  0  0  0  0  0  0  0  0  0  0  0
  -27.5390  -22.0120   18.9770 H   0  0  0  0  0  0  0  0  0  0  0  0
  -28.1710  -22.1500   16.9660 C   0  0  0  0  0  2  0  0  0  0  0  0
  -29.1720  -23.3080   17.1090 C   0  0  0  0  0  2  0  0  0  0  0  0
  -28.5970  -24.3460   17.8980 O   0  0  0  0  0  0  0  0  0  0  0  0
  -29.4950  -25.4340   18.1160 C   0  0  0  0  0  2  0  0  0  0  0  0
  -28.7040  -26.7260   18.3710 C   0  0  0  0  0  2  0  0  0  0  0  0
  -28.2860  -26.8600   19.7330 O   0  0  0  0  0  0  0  0  0  0  0  0
  -24.5560  -31.8200   23.2660 C   0  0  0  0  0  0  0  0  0  0  0  0
  -27.1100  -27.5550   19.8800 C   0  0  0  0  0  0  0  0  0  0  0  0
  -23.2920  -30.4720   21.6210 C   0  0  0  0  0  3  0  0  0  0  0  0
  -24.6970  -29.0050   20.0830 C   0  0  0  0  0  0  0  0  0  0  0  0
  -25.8030  -30.8650   21.3330 C   0  0  0  0  0  2  0  0  0  0  0  0
  -25.8740  -29.5200   20.6420 C   0  0  0  0  0  0  0  0  0  0  0  0
  -27.0820  -28.7950   20.5540 C   0  0  0  0  0  3  0  0  0  0  0  0
  -25.9140  -27.0330   19.3460 C   0  0  0  0  0  3  0  0  0  0  0  0
  -24.7080  -27.7510   19.4420 C   0  0  0  0  0  3  0  0  0  0  0  0
  -23.4490  -29.8470   20.2100 C   0  0  0  0  0  2  0  0  0  0  0  0
  -24.5700  -31.0640   22.1320 N   0  0  0  0  0  0  0  0  0  0  0  0
  -23.4960  -32.0610   23.8620 O   0  0  0  0  0  0  0  0  0  0  0  0
  -22.6910  -29.4070   22.5650 C   0  0  0  0  0  0  0  0  0  0  0  0
  -21.3820  -29.1480   22.4160 N   0  0  0  0  0  0  0  0  0  0  0  0
  -23.3990  -28.8170   23.3860 O   0  0  0  0  0  0  0  0  0  0  0  0
  -20.8690  -29.6800   21.7290 H   0  0  0  0  0  0  0  0  0  0  0  0
  -18.1080  -27.6620   22.7650 C   0  0  0  0  0  0  0  0  0  0  0  0
  -20.6120  -28.1570   23.1690 C   0  0  0  0  0  3  0  0  0  0  0  0
  -20.8740  -26.7280   22.6430 C   0  0  0  0  0  2  0  0  0  0  0  0
  -19.8660  -26.2820   21.5780 C   0  0  0  0  0  2  0  0  0  0  0  0
  -18.4430  -26.3170   22.1410 C   0  0  0  0  0  2  0  0  0  0  0  0
  -19.1280  -28.5320   23.2340 C   0  0  0  0  0  0  0  0  0  0  0  0
  -18.7650  -29.7850   23.7750 C   0  0  0  0  0  3  0  0  0  0  0  0
  -17.4150  -30.1730   23.8520 C   0  0  0  0  0  3  0  0  0  0  0  0
  -16.4080  -29.3010   23.4010 C   0  0  0  0  0  3  0  0  0  0  0  0
  -16.7550  -28.0470   22.8650 C   0  0  0  0  0  3  0  0  0  0  0  0
  -25.8620  -32.4360   23.8550 C   0  0  0  0  0  3  0  0  0  0  0  0
  -25.5760  -33.8380   24.1930 N   0  0  0  0  0  0  0  0  0  0  0  0
  -25.8860  -34.8840   23.4170 C   0  0  0  0  0  0  0  0  0  0  0  0
  -26.5170  -34.7730   22.3620 O   0  0  0  0  0  0  0  0  0  0  0  0
  -25.0130  -33.9970   25.0150 H   0  0  0  0  0  0  0  0  0  0  0  0
  -24.1490  -36.6780   23.1260 C   0  0  0  0  0  1  0  0  0  0  0  0
  -25.4220  -36.2760   23.8860 C   0  0  0  0  0  3  0  0  0  0  0  0
  -27.5940  -37.1590   24.6160 C   0  0  0  0  0  1  0  0  0  0  0  0
  -26.4520  -37.3240   23.7210 N   0  0  0  0  0  0  0  0  0  0  0  0
  -26.0550  -38.2460   23.8810 H   0  0  0  0  0  0  0  0  0  0  0  0
  -26.4050  -31.6580   25.1150 C   0  0  1  0  0  0  0  0  0  0  0  0
  -25.3430  -31.4430   26.2180 C   0  0  0  0  0  1  0  0  0  0  0  0
  -26.9480  -30.2690   24.7060 C   0  0  0  0  0  1  0  0  0  0  0  0
  -27.5910  -32.4310   25.7380 C   0  0  0  0  0  1  0  0  0  0  0  0
  -29.4380  -17.7210   20.6480 C   0  0  0  0  0  0  0  0  0  0  0  0
  -29.4020  -19.0810   20.5370 N   0  0  0  0  0  0  0  0  0  0  0  0
  -28.4000  -17.0480   20.5690 O   0  0  0  0  0  0  0  0  0  0  0  0
  -30.5150  -19.9930   20.8680 C   0  0  0  0  0  2  0  0  0  0  0  0
  -30.3680  -20.6230   22.2640 C   0  0  0  0  0  2  0  0  0  0  0  0
  -29.5200  -22.5360   23.3670 C   0  0  0  0  0  1  0  0  0  0  0  0
  -29.5090  -21.7510   22.1830 O   0  0  0  0  0  0  0  0  0  0  0  0
  -30.7800  -16.9630   20.8770 C   0  0  0  0  0  3  0  0  0  0  0  0
  -31.1980  -14.4530   20.4440 C   0  0  0  0  0  0  0  0  0  0  0  0
  -30.8660  -12.2120   19.4730 C   0  0  0  0  0  2  0  0  0  0  0  0
  -29.9670  -12.3230   18.2250 C   0  0  0  0  0  2  0  0  0  0  0  0
  -28.4800  -12.2580   18.6190 C   0  0  0  0  0  2  0  0  0  0  0  0
  -28.1240  -13.2230   19.7830 C   0  0  0  0  0  3  0  0  0  0  0  0
  -29.1380  -13.0810   20.9420 C   0  0  0  0  0  2  0  0  0  0  0  0
  -30.4880  -13.2950   20.3930 N   0  0  0  0  0  0  0  0  0  0  0  0
  -32.3370  -14.5390   19.9800 O   0  0  0  0  0  0  0  0  0  0  0  0
  -30.5230  -15.5020   20.9350 N   0  0  0  0  0  0  0  0  0  0  0  0
  -29.5940  -15.2720   21.2440 H   0  0  0  0  0  0  0  0  0  0  0  0
  -25.7510  -13.9660   20.4410 C   0  0  0  0  0  0  0  0  0  0  0  0
  -24.6350  -13.2530   20.7960 C   0  0  0  0  0  0  0  0  0  0  0  0
  -25.0270  -11.8790   20.7880 C   0  0  0  0  0  0  0  0  0  0  0  0
  -26.7500  -13.0280   20.2370 N   0  0  0  0  0  0  0  0  0  0  0  0
  -26.3180  -11.7690   20.5000 N   0  0  0  0  0  0  0  0  0  0  0  0
  -24.2360  -10.6570   20.9790 C   0  0  0  0  0  0  0  0  0  0  0  0
  -24.5990   -9.6850   21.9380 C   0  0  0  0  0  3  0  0  0  0  0  0
  -23.8140   -8.5250   22.1150 C   0  0  0  0  0  3  0  0  0  0  0  0
  -22.6480   -8.3300   21.3380 C   0  0  0  0  0  0  0  0  0  0  0  0
  -22.3020   -9.2890   20.3700 C   0  0  0  0  0  3  0  0  0  0  0  0
  -23.0890  -10.4390   20.1880 C   0  0  0  0  0  3  0  0  0  0  0  0
  -21.8420   -7.2210   21.4260 O   0  0  0  0  0  0  0  0  0  0  0  0
  -21.7270   -6.5050   22.5900 C   0  0  0  0  0  0  0  0  0  0  0  0
  -21.2930   -7.1000   23.7950 C   0  0  0  0  0  3  0  0  0  0  0  0
  -21.1180   -6.3120   24.9490 C   0  0  0  0  0  3  0  0  0  0  0  0
  -21.3700   -4.9270   24.9010 C   0  0  0  0  0  0  0  0  0  0  0  0
  -21.8000   -4.3310   23.7030 C   0  0  0  0  0  3  0  0  0  0  0  0
  -21.9750   -5.1180   22.5510 C   0  0  0  0  0  0  0  0  0  0  0  0
  -22.3660   -4.5340   21.3930 F   0  0  0  0  0  0  0  0  0  0  0  0
  -21.1980   -4.1680   26.0070 F   0  0  0  0  0  0  0  0  0  0  0  0
  -23.2600  -13.8030   21.0390 C   0  0  0  0  0  0  0  0  0  0  0  0
  -22.4930  -13.1690   21.9180 N   0  0  0  0  0  0  0  0  0  0  0  0
  -22.8760  -14.8330   20.4860 O   0  0  0  0  0  0  0  0  0  0  0  0
  -22.8180  -12.3380   22.3900 H   0  0  0  0  0  0  0  0  0  0  0  0
  -21.5660  -13.5140   22.1200 H   0  0  0  0  0  0  0  0  0  0  0  0
  -25.9930  -15.3250   20.2590 N   0  0  0  0  0  0  0  0  0  0  0  0
  -25.2660  -16.0210   20.3730 H   0  0  0  0  0  0  0  0  0  0  0  0
  -26.8840  -15.7220   19.9810 H   0  0  0  0  0  0  0  0  0  0  0  0
  -31.7550  -17.4280   19.7570 C   0  0  0  0  0  0  0  0  0  0  0  0
  -32.9810  -17.7980   20.1190 N   0  0  0  0  0  0  0  0  0  0  0  0
  -31.4290  -17.4500   18.5710 O   0  0  0  0  0  0  0  0  0  0  0  0
  -33.2840  -17.7490   21.0820 H   0  0  0  0  0  0  0  0  0  0  0  0
  -33.6370  -18.1110   19.4180 H   0  0  0  0  0  0  0  0  0  0  0  0
  1 53  1  0
  2  1  1  0
  3  2  1  0
  3  5  1  0
  4  2  2  0
  6  7  1  0
  6  3  1  0
  7  8  1  0
  8  9  1  0
  9 10  1  0
 10 11  1  0
 11 13  1  0
 12 23  2  0
 13 18  1  0
 14 22  1  0
 14 24  1  0
 15 21  1  0
 15 17  1  0
 16 22  1  0
 17 16  1  0
 18 17  2  0
 19 20  1  0
 19 13  2  0
 20 15  2  0
 21 14  1  0
 22 12  1  0
 24 26  2  0
 25 24  1  0
 27 25  1  0
 28 37  2  0
 28 33  1  0
 29 25  1  0
 29 33  1  0
 30 29  1  0
 31 32  1  0
 31 30  1  0
 32 28  1  0
 33 34  2  0
 34 35  1  0
 36 35  2  0
 37 36  1  0
 38 12  1  0
 38 39  1  0
 38 48  1  0
 39 42  1  0
 40 44  1  0
 40 39  1  0
 41 40  2  0
 44 43  1  0
 46 47  1  0
 46 44  1  0
 46 45  1  0
 48 51  1  1
 48 49  1  0
 50 48  1  0
 52 59  1  0
 53 52  1  0
 53 55  1  0
 54 52  2  0
 55 56  1  0
 58 56  1  0
 58 57  1  0
 59 98  1  0
 59 68  1  0
 60 68  1  0
 61 66  1  0
 62 63  1  0
 62 61  1  0
 64 63  1  0
 64 73  1  0
 64 65  1  0
 66 60  1  0
 66 65  1  0
 67 60  2  0
 68 69  1  0
 70 71  2  0
 71 90  1  0
 72 71  1  0
 72 75  1  0
 73 70  1  0
 73 74  1  0
 74 72  2  0
 75 76  1  0
 76 77  2  0
 78 81  1  0
 78 77  1  0
 79 78  2  0
 80 79  1  0
 80 75  2  0
 81 82  1  0
 82 83  1  0
 83 84  2  0
 85 84  1  0
 85 89  1  0
 86 85  2  0
 87 82  2  0
 87 86  1  0
 88 87  1  0
 90 91  1  0
 91 94  1  0
 91 93  1  0
 92 90  2  0
 95 96  1  0
 95 70  1  0
 97 95  1  0
 98 99  1  0
 99101  1  0
100 98  2  0
102 99  1  0
M  ISO  4  10 101  11 101  60 100  68 100
M  END
>  <TORSDO>  (19) 
F 28

>  <SCORE>  (19) 
-11.098

>  <name>  (19) 
18

>  <ligand_id>  (19) 
18

>  <original_smiles>  (19) 
[H]c1c([H])c([H])c2c(c1[H])C([H])([H])C([H])([H])C([H])([H])C2([H])N([H])C(=O)C1([H])N(C(=O)C([H])(N([H])C(=O)C([H])(N([H])C([H])([H])[H])C([H])([H])[H])C(C([H])([H])[H])(C([H])([H])[H])C([H])([H])[H])C([H])([H])c2c([H])c(OC([H])([H])C([H])([H])OC([H])([H])C([H])([H])N([H])C(=O)C([H])([H])N(C(=O)C([H])(C(=O)N([H])[H])N([H])C(=O)N3C([H])([H])C([H])([H])C([H])([H])C([H])(n4nc(-c5c([H])c([H])c(Oc6c([H])c([H])c(F)c([H])c6F)c([H])c5[H])c(C(=O)N([H])[H])c4N([H])[H])C3([H])[H])C([H])([H])C([H])([H])OC([H])([H])[H])c([H])c([H])c2C1([H])[H]

>  <smiles>  (19) 
[H]c1c([H])c([H])c2c(c1[H])C([H])([H])C([H])([H])C([H])([H])C2([H])N([H])C(=O)C1([H])N(C(=O)C([H])(N([H])C(=O)C([H])(N([H])C([H])([H])[H])C([H])([H])[H])C(C([H])([H])[H])(C([H])([H])[H])C([H])([H])[H])C([H])([H])c2c([H])c(OC([H])([H])C([H])([H])OC([H])([H])C([H])([H])N([H])C(=O)C([H])([H])N(C(=O)C([H])(C(=O)N([H])[H])N([H])C(=O)N3C([H])([H])C([H])([H])C([H])([H])C([H])(n4nc(-c5c([H])c([H])c(Oc6c([H])c([H])c(F)c([H])c6F)c([H])c5[H])c(C(=O)N([H])[H])c4N([H])[H])C3([H])[H])C([H])([H])C([H])([H])OC([H])([H])[H])c([H])c([H])c2C1([H])[H]

$$$$
19:0:0
     RDKit          3D

 97104  0  0  1  0  0  0  0  0999 V2000
  -24.7740  -24.0870   22.5460 C   0  0  0  0  0  2  0  0  0  0  0  0
  -26.0590  -24.6850   22.4910 O   0  0  0  0  0  0  0  0  0  0  0  0
  -26.5900  -25.0130   23.7660 C   0  0  0  0  0  2  0  0  0  0  0  0
  -27.9760  -25.6290   23.5500 C   0  0  0  0  0  2  0  0  0  0  0  0
  -28.8610  -24.6220   23.0650 O   0  0  0  0  0  0  0  0  0  0  0  0
  -29.9920  -25.1370   22.3740 C   0  0  0  0  0  2  0  0  0  0  0  0
  -29.8950  -24.8250   20.8680 C   0  0  0  0  0  2  0  0  0  0  0  0
  -28.6700  -25.4360   20.1710 C   0  0  0  0  0  2  0  0  0  0  0  0
  -28.6990  -26.8540   20.3100 O   0  0  0  0  0  0  0  0  0  0  0  0
  -24.7920  -31.9230   23.3700 C   0  0  0  0  0  0  0  0  0  0  0  0
  -27.4990  -27.5300   20.2880 C   0  0  0  0  0  0  0  0  0  0  0  0
  -23.6130  -30.5360   21.6930 C   0  0  0  0  0  3  0  0  0  0  0  0
  -25.0910  -29.0100   20.2840 C   0  0  0  0  0  0  0  0  0  0  0  0
  -26.1400  -30.9020   21.5400 C   0  0  0  0  0  2  0  0  0  0  0  0
  -26.2360  -29.5380   20.8920 C   0  0  0  0  0  0  0  0  0  0  0  0
  -27.4410  -28.8040   20.8890 C   0  0  0  0  0  3  0  0  0  0  0  0
  -26.3330  -27.0070   19.6790 C   0  0  0  0  0  3  0  0  0  0  0  0
  -25.1330  -27.7430   19.6770 C   0  0  0  0  0  3  0  0  0  0  0  0
  -23.8450  -29.8650   20.3130 C   0  0  0  0  0  2  0  0  0  0  0  0
  -24.8650  -31.1350   22.2600 N   0  0  0  0  0  0  0  0  0  0  0  0
  -23.7020  -32.1900   23.8950 O   0  0  0  0  0  0  0  0  0  0  0  0
  -22.9480  -29.5060   22.6350 C   0  0  0  0  0  0  0  0  0  0  0  0
  -21.6240  -29.3300   22.4880 N   0  0  0  0  0  0  0  0  0  0  0  0
  -23.6190  -28.8690   23.4510 O   0  0  0  0  0  0  0  0  0  0  0  0
  -21.1470  -29.8980   21.8010 H   0  0  0  0  0  0  0  0  0  0  0  0
  -18.2400  -28.1440   22.9140 C   0  0  0  0  0  0  0  0  0  0  0  0
  -20.7940  -28.3880   23.2340 C   0  0  0  0  0  3  0  0  0  0  0  0
  -20.9010  -26.9620   22.6440 C   0  0  0  0  0  2  0  0  0  0  0  0
  -19.8160  -26.6540   21.6080 C   0  0  0  0  0  2  0  0  0  0  0  0
  -18.4230  -26.7990   22.2290 C   0  0  0  0  0  2  0  0  0  0  0  0
  -19.3550  -28.8960   23.3720 C   0  0  0  0  0  0  0  0  0  0  0  0
  -19.1310  -30.1550   23.9700 C   0  0  0  0  0  3  0  0  0  0  0  0
  -17.8270  -30.6620   24.1180 C   0  0  0  0  0  3  0  0  0  0  0  0
  -16.7260  -29.9060   23.6790 C   0  0  0  0  0  3  0  0  0  0  0  0
  -16.9340  -28.6500   23.0810 C   0  0  0  0  0  3  0  0  0  0  0  0
  -26.0680  -32.5470   24.0160 C   0  0  0  0  0  3  0  0  0  0  0  0
  -25.7540  -33.9390   24.3610 N   0  0  0  0  0  0  0  0  0  0  0  0
  -26.1050  -35.0010   23.6250 C   0  0  0  0  0  0  0  0  0  0  0  0
  -26.7980  -34.9130   22.6080 O   0  0  0  0  0  0  0  0  0  0  0  0
  -25.1410  -34.0820   25.1510 H   0  0  0  0  0  0  0  0  0  0  0  0
  -24.3830  -36.7970   23.2610 C   0  0  0  0  0  1  0  0  0  0  0  0
  -25.6070  -36.3830   24.0930 C   0  0  0  0  0  3  0  0  0  0  0  0
  -27.7280  -37.2500   24.9740 C   0  0  0  0  0  1  0  0  0  0  0  0
  -26.6400  -37.4380   24.0170 N   0  0  0  0  0  0  0  0  0  0  0  0
  -26.2310  -38.3540   24.1800 H   0  0  0  0  0  0  0  0  0  0  0  0
  -26.5730  -31.7560   25.2860 C   0  0  1  0  0  0  0  0  0  0  0  0
  -25.4660  -31.4970   26.3350 C   0  0  0  0  0  1  0  0  0  0  0  0
  -27.1670  -30.3890   24.8750 C   0  0  0  0  0  1  0  0  0  0  0  0
  -27.7100  -32.5440   25.9770 C   0  0  0  0  0  1  0  0  0  0  0  0
  -24.3480  -23.7350   21.1160 C   0  0  0  0  0  2  0  0  0  0  0  0
  -25.1450  -22.6570   20.6410 O   0  0  0  0  0  0  0  0  0  0  0  0
  -24.9810  -22.4260   19.2470 C   0  0  0  0  0  2  0  0  0  0  0  0
  -25.6270  -21.0860   18.8600 C   0  0  0  0  0  2  0  0  0  0  0  0
  -27.6080  -19.9490   19.2000 C   0  0  0  0  0  3  0  0  0  0  0  0
  -27.0470  -21.0870   19.1710 N   0  0  0  0  0  0  0  0  0  0  0  0
  -29.0720  -19.7530   19.5300 C   0  0  0  0  0  2  0  0  0  0  0  0
  -29.3010  -18.5860   20.5060 C   0  0  0  0  0  2  0  0  0  0  0  0
  -30.7860  -18.4150   20.8700 C   0  0  0  0  0  2  0  0  0  0  0  0
  -31.0390  -17.4230   22.0210 C   0  0  0  0  0  2  0  0  0  0  0  0
  -31.1520  -15.1890   20.9210 C   0  0  0  0  0  0  0  0  0  0  0  0
  -30.9870  -12.9690   19.8620 C   0  0  0  0  0  2  0  0  0  0  0  0
  -30.1760  -13.0390   18.5550 C   0  0  0  0  0  2  0  0  0  0  0  0
  -28.6710  -12.8880   18.8390 C   0  0  0  0  0  2  0  0  0  0  0  0
  -28.1810  -13.8330   19.9680 C   0  0  0  0  0  3  0  0  0  0  0  0
  -29.1060  -13.7360   21.2010 C   0  0  0  0  0  2  0  0  0  0  0  0
  -30.4900  -14.0130   20.7690 N   0  0  0  0  0  0  0  0  0  0  0  0
  -32.2330  -15.4370   20.3790 O   0  0  0  0  0  0  0  0  0  0  0  0
  -30.5520  -16.0790   21.7190 N   0  0  0  0  0  0  0  0  0  0  0  0
  -29.6840  -15.7920   22.1490 H   0  0  0  0  0  0  0  0  0  0  0  0
  -25.7160  -14.4430   20.4030 C   0  0  0  0  0  0  0  0  0  0  0  0
  -24.6220  -13.6730   20.6980 C   0  0  0  0  0  0  0  0  0  0  0  0
  -25.0950  -12.3270   20.7720 C   0  0  0  0  0  0  0  0  0  0  0  0
  -26.7860  -13.5650   20.3180 N   0  0  0  0  0  0  0  0  0  0  0  0
  -26.4090  -12.2900   20.5950 N   0  0  0  0  0  0  0  0  0  0  0  0
  -24.3640  -11.0650   20.9470 C   0  0  0  0  0  0  0  0  0  0  0  0
  -24.7180  -10.1400   21.9530 C   0  0  0  0  0  3  0  0  0  0  0  0
  -23.9890   -8.9410   22.1120 C   0  0  0  0  0  3  0  0  0  0  0  0
  -22.8920   -8.6600   21.2630 C   0  0  0  0  0  0  0  0  0  0  0  0
  -22.5590   -9.5740   20.2480 C   0  0  0  0  0  3  0  0  0  0  0  0
  -23.2880  -10.7630   20.0880 C   0  0  0  0  0  3  0  0  0  0  0  0
  -22.1430   -7.5100   21.3270 O   0  0  0  0  0  0  0  0  0  0  0  0
  -21.9900   -6.8150   22.4990 C   0  0  0  0  0  0  0  0  0  0  0  0
  -21.4750   -7.4230   23.6650 C   0  0  0  0  0  3  0  0  0  0  0  0
  -21.2700   -6.6540   24.8290 C   0  0  0  0  0  3  0  0  0  0  0  0
  -21.5690   -5.2790   24.8250 C   0  0  0  0  0  0  0  0  0  0  0  0
  -22.0750   -4.6700   23.6650 C   0  0  0  0  0  3  0  0  0  0  0  0
  -22.2830   -5.4370   22.5030 C   0  0  0  0  0  0  0  0  0  0  0  0
  -22.7520   -4.8400   21.3810 F   0  0  0  0  0  0  0  0  0  0  0  0
  -21.3630   -4.5380   25.9400 F   0  0  0  0  0  0  0  0  0  0  0  0
  -23.2000  -14.1440   20.8120 C   0  0  0  0  0  0  0  0  0  0  0  0
  -22.4000  -13.4810   21.6410 N   0  0  0  0  0  0  0  0  0  0  0  0
  -22.8040  -15.1360   20.2010 O   0  0  0  0  0  0  0  0  0  0  0  0
  -22.7300  -12.6800   22.1570 H   0  0  0  0  0  0  0  0  0  0  0  0
  -21.4420  -13.7800   21.7590 H   0  0  0  0  0  0  0  0  0  0  0  0
  -25.8870  -15.8050   20.1820 N   0  0  0  0  0  0  0  0  0  0  0  0
  -25.1100  -16.4550   20.1840 H   0  0  0  0  0  0  0  0  0  0  0  0
  -26.7680  -16.2330   19.9290 H   0  0  0  0  0  0  0  0  0  0  0  0
  2  1  1  0
  2  3  1  0
  4  3  1  0
  5  4  1  0
  6  5  1  0
  7  6  1  0
  8  9  1  0
  8  7  1  0
 10 21  2  0
 11  9  1  0
 11 16  1  0
 12 20  1  0
 12 22  1  0
 13 19  1  0
 13 15  1  0
 14 20  1  0
 15 14  1  0
 16 15  2  0
 17 11  2  0
 18 17  1  0
 18 13  2  0
 19 12  1  0
 20 10  1  0
 22 24  2  0
 23 22  1  0
 25 23  1  0
 26 35  2  0
 26 31  1  0
 27 23  1  0
 27 31  1  0
 28 27  1  0
 29 30  1  0
 29 28  1  0
 30 26  1  0
 31 32  2  0
 32 33  1  0
 34 33  2  0
 35 34  1  0
 36 10  1  0
 36 37  1  0
 36 46  1  0
 37 40  1  0
 38 42  1  0
 38 37  1  0
 39 38  2  0
 42 41  1  0
 44 42  1  0
 44 45  1  0
 44 43  1  0
 46 49  1  1
 46 47  1  0
 48 46  1  0
 50  1  1  0
 51 50  1  0
 52 51  1  0
 53 55  1  0
 53 52  1  0
 54 56  1  0
 55 54  2  0
 56 57  1  0
 57 58  1  0
 58 59  1  0
 60 68  1  0
 61 66  1  0
 62 63  1  0
 62 61  1  0
 64 63  1  0
 64 73  1  0
 64 65  1  0
 66 60  1  0
 66 65  1  0
 67 60  2  0
 68 59  1  0
 68 69  1  0
 70 71  2  0
 71 72  1  0
 71 90  1  0
 72 75  1  0
 73 70  1  0
 73 74  1  0
 74 72  2  0
 75 76  1  0
 76 77  2  0
 78 81  1  0
 78 77  1  0
 79 78  2  0
 80 79  1  0
 80 75  2  0
 81 82  1  0
 82 87  2  0
 82 83  1  0
 83 84  2  0
 85 84  1  0
 85 89  1  0
 86 85  2  0
 87 86  1  0
 88 87  1  0
 90 91  1  0
 91 94  1  0
 91 93  1  0
 92 90  2  0
 95 96  1  0
 95 70  1  0
 97 95  1  0
M  ISO  4   8 101   9 101  60 100  68 100
M  END
>  <TORSDO>  (20) 
F 32

>  <SCORE>  (20) 
-8.763

>  <name>  (20) 
19

>  <ligand_id>  (20) 
19

>  <original_smiles>  (20) 
[H]C(=NC([H])([H])C([H])([H])OC([H])([H])C([H])([H])OC([H])([H])C([H])([H])OC([H])([H])C([H])([H])C([H])([H])Oc1c([H])c([H])c2c(c1[H])C([H])([H])N(C(=O)C([H])(N([H])C(=O)C([H])(N([H])C([H])([H])[H])C([H])([H])[H])C(C([H])([H])[H])(C([H])([H])[H])C([H])([H])[H])C([H])(C(=O)N([H])C1([H])c3c([H])c([H])c([H])c([H])c3C([H])([H])C([H])([H])C1([H])[H])C2([H])[H])C([H])([H])C([H])([H])C([H])([H])C([H])([H])N([H])C(=O)N1C([H])([H])C([H])([H])C([H])([H])C([H])(n2nc(-c3c([H])c([H])c(Oc4c([H])c([H])c(F)c([H])c4F)c([H])c3[H])c(C(=O)N([H])[H])c2N([H])[H])C1([H])[H]

>  <smiles>  (20) 
[H]C(=NC([H])([H])C([H])([H])OC([H])([H])C([H])([H])OC([H])([H])C([H])([H])OC([H])([H])C([H])([H])C([H])([H])Oc1c([H])c([H])c2c(c1[H])C([H])([H])N(C(=O)C([H])(N([H])C(=O)C([H])(N([H])C([H])([H])[H])C([H])([H])[H])C(C([H])([H])[H])(C([H])([H])[H])C([H])([H])[H])C([H])(C(=O)N([H])C1([H])c3c([H])c([H])c([H])c([H])c3C([H])([H])C([H])([H])C1([H])[H])C2([H])[H])C([H])([H])C([H])([H])C([H])([H])C([H])([H])N([H])C(=O)N1C([H])([H])C([H])([H])C([H])([H])C([H])(n2nc(-c3c([H])c([H])c(Oc4c([H])c([H])c(F)c([H])c4F)c([H])c3[H])c(C(=O)N([H])[H])c2N([H])[H])C1([H])[H]

$$$$
20:0:0
     RDKit          3D

 96103  0  0  1  0  0  0  0  0999 V2000
  -31.0430  -25.6750   17.2760 C   0  0  0  0  0  2  0  0  0  0  0  0
  -31.1630  -27.4000   19.0950 C   0  0  0  0  0  0  0  0  0  0  0  0
  -30.7520  -26.2240   18.6000 N   0  0  0  0  0  0  0  0  0  0  0  0
  -31.9290  -28.1380   18.4670 O   0  0  0  0  0  0  0  0  0  0  0  0
  -30.1270  -25.6900   19.1920 H   0  0  0  0  0  0  0  0  0  0  0  0
  -31.0610  -28.7920   21.0670 C   0  0  0  0  0  2  0  0  0  0  0  0
  -30.6130  -27.6970   20.4250 C   0  0  0  0  0  0  0  0  0  0  0  0
  -29.5640  -26.7880   21.0680 C   0  0  0  0  0  2  0  0  0  0  0  0
  -28.4820  -26.4880   20.1840 O   0  0  0  0  0  0  0  0  0  0  0  0
  -24.7020  -31.7320   23.2090 C   0  0  0  0  0  0  0  0  0  0  0  0
  -27.3650  -27.2930   20.1870 C   0  0  0  0  0  0  0  0  0  0  0  0
  -23.5060  -30.3390   21.5490 C   0  0  0  0  0  3  0  0  0  0  0  0
  -24.9680  -28.7940   20.1440 C   0  0  0  0  0  0  0  0  0  0  0  0
  -26.0310  -30.6890   21.3840 C   0  0  0  0  0  2  0  0  0  0  0  0
  -26.1150  -29.3180   20.7490 C   0  0  0  0  0  0  0  0  0  0  0  0
  -27.3150  -28.5830   20.7650 C   0  0  0  0  0  3  0  0  0  0  0  0
  -26.2030  -26.7770   19.5750 C   0  0  0  0  0  3  0  0  0  0  0  0
  -25.0070  -27.5190   19.5470 C   0  0  0  0  0  3  0  0  0  0  0  0
  -23.7260  -29.6540   20.1730 C   0  0  0  0  0  2  0  0  0  0  0  0
  -24.7630  -30.9340   22.1070 N   0  0  0  0  0  0  0  0  0  0  0  0
  -23.6160  -32.0120   23.7370 O   0  0  0  0  0  0  0  0  0  0  0  0
  -22.8340  -29.3250   22.5010 C   0  0  0  0  0  0  0  0  0  0  0  0
  -21.5050  -29.1790   22.3760 N   0  0  0  0  0  0  0  0  0  0  0  0
  -23.5020  -28.6710   23.3060 O   0  0  0  0  0  0  0  0  0  0  0  0
  -21.0280  -29.7540   21.6970 H   0  0  0  0  0  0  0  0  0  0  0  0
  -18.0950  -28.1020   22.8960 C   0  0  0  0  0  0  0  0  0  0  0  0
  -20.6640  -28.2560   23.1390 C   0  0  0  0  0  3  0  0  0  0  0  0
  -20.7020  -26.8340   22.5310 C   0  0  0  0  0  2  0  0  0  0  0  0
  -19.5770  -26.5760   21.5260 C   0  0  0  0  0  2  0  0  0  0  0  0
  -18.2090  -26.7620   22.1890 C   0  0  0  0  0  2  0  0  0  0  0  0
  -19.2460  -28.8110   23.3260 C   0  0  0  0  0  0  0  0  0  0  0  0
  -19.0850  -30.0700   23.9450 C   0  0  0  0  0  3  0  0  0  0  0  0
  -17.8020  -30.6190   24.1350 C   0  0  0  0  0  3  0  0  0  0  0  0
  -16.6650  -29.9050   23.7210 C   0  0  0  0  0  3  0  0  0  0  0  0
  -16.8110  -28.6480   23.1070 C   0  0  0  0  0  3  0  0  0  0  0  0
  -25.9860  -32.3460   23.8500 C   0  0  0  0  0  3  0  0  0  0  0  0
  -26.4920  -31.5570   25.1190 C   0  0  1  0  0  0  0  0  0  0  0  0
  -25.3910  -31.3150   26.1780 C   0  0  0  0  0  1  0  0  0  0  0  0
  -27.0680  -30.1820   24.7110 C   0  0  0  0  0  1  0  0  0  0  0  0
  -27.6460  -32.3370   25.7930 C   0  0  0  0  0  1  0  0  0  0  0  0
  -25.6840  -33.7430   24.1900 N   0  0  0  0  0  0  0  0  0  0  0  0
  -26.0160  -34.7990   23.4340 C   0  0  0  0  0  0  0  0  0  0  0  0
  -26.6800  -34.6970   22.3980 O   0  0  0  0  0  0  0  0  0  0  0  0
  -25.0920  -33.8950   24.9940 H   0  0  0  0  0  0  0  0  0  0  0  0
  -24.2810  -36.5880   23.1060 C   0  0  0  0  0  1  0  0  0  0  0  0
  -25.5330  -36.1850   23.9010 C   0  0  0  0  0  3  0  0  0  0  0  0
  -27.6820  -37.0670   24.7000 C   0  0  0  0  0  1  0  0  0  0  0  0
  -26.5650  -37.2380   23.7750 N   0  0  0  0  0  0  0  0  0  0  0  0
  -26.1630  -38.1580   23.9280 H   0  0  0  0  0  0  0  0  0  0  0  0
  -29.7510  -25.3070   16.5190 C   0  0  0  0  0  2  0  0  0  0  0  0
  -28.9230  -24.1960   17.1950 C   0  0  0  0  0  2  0  0  0  0  0  0
  -29.6260  -22.9550   17.1900 O   0  0  0  0  0  0  0  0  0  0  0  0
  -29.0340  -21.9690   18.0360 C   0  0  0  0  0  2  0  0  0  0  0  0
  -29.9040  -20.7010   18.0960 C   0  0  0  0  0  2  0  0  0  0  0  0
  -29.2540  -19.7160   18.9040 O   0  0  0  0  0  0  0  0  0  0  0  0
  -30.0510  -19.0660   19.8950 C   0  0  0  0  0  2  0  0  0  0  0  0
  -29.5110  -17.6320   20.0630 C   0  0  0  0  0  2  0  0  0  0  0  0
  -30.1660  -16.8450   21.2260 C   0  0  0  0  0  2  0  0  0  0  0  0
  -30.6050  -14.4850   20.4450 C   0  0  0  0  0  0  0  0  0  0  0  0
  -30.3600  -12.3590   19.2100 C   0  0  0  0  0  2  0  0  0  0  0  0
  -29.4010  -12.5800   18.0170 C   0  0  0  0  0  2  0  0  0  0  0  0
  -27.9290  -12.4240   18.4570 C   0  0  0  0  0  2  0  0  0  0  0  0
  -27.6010  -13.2310   19.7410 C   0  0  0  0  0  3  0  0  0  0  0  0
  -28.6580  -12.9480   20.8350 C   0  0  0  0  0  2  0  0  0  0  0  0
  -29.9760  -13.2950   20.2790 N   0  0  0  0  0  0  0  0  0  0  0  0
  -31.6800  -14.7670   19.8990 O   0  0  0  0  0  0  0  0  0  0  0  0
  -29.9120  -15.3970   21.1470 N   0  0  0  0  0  0  0  0  0  0  0  0
  -29.0820  -15.0550   21.6140 H   0  0  0  0  0  0  0  0  0  0  0  0
  -25.2040  -13.8530   20.4530 C   0  0  0  0  0  0  0  0  0  0  0  0
  -24.1340  -13.0880   20.8380 C   0  0  0  0  0  0  0  0  0  0  0  0
  -24.5940  -11.7350   20.8130 C   0  0  0  0  0  0  0  0  0  0  0  0
  -26.2450  -12.9670   20.2230 N   0  0  0  0  0  0  0  0  0  0  0  0
  -25.8800  -11.6890   20.4890 N   0  0  0  0  0  0  0  0  0  0  0  0
  -23.8700  -10.4750   21.0210 C   0  0  0  0  0  0  0  0  0  0  0  0
  -24.3220   -9.5060   21.9420 C   0  0  0  0  0  3  0  0  0  0  0  0
  -23.6020   -8.3080   22.1350 C   0  0  0  0  0  3  0  0  0  0  0  0
  -22.4180   -8.0650   21.3990 C   0  0  0  0  0  0  0  0  0  0  0  0
  -21.9840   -9.0240   20.4660 C   0  0  0  0  0  3  0  0  0  0  0  0
  -22.7050  -10.2130   20.2750 C   0  0  0  0  0  3  0  0  0  0  0  0
  -21.6630   -6.9220   21.5020 O   0  0  0  0  0  0  0  0  0  0  0  0
  -21.6430   -6.1730   22.6530 C   0  0  0  0  0  0  0  0  0  0  0  0
  -21.2520   -6.7210   23.8940 C   0  0  0  0  0  3  0  0  0  0  0  0
  -21.1840   -5.8970   25.0340 C   0  0  0  0  0  3  0  0  0  0  0  0
  -21.4920   -4.5280   24.9370 C   0  0  0  0  0  0  0  0  0  0  0  0
  -21.8740   -3.9800   23.7000 C   0  0  0  0  0  3  0  0  0  0  0  0
  -21.9490   -4.8010   22.5630 C   0  0  0  0  0  0  0  0  0  0  0  0
  -22.2980   -4.2620   21.3690 F   0  0  0  0  0  0  0  0  0  0  0  0
  -21.4180   -3.7360   26.0320 F   0  0  0  0  0  0  0  0  0  0  0  0
  -22.7380  -13.5690   21.1210 C   0  0  0  0  0  0  0  0  0  0  0  0
  -22.0180  -12.8840   21.9990 N   0  0  0  0  0  0  0  0  0  0  0  0
  -22.2990  -14.5970   20.6030 O   0  0  0  0  0  0  0  0  0  0  0  0
  -22.3930  -12.0590   22.4520 H   0  0  0  0  0  0  0  0  0  0  0  0
  -21.0840  -13.1860   22.2330 H   0  0  0  0  0  0  0  0  0  0  0  0
  -25.3750  -15.2190   20.2670 N   0  0  0  0  0  0  0  0  0  0  0  0
  -24.6220  -15.8850   20.3880 H   0  0  0  0  0  0  0  0  0  0  0  0
  -26.2240  -15.6390   19.9060 H   0  0  0  0  0  0  0  0  0  0  0  0
  1  3  1  0
  2  7  1  0
  3  2  1  0
  3  5  1  0
  4  2  2  0
  7  6  2  0
  7  8  1  0
  9 11  1  0
  9  8  1  0
 10 21  2  0
 11 16  1  0
 12 20  1  0
 12 22  1  0
 13 19  1  0
 13 15  1  0
 14 20  1  0
 15 16  2  0
 15 14  1  0
 17 11  2  0
 18 17  1  0
 18 13  2  0
 19 12  1  0
 20 10  1  0
 22 24  2  0
 23 22  1  0
 25 23  1  0
 26 35  2  0
 26 31  1  0
 27 23  1  0
 27 31  1  0
 28 27  1  0
 29 30  1  0
 29 28  1  0
 30 26  1  0
 31 32  2  0
 32 33  1  0
 34 33  2  0
 35 34  1  0
 36 10  1  0
 36 41  1  0
 36 37  1  0
 37 40  1  1
 37 38  1  0
 39 37  1  0
 41 44  1  0
 42 46  1  0
 42 41  1  0
 43 42  2  0
 46 45  1  0
 48 46  1  0
 48 49  1  0
 48 47  1  0
 50 51  1  0
 50  1  1  0
 52 51  1  0
 52 53  1  0
 53 54  1  0
 54 55  1  0
 55 56  1  0
 56 57  1  0
 57 58  1  0
 59 67  1  0
 60 65  1  0
 61 62  1  0
 61 60  1  0
 63 62  1  0
 63 72  1  0
 63 64  1  0
 65 59  1  0
 65 64  1  0
 66 59  2  0
 67 58  1  0
 67 68  1  0
 69 70  2  0
 70 89  1  0
 71 70  1  0
 71 74  1  0
 72 69  1  0
 72 73  1  0
 73 71  2  0
 74 75  1  0
 75 76  2  0
 77 80  1  0
 77 76  1  0
 78 77  2  0
 79 78  1  0
 79 74  2  0
 80 81  1  0
 81 82  1  0
 82 83  2  0
 84 83  1  0
 84 88  1  0
 85 84  2  0
 86 81  2  0
 86 85  1  0
 87 86  1  0
 89 90  1  0
 90 93  1  0
 90 92  1  0
 91 89  2  0
 94 95  1  0
 94 69  1  0
 96 94  1  0
M  ISO  4   8 101   9 101  59 100  67 100
M  END
>  <TORSDO>  (21) 
F 28

>  <SCORE>  (21) 
-11.399

>  <name>  (21) 
20

>  <ligand_id>  (21) 
20

>  <original_smiles>  (21) 
[H]C([H])=C(C(=O)N([H])C([H])([H])C([H])([H])C([H])([H])OC([H])([H])C([H])([H])OC([H])([H])C([H])([H])C([H])([H])N([H])C(=O)N1C([H])([H])C([H])([H])C([H])([H])C([H])(n2nc(-c3c([H])c([H])c(Oc4c([H])c([H])c(F)c([H])c4F)c([H])c3[H])c(C(=O)N([H])[H])c2N([H])[H])C1([H])[H])C([H])([H])Oc1c([H])c([H])c2c(c1[H])C([H])([H])N(C(=O)C([H])(N([H])C(=O)C([H])(N([H])C([H])([H])[H])C([H])([H])[H])C(C([H])([H])[H])(C([H])([H])[H])C([H])([H])[H])C([H])(C(=O)N([H])C1([H])c3c([H])c([H])c([H])c([H])c3C([H])([H])C([H])([H])C1([H])[H])C2([H])[H]

>  <smiles>  (21) 
[H]C([H])=C(C(=O)N([H])C([H])([H])C([H])([H])C([H])([H])OC([H])([H])C([H])([H])OC([H])([H])C([H])([H])C([H])([H])N([H])C(=O)N1C([H])([H])C([H])([H])C([H])([H])C([H])(n2nc(-c3c([H])c([H])c(Oc4c([H])c([H])c(F)c([H])c4F)c([H])c3[H])c(C(=O)N([H])[H])c2N([H])[H])C1([H])[H])C([H])([H])Oc1c([H])c([H])c2c(c1[H])C([H])([H])N(C(=O)C([H])(N([H])C(=O)C([H])(N([H])C([H])([H])[H])C([H])([H])[H])C(C([H])([H])[H])(C([H])([H])[H])C([H])([H])[H])C([H])(C(=O)N([H])C1([H])c3c([H])c([H])c([H])c([H])c3C([H])([H])C([H])([H])C1([H])[H])C2([H])[H]

$$$$
21:0:0
     RDKit          3D

104111  0  0  1  0  0  0  0  0999 V2000
  -29.6210  -20.8680   21.6380 C   0  0  0  0  0  0  0  0  0  0  0  0
  -29.8330  -20.2010   22.7810 N   0  0  0  0  0  0  0  0  0  0  0  0
  -30.2610  -21.8780   21.3430 O   0  0  0  0  0  0  0  0  0  0  0  0
  -29.2270  -19.4150   22.9730 H   0  0  0  0  0  0  0  0  0  0  0  0
  -28.6650  -20.1980   20.6310 C   0  0  0  0  0  3  0  0  0  0  0  0
  -29.4940  -17.8830   20.2540 C   0  0  0  0  0  0  0  0  0  0  0  0
  -29.4910  -19.1910   19.9730 N   0  0  0  0  0  0  0  0  0  0  0  0
  -28.6060  -17.3350   20.9090 O   0  0  0  0  0  0  0  0  0  0  0  0
  -30.2330  -19.5440   19.3860 H   0  0  0  0  0  0  0  0  0  0  0  0
  -30.7140  -17.0690   19.7860 C   0  0  0  0  0  3  0  0  0  0  0  0
  -30.8370  -14.6310   19.4200 C   0  0  0  0  0  0  0  0  0  0  0  0
  -30.5480  -12.2500   18.9030 C   0  0  0  0  0  2  0  0  0  0  0  0
  -29.5190  -12.0620   17.7700 C   0  0  0  0  0  2  0  0  0  0  0  0
  -28.1050  -11.9340   18.3640 C   0  0  0  0  0  2  0  0  0  0  0  0
  -27.7730  -13.0870   19.3470 C   0  0  0  0  0  3  0  0  0  0  0  0
  -28.9140  -13.2960   20.3760 C   0  0  0  0  0  2  0  0  0  0  0  0
  -30.1940  -13.4590   19.6610 N   0  0  0  0  0  0  0  0  0  0  0  0
  -31.6930  -14.7500   18.5420 O   0  0  0  0  0  0  0  0  0  0  0  0
  -30.5000  -15.6740   20.1860 N   0  0  0  0  0  0  0  0  0  0  0  0
  -29.8180  -15.5300   20.9180 H   0  0  0  0  0  0  0  0  0  0  0  0
  -25.5530  -13.7840   20.4650 C   0  0  0  0  0  0  0  0  0  0  0  0
  -24.4870  -13.0540   20.9220 C   0  0  0  0  0  0  0  0  0  0  0  0
  -24.8270  -11.6840   20.7020 C   0  0  0  0  0  0  0  0  0  0  0  0
  -26.4830  -12.8620   20.0050 N   0  0  0  0  0  0  0  0  0  0  0  0
  -26.0510  -11.5890   20.1980 N   0  0  0  0  0  0  0  0  0  0  0  0
  -24.0360  -10.4600   20.8960 C   0  0  0  0  0  0  0  0  0  0  0  0
  -24.4670   -9.4250   21.7550 C   0  0  0  0  0  3  0  0  0  0  0  0
  -23.6760   -8.2690   21.9350 C   0  0  0  0  0  3  0  0  0  0  0  0
  -22.4420   -8.1400   21.2560 C   0  0  0  0  0  0  0  0  0  0  0  0
  -22.0290   -9.1620   20.3840 C   0  0  0  0  0  3  0  0  0  0  0  0
  -22.8200  -10.3100   20.2010 C   0  0  0  0  0  3  0  0  0  0  0  0
  -21.6240   -7.0390   21.3500 O   0  0  0  0  0  0  0  0  0  0  0  0
  -21.5530   -6.2890   22.4960 C   0  0  0  0  0  0  0  0  0  0  0  0
  -21.1920   -6.8590   23.7370 C   0  0  0  0  0  3  0  0  0  0  0  0
  -21.0620   -6.0410   24.8760 C   0  0  0  0  0  3  0  0  0  0  0  0
  -21.2850   -4.6540   24.7780 C   0  0  0  0  0  0  0  0  0  0  0  0
  -21.6410   -4.0850   23.5420 C   0  0  0  0  0  3  0  0  0  0  0  0
  -21.7730   -4.8990   22.4050 C   0  0  0  0  0  0  0  0  0  0  0  0
  -22.0930   -4.3420   21.2120 F   0  0  0  0  0  0  0  0  0  0  0  0
  -21.1550   -3.8660   25.8700 F   0  0  0  0  0  0  0  0  0  0  0  0
  -23.1890  -13.5990   21.4480 C   0  0  0  0  0  0  0  0  0  0  0  0
  -22.5540  -12.8870   22.3770 N   0  0  0  0  0  0  0  0  0  0  0  0
  -22.7540  -14.6880   21.0760 O   0  0  0  0  0  0  0  0  0  0  0  0
  -22.9220  -12.0070   22.7050 H   0  0  0  0  0  0  0  0  0  0  0  0
  -21.6920  -13.2350   22.7720 H   0  0  0  0  0  0  0  0  0  0  0  0
  -25.8010  -15.1480   20.3820 N   0  0  0  0  0  0  0  0  0  0  0  0
  -25.1190  -15.8430   20.6690 H   0  0  0  0  0  0  0  0  0  0  0  0
  -26.6480  -15.5560   20.0080 H   0  0  0  0  0  0  0  0  0  0  0  0
  -32.6090  -18.5170   18.8840 C   0  0  0  0  0  1  0  0  0  0  0  0
  -33.2530  -16.6150   20.3600 C   0  0  0  0  0  1  0  0  0  0  0  0
  -32.1800  -18.6050   21.3350 C   0  0  0  0  0  1  0  0  0  0  0  0
  -32.1550  -17.6730   20.0990 C   0  0  2  0  0  0  0  0  0  0  0  0
  -28.7120  -22.2960   18.9900 C   0  0  0  0  0  1  0  0  0  0  0  0
  -27.3380  -20.2790   18.4310 C   0  0  0  0  0  1  0  0  0  0  0  0
  -27.9270  -21.1080   19.5870 C   0  0  0  0  0  3  0  0  0  0  0  0
  -30.9190  -20.4660   23.7280 C   0  0  0  0  0  2  0  0  0  0  0  0
  -30.4710  -21.4360   24.8250 C   0  0  0  0  0  2  0  0  0  0  0  0
  -30.0770  -22.5610   24.0670 O   0  0  0  0  0  0  0  0  0  0  0  0
  -29.4730  -23.6500   24.7310 C   0  0  0  0  0  2  0  0  0  0  0  0
  -28.6260  -24.3240   23.6370 C   0  0  0  0  0  2  0  0  0  0  0  0
  -29.4170  -24.6520   22.4970 O   0  0  0  0  0  0  0  0  0  0  0  0
  -28.6410  -24.6400   21.2990 C   0  0  0  0  0  2  0  0  0  0  0  0
  -29.3680  -25.3920   20.1670 C   0  0  0  0  0  2  0  0  0  0  0  0
  -29.2550  -26.8070   20.3200 O   0  0  0  0  0  0  0  0  0  0  0  0
  -24.9110  -31.5780   23.2420 C   0  0  0  0  0  0  0  0  0  0  0  0
  -28.0150  -27.4070   20.2310 C   0  0  0  0  0  0  0  0  0  0  0  0
  -23.9000  -30.1760   21.4660 C   0  0  0  0  0  3  0  0  0  0  0  0
  -25.5350  -28.7570   20.1120 C   0  0  0  0  0  0  0  0  0  0  0  0
  -26.4040  -30.6800   21.4620 C   0  0  0  0  0  2  0  0  0  0  0  0
  -26.6150  -29.3360   20.7910 C   0  0  0  0  0  0  0  0  0  0  0  0
  -27.8530  -28.6660   20.8450 C   0  0  0  0  0  3  0  0  0  0  0  0
  -26.9160  -26.8320   19.5470 C   0  0  0  0  0  3  0  0  0  0  0  0
  -25.6790  -27.5050   19.4920 C   0  0  0  0  0  3  0  0  0  0  0  0
  -24.2470  -29.5450   20.0880 C   0  0  0  0  0  2  0  0  0  0  0  0
  -25.0850  -30.8240   22.1170 N   0  0  0  0  0  0  0  0  0  0  0  0
  -23.7810  -31.7740   23.7120 O   0  0  0  0  0  0  0  0  0  0  0  0
  -23.2340  -29.0970   22.3470 C   0  0  0  0  0  0  0  0  0  0  0  0
  -21.9170  -28.9230   22.1670 N   0  0  0  0  0  0  0  0  0  0  0  0
  -23.8990  -28.4340   23.1480 O   0  0  0  0  0  0  0  0  0  0  0  0
  -21.4480  -29.5220   21.5020 H   0  0  0  0  0  0  0  0  0  0  0  0
  -18.5240  -27.7330   22.5400 C   0  0  0  0  0  0  0  0  0  0  0  0
  -21.0850  -27.9290   22.8420 C   0  0  0  0  0  3  0  0  0  0  0  0
  -21.1700  -26.5550   22.1320 C   0  0  0  0  0  2  0  0  0  0  0  0
  -20.0630  -26.3370   21.0960 C   0  0  0  0  0  2  0  0  0  0  0  0
  -18.6810  -26.4460   21.7480 C   0  0  0  0  0  2  0  0  0  0  0  0
  -19.6520  -28.4360   23.0410 C   0  0  0  0  0  0  0  0  0  0  0  0
  -19.4550  -29.6390   23.7460 C   0  0  0  0  0  3  0  0  0  0  0  0
  -18.1600  -30.1460   23.9610 C   0  0  0  0  0  3  0  0  0  0  0  0
  -17.0440  -29.4400   23.4790 C   0  0  0  0  0  3  0  0  0  0  0  0
  -17.2250  -28.2360   22.7780 C   0  0  0  0  0  3  0  0  0  0  0  0
  -26.1170  -32.2410   23.9790 C   0  0  0  0  0  3  0  0  0  0  0  0
  -25.7250  -33.6130   24.3220 N   0  0  0  0  0  0  0  0  0  0  0  0
  -26.0690  -34.7000   23.6140 C   0  0  0  0  0  0  0  0  0  0  0  0
  -26.8190  -34.6520   22.6350 O   0  0  0  0  0  0  0  0  0  0  0  0
  -25.0600  -33.7140   25.0750 H   0  0  0  0  0  0  0  0  0  0  0  0
  -24.2970  -36.4320   23.1650 C   0  0  0  0  0  1  0  0  0  0  0  0
  -25.4840  -36.0520   24.0630 C   0  0  0  0  0  3  0  0  0  0  0  0
  -27.5050  -37.0100   25.0770 C   0  0  0  0  0  1  0  0  0  0  0  0
  -26.4710  -37.1500   24.0560 N   0  0  0  0  0  0  0  0  0  0  0  0
  -26.0100  -38.0450   24.1930 H   0  0  0  0  0  0  0  0  0  0  0  0
  -26.5660  -31.4480   25.2680 C   0  0  1  0  0  0  0  0  0  0  0  0
  -25.4100  -31.1320   26.2480 C   0  0  0  0  0  1  0  0  0  0  0  0
  -27.2360  -30.1130   24.8710 C   0  0  0  0  0  1  0  0  0  0  0  0
  -27.6420  -32.2560   26.0320 C   0  0  0  0  0  1  0  0  0  0  0  0
  1  2  1  0
  2  4  1  0
  2 56  1  0
  3  1  2  0
  5 55  1  0
  5  1  1  0
  6  8  2  0
  7  6  1  0
  7  5  1  0
  9  7  1  0
 10 52  1  0
 10 19  1  0
 10  6  1  0
 11 17  1  0
 11 19  1  0
 12 17  1  0
 13 14  1  0
 13 12  1  0
 15 14  1  0
 15 24  1  0
 15 16  1  0
 17 16  1  0
 18 11  2  0
 19 20  1  0
 21 22  2  0
 22 41  1  0
 23 26  1  0
 23 22  1  0
 24 25  1  0
 24 21  1  0
 25 23  2  0
 26 27  1  0
 27 28  2  0
 29 32  1  0
 29 28  1  0
 30 29  2  0
 31 30  1  0
 31 26  2  0
 32 33  1  0
 33 34  1  0
 34 35  2  0
 36 35  1  0
 36 40  1  0
 37 36  2  0
 38 33  2  0
 38 37  1  0
 39 38  1  0
 41 42  1  0
 42 44  1  0
 42 45  1  0
 43 41  2  0
 46 21  1  0
 46 47  1  0
 48 46  1  0
 52 49  1  6
 52 50  1  0
 52 51  1  0
 53 55  1  0
 54 55  1  0
 56 57  1  0
 58 59  1  0
 58 57  1  0
 60 59  1  0
 61 60  1  0
 62 61  1  0
 63 64  1  0
 63 62  1  0
 65 76  2  0
 66 64  1  0
 66 71  1  0
 67 75  1  0
 67 77  1  0
 68 70  1  0
 69 75  1  0
 70 71  2  0
 70 69  1  0
 72 66  2  0
 73 72  1  0
 73 68  2  0
 74 68  1  0
 74 67  1  0
 75 65  1  0
 77 79  2  0
 78 77  1  0
 80 78  1  0
 81 90  2  0
 81 86  1  0
 82 78  1  0
 82 86  1  0
 83 82  1  0
 84 85  1  0
 84 83  1  0
 85 81  1  0
 86 87  2  0
 87 88  1  0
 89 88  2  0
 90 89  1  0
 91 65  1  0
 91 92  1  0
 91101  1  0
 92 95  1  0
 93 97  1  0
 93 92  1  0
 94 93  2  0
 97 96  1  0
 99 97  1  0
 99100  1  0
 99 98  1  0
101104  1  1
101102  1  0
103101  1  0
M  ISO  4  11 100  19 100  63 101  64 101
M  END
>  <TORSDO>  (22) 
F 29

>  <SCORE>  (22) 
-8.921

>  <name>  (22) 
21

>  <ligand_id>  (22) 
21

>  <original_smiles>  (22) 
[H]c1c([H])c([H])c2c(c1[H])C([H])([H])C([H])([H])C([H])([H])C2([H])N([H])C(=O)C1([H])N(C(=O)C([H])(N([H])C(=O)C([H])(N([H])C([H])([H])[H])C([H])([H])[H])C(C([H])([H])[H])(C([H])([H])[H])C([H])([H])[H])C([H])([H])c2c([H])c(OC([H])([H])C([H])([H])OC([H])([H])C([H])([H])OC([H])([H])C([H])([H])N([H])C(=O)C([H])(N([H])C(=O)C([H])(N([H])C(=O)N3C([H])([H])C([H])([H])C([H])([H])C([H])(n4nc(-c5c([H])c([H])c(Oc6c([H])c([H])c(F)c([H])c6F)c([H])c5[H])c(C(=O)N([H])[H])c4N([H])[H])C3([H])[H])C(C([H])([H])[H])(C([H])([H])[H])C([H])([H])[H])C([H])(C([H])([H])[H])C([H])([H])[H])c([H])c([H])c2C1([H])[H]

>  <smiles>  (22) 
[H]c1c([H])c([H])c2c(c1[H])C([H])([H])C([H])([H])C([H])([H])C2([H])N([H])C(=O)C1([H])N(C(=O)C([H])(N([H])C(=O)C([H])(N([H])C([H])([H])[H])C([H])([H])[H])C(C([H])([H])[H])(C([H])([H])[H])C([H])([H])[H])C([H])([H])c2c([H])c(OC([H])([H])C([H])([H])OC([H])([H])C([H])([H])OC([H])([H])C([H])([H])N([H])C(=O)C([H])(N([H])C(=O)C([H])(N([H])C(=O)N3C([H])([H])C([H])([H])C([H])([H])C([H])(n4nc(-c5c([H])c([H])c(Oc6c([H])c([H])c(F)c([H])c6F)c([H])c5[H])c(C(=O)N([H])[H])c4N([H])[H])C3([H])[H])C(C([H])([H])[H])(C([H])([H])[H])C([H])([H])[H])C([H])(C([H])([H])[H])C([H])([H])[H])c([H])c([H])c2C1([H])[H]

$$$$
22:0:0
     RDKit          3D

 94101  0  0  1  0  0  0  0  0999 V2000
  -30.5180  -23.4960   24.2940 C   0  0  0  0  0  2  0  0  0  0  0  0
  -29.3170  -24.3640   24.4080 N   0  0  0  0  0  4  0  0  0  0  0  0
  -28.4650  -23.8520   24.2400 H   0  0  0  0  0  0  0  0  0  0  0  0
  -29.2790  -24.6400   25.3770 H   0  0  0  0  0  0  0  0  0  0  0  0
  -29.3730  -25.6340   23.6370 C   0  0  0  0  0  2  0  0  0  0  0  0
  -28.6980  -25.5640   22.2520 C   0  0  0  0  0  2  0  0  0  0  0  0
  -29.1760  -26.6770   21.3000 C   0  0  0  0  0  2  0  0  0  0  0  0
  -28.3910  -26.7130   20.1040 O   0  0  0  0  0  0  0  0  0  0  0  0
  -24.6060  -31.8710   23.2070 C   0  0  0  0  0  0  0  0  0  0  0  0
  -27.2440  -27.4750   20.1290 C   0  0  0  0  0  0  0  0  0  0  0  0
  -23.3890  -30.4880   21.5500 C   0  0  0  0  0  3  0  0  0  0  0  0
  -24.8350  -28.9520   20.1170 C   0  0  0  0  0  0  0  0  0  0  0  0
  -25.9030  -30.8600   21.3360 C   0  0  0  0  0  2  0  0  0  0  0  0
  -25.9850  -29.4890   20.7060 C   0  0  0  0  0  0  0  0  0  0  0  0
  -27.1890  -28.7620   20.7100 C   0  0  0  0  0  3  0  0  0  0  0  0
  -26.0870  -26.9530   19.5180 C   0  0  0  0  0  3  0  0  0  0  0  0
  -24.8790  -27.6810   19.5150 C   0  0  0  0  0  3  0  0  0  0  0  0
  -23.5870  -29.8010   20.1710 C   0  0  0  0  0  2  0  0  0  0  0  0
  -24.6520  -31.0840   22.0930 N   0  0  0  0  0  0  0  0  0  0  0  0
  -23.5270  -32.1420   23.7500 O   0  0  0  0  0  0  0  0  0  0  0  0
  -22.7350  -29.4660   22.5070 C   0  0  0  0  0  0  0  0  0  0  0  0
  -21.4110  -29.3020   22.3800 N   0  0  0  0  0  0  0  0  0  0  0  0
  -23.4180  -28.8250   23.3110 O   0  0  0  0  0  0  0  0  0  0  0  0
  -20.9250  -29.8710   21.7000 H   0  0  0  0  0  0  0  0  0  0  0  0
  -18.0250  -28.1370   22.8490 C   0  0  0  0  0  0  0  0  0  0  0  0
  -20.5830  -28.3630   23.1360 C   0  0  0  0  0  3  0  0  0  0  0  0
  -20.6760  -26.9390   22.5430 C   0  0  0  0  0  2  0  0  0  0  0  0
  -19.5740  -26.6380   21.5230 C   0  0  0  0  0  2  0  0  0  0  0  0
  -18.1910  -26.7920   22.1610 C   0  0  0  0  0  2  0  0  0  0  0  0
  -19.1490  -28.8820   23.2920 C   0  0  0  0  0  0  0  0  0  0  0  0
  -18.9440  -30.1430   23.8910 C   0  0  0  0  0  3  0  0  0  0  0  0
  -17.6440  -30.6580   24.0570 C   0  0  0  0  0  3  0  0  0  0  0  0
  -16.5330  -29.9080   23.6340 C   0  0  0  0  0  3  0  0  0  0  0  0
  -16.7240  -28.6500   23.0340 C   0  0  0  0  0  3  0  0  0  0  0  0
  -25.8980  -32.4840   23.8360 C   0  0  0  0  0  3  0  0  0  0  0  0
  -26.4410  -31.6580   25.0660 C   0  0  1  0  0  0  0  0  0  0  0  0
  -25.3700  -31.3700   26.1430 C   0  0  0  0  0  1  0  0  0  0  0  0
  -27.0230  -30.3040   24.5950 C   0  0  0  0  0  1  0  0  0  0  0  0
  -27.5990  -32.4270   25.7440 C   0  0  0  0  0  1  0  0  0  0  0  0
  -25.5860  -33.8640   24.2290 N   0  0  0  0  0  0  0  0  0  0  0  0
  -25.9020  -34.9500   23.5120 C   0  0  0  0  0  0  0  0  0  0  0  0
  -26.5590  -34.8960   22.4690 O   0  0  0  0  0  0  0  0  0  0  0  0
  -25.0030  -33.9820   25.0450 H   0  0  0  0  0  0  0  0  0  0  0  0
  -24.1480  -36.7340   23.2630 C   0  0  0  0  0  1  0  0  0  0  0  0
  -25.4090  -36.3130   24.0330 C   0  0  0  0  0  3  0  0  0  0  0  0
  -27.5590  -37.1790   24.8450 C   0  0  0  0  0  1  0  0  0  0  0  0
  -26.4290  -37.3800   23.9420 N   0  0  0  0  0  0  0  0  0  0  0  0
  -26.0190  -38.2880   24.1430 H   0  0  0  0  0  0  0  0  0  0  0  0
  -30.4070  -22.3850   23.2270 C   0  0  0  0  0  2  0  0  0  0  0  0
  -31.7890  -21.8650   22.8020 C   0  0  0  0  0  2  0  0  0  0  0  0
  -31.6390  -20.7100   21.9950 O   0  0  0  0  0  0  0  0  0  0  0  0
  -32.8890  -20.1810   21.5640 C   0  0  0  0  0  2  0  0  0  0  0  0
  -32.6890  -18.6990   21.2610 C   0  0  0  0  0  2  0  0  0  0  0  0
  -32.3820  -18.0570   22.4970 O   0  0  0  0  0  0  0  0  0  0  0  0
  -32.0660  -16.6820   22.3690 C   0  0  0  0  0  2  0  0  0  0  0  0
  -30.6290  -16.5110   21.8410 C   0  0  0  0  0  2  0  0  0  0  0  0
  -30.7480  -14.3390   20.6770 C   0  0  0  0  0  0  0  0  0  0  0  0
  -30.4150  -12.2790   19.3860 C   0  0  0  0  0  2  0  0  0  0  0  0
  -29.4840  -12.5560   18.1930 C   0  0  0  0  0  2  0  0  0  0  0  0
  -28.0070  -12.4020   18.6010 C   0  0  0  0  0  2  0  0  0  0  0  0
  -27.6660  -13.2020   19.8860 C   0  0  0  0  0  3  0  0  0  0  0  0
  -28.7000  -12.9140   20.9960 C   0  0  0  0  0  2  0  0  0  0  0  0
  -30.0500  -13.1960   20.4710 N   0  0  0  0  0  0  0  0  0  0  0  0
  -31.7440  -14.6590   20.0240 O   0  0  0  0  0  0  0  0  0  0  0  0
  -30.2680  -15.1150   21.6480 N   0  0  0  0  0  0  0  0  0  0  0  0
  -29.4980  -14.7480   22.1890 H   0  0  0  0  0  0  0  0  0  0  0  0
  -25.2580  -13.8150   20.5680 C   0  0  0  0  0  0  0  0  0  0  0  0
  -24.1840  -13.0430   20.9190 C   0  0  0  0  0  0  0  0  0  0  0  0
  -24.6390  -11.6900   20.8720 C   0  0  0  0  0  0  0  0  0  0  0  0
  -26.3030  -12.9310   20.3380 N   0  0  0  0  0  0  0  0  0  0  0  0
  -25.9310  -11.6480   20.5720 N   0  0  0  0  0  0  0  0  0  0  0  0
  -23.9040  -10.4310   21.0380 C   0  0  0  0  0  0  0  0  0  0  0  0
  -24.3600   -9.4230   21.9160 C   0  0  0  0  0  3  0  0  0  0  0  0
  -23.6300   -8.2250   22.0730 C   0  0  0  0  0  3  0  0  0  0  0  0
  -22.4270   -8.0280   21.3540 C   0  0  0  0  0  0  0  0  0  0  0  0
  -21.9910   -9.0230   20.4620 C   0  0  0  0  0  3  0  0  0  0  0  0
  -22.7220  -10.2120   20.3020 C   0  0  0  0  0  3  0  0  0  0  0  0
  -21.6650   -6.8860   21.4240 O   0  0  0  0  0  0  0  0  0  0  0  0
  -21.6860   -6.0720   22.5290 C   0  0  0  0  0  0  0  0  0  0  0  0
  -21.4010   -6.5630   23.8220 C   0  0  0  0  0  3  0  0  0  0  0  0
  -21.3690   -5.6780   24.9190 C   0  0  0  0  0  3  0  0  0  0  0  0
  -21.6050   -4.3050   24.7240 C   0  0  0  0  0  0  0  0  0  0  0  0
  -21.8820   -3.8140   23.4360 C   0  0  0  0  0  3  0  0  0  0  0  0
  -21.9200   -4.6950   22.3420 C   0  0  0  0  0  0  0  0  0  0  0  0
  -22.1660   -4.2140   21.0990 F   0  0  0  0  0  0  0  0  0  0  0  0
  -21.5640   -3.4530   25.7760 F   0  0  0  0  0  0  0  0  0  0  0  0
  -22.7860  -13.5240   21.1880 C   0  0  0  0  0  0  0  0  0  0  0  0
  -22.0490  -12.8210   22.0410 N   0  0  0  0  0  0  0  0  0  0  0  0
  -22.3550  -14.5550   20.6730 O   0  0  0  0  0  0  0  0  0  0  0  0
  -22.4070  -11.9860   22.4820 H   0  0  0  0  0  0  0  0  0  0  0  0
  -21.1080  -13.1210   22.2540 H   0  0  0  0  0  0  0  0  0  0  0  0
  -25.4280  -15.1870   20.4080 N   0  0  0  0  0  0  0  0  0  0  0  0
  -24.6580  -15.8390   20.5140 H   0  0  0  0  0  0  0  0  0  0  0  0
  -26.2770  -15.6350   20.0870 H   0  0  0  0  0  0  0  0  0  0  0  0
  1  2  1  0
  2  4  1  0
  3  2  1  0
  5  2  1  0
  6  5  1  0
  7  6  1  0
  8 10  1  0
  8  7  1  0
  9 20  2  0
 10 15  1  0
 11 19  1  0
 11 21  1  0
 12 18  1  0
 12 14  1  0
 13 19  1  0
 14 15  2  0
 14 13  1  0
 16 10  2  0
 17 16  1  0
 17 12  2  0
 18 11  1  0
 19  9  1  0
 21 23  2  0
 22 21  1  0
 24 22  1  0
 25 34  2  0
 25 30  1  0
 26 22  1  0
 26 30  1  0
 27 26  1  0
 28 29  1  0
 28 27  1  0
 29 25  1  0
 30 31  2  0
 31 32  1  0
 33 32  2  0
 34 33  1  0
 35  9  1  0
 35 40  1  0
 35 36  1  0
 36 39  1  1
 36 37  1  0
 38 36  1  0
 40 43  1  0
 41 45  1  0
 41 40  1  0
 42 41  2  0
 45 44  1  0
 47 45  1  0
 47 48  1  0
 47 46  1  0
 49  1  1  0
 50 49  1  0
 51 50  1  0
 52 51  1  0
 53 52  1  0
 53 54  1  0
 55 54  1  0
 56 55  1  0
 57 65  1  0
 58 63  1  0
 59 60  1  0
 59 58  1  0
 61 60  1  0
 61 70  1  0
 61 62  1  0
 63 57  1  0
 63 62  1  0
 64 57  2  0
 65 56  1  0
 65 66  1  0
 67 68  2  0
 68 87  1  0
 69 68  1  0
 69 72  1  0
 70 67  1  0
 70 71  1  0
 71 69  2  0
 72 73  1  0
 73 74  2  0
 75 78  1  0
 75 74  1  0
 76 75  2  0
 77 76  1  0
 77 72  2  0
 78 79  1  0
 79 80  1  0
 80 81  2  0
 82 81  1  0
 82 86  1  0
 83 82  2  0
 84 79  2  0
 84 83  1  0
 85 84  1  0
 87 88  1  0
 88 91  1  0
 88 90  1  0
 89 87  2  0
 92 93  1  0
 92 67  1  0
 94 92  1  0
M  ISO  4   7 101   8 101  57 100  65 100
M  END
>  <TORSDO>  (23) 
F 28

>  <SCORE>  (23) 
-7.850

>  <name>  (23) 
22

>  <ligand_id>  (23) 
22

>  <original_smiles>  (23) 
[H]c1c([H])c([H])c2c(c1[H])C([H])([H])C([H])([H])C([H])([H])C2([H])N([H])C(=O)C1([H])N(C(=O)C([H])(N([H])C(=O)C([H])(N([H])C([H])([H])[H])C([H])([H])[H])C(C([H])([H])[H])(C([H])([H])[H])C([H])([H])[H])C([H])([H])c2c([H])c(OC([H])([H])C([H])([H])C([H])([H])[N+]([H])([H])C([H])([H])C([H])([H])C([H])([H])OC([H])([H])C([H])([H])OC([H])([H])C([H])([H])N([H])C(=O)N3C([H])([H])C([H])([H])C([H])([H])C([H])(n4nc(-c5c([H])c([H])c(Oc6c([H])c([H])c(F)c([H])c6F)c([H])c5[H])c(C(=O)N([H])[H])c4N([H])[H])C3([H])[H])c([H])c([H])c2C1([H])[H]

>  <smiles>  (23) 
[H]c1c([H])c([H])c2c(c1[H])C([H])([H])C([H])([H])C([H])([H])C2([H])N([H])C(=O)C1([H])N(C(=O)C([H])(N([H])C(=O)C([H])(N([H])C([H])([H])[H])C([H])([H])[H])C(C([H])([H])[H])(C([H])([H])[H])C([H])([H])[H])C([H])([H])c2c([H])c(OC([H])([H])C([H])([H])C([H])([H])[N+]([H])([H])C([H])([H])C([H])([H])C([H])([H])OC([H])([H])C([H])([H])OC([H])([H])C([H])([H])N([H])C(=O)N3C([H])([H])C([H])([H])C([H])([H])C([H])(n4nc(-c5c([H])c([H])c(Oc6c([H])c([H])c(F)c([H])c6F)c([H])c5[H])c(C(=O)N([H])[H])c4N([H])[H])C3([H])[H])c([H])c([H])c2C1([H])[H]

$$$$
23:0:0
     RDKit          3D

102109  0  0  1  0  0  0  0  0999 V2000
  -28.4570  -18.4900   18.0980 C   0  0  0  0  0  2  0  0  0  0  0  0
  -29.5350  -17.0570   19.7880 C   0  0  0  0  0  0  0  0  0  0  0  0
  -29.6150  -18.0170   18.8550 N   0  0  0  0  0  0  0  0  0  0  0  0
  -28.4510  -16.5740   20.1250 O   0  0  0  0  0  0  0  0  0  0  0  0
  -30.5180  -18.3910   18.6000 H   0  0  0  0  0  0  0  0  0  0  0  0
  -30.8480  -16.4850   20.3730 C   0  0  0  0  0  3  0  0  0  0  0  0
  -31.1030  -14.0750   19.8670 C   0  0  0  0  0  0  0  0  0  0  0  0
  -30.5690  -11.9610   18.7440 C   0  0  0  0  0  2  0  0  0  0  0  0
  -29.5820  -12.2420   17.5950 C   0  0  0  0  0  2  0  0  0  0  0  0
  -28.1240  -12.2100   18.1010 C   0  0  0  0  0  2  0  0  0  0  0  0
  -27.9180  -13.0600   19.3840 C   0  0  0  0  0  3  0  0  0  0  0  0
  -29.0180  -12.7640   20.4320 C   0  0  0  0  0  2  0  0  0  0  0  0
  -30.3340  -12.9590   19.7930 N   0  0  0  0  0  0  0  0  0  0  0  0
  -32.1480  -14.2360   19.2380 O   0  0  0  0  0  0  0  0  0  0  0  0
  -30.5890  -15.0620   20.6010 N   0  0  0  0  0  0  0  0  0  0  0  0
  -29.7020  -14.8550   21.0390 H   0  0  0  0  0  0  0  0  0  0  0  0
  -25.6080  -13.8300   20.2230 C   0  0  0  0  0  0  0  0  0  0  0  0
  -24.5100  -13.1300   20.6480 C   0  0  0  0  0  0  0  0  0  0  0  0
  -24.8800  -11.7510   20.6040 C   0  0  0  0  0  0  0  0  0  0  0  0
  -26.5780  -12.8810   19.9400 N   0  0  0  0  0  0  0  0  0  0  0  0
  -26.1450  -11.6260   20.2240 N   0  0  0  0  0  0  0  0  0  0  0  0
  -24.0870  -10.5390   20.8500 C   0  0  0  0  0  0  0  0  0  0  0  0
  -24.5030   -9.5600   21.7790 C   0  0  0  0  0  3  0  0  0  0  0  0
  -23.7130   -8.4110   22.0120 C   0  0  0  0  0  3  0  0  0  0  0  0
  -22.4950   -8.2360   21.3130 C   0  0  0  0  0  0  0  0  0  0  0  0
  -22.0980   -9.2040   20.3730 C   0  0  0  0  0  3  0  0  0  0  0  0
  -22.8860  -10.3420   20.1400 C   0  0  0  0  0  3  0  0  0  0  0  0
  -21.6760   -7.1410   21.4520 O   0  0  0  0  0  0  0  0  0  0  0  0
  -21.6230   -6.4260   22.6230 C   0  0  0  0  0  0  0  0  0  0  0  0
  -21.2810   -7.0320   23.8510 C   0  0  0  0  0  3  0  0  0  0  0  0
  -21.1710   -6.2480   25.0160 C   0  0  0  0  0  3  0  0  0  0  0  0
  -21.3910   -4.8590   24.9540 C   0  0  0  0  0  0  0  0  0  0  0  0
  -21.7270   -4.2520   23.7310 C   0  0  0  0  0  3  0  0  0  0  0  0
  -21.8400   -5.0340   22.5670 C   0  0  0  0  0  0  0  0  0  0  0  0
  -22.1410   -4.4430   21.3850 F   0  0  0  0  0  0  0  0  0  0  0  0
  -21.2770   -4.1020   26.0700 F   0  0  0  0  0  0  0  0  0  0  0  0
  -23.1660  -13.7010   20.9950 C   0  0  0  0  0  0  0  0  0  0  0  0
  -22.4480  -13.0670   21.9170 N   0  0  0  0  0  0  0  0  0  0  0  0
  -22.7600  -14.7440   20.4830 O   0  0  0  0  0  0  0  0  0  0  0  0
  -22.7830  -12.2220   22.3550 H   0  0  0  0  0  0  0  0  0  0  0  0
  -21.5490  -13.4380   22.1870 H   0  0  0  0  0  0  0  0  0  0  0  0
  -25.8570  -15.1870   20.0400 N   0  0  0  0  0  0  0  0  0  0  0  0
  -25.1610  -15.8990   20.2330 H   0  0  0  0  0  0  0  0  0  0  0  0
  -26.7750  -15.5850   19.8320 H   0  0  0  0  0  0  0  0  0  0  0  0
  -31.7490  -18.5950   21.5320 C   0  0  0  0  0  1  0  0  0  0  0  0
  -30.2130  -17.0730   22.8140 C   0  0  0  0  0  1  0  0  0  0  0  0
  -31.3160  -17.1230   21.7250 C   0  0  1  0  0  0  0  0  0  0  0  0
  -32.4840  -16.3530   22.2120 N   0  0  0  0  0  4  0  0  0  0  0  0
  -32.8420  -16.7290   23.0720 H   0  0  0  0  0  0  0  0  0  0  0  0
  -33.2290  -16.3640   21.5370 H   0  0  0  0  0  0  0  0  0  0  0  0
  -32.2350  -15.3930   22.3680 H   0  0  0  0  0  0  0  0  0  0  0  0
  -28.8400  -19.5470   17.0510 C   0  0  0  0  0  2  0  0  0  0  0  0
  -29.0770  -20.7960   17.6890 O   0  0  0  0  0  0  0  0  0  0  0  0
  -28.3210  -21.8630   17.1230 C   0  0  0  0  0  2  0  0  0  0  0  0
  -28.5350  -23.1470   17.9320 C   0  0  0  0  0  2  0  0  0  0  0  0
  -29.7320  -23.7960   17.5120 O   0  0  0  0  0  0  0  0  0  0  0  0
  -29.9320  -25.0630   18.1360 C   0  0  0  0  0  2  0  0  0  0  0  0
  -30.8200  -24.9290   19.3840 C   0  0  0  0  0  2  0  0  0  0  0  0
  -30.2210  -24.0980   20.3740 O   0  0  0  0  0  0  0  0  0  0  0  0
  -29.6160  -24.7820   21.4660 C   0  0  0  0  0  2  0  0  0  0  0  0
  -28.2710  -25.4310   21.1080 C   0  0  0  0  0  2  0  0  0  0  0  0
  -28.4580  -26.7120   20.4980 O   0  0  0  0  0  0  0  0  0  0  0  0
  -24.5720  -31.9450   23.2690 C   0  0  0  0  0  0  0  0  0  0  0  0
  -27.2970  -27.4390   20.4030 C   0  0  0  0  0  0  0  0  0  0  0  0
  -23.4070  -30.4900   21.6410 C   0  0  0  0  0  3  0  0  0  0  0  0
  -24.8980  -28.9170   20.2990 C   0  0  0  0  0  0  0  0  0  0  0  0
  -25.9330  -30.8600   21.4900 C   0  0  0  0  0  2  0  0  0  0  0  0
  -26.0380  -29.4710   20.8970 C   0  0  0  0  0  0  0  0  0  0  0  0
  -27.2420  -28.7380   20.9450 C   0  0  0  0  0  3  0  0  0  0  0  0
  -26.1490  -26.8950   19.7900 C   0  0  0  0  0  3  0  0  0  0  0  0
  -24.9480  -27.6280   19.7400 C   0  0  0  0  0  3  0  0  0  0  0  0
  -23.6500  -29.7670   20.2890 C   0  0  0  0  0  2  0  0  0  0  0  0
  -24.6540  -31.1150   22.1920 N   0  0  0  0  0  0  0  0  0  0  0  0
  -23.4780  -32.2300   23.7760 O   0  0  0  0  0  0  0  0  0  0  0  0
  -22.7380  -29.4980   22.6180 C   0  0  0  0  0  0  0  0  0  0  0  0
  -21.4160  -29.3120   22.4710 N   0  0  0  0  0  0  0  0  0  0  0  0
  -23.4040  -28.8920   23.4630 O   0  0  0  0  0  0  0  0  0  0  0  0
  -20.9400  -29.8510   21.7600 H   0  0  0  0  0  0  0  0  0  0  0  0
  -18.0290  -28.1440   22.9280 C   0  0  0  0  0  0  0  0  0  0  0  0
  -20.5810  -28.3990   23.2500 C   0  0  0  0  0  3  0  0  0  0  0  0
  -20.6910  -26.9530   22.7140 C   0  0  0  0  0  2  0  0  0  0  0  0
  -19.6090  -26.6060   21.6870 C   0  0  0  0  0  2  0  0  0  0  0  0
  -18.2140  -26.7740   22.2960 C   0  0  0  0  0  2  0  0  0  0  0  0
  -19.1410  -28.9130   23.3620 C   0  0  0  0  0  0  0  0  0  0  0  0
  -18.9140  -30.1930   23.9120 C   0  0  0  0  0  3  0  0  0  0  0  0
  -17.6090  -30.7040   24.0360 C   0  0  0  0  0  3  0  0  0  0  0  0
  -16.5110  -29.9310   23.6190 C   0  0  0  0  0  3  0  0  0  0  0  0
  -16.7210  -28.6530   23.0710 C   0  0  0  0  0  3  0  0  0  0  0  0
  -25.8440  -32.5960   23.9000 C   0  0  0  0  0  3  0  0  0  0  0  0
  -25.5180  -33.9950   24.2040 N   0  0  0  0  0  0  0  0  0  0  0  0
  -25.8520  -35.0370   23.4310 C   0  0  0  0  0  0  0  0  0  0  0  0
  -26.5380  -34.9230   22.4120 O   0  0  0  0  0  0  0  0  0  0  0  0
  -24.9110  -34.1560   24.9930 H   0  0  0  0  0  0  0  0  0  0  0  0
  -24.1110  -36.8060   23.0230 C   0  0  0  0  0  1  0  0  0  0  0  0
  -25.3440  -36.4280   23.8590 C   0  0  0  0  0  3  0  0  0  0  0  0
  -27.4590  -37.3470   24.7020 C   0  0  0  0  0  1  0  0  0  0  0  0
  -26.3680  -37.4890   23.7430 N   0  0  0  0  0  0  0  0  0  0  0  0
  -25.9500  -38.4070   23.8700 H   0  0  0  0  0  0  0  0  0  0  0  0
  -26.3520  -31.8460   25.1920 C   0  0  1  0  0  0  0  0  0  0  0  0
  -25.2460  -31.6130   26.2480 C   0  0  0  0  0  1  0  0  0  0  0  0
  -26.9530  -30.4690   24.8240 C   0  0  0  0  0  1  0  0  0  0  0  0
  -27.4860  -32.6600   25.8580 C   0  0  0  0  0  1  0  0  0  0  0  0
  1  3  1  0
  2  4  2  0
  3  2  1  0
  5  3  1  0
  6  2  1  0
  6 15  1  0
  6 47  1  0
  7 15  1  0
  8 13  1  0
  9 10  1  0
  9  8  1  0
 11 10  1  0
 11 20  1  0
 11 12  1  0
 13  7  1  0
 13 12  1  0
 14  7  2  0
 15 16  1  0
 17 18  2  0
 18 37  1  0
 19 18  1  0
 19 22  1  0
 20 17  1  0
 20 21  1  0
 21 19  2  0
 22 23  1  0
 23 24  2  0
 25 28  1  0
 25 24  1  0
 26 25  2  0
 27 26  1  0
 27 22  2  0
 28 29  1  0
 29 30  1  0
 30 31  2  0
 32 31  1  0
 32 36  1  0
 33 32  2  0
 34 29  2  0
 34 33  1  0
 35 34  1  0
 37 38  1  0
 38 41  1  0
 38 40  1  0
 39 37  2  0
 42 17  1  0
 42 43  1  0
 44 42  1  0
 47 45  1  6
 47 48  1  0
 47 46  1  0
 48 51  1  0
 48 49  1  0
 50 48  1  0
 52 53  1  0
 52  1  1  0
 54 53  1  0
 54 55  1  0
 56 55  1  0
 56 57  1  0
 57 58  1  0
 58 59  1  0
 59 60  1  0
 61 60  1  0
 62 61  1  0
 63 74  2  0
 64 62  1  0
 64 69  1  0
 65 73  1  0
 65 75  1  0
 66 68  1  0
 67 73  1  0
 68 69  2  0
 68 67  1  0
 70 64  2  0
 71 70  1  0
 71 66  2  0
 72 66  1  0
 72 65  1  0
 73 63  1  0
 75 77  2  0
 76 75  1  0
 78 76  1  0
 79 88  2  0
 79 84  1  0
 80 76  1  0
 80 84  1  0
 81 80  1  0
 82 83  1  0
 82 81  1  0
 83 79  1  0
 84 85  2  0
 85 86  1  0
 87 86  2  0
 88 87  1  0
 89 63  1  0
 89 90  1  0
 89 99  1  0
 90 93  1  0
 91 95  1  0
 91 90  1  0
 92 91  2  0
 95 94  1  0
 97 95  1  0
 97 98  1  0
 97 96  1  0
 99102  1  1
 99100  1  0
101 99  1  0
M  ISO  4   7 100  15 100  61 101  62 101
M  END
>  <TORSDO>  (24) 
F 30

>  <SCORE>  (24) 
-8.769

>  <name>  (24) 
23

>  <ligand_id>  (24) 
23

>  <original_smiles>  (24) 
[H]c1c([H])c([H])c2c(c1[H])C([H])([H])C([H])([H])C([H])([H])C2([H])N([H])C(=O)C1([H])N(C(=O)C([H])(N([H])C(=O)C([H])(N([H])C([H])([H])[H])C([H])([H])[H])C(C([H])([H])[H])(C([H])([H])[H])C([H])([H])[H])C([H])([H])c2c([H])c(OC([H])([H])C([H])([H])OC([H])([H])C([H])([H])OC([H])([H])C([H])([H])OC([H])([H])C([H])([H])N([H])C(=O)C([H])(N([H])C(=O)N3C([H])([H])C([H])([H])C([H])([H])C([H])(n4nc(-c5c([H])c([H])c(Oc6c([H])c([H])c(F)c([H])c6F)c([H])c5[H])c(C(=O)N([H])[H])c4N([H])[H])C3([H])[H])C(C([H])([H])[H])(C([H])([H])[H])[N+]([H])([H])[H])c([H])c([H])c2C1([H])[H]

>  <smiles>  (24) 
[H]c1c([H])c([H])c2c(c1[H])C([H])([H])C([H])([H])C([H])([H])C2([H])N([H])C(=O)C1([H])N(C(=O)C([H])(N([H])C(=O)C([H])(N([H])C([H])([H])[H])C([H])([H])[H])C(C([H])([H])[H])(C([H])([H])[H])C([H])([H])[H])C([H])([H])c2c([H])c(OC([H])([H])C([H])([H])OC([H])([H])C([H])([H])OC([H])([H])C([H])([H])OC([H])([H])C([H])([H])N([H])C(=O)C([H])(N([H])C(=O)N3C([H])([H])C([H])([H])C([H])([H])C([H])(n4nc(-c5c([H])c([H])c(Oc6c([H])c([H])c(F)c([H])c6F)c([H])c5[H])c(C(=O)N([H])[H])c4N([H])[H])C3([H])[H])C(C([H])([H])[H])(C([H])([H])[H])[N+]([H])([H])[H])c([H])c([H])c2C1([H])[H]

$$$$
24:0:0
     RDKit          3D

 99106  0  0  1  0  0  0  0  0999 V2000
  -28.4740  -20.7780   17.8700 O   0  0  0  0  0  0  0  0  0  0  0  0
  -27.9080  -21.8110   17.0700 C   0  0  0  0  0  2  0  0  0  0  0  0
  -28.1660  -23.1830   17.7050 C   0  0  0  0  0  2  0  0  0  0  0  0
  -29.4450  -23.6770   17.3260 O   0  0  0  0  0  0  0  0  0  0  0  0
  -29.7110  -24.9780   17.8440 C   0  0  0  0  0  2  0  0  0  0  0  0
  -30.7330  -24.8980   18.9880 C   0  0  0  0  0  2  0  0  0  0  0  0
  -30.2310  -24.1420   20.0860 O   0  0  0  0  0  0  0  0  0  0  0  0
  -29.7820  -24.9050   21.2020 C   0  0  0  0  0  2  0  0  0  0  0  0
  -28.3900  -25.5180   20.9900 C   0  0  0  0  0  2  0  0  0  0  0  0
  -28.4920  -26.7660   20.3100 O   0  0  0  0  0  0  0  0  0  0  0  0
  -24.5960  -31.9000   23.2590 C   0  0  0  0  0  0  0  0  0  0  0  0
  -27.3150  -27.4670   20.2730 C   0  0  0  0  0  0  0  0  0  0  0  0
  -23.4180  -30.4660   21.6210 C   0  0  0  0  0  3  0  0  0  0  0  0
  -24.9010  -28.9220   20.2360 C   0  0  0  0  0  0  0  0  0  0  0  0
  -25.9390  -30.8540   21.4420 C   0  0  0  0  0  2  0  0  0  0  0  0
  -26.0440  -29.4770   20.8250 C   0  0  0  0  0  0  0  0  0  0  0  0
  -27.2560  -28.7570   20.8380 C   0  0  0  0  0  3  0  0  0  0  0  0
  -26.1590  -26.9160   19.6800 C   0  0  0  0  0  3  0  0  0  0  0  0
  -24.9500  -27.6400   19.6600 C   0  0  0  0  0  3  0  0  0  0  0  0
  -23.6480  -29.7660   20.2540 C   0  0  0  0  0  2  0  0  0  0  0  0
  -24.6690  -31.0890   22.1670 N   0  0  0  0  0  0  0  0  0  0  0  0
  -23.5070  -32.1700   23.7850 O   0  0  0  0  0  0  0  0  0  0  0  0
  -22.7650  -29.4530   22.5890 C   0  0  0  0  0  0  0  0  0  0  0  0
  -21.4430  -29.2630   22.4510 N   0  0  0  0  0  0  0  0  0  0  0  0
  -23.4450  -28.8410   23.4160 O   0  0  0  0  0  0  0  0  0  0  0  0
  -20.9570  -29.8110   21.7540 H   0  0  0  0  0  0  0  0  0  0  0  0
  -18.0670  -28.0770   22.9360 C   0  0  0  0  0  0  0  0  0  0  0  0
  -20.6230  -28.3330   23.2240 C   0  0  0  0  0  3  0  0  0  0  0  0
  -20.7270  -26.8970   22.6570 C   0  0  0  0  0  2  0  0  0  0  0  0
  -19.6310  -26.5700   21.6380 C   0  0  0  0  0  2  0  0  0  0  0  0
  -18.2460  -26.7210   22.2730 C   0  0  0  0  0  2  0  0  0  0  0  0
  -19.1840  -28.8390   23.3680 C   0  0  0  0  0  0  0  0  0  0  0  0
  -18.9630  -30.1080   23.9470 C   0  0  0  0  0  3  0  0  0  0  0  0
  -17.6580  -30.6130   24.1000 C   0  0  0  0  0  3  0  0  0  0  0  0
  -16.5550  -29.8470   23.6840 C   0  0  0  0  0  3  0  0  0  0  0  0
  -16.7610  -28.5810   23.1080 C   0  0  0  0  0  3  0  0  0  0  0  0
  -25.8720  -32.5450   23.8860 C   0  0  0  0  0  3  0  0  0  0  0  0
  -25.5490  -33.9430   24.2020 N   0  0  0  0  0  0  0  0  0  0  0  0
  -25.8910  -34.9920   23.4400 C   0  0  0  0  0  0  0  0  0  0  0  0
  -26.5800  -34.8850   22.4230 O   0  0  0  0  0  0  0  0  0  0  0  0
  -24.9390  -34.0990   24.9900 H   0  0  0  0  0  0  0  0  0  0  0  0
  -24.1640  -36.7730   23.0330 C   0  0  0  0  0  1  0  0  0  0  0  0
  -25.3840  -36.3800   23.8780 C   0  0  0  0  0  3  0  0  0  0  0  0
  -27.4950  -37.2760   24.7570 C   0  0  0  0  0  1  0  0  0  0  0  0
  -26.4160  -37.4370   23.7870 N   0  0  0  0  0  0  0  0  0  0  0  0
  -26.0010  -38.3550   23.9210 H   0  0  0  0  0  0  0  0  0  0  0  0
  -26.3880  -31.7870   25.1700 C   0  0  1  0  0  0  0  0  0  0  0  0
  -25.2900  -31.5420   26.2300 C   0  0  0  0  0  1  0  0  0  0  0  0
  -26.9900  -30.4140   24.7860 C   0  0  0  0  0  1  0  0  0  0  0  0
  -27.5260  -32.5960   25.8360 C   0  0  0  0  0  1  0  0  0  0  0  0
  -28.2570  -19.4790   17.3290 C   0  0  0  0  0  2  0  0  0  0  0  0
  -27.9310  -18.5040   18.4680 C   0  0  0  0  0  2  0  0  0  0  0  0
  -29.7700  -16.9820   19.1590 C   0  0  0  0  0  0  0  0  0  0  0  0
  -29.1110  -18.1410   19.2530 N   0  0  0  0  0  0  0  0  0  0  0  0
  -29.4880  -16.1850   18.2620 O   0  0  0  0  0  0  0  0  0  0  0  0
  -29.4020  -18.7870   19.9760 H   0  0  0  0  0  0  0  0  0  0  0  0
  -30.8960  -16.6330   20.1840 C   0  0  0  0  0  3  0  0  0  0  0  0
  -31.3400  -14.1780   19.9900 C   0  0  0  0  0  0  0  0  0  0  0  0
  -30.8860  -11.9790   18.9920 C   0  0  0  0  0  2  0  0  0  0  0  0
  -29.9280  -12.1800   17.7990 C   0  0  0  0  0  2  0  0  0  0  0  0
  -28.4570  -12.1770   18.2630 C   0  0  0  0  0  2  0  0  0  0  0  0
  -28.2110  -13.1120   19.4770 C   0  0  0  0  0  3  0  0  0  0  0  0
  -29.2710  -12.8660   20.5750 C   0  0  0  0  0  2  0  0  0  0  0  0
  -30.6070  -13.0360   19.9720 N   0  0  0  0  0  0  0  0  0  0  0  0
  -32.4330  -14.3040   19.4300 O   0  0  0  0  0  0  0  0  0  0  0  0
  -30.7030  -15.2210   20.5330 N   0  0  0  0  0  0  0  0  0  0  0  0
  -29.8200  -15.0040   20.9630 H   0  0  0  0  0  0  0  0  0  0  0  0
  -25.9150  -13.9570   20.2820 C   0  0  0  0  0  0  0  0  0  0  0  0
  -24.7830  -13.2930   20.6720 C   0  0  0  0  0  0  0  0  0  0  0  0
  -25.0950  -11.9020   20.5890 C   0  0  0  0  0  0  0  0  0  0  0  0
  -26.8520  -12.9750   19.9930 N   0  0  0  0  0  0  0  0  0  0  0  0
  -26.3610  -11.7340   20.2320 N   0  0  0  0  0  0  0  0  0  0  0  0
  -24.2470  -10.7170   20.7760 C   0  0  0  0  0  0  0  0  0  0  0  0
  -24.5970   -9.6960   21.6860 C   0  0  0  0  0  3  0  0  0  0  0  0
  -23.7570   -8.5740   21.8610 C   0  0  0  0  0  3  0  0  0  0  0  0
  -22.5520   -8.4680   21.1250 C   0  0  0  0  0  0  0  0  0  0  0  0
  -22.2210   -9.4770   20.2030 C   0  0  0  0  0  3  0  0  0  0  0  0
  -23.0610  -10.5900   20.0270 C   0  0  0  0  0  3  0  0  0  0  0  0
  -21.6880   -7.4040   21.2090 O   0  0  0  0  0  0  0  0  0  0  0  0
  -21.5720   -6.6610   22.3560 C   0  0  0  0  0  0  0  0  0  0  0  0
  -21.2180   -7.2470   23.5910 C   0  0  0  0  0  3  0  0  0  0  0  0
  -21.0420   -6.4360   24.7310 C   0  0  0  0  0  3  0  0  0  0  0  0
  -21.2110   -5.0410   24.6360 C   0  0  0  0  0  0  0  0  0  0  0  0
  -21.5580   -4.4560   23.4060 C   0  0  0  0  0  3  0  0  0  0  0  0
  -21.7360   -5.2640   22.2690 C   0  0  0  0  0  0  0  0  0  0  0  0
  -22.0500   -4.6920   21.0810 F   0  0  0  0  0  0  0  0  0  0  0  0
  -21.0340   -4.2620   25.7280 F   0  0  0  0  0  0  0  0  0  0  0  0
  -23.4540  -13.9070   21.0090 C   0  0  0  0  0  0  0  0  0  0  0  0
  -22.7020  -13.2850   21.9100 N   0  0  0  0  0  0  0  0  0  0  0  0
  -23.0950  -14.9720   20.5070 O   0  0  0  0  0  0  0  0  0  0  0  0
  -23.0030  -12.4230   22.3380 H   0  0  0  0  0  0  0  0  0  0  0  0
  -21.8110  -13.6800   22.1770 H   0  0  0  0  0  0  0  0  0  0  0  0
  -26.2210  -15.3070   20.1310 N   0  0  0  0  0  0  0  0  0  0  0  0
  -25.5320  -16.0360   20.2810 H   0  0  0  0  0  0  0  0  0  0  0  0
  -27.0940  -15.6550   19.7550 H   0  0  0  0  0  0  0  0  0  0  0  0
  -31.4050  -18.9080   21.3380 C   0  0  0  0  0  1  0  0  0  0  0  0
  -31.9360  -16.7990   22.4980 C   0  0  0  0  0  1  0  0  0  0  0  0
  -29.5400  -17.4740   22.2450 C   0  0  0  0  0  1  0  0  0  0  0  0
  -30.9140  -17.4520   21.5340 C   0  0  2  0  0  0  0  0  0  0  0  0
  2  3  1  0
  2  1  1  0
  4  3  1  0
  4  5  1  0
  5  6  1  0
  6  7  1  0
  7  8  1  0
  9  8  1  0
 10  9  1  0
 11 22  2  0
 12 10  1  0
 12 17  1  0
 13 21  1  0
 13 23  1  0
 14 20  1  0
 14 16  1  0
 15 21  1  0
 16 17  2  0
 16 15  1  0
 18 12  2  0
 19 18  1  0
 19 14  2  0
 20 13  1  0
 21 11  1  0
 23 25  2  0
 24 23  1  0
 26 24  1  0
 27 36  2  0
 27 32  1  0
 28 24  1  0
 28 32  1  0
 29 28  1  0
 30 31  1  0
 30 29  1  0
 31 27  1  0
 32 33  2  0
 33 34  1  0
 35 34  2  0
 36 35  1  0
 37 11  1  0
 37 38  1  0
 37 47  1  0
 38 41  1  0
 39 43  1  0
 39 38  1  0
 40 39  2  0
 43 42  1  0
 45 43  1  0
 45 46  1  0
 45 44  1  0
 47 50  1  1
 47 48  1  0
 49 47  1  0
 51  1  1  0
 51 52  1  0
 52 54  1  0
 53 54  1  0
 54 56  1  0
 55 53  2  0
 57 53  1  0
 57 66  1  0
 57 99  1  0
 58 66  1  0
 59 64  1  0
 60 61  1  0
 60 59  1  0
 62 61  1  0
 62 71  1  0
 62 63  1  0
 64 58  1  0
 64 63  1  0
 65 58  2  0
 66 67  1  0
 68 69  2  0
 69 88  1  0
 70 69  1  0
 70 73  1  0
 71 72  1  0
 71 68  1  0
 72 70  2  0
 73 74  1  0
 74 75  2  0
 76 79  1  0
 76 75  1  0
 77 76  2  0
 78 77  1  0
 78 73  2  0
 79 80  1  0
 80 81  1  0
 81 82  2  0
 83 82  1  0
 83 87  1  0
 84 83  2  0
 85 80  2  0
 85 84  1  0
 86 85  1  0
 88 89  1  0
 89 92  1  0
 89 91  1  0
 90 88  2  0
 93 94  1  0
 93 68  1  0
 95 93  1  0
 99 96  1  6
 99 98  1  0
 99 97  1  0
M  ISO  4   9 101  10 101  58 100  66 100
M  END
>  <TORSDO>  (25) 
F 29

>  <SCORE>  (25) 
-8.447

>  <name>  (25) 
24

>  <ligand_id>  (25) 
24

>  <original_smiles>  (25) 
[H]c1c([H])c([H])c2c(c1[H])C([H])([H])C([H])([H])C([H])([H])C2([H])N([H])C(=O)C1([H])N(C(=O)C([H])(N([H])C(=O)C([H])(N([H])C([H])([H])[H])C([H])([H])[H])C(C([H])([H])[H])(C([H])([H])[H])C([H])([H])[H])C([H])([H])c2c([H])c(OC([H])([H])C([H])([H])OC([H])([H])C([H])([H])OC([H])([H])C([H])([H])OC([H])([H])C([H])([H])N([H])C(=O)C([H])(N([H])C(=O)N3C([H])([H])C([H])([H])C([H])([H])C([H])(n4nc(-c5c([H])c([H])c(Oc6c([H])c([H])c(F)c([H])c6F)c([H])c5[H])c(C(=O)N([H])[H])c4N([H])[H])C3([H])[H])C(C([H])([H])[H])(C([H])([H])[H])C([H])([H])[H])c([H])c([H])c2C1([H])[H]

>  <smiles>  (25) 
[H]c1c([H])c([H])c2c(c1[H])C([H])([H])C([H])([H])C([H])([H])C2([H])N([H])C(=O)C1([H])N(C(=O)C([H])(N([H])C(=O)C([H])(N([H])C([H])([H])[H])C([H])([H])[H])C(C([H])([H])[H])(C([H])([H])[H])C([H])([H])[H])C([H])([H])c2c([H])c(OC([H])([H])C([H])([H])OC([H])([H])C([H])([H])OC([H])([H])C([H])([H])OC([H])([H])C([H])([H])N([H])C(=O)C([H])(N([H])C(=O)N3C([H])([H])C([H])([H])C([H])([H])C([H])(n4nc(-c5c([H])c([H])c(Oc6c([H])c([H])c(F)c([H])c6F)c([H])c5[H])c(C(=O)N([H])[H])c4N([H])[H])C3([H])[H])C(C([H])([H])[H])(C([H])([H])[H])C([H])([H])[H])c([H])c([H])c2C1([H])[H]

$$$$
25:0:0
     RDKit          3D

 98105  0  0  1  0  0  0  0  0999 V2000
  -24.6490  -20.7750   20.2410 C   0  0  0  0  0  2  0  0  0  0  0  0
  -24.9370  -22.1970   20.5430 N   0  0  0  0  0  4  0  0  0  0  0  0
  -24.9770  -22.6950   19.6650 H   0  0  0  0  0  0  0  0  0  0  0  0
  -24.1700  -22.5810   21.0730 H   0  0  0  0  0  0  0  0  0  0  0  0
  -26.2030  -22.4250   21.2730 C   0  0  0  0  0  2  0  0  0  0  0  0
  -27.4450  -22.1580   20.3910 C   0  0  0  0  0  2  0  0  0  0  0  0
  -28.5560  -21.3870   21.1230 C   0  0  0  0  0  2  0  0  0  0  0  0
  -29.8150  -21.1630   20.2620 C   0  0  0  0  0  2  0  0  0  0  0  0
  -29.5510  -20.3900   19.0930 O   0  0  0  0  0  0  0  0  0  0  0  0
  -29.1980  -19.0270   19.3070 C   0  0  0  0  0  2  0  0  0  0  0  0
  -30.2860  -18.2560   20.0700 C   0  0  0  0  0  2  0  0  0  0  0  0
  -30.0850  -16.7370   19.9770 C   0  0  0  0  0  2  0  0  0  0  0  0
  -31.5150  -14.8970   20.5740 C   0  0  0  0  0  0  0  0  0  0  0  0
  -31.4320  -12.4360   20.5750 C   0  0  0  0  0  2  0  0  0  0  0  0
  -30.6870  -11.8930   19.3450 C   0  0  0  0  0  2  0  0  0  0  0  0
  -29.1750  -11.8160   19.6140 C   0  0  0  0  0  2  0  0  0  0  0  0
  -28.6070  -13.1370   20.1950 C   0  0  0  0  0  3  0  0  0  0  0  0
  -29.4730  -13.6450   21.3690 C   0  0  0  0  0  2  0  0  0  0  0  0
  -30.8700  -13.7520   20.9080 N   0  0  0  0  0  0  0  0  0  0  0  0
  -32.6200  -14.9310   20.0280 O   0  0  0  0  0  0  0  0  0  0  0  0
  -30.9200  -16.0330   20.9450 N   0  0  0  0  0  0  0  0  0  0  0  0
  -31.5800  -16.6680   21.3690 H   0  0  0  0  0  0  0  0  0  0  0  0
  -26.2420  -13.9650   20.7940 C   0  0  0  0  0  0  0  0  0  0  0  0
  -25.0810  -13.2930   21.0640 C   0  0  0  0  0  0  0  0  0  0  0  0
  -25.4020  -11.9030   20.9900 C   0  0  0  0  0  0  0  0  0  0  0  0
  -27.2050  -12.9910   20.5810 N   0  0  0  0  0  0  0  0  0  0  0  0
  -26.6970  -11.7420   20.7520 N   0  0  0  0  0  0  0  0  0  0  0  0
  -24.5400  -10.7180   21.0750 C   0  0  0  0  0  0  0  0  0  0  0  0
  -24.8130   -9.6730   21.9850 C   0  0  0  0  0  3  0  0  0  0  0  0
  -23.9630   -8.5480   22.0600 C   0  0  0  0  0  3  0  0  0  0  0  0
  -22.8240   -8.4630   21.2250 C   0  0  0  0  0  0  0  0  0  0  0  0
  -22.5700   -9.4960   20.3050 C   0  0  0  0  0  3  0  0  0  0  0  0
  -23.4190  -10.6120   20.2280 C   0  0  0  0  0  3  0  0  0  0  0  0
  -21.9560   -7.3980   21.2100 O   0  0  0  0  0  0  0  0  0  0  0  0
  -21.7030   -6.6590   22.3390 C   0  0  0  0  0  0  0  0  0  0  0  0
  -21.2340   -7.2550   23.5290 C   0  0  0  0  0  3  0  0  0  0  0  0
  -20.9210   -6.4500   24.6430 C   0  0  0  0  0  3  0  0  0  0  0  0
  -21.0690   -5.0520   24.5660 C   0  0  0  0  0  0  0  0  0  0  0  0
  -21.5310   -4.4570   23.3790 C   0  0  0  0  0  3  0  0  0  0  0  0
  -21.8440   -5.2590   22.2680 C   0  0  0  0  0  0  0  0  0  0  0  0
  -22.2680   -4.6790   21.1190 F   0  0  0  0  0  0  0  0  0  0  0  0
  -20.7610   -4.2760   25.6320 F   0  0  0  0  0  0  0  0  0  0  0  0
  -23.7250  -13.8990   21.2850 C   0  0  0  0  0  0  0  0  0  0  0  0
  -22.8800  -13.2420   22.0720 N   0  0  0  0  0  0  0  0  0  0  0  0
  -23.4250  -14.9880   20.7970 O   0  0  0  0  0  0  0  0  0  0  0  0
  -23.1330  -12.3580   22.4900 H   0  0  0  0  0  0  0  0  0  0  0  0
  -21.9660  -13.6270   22.2620 H   0  0  0  0  0  0  0  0  0  0  0  0
  -26.5580  -15.3170   20.6950 N   0  0  0  0  0  0  0  0  0  0  0  0
  -25.8550  -16.0420   20.7830 H   0  0  0  0  0  0  0  0  0  0  0  0
  -27.4640  -15.6710   20.4210 H   0  0  0  0  0  0  0  0  0  0  0  0
  -24.7380  -20.5200   18.7360 C   0  0  0  0  0  2  0  0  0  0  0  0
  -26.0160  -20.9960   18.3360 O   0  0  0  0  0  0  0  0  0  0  0  0
  -26.1960  -20.9960   16.9280 C   0  0  0  0  0  2  0  0  0  0  0  0
  -27.5800  -21.5820   16.6270 C   0  0  0  0  0  2  0  0  0  0  0  0
  -27.6860  -22.8550   17.2540 O   0  0  0  0  0  0  0  0  0  0  0  0
  -29.0350  -23.2930   17.3640 C   0  0  0  0  0  2  0  0  0  0  0  0
  -29.1230  -24.4500   18.3670 C   0  0  0  0  0  2  0  0  0  0  0  0
  -28.9580  -25.6920   17.6890 O   0  0  0  0  0  0  0  0  0  0  0  0
  -25.9530  -28.9930   23.2160 C   0  0  0  0  0  0  0  0  0  0  0  0
  -27.9140  -26.4420   18.1570 C   0  0  0  0  0  0  0  0  0  0  0  0
  -24.5560  -28.8010   21.1810 C   0  0  0  0  0  3  0  0  0  0  0  0
  -25.7680  -28.0130   19.0790 C   0  0  0  0  0  0  0  0  0  0  0  0
  -27.1060  -28.8710   21.0130 C   0  0  0  0  0  2  0  0  0  0  0  0
  -26.9860  -28.0150   19.7710 C   0  0  0  0  0  0  0  0  0  0  0  0
  -28.0650  -27.2320   19.3130 C   0  0  0  0  0  3  0  0  0  0  0  0
  -26.6850  -26.4390   17.4670 C   0  0  0  0  0  3  0  0  0  0  0  0
  -25.6080  -27.2230   17.9270 C   0  0  0  0  0  3  0  0  0  0  0  0
  -24.6690  -28.8890   19.6350 C   0  0  0  0  0  2  0  0  0  0  0  0
  -25.8900  -28.8690   21.8600 N   0  0  0  0  0  0  0  0  0  0  0  0
  -24.9230  -29.0990   23.8960 O   0  0  0  0  0  0  0  0  0  0  0  0
  -23.7490  -27.5350   21.5430 C   0  0  0  0  0  0  0  0  0  0  0  0
  -22.4230  -27.5950   21.3400 N   0  0  0  0  0  0  0  0  0  0  0  0
  -24.3140  -26.5220   21.9640 O   0  0  0  0  0  0  0  0  0  0  0  0
  -22.0350  -28.4630   21.0000 H   0  0  0  0  0  0  0  0  0  0  0  0
  -18.9410  -26.6790   21.0560 C   0  0  0  0  0  0  0  0  0  0  0  0
  -21.4680  -26.5130   21.5720 C   0  0  0  0  0  3  0  0  0  0  0  0
  -21.5270  -25.4660   20.4350 C   0  0  0  0  0  2  0  0  0  0  0  0
  -20.5170  -25.7330   19.3160 C   0  0  0  0  0  2  0  0  0  0  0  0
  -19.0890  -25.7390   19.8720 C   0  0  0  0  0  2  0  0  0  0  0  0
  -20.0610  -27.0540   21.8440 C   0  0  0  0  0  0  0  0  0  0  0  0
  -19.8740  -27.9590   22.9120 C   0  0  0  0  0  3  0  0  0  0  0  0
  -18.5990  -28.4820   23.1980 C   0  0  0  0  0  3  0  0  0  0  0  0
  -17.4910  -28.0950   22.4240 C   0  0  0  0  0  3  0  0  0  0  0  0
  -17.6630  -27.1930   21.3590 C   0  0  0  0  0  3  0  0  0  0  0  0
  -27.3170  -29.0360   23.9740 C   0  0  0  0  0  3  0  0  0  0  0  0
  -27.1980  -30.0360   25.0420 N   0  0  0  0  0  0  0  0  0  0  0  0
  -27.7020  -31.2760   24.9820 C   0  0  0  0  0  0  0  0  0  0  0  0
  -28.3860  -31.6750   24.0350 O   0  0  0  0  0  0  0  0  0  0  0  0
  -26.6050  -29.7960   25.8230 H   0  0  0  0  0  0  0  0  0  0  0  0
  -26.2740  -33.1940   25.7600 C   0  0  0  0  0  1  0  0  0  0  0  0
  -27.3980  -32.2240   26.1570 C   0  0  0  0  0  3  0  0  0  0  0  0
  -29.5920  -32.1580   27.2560 C   0  0  0  0  0  1  0  0  0  0  0  0
  -28.5780  -32.9900   26.6150 N   0  0  0  0  0  0  0  0  0  0  0  0
  -28.3030  -33.7160   27.2700 H   0  0  0  0  0  0  0  0  0  0  0  0
  -27.7460  -27.6360   24.5620 C   0  0  1  0  0  0  0  0  0  0  0  0
  -26.6490  -26.9580   25.4150 C   0  0  0  0  0  1  0  0  0  0  0  0
  -28.1290  -26.6610   23.4250 C   0  0  0  0  0  1  0  0  0  0  0  0
  -29.0040  -27.8010   25.4460 C   0  0  0  0  0  1  0  0  0  0  0  0
  1  2  1  0
  2  4  1  0
  2  5  1  0
  3  2  1  0
  6  7  1  0
  6  5  1  0
  8  7  1  0
  9 10  1  0
  9  8  1  0
 10 11  1  0
 12 11  1  0
 12 21  1  0
 13 19  1  0
 13 21  1  0
 14 19  1  0
 15 16  1  0
 15 14  1  0
 17 16  1  0
 17 26  1  0
 17 18  1  0
 19 18  1  0
 20 13  2  0
 21 22  1  0
 23 24  2  0
 24 43  1  0
 25 24  1  0
 25 28  1  0
 26 27  1  0
 26 23  1  0
 27 25  2  0
 28 29  1  0
 29 30  2  0
 31 30  1  0
 32 31  2  0
 33 32  1  0
 33 28  2  0
 34 31  1  0
 34 35  1  0
 35 36  1  0
 36 37  2  0
 38 37  1  0
 38 42  1  0
 39 38  2  0
 40 35  2  0
 40 39  1  0
 41 40  1  0
 43 44  1  0
 44 47  1  0
 44 46  1  0
 45 43  2  0
 48 49  1  0
 48 23  1  0
 50 48  1  0
 51  1  1  0
 52 51  1  0
 53 52  1  0
 54 53  1  0
 54 55  1  0
 55 56  1  0
 56 57  1  0
 58 60  1  0
 58 57  1  0
 59 70  2  0
 60 65  1  0
 61 71  1  0
 61 69  1  0
 62 68  1  0
 62 64  1  0
 63 69  1  0
 64 63  1  0
 65 64  2  0
 66 67  1  0
 66 60  2  0
 67 62  2  0
 68 61  1  0
 69 59  1  0
 71 73  2  0
 72 71  1  0
 74 72  1  0
 75 84  2  0
 75 80  1  0
 76 72  1  0
 76 80  1  0
 77 76  1  0
 78 79  1  0
 78 77  1  0
 79 75  1  0
 80 81  2  0
 81 82  1  0
 83 82  2  0
 84 83  1  0
 85 59  1  0
 85 95  1  0
 85 86  1  0
 86 89  1  0
 87 86  1  0
 87 91  1  0
 88 87  2  0
 91 90  1  0
 91 93  1  0
 93 92  1  0
 93 94  1  0
 95 96  1  1
 95 98  1  0
 97 95  1  0
M  ISO  4  13 100  21 100  57 101  58 101
M  END
>  <TORSDO>  (26) 
F 32

>  <SCORE>  (26) 
-2.260

>  <name>  (26) 
25

>  <ligand_id>  (26) 
25

>  <original_smiles>  (26) 
[H]c1c([H])c([H])c2c(c1[H])C([H])([H])C([H])([H])C([H])([H])C2([H])N([H])C(=O)C1([H])N(C(=O)C([H])(N([H])C(=O)C([H])(N([H])C([H])([H])[H])C([H])([H])[H])C(C([H])([H])[H])(C([H])([H])[H])C([H])([H])[H])C([H])([H])c2c([H])c(OC([H])([H])C([H])([H])OC([H])([H])C([H])([H])OC([H])([H])C([H])([H])[N+]([H])([H])C([H])([H])C([H])([H])C([H])([H])C([H])([H])OC([H])([H])C([H])([H])C([H])([H])N([H])C(=O)N3C([H])([H])C([H])([H])C([H])([H])C([H])(n4nc(-c5c([H])c([H])c(Oc6c([H])c([H])c(F)c([H])c6F)c([H])c5[H])c(C(=O)N([H])[H])c4N([H])[H])C3([H])[H])c([H])c([H])c2C1([H])[H]

>  <smiles>  (26) 
[H]c1c([H])c([H])c2c(c1[H])C([H])([H])C([H])([H])C([H])([H])C2([H])N([H])C(=O)C1([H])N(C(=O)C([H])(N([H])C(=O)C([H])(N([H])C([H])([H])[H])C([H])([H])[H])C(C([H])([H])[H])(C([H])([H])[H])C([H])([H])[H])C([H])([H])c2c([H])c(OC([H])([H])C([H])([H])OC([H])([H])C([H])([H])OC([H])([H])C([H])([H])[N+]([H])([H])C([H])([H])C([H])([H])C([H])([H])C([H])([H])OC([H])([H])C([H])([H])C([H])([H])N([H])C(=O)N3C([H])([H])C([H])([H])C([H])([H])C([H])(n4nc(-c5c([H])c([H])c(Oc6c([H])c([H])c(F)c([H])c6F)c([H])c5[H])c(C(=O)N([H])[H])c4N([H])[H])C3([H])[H])c([H])c([H])c2C1([H])[H]

$$$$
26:0:0
     RDKit          3D

 94101  0  0  1  0  0  0  0  0999 V2000
  -26.9230  -21.4800   21.7610 C   0  0  0  0  0  2  0  0  0  0  0  0
  -28.1390  -21.0610   21.1510 O   0  0  0  0  0  0  0  0  0  0  0  0
  -27.9490  -20.4120   19.9030 C   0  0  0  0  0  2  0  0  0  0  0  0
  -28.8580  -21.0680   18.8450 C   0  0  0  0  0  2  0  0  0  0  0  0
  -30.5580  -19.2870   19.0090 C   0  0  0  0  0  0  0  0  0  0  0  0
  -30.2390  -20.5840   18.9310 N   0  0  0  0  0  0  0  0  0  0  0  0
  -29.6860  -18.4200   19.1370 O   0  0  0  0  0  0  0  0  0  0  0  0
  -30.9840  -21.2620   18.8490 H   0  0  0  0  0  0  0  0  0  0  0  0
  -32.4220  -18.6750   17.4010 C   0  0  0  0  0  1  0  0  0  0  0  0
  -32.0410  -18.8650   18.8900 C   0  0  0  0  0  3  0  0  0  0  0  0
  -32.8870  -16.5550   19.6240 C   0  0  0  0  0  0  0  0  0  0  0  0
  -32.8290  -14.0940   19.7450 C   0  0  0  0  0  2  0  0  0  0  0  0
  -32.0580  -13.5640   18.5200 C   0  0  0  0  0  2  0  0  0  0  0  0
  -30.5370  -13.5340   18.7960 C   0  0  0  0  0  2  0  0  0  0  0  0
  -30.0090  -14.8700   19.3750 C   0  0  0  0  0  3  0  0  0  0  0  0
  -30.8970  -15.3250   20.5540 C   0  0  0  0  0  2  0  0  0  0  0  0
  -32.2910  -15.4210   20.0720 N   0  0  0  0  0  0  0  0  0  0  0  0
  -34.0260  -16.5980   19.1500 O   0  0  0  0  0  0  0  0  0  0  0  0
  -32.0640  -17.6020   19.6240 N   0  0  0  0  0  0  0  0  0  0  0  0
  -31.1730  -17.4480   20.0820 H   0  0  0  0  0  0  0  0  0  0  0  0
  -27.6400  -15.7620   19.8720 C   0  0  0  0  0  0  0  0  0  0  0  0
  -26.4750  -15.1250   20.1980 C   0  0  0  0  0  0  0  0  0  0  0  0
  -26.7880  -13.7310   20.2490 C   0  0  0  0  0  0  0  0  0  0  0  0
  -28.6020  -14.7670   19.7600 N   0  0  0  0  0  0  0  0  0  0  0  0
  -28.0840  -13.5420   20.0330 N   0  0  0  0  0  0  0  0  0  0  0  0
  -25.9180  -12.5620   20.4280 C   0  0  0  0  0  0  0  0  0  0  0  0
  -26.1120  -11.6520   21.4920 C   0  0  0  0  0  3  0  0  0  0  0  0
  -25.2530  -10.5450   21.6550 C   0  0  0  0  0  3  0  0  0  0  0  0
  -24.1830  -10.3390   20.7520 C   0  0  0  0  0  0  0  0  0  0  0  0
  -24.0050  -11.2350   19.6830 C   0  0  0  0  0  3  0  0  0  0  0  0
  -24.8660  -12.3340   19.5190 C   0  0  0  0  0  3  0  0  0  0  0  0
  -23.3130   -9.2770   20.8180 O   0  0  0  0  0  0  0  0  0  0  0  0
  -22.9420   -8.7220   22.0180 C   0  0  0  0  0  0  0  0  0  0  0  0
  -22.3260   -9.4850   23.0320 C   0  0  0  0  0  3  0  0  0  0  0  0
  -21.8980   -8.8610   24.2210 C   0  0  0  0  0  3  0  0  0  0  0  0
  -22.0780   -7.4750   24.3940 C   0  0  0  0  0  0  0  0  0  0  0  0
  -22.6920   -6.7140   23.3850 C   0  0  0  0  0  3  0  0  0  0  0  0
  -23.1220   -7.3360   22.1970 C   0  0  0  0  0  0  0  0  0  0  0  0
  -23.6880   -6.5910   21.2180 F   0  0  0  0  0  0  0  0  0  0  0  0
  -21.6650   -6.8750   25.5350 F   0  0  0  0  0  0  0  0  0  0  0  0
  -25.1210  -15.7560   20.3590 C   0  0  0  0  0  0  0  0  0  0  0  0
  -24.2800  -15.1850   21.2140 N   0  0  0  0  0  0  0  0  0  0  0  0
  -24.8180  -16.7900   19.7620 O   0  0  0  0  0  0  0  0  0  0  0  0
  -24.5300  -14.3450   21.7160 H   0  0  0  0  0  0  0  0  0  0  0  0
  -23.3680  -15.5880   21.3640 H   0  0  0  0  0  0  0  0  0  0  0  0
  -27.9520  -17.0970   19.6360 N   0  0  0  0  0  0  0  0  0  0  0  0
  -27.2400  -17.8160   19.6030 H   0  0  0  0  0  0  0  0  0  0  0  0
  -28.8620  -17.4250   19.3340 H   0  0  0  0  0  0  0  0  0  0  0  0
  -26.9260  -23.0070   21.8520 C   0  0  0  0  0  2  0  0  0  0  0  0
  -26.9280  -23.5690   20.5470 O   0  0  0  0  0  0  0  0  0  0  0  0
  -27.5970  -24.8230   20.5190 C   0  0  0  0  0  2  0  0  0  0  0  0
  -27.1780  -25.6000   19.2700 C   0  0  0  0  0  2  0  0  0  0  0  0
  -28.0500  -26.8510   19.0480 C   0  0  0  0  0  2  0  0  0  0  0  0
  -27.4860  -27.7330   18.0830 O   0  0  0  0  0  0  0  0  0  0  0  0
  -24.5910  -31.6830   23.2460 C   0  0  0  0  0  0  0  0  0  0  0  0
  -26.3890  -28.4100   18.5460 C   0  0  0  0  0  0  0  0  0  0  0  0
  -23.0270  -30.7850   21.5520 C   0  0  0  0  0  3  0  0  0  0  0  0
  -24.1050  -29.7630   19.4790 C   0  0  0  0  0  0  0  0  0  0  0  0
  -25.4690  -31.2500   20.9570 C   0  0  0  0  0  2  0  0  0  0  0  0
  -25.3720  -30.1250   19.9530 C   0  0  0  0  0  0  0  0  0  0  0  0
  -26.5210  -29.4470   19.4930 C   0  0  0  0  0  3  0  0  0  0  0  0
  -25.1110  -28.0620   18.0640 C   0  0  0  0  0  3  0  0  0  0  0  0
  -23.9660  -28.7260   18.5380 C   0  0  0  0  0  3  0  0  0  0  0  0
  -22.9250  -30.5370   20.0240 C   0  0  0  0  0  2  0  0  0  0  0  0
  -24.3920  -31.2380   21.9730 N   0  0  0  0  0  0  0  0  0  0  0  0
  -23.6520  -31.7620   24.0510 O   0  0  0  0  0  0  0  0  0  0  0  0
  -22.5490  -29.5130   22.2910 C   0  0  0  0  0  0  0  0  0  0  0  0
  -21.2380  -29.2360   22.2120 N   0  0  0  0  0  0  0  0  0  0  0  0
  -23.3510  -28.7890   22.8880 O   0  0  0  0  0  0  0  0  0  0  0  0
  -20.6470  -29.8820   21.7040 H   0  0  0  0  0  0  0  0  0  0  0  0
  -18.0560  -27.5490   22.4790 C   0  0  0  0  0  0  0  0  0  0  0  0
  -20.5660  -28.0740   22.7950 C   0  0  0  0  0  3  0  0  0  0  0  0
  -20.8370  -26.8020   21.9620 C   0  0  0  0  0  2  0  0  0  0  0  0
  -19.7590  -26.5290   20.9060 C   0  0  0  0  0  2  0  0  0  0  0  0
  -18.3860  -26.3760   21.5700 C   0  0  0  0  0  2  0  0  0  0  0  0
  -19.0790  -28.3530   23.0430 C   0  0  0  0  0  0  0  0  0  0  0  0
  -18.7220  -29.4470   23.8580 C   0  0  0  0  0  3  0  0  0  0  0  0
  -17.3680  -29.7360   24.1180 C   0  0  0  0  0  3  0  0  0  0  0  0
  -16.3560  -28.9300   23.5700 C   0  0  0  0  0  3  0  0  0  0  0  0
  -16.7020  -27.8340   22.7560 C   0  0  0  0  0  3  0  0  0  0  0  0
  -26.0000  -32.1370   23.7430 C   0  0  0  0  0  3  0  0  0  0  0  0
  -26.6590  -31.1230   24.7570 C   0  0  1  0  0  0  0  0  0  0  0  0
  -25.7360  -30.7260   25.9350 C   0  0  0  0  0  1  0  0  0  0  0  0
  -27.0840  -29.8260   24.0300 C   0  0  0  0  0  1  0  0  0  0  0  0
  -27.9500  -31.7380   25.3490 C   0  0  0  0  0  1  0  0  0  0  0  0
  -25.8450  -33.4600   24.3600 N   0  0  0  0  0  0  0  0  0  0  0  0
  -26.1730  -34.6150   23.7700 C   0  0  0  0  0  0  0  0  0  0  0  0
  -26.7110  -34.6710   22.6610 O   0  0  0  0  0  0  0  0  0  0  0  0
  -25.3600  -33.4900   25.2450 H   0  0  0  0  0  0  0  0  0  0  0  0
  -24.5710  -36.5460   23.9510 C   0  0  0  0  0  1  0  0  0  0  0  0
  -25.8490  -35.9180   24.5270 C   0  0  0  0  0  3  0  0  0  0  0  0
  -28.1240  -36.4930   25.2510 C   0  0  0  0  0  1  0  0  0  0  0  0
  -26.9480  -36.9080   24.4910 N   0  0  0  0  0  0  0  0  0  0  0  0
  -26.6370  -37.8080   24.8490 H   0  0  0  0  0  0  0  0  0  0  0  0
  1 49  1  0
  2  1  1  0
  3  2  1  0
  4  6  1  0
  4  3  1  0
  5  7  2  0
  6  5  1  0
  8  6  1  0
 10  9  1  0
 10  5  1  0
 10 19  1  0
 11 19  1  0
 11 17  1  0
 12 17  1  0
 13 14  1  0
 13 12  1  0
 15 14  1  0
 15 24  1  0
 15 16  1  0
 17 16  1  0
 18 11  2  0
 19 20  1  0
 21 22  2  0
 22 23  1  0
 22 41  1  0
 23 26  1  0
 24 21  1  0
 24 25  1  0
 25 23  2  0
 26 27  1  0
 27 28  2  0
 29 32  1  0
 29 28  1  0
 30 29  2  0
 31 30  1  0
 31 26  2  0
 32 33  1  0
 33 38  2  0
 33 34  1  0
 34 35  2  0
 35 36  1  0
 36 40  1  0
 37 36  2  0
 38 37  1  0
 39 38  1  0
 41 42  1  0
 42 45  1  0
 42 44  1  0
 43 41  2  0
 46 21  1  0
 47 46  1  0
 48 46  1  0
 50 49  1  0
 51 50  1  0
 52 51  1  0
 53 52  1  0
 54 56  1  0
 54 53  1  0
 55 66  2  0
 56 61  1  0
 57 65  1  0
 57 67  1  0
 58 60  1  0
 58 64  1  0
 59 65  1  0
 60 59  1  0
 61 60  2  0
 62 63  1  0
 62 56  2  0
 63 58  2  0
 64 57  1  0
 65 55  1  0
 67 69  2  0
 68 67  1  0
 70 68  1  0
 71 80  2  0
 71 76  1  0
 72 68  1  0
 72 76  1  0
 73 72  1  0
 74 75  1  0
 74 73  1  0
 75 71  1  0
 76 77  2  0
 77 78  1  0
 79 78  2  0
 80 79  1  0
 81 55  1  0
 81 86  1  0
 81 82  1  0
 82 85  1  1
 82 83  1  0
 84 82  1  0
 86 89  1  0
 87 86  1  0
 87 91  1  0
 88 87  2  0
 91 90  1  0
 93 91  1  0
 93 94  1  0
 93 92  1  0
M  ISO  4  11 100  19 100  53 101  54 101
M  END
>  <TORSDO>  (27) 
F 26

>  <SCORE>  (27) 
-3.684

>  <name>  (27) 
26

>  <ligand_id>  (27) 
26

>  <original_smiles>  (27) 
[H]c1c([H])c([H])c2c(c1[H])C([H])([H])C([H])([H])C([H])([H])C2([H])N([H])C(=O)C1([H])N(C(=O)C([H])(N([H])C(=O)C([H])(N([H])C([H])([H])[H])C([H])([H])[H])C(C([H])([H])[H])(C([H])([H])[H])C([H])([H])[H])C([H])([H])c2c([H])c(OC([H])([H])C([H])([H])C([H])([H])OC([H])([H])C([H])([H])OC([H])([H])C([H])([H])N([H])C(=O)C([H])(N([H])C(=O)N3C([H])([H])C([H])([H])C([H])([H])C([H])(n4nc(-c5c([H])c([H])c(Oc6c([H])c([H])c(F)c([H])c6F)c([H])c5[H])c(C(=O)N([H])[H])c4N([H])[H])C3([H])[H])C([H])([H])[H])c([H])c([H])c2C1([H])[H]

>  <smiles>  (27) 
[H]c1c([H])c([H])c2c(c1[H])C([H])([H])C([H])([H])C([H])([H])C2([H])N([H])C(=O)C1([H])N(C(=O)C([H])(N([H])C(=O)C([H])(N([H])C([H])([H])[H])C([H])([H])[H])C(C([H])([H])[H])(C([H])([H])[H])C([H])([H])[H])C([H])([H])c2c([H])c(OC([H])([H])C([H])([H])C([H])([H])OC([H])([H])C([H])([H])OC([H])([H])C([H])([H])N([H])C(=O)C([H])(N([H])C(=O)N3C([H])([H])C([H])([H])C([H])([H])C([H])(n4nc(-c5c([H])c([H])c(Oc6c([H])c([H])c(F)c([H])c6F)c([H])c5[H])c(C(=O)N([H])[H])c4N([H])[H])C3([H])[H])C([H])([H])[H])c([H])c([H])c2C1([H])[H]

$$$$
27:0:0
     RDKit          3D

102109  0  0  1  0  0  0  0  0999 V2000
  -28.4370  -20.2760   19.1120 C   0  0  0  0  0  3  0  0  0  0  0  0
  -29.6720  -19.4050   19.4520 C   0  0  0  0  0  0  0  0  0  0  0  0
  -30.8280  -19.7510   18.8770 N   0  0  0  0  0  0  0  0  0  0  0  0
  -29.5900  -18.4350   20.2040 O   0  0  0  0  0  0  0  0  0  0  0  0
  -30.8030  -20.5420   18.2450 H   0  0  0  0  0  0  0  0  0  0  0  0
  -32.1620  -19.3030   19.2910 C   0  0  0  0  0  3  0  0  0  0  0  0
  -33.1840  -20.1670   18.5120 C   0  0  0  0  0  0  0  0  0  0  0  0
  -32.8690  -21.4380   18.2700 N   0  0  0  0  0  0  0  0  0  0  0  0
  -34.2450  -19.7000   18.0970 O   0  0  0  0  0  0  0  0  0  0  0  0
  -32.0080  -21.8290   18.6300 H   0  0  0  0  0  0  0  0  0  0  0  0
  -33.4910  -22.0290   17.7370 H   0  0  0  0  0  0  0  0  0  0  0  0
  -32.3030  -17.7740   19.0620 C   0  0  0  0  0  2  0  0  0  0  0  0
  -33.7740  -15.9550   19.7300 C   0  0  0  0  0  0  0  0  0  0  0  0
  -33.6340  -13.4900   19.8100 C   0  0  0  0  0  2  0  0  0  0  0  0
  -32.8260  -12.9580   18.6090 C   0  0  0  0  0  2  0  0  0  0  0  0
  -31.3200  -12.9400   18.9270 C   0  0  0  0  0  2  0  0  0  0  0  0
  -30.8220  -14.2900   19.5080 C   0  0  0  0  0  3  0  0  0  0  0  0
  -31.7480  -14.7690   20.6500 C   0  0  0  0  0  2  0  0  0  0  0  0
  -33.1280  -14.8310   20.1390 N   0  0  0  0  0  0  0  0  0  0  0  0
  -34.8710  -15.9400   19.1740 O   0  0  0  0  0  0  0  0  0  0  0  0
  -33.1920  -17.1190   20.0290 N   0  0  0  0  0  0  0  0  0  0  0  0
  -33.8930  -17.7880   20.3200 H   0  0  0  0  0  0  0  0  0  0  0  0
  -28.5090  -15.2320   20.1540 C   0  0  0  0  0  0  0  0  0  0  0  0
  -27.3290  -14.6130   20.4780 C   0  0  0  0  0  0  0  0  0  0  0  0
  -27.5950  -13.2100   20.4430 C   0  0  0  0  0  0  0  0  0  0  0  0
  -29.4290  -14.2110   19.9420 N   0  0  0  0  0  0  0  0  0  0  0  0
  -28.8780  -12.9920   20.1710 N   0  0  0  0  0  0  0  0  0  0  0  0
  -26.6900  -12.0600   20.5940 C   0  0  0  0  0  0  0  0  0  0  0  0
  -26.6990  -11.2590   21.7570 C   0  0  0  0  0  3  0  0  0  0  0  0
  -25.8050  -10.1730   21.8870 C   0  0  0  0  0  3  0  0  0  0  0  0
  -24.8920   -9.8780   20.8480 C   0  0  0  0  0  0  0  0  0  0  0  0
  -24.9010  -10.6640   19.6840 C   0  0  0  0  0  3  0  0  0  0  0  0
  -25.7920  -11.7400   19.5530 C   0  0  0  0  0  3  0  0  0  0  0  0
  -24.0060   -8.8280   20.8770 O   0  0  0  0  0  0  0  0  0  0  0  0
  -23.2590   -8.5460   21.9910 C   0  0  0  0  0  0  0  0  0  0  0  0
  -22.3110   -9.4610   22.5020 C   0  0  0  0  0  3  0  0  0  0  0  0
  -21.5130   -9.1050   23.6080 C   0  0  0  0  0  3  0  0  0  0  0  0
  -21.6540   -7.8330   24.1970 C   0  0  0  0  0  0  0  0  0  0  0  0
  -22.5930   -6.9200   23.6870 C   0  0  0  0  0  3  0  0  0  0  0  0
  -23.3910   -7.2750   22.5850 C   0  0  0  0  0  0  0  0  0  0  0  0
  -24.2810   -6.3850   22.0830 F   0  0  0  0  0  0  0  0  0  0  0  0
  -20.8840   -7.4860   25.2530 F   0  0  0  0  0  0  0  0  0  0  0  0
  -26.0040  -15.2800   20.7090 C   0  0  0  0  0  0  0  0  0  0  0  0
  -25.1740  -14.7100   21.5770 N   0  0  0  0  0  0  0  0  0  0  0  0
  -25.7160  -16.3410   20.1600 O   0  0  0  0  0  0  0  0  0  0  0  0
  -25.4150  -13.8480   22.0430 H   0  0  0  0  0  0  0  0  0  0  0  0
  -24.2890  -15.1460   21.7820 H   0  0  0  0  0  0  0  0  0  0  0  0
  -28.8620  -16.5660   19.9990 N   0  0  0  0  0  0  0  0  0  0  0  0
  -28.1750  -17.3050   20.1070 H   0  0  0  0  0  0  0  0  0  0  0  0
  -29.7650  -16.8990   19.6860 H   0  0  0  0  0  0  0  0  0  0  0  0
  -28.8940  -21.8580   17.1680 C   0  0  0  0  0  0  0  0  0  0  0  0
  -28.5620  -20.6800   17.7120 N   0  0  0  0  0  0  0  0  0  0  0  0
  -29.1020  -21.9160   15.9550 O   0  0  0  0  0  0  0  0  0  0  0  0
  -28.4620  -19.9240   17.0490 H   0  0  0  0  0  0  0  0  0  0  0  0
  -28.9410  -23.1620   17.9850 C   0  0  0  0  0  2  0  0  0  0  0  0
  -30.2240  -23.4670   18.5670 O   0  0  0  0  0  0  0  0  0  0  0  0
  -30.3190  -24.8910   18.6910 C   0  0  0  0  0  3  0  0  0  0  0  0
  -31.4690  -25.5510   19.4980 C   0  0  0  0  0  3  0  0  0  0  0  0
  -31.4420  -27.0030   19.5690 O   0  0  0  0  0  0  0  0  0  0  0  0
  -27.2730  -29.5480   24.7910 C   0  0  0  0  0  0  0  0  0  0  0  0
  -30.2430  -27.5960   19.9270 C   0  0  0  0  0  0  0  0  0  0  0  0
  -26.1910  -29.1830   22.6010 C   0  0  0  0  0  3  0  0  0  0  0  0
  -27.7610  -28.7560   20.6430 C   0  0  0  0  0  0  0  0  0  0  0  0
  -28.6920  -29.7200   22.7460 C   0  0  0  0  0  2  0  0  0  0  0  0
  -28.8770  -28.9110   21.4780 C   0  0  0  0  0  0  0  0  0  0  0  0
  -30.1180  -28.3280   21.1310 C   0  0  0  0  0  3  0  0  0  0  0  0
  -29.1310  -27.5390   19.0590 C   0  0  0  0  0  3  0  0  0  0  0  0
  -27.8870  -28.0730   19.4270 C   0  0  0  0  0  3  0  0  0  0  0  0
  -26.4620  -29.3830   21.0900 C   0  0  0  0  0  2  0  0  0  0  0  0
  -27.4030  -29.4640   23.4380 N   0  0  0  0  0  0  0  0  0  0  0  0
  -26.1680  -29.4270   25.3380 O   0  0  0  0  0  0  0  0  0  0  0  0
  -25.6060  -27.7670   22.8250 C   0  0  0  0  0  0  0  0  0  0  0  0
  -24.3760  -27.5400   22.3390 N   0  0  0  0  0  0  0  0  0  0  0  0
  -26.2660  -26.8940   23.3990 O   0  0  0  0  0  0  0  0  0  0  0  0
  -23.8860  -28.3160   21.9170 H   0  0  0  0  0  0  0  0  0  0  0  0
  -21.3290  -25.8830   21.3290 C   0  0  0  0  0  0  0  0  0  0  0  0
  -23.6510  -26.2690   22.3910 C   0  0  0  0  0  3  0  0  0  0  0  0
  -24.1840  -25.2670   21.3380 C   0  0  0  0  0  2  0  0  0  0  0  0
  -23.4110  -25.3230   20.0180 C   0  0  0  0  0  2  0  0  0  0  0  0
  -21.9370  -24.9850   20.2650 C   0  0  0  0  0  2  0  0  0  0  0  0
  -22.1370  -26.4930   22.3240 C   0  0  0  0  0  0  0  0  0  0  0  0
  -21.5260  -27.3450   23.2690 C   0  0  0  0  0  3  0  0  0  0  0  0
  -20.1420  -27.5940   23.2270 C   0  0  0  0  0  3  0  0  0  0  0  0
  -19.3430  -26.9650   22.2540 C   0  0  0  0  0  3  0  0  0  0  0  0
  -19.9380  -26.1080   21.3130 C   0  0  0  0  0  3  0  0  0  0  0  0
  -28.4990  -29.8150   25.7160 C   0  0  0  0  0  3  0  0  0  0  0  0
  -28.8380  -28.6050   26.6690 C   0  0  1  0  0  0  0  0  0  0  0  0
  -27.6150  -28.0460   27.4330 C   0  0  0  0  0  1  0  0  0  0  0  0
  -29.4560  -27.4370   25.8660 C   0  0  0  0  0  1  0  0  0  0  0  0
  -29.8990  -29.0380   27.7100 C   0  0  0  0  0  1  0  0  0  0  0  0
  -28.2130  -31.0270   26.4930 N   0  0  0  0  0  0  0  0  0  0  0  0
  -28.7050  -32.2420   26.2130 C   0  0  0  0  0  0  0  0  0  0  0  0
  -29.5110  -32.4470   25.3010 O   0  0  0  0  0  0  0  0  0  0  0  0
  -27.5210  -30.9480   27.2250 H   0  0  0  0  0  0  0  0  0  0  0  0
  -27.1580  -34.2220   26.3180 C   0  0  0  0  0  1  0  0  0  0  0  0
  -28.2230  -33.4190   27.0820 C   0  0  0  0  0  3  0  0  0  0  0  0
  -30.2240  -33.7130   28.4780 C   0  0  0  0  0  1  0  0  0  0  0  0
  -29.3170  -34.3210   27.5080 N   0  0  0  0  0  0  0  0  0  0  0  0
  -28.9440  -35.1750   27.9140 H   0  0  0  0  0  0  0  0  0  0  0  0
  -26.5540  -18.5660   18.5700 C   0  0  0  0  0  1  0  0  0  0  0  0
  -26.8680  -19.3060   20.9620 C   0  0  0  0  0  1  0  0  0  0  0  0
  -27.0200  -19.7160   19.4790 C   0  0  0  0  0  3  0  0  0  0  0  0
  1  2  1  0
  1102  1  0
  2  4  2  0
  3  6  1  0
  3  2  1  0
  5  3  1  0
  6 12  1  0
  7  6  1  0
  8  7  1  0
  8 10  1  0
  9  7  2  0
 11  8  1  0
 12 21  1  0
 13 21  1  0
 13 19  1  0
 14 19  1  0
 15 16  1  0
 15 14  1  0
 17 16  1  0
 17 26  1  0
 17 18  1  0
 19 18  1  0
 20 13  2  0
 21 22  1  0
 23 24  2  0
 24 43  1  0
 25 24  1  0
 25 28  1  0
 26 23  1  0
 26 27  1  0
 27 25  2  0
 28 29  1  0
 29 30  2  0
 31 34  1  0
 31 30  1  0
 32 31  2  0
 33 32  1  0
 33 28  2  0
 34 35  1  0
 35 36  2  0
 35 40  1  0
 36 37  1  0
 37 38  2  0
 38 42  1  0
 39 38  1  0
 40 39  2  0
 41 40  1  0
 43 44  1  0
 44 47  1  0
 44 46  1  0
 45 43  2  0
 48 49  1  0
 48 23  1  0
 50 48  1  0
 51 52  1  0
 51 55  1  0
 52  1  1  0
 53 51  2  0
 54 52  1  0
 55 56  1  0
 56 57  1  0
 57 58  2  0
 58 59  1  0
 59 61  1  0
 60 71  2  0
 61 66  1  0
 62 72  1  0
 62 70  1  0
 63 69  1  0
 63 65  1  0
 64 70  1  0
 65 64  1  0
 66 65  2  0
 67 68  1  0
 67 61  2  0
 68 63  2  0
 69 62  1  0
 70 60  1  0
 72 74  2  0
 73 72  1  0
 75 73  1  0
 76 81  1  0
 77 73  1  0
 78 77  1  0
 79 80  1  0
 79 78  1  0
 80 76  1  0
 81 77  1  0
 81 82  2  0
 83 82  1  0
 84 83  2  0
 85 76  2  0
 85 84  1  0
 86 60  1  0
 86 91  1  0
 86 87  1  0
 87 88  1  1
 87 90  1  0
 89 87  1  0
 91 94  1  0
 92 91  1  0
 92 96  1  0
 93 92  2  0
 96 95  1  0
 96 98  1  0
 98 99  1  0
 98 97  1  0
100102  1  0
102101  1  0
M  ISO  4  13 100  21 100  58 101  59 101
M  END
>  <TORSDO>  (28) 
F 26

>  <SCORE>  (28) 
-1.527

>  <name>  (28) 
27

>  <ligand_id>  (28) 
27

>  <original_smiles>  (28) 
[H]c1c([H])c([H])c2c(c1[H])C([H])([H])C([H])([H])C([H])([H])C2([H])N([H])C(=O)C1([H])N(C(=O)C([H])(N([H])C(=O)C([H])(N([H])C([H])([H])[H])C([H])([H])[H])C(C([H])([H])[H])(C([H])([H])[H])C([H])([H])[H])C([H])([H])c2c([H])c(OC([H])([H])C([H])([H])OC([H])([H])C(=O)N([H])C([H])(C(=O)N([H])C([H])(C(=O)N([H])[H])C([H])([H])N([H])C(=O)N3C([H])([H])C([H])([H])C([H])([H])C([H])(n4nc(-c5c([H])c([H])c(Oc6c([H])c([H])c(F)c([H])c6F)c([H])c5[H])c(C(=O)N([H])[H])c4N([H])[H])C3([H])[H])C([H])(C([H])([H])[H])C([H])([H])[H])c([H])c([H])c2C1([H])[H]

>  <smiles>  (28) 
[H]c1c([H])c([H])c2c(c1[H])C([H])([H])C([H])([H])C([H])([H])C2([H])N([H])C(=O)C1([H])N(C(=O)C([H])(N([H])C(=O)C([H])(N([H])C([H])([H])[H])C([H])([H])[H])C(C([H])([H])[H])(C([H])([H])[H])C([H])([H])[H])C([H])([H])c2c([H])c(OC([H])([H])C([H])([H])OC([H])([H])C(=O)N([H])C([H])(C(=O)N([H])C([H])(C(=O)N([H])[H])C([H])([H])N([H])C(=O)N3C([H])([H])C([H])([H])C([H])([H])C([H])(n4nc(-c5c([H])c([H])c(Oc6c([H])c([H])c(F)c([H])c6F)c([H])c5[H])c(C(=O)N([H])[H])c4N([H])[H])C3([H])[H])C([H])(C([H])([H])[H])C([H])([H])[H])c([H])c([H])c2C1([H])[H]

$$$$
28:0:0
     RDKit          3D

101108  0  0  1  0  0  0  0  0999 V2000
  -24.3860  -23.6470   19.9310 C   0  0  0  0  0  2  0  0  0  0  0  0
  -23.9880  -24.2820   18.7230 O   0  0  0  0  0  0  0  0  0  0  0  0
  -24.7010  -23.8480   17.5650 C   0  0  0  0  0  2  0  0  0  0  0  0
  -24.3960  -22.3990   17.1500 C   0  0  0  0  0  2  0  0  0  0  0  0
  -25.0810  -21.4910   18.0060 O   0  0  0  0  0  0  0  0  0  0  0  0
  -25.1170  -20.1680   17.4850 C   0  0  0  0  0  2  0  0  0  0  0  0
  -25.6190  -19.2020   18.5650 C   0  0  0  0  0  2  0  0  0  0  0  0
  -27.0040  -19.4140   18.8190 O   0  0  0  0  0  0  0  0  0  0  0  0
  -27.5230  -18.4440   19.7200 C   0  0  0  0  0  2  0  0  0  0  0  0
  -29.0100  -18.6920   19.9960 C   0  0  0  0  0  2  0  0  0  0  0  0
  -29.4770  -17.6720   20.8670 O   0  0  0  0  0  0  0  0  0  0  0  0
  -30.8870  -17.7030   21.0550 C   0  0  0  0  0  2  0  0  0  0  0  0
  -31.2820  -16.5650   22.0120 C   0  0  0  0  0  2  0  0  0  0  0  0
  -31.1200  -14.5300   20.5890 C   0  0  0  0  0  0  0  0  0  0  0  0
  -30.7260  -12.4760   19.2830 C   0  0  0  0  0  2  0  0  0  0  0  0
  -29.8100  -12.7420   18.0740 C   0  0  0  0  0  2  0  0  0  0  0  0
  -28.3280  -12.6330   18.4770 C   0  0  0  0  0  2  0  0  0  0  0  0
  -27.9950  -13.4590   19.7460 C   0  0  0  0  0  3  0  0  0  0  0  0
  -29.0140  -13.1700   20.8700 C   0  0  0  0  0  2  0  0  0  0  0  0
  -30.3720  -13.4240   20.3500 N   0  0  0  0  0  0  0  0  0  0  0  0
  -32.1440  -14.8140   19.9610 O   0  0  0  0  0  0  0  0  0  0  0  0
  -30.6950  -15.2930   21.5990 N   0  0  0  0  0  0  0  0  0  0  0  0
  -29.8580  -14.9940   22.0750 H   0  0  0  0  0  0  0  0  0  0  0  0
  -25.5880  -14.1260   20.3800 C   0  0  0  0  0  0  0  0  0  0  0  0
  -24.4930  -13.3810   20.7270 C   0  0  0  0  0  0  0  0  0  0  0  0
  -24.9280  -12.0200   20.7240 C   0  0  0  0  0  0  0  0  0  0  0  0
  -26.6220  -13.2210   20.1890 N   0  0  0  0  0  0  0  0  0  0  0  0
  -26.2240  -11.9490   20.4500 N   0  0  0  0  0  0  0  0  0  0  0  0
  -24.1710  -10.7740   20.9110 C   0  0  0  0  0  0  0  0  0  0  0  0
  -24.5460   -9.8210   21.8830 C   0  0  0  0  0  3  0  0  0  0  0  0
  -23.7930   -8.6400   22.0560 C   0  0  0  0  0  3  0  0  0  0  0  0
  -22.6490   -8.4050   21.2560 C   0  0  0  0  0  0  0  0  0  0  0  0
  -22.2920   -9.3470   20.2750 C   0  0  0  0  0  3  0  0  0  0  0  0
  -23.0470  -10.5200   20.1000 C   0  0  0  0  0  3  0  0  0  0  0  0
  -21.8710   -7.2750   21.3350 O   0  0  0  0  0  0  0  0  0  0  0  0
  -21.7370   -6.5750   22.5070 C   0  0  0  0  0  0  0  0  0  0  0  0
  -21.2460   -7.1810   23.6840 C   0  0  0  0  0  3  0  0  0  0  0  0
  -21.0570   -6.4090   24.8480 C   0  0  0  0  0  3  0  0  0  0  0  0
  -21.3480   -5.0310   24.8340 C   0  0  0  0  0  0  0  0  0  0  0  0
  -21.8320   -4.4250   23.6620 C   0  0  0  0  0  3  0  0  0  0  0  0
  -22.0230   -5.1950   22.5000 C   0  0  0  0  0  0  0  0  0  0  0  0
  -22.4690   -4.6020   21.3670 F   0  0  0  0  0  0  0  0  0  0  0  0
  -21.1600   -4.2870   25.9490 F   0  0  0  0  0  0  0  0  0  0  0  0
  -23.1000  -13.8900   20.9610 C   0  0  0  0  0  0  0  0  0  0  0  0
  -22.3410  -13.2240   21.8240 N   0  0  0  0  0  0  0  0  0  0  0  0
  -22.6930  -14.9130   20.4130 O   0  0  0  0  0  0  0  0  0  0  0  0
  -22.6820  -12.3960   22.2890 H   0  0  0  0  0  0  0  0  0  0  0  0
  -21.4050  -13.5490   22.0240 H   0  0  0  0  0  0  0  0  0  0  0  0
  -25.7860  -15.4900   20.1950 N   0  0  0  0  0  0  0  0  0  0  0  0
  -25.0400  -16.1670   20.3030 H   0  0  0  0  0  0  0  0  0  0  0  0
  -26.6780  -15.9010   19.9560 H   0  0  0  0  0  0  0  0  0  0  0  0
  -24.1750  -24.6250   21.0970 C   0  0  0  0  0  2  0  0  0  0  0  0
  -24.6330  -24.0560   22.3860 N   0  0  0  0  0  4  0  0  0  0  0  0
  -23.8440  -23.6150   22.8350 H   0  0  0  0  0  0  0  0  0  0  0  0
  -25.3160  -23.3340   22.2170 H   0  0  0  0  0  0  0  0  0  0  0  0
  -25.2280  -25.0350   23.3270 C   0  0  0  0  0  2  0  0  0  0  0  0
  -26.7590  -25.1040   23.1840 C   0  0  0  0  0  2  0  0  0  0  0  0
  -27.1080  -25.8830   22.0450 O   0  0  0  0  0  0  0  0  0  0  0  0
  -28.4240  -25.6090   21.5730 C   0  0  0  0  0  2  0  0  0  0  0  0
  -28.9920  -26.7900   20.7640 C   0  0  0  0  0  2  0  0  0  0  0  0
  -28.2610  -26.9980   19.5540 O   0  0  0  0  0  0  0  0  0  0  0  0
  -24.5260  -31.9130   23.1070 C   0  0  0  0  0  0  0  0  0  0  0  0
  -27.1090  -27.7340   19.6720 C   0  0  0  0  0  0  0  0  0  0  0  0
  -23.2700  -30.5950   21.4290 C   0  0  0  0  0  3  0  0  0  0  0  0
  -24.6860  -29.1700   19.8560 C   0  0  0  0  0  0  0  0  0  0  0  0
  -25.7730  -31.0140   21.1500 C   0  0  0  0  0  2  0  0  0  0  0  0
  -25.8520  -29.6840   20.4360 C   0  0  0  0  0  0  0  0  0  0  0  0
  -27.0650  -28.9720   20.3500 C   0  0  0  0  0  3  0  0  0  0  0  0
  -25.9380  -27.2400   19.0650 C   0  0  0  0  0  3  0  0  0  0  0  0
  -24.7220  -27.9420   19.1700 C   0  0  0  0  0  3  0  0  0  0  0  0
  -23.4330  -30.0000   20.0010 C   0  0  0  0  0  2  0  0  0  0  0  0
  -24.5440  -31.1840   21.9550 N   0  0  0  0  0  0  0  0  0  0  0  0
  -23.4660  -32.1360   23.7070 O   0  0  0  0  0  0  0  0  0  0  0  0
  -22.6730  -29.5070   22.3490 C   0  0  0  0  0  0  0  0  0  0  0  0
  -21.3490  -29.3070   22.2530 N   0  0  0  0  0  0  0  0  0  0  0  0
  -23.3950  -28.8500   23.1030 O   0  0  0  0  0  0  0  0  0  0  0  0
  -20.8270  -29.8920   21.6150 H   0  0  0  0  0  0  0  0  0  0  0  0
  -18.0170  -28.0150   22.7650 C   0  0  0  0  0  0  0  0  0  0  0  0
  -20.5730  -28.3140   22.9930 C   0  0  0  0  0  3  0  0  0  0  0  0
  -20.6930  -26.9170   22.3420 C   0  0  0  0  0  2  0  0  0  0  0  0
  -19.5750  -26.6230   21.3370 C   0  0  0  0  0  2  0  0  0  0  0  0
  -18.2060  -26.7050   22.0180 C   0  0  0  0  0  2  0  0  0  0  0  0
  -19.1280  -28.7780   23.2090 C   0  0  0  0  0  0  0  0  0  0  0  0
  -18.8980  -30.0060   23.8660 C   0  0  0  0  0  3  0  0  0  0  0  0
  -17.5880  -30.4710   24.0850 C   0  0  0  0  0  3  0  0  0  0  0  0
  -16.4900  -29.7030   23.6590 C   0  0  0  0  0  3  0  0  0  0  0  0
  -16.7050  -28.4770   23.0040 C   0  0  0  0  0  3  0  0  0  0  0  0
  -25.8310  -32.5190   23.7140 C   0  0  0  0  0  3  0  0  0  0  0  0
  -25.5360  -33.9050   24.1010 N   0  0  0  0  0  0  0  0  0  0  0  0
  -25.8630  -34.9810   23.3750 C   0  0  0  0  0  0  0  0  0  0  0  0
  -26.5190  -34.9140   22.3310 O   0  0  0  0  0  0  0  0  0  0  0  0
  -24.9570  -34.0330   24.9180 H   0  0  0  0  0  0  0  0  0  0  0  0
  -24.1440  -36.7930   23.0990 C   0  0  0  0  0  1  0  0  0  0  0  0
  -25.3870  -36.3540   23.8870 C   0  0  0  0  0  3  0  0  0  0  0  0
  -27.5350  -37.1910   24.7320 C   0  0  0  0  0  1  0  0  0  0  0  0
  -26.4250  -37.4040   23.8060 N   0  0  0  0  0  0  0  0  0  0  0  0
  -26.0270  -38.3200   23.9950 H   0  0  0  0  0  0  0  0  0  0  0  0
  -26.3870  -31.6980   24.9400 C   0  0  1  0  0  0  0  0  0  0  0  0
  -25.3280  -31.4160   26.0310 C   0  0  0  0  0  1  0  0  0  0  0  0
  -26.9550  -30.3390   24.4690 C   0  0  0  0  0  1  0  0  0  0  0  0
  -27.5610  -32.4620   25.5960 C   0  0  0  0  0  1  0  0  0  0  0  0
  1 52  1  0
  2  1  1  0
  3  2  1  0
  4  3  1  0
  4  5  1  0
  6  5  1  0
  6  7  1  0
  7  8  1  0
  8  9  1  0
  9 10  1  0
 10 11  1  0
 11 12  1  0
 12 13  1  0
 14 22  1  0
 15 20  1  0
 16 17  1  0
 16 15  1  0
 18 17  1  0
 18 27  1  0
 18 19  1  0
 20 14  1  0
 20 19  1  0
 21 14  2  0
 22 13  1  0
 22 23  1  0
 24 25  2  0
 25 44  1  0
 26 25  1  0
 26 29  1  0
 27 24  1  0
 27 28  1  0
 28 26  2  0
 29 30  1  0
 30 31  2  0
 32 35  1  0
 32 31  1  0
 33 32  2  0
 34 33  1  0
 34 29  2  0
 35 36  1  0
 36 37  1  0
 37 38  2  0
 39 38  1  0
 39 43  1  0
 40 39  2  0
 41 36  2  0
 41 40  1  0
 42 41  1  0
 44 45  1  0
 45 48  1  0
 45 47  1  0
 46 44  2  0
 49 50  1  0
 49 24  1  0
 51 49  1  0
 52 53  1  0
 53 54  1  0
 53 56  1  0
 55 53  1  0
 57 56  1  0
 58 57  1  0
 59 58  1  0
 60 59  1  0
 61 63  1  0
 61 60  1  0
 62 73  2  0
 63 68  1  0
 64 72  1  0
 64 74  1  0
 65 71  1  0
 65 67  1  0
 66 72  1  0
 67 66  1  0
 68 67  2  0
 69 70  1  0
 69 63  2  0
 70 65  2  0
 71 64  1  0
 72 62  1  0
 74 76  2  0
 75 74  1  0
 77 75  1  0
 78 87  2  0
 78 83  1  0
 79 75  1  0
 79 83  1  0
 80 79  1  0
 81 82  1  0
 81 80  1  0
 82 78  1  0
 83 84  2  0
 84 85  1  0
 86 85  2  0
 87 86  1  0
 88 62  1  0
 88 89  1  0
 88 98  1  0
 89 92  1  0
 90 94  1  0
 90 89  1  0
 91 90  2  0
 94 93  1  0
 96 94  1  0
 96 97  1  0
 96 95  1  0
 98101  1  1
 98 99  1  0
100 98  1  0
M  ISO  4  14 100  22 100  60 101  61 101
M  END
>  <TORSDO>  (29) 
F 35

>  <SCORE>  (29) 
-9.058

>  <name>  (29) 
28

>  <ligand_id>  (29) 
28

>  <original_smiles>  (29) 
[H]c1c([H])c([H])c2c(c1[H])C([H])([H])C([H])([H])C([H])([H])C2([H])N([H])C(=O)C1([H])N(C(=O)C([H])(N([H])C(=O)C([H])(N([H])C([H])([H])[H])C([H])([H])[H])C(C([H])([H])[H])(C([H])([H])[H])C([H])([H])[H])C([H])([H])c2c([H])c(OC([H])([H])C([H])([H])OC([H])([H])C([H])([H])[N+]([H])([H])C([H])([H])C([H])([H])OC([H])([H])C([H])([H])OC([H])([H])C([H])([H])OC([H])([H])C([H])([H])OC([H])([H])C([H])([H])N([H])C(=O)N3C([H])([H])C([H])([H])C([H])([H])C([H])(n4nc(-c5c([H])c([H])c(Oc6c([H])c([H])c(F)c([H])c6F)c([H])c5[H])c(C(=O)N([H])[H])c4N([H])[H])C3([H])[H])c([H])c([H])c2C1([H])[H]

>  <smiles>  (29) 
[H]c1c([H])c([H])c2c(c1[H])C([H])([H])C([H])([H])C([H])([H])C2([H])N([H])C(=O)C1([H])N(C(=O)C([H])(N([H])C(=O)C([H])(N([H])C([H])([H])[H])C([H])([H])[H])C(C([H])([H])[H])(C([H])([H])[H])C([H])([H])[H])C([H])([H])c2c([H])c(OC([H])([H])C([H])([H])OC([H])([H])C([H])([H])[N+]([H])([H])C([H])([H])C([H])([H])OC([H])([H])C([H])([H])OC([H])([H])C([H])([H])OC([H])([H])C([H])([H])OC([H])([H])C([H])([H])N([H])C(=O)N3C([H])([H])C([H])([H])C([H])([H])C([H])(n4nc(-c5c([H])c([H])c(Oc6c([H])c([H])c(F)c([H])c6F)c([H])c5[H])c(C(=O)N([H])[H])c4N([H])[H])C3([H])[H])c([H])c([H])c2C1([H])[H]

$$$$
29:0:0
     RDKit          3D

101108  0  0  1  0  0  0  0  0999 V2000
  -29.9900  -22.8770   23.0680 C   0  0  0  0  0  3  0  0  0  0  0  0
  -29.8210  -23.4750   21.6680 C   0  0  0  0  0  0  0  0  0  0  0  0
  -28.5800  -23.5540   21.1820 N   0  0  0  0  0  0  0  0  0  0  0  0
  -30.8050  -23.8890   21.0490 O   0  0  0  0  0  0  0  0  0  0  0  0
  -27.8160  -23.1990   21.7470 H   0  0  0  0  0  0  0  0  0  0  0  0
  -28.2060  -24.0690   19.8690 C   0  0  0  0  0  2  0  0  0  0  0  0
  -27.7710  -22.9280   18.9420 C   0  0  0  0  0  2  0  0  0  0  0  0
  -26.3710  -22.7340   19.1000 O   0  0  0  0  0  0  0  0  0  0  0  0
  -25.7370  -22.2530   17.9210 C   0  0  0  0  0  2  0  0  0  0  0  0
  -24.9310  -23.3900   17.2810 C   0  0  0  0  0  2  0  0  0  0  0  0
  -25.5870  -24.6200   17.5760 O   0  0  0  0  0  0  0  0  0  0  0  0
  -25.3580  -28.9370   23.2030 C   0  0  0  0  0  0  0  0  0  0  0  0
  -24.8800  -25.6130   18.2160 C   0  0  0  0  0  0  0  0  0  0  0  0
  -23.3390  -28.9470   21.7720 C   0  0  0  0  0  3  0  0  0  0  0  0
  -23.5580  -27.7320   19.5430 C   0  0  0  0  0  0  0  0  0  0  0  0
  -25.6300  -28.3660   20.7930 C   0  0  0  0  0  2  0  0  0  0  0  0
  -24.9110  -27.4810   19.7970 C   0  0  0  0  0  0  0  0  0  0  0  0
  -25.5740  -26.4290   19.1330 C   0  0  0  0  0  3  0  0  0  0  0  0
  -23.5070  -25.8670   17.9820 C   0  0  0  0  0  3  0  0  0  0  0  0
  -22.8490  -26.9240   18.6390 C   0  0  0  0  0  3  0  0  0  0  0  0
  -22.9260  -28.8900   20.2780 C   0  0  0  0  0  2  0  0  0  0  0  0
  -24.8100  -28.7310   21.9720 N   0  0  0  0  0  0  0  0  0  0  0  0
  -24.6710  -29.3430   24.1510 O   0  0  0  0  0  0  0  0  0  0  0  0
  -22.4610  -27.9470   22.5590 C   0  0  0  0  0  0  0  0  0  0  0  0
  -21.1320  -28.1180   22.4660 N   0  0  0  0  0  0  0  0  0  0  0  0
  -22.9720  -27.0290   23.2050 O   0  0  0  0  0  0  0  0  0  0  0  0
  -20.7930  -28.8990   21.9210 H   0  0  0  0  0  0  0  0  0  0  0  0
  -17.5950  -27.3910   22.5120 C   0  0  0  0  0  0  0  0  0  0  0  0
  -20.1120  -27.2770   23.0890 C   0  0  0  0  0  3  0  0  0  0  0  0
  -20.0870  -25.8660   22.4530 C   0  0  0  0  0  2  0  0  0  0  0  0
  -19.0830  -25.7390   21.3030 C   0  0  0  0  0  2  0  0  0  0  0  0
  -17.6670  -26.0550   21.7920 C   0  0  0  0  0  2  0  0  0  0  0  0
  -18.7450  -27.9710   23.1070 C   0  0  0  0  0  0  0  0  0  0  0  0
  -18.6310  -29.2320   23.7320 C   0  0  0  0  0  3  0  0  0  0  0  0
  -17.3980  -29.9080   23.7710 C   0  0  0  0  0  3  0  0  0  0  0  0
  -16.2570  -29.3210   23.1960 C   0  0  0  0  0  3  0  0  0  0  0  0
  -16.3560  -28.0650   22.5720 C   0  0  0  0  0  3  0  0  0  0  0  0
  -26.8770  -28.6980   23.4730 C   0  0  0  0  0  3  0  0  0  0  0  0
  -27.1510  -27.5220   24.4900 C   0  0  1  0  0  0  0  0  0  0  0  0
  -26.2730  -27.5830   25.7610 C   0  0  0  0  0  1  0  0  0  0  0  0
  -26.9130  -26.1500   23.8160 C   0  0  0  0  0  1  0  0  0  0  0  0
  -28.6340  -27.5460   24.9310 C   0  0  0  0  0  1  0  0  0  0  0  0
  -27.4400  -29.9590   23.9710 N   0  0  0  0  0  0  0  0  0  0  0  0
  -28.3470  -30.6980   23.3170 C   0  0  0  0  0  0  0  0  0  0  0  0
  -28.8530  -30.3450   22.2490 O   0  0  0  0  0  0  0  0  0  0  0  0
  -27.0260  -30.3380   24.8100 H   0  0  0  0  0  0  0  0  0  0  0  0
  -28.0590  -33.1930   23.2010 C   0  0  0  0  0  1  0  0  0  0  0  0
  -28.7530  -32.0430   23.9480 C   0  0  0  0  0  3  0  0  0  0  0  0
  -30.9310  -31.3590   24.8520 C   0  0  0  0  0  1  0  0  0  0  0  0
  -30.2140  -32.2690   23.9630 N   0  0  0  0  0  0  0  0  0  0  0  0
  -30.4280  -33.2230   24.2450 H   0  0  0  0  0  0  0  0  0  0  0  0
  -30.9830  -23.6570   23.8290 N   0  0  0  0  0  4  0  0  0  0  0  0
  -31.8520  -23.6480   23.3220 H   0  0  0  0  0  0  0  0  0  0  0  0
  -31.1270  -23.2820   24.7490 H   0  0  0  0  0  0  0  0  0  0  0  0
  -30.6790  -24.6110   23.9070 H   0  0  0  0  0  0  0  0  0  0  0  0
  -30.3620  -21.3770   23.0310 C   0  0  0  0  0  2  0  0  0  0  0  0
  -31.4410  -21.1350   22.1240 O   0  0  0  0  0  0  0  0  0  0  0  0
  -31.5680  -19.7550   21.7860 C   0  0  0  0  0  2  0  0  0  0  0  0
  -32.9630  -19.4750   21.1970 C   0  0  0  0  0  2  0  0  0  0  0  0
  -32.8760  -19.4010   19.7750 O   0  0  0  0  0  0  0  0  0  0  0  0
  -33.8270  -18.5310   19.1660 C   0  0  0  0  0  2  0  0  0  0  0  0
  -33.1900  -17.1510   18.9160 C   0  0  0  0  0  2  0  0  0  0  0  0
  -34.1810  -15.9830   19.0890 C   0  0  0  0  0  2  0  0  0  0  0  0
  -33.9210  -13.5240   19.5360 C   0  0  0  0  0  0  0  0  0  0  0  0
  -33.5360  -11.2370   20.3850 C   0  0  0  0  0  2  0  0  0  0  0  0
  -32.7080  -10.3760   19.4130 C   0  0  0  0  0  2  0  0  0  0  0  0
  -31.1970  -10.5860   19.6310 C   0  0  0  0  0  2  0  0  0  0  0  0
  -30.8080  -12.0860   19.6710 C   0  0  0  0  0  3  0  0  0  0  0  0
  -31.7380  -12.8730   20.6190 C   0  0  0  0  0  2  0  0  0  0  0  0
  -33.1390  -12.6440   20.2160 N   0  0  0  0  0  0  0  0  0  0  0  0
  -34.9740  -13.2110   18.9720 O   0  0  0  0  0  0  0  0  0  0  0  0
  -33.5030  -14.7950   19.6070 N   0  0  0  0  0  0  0  0  0  0  0  0
  -32.6630  -14.9440   20.1470 H   0  0  0  0  0  0  0  0  0  0  0  0
  -28.6400  -13.4270   20.0360 C   0  0  0  0  0  0  0  0  0  0  0  0
  -27.3710  -13.0410   20.3780 C   0  0  0  0  0  0  0  0  0  0  0  0
  -27.4270  -11.6260   20.5590 C   0  0  0  0  0  0  0  0  0  0  0  0
  -29.4020  -12.2680   20.0250 N   0  0  0  0  0  0  0  0  0  0  0  0
  -28.6680  -11.1860   20.3910 N   0  0  0  0  0  0  0  0  0  0  0  0
  -26.3590  -10.6550   20.8220 C   0  0  0  0  0  0  0  0  0  0  0  0
  -26.3410   -9.8800   22.0040 C   0  0  0  0  0  3  0  0  0  0  0  0
  -25.2970   -8.9610   22.2430 C   0  0  0  0  0  3  0  0  0  0  0  0
  -24.2530   -8.8140   21.3000 C   0  0  0  0  0  0  0  0  0  0  0  0
  -24.2880   -9.5700   20.1150 C   0  0  0  0  0  3  0  0  0  0  0  0
  -25.3310  -10.4790   19.8760 C   0  0  0  0  0  3  0  0  0  0  0  0
  -23.2070   -7.9320   21.4380 O   0  0  0  0  0  0  0  0  0  0  0  0
  -22.6480   -7.6590   22.6600 C   0  0  0  0  0  0  0  0  0  0  0  0
  -22.0230   -8.6610   23.4320 C   0  0  0  0  0  3  0  0  0  0  0  0
  -21.3970   -8.3250   24.6480 C   0  0  0  0  0  3  0  0  0  0  0  0
  -21.3890   -6.9880   25.0910 C   0  0  0  0  0  0  0  0  0  0  0  0
  -22.0060   -5.9880   24.3200 C   0  0  0  0  0  3  0  0  0  0  0  0
  -22.6310   -6.3220   23.1060 C   0  0  0  0  0  0  0  0  0  0  0  0
  -23.2060   -5.3510   22.3560 F   0  0  0  0  0  0  0  0  0  0  0  0
  -20.7830   -6.6630   26.2560 F   0  0  0  0  0  0  0  0  0  0  0  0
  -26.1540  -13.9180   20.4430 C   0  0  0  0  0  0  0  0  0  0  0  0
  -25.2310  -13.6200   21.3520 N   0  0  0  0  0  0  0  0  0  0  0  0
  -26.0360  -14.9040   19.7140 O   0  0  0  0  0  0  0  0  0  0  0  0
  -25.3450  -12.8270   21.9660 H   0  0  0  0  0  0  0  0  0  0  0  0
  -24.3980  -14.1860   21.4280 H   0  0  0  0  0  0  0  0  0  0  0  0
  -29.2060  -14.6570   19.7190 N   0  0  0  0  0  0  0  0  0  0  0  0
  -28.6590  -15.5090   19.6600 H   0  0  0  0  0  0  0  0  0  0  0  0
  -30.1780  -14.7870   19.4640 H   0  0  0  0  0  0  0  0  0  0  0  0
  1 56  1  0
  1 52  1  0
  2  1  1  0
  3  2  1  0
  3  5  1  0
  4  2  2  0
  6  3  1  0
  7  8  1  0
  7  6  1  0
  9  8  1  0
 10 11  1  0
 10  9  1  0
 11 13  1  0
 12 23  2  0
 13 18  1  0
 14 22  1  0
 14 24  1  0
 15 17  1  0
 15 21  1  0
 16 22  1  0
 17 16  1  0
 18 17  2  0
 19 13  2  0
 19 20  1  0
 20 15  2  0
 21 14  1  0
 22 12  1  0
 24 26  2  0
 25 24  1  0
 27 25  1  0
 28 37  2  0
 28 33  1  0
 29 25  1  0
 29 33  1  0
 30 29  1  0
 31 32  1  0
 31 30  1  0
 32 28  1  0
 33 34  2  0
 34 35  1  0
 36 35  2  0
 37 36  1  0
 38 12  1  0
 38 43  1  0
 38 39  1  0
 39 42  1  1
 39 40  1  0
 41 39  1  0
 43 46  1  0
 44 48  1  0
 44 43  1  0
 45 44  2  0
 48 47  1  0
 48 50  1  0
 50 51  1  0
 50 49  1  0
 52 55  1  0
 52 54  1  0
 53 52  1  0
 57 56  1  0
 58 57  1  0
 59 58  1  0
 60 59  1  0
 61 60  1  0
 62 63  1  0
 62 61  1  0
 63 72  1  0
 64 72  1  0
 64 70  1  0
 66 67  1  0
 66 65  1  0
 68 67  1  0
 68 77  1  0
 68 69  1  0
 70 65  1  0
 70 69  1  0
 71 64  2  0
 72 73  1  0
 74 75  2  0
 75 94  1  0
 75 76  1  0
 76 79  1  0
 77 74  1  0
 77 78  1  0
 78 76  2  0
 79 80  1  0
 80 81  2  0
 82 85  1  0
 82 81  1  0
 83 82  2  0
 84 83  1  0
 84 79  2  0
 85 86  1  0
 86 91  2  0
 86 87  1  0
 87 88  2  0
 88 89  1  0
 89 93  1  0
 90 89  2  0
 91 90  1  0
 92 91  1  0
 94 95  1  0
 95 98  1  0
 95 97  1  0
 96 94  2  0
 99 74  1  0
100 99  1  0
101 99  1  0
M  ISO  4  10 101  11 101  64 100  72 100
M  END
>  <TORSDO>  (30) 
F 31

>  <SCORE>  (30) 
-5.235

>  <name>  (30) 
29

>  <ligand_id>  (30) 
29

>  <original_smiles>  (30) 
[H]c1c([H])c([H])c2c(c1[H])C([H])([H])C([H])([H])C([H])([H])C2([H])N([H])C(=O)C1([H])N(C(=O)C([H])(N([H])C(=O)C([H])(N([H])C([H])([H])[H])C([H])([H])[H])C(C([H])([H])[H])(C([H])([H])[H])C([H])([H])[H])C([H])([H])c2c([H])c(OC([H])([H])C([H])([H])OC([H])([H])C([H])([H])N([H])C(=O)C([H])(C([H])([H])OC([H])([H])C([H])([H])OC([H])([H])C([H])([H])C([H])([H])N([H])C(=O)N3C([H])([H])C([H])([H])C([H])([H])C([H])(n4nc(-c5c([H])c([H])c(Oc6c([H])c([H])c(F)c([H])c6F)c([H])c5[H])c(C(=O)N([H])[H])c4N([H])[H])C3([H])[H])[N+]([H])([H])[H])c([H])c([H])c2C1([H])[H]

>  <smiles>  (30) 
[H]c1c([H])c([H])c2c(c1[H])C([H])([H])C([H])([H])C([H])([H])C2([H])N([H])C(=O)C1([H])N(C(=O)C([H])(N([H])C(=O)C([H])(N([H])C([H])([H])[H])C([H])([H])[H])C(C([H])([H])[H])(C([H])([H])[H])C([H])([H])[H])C([H])([H])c2c([H])c(OC([H])([H])C([H])([H])OC([H])([H])C([H])([H])N([H])C(=O)C([H])(C([H])([H])OC([H])([H])C([H])([H])OC([H])([H])C([H])([H])C([H])([H])N([H])C(=O)N3C([H])([H])C([H])([H])C([H])([H])C([H])(n4nc(-c5c([H])c([H])c(Oc6c([H])c([H])c(F)c([H])c6F)c([H])c5[H])c(C(=O)N([H])[H])c4N([H])[H])C3([H])[H])[N+]([H])([H])[H])c([H])c([H])c2C1([H])[H]

$$$$
30:0:0
     RDKit          3D

 98105  0  0  1  0  0  0  0  0999 V2000
  -24.1800  -20.9180   20.8730 C   0  0  0  0  0  2  0  0  0  0  0  0
  -25.4030  -19.2230   19.5250 C   0  0  0  0  0  0  0  0  0  0  0  0
  -24.5330  -20.2300   19.6350 N   0  0  0  0  0  0  0  0  0  0  0  0
  -25.8270  -18.6070   20.5070 O   0  0  0  0  0  0  0  0  0  0  0  0
  -24.2330  -20.6860   18.7840 H   0  0  0  0  0  0  0  0  0  0  0  0
  -25.8710  -18.8680   18.1080 C   0  0  0  0  0  2  0  0  0  0  0  0
  -27.1950  -19.5660   17.7210 C   0  0  0  0  0  0  0  0  0  0  0  0
  -28.3590  -19.2530   18.1540 N   0  0  0  0  0  0  0  0  0  0  0  0
  -27.4100  -21.9160   16.9860 C   0  0  0  0  0  2  0  0  0  0  0  0
  -27.1040  -20.6360   16.7110 C   0  0  0  0  0  3  0  0  0  0  0  0
  -28.5150  -18.1420   19.0690 C   0  0  0  0  0  2  0  0  0  0  0  0
  -29.9290  -18.1160   19.6720 C   0  0  0  0  0  2  0  0  0  0  0  0
  -30.7710  -15.9590   20.6030 C   0  0  0  0  0  0  0  0  0  0  0  0
  -30.9760  -13.6040   21.3120 C   0  0  0  0  0  2  0  0  0  0  0  0
  -30.5430  -12.6320   20.1980 C   0  0  0  0  0  2  0  0  0  0  0  0
  -29.0190  -12.4030   20.2300 C   0  0  0  0  0  2  0  0  0  0  0  0
  -28.2260  -13.7340   20.2680 C   0  0  0  0  0  3  0  0  0  0  0  0
  -28.7750  -14.6470   21.3870 C   0  0  0  0  0  2  0  0  0  0  0  0
  -30.2230  -14.8560   21.1710 N   0  0  0  0  0  0  0  0  0  0  0  0
  -31.9070  -15.9960   20.1210 O   0  0  0  0  0  0  0  0  0  0  0  0
  -29.9750  -17.0310   20.6440 N   0  0  0  0  0  0  0  0  0  0  0  0
  -29.1600  -16.9280   21.2300 H   0  0  0  0  0  0  0  0  0  0  0  0
  -25.7290  -14.3820   20.2900 C   0  0  0  0  0  0  0  0  0  0  0  0
  -24.5940  -13.6380   20.4800 C   0  0  0  0  0  0  0  0  0  0  0  0
  -25.0350  -12.2990   20.7150 C   0  0  0  0  0  0  0  0  0  0  0  0
  -26.7900  -13.4990   20.4230 N   0  0  0  0  0  0  0  0  0  0  0  0
  -26.3600  -12.2480   20.7300 N   0  0  0  0  0  0  0  0  0  0  0  0
  -24.2750  -11.0530   20.8680 C   0  0  0  0  0  0  0  0  0  0  0  0
  -24.4530  -10.2070   21.9860 C   0  0  0  0  0  3  0  0  0  0  0  0
  -23.6940   -9.0240   22.1160 C   0  0  0  0  0  3  0  0  0  0  0  0
  -22.7450   -8.6760   21.1240 C   0  0  0  0  0  0  0  0  0  0  0  0
  -22.5870   -9.5080   20.0030 C   0  0  0  0  0  3  0  0  0  0  0  0
  -23.3480  -10.6830   19.8720 C   0  0  0  0  0  3  0  0  0  0  0  0
  -21.9870   -7.5300   21.1530 O   0  0  0  0  0  0  0  0  0  0  0  0
  -21.6290   -6.9340   22.3350 C   0  0  0  0  0  0  0  0  0  0  0  0
  -20.9070   -7.6280   23.3310 C   0  0  0  0  0  3  0  0  0  0  0  0
  -20.5000   -6.9570   24.5020 C   0  0  0  0  0  3  0  0  0  0  0  0
  -20.8060   -5.5930   24.6730 C   0  0  0  0  0  0  0  0  0  0  0  0
  -21.5200   -4.9010   23.6820 C   0  0  0  0  0  3  0  0  0  0  0  0
  -21.9280   -5.5690   22.5140 C   0  0  0  0  0  0  0  0  0  0  0  0
  -22.5990   -4.8910   21.5510 F   0  0  0  0  0  0  0  0  0  0  0  0
  -20.4080   -4.9460   25.7930 F   0  0  0  0  0  0  0  0  0  0  0  0
  -23.1760  -14.1170   20.3490 C   0  0  0  0  0  0  0  0  0  0  0  0
  -22.2550  -13.5320   21.1080 N   0  0  0  0  0  0  0  0  0  0  0  0
  -22.8840  -15.0530   19.6060 O   0  0  0  0  0  0  0  0  0  0  0  0
  -22.4910  -12.7770   21.7340 H   0  0  0  0  0  0  0  0  0  0  0  0
  -21.2960  -13.8470   21.0610 H   0  0  0  0  0  0  0  0  0  0  0  0
  -25.9410  -15.7260   19.9960 N   0  0  0  0  0  0  0  0  0  0  0  0
  -25.1610  -16.3340   19.7720 H   0  0  0  0  0  0  0  0  0  0  0  0
  -26.8340  -16.1040   19.7120 H   0  0  0  0  0  0  0  0  0  0  0  0
  -23.9150  -22.3940   20.5540 C   0  0  0  0  0  2  0  0  0  0  0  0
  -25.1500  -22.9390   20.1070 O   0  0  0  0  0  0  0  0  0  0  0  0
  -25.0310  -24.2010   19.4700 C   0  0  0  0  0  2  0  0  0  0  0  0
  -26.4370  -24.6320   19.0320 C   0  0  0  0  0  2  0  0  0  0  0  0
  -27.1860  -24.9960   20.1850 O   0  0  0  0  0  0  0  0  0  0  0  0
  -28.5810  -25.0920   19.9370 C   0  0  0  0  0  2  0  0  0  0  0  0
  -29.2150  -26.2040   20.7930 C   0  0  0  0  0  2  0  0  0  0  0  0
  -29.1230  -27.4870   20.1720 O   0  0  0  0  0  0  0  0  0  0  0  0
  -25.3860  -31.6140   24.6060 C   0  0  0  0  0  0  0  0  0  0  0  0
  -27.9590  -28.1730   20.4150 C   0  0  0  0  0  0  0  0  0  0  0  0
  -24.1550  -30.7370   22.6460 C   0  0  0  0  0  3  0  0  0  0  0  0
  -25.5850  -29.6290   20.8490 C   0  0  0  0  0  0  0  0  0  0  0  0
  -26.6830  -31.0960   22.5480 C   0  0  0  0  0  2  0  0  0  0  0  0
  -26.7460  -29.9520   21.5620 C   0  0  0  0  0  0  0  0  0  0  0  0
  -27.9370  -29.2240   21.3540 C   0  0  0  0  0  3  0  0  0  0  0  0
  -26.7940  -27.8750   19.6850 C   0  0  0  0  0  3  0  0  0  0  0  0
  -25.5990  -28.5820   19.9100 C   0  0  0  0  0  3  0  0  0  0  0  0
  -24.3560  -30.4620   21.1320 C   0  0  0  0  0  2  0  0  0  0  0  0
  -25.4250  -31.1460   23.3260 N   0  0  0  0  0  0  0  0  0  0  0  0
  -24.3120  -31.7450   25.2080 O   0  0  0  0  0  0  0  0  0  0  0  0
  -23.4890  -29.5000   23.2910 C   0  0  0  0  0  0  0  0  0  0  0  0
  -22.2200  -29.2460   22.9300 N   0  0  0  0  0  0  0  0  0  0  0  0
  -24.1170  -28.7830   24.0730 O   0  0  0  0  0  0  0  0  0  0  0  0
  -21.7720  -29.8930   22.2940 H   0  0  0  0  0  0  0  0  0  0  0  0
  -19.0190  -27.6230   22.5250 C   0  0  0  0  0  0  0  0  0  0  0  0
  -21.4100  -28.1140   23.3780 C   0  0  0  0  0  3  0  0  0  0  0  0
  -21.8250  -26.8100   22.6560 C   0  0  0  0  0  2  0  0  0  0  0  0
  -20.9990  -26.5270   21.3950 C   0  0  0  0  0  2  0  0  0  0  0  0
  -19.5120  -26.4180   21.7420 C   0  0  0  0  0  2  0  0  0  0  0  0
  -19.9130  -28.4290   23.2800 C   0  0  0  0  0  0  0  0  0  0  0  0
  -19.4120  -29.5600   23.9590 C   0  0  0  0  0  3  0  0  0  0  0  0
  -18.0440  -29.8870   23.9030 C   0  0  0  0  0  3  0  0  0  0  0  0
  -17.1600  -29.0750   23.1690 C   0  0  0  0  0  3  0  0  0  0  0  0
  -17.6460  -27.9450   22.4870 C   0  0  0  0  0  3  0  0  0  0  0  0
  -26.6870  -32.0300   25.3620 C   0  0  0  0  0  3  0  0  0  0  0  0
  -26.5420  -33.4400   25.7460 N   0  0  0  0  0  0  0  0  0  0  0  0
  -27.1260  -34.4650   25.1090 C   0  0  0  0  0  0  0  0  0  0  0  0
  -27.9150  -34.3090   24.1730 O   0  0  0  0  0  0  0  0  0  0  0  0
  -25.8730  -33.6410   26.4740 H   0  0  0  0  0  0  0  0  0  0  0  0
  -25.8000  -36.5390   24.6050 C   0  0  0  0  0  1  0  0  0  0  0  0
  -26.7850  -35.8870   25.5880 C   0  0  0  0  0  3  0  0  0  0  0  0
  -28.8380  -36.3490   26.8550 C   0  0  0  0  0  1  0  0  0  0  0  0
  -27.9730  -36.7540   25.7500 N   0  0  0  0  0  0  0  0  0  0  0  0
  -27.6940  -37.7190   25.9050 H   0  0  0  0  0  0  0  0  0  0  0  0
  -26.9870  -31.1330   26.6260 C   0  0  1  0  0  0  0  0  0  0  0  0
  -25.7980  -31.0200   27.6100 C   0  0  0  0  0  1  0  0  0  0  0  0
  -27.3830  -29.7000   26.2000 C   0  0  0  0  0  1  0  0  0  0  0  0
  -28.1950  -31.7100   27.4010 C   0  0  0  0  0  1  0  0  0  0  0  0
  2  3  1  0
  2  4  2  0
  3  1  1  0
  5  3  1  0
  6  2  1  0
  7  6  1  0
  7  8  2  0
  8 11  1  0
 10  9  2  0
 10  7  1  0
 11 12  1  0
 12 21  1  0
 13 21  1  0
 13 19  1  0
 15 16  1  0
 15 14  1  0
 17 16  1  0
 17 26  1  0
 17 18  1  0
 19 14  1  0
 19 18  1  0
 20 13  2  0
 21 22  1  0
 23 26  1  0
 23 24  2  0
 24 25  1  0
 25 27  2  0
 25 28  1  0
 26 27  1  0
 28 29  1  0
 29 30  2  0
 31 34  1  0
 31 30  1  0
 32 31  2  0
 33 32  1  0
 33 28  2  0
 34 35  1  0
 35 40  2  0
 35 36  1  0
 36 37  2  0
 37 38  1  0
 38 42  1  0
 39 38  2  0
 40 39  1  0
 41 40  1  0
 43 24  1  0
 43 44  1  0
 44 46  1  0
 45 43  2  0
 47 44  1  0
 48 23  1  0
 49 48  1  0
 50 48  1  0
 51  1  1  0
 52 51  1  0
 53 52  1  0
 54 53  1  0
 54 55  1  0
 56 55  1  0
 56 57  1  0
 58 60  1  0
 58 57  1  0
 59 70  2  0
 60 65  1  0
 61 71  1  0
 61 69  1  0
 62 68  1  0
 62 64  1  0
 63 69  1  0
 64 63  1  0
 65 64  2  0
 66 67  1  0
 66 60  2  0
 67 62  2  0
 68 61  1  0
 69 59  1  0
 71 73  2  0
 72 71  1  0
 74 72  1  0
 75 80  1  0
 76 72  1  0
 77 76  1  0
 78 79  1  0
 78 77  1  0
 79 75  1  0
 80 76  1  0
 80 81  2  0
 82 81  1  0
 83 82  2  0
 84 75  2  0
 84 83  1  0
 85 59  1  0
 85 86  1  0
 85 95  1  0
 86 89  1  0
 87 91  1  0
 87 86  1  0
 88 87  2  0
 91 90  1  0
 91 93  1  0
 93 94  1  0
 93 92  1  0
 95 98  1  1
 95 96  1  0
 97 95  1  0
M  ISO  4  13 100  21 100  57 101  58 101
M  END
>  <TORSDO>  (31) 
F 29

>  <SCORE>  (31) 
2.732

>  <name>  (31) 
30

>  <ligand_id>  (31) 
30

>  <original_smiles>  (31) 
[H]C([H])=C([H])C(=NC([H])([H])C([H])([H])N([H])C(=O)N1C([H])([H])C([H])([H])C([H])([H])C([H])(n2nc(-c3c([H])c([H])c(Oc4c([H])c([H])c(F)c([H])c4F)c([H])c3[H])c(C(=O)N([H])[H])c2N([H])[H])C1([H])[H])C([H])([H])C(=O)N([H])C([H])([H])C([H])([H])OC([H])([H])C([H])([H])OC([H])([H])C([H])([H])Oc1c([H])c([H])c2c(c1[H])C([H])([H])N(C(=O)C([H])(N([H])C(=O)C([H])(N([H])C([H])([H])[H])C([H])([H])[H])C(C([H])([H])[H])(C([H])([H])[H])C([H])([H])[H])C([H])(C(=O)N([H])C1([H])c3c([H])c([H])c([H])c([H])c3C([H])([H])C([H])([H])C1([H])[H])C2([H])[H]

>  <smiles>  (31) 
[H]C([H])=C([H])C(=NC([H])([H])C([H])([H])N([H])C(=O)N1C([H])([H])C([H])([H])C([H])([H])C([H])(n2nc(-c3c([H])c([H])c(Oc4c([H])c([H])c(F)c([H])c4F)c([H])c3[H])c(C(=O)N([H])[H])c2N([H])[H])C1([H])[H])C([H])([H])C(=O)N([H])C([H])([H])C([H])([H])OC([H])([H])C([H])([H])OC([H])([H])C([H])([H])Oc1c([H])c([H])c2c(c1[H])C([H])([H])N(C(=O)C([H])(N([H])C(=O)C([H])(N([H])C([H])([H])[H])C([H])([H])[H])C(C([H])([H])[H])(C([H])([H])[H])C([H])([H])[H])C([H])(C(=O)N([H])C1([H])c3c([H])c([H])c([H])c([H])c3C([H])([H])C([H])([H])C1([H])[H])C2([H])[H]

$$$$
31:0:0
     RDKit          3D

 96104  0  0  1  0  0  0  0  0999 V2000
  -29.0910  -20.4340   21.4000 C   0  0  0  0  0  2  0  0  0  0  0  0
  -29.9400  -19.6600   19.0370 C   0  0  0  0  0  3  0  0  0  0  0  0
  -30.2670  -18.5880   20.1640 C   0  0  0  0  0  3  0  0  0  0  0  0
  -29.8090  -21.5690   20.5830 C   0  0  0  0  0  3  0  0  0  0  0  0
  -29.8190  -19.1640   21.4190 O   0  0  0  0  0  0  0  0  0  0  0  0
  -30.3540  -21.0010   19.4100 O   0  0  0  0  0  0  0  0  0  0  0  0
  -30.5610  -19.3730   17.6530 C   0  0  0  0  0  2  0  0  0  0  0  0
  -29.8200  -20.1140   16.6840 O   0  0  0  0  0  0  0  0  0  0  0  0
  -30.6370  -18.7350   14.8530 C   0  0  0  0  0  2  0  0  0  0  0  0
  -29.8120  -19.6530   15.3880 C   0  0  0  0  0  3  0  0  0  0  0  0
  -29.6810  -17.1110   19.8630 C   0  0  0  0  0  3  0  0  0  0  0  0
  -30.7800  -14.7920   20.2210 C   0  0  0  0  0  0  0  0  0  0  0  0
  -30.5410  -12.5360   19.1970 C   0  0  0  0  0  2  0  0  0  0  0  0
  -29.5890  -12.6540   17.9860 C   0  0  0  0  0  2  0  0  0  0  0  0
  -28.1230  -12.4850   18.4270 C   0  0  0  0  0  2  0  0  0  0  0  0
  -27.7740  -13.3520   19.6650 C   0  0  0  0  0  3  0  0  0  0  0  0
  -28.8460  -13.2360   20.7760 C   0  0  0  0  0  2  0  0  0  0  0  0
  -30.1560  -13.5670   20.1880 N   0  0  0  0  0  0  0  0  0  0  0  0
  -31.8940  -14.9500   19.7180 O   0  0  0  0  0  0  0  0  0  0  0  0
  -30.0580  -15.8730   20.6550 N   0  0  0  0  0  0  0  0  0  0  0  0
  -29.3010  -15.5860   21.2570 H   0  0  0  0  0  0  0  0  0  0  0  0
  -25.3790  -13.9540   20.4020 C   0  0  0  0  0  0  0  0  0  0  0  0
  -24.3200  -13.1840   20.7960 C   0  0  0  0  0  0  0  0  0  0  0  0
  -24.7860  -11.8340   20.7630 C   0  0  0  0  0  0  0  0  0  0  0  0
  -26.4260  -13.0760   20.1620 N   0  0  0  0  0  0  0  0  0  0  0  0
  -26.0730  -11.7950   20.4390 N   0  0  0  0  0  0  0  0  0  0  0  0
  -24.0590  -10.5730   20.9610 C   0  0  0  0  0  0  0  0  0  0  0  0
  -24.4910   -9.6110   21.8990 C   0  0  0  0  0  3  0  0  0  0  0  0
  -23.7620   -8.4170   22.0880 C   0  0  0  0  0  3  0  0  0  0  0  0
  -22.5850   -8.1780   21.3370 C   0  0  0  0  0  0  0  0  0  0  0  0
  -22.1720   -9.1290   20.3870 C   0  0  0  0  0  3  0  0  0  0  0  0
  -22.9040  -10.3130   20.1970 C   0  0  0  0  0  3  0  0  0  0  0  0
  -21.8290   -7.0350   21.4330 O   0  0  0  0  0  0  0  0  0  0  0  0
  -21.7660   -6.3130   22.5980 C   0  0  0  0  0  0  0  0  0  0  0  0
  -21.3040   -6.8830   23.8050 C   0  0  0  0  0  3  0  0  0  0  0  0
  -21.1890   -6.0860   24.9610 C   0  0  0  0  0  3  0  0  0  0  0  0
  -21.5270   -4.7200   24.9120 C   0  0  0  0  0  0  0  0  0  0  0  0
  -21.9800   -4.1500   23.7090 C   0  0  0  0  0  3  0  0  0  0  0  0
  -22.0990   -4.9450   22.5560 C   0  0  0  0  0  0  0  0  0  0  0  0
  -22.5190   -4.3850   21.3950 F   0  0  0  0  0  0  0  0  0  0  0  0
  -21.4090   -3.9530   26.0200 F   0  0  0  0  0  0  0  0  0  0  0  0
  -22.9260  -13.6660   21.0800 C   0  0  0  0  0  0  0  0  0  0  0  0
  -22.2050  -12.9790   21.9570 N   0  0  0  0  0  0  0  0  0  0  0  0
  -22.4830  -14.6900   20.5620 O   0  0  0  0  0  0  0  0  0  0  0  0
  -22.5740  -12.1550   22.4060 H   0  0  0  0  0  0  0  0  0  0  0  0
  -21.2720  -13.2900   22.1890 H   0  0  0  0  0  0  0  0  0  0  0  0
  -25.5150  -15.3210   20.2030 N   0  0  0  0  0  0  0  0  0  0  0  0
  -24.7010  -15.9230   20.2540 H   0  0  0  0  0  0  0  0  0  0  0  0
  -26.2620  -15.7200   19.6320 H   0  0  0  0  0  0  0  0  0  0  0  0
  -28.1370  -17.1730   19.8670 C   0  0  0  0  0  2  0  0  0  0  0  0
  -27.6080  -16.7350   18.6290 O   0  0  0  0  0  0  0  0  0  0  0  0
  -27.7890  -17.3950   17.9670 H   0  0  0  0  0  0  0  0  0  0  0  0
  -28.8910  -22.6450   20.3030 O   0  0  0  0  0  0  0  0  0  0  0  0
  -29.3300  -24.0530   20.3440 C   0  0  0  0  0  2  0  0  0  0  0  0
  -28.1940  -25.1110   19.9760 C   0  0  0  0  0  2  0  0  0  0  0  0
  -28.3720  -26.5660   20.2170 O   0  0  0  0  0  0  0  0  0  0  0  0
  -24.5860  -31.9260   23.2380 C   0  0  0  0  0  0  0  0  0  0  0  0
  -27.2350  -27.3950   20.1700 C   0  0  0  0  0  0  0  0  0  0  0  0
  -23.3890  -30.5250   21.5940 C   0  0  0  0  0  3  0  0  0  0  0  0
  -24.8490  -28.9850   20.1700 C   0  0  0  0  0  0  0  0  0  0  0  0
  -25.9270  -30.8570   21.4140 C   0  0  0  0  0  2  0  0  0  0  0  0
  -26.0160  -29.4810   20.7650 C   0  0  0  0  0  0  0  0  0  0  0  0
  -27.2090  -28.6980   20.7590 C   0  0  0  0  0  3  0  0  0  0  0  0
  -26.0400  -26.9490   19.5570 C   0  0  0  0  0  3  0  0  0  0  0  0
  -24.8630  -27.7200   19.5610 C   0  0  0  0  0  3  0  0  0  0  0  0
  -23.6060  -29.8480   20.2150 C   0  0  0  0  0  2  0  0  0  0  0  0
  -24.6520  -31.1200   22.1380 N   0  0  0  0  0  0  0  0  0  0  0  0
  -23.5010  -32.1960   23.7740 O   0  0  0  0  0  0  0  0  0  0  0  0
  -22.7310  -29.5050   22.5520 C   0  0  0  0  0  0  0  0  0  0  0  0
  -21.4060  -29.3190   22.4230 N   0  0  0  0  0  0  0  0  0  0  0  0
  -23.4120  -28.8810   23.3710 O   0  0  0  0  0  0  0  0  0  0  0  0
  -20.9140  -29.8710   21.7330 H   0  0  0  0  0  0  0  0  0  0  0  0
  -18.0330  -28.1190   22.9330 C   0  0  0  0  0  0  0  0  0  0  0  0
  -20.5930  -28.3780   23.1940 C   0  0  0  0  0  3  0  0  0  0  0  0
  -20.6940  -26.9490   22.6120 C   0  0  0  0  0  2  0  0  0  0  0  0
  -19.5880  -26.6310   21.6000 C   0  0  0  0  0  2  0  0  0  0  0  0
  -18.2090  -26.7730   22.2510 C   0  0  0  0  0  2  0  0  0  0  0  0
  -19.1530  -28.8800   23.3620 C   0  0  0  0  0  0  0  0  0  0  0  0
  -18.9370  -30.1390   23.9620 C   0  0  0  0  0  3  0  0  0  0  0  0
  -17.6320  -30.6390   24.1380 C   0  0  0  0  0  3  0  0  0  0  0  0
  -16.5270  -29.8750   23.7260 C   0  0  0  0  0  3  0  0  0  0  0  0
  -16.7280  -28.6190   23.1280 C   0  0  0  0  0  3  0  0  0  0  0  0
  -25.8650  -32.5650   23.8590 C   0  0  0  0  0  3  0  0  0  0  0  0
  -26.3770  -31.8050   25.1420 C   0  0  1  0  0  0  0  0  0  0  0  0
  -25.2790  -31.5710   26.2060 C   0  0  0  0  0  1  0  0  0  0  0  0
  -26.9660  -30.4260   24.7650 C   0  0  0  0  0  1  0  0  0  0  0  0
  -27.5210  -32.6070   25.8080 C   0  0  0  0  0  1  0  0  0  0  0  0
  -25.5520  -33.9660   24.1800 N   0  0  0  0  0  0  0  0  0  0  0  0
  -25.8950  -35.0170   23.4220 C   0  0  0  0  0  0  0  0  0  0  0  0
  -26.5770  -34.9090   22.4000 O   0  0  0  0  0  0  0  0  0  0  0  0
  -24.9460  -34.1220   24.9720 H   0  0  0  0  0  0  0  0  0  0  0  0
  -24.1850  -36.8200   23.0310 C   0  0  0  0  0  1  0  0  0  0  0  0
  -25.4040  -36.4070   23.8720 C   0  0  0  0  0  3  0  0  0  0  0  0
  -27.5180  -37.2820   24.7620 C   0  0  0  0  0  1  0  0  0  0  0  0
  -26.4440  -37.4550   23.7870 N   0  0  0  0  0  0  0  0  0  0  0  0
  -26.0380  -38.3770   23.9260 H   0  0  0  0  0  0  0  0  0  0  0  0
  1  5  1  0
  2  7  1  0
  2  6  1  0
  2  3  1  0
  3 11  1  0
  3  5  1  0
  4 53  1  0
  4  1  1  0
  6  4  1  0
  8  7  1  0
  9 10  2  0
 10  8  1  0
 11 50  1  0
 11 20  1  0
 12 20  1  0
 13 18  1  0
 14 15  1  0
 14 13  1  0
 16 15  1  0
 16 25  1  0
 16 17  1  0
 18 12  1  0
 18 17  1  0
 19 12  2  0
 20 21  1  0
 22 23  2  0
 23 42  1  0
 24 23  1  0
 24 27  1  0
 25 22  1  0
 25 26  1  0
 26 24  2  0
 27 28  1  0
 28 29  2  0
 30 33  1  0
 30 29  1  0
 31 30  2  0
 32 31  1  0
 32 27  2  0
 33 34  1  0
 34 35  1  0
 35 36  2  0
 37 36  1  0
 37 41  1  0
 38 37  2  0
 39 34  2  0
 39 38  1  0
 40 39  1  0
 42 43  1  0
 43 46  1  0
 43 45  1  0
 44 42  2  0
 47 48  1  0
 47 22  1  0
 49 47  1  0
 51 50  1  0
 52 51  1  0
 53 54  1  0
 55 56  1  0
 55 54  1  0
 57 68  2  0
 58 56  1  0
 58 63  1  0
 59 67  1  0
 59 69  1  0
 60 66  1  0
 60 62  1  0
 61 67  1  0
 62 61  1  0
 63 62  2  0
 64 65  1  0
 64 58  2  0
 65 60  2  0
 66 59  1  0
 67 57  1  0
 69 71  2  0
 70 69  1  0
 72 70  1  0
 73 82  2  0
 73 78  1  0
 74 70  1  0
 74 78  1  0
 75 74  1  0
 76 77  1  0
 76 75  1  0
 77 73  1  0
 78 79  2  0
 79 80  1  0
 81 80  2  0
 82 81  1  0
 83 57  1  0
 83 88  1  0
 83 84  1  0
 84 87  1  1
 84 85  1  0
 86 84  1  0
 88 91  1  0
 89 93  1  0
 89 88  1  0
 90 89  2  0
 93 92  1  0
 95 93  1  0
 95 96  1  0
 95 94  1  0
M  ISO  4  12 100  20 100  55 101  56 101
M  END
>  <TORSDO>  (32) 
F 25

>  <SCORE>  (32) 
-12.453

>  <name>  (32) 
31

>  <ligand_id>  (32) 
31

>  <original_smiles>  (32) 
[H]OC([H])([H])C([H])(N([H])C(=O)N1C([H])([H])C([H])([H])C([H])([H])C([H])(n2nc(-c3c([H])c([H])c(Oc4c([H])c([H])c(F)c([H])c4F)c([H])c3[H])c(C(=O)N([H])[H])c2N([H])[H])C1([H])[H])C1([H])OC([H])([H])C([H])(OC([H])([H])C([H])([H])Oc2c([H])c([H])c3c(c2[H])C([H])([H])N(C(=O)C([H])(N([H])C(=O)C([H])(N([H])C([H])([H])[H])C([H])([H])[H])C(C([H])([H])[H])(C([H])([H])[H])C([H])([H])[H])C([H])(C(=O)N([H])C2([H])c4c([H])c([H])c([H])c([H])c4C([H])([H])C([H])([H])C2([H])[H])C3([H])[H])OC1([H])C([H])([H])OC([H])=C([H])[H]

>  <smiles>  (32) 
[H]OC([H])([H])C([H])(N([H])C(=O)N1C([H])([H])C([H])([H])C([H])([H])C([H])(n2nc(-c3c([H])c([H])c(Oc4c([H])c([H])c(F)c([H])c4F)c([H])c3[H])c(C(=O)N([H])[H])c2N([H])[H])C1([H])[H])C1([H])OC([H])([H])C([H])(OC([H])([H])C([H])([H])Oc2c([H])c([H])c3c(c2[H])C([H])([H])N(C(=O)C([H])(N([H])C(=O)C([H])(N([H])C([H])([H])[H])C([H])([H])[H])C(C([H])([H])[H])(C([H])([H])[H])C([H])([H])[H])C([H])(C(=O)N([H])C2([H])c4c([H])c([H])c([H])c([H])c4C([H])([H])C([H])([H])C2([H])[H])C3([H])[H])OC1([H])C([H])([H])OC([H])=C([H])[H]

$$$$
32:0:0
     RDKit          3D

 97104  0  0  1  0  0  0  0  0999 V2000
  -28.0010  -18.2430   20.1010 C   0  0  0  0  0  0  0  0  0  0  0  0
  -28.5180  -17.0990   20.5670 N   0  0  0  0  0  0  0  0  0  0  0  0
  -26.8530  -18.5710   20.3980 O   0  0  0  0  0  0  0  0  0  0  0  0
  -27.9410  -16.5650   21.2030 H   0  0  0  0  0  0  0  0  0  0  0  0
  -29.8890  -16.6070   20.4180 C   0  0  0  0  0  3  0  0  0  0  0  0
  -30.8360  -17.5900   21.1310 C   0  0  0  0  0  0  0  0  0  0  0  0
  -31.8750  -18.0410   20.4390 N   0  0  0  0  0  0  0  0  0  0  0  0
  -30.6270  -17.9450   22.2890 O   0  0  0  0  0  0  0  0  0  0  0  0
  -32.0310  -17.7410   19.4870 H   0  0  0  0  0  0  0  0  0  0  0  0
  -32.5080  -18.7130   20.8490 H   0  0  0  0  0  0  0  0  0  0  0  0
  -29.9370  -15.2070   21.0750 C   0  0  0  0  0  2  0  0  0  0  0  0
  -31.7950  -13.3890   21.1450 C   0  0  0  0  0  0  0  0  0  0  0  0
  -31.5420  -10.9340   21.2350 C   0  0  0  0  0  2  0  0  0  0  0  0
  -30.9820  -10.4200   19.8920 C   0  0  0  0  0  2  0  0  0  0  0  0
  -29.4330  -10.4800   19.8790 C   0  0  0  0  0  2  0  0  0  0  0  0
  -28.8930  -11.8460   20.3810 C   0  0  0  0  0  3  0  0  0  0  0  0
  -29.5870  -12.2250   21.7150 C   0  0  0  0  0  2  0  0  0  0  0  0
  -31.0270  -12.2980   21.4490 N   0  0  0  0  0  0  0  0  0  0  0  0
  -32.9930  -13.2820   20.8730 O   0  0  0  0  0  0  0  0  0  0  0  0
  -31.2870  -14.6350   21.2030 N   0  0  0  0  0  0  0  0  0  0  0  0
  -32.0230  -15.3190   21.0990 H   0  0  0  0  0  0  0  0  0  0  0  0
  -26.5250  -12.8700   20.2700 C   0  0  0  0  0  0  0  0  0  0  0  0
  -25.2880  -12.3200   20.4770 C   0  0  0  0  0  0  0  0  0  0  0  0
  -25.5180  -10.9540   20.8260 C   0  0  0  0  0  0  0  0  0  0  0  0
  -27.4360  -11.8460   20.5050 N   0  0  0  0  0  0  0  0  0  0  0  0
  -26.8170  -10.7030   20.8860 N   0  0  0  0  0  0  0  0  0  0  0  0
  -24.5740   -9.8500   21.0500 C   0  0  0  0  0  0  0  0  0  0  0  0
  -24.5080   -9.1790   22.2900 C   0  0  0  0  0  3  0  0  0  0  0  0
  -23.5830   -8.1330   22.4910 C   0  0  0  0  0  3  0  0  0  0  0  0
  -22.7130   -7.7470   21.4460 C   0  0  0  0  0  0  0  0  0  0  0  0
  -22.7970   -8.4020   20.2050 C   0  0  0  0  0  3  0  0  0  0  0  0
  -23.7200   -9.4400   20.0040 C   0  0  0  0  0  3  0  0  0  0  0  0
  -21.8020   -6.7240   21.5380 O   0  0  0  0  0  0  0  0  0  0  0  0
  -21.1570   -6.4370   22.7140 C   0  0  0  0  0  0  0  0  0  0  0  0
  -20.3360   -7.3860   23.3610 C   0  0  0  0  0  3  0  0  0  0  0  0
  -19.6380   -7.0280   24.5340 C   0  0  0  0  0  3  0  0  0  0  0  0
  -19.7540   -5.7230   25.0510 C   0  0  0  0  0  0  0  0  0  0  0  0
  -20.5680   -4.7780   24.4050 C   0  0  0  0  0  3  0  0  0  0  0  0
  -21.2660   -5.1340   23.2380 C   0  0  0  0  0  0  0  0  0  0  0  0
  -22.0340   -4.2120   22.6050 F   0  0  0  0  0  0  0  0  0  0  0  0
  -19.0770   -5.3770   26.1690 F   0  0  0  0  0  0  0  0  0  0  0  0
  -23.9580  -12.9940   20.2720 C   0  0  0  0  0  0  0  0  0  0  0  0
  -22.9500  -12.6070   21.0480 N   0  0  0  0  0  0  0  0  0  0  0  0
  -23.8190  -13.9020   19.4530 O   0  0  0  0  0  0  0  0  0  0  0  0
  -23.0610  -11.8690   21.7260 H   0  0  0  0  0  0  0  0  0  0  0  0
  -22.0470  -13.0530   20.9610 H   0  0  0  0  0  0  0  0  0  0  0  0
  -26.9570  -14.1380   19.8900 N   0  0  0  0  0  0  0  0  0  0  0  0
  -26.3210  -14.8830   19.6240 H   0  0  0  0  0  0  0  0  0  0  0  0
  -27.9290  -14.3870   19.7760 H   0  0  0  0  0  0  0  0  0  0  0  0
  -28.8520  -19.1360   19.1920 C   0  0  0  0  0  2  0  0  0  0  0  0
  -28.0460  -20.1720   18.3890 C   0  0  0  0  0  2  0  0  0  0  0  0
  -28.9380  -21.3470   17.9850 C   0  0  0  0  0  2  0  0  0  0  0  0
  -29.2260  -22.0810   19.1700 O   0  0  0  0  0  0  0  0  0  0  0  0
  -30.5210  -22.6690   19.1950 C   0  0  0  0  0  2  0  0  0  0  0  0
  -30.4710  -23.9210   20.0830 C   0  0  0  0  0  2  0  0  0  0  0  0
  -31.2010  -25.1210   19.4480 C   0  0  0  0  0  2  0  0  0  0  0  0
  -30.9970  -26.3140   20.2080 O   0  0  0  0  0  0  0  0  0  0  0  0
  -26.4060  -30.0140   24.1390 C   0  0  0  0  0  0  0  0  0  0  0  0
  -29.7570  -26.9240   20.2170 C   0  0  0  0  0  0  0  0  0  0  0  0
  -25.5520  -29.2680   21.9440 C   0  0  0  0  0  3  0  0  0  0  0  0
  -27.2860  -28.3000   20.3490 C   0  0  0  0  0  0  0  0  0  0  0  0
  -28.0490  -29.6800   22.2940 C   0  0  0  0  0  2  0  0  0  0  0  0
  -28.3060  -28.6050   21.2580 C   0  0  0  0  0  0  0  0  0  0  0  0
  -29.5380  -27.9250   21.1890 C   0  0  0  0  0  3  0  0  0  0  0  0
  -28.7070  -26.6120   19.3150 C   0  0  0  0  0  3  0  0  0  0  0  0
  -27.4760  -27.2990   19.3810 C   0  0  0  0  0  3  0  0  0  0  0  0
  -26.0080  -29.0990   20.4710 C   0  0  0  0  0  2  0  0  0  0  0  0
  -26.6780  -29.6470   22.8550 N   0  0  0  0  0  0  0  0  0  0  0  0
  -25.2390  -30.0790   24.5530 O   0  0  0  0  0  0  0  0  0  0  0  0
  -24.8140  -27.9820   22.3790 C   0  0  0  0  0  0  0  0  0  0  0  0
  -23.5590  -27.8340   21.9290 N   0  0  0  0  0  0  0  0  0  0  0  0
  -25.3750  -27.1360   23.0840 O   0  0  0  0  0  0  0  0  0  0  0  0
  -23.1630  -28.5710   21.3640 H   0  0  0  0  0  0  0  0  0  0  0  0
  -20.2770  -26.4770   21.2770 C   0  0  0  0  0  0  0  0  0  0  0  0
  -22.6900  -26.6870   22.1780 C   0  0  0  0  0  3  0  0  0  0  0  0
  -23.0400  -25.5120   21.2370 C   0  0  0  0  0  2  0  0  0  0  0  0
  -22.2060  -25.5030   19.9570 C   0  0  0  0  0  2  0  0  0  0  0  0
  -20.7130  -25.4060   20.2880 C   0  0  0  0  0  2  0  0  0  0  0  0
  -21.2110  -27.0910   22.1550 C   0  0  0  0  0  0  0  0  0  0  0  0
  -20.7650  -28.1030   23.0330 C   0  0  0  0  0  3  0  0  0  0  0  0
  -19.4140  -28.4990   23.0450 C   0  0  0  0  0  3  0  0  0  0  0  0
  -18.4930  -27.8770   22.1810 C   0  0  0  0  0  3  0  0  0  0  0  0
  -18.9240  -26.8650   21.3050 C   0  0  0  0  0  3  0  0  0  0  0  0
  -27.5380  -30.3840   25.1460 C   0  0  0  0  0  3  0  0  0  0  0  0
  -27.7710  -29.2880   26.2580 C   0  0  1  0  0  0  0  0  0  0  0  0
  -26.4810  -28.8650   26.9990 C   0  0  0  0  0  1  0  0  0  0  0  0
  -28.4010  -28.0190   25.6420 C   0  0  0  0  0  1  0  0  0  0  0  0
  -28.7780  -29.8130   27.3080 C   0  0  0  0  0  1  0  0  0  0  0  0
  -27.1840  -31.6740   25.7530 N   0  0  0  0  0  0  0  0  0  0  0  0
  -27.7120  -32.8500   25.3900 C   0  0  0  0  0  0  0  0  0  0  0  0
  -28.6090  -32.9520   24.5500 O   0  0  0  0  0  0  0  0  0  0  0  0
  -26.4150  -31.6770   26.4060 H   0  0  0  0  0  0  0  0  0  0  0  0
  -26.1670  -34.8200   25.1300 C   0  0  0  0  0  1  0  0  0  0  0  0
  -27.1530  -34.1150   26.0740 C   0  0  0  0  0  3  0  0  0  0  0  0
  -29.0260  -34.5770   27.5940 C   0  0  0  0  0  1  0  0  0  0  0  0
  -28.2050  -35.0660   26.4910 N   0  0  0  0  0  0  0  0  0  0  0  0
  -27.7990  -35.9570   26.7680 H   0  0  0  0  0  0  0  0  0  0  0  0
  1  3  2  0
  1  2  1  0
  2  4  1  0
  5  2  1  0
  5 11  1  0
  5  6  1  0
  6  8  2  0
  7 10  1  0
  7  6  1  0
  9  7  1  0
 11 20  1  0
 12 20  1  0
 12 18  1  0
 13 18  1  0
 14 13  1  0
 15 14  1  0
 16 15  1  0
 16 25  1  0
 16 17  1  0
 18 17  1  0
 19 12  2  0
 21 20  1  0
 22 23  2  0
 22 25  1  0
 23 24  1  0
 24 26  2  0
 24 27  1  0
 25 26  1  0
 27 28  1  0
 28 29  2  0
 30 33  1  0
 30 29  1  0
 31 30  2  0
 32 31  1  0
 32 27  2  0
 33 34  1  0
 34 39  2  0
 34 35  1  0
 35 36  2  0
 36 37  1  0
 37 41  1  0
 38 37  2  0
 39 38  1  0
 40 39  1  0
 42 23  1  0
 42 43  1  0
 43 45  1  0
 44 42  2  0
 46 43  1  0
 47 22  1  0
 48 47  1  0
 49 47  1  0
 50  1  1  0
 51 50  1  0
 52 51  1  0
 52 53  1  0
 53 54  1  0
 54 55  1  0
 56 55  1  0
 56 57  1  0
 57 59  1  0
 58 69  2  0
 59 64  1  0
 60 70  1  0
 60 68  1  0
 61 67  1  0
 61 63  1  0
 62 68  1  0
 63 62  1  0
 64 63  2  0
 65 66  1  0
 65 59  2  0
 66 61  2  0
 67 60  1  0
 68 58  1  0
 70 72  2  0
 71 70  1  0
 73 71  1  0
 74 83  2  0
 74 79  1  0
 75 71  1  0
 76 75  1  0
 77 78  1  0
 77 76  1  0
 78 74  1  0
 79 75  1  0
 79 80  2  0
 80 81  1  0
 82 81  2  0
 83 82  1  0
 84 58  1  0
 84 89  1  0
 84 85  1  0
 85 86  1  1
 85 88  1  0
 87 85  1  0
 89 92  1  0
 90 89  1  0
 90 94  1  0
 91 90  2  0
 94 93  1  0
 94 96  1  0
 96 97  1  0
 96 95  1  0
M  ISO  4  12 100  20 100  56 101  57 101
M  END
>  <TORSDO>  (33) 
F 26

>  <SCORE>  (33) 
-7.129

>  <name>  (33) 
32

>  <ligand_id>  (33) 
32

>  <original_smiles>  (33) 
[H]c1c([H])c([H])c2c(c1[H])C([H])([H])C([H])([H])C([H])([H])C2([H])N([H])C(=O)C1([H])N(C(=O)C([H])(N([H])C(=O)C([H])(N([H])C([H])([H])[H])C([H])([H])[H])C(C([H])([H])[H])(C([H])([H])[H])C([H])([H])[H])C([H])([H])c2c([H])c(OC([H])([H])C([H])([H])C([H])([H])OC([H])([H])C([H])([H])C([H])([H])C(=O)N([H])C([H])(C(=O)N([H])[H])C([H])([H])N([H])C(=O)N3C([H])([H])C([H])([H])C([H])([H])C([H])(n4nc(-c5c([H])c([H])c(Oc6c([H])c([H])c(F)c([H])c6F)c([H])c5[H])c(C(=O)N([H])[H])c4N([H])[H])C3([H])[H])c([H])c([H])c2C1([H])[H]

>  <smiles>  (33) 
[H]c1c([H])c([H])c2c(c1[H])C([H])([H])C([H])([H])C([H])([H])C2([H])N([H])C(=O)C1([H])N(C(=O)C([H])(N([H])C(=O)C([H])(N([H])C([H])([H])[H])C([H])([H])[H])C(C([H])([H])[H])(C([H])([H])[H])C([H])([H])[H])C([H])([H])c2c([H])c(OC([H])([H])C([H])([H])C([H])([H])OC([H])([H])C([H])([H])C([H])([H])C(=O)N([H])C([H])(C(=O)N([H])[H])C([H])([H])N([H])C(=O)N3C([H])([H])C([H])([H])C([H])([H])C([H])(n4nc(-c5c([H])c([H])c(Oc6c([H])c([H])c(F)c([H])c6F)c([H])c5[H])c(C(=O)N([H])[H])c4N([H])[H])C3([H])[H])c([H])c([H])c2C1([H])[H]

$$$$
33:0:0
     RDKit          3D

102109  0  0  1  0  0  0  0  0999 V2000
  -33.0540  -20.6780   20.5360 C   0  0  0  0  0  0  0  0  0  0  0  0
  -33.9010  -21.5890   20.0400 N   0  0  0  0  0  0  0  0  0  0  0  0
  -32.6170  -20.7530   21.6900 O   0  0  0  0  0  0  0  0  0  0  0  0
  -34.2340  -21.4540   19.0940 H   0  0  0  0  0  0  0  0  0  0  0  0
  -31.9260  -19.9870   18.3400 C   0  0  0  0  0  1  0  0  0  0  0  0
  -32.6240  -19.5070   19.6280 C   0  0  0  0  0  3  0  0  0  0  0  0
  -31.1900  -17.4830   20.2070 C   0  0  0  0  0  0  0  0  0  0  0  0
  -31.7470  -18.6730   20.4440 N   0  0  0  0  0  0  0  0  0  0  0  0
  -31.2320  -16.9230   19.1100 O   0  0  0  0  0  0  0  0  0  0  0  0
  -31.6410  -19.0620   21.3760 H   0  0  0  0  0  0  0  0  0  0  0  0
  -30.4230  -16.8780   21.4090 C   0  0  0  0  0  3  0  0  0  0  0  0
  -31.0490  -14.4150   21.1300 C   0  0  0  0  0  0  0  0  0  0  0  0
  -30.8610  -12.1490   20.1870 C   0  0  0  0  0  2  0  0  0  0  0  0
  -30.0410  -12.2410   18.8840 C   0  0  0  0  0  2  0  0  0  0  0  0
  -28.5280  -12.1530   19.1760 C   0  0  0  0  0  2  0  0  0  0  0  0
  -28.0770  -13.1190   20.3050 C   0  0  0  0  0  3  0  0  0  0  0  0
  -29.0160  -12.9840   21.5260 C   0  0  0  0  0  2  0  0  0  0  0  0
  -30.3980  -13.2270   21.0660 N   0  0  0  0  0  0  0  0  0  0  0  0
  -32.2210  -14.5750   20.7840 O   0  0  0  0  0  0  0  0  0  0  0  0
  -30.2490  -15.4260   21.4710 N   0  0  0  0  0  0  0  0  0  0  0  0
  -29.3000  -15.1490   21.6650 H   0  0  0  0  0  0  0  0  0  0  0  0
  -25.6520  -13.8300   20.8030 C   0  0  0  0  0  0  0  0  0  0  0  0
  -24.5240  -13.1010   21.0710 C   0  0  0  0  0  0  0  0  0  0  0  0
  -24.9300  -11.7330   21.0740 C   0  0  0  0  0  0  0  0  0  0  0  0
  -26.6780  -12.9060   20.6640 N   0  0  0  0  0  0  0  0  0  0  0  0
  -26.2390  -11.6390   20.8820 N   0  0  0  0  0  0  0  0  0  0  0  0
  -24.1400  -10.5010   21.1990 C   0  0  0  0  0  0  0  0  0  0  0  0
  -24.4950   -9.4890   22.1170 C   0  0  0  0  0  3  0  0  0  0  0  0
  -23.7110   -8.3200   22.2320 C   0  0  0  0  0  3  0  0  0  0  0  0
  -22.5580   -8.1580   21.4270 C   0  0  0  0  0  0  0  0  0  0  0  0
  -22.2210   -9.1600   20.4980 C   0  0  0  0  0  3  0  0  0  0  0  0
  -23.0050  -10.3190   20.3830 C   0  0  0  0  0  3  0  0  0  0  0  0
  -21.7510   -7.0470   21.4530 O   0  0  0  0  0  0  0  0  0  0  0  0
  -21.6650   -6.2440   22.5610 C   0  0  0  0  0  0  0  0  0  0  0  0
  -21.2750   -6.7510   23.8190 C   0  0  0  0  0  3  0  0  0  0  0  0
  -21.1330   -5.8790   24.9160 C   0  0  0  0  0  3  0  0  0  0  0  0
  -21.3700   -4.4990   24.7540 C   0  0  0  0  0  0  0  0  0  0  0  0
  -21.7510   -3.9920   23.5000 C   0  0  0  0  0  3  0  0  0  0  0  0
  -21.8940   -4.8620   22.4050 C   0  0  0  0  0  0  0  0  0  0  0  0
  -22.2430   -4.3670   21.1940 F   0  0  0  0  0  0  0  0  0  0  0  0
  -21.2230   -3.6590   25.8060 F   0  0  0  0  0  0  0  0  0  0  0  0
  -23.1290  -13.6350   21.2300 C   0  0  0  0  0  0  0  0  0  0  0  0
  -22.3090  -12.9720   22.0370 N   0  0  0  0  0  0  0  0  0  0  0  0
  -22.7730  -14.6740   20.6760 O   0  0  0  0  0  0  0  0  0  0  0  0
  -22.6070  -12.1300   22.5100 H   0  0  0  0  0  0  0  0  0  0  0  0
  -21.3690  -13.3080   22.1860 H   0  0  0  0  0  0  0  0  0  0  0  0
  -25.8820  -15.1920   20.6560 N   0  0  0  0  0  0  0  0  0  0  0  0
  -25.1390  -15.8750   20.7400 H   0  0  0  0  0  0  0  0  0  0  0  0
  -26.8070  -15.6280   20.6530 H   0  0  0  0  0  0  0  0  0  0  0  0
  -29.0240  -17.4870   21.6290 C   0  0  0  0  0  2  0  0  0  0  0  0
  -28.0940  -16.9510   20.6960 O   0  0  0  0  0  0  0  0  0  0  0  0
  -28.3730  -17.2090   19.8250 H   0  0  0  0  0  0  0  0  0  0  0  0
  -34.4140  -22.7310   20.8000 C   0  0  0  0  0  2  0  0  0  0  0  0
  -34.7170  -23.9540   19.9180 C   0  0  0  0  0  2  0  0  0  0  0  0
  -35.3570  -25.0880   20.7390 C   0  0  0  0  0  2  0  0  0  0  0  0
  -34.3720  -25.7290   21.5470 O   0  0  0  0  0  0  0  0  0  0  0  0
  -33.7900  -26.9070   20.9880 C   0  0  0  0  0  2  0  0  0  0  0  0
  -32.2540  -26.8390   21.0090 C   0  0  0  0  0  2  0  0  0  0  0  0
  -31.8020  -26.3000   19.7760 O   0  0  0  0  0  0  0  0  0  0  0  0
  -30.4080  -26.0190   19.7280 C   0  0  0  0  0  2  0  0  0  0  0  0
  -29.5160  -27.2770   19.7680 C   0  0  0  0  0  2  0  0  0  0  0  0
  -28.3290  -26.9530   19.0530 O   0  0  0  0  0  0  0  0  0  0  0  0
  -24.5030  -31.6170   22.9190 C   0  0  0  0  0  0  0  0  0  0  0  0
  -27.1790  -27.6770   19.2680 C   0  0  0  0  0  0  0  0  0  0  0  0
  -23.2680  -30.3250   21.2090 C   0  0  0  0  0  3  0  0  0  0  0  0
  -24.7100  -29.0170   19.5630 C   0  0  0  0  0  0  0  0  0  0  0  0
  -25.7540  -30.8440   20.9120 C   0  0  0  0  0  2  0  0  0  0  0  0
  -25.8720  -29.5480   20.1410 C   0  0  0  0  0  0  0  0  0  0  0  0
  -27.1100  -28.8850   19.9980 C   0  0  0  0  0  3  0  0  0  0  0  0
  -26.0020  -27.1560   18.6920 C   0  0  0  0  0  3  0  0  0  0  0  0
  -24.7690  -27.8150   18.8400 C   0  0  0  0  0  3  0  0  0  0  0  0
  -23.4300  -29.7970   19.7580 C   0  0  0  0  0  2  0  0  0  0  0  0
  -24.5280  -30.9380   21.7390 N   0  0  0  0  0  0  0  0  0  0  0  0
  -23.4440  -31.7760   23.5440 O   0  0  0  0  0  0  0  0  0  0  0  0
  -22.7270  -29.1800   22.0950 C   0  0  0  0  0  0  0  0  0  0  0  0
  -21.4080  -28.9370   22.0150 N   0  0  0  0  0  0  0  0  0  0  0  0
  -23.4850  -28.5170   22.8060 O   0  0  0  0  0  0  0  0  0  0  0  0
  -20.8540  -29.5280   21.4140 H   0  0  0  0  0  0  0  0  0  0  0  0
  -18.1370  -27.4900   22.5170 C   0  0  0  0  0  0  0  0  0  0  0  0
  -20.6820  -27.8860   22.7280 C   0  0  0  0  0  3  0  0  0  0  0  0
  -20.8510  -26.5200   22.0240 C   0  0  0  0  0  2  0  0  0  0  0  0
  -19.7330  -26.2150   21.0220 C   0  0  0  0  0  2  0  0  0  0  0  0
  -18.3690  -26.2170   21.7220 C   0  0  0  0  0  2  0  0  0  0  0  0
  -19.2230  -28.2820   22.9770 C   0  0  0  0  0  0  0  0  0  0  0  0
  -18.9510  -29.4750   23.6810 C   0  0  0  0  0  3  0  0  0  0  0  0
  -17.6250  -29.8780   23.9290 C   0  0  0  0  0  3  0  0  0  0  0  0
  -16.5540  -29.0810   23.4890 C   0  0  0  0  0  3  0  0  0  0  0  0
  -16.8100  -27.8900   22.7880 C   0  0  0  0  0  3  0  0  0  0  0  0
  -25.7940  -32.2500   23.5260 C   0  0  0  0  0  3  0  0  0  0  0  0
  -25.4400  -33.5830   24.0270 N   0  0  0  0  0  0  0  0  0  0  0  0
  -25.6830  -34.7290   23.3760 C   0  0  0  0  0  0  0  0  0  0  0  0
  -26.3000  -34.7750   22.3070 O   0  0  0  0  0  0  0  0  0  0  0  0
  -24.8850  -33.6170   24.8680 H   0  0  0  0  0  0  0  0  0  0  0  0
  -23.8520  -36.4510   23.3060 C   0  0  0  0  0  1  0  0  0  0  0  0
  -25.1540  -36.0300   24.0060 C   0  0  0  0  0  3  0  0  0  0  0  0
  -27.2900  -36.9350   24.8150 C   0  0  0  0  0  1  0  0  0  0  0  0
  -26.1250  -37.1450   23.9590 N   0  0  0  0  0  0  0  0  0  0  0  0
  -25.6850  -38.0180   24.2290 H   0  0  0  0  0  0  0  0  0  0  0  0
  -26.4350  -31.3730   24.6710 C   0  0  1  0  0  0  0  0  0  0  0  0
  -25.4340  -30.9640   25.7760 C   0  0  0  0  0  1  0  0  0  0  0  0
  -27.0490  -30.0770   24.0900 C   0  0  0  0  0  1  0  0  0  0  0  0
  -27.5910  -32.1510   25.3410 C   0  0  0  0  0  1  0  0  0  0  0  0
  1  3  2  0
  2  1  1  0
  2 53  1  0
  4  2  1  0
  6  5  1  0
  6  8  1  0
  6  1  1  0
  7  8  1  0
  7 11  1  0
  8 10  1  0
  9  7  2  0
 11 20  1  0
 11 50  1  0
 12 20  1  0
 13 18  1  0
 14 15  1  0
 14 13  1  0
 16 15  1  0
 16 25  1  0
 16 17  1  0
 18 12  1  0
 18 17  1  0
 19 12  2  0
 20 21  1  0
 22 23  2  0
 23 24  1  0
 23 42  1  0
 24 27  1  0
 25 22  1  0
 25 26  1  0
 26 24  2  0
 27 28  1  0
 28 29  2  0
 30 33  1  0
 30 29  1  0
 31 30  2  0
 32 31  1  0
 32 27  2  0
 33 34  1  0
 34 35  1  0
 35 36  2  0
 37 36  1  0
 37 41  1  0
 38 37  2  0
 39 34  2  0
 39 38  1  0
 40 39  1  0
 42 43  1  0
 43 46  1  0
 43 45  1  0
 44 42  2  0
 47 48  1  0
 47 22  1  0
 49 47  1  0
 51 50  1  0
 52 51  1  0
 54 55  1  0
 54 53  1  0
 55 56  1  0
 57 58  1  0
 57 56  1  0
 59 58  1  0
 60 61  1  0
 60 59  1  0
 62 64  1  0
 62 61  1  0
 63 74  2  0
 64 69  1  0
 65 73  1  0
 65 75  1  0
 66 72  1  0
 66 68  1  0
 67 73  1  0
 68 67  1  0
 69 68  2  0
 70 71  1  0
 70 64  2  0
 71 66  2  0
 72 65  1  0
 73 63  1  0
 75 77  2  0
 76 75  1  0
 78 76  1  0
 79 88  2  0
 79 84  1  0
 80 76  1  0
 80 84  1  0
 81 80  1  0
 82 83  1  0
 82 81  1  0
 83 79  1  0
 84 85  2  0
 85 86  1  0
 87 86  2  0
 88 87  1  0
 89 63  1  0
 89 90  1  0
 89 99  1  0
 90 93  1  0
 91 95  1  0
 91 90  1  0
 92 91  2  0
 95 94  1  0
 97 95  1  0
 97 98  1  0
 97 96  1  0
 99102  1  1
 99100  1  0
101 99  1  0
M  ISO  4  12 100  20 100  61 101  62 101
M  END
>  <TORSDO>  (34) 
F 30

>  <SCORE>  (34) 
-8.621

>  <name>  (34) 
33

>  <ligand_id>  (34) 
33

>  <original_smiles>  (34) 
[H]OC([H])([H])C([H])(C(=O)N([H])C([H])(C(=O)N([H])C([H])([H])C([H])([H])C([H])([H])OC([H])([H])C([H])([H])OC([H])([H])C([H])([H])Oc1c([H])c([H])c2c(c1[H])C([H])([H])N(C(=O)C([H])(N([H])C(=O)C([H])(N([H])C([H])([H])[H])C([H])([H])[H])C(C([H])([H])[H])(C([H])([H])[H])C([H])([H])[H])C([H])(C(=O)N([H])C1([H])c3c([H])c([H])c([H])c([H])c3C([H])([H])C([H])([H])C1([H])[H])C2([H])[H])C([H])([H])[H])N([H])C(=O)N1C([H])([H])C([H])([H])C([H])([H])C([H])(n2nc(-c3c([H])c([H])c(Oc4c([H])c([H])c(F)c([H])c4F)c([H])c3[H])c(C(=O)N([H])[H])c2N([H])[H])C1([H])[H]

>  <smiles>  (34) 
[H]OC([H])([H])C([H])(C(=O)N([H])C([H])(C(=O)N([H])C([H])([H])C([H])([H])C([H])([H])OC([H])([H])C([H])([H])OC([H])([H])C([H])([H])Oc1c([H])c([H])c2c(c1[H])C([H])([H])N(C(=O)C([H])(N([H])C(=O)C([H])(N([H])C([H])([H])[H])C([H])([H])[H])C(C([H])([H])[H])(C([H])([H])[H])C([H])([H])[H])C([H])(C(=O)N([H])C1([H])c3c([H])c([H])c([H])c([H])c3C([H])([H])C([H])([H])C1([H])[H])C2([H])[H])C([H])([H])[H])N([H])C(=O)N1C([H])([H])C([H])([H])C([H])([H])C([H])(n2nc(-c3c([H])c([H])c(Oc4c([H])c([H])c(F)c([H])c4F)c([H])c3[H])c(C(=O)N([H])[H])c2N([H])[H])C1([H])[H]

$$$$
35:0:0
     RDKit          3D

101108  0  0  1  0  0  0  0  0999 V2000
  -33.9140  -19.3240   19.5930 C   0  0  0  0  0  2  0  0  0  0  0  0
  -32.6630  -19.5570   18.9540 O   0  0  0  0  0  0  0  0  0  0  0  0
  -32.8030  -20.1210   17.6560 C   0  0  0  0  0  2  0  0  0  0  0  0
  -31.4850  -20.7770   17.2080 C   0  0  0  0  0  2  0  0  0  0  0  0
  -30.6960  -21.7980   18.5020 S   0  0  0  0  0  0  0  0  0  0  0  0
  -31.8340  -23.2140   18.6850 C   0  0  0  0  0  2  0  0  0  0  0  0
  -31.5060  -24.4070   17.7730 C   0  0  0  0  0  2  0  0  0  0  0  0
  -30.4090  -25.1500   18.2940 O   0  0  0  0  0  0  0  0  0  0  0  0
  -30.2110  -26.3780   17.6010 C   0  0  0  0  0  2  0  0  0  0  0  0
  -29.2250  -27.2850   18.3560 C   0  0  0  0  0  2  0  0  0  0  0  0
  -27.9110  -26.7720   18.1770 O   0  0  0  0  0  0  0  0  0  0  0  0
  -24.7790  -31.1250   22.9360 C   0  0  0  0  0  0  0  0  0  0  0  0
  -26.8390  -27.5310   18.5860 C   0  0  0  0  0  0  0  0  0  0  0  0
  -23.3210  -30.1940   21.1670 C   0  0  0  0  0  3  0  0  0  0  0  0
  -24.5230  -29.0090   19.2560 C   0  0  0  0  0  0  0  0  0  0  0  0
  -25.8180  -30.5380   20.7530 C   0  0  0  0  0  2  0  0  0  0  0  0
  -25.7620  -29.3590   19.8080 C   0  0  0  0  0  0  0  0  0  0  0  0
  -26.9220  -28.6260   19.4810 C   0  0  0  0  0  3  0  0  0  0  0  0
  -25.5800  -27.1800   18.0560 C   0  0  0  0  0  3  0  0  0  0  0  0
  -24.4230  -27.9130   18.3820 C   0  0  0  0  0  3  0  0  0  0  0  0
  -23.3370  -29.8600   19.6510 C   0  0  0  0  0  2  0  0  0  0  0  0
  -24.6650  -30.6170   21.6770 N   0  0  0  0  0  0  0  0  0  0  0  0
  -23.7840  -31.2840   23.6560 O   0  0  0  0  0  0  0  0  0  0  0  0
  -22.7300  -28.9860   21.9310 C   0  0  0  0  0  0  0  0  0  0  0  0
  -21.3940  -28.8490   21.8890 N   0  0  0  0  0  0  0  0  0  0  0  0
  -23.4650  -28.1860   22.5160 O   0  0  0  0  0  0  0  0  0  0  0  0
  -20.8620  -29.5520   21.3940 H   0  0  0  0  0  0  0  0  0  0  0  0
  -18.0510  -27.5610   22.3380 C   0  0  0  0  0  0  0  0  0  0  0  0
  -20.6210  -27.7700   22.5000 C   0  0  0  0  0  3  0  0  0  0  0  0
  -20.6780  -26.4870   21.6380 C   0  0  0  0  0  2  0  0  0  0  0  0
  -19.5130  -26.3730   20.6490 C   0  0  0  0  0  2  0  0  0  0  0  0
  -18.1750  -26.3780   21.3930 C   0  0  0  0  0  2  0  0  0  0  0  0
  -19.1990  -28.2240   22.8450 C   0  0  0  0  0  0  0  0  0  0  0  0
  -19.0280  -29.3400   23.6930 C   0  0  0  0  0  3  0  0  0  0  0  0
  -17.7400  -29.7920   24.0360 C   0  0  0  0  0  3  0  0  0  0  0  0
  -16.6060  -29.1230   23.5430 C   0  0  0  0  0  3  0  0  0  0  0  0
  -16.7630  -28.0080   22.7010 C   0  0  0  0  0  3  0  0  0  0  0  0
  -26.1610  -31.5520   23.5250 C   0  0  0  0  0  3  0  0  0  0  0  0
  -25.9810  -32.8550   24.1780 N   0  0  0  0  0  0  0  0  0  0  0  0
  -26.3500  -34.0280   23.6460 C   0  0  0  0  0  0  0  0  0  0  0  0
  -26.9510  -34.1180   22.5720 O   0  0  0  0  0  0  0  0  0  0  0  0
  -25.4470  -32.8620   25.0350 H   0  0  0  0  0  0  0  0  0  0  0  0
  -24.7560  -35.9670   23.8020 C   0  0  0  0  0  1  0  0  0  0  0  0
  -25.9930  -35.3040   24.4310 C   0  0  0  0  0  3  0  0  0  0  0  0
  -28.2270  -35.8240   25.3080 C   0  0  0  0  0  1  0  0  0  0  0  0
  -27.1000  -36.2830   24.5000 N   0  0  0  0  0  0  0  0  0  0  0  0
  -26.7750  -37.1670   24.8840 H   0  0  0  0  0  0  0  0  0  0  0  0
  -26.7620  -30.4980   24.5330 C   0  0  1  0  0  0  0  0  0  0  0  0
  -25.7770  -30.0750   25.6490 C   0  0  0  0  0  1  0  0  0  0  0  0
  -27.2040  -29.2180   23.7840 C   0  0  0  0  0  1  0  0  0  0  0  0
  -28.0280  -31.0770   25.2060 C   0  0  0  0  0  1  0  0  0  0  0  0
  -33.6910  -19.2180   21.1070 C   0  0  0  0  0  2  0  0  0  0  0  0
  -32.9110  -20.3450   21.4920 O   0  0  0  0  0  0  0  0  0  0  0  0
  -32.4690  -20.3260   22.8420 C   0  0  0  0  0  2  0  0  0  0  0  0
  -31.3680  -21.3930   22.9330 C   0  0  0  0  0  2  0  0  0  0  0  0
  -30.3570  -21.2310   21.8600 N   0  0  0  0  0  4  0  0  0  0  0  0
  -29.8390  -22.0960   21.7860 H   0  0  0  0  0  0  0  0  0  0  0  0
  -30.8630  -21.1210   20.9920 H   0  0  0  0  0  0  0  0  0  0  0  0
  -29.3890  -20.1210   22.0560 C   0  0  0  0  0  2  0  0  0  0  0  0
  -28.7810  -19.6180   20.7280 C   0  0  0  0  0  2  0  0  0  0  0  0
  -29.3050  -18.3450   20.3440 O   0  0  0  0  0  0  0  0  0  0  0  0
  -30.6710  -18.3450   19.9470 C   0  0  0  0  0  2  0  0  0  0  0  0
  -31.0190  -17.0110   19.2830 C   0  0  0  0  0  2  0  0  0  0  0  0
  -31.6290  -14.8480   20.3740 C   0  0  0  0  0  0  0  0  0  0  0  0
  -31.4960  -12.4010   20.2210 C   0  0  0  0  0  2  0  0  0  0  0  0
  -30.7070  -12.0520   18.9420 C   0  0  0  0  0  2  0  0  0  0  0  0
  -29.1880  -12.0450   19.2100 C   0  0  0  0  0  2  0  0  0  0  0  0
  -28.6990  -13.3050   19.9770 C   0  0  0  0  0  3  0  0  0  0  0  0
  -29.6110  -13.5910   21.1940 C   0  0  0  0  0  2  0  0  0  0  0  0
  -30.9990  -13.6940   20.7120 N   0  0  0  0  0  0  0  0  0  0  0  0
  -32.8090  -14.9100   20.0270 O   0  0  0  0  0  0  0  0  0  0  0  0
  -30.7980  -15.8850   20.1940 N   0  0  0  0  0  0  0  0  0  0  0  0
  -29.8510  -15.7640   20.5210 H   0  0  0  0  0  0  0  0  0  0  0  0
  -26.3420  -14.1820   20.5280 C   0  0  0  0  0  0  0  0  0  0  0  0
  -25.1710  -13.5360   20.8210 C   0  0  0  0  0  0  0  0  0  0  0  0
  -25.4770  -12.1400   20.8070 C   0  0  0  0  0  0  0  0  0  0  0  0
  -27.2950  -13.1880   20.3610 N   0  0  0  0  0  0  0  0  0  0  0  0
  -26.7710  -11.9530   20.5810 N   0  0  0  0  0  0  0  0  0  0  0  0
  -24.6010  -10.9710   20.9320 C   0  0  0  0  0  0  0  0  0  0  0  0
  -24.8780   -9.9390   21.8540 C   0  0  0  0  0  3  0  0  0  0  0  0
  -24.0110   -8.8320   21.9710 C   0  0  0  0  0  3  0  0  0  0  0  0
  -22.8520   -8.7500   21.1630 C   0  0  0  0  0  0  0  0  0  0  0  0
  -22.5940   -9.7690   20.2290 C   0  0  0  0  0  3  0  0  0  0  0  0
  -23.4620  -10.8690   20.1120 C   0  0  0  0  0  3  0  0  0  0  0  0
  -21.9650   -7.7010   21.1910 O   0  0  0  0  0  0  0  0  0  0  0  0
  -21.7780   -6.9450   22.3210 C   0  0  0  0  0  0  0  0  0  0  0  0
  -21.3970   -7.5230   23.5510 C   0  0  0  0  0  3  0  0  0  0  0  0
  -21.1480   -6.7020   24.6680 C   0  0  0  0  0  3  0  0  0  0  0  0
  -21.2700   -5.3030   24.5580 C   0  0  0  0  0  0  0  0  0  0  0  0
  -21.6460   -4.7250   23.3330 C   0  0  0  0  0  3  0  0  0  0  0  0
  -21.8950   -5.5430   22.2170 C   0  0  0  0  0  0  0  0  0  0  0  0
  -22.2340   -4.9780   21.0320 F   0  0  0  0  0  0  0  0  0  0  0  0
  -21.0240   -4.5140   25.6290 F   0  0  0  0  0  0  0  0  0  0  0  0
  -23.8210  -14.1690   21.0060 C   0  0  0  0  0  0  0  0  0  0  0  0
  -22.9720  -13.5720   21.8340 N   0  0  0  0  0  0  0  0  0  0  0  0
  -23.5310  -15.2280   20.4490 O   0  0  0  0  0  0  0  0  0  0  0  0
  -23.2180  -12.7180   22.3150 H   0  0  0  0  0  0  0  0  0  0  0  0
  -22.0620  -13.9800   21.9920 H   0  0  0  0  0  0  0  0  0  0  0  0
  -26.6710  -15.5270   20.3700 N   0  0  0  0  0  0  0  0  0  0  0  0
  -25.9740  -16.2610   20.4270 H   0  0  0  0  0  0  0  0  0  0  0  0
  -27.5700  -15.8660   20.0530 H   0  0  0  0  0  0  0  0  0  0  0  0
  1 52  1  0
  2  1  1  0
  3  2  1  0
  4  3  1  0
  4  5  1  0
  5  6  1  0
  7  8  1  0
  7  6  1  0
  9  8  1  0
  9 10  1  0
 11 10  1  0
 11 13  1  0
 12 23  2  0
 13 18  1  0
 14 22  1  0
 14 24  1  0
 15 21  1  0
 15 17  1  0
 16 22  1  0
 17 16  1  0
 18 17  2  0
 19 20  1  0
 19 13  2  0
 20 15  2  0
 21 14  1  0
 22 12  1  0
 24 26  2  0
 25 24  1  0
 27 25  1  0
 28 37  2  0
 28 33  1  0
 29 25  1  0
 29 33  1  0
 30 29  1  0
 31 32  1  0
 31 30  1  0
 32 28  1  0
 33 34  2  0
 34 35  1  0
 36 35  2  0
 37 36  1  0
 38 12  1  0
 38 39  1  0
 38 48  1  0
 39 42  1  0
 40 39  1  0
 40 44  1  0
 41 40  2  0
 44 43  1  0
 44 46  1  0
 46 47  1  0
 46 45  1  0
 48 51  1  1
 48 49  1  0
 50 48  1  0
 52 53  1  0
 53 54  1  0
 54 55  1  0
 56 59  1  0
 56 55  1  0
 57 56  1  0
 58 56  1  0
 60 59  1  0
 61 60  1  0
 62 61  1  0
 63 62  1  0
 63 72  1  0
 64 70  1  0
 65 70  1  0
 66 67  1  0
 66 65  1  0
 68 67  1  0
 68 77  1  0
 68 69  1  0
 70 69  1  0
 71 64  2  0
 72 64  1  0
 72 73  1  0
 74 75  2  0
 75 94  1  0
 76 75  1  0
 76 79  1  0
 77 74  1  0
 77 78  1  0
 78 76  2  0
 79 80  1  0
 80 81  2  0
 82 85  1  0
 82 81  1  0
 83 82  2  0
 84 83  1  0
 84 79  2  0
 85 86  1  0
 86 87  1  0
 87 88  2  0
 89 88  1  0
 89 93  1  0
 90 89  2  0
 91 86  2  0
 91 90  1  0
 92 91  1  0
 94 95  1  0
 95 98  1  0
 95 97  1  0
 96 94  2  0
 99100  1  0
 99 74  1  0
101 99  1  0
M  ISO  4  10 101  11 101  64 100  72 100
M  END
>  <TORSDO>  (35) 
F 35

>  <SCORE>  (35) 
-7.353

>  <name>  (35) 
35

>  <ligand_id>  (35) 
35

>  <original_smiles>  (35) 
[H]c1c([H])c([H])c2c(c1[H])C([H])([H])C([H])([H])C([H])([H])C2([H])N([H])C(=O)C1([H])N(C(=O)C([H])(N([H])C(=O)C([H])(N([H])C([H])([H])[H])C([H])([H])[H])C(C([H])([H])[H])(C([H])([H])[H])C([H])([H])[H])C([H])([H])c2c([H])c(OC([H])([H])C([H])([H])OC([H])([H])C([H])([H])SC([H])([H])C([H])([H])OC([H])([H])C([H])([H])OC([H])([H])C([H])([H])[N+]([H])([H])C([H])([H])C([H])([H])OC([H])([H])C([H])([H])N([H])C(=O)N3C([H])([H])C([H])([H])C([H])([H])C([H])(n4nc(-c5c([H])c([H])c(Oc6c([H])c([H])c(F)c([H])c6F)c([H])c5[H])c(C(=O)N([H])[H])c4N([H])[H])C3([H])[H])c([H])c([H])c2C1([H])[H]

>  <smiles>  (35) 
[H]c1c([H])c([H])c2c(c1[H])C([H])([H])C([H])([H])C([H])([H])C2([H])N([H])C(=O)C1([H])N(C(=O)C([H])(N([H])C(=O)C([H])(N([H])C([H])([H])[H])C([H])([H])[H])C(C([H])([H])[H])(C([H])([H])[H])C([H])([H])[H])C([H])([H])c2c([H])c(OC([H])([H])C([H])([H])OC([H])([H])C([H])([H])SC([H])([H])C([H])([H])OC([H])([H])C([H])([H])OC([H])([H])C([H])([H])[N+]([H])([H])C([H])([H])C([H])([H])OC([H])([H])C([H])([H])N([H])C(=O)N3C([H])([H])C([H])([H])C([H])([H])C([H])(n4nc(-c5c([H])c([H])c(Oc6c([H])c([H])c(F)c([H])c6F)c([H])c5[H])c(C(=O)N([H])[H])c4N([H])[H])C3([H])[H])c([H])c([H])c2C1([H])[H]

$$$$
37:0:0
     RDKit          3D

 96103  0  0  1  0  0  0  0  0999 V2000
  -33.5200  -19.0140   21.5060 C   0  0  0  0  0  2  0  0  0  0  0  0
  -32.4520  -17.4430   19.8710 C   0  0  0  0  0  0  0  0  0  0  0  0
  -32.4760  -18.1100   21.0290 N   0  0  0  0  0  0  0  0  0  0  0  0
  -33.3990  -17.4650   19.0820 O   0  0  0  0  0  0  0  0  0  0  0  0
  -31.6440  -18.0450   21.5980 H   0  0  0  0  0  0  0  0  0  0  0  0
  -31.1550  -16.6790   19.5050 C   0  0  0  0  0  0  0  0  0  0  0  0
  -31.7210  -14.1600   19.4900 C   0  0  0  0  0  0  0  0  0  0  0  0
  -31.3000  -11.7810   18.9800 C   0  0  0  0  0  2  0  0  0  0  0  0
  -30.3030  -11.6920   17.8040 C   0  0  0  0  0  2  0  0  0  0  0  0
  -28.8460  -11.7640   18.3050 C   0  0  0  0  0  2  0  0  0  0  0  0
  -28.6100  -12.9430   19.2870 C   0  0  0  0  0  3  0  0  0  0  0  0
  -29.6990  -12.9450   20.3840 C   0  0  0  0  0  2  0  0  0  0  0  0
  -31.0170  -13.0200   19.7190 N   0  0  0  0  0  0  0  0  0  0  0  0
  -32.7880  -14.1760   18.8730 O   0  0  0  0  0  0  0  0  0  0  0  0
  -31.0700  -15.2630   19.8920 N   0  0  0  0  0  4  0  0  0  0  0  0
  -30.2480  -15.0550   20.4340 H   0  0  0  0  0  0  0  0  0  0  0  0
  -26.4100  -13.9450   20.1800 C   0  0  0  0  0  0  0  0  0  0  0  0
  -25.2520  -13.3630   20.6220 C   0  0  0  0  0  0  0  0  0  0  0  0
  -25.4610  -11.9540   20.5270 C   0  0  0  0  0  0  0  0  0  0  0  0
  -27.2640  -12.9020   19.8580 N   0  0  0  0  0  0  0  0  0  0  0  0
  -26.6960  -11.6970   20.1160 N   0  0  0  0  0  0  0  0  0  0  0  0
  -24.5380  -10.8350   20.7460 C   0  0  0  0  0  0  0  0  0  0  0  0
  -24.8650   -9.7650   21.6090 C   0  0  0  0  0  3  0  0  0  0  0  0
  -23.9540   -8.7080   21.8180 C   0  0  0  0  0  3  0  0  0  0  0  0
  -22.6990   -8.7150   21.1640 C   0  0  0  0  0  0  0  0  0  0  0  0
  -22.3870   -9.7700   20.2890 C   0  0  0  0  0  3  0  0  0  0  0  0
  -23.2970  -10.8180   20.0780 C   0  0  0  0  0  3  0  0  0  0  0  0
  -21.7610   -7.7190   21.2870 O   0  0  0  0  0  0  0  0  0  0  0  0
  -21.6550   -6.9670   22.4290 C   0  0  0  0  0  0  0  0  0  0  0  0
  -21.4100   -7.5570   23.6890 C   0  0  0  0  0  3  0  0  0  0  0  0
  -21.2390   -6.7410   24.8260 C   0  0  0  0  0  3  0  0  0  0  0  0
  -21.3020   -5.3400   24.7050 C   0  0  0  0  0  0  0  0  0  0  0  0
  -21.5420   -4.7520   23.4510 C   0  0  0  0  0  3  0  0  0  0  0  0
  -21.7140   -5.5640   22.3150 C   0  0  0  0  0  0  0  0  0  0  0  0
  -21.9230   -4.9910   21.1050 F   0  0  0  0  0  0  0  0  0  0  0  0
  -21.1310   -4.5570   25.7950 F   0  0  0  0  0  0  0  0  0  0  0  0
  -23.9880  -14.0710   21.0170 C   0  0  0  0  0  0  0  0  0  0  0  0
  -23.2330  -13.5010   21.9510 N   0  0  0  0  0  0  0  0  0  0  0  0
  -23.6870  -15.1610   20.5350 O   0  0  0  0  0  0  0  0  0  0  0  0
  -23.4910  -12.6160   22.3620 H   0  0  0  0  0  0  0  0  0  0  0  0
  -22.3850  -13.9560   22.2580 H   0  0  0  0  0  0  0  0  0  0  0  0
  -26.7970  -15.2700   20.0070 N   0  0  0  0  0  0  0  0  0  0  0  0
  -26.1650  -16.0430   20.1840 H   0  0  0  0  0  0  0  0  0  0  0  0
  -27.6800  -15.5620   19.6100 H   0  0  0  0  0  0  0  0  0  0  0  0
  -29.3720  -17.5220   21.1820 C   0  0  0  0  0  1  0  0  0  0  0  0
  -28.6590  -16.5240   19.0090 C   0  0  0  0  0  1  0  0  0  0  0  0
  -29.7040  -18.7600   19.0090 C   0  0  0  0  0  1  0  0  0  0  0  0
  -29.7560  -17.3740   19.6930 C   0  0  2  0  0  0  0  0  0  0  0  0
  -33.3830  -20.4450   20.9490 C   0  0  0  0  0  2  0  0  0  0  0  0
  -32.0700  -20.9610   21.1610 O   0  0  0  0  0  0  0  0  0  0  0  0
  -31.8900  -22.2210   20.5230 C   0  0  0  0  0  2  0  0  0  0  0  0
  -30.4610  -22.7530   20.7170 C   0  0  0  0  0  2  0  0  0  0  0  0
  -30.3370  -23.9550   19.9680 O   0  0  0  0  0  0  0  0  0  0  0  0
  -29.0640  -24.5820   20.0740 C   0  0  0  0  0  2  0  0  0  0  0  0
  -29.0830  -25.8870   19.2550 C   0  0  0  0  0  2  0  0  0  0  0  0
  -28.7810  -27.0110   20.0820 O   0  0  0  0  0  0  0  0  0  0  0  0
  -24.5900  -31.7640   23.2650 C   0  0  0  0  0  0  0  0  0  0  0  0
  -27.5340  -27.6000   20.0700 C   0  0  0  0  0  0  0  0  0  0  0  0
  -23.5020  -30.4020   21.5090 C   0  0  0  0  0  3  0  0  0  0  0  0
  -25.0670  -28.9870   20.0760 C   0  0  0  0  0  0  0  0  0  0  0  0
  -26.0150  -30.8660   21.4290 C   0  0  0  0  0  2  0  0  0  0  0  0
  -26.1770  -29.5310   20.7310 C   0  0  0  0  0  0  0  0  0  0  0  0
  -27.4070  -28.8420   20.7290 C   0  0  0  0  0  3  0  0  0  0  0  0
  -26.3950  -27.0470   19.4370 C   0  0  0  0  0  3  0  0  0  0  0  0
  -25.1680  -27.7410   19.4330 C   0  0  0  0  0  3  0  0  0  0  0  0
  -23.7890  -29.7950   20.1100 C   0  0  0  0  0  2  0  0  0  0  0  0
  -24.7170  -31.0230   22.1270 N   0  0  0  0  0  0  0  0  0  0  0  0
  -23.4790  -31.9690   23.7730 O   0  0  0  0  0  0  0  0  0  0  0  0
  -22.8550  -29.3110   22.3910 C   0  0  0  0  0  0  0  0  0  0  0  0
  -21.5350  -29.1190   22.2320 N   0  0  0  0  0  0  0  0  0  0  0  0
  -23.5360  -28.6430   23.1740 O   0  0  0  0  0  0  0  0  0  0  0  0
  -21.0470  -29.7120   21.5760 H   0  0  0  0  0  0  0  0  0  0  0  0
  -18.1670  -27.8760   22.6250 C   0  0  0  0  0  0  0  0  0  0  0  0
  -20.7220  -28.1220   22.9270 C   0  0  0  0  0  3  0  0  0  0  0  0
  -20.8330  -26.7390   22.2440 C   0  0  0  0  0  2  0  0  0  0  0  0
  -19.7360  -26.4900   21.2040 C   0  0  0  0  0  2  0  0  0  0  0  0
  -18.3510  -26.5810   21.8510 C   0  0  0  0  0  2  0  0  0  0  0  0
  -19.2810  -28.6070   23.1160 C   0  0  0  0  0  0  0  0  0  0  0  0
  -19.0560  -29.8230   23.7980 C   0  0  0  0  0  3  0  0  0  0  0  0
  -17.7490  -30.3070   23.9940 C   0  0  0  0  0  3  0  0  0  0  0  0
  -16.6490  -29.5720   23.5200 C   0  0  0  0  0  3  0  0  0  0  0  0
  -16.8590  -28.3570   22.8420 C   0  0  0  0  0  3  0  0  0  0  0  0
  -25.8270  -32.4070   23.9650 C   0  0  0  0  0  3  0  0  0  0  0  0
  -26.2650  -31.6460   25.2770 C   0  0  1  0  0  0  0  0  0  0  0  0
  -25.1070  -31.4100   26.2740 C   0  0  0  0  0  1  0  0  0  0  0  0
  -26.8780  -30.2700   24.9300 C   0  0  0  0  0  1  0  0  0  0  0  0
  -27.3660  -32.4510   26.0070 C   0  0  0  0  0  1  0  0  0  0  0  0
  -25.4890  -33.8050   24.2630 N   0  0  0  0  0  0  0  0  0  0  0  0
  -25.8640  -34.8530   23.5180 C   0  0  0  0  0  0  0  0  0  0  0  0
  -26.6030  -34.7450   22.5340 O   0  0  0  0  0  0  0  0  0  0  0  0
  -24.8410  -33.9620   25.0220 H   0  0  0  0  0  0  0  0  0  0  0  0
  -24.1410  -36.6200   23.0410 C   0  0  0  0  0  1  0  0  0  0  0  0
  -25.3370  -36.2410   23.9280 C   0  0  0  0  0  3  0  0  0  0  0  0
  -27.4120  -37.1570   24.8680 C   0  0  0  0  0  1  0  0  0  0  0  0
  -26.3640  -37.3040   23.8600 N   0  0  0  0  0  0  0  0  0  0  0  0
  -25.9420  -38.2210   23.9730 H   0  0  0  0  0  0  0  0  0  0  0  0
  2  3  1  0
  3  1  1  0
  3  5  1  0
  4  2  2  0
  6 48  1  0
  6  2  1  0
  6 15  2  0
  7 13  1  0
  7 15  1  0
  8 13  1  0
  9 10  1  0
  9  8  1  0
 11 10  1  0
 11 20  1  0
 11 12  1  0
 13 12  1  0
 14  7  2  0
 15 16  1  0
 17 18  2  0
 18 37  1  0
 19 18  1  0
 19 22  1  0
 20 21  1  0
 20 17  1  0
 21 19  2  0
 22 23  1  0
 23 24  2  0
 25 28  1  0
 25 24  1  0
 26 25  2  0
 27 26  1  0
 27 22  2  0
 28 29  1  0
 29 30  1  0
 30 31  2  0
 32 31  1  0
 32 36  1  0
 33 32  2  0
 34 29  2  0
 34 33  1  0
 35 34  1  0
 37 38  1  0
 38 41  1  0
 38 40  1  0
 39 37  2  0
 42 17  1  0
 42 43  1  0
 44 42  1  0
 48 46  1  6
 47 48  1  0
 48 45  1  0
 49 50  1  0
 49  1  1  0
 51 52  1  0
 51 50  1  0
 53 54  1  0
 53 52  1  0
 55 54  1  0
 55 56  1  0
 57 68  2  0
 58 56  1  0
 58 63  1  0
 59 67  1  0
 59 69  1  0
 60 66  1  0
 60 62  1  0
 61 67  1  0
 62 61  1  0
 63 62  2  0
 64 58  2  0
 65 64  1  0
 65 60  2  0
 66 59  1  0
 67 57  1  0
 69 71  2  0
 70 69  1  0
 72 70  1  0
 73 82  2  0
 73 78  1  0
 74 70  1  0
 74 78  1  0
 75 74  1  0
 76 77  1  0
 76 75  1  0
 77 73  1  0
 78 79  2  0
 79 80  1  0
 81 80  2  0
 82 81  1  0
 83 57  1  0
 83 88  1  0
 83 84  1  0
 84 87  1  1
 84 85  1  0
 86 84  1  0
 88 91  1  0
 89 93  1  0
 89 88  1  0
 90 89  2  0
 93 92  1  0
 95 93  1  0
 95 96  1  0
 95 94  1  0
M  ISO  4   7 100  15 100  55 101  56 101
M  END
>  <TORSDO>  (36) 
F 26

>  <SCORE>  (36) 
-10.998

>  <name>  (36) 
37

>  <ligand_id>  (36) 
37

>  <original_smiles>  (36) 
[H]c1c([H])c([H])c2c(c1[H])C([H])([H])C([H])([H])C([H])([H])C2([H])N([H])C(=O)C1([H])N(C(=O)C([H])(N([H])C(=O)C([H])(N([H])C([H])([H])[H])C([H])([H])[H])C(C([H])([H])[H])(C([H])([H])[H])C([H])([H])[H])C([H])([H])c2c([H])c(OC([H])([H])C([H])([H])OC([H])([H])C([H])([H])OC([H])([H])C([H])([H])N([H])C(=O)C([H])(N([H])C(=O)N3C([H])([H])C([H])([H])C([H])([H])C([H])(n4nc(-c5c([H])c([H])c(Oc6c([H])c([H])c(F)c([H])c6F)c([H])c5[H])c(C(=O)N([H])[H])c4N([H])[H])C3([H])[H])C(C([H])([H])[H])(C([H])([H])[H])C([H])([H])[H])c([H])c([H])c2C1([H])[H]

>  <smiles>  (36) 
[H]c1c([H])c([H])c2c(c1[H])C([H])([H])C([H])([H])C([H])([H])C2([H])N([H])C(=O)C1([H])N(C(=O)C([H])(N([H])C(=O)C([H])(N([H])C([H])([H])[H])C([H])([H])[H])C(C([H])([H])[H])(C([H])([H])[H])C([H])([H])[H])C([H])([H])c2c([H])c(OC([H])([H])C([H])([H])OC([H])([H])C([H])([H])OC([H])([H])C([H])([H])N([H])C(=O)C([H])(N([H])C(=O)N3C([H])([H])C([H])([H])C([H])([H])C([H])(n4nc(-c5c([H])c([H])c(Oc6c([H])c([H])c(F)c([H])c6F)c([H])c5[H])c(C(=O)N([H])[H])c4N([H])[H])C3([H])[H])C(C([H])([H])[H])(C([H])([H])[H])C([H])([H])[H])c([H])c([H])c2C1([H])[H]

$$$$
38:0:0
     RDKit          3D

 95102  0  0  1  0  0  0  0  0999 V2000
  -31.7260  -19.9990   17.8500 C   0  0  0  0  0  2  0  0  0  0  0  0
  -32.6360  -18.8820   18.3810 C   0  0  0  0  0  2  0  0  0  0  0  0
  -31.2290  -17.2680   19.6530 C   0  0  0  0  0  0  0  0  0  0  0  0
  -32.1450  -18.2470   19.6030 N   0  0  0  0  0  0  0  0  0  0  0  0
  -30.5200  -16.9760   18.6830 O   0  0  0  0  0  0  0  0  0  0  0  0
  -32.6530  -18.4590   20.4520 H   0  0  0  0  0  0  0  0  0  0  0  0
  -31.1590  -16.4460   20.9650 C   0  0  0  0  0  3  0  0  0  0  0  0
  -31.1860  -14.1180   20.0360 C   0  0  0  0  0  0  0  0  0  0  0  0
  -30.6610  -12.1090   18.7100 C   0  0  0  0  0  2  0  0  0  0  0  0
  -29.6770  -12.4690   17.5830 C   0  0  0  0  0  2  0  0  0  0  0  0
  -28.2200  -12.4150   18.0850 C   0  0  0  0  0  2  0  0  0  0  0  0
  -28.0130  -13.1660   19.4290 C   0  0  0  0  0  3  0  0  0  0  0  0
  -29.0980  -12.7630   20.4500 C   0  0  0  0  0  2  0  0  0  0  0  0
  -30.4110  -13.0220   19.8330 N   0  0  0  0  0  0  0  0  0  0  0  0
  -32.2900  -14.2690   19.5050 O   0  0  0  0  0  0  0  0  0  0  0  0
  -30.6320  -15.0900   20.7730 N   0  0  0  0  0  0  0  0  0  0  0  0
  -29.6790  -14.9740   21.0810 H   0  0  0  0  0  0  0  0  0  0  0  0
  -25.6690  -13.8840   20.2150 C   0  0  0  0  0  0  0  0  0  0  0  0
  -24.5780  -13.1630   20.6190 C   0  0  0  0  0  0  0  0  0  0  0  0
  -24.9780  -11.7910   20.5870 C   0  0  0  0  0  0  0  0  0  0  0  0
  -26.6660  -12.9540   19.9570 N   0  0  0  0  0  0  0  0  0  0  0  0
  -26.2540  -11.6900   20.2350 N   0  0  0  0  0  0  0  0  0  0  0  0
  -24.2060  -10.5660   20.8250 C   0  0  0  0  0  0  0  0  0  0  0  0
  -24.6080   -9.6110   21.7850 C   0  0  0  0  0  3  0  0  0  0  0  0
  -23.8410   -8.4480   22.0020 C   0  0  0  0  0  3  0  0  0  0  0  0
  -22.6560   -8.2290   21.2600 C   0  0  0  0  0  0  0  0  0  0  0  0
  -22.2720   -9.1710   20.2900 C   0  0  0  0  0  3  0  0  0  0  0  0
  -23.0400  -10.3280   20.0710 C   0  0  0  0  0  3  0  0  0  0  0  0
  -21.8640   -7.1130   21.3800 O   0  0  0  0  0  0  0  0  0  0  0  0
  -21.7580   -6.4330   22.5670 C   0  0  0  0  0  0  0  0  0  0  0  0
  -21.3280   -7.0670   23.7520 C   0  0  0  0  0  3  0  0  0  0  0  0
  -21.1650   -6.3150   24.9320 C   0  0  0  0  0  3  0  0  0  0  0  0
  -21.4240   -4.9320   24.9290 C   0  0  0  0  0  0  0  0  0  0  0  0
  -21.8470   -4.2970   23.7470 C   0  0  0  0  0  3  0  0  0  0  0  0
  -22.0110   -5.0470   22.5680 C   0  0  0  0  0  0  0  0  0  0  0  0
  -22.4000   -4.4280   21.4280 F   0  0  0  0  0  0  0  0  0  0  0  0
  -21.2610   -4.2070   26.0610 F   0  0  0  0  0  0  0  0  0  0  0  0
  -23.2150  -13.7040   20.9350 C   0  0  0  0  0  0  0  0  0  0  0  0
  -22.4970  -13.0560   21.8450 N   0  0  0  0  0  0  0  0  0  0  0  0
  -22.7990  -14.7380   20.4130 O   0  0  0  0  0  0  0  0  0  0  0  0
  -22.8510  -12.2210   22.2850 H   0  0  0  0  0  0  0  0  0  0  0  0
  -21.5820  -13.3990   22.1030 H   0  0  0  0  0  0  0  0  0  0  0  0
  -25.8990  -15.2420   20.0340 N   0  0  0  0  0  0  0  0  0  0  0  0
  -25.1950  -15.9440   20.2310 H   0  0  0  0  0  0  0  0  0  0  0  0
  -26.8110  -15.6420   19.8430 H   0  0  0  0  0  0  0  0  0  0  0  0
  -30.3430  -17.1110   22.0960 C   0  0  0  0  0  2  0  0  0  0  0  0
  -28.9380  -16.9720   21.9160 O   0  0  0  0  0  0  0  0  0  0  0  0
  -28.5160  -17.2200   22.7350 H   0  0  0  0  0  0  0  0  0  0  0  0
  -31.8170  -21.1560   18.6750 O   0  0  0  0  0  0  0  0  0  0  0  0
  -30.9750  -22.2040   18.2000 C   0  0  0  0  0  2  0  0  0  0  0  0
  -31.2440  -23.5260   18.9380 C   0  0  0  0  0  2  0  0  0  0  0  0
  -30.1120  -24.3780   18.7910 O   0  0  0  0  0  0  0  0  0  0  0  0
  -30.3860  -25.7530   19.0430 C   0  0  0  0  0  2  0  0  0  0  0  0
  -29.0830  -26.5660   18.9500 C   0  0  0  0  0  2  0  0  0  0  0  0
  -28.4970  -26.7010   20.2430 O   0  0  0  0  0  0  0  0  0  0  0  0
  -24.5960  -31.8450   23.2450 C   0  0  0  0  0  0  0  0  0  0  0  0
  -27.3160  -27.4000   20.2500 C   0  0  0  0  0  0  0  0  0  0  0  0
  -23.4190  -30.4140   21.6020 C   0  0  0  0  0  3  0  0  0  0  0  0
  -24.9020  -28.8590   20.2290 C   0  0  0  0  0  0  0  0  0  0  0  0
  -25.9420  -30.7830   21.4390 C   0  0  0  0  0  2  0  0  0  0  0  0
  -26.0440  -29.4020   20.8290 C   0  0  0  0  0  0  0  0  0  0  0  0
  -27.2530  -28.6720   20.8520 C   0  0  0  0  0  3  0  0  0  0  0  0
  -26.1570  -26.8510   19.6650 C   0  0  0  0  0  3  0  0  0  0  0  0
  -24.9490  -27.5750   19.6520 C   0  0  0  0  0  3  0  0  0  0  0  0
  -23.6530  -29.7100   20.2380 C   0  0  0  0  0  2  0  0  0  0  0  0
  -24.6690  -31.0290   22.1540 N   0  0  0  0  0  0  0  0  0  0  0  0
  -23.5070  -32.1210   23.7630 O   0  0  0  0  0  0  0  0  0  0  0  0
  -22.7550  -29.4080   22.5670 C   0  0  0  0  0  0  0  0  0  0  0  0
  -21.4380  -29.2040   22.4050 N   0  0  0  0  0  0  0  0  0  0  0  0
  -23.4230  -28.8100   23.4160 O   0  0  0  0  0  0  0  0  0  0  0  0
  -20.9620  -29.7370   21.6890 H   0  0  0  0  0  0  0  0  0  0  0  0
  -18.0730  -27.9610   22.8060 C   0  0  0  0  0  0  0  0  0  0  0  0
  -20.6100  -28.2740   23.1710 C   0  0  0  0  0  3  0  0  0  0  0  0
  -20.7650  -26.8300   22.6420 C   0  0  0  0  0  2  0  0  0  0  0  0
  -19.7100  -26.4570   21.5940 C   0  0  0  0  0  2  0  0  0  0  0  0
  -18.3000  -26.5950   22.1790 C   0  0  0  0  0  2  0  0  0  0  0  0
  -19.1580  -28.7550   23.2570 C   0  0  0  0  0  0  0  0  0  0  0  0
  -18.8950  -30.0310   23.7980 C   0  0  0  0  0  3  0  0  0  0  0  0
  -17.5770  -30.5140   23.8950 C   0  0  0  0  0  3  0  0  0  0  0  0
  -16.5030  -29.7150   23.4640 C   0  0  0  0  0  3  0  0  0  0  0  0
  -16.7520  -28.4400   22.9250 C   0  0  0  0  0  3  0  0  0  0  0  0
  -25.8720  -32.4840   23.8770 C   0  0  0  0  0  3  0  0  0  0  0  0
  -26.3800  -31.7230   25.1610 C   0  0  1  0  0  0  0  0  0  0  0  0
  -25.2780  -31.4830   26.2200 C   0  0  0  0  0  1  0  0  0  0  0  0
  -26.9750  -30.3470   24.7790 C   0  0  0  0  0  1  0  0  0  0  0  0
  -27.5190  -32.5270   25.8310 C   0  0  0  0  0  1  0  0  0  0  0  0
  -25.5570  -33.8840   24.1900 N   0  0  0  0  0  0  0  0  0  0  0  0
  -25.8970  -34.9300   23.4270 C   0  0  0  0  0  0  0  0  0  0  0  0
  -26.5830  -34.8200   22.4060 O   0  0  0  0  0  0  0  0  0  0  0  0
  -24.9510  -34.0450   24.9820 H   0  0  0  0  0  0  0  0  0  0  0  0
  -24.1660  -36.7090   23.0290 C   0  0  0  0  0  1  0  0  0  0  0  0
  -25.3980  -36.3200   23.8630 C   0  0  0  0  0  3  0  0  0  0  0  0
  -27.5160  -37.2210   24.7160 C   0  0  0  0  0  1  0  0  0  0  0  0
  -26.4280  -37.3770   23.7560 N   0  0  0  0  0  0  0  0  0  0  0  0
  -26.0140  -38.2970   23.8890 H   0  0  0  0  0  0  0  0  0  0  0  0
  1  2  1  0
  1 49  1  0
  2  4  1  0
  3  7  1  0
  4  3  1  0
  4  6  1  0
  5  3  2  0
  7 46  1  0
  8 16  1  0
  9 14  1  0
 10 11  1  0
 10  9  1  0
 12 11  1  0
 12 21  1  0
 12 13  1  0
 14  8  1  0
 14 13  1  0
 15  8  2  0
 16  7  1  0
 16 17  1  0
 18 19  2  0
 19 38  1  0
 20 19  1  0
 20 23  1  0
 21 18  1  0
 21 22  1  0
 22 20  2  0
 23 24  1  0
 24 25  2  0
 26 29  1  0
 26 25  1  0
 27 26  2  0
 28 27  1  0
 28 23  2  0
 29 30  1  0
 30 35  2  0
 30 31  1  0
 31 32  2  0
 33 32  1  0
 33 37  1  0
 34 33  2  0
 35 34  1  0
 36 35  1  0
 38 39  1  0
 39 42  1  0
 39 41  1  0
 40 38  2  0
 43 18  1  0
 43 44  1  0
 45 43  1  0
 47 46  1  0
 47 48  1  0
 50 49  1  0
 50 51  1  0
 52 51  1  0
 52 53  1  0
 54 53  1  0
 54 55  1  0
 55 57  1  0
 56 67  2  0
 57 62  1  0
 58 66  1  0
 58 68  1  0
 59 65  1  0
 59 61  1  0
 60 66  1  0
 61 62  2  0
 61 60  1  0
 63 57  2  0
 64 63  1  0
 64 59  2  0
 65 58  1  0
 66 56  1  0
 68 70  2  0
 69 68  1  0
 71 69  1  0
 72 81  2  0
 72 77  1  0
 73 69  1  0
 73 77  1  0
 74 73  1  0
 75 76  1  0
 75 74  1  0
 76 72  1  0
 77 78  2  0
 78 79  1  0
 80 79  2  0
 81 80  1  0
 82 56  1  0
 82 87  1  0
 82 83  1  0
 83 86  1  1
 83 84  1  0
 85 83  1  0
 87 90  1  0
 88 92  1  0
 88 87  1  0
 89 88  2  0
 92 91  1  0
 94 92  1  0
 94 95  1  0
 94 93  1  0
M  ISO  4   8 100  16 100  54 101  55 101
M  END
>  <TORSDO>  (37) 
F 27

>  <SCORE>  (37) 
-11.259

>  <name>  (37) 
38

>  <ligand_id>  (37) 
38

>  <original_smiles>  (37) 
[H]OC([H])([H])C([H])(C(=O)N([H])C([H])([H])C([H])([H])OC([H])([H])C([H])([H])OC([H])([H])C([H])([H])Oc1c([H])c([H])c2c(c1[H])C([H])([H])N(C(=O)C([H])(N([H])C(=O)C([H])(N([H])C([H])([H])[H])C([H])([H])[H])C(C([H])([H])[H])(C([H])([H])[H])C([H])([H])[H])C([H])(C(=O)N([H])C1([H])c3c([H])c([H])c([H])c([H])c3C([H])([H])C([H])([H])C1([H])[H])C2([H])[H])N([H])C(=O)N1C([H])([H])C([H])([H])C([H])([H])C([H])(n2nc(-c3c([H])c([H])c(Oc4c([H])c([H])c(F)c([H])c4F)c([H])c3[H])c(C(=O)N([H])[H])c2N([H])[H])C1([H])[H]

>  <smiles>  (37) 
[H]OC([H])([H])C([H])(C(=O)N([H])C([H])([H])C([H])([H])OC([H])([H])C([H])([H])OC([H])([H])C([H])([H])Oc1c([H])c([H])c2c(c1[H])C([H])([H])N(C(=O)C([H])(N([H])C(=O)C([H])(N([H])C([H])([H])[H])C([H])([H])[H])C(C([H])([H])[H])(C([H])([H])[H])C([H])([H])[H])C([H])(C(=O)N([H])C1([H])c3c([H])c([H])c([H])c([H])c3C([H])([H])C([H])([H])C1([H])[H])C2([H])[H])N([H])C(=O)N1C([H])([H])C([H])([H])C([H])([H])C([H])(n2nc(-c3c([H])c([H])c(Oc4c([H])c([H])c(F)c([H])c4F)c([H])c3[H])c(C(=O)N([H])[H])c2N([H])[H])C1([H])[H]

$$$$
39:0:0
     RDKit          3D

 98105  0  0  1  0  0  0  0  0999 V2000
  -32.3220  -21.2730   24.0330 C   0  0  0  0  0  2  0  0  0  0  0  0
  -31.0170  -20.9780   24.5380 O   0  0  0  0  0  0  0  0  0  0  0  0
  -30.3390  -19.8550   23.9840 C   0  0  0  0  0  2  0  0  0  0  0  0
  -31.0840  -18.5050   24.1160 C   0  0  0  0  0  2  0  0  0  0  0  0
  -30.8780  -17.3870   21.9180 C   0  0  0  0  0  0  0  0  0  0  0  0
  -30.4890  -17.5540   23.1860 N   0  0  0  0  0  0  0  0  0  0  0  0
  -31.9780  -17.7470   21.4940 O   0  0  0  0  0  0  0  0  0  0  0  0
  -29.6020  -17.1450   23.4490 H   0  0  0  0  0  0  0  0  0  0  0  0
  -29.8350  -16.7680   20.9850 C   0  0  0  0  0  3  0  0  0  0  0  0
  -30.5380  -14.4870   20.1870 C   0  0  0  0  0  0  0  0  0  0  0  0
  -30.2450  -12.3880   18.9260 C   0  0  0  0  0  2  0  0  0  0  0  0
  -29.2370  -12.6360   17.7820 C   0  0  0  0  0  2  0  0  0  0  0  0
  -27.7820  -12.4740   18.2740 C   0  0  0  0  0  2  0  0  0  0  0  0
  -27.5010  -13.2600   19.5810 C   0  0  0  0  0  3  0  0  0  0  0  0
  -28.6000  -12.9420   20.6210 C   0  0  0  0  0  2  0  0  0  0  0  0
  -29.9070  -13.2950   20.0300 N   0  0  0  0  0  0  0  0  0  0  0  0
  -31.5530  -14.8200   19.5720 O   0  0  0  0  0  0  0  0  0  0  0  0
  -29.8630  -15.3150   20.9880 N   0  0  0  0  0  0  0  0  0  0  0  0
  -29.0990  -14.8850   21.4840 H   0  0  0  0  0  0  0  0  0  0  0  0
  -25.1190  -13.8480   20.3760 C   0  0  0  0  0  0  0  0  0  0  0  0
  -24.0780  -13.0610   20.7940 C   0  0  0  0  0  0  0  0  0  0  0  0
  -24.5590  -11.7180   20.7490 C   0  0  0  0  0  0  0  0  0  0  0  0
  -26.1670  -12.9790   20.1060 N   0  0  0  0  0  0  0  0  0  0  0  0
  -25.8330  -11.6940   20.3860 N   0  0  0  0  0  0  0  0  0  0  0  0
  -23.8630  -10.4470   20.9780 C   0  0  0  0  0  0  0  0  0  0  0  0
  -24.3310   -9.5110   21.9260 C   0  0  0  0  0  3  0  0  0  0  0  0
  -23.6380   -8.3000   22.1400 C   0  0  0  0  0  3  0  0  0  0  0  0
  -22.4640   -8.0160   21.4030 C   0  0  0  0  0  0  0  0  0  0  0  0
  -22.0130   -8.9410   20.4450 C   0  0  0  0  0  3  0  0  0  0  0  0
  -22.7080  -10.1440   20.2310 C   0  0  0  0  0  3  0  0  0  0  0  0
  -21.7400   -6.8540   21.5240 O   0  0  0  0  0  0  0  0  0  0  0  0
  -21.6970   -6.1520   22.7000 C   0  0  0  0  0  0  0  0  0  0  0  0
  -21.2610   -6.7440   23.9070 C   0  0  0  0  0  3  0  0  0  0  0  0
  -21.1700   -5.9640   25.0780 C   0  0  0  0  0  3  0  0  0  0  0  0
  -21.5040   -4.5980   25.0430 C   0  0  0  0  0  0  0  0  0  0  0  0
  -21.9340   -4.0070   23.8420 C   0  0  0  0  0  3  0  0  0  0  0  0
  -22.0280   -4.7810   22.6740 C   0  0  0  0  0  0  0  0  0  0  0  0
  -22.4240   -4.2040   21.5130 F   0  0  0  0  0  0  0  0  0  0  0  0
  -21.4070   -3.8470   26.1650 F   0  0  0  0  0  0  0  0  0  0  0  0
  -22.6880  -13.5190   21.1280 C   0  0  0  0  0  0  0  0  0  0  0  0
  -22.0120  -12.8160   22.0300 N   0  0  0  0  0  0  0  0  0  0  0  0
  -22.2090  -14.5350   20.6240 O   0  0  0  0  0  0  0  0  0  0  0  0
  -22.4120  -11.9950   22.4610 H   0  0  0  0  0  0  0  0  0  0  0  0
  -21.0810  -13.1030   22.2940 H   0  0  0  0  0  0  0  0  0  0  0  0
  -25.2490  -15.2210   20.1900 N   0  0  0  0  0  0  0  0  0  0  0  0
  -24.4690  -15.8530   20.3330 H   0  0  0  0  0  0  0  0  0  0  0  0
  -26.0750  -15.6830   19.8260 H   0  0  0  0  0  0  0  0  0  0  0  0
  -29.7270  -17.3840   19.5750 C   0  0  0  0  0  2  0  0  0  0  0  0
  -28.6860  -19.2220   18.5170 C   0  0  0  0  0  1  0  0  0  0  0  0
  -29.3220  -18.7430   19.6890 O   0  0  0  0  0  0  0  0  0  0  0  0
  -32.4670  -21.2530   22.4970 C   0  0  0  0  0  2  0  0  0  0  0  0
  -31.7270  -22.3120   21.8930 O   0  0  0  0  0  0  0  0  0  0  0  0
  -31.7040  -22.2050   20.4700 C   0  0  0  0  0  2  0  0  0  0  0  0
  -31.5100  -23.5780   19.8050 C   0  0  0  0  0  2  0  0  0  0  0  0
  -30.1450  -23.9910   19.8240 O   0  0  0  0  0  0  0  0  0  0  0  0
  -29.9060  -25.0790   18.9310 C   0  0  0  0  0  2  0  0  0  0  0  0
  -28.4500  -25.5650   19.0030 C   0  0  0  0  0  2  0  0  0  0  0  0
  -28.3180  -26.6050   19.9720 O   0  0  0  0  0  0  0  0  0  0  0  0
  -24.6150  -31.6970   23.2670 C   0  0  0  0  0  0  0  0  0  0  0  0
  -27.1340  -27.3140   20.0030 C   0  0  0  0  0  0  0  0  0  0  0  0
  -23.3660  -30.3970   21.5740 C   0  0  0  0  0  3  0  0  0  0  0  0
  -24.7710  -28.8690   20.0940 C   0  0  0  0  0  0  0  0  0  0  0  0
  -25.9010  -30.6880   21.3850 C   0  0  0  0  0  2  0  0  0  0  0  0
  -25.9430  -29.3380   20.7010 C   0  0  0  0  0  0  0  0  0  0  0  0
  -27.1200  -28.5610   20.6620 C   0  0  0  0  0  3  0  0  0  0  0  0
  -25.9390  -26.8510   19.3990 C   0  0  0  0  0  3  0  0  0  0  0  0
  -24.7620  -27.6210   19.4470 C   0  0  0  0  0  3  0  0  0  0  0  0
  -23.5540  -29.7600   20.1710 C   0  0  0  0  0  2  0  0  0  0  0  0
  -24.6470  -30.9400   22.1330 N   0  0  0  0  0  0  0  0  0  0  0  0
  -23.5430  -31.9840   23.8160 O   0  0  0  0  0  0  0  0  0  0  0  0
  -22.6840  -29.3620   22.4960 C   0  0  0  0  0  0  0  0  0  0  0  0
  -21.3540  -29.2290   22.3680 N   0  0  0  0  0  0  0  0  0  0  0  0
  -23.3490  -28.6790   23.2820 O   0  0  0  0  0  0  0  0  0  0  0  0
  -20.8820  -29.8290   21.7070 H   0  0  0  0  0  0  0  0  0  0  0  0
  -17.9410  -28.1430   22.8370 C   0  0  0  0  0  0  0  0  0  0  0  0
  -20.5080  -28.2900   23.1030 C   0  0  0  0  0  3  0  0  0  0  0  0
  -20.5510  -26.8840   22.4640 C   0  0  0  0  0  2  0  0  0  0  0  0
  -19.4330  -26.6480   21.4440 C   0  0  0  0  0  2  0  0  0  0  0  0
  -18.0610  -26.8190   22.1020 C   0  0  0  0  0  2  0  0  0  0  0  0
  -19.0890  -28.8430   23.2930 C   0  0  0  0  0  0  0  0  0  0  0  0
  -18.9230  -30.0870   23.9380 C   0  0  0  0  0  3  0  0  0  0  0  0
  -17.6390  -30.6320   24.1300 C   0  0  0  0  0  3  0  0  0  0  0  0
  -16.5040  -29.9290   23.6900 C   0  0  0  0  0  3  0  0  0  0  0  0
  -16.6570  -28.6860   23.0520 C   0  0  0  0  0  3  0  0  0  0  0  0
  -25.9210  -32.2630   23.9080 C   0  0  0  0  0  3  0  0  0  0  0  0
  -25.6530  -33.6540   24.2990 N   0  0  0  0  0  0  0  0  0  0  0  0
  -26.0200  -34.7280   23.5860 C   0  0  0  0  0  0  0  0  0  0  0  0
  -26.6940  -34.6490   22.5550 O   0  0  0  0  0  0  0  0  0  0  0  0
  -25.0630  -33.7910   25.1050 H   0  0  0  0  0  0  0  0  0  0  0  0
  -24.3580  -36.5890   23.2910 C   0  0  0  0  0  1  0  0  0  0  0  0
  -25.5730  -36.1080   24.1020 C   0  0  0  0  0  3  0  0  0  0  0  0
  -27.7240  -36.8810   25.0010 C   0  0  0  0  0  1  0  0  0  0  0  0
  -26.6420  -37.1300   24.0520 N   0  0  0  0  0  0  0  0  0  0  0  0
  -26.2640  -38.0560   24.2330 H   0  0  0  0  0  0  0  0  0  0  0  0
  -26.4210  -31.4220   25.1460 C   0  0  1  0  0  0  0  0  0  0  0  0
  -25.3250  -31.1720   26.2080 C   0  0  0  0  0  1  0  0  0  0  0  0
  -26.9600  -30.0480   24.6870 C   0  0  0  0  0  1  0  0  0  0  0  0
  -27.5950  -32.1550   25.8390 C   0  0  0  0  0  1  0  0  0  0  0  0
  1  2  1  0
  3  4  1  0
  3  2  1  0
  5  6  1  0
  6  8  1  0
  6  4  1  0
  7  5  2  0
  9 48  1  0
  9 18  1  0
  9  5  1  0
 10 18  1  0
 11 16  1  0
 12 13  1  0
 12 11  1  0
 14 13  1  0
 14 23  1  0
 14 15  1  0
 16 10  1  0
 16 15  1  0
 17 10  2  0
 18 19  1  0
 20 21  2  0
 21 40  1  0
 22 21  1  0
 22 25  1  0
 23 20  1  0
 23 24  1  0
 24 22  2  0
 25 26  1  0
 26 27  2  0
 28 31  1  0
 28 27  1  0
 29 28  2  0
 30 29  1  0
 30 25  2  0
 31 32  1  0
 32 33  1  0
 33 34  2  0
 35 34  1  0
 35 39  1  0
 36 35  2  0
 37 32  2  0
 37 36  1  0
 38 37  1  0
 40 41  1  0
 41 44  1  0
 41 43  1  0
 42 40  2  0
 45 46  1  0
 45 20  1  0
 47 45  1  0
 48 50  1  0
 49 50  1  0
 51  1  1  0
 52 51  1  0
 53 52  1  0
 54 55  1  0
 54 53  1  0
 56 57  1  0
 56 55  1  0
 57 58  1  0
 58 60  1  0
 59 70  2  0
 60 65  1  0
 61 69  1  0
 61 71  1  0
 62 68  1  0
 62 64  1  0
 63 69  1  0
 64 63  1  0
 65 64  2  0
 66 67  1  0
 66 60  2  0
 67 62  2  0
 68 61  1  0
 69 59  1  0
 71 73  2  0
 72 71  1  0
 74 72  1  0
 75 84  2  0
 75 80  1  0
 76 72  1  0
 76 80  1  0
 77 76  1  0
 78 79  1  0
 78 77  1  0
 79 75  1  0
 80 81  2  0
 81 82  1  0
 83 82  2  0
 84 83  1  0
 85 59  1  0
 85 86  1  0
 85 95  1  0
 86 89  1  0
 87 91  1  0
 87 86  1  0
 88 87  2  0
 91 90  1  0
 93 91  1  0
 93 94  1  0
 93 92  1  0
 95 98  1  1
 95 96  1  0
 97 95  1  0
M  ISO  4  10 100  18 100  57 101  58 101
M  END
>  <TORSDO>  (38) 
F 30

>  <SCORE>  (38) 
-9.773

>  <name>  (38) 
39

>  <ligand_id>  (38) 
39

>  <original_smiles>  (38) 
[H]c1c([H])c([H])c2c(c1[H])C([H])([H])C([H])([H])C([H])([H])C2([H])N([H])C(=O)C1([H])N(C(=O)C([H])(N([H])C(=O)C([H])(N([H])C([H])([H])[H])C([H])([H])[H])C(C([H])([H])[H])(C([H])([H])[H])C([H])([H])[H])C([H])([H])c2c([H])c(OC([H])([H])C([H])([H])OC([H])([H])C([H])([H])OC([H])([H])C([H])([H])OC([H])([H])C([H])([H])N([H])C(=O)C([H])(N([H])C(=O)N3C([H])([H])C([H])([H])C([H])([H])C([H])(n4nc(-c5c([H])c([H])c(Oc6c([H])c([H])c(F)c([H])c6F)c([H])c5[H])c(C(=O)N([H])[H])c4N([H])[H])C3([H])[H])C([H])([H])OC([H])([H])[H])c([H])c([H])c2C1([H])[H]

>  <smiles>  (38) 
[H]c1c([H])c([H])c2c(c1[H])C([H])([H])C([H])([H])C([H])([H])C2([H])N([H])C(=O)C1([H])N(C(=O)C([H])(N([H])C(=O)C([H])(N([H])C([H])([H])[H])C([H])([H])[H])C(C([H])([H])[H])(C([H])([H])[H])C([H])([H])[H])C([H])([H])c2c([H])c(OC([H])([H])C([H])([H])OC([H])([H])C([H])([H])OC([H])([H])C([H])([H])OC([H])([H])C([H])([H])N([H])C(=O)C([H])(N([H])C(=O)N3C([H])([H])C([H])([H])C([H])([H])C([H])(n4nc(-c5c([H])c([H])c(Oc6c([H])c([H])c(F)c([H])c6F)c([H])c5[H])c(C(=O)N([H])[H])c4N([H])[H])C3([H])[H])C([H])([H])OC([H])([H])[H])c([H])c([H])c2C1([H])[H]

$$$$
40:0:0
     RDKit          3D

 92 99  0  0  1  0  0  0  0  0999 V2000
  -29.0600  -19.8660   19.7060 C   0  0  0  0  0  0  0  0  0  0  0  0
  -28.9810  -21.2510   20.2540 N   0  0  0  0  0  0  0  0  0  0  0  0
  -28.5970  -19.7370   18.5730 O   0  0  0  0  0  0  0  0  0  0  0  0
  -29.3160  -21.2750   21.2100 H   0  0  0  0  0  0  0  0  0  0  0  0
  -28.6990  -22.8160   19.6890 C   0  0  0  0  0  2  0  0  0  0  0  0
  -27.9930  -24.3450   20.3730 C   0  0  0  0  0  2  0  0  0  0  0  0
  -28.1480  -25.9810   20.1090 O   0  0  0  0  0  0  0  0  0  0  0  0
  -24.5820  -31.9230   23.2180 C   0  0  0  0  0  0  0  0  0  0  0  0
  -27.1140  -27.0620   20.1410 C   0  0  0  0  0  0  0  0  0  0  0  0
  -23.3700  -30.5320   21.5880 C   0  0  0  0  0  3  0  0  0  0  0  0
  -24.8050  -28.9380   20.1390 C   0  0  0  0  0  0  0  0  0  0  0  0
  -25.9340  -30.7530   21.4050 C   0  0  0  0  0  2  0  0  0  0  0  0
  -26.0020  -29.3450   20.7420 C   0  0  0  0  0  0  0  0  0  0  0  0
  -27.1520  -28.4320   20.7100 C   0  0  0  0  0  3  0  0  0  0  0  0
  -25.8810  -26.8050   19.5010 C   0  0  0  0  0  3  0  0  0  0  0  0
  -24.7690  -27.6880   19.4980 C   0  0  0  0  0  3  0  0  0  0  0  0
  -23.5840  -29.8560   20.2060 C   0  0  0  0  0  2  0  0  0  0  0  0
  -24.6520  -31.0970   22.1240 N   0  0  0  0  0  0  0  0  0  0  0  0
  -23.4990  -32.2030   23.7570 O   0  0  0  0  0  0  0  0  0  0  0  0
  -22.6940  -29.5280   22.5580 C   0  0  0  0  0  0  0  0  0  0  0  0
  -21.3670  -29.3410   22.4350 N   0  0  0  0  0  0  0  0  0  0  0  0
  -23.3710  -28.9170   23.3890 O   0  0  0  0  0  0  0  0  0  0  0  0
  -20.8730  -29.8850   21.7420 H   0  0  0  0  0  0  0  0  0  0  0  0
  -18.0090  -28.0620   22.9420 C   0  0  0  0  0  0  0  0  0  0  0  0
  -20.5620  -28.3900   23.2100 C   0  0  0  0  0  3  0  0  0  0  0  0
  -20.6980  -26.9570   22.6450 C   0  0  0  0  0  2  0  0  0  0  0  0
  -19.6060  -26.6020   21.6300 C   0  0  0  0  0  2  0  0  0  0  0  0
  -18.2200  -26.7150   22.2700 C   0  0  0  0  0  2  0  0  0  0  0  0
  -19.1070  -28.8550   23.3690 C   0  0  0  0  0  0  0  0  0  0  0  0
  -18.8540  -30.1110   23.9590 C   0  0  0  0  0  3  0  0  0  0  0  0
  -17.5360  -30.5770   24.1260 C   0  0  0  0  0  3  0  0  0  0  0  0
  -16.4520  -29.7830   23.7130 C   0  0  0  0  0  3  0  0  0  0  0  0
  -16.6890  -28.5270   23.1270 C   0  0  0  0  0  3  0  0  0  0  0  0
  -25.8590  -32.5680   23.8380 C   0  0  0  0  0  3  0  0  0  0  0  0
  -25.5480  -33.9720   24.1580 N   0  0  0  0  0  0  0  0  0  0  0  0
  -25.8930  -35.0260   23.4070 C   0  0  0  0  0  0  0  0  0  0  0  0
  -26.5680  -34.9180   22.3800 O   0  0  0  0  0  0  0  0  0  0  0  0
  -24.9490  -34.1300   24.9560 H   0  0  0  0  0  0  0  0  0  0  0  0
  -24.1940  -36.8490   23.0380 C   0  0  0  0  0  1  0  0  0  0  0  0
  -25.4160  -36.4210   23.8650 C   0  0  0  0  0  3  0  0  0  0  0  0
  -27.5430  -37.2840   24.7410 C   0  0  0  0  0  1  0  0  0  0  0  0
  -26.4650  -37.4620   23.7720 N   0  0  0  0  0  0  0  0  0  0  0  0
  -26.0660  -38.3880   23.9080 H   0  0  0  0  0  0  0  0  0  0  0  0
  -26.3660  -31.8170   25.1310 C   0  0  1  0  0  0  0  0  0  0  0  0
  -25.2670  -31.6000   26.1980 C   0  0  0  0  0  1  0  0  0  0  0  0
  -26.9480  -30.4310   24.7730 C   0  0  0  0  0  1  0  0  0  0  0  0
  -27.5150  -32.6200   25.7850 C   0  0  0  0  0  1  0  0  0  0  0  0
  -29.7520  -18.3680   20.3320 C   0  0  0  0  0  0  0  0  0  0  0  0
  -30.3340  -15.4620   19.8720 C   0  0  0  0  0  0  0  0  0  0  0  0
  -30.2880  -13.0240   18.9530 C   0  0  0  0  0  2  0  0  0  0  0  0
  -29.2870  -12.7920   17.7920 C   0  0  0  0  0  2  0  0  0  0  0  0
  -27.8770  -12.4960   18.3320 C   0  0  0  0  0  2  0  0  0  0  0  0
  -27.4880  -13.4500   19.4890 C   0  0  0  0  0  3  0  0  0  0  0  0
  -28.6090  -13.6150   20.5360 C   0  0  0  0  0  2  0  0  0  0  0  0
  -29.7740  -14.1520   19.8130 N   0  0  0  0  0  0  0  0  0  0  0  0
  -31.5510  -15.4650   19.6390 O   0  0  0  0  0  0  0  0  0  0  0  0
  -29.5530  -16.7260   19.9950 N   0  0  0  0  0  4  0  0  0  0  0  0
  -28.5690  -16.5080   19.9690 H   0  0  0  0  0  0  0  0  0  0  0  0
  -25.1830  -13.9770   20.4400 C   0  0  0  0  0  0  0  0  0  0  0  0
  -24.1500  -13.1860   20.8570 C   0  0  0  0  0  0  0  0  0  0  0  0
  -24.6120  -11.8380   20.7420 C   0  0  0  0  0  0  0  0  0  0  0  0
  -26.2030  -13.1130   20.0870 N   0  0  0  0  0  0  0  0  0  0  0  0
  -25.8780  -11.8180   20.3380 N   0  0  0  0  0  0  0  0  0  0  0  0
  -23.8970  -10.5700   20.9350 C   0  0  0  0  0  0  0  0  0  0  0  0
  -24.3690   -9.5830   21.8290 C   0  0  0  0  0  3  0  0  0  0  0  0
  -23.6510   -8.3820   22.0130 C   0  0  0  0  0  3  0  0  0  0  0  0
  -22.4470   -8.1580   21.3040 C   0  0  0  0  0  0  0  0  0  0  0  0
  -21.9950   -9.1330   20.3980 C   0  0  0  0  0  3  0  0  0  0  0  0
  -22.7120  -10.3260   20.2120 C   0  0  0  0  0  3  0  0  0  0  0  0
  -21.6970   -7.0110   21.3990 O   0  0  0  0  0  0  0  0  0  0  0  0
  -21.6690   -6.2640   22.5500 C   0  0  0  0  0  0  0  0  0  0  0  0
  -21.2340   -6.8050   23.7790 C   0  0  0  0  0  3  0  0  0  0  0  0
  -21.1550   -5.9830   24.9210 C   0  0  0  0  0  3  0  0  0  0  0  0
  -21.5000   -4.6220   24.8350 C   0  0  0  0  0  0  0  0  0  0  0  0
  -21.9280   -4.0790   23.6100 C   0  0  0  0  0  3  0  0  0  0  0  0
  -22.0080   -4.8990   22.4700 C   0  0  0  0  0  0  0  0  0  0  0  0
  -22.4010   -4.3660   21.2880 F   0  0  0  0  0  0  0  0  0  0  0  0
  -21.4170   -3.8300   25.9290 F   0  0  0  0  0  0  0  0  0  0  0  0
  -22.7760  -13.6520   21.2380 C   0  0  0  0  0  0  0  0  0  0  0  0
  -22.1050  -12.9220   22.1210 N   0  0  0  0  0  0  0  0  0  0  0  0
  -22.3100  -14.6990   20.7880 O   0  0  0  0  0  0  0  0  0  0  0  0
  -22.4990  -12.0760   22.5050 H   0  0  0  0  0  0  0  0  0  0  0  0
  -21.1860  -13.2160   22.4200 H   0  0  0  0  0  0  0  0  0  0  0  0
  -25.3310  -15.3540   20.2990 N   0  0  0  0  0  0  0  0  0  0  0  0
  -24.5620  -15.9930   20.4730 H   0  0  0  0  0  0  0  0  0  0  0  0
  -26.1280  -15.8050   19.8720 H   0  0  0  0  0  0  0  0  0  0  0  0
  -29.8990  -18.5220   21.8690 C   0  0  0  0  0  2  0  0  0  0  0  0
  -31.2650  -18.1090   22.4220 C   0  0  0  0  0  0  0  0  0  0  0  0
  -31.3240  -17.0340   23.1990 N   0  0  0  0  0  0  0  0  0  0  0  0
  -32.2750  -18.7540   22.1460 O   0  0  0  0  0  0  0  0  0  0  0  0
  -30.4860  -16.5190   23.4340 H   0  0  0  0  0  0  0  0  0  0  0  0
  -32.2080  -16.7300   23.5830 H   0  0  0  0  0  0  0  0  0  0  0  0
  1  2  1  0
  1 48  1  0
  2  4  1  0
  3  1  2  0
  5  2  1  0
  5  6  1  0
  7  9  1  0
  7  6  1  0
  8 19  2  0
  9 14  1  0
 10 18  1  0
 10 20  1  0
 11 17  1  0
 11 13  1  0
 12 18  1  0
 13 12  1  0
 14 13  2  0
 15  9  2  0
 16 15  1  0
 16 11  2  0
 17 10  1  0
 18  8  1  0
 20 22  2  0
 21 20  1  0
 23 21  1  0
 24 33  2  0
 24 29  1  0
 25 21  1  0
 25 29  1  0
 26 25  1  0
 27 28  1  0
 27 26  1  0
 28 24  1  0
 29 30  2  0
 30 31  1  0
 32 31  2  0
 33 32  1  0
 34  8  1  0
 34 35  1  0
 34 44  1  0
 35 38  1  0
 36 40  1  0
 36 35  1  0
 37 36  2  0
 40 39  1  0
 42 40  1  0
 42 43  1  0
 42 41  1  0
 44 47  1  1
 44 45  1  0
 46 44  1  0
 48 87  1  0
 49 57  1  0
 50 55  1  0
 51 52  1  0
 51 50  1  0
 53 52  1  0
 53 62  1  0
 53 54  1  0
 55 49  1  0
 55 54  1  0
 56 49  2  0
 57 48  2  0
 58 57  1  0
 59 60  2  0
 60 79  1  0
 61 60  1  0
 61 64  1  0
 62 63  1  0
 62 59  1  0
 63 61  2  0
 64 65  1  0
 65 66  2  0
 67 70  1  0
 67 66  1  0
 68 67  2  0
 69 68  1  0
 69 64  2  0
 70 71  1  0
 71 72  1  0
 72 73  2  0
 74 73  1  0
 74 78  1  0
 75 74  2  0
 76 71  2  0
 76 75  1  0
 77 76  1  0
 79 80  1  0
 80 83  1  0
 80 82  1  0
 81 79  2  0
 84 59  1  0
 84 85  1  0
 86 84  1  0
 87 88  1  0
 88 89  1  0
 89 91  1  0
 89 92  1  0
 90 88  2  0
M  ISO  4   6 101   7 101  49 100  57 100
M  END
>  <TORSDO>  (39) 
F 21

>  <SCORE>  (39) 
-14.370

>  <name>  (39) 
40

>  <ligand_id>  (39) 
40

>  <original_smiles>  (39) 
[H]c1c([H])c([H])c2c(c1[H])C([H])([H])C([H])([H])C([H])([H])C2([H])N([H])C(=O)C1([H])N(C(=O)C([H])(N([H])C(=O)C([H])(N([H])C([H])([H])[H])C([H])([H])[H])C(C([H])([H])[H])(C([H])([H])[H])C([H])([H])[H])C([H])([H])c2c([H])c(OC([H])([H])C([H])([H])N([H])C(=O)C([H])(N([H])C(=O)N3C([H])([H])C([H])([H])C([H])([H])C([H])(n4nc(-c5c([H])c([H])c(Oc6c([H])c([H])c(F)c([H])c6F)c([H])c5[H])c(C(=O)N([H])[H])c4N([H])[H])C3([H])[H])C([H])([H])C(=O)N([H])[H])c([H])c([H])c2C1([H])[H]

>  <smiles>  (39) 
[H]c1c([H])c([H])c2c(c1[H])C([H])([H])C([H])([H])C([H])([H])C2([H])N([H])C(=O)C1([H])N(C(=O)C([H])(N([H])C(=O)C([H])(N([H])C([H])([H])[H])C([H])([H])[H])C(C([H])([H])[H])(C([H])([H])[H])C([H])([H])[H])C([H])([H])c2c([H])c(OC([H])([H])C([H])([H])N([H])C(=O)C([H])(N([H])C(=O)N3C([H])([H])C([H])([H])C([H])([H])C([H])(n4nc(-c5c([H])c([H])c(Oc6c([H])c([H])c(F)c([H])c6F)c([H])c5[H])c(C(=O)N([H])[H])c4N([H])[H])C3([H])[H])C([H])([H])C(=O)N([H])[H])c([H])c([H])c2C1([H])[H]

$$$$
41:0:0
     RDKit          3D

105112  0  0  1  0  0  0  0  0999 V2000
  -31.9940  -18.4790   18.0160 C   0  0  0  0  0  3  0  0  0  0  0  0
  -31.9660  -16.6630   19.7970 C   0  0  0  0  0  0  0  0  0  0  0  0
  -31.3990  -17.6190   19.0460 N   0  0  0  0  0  0  0  0  0  0  0  0
  -33.1680  -16.3970   19.7760 O   0  0  0  0  0  0  0  0  0  0  0  0
  -30.4040  -17.7430   19.1660 H   0  0  0  0  0  0  0  0  0  0  0  0
  -31.0010  -15.8930   20.7280 C   0  0  0  0  0  3  0  0  0  0  0  0
  -30.9620  -13.7800   19.2520 C   0  0  0  0  0  0  0  0  0  0  0  0
  -29.9720  -12.2550   17.5910 C   0  0  0  0  0  2  0  0  0  0  0  0
  -28.8720  -13.0280   16.8320 C   0  0  0  0  0  2  0  0  0  0  0  0
  -27.5230  -12.9490   17.5770 C   0  0  0  0  0  2  0  0  0  0  0  0
  -27.6520  -13.2810   19.0870 C   0  0  0  0  0  3  0  0  0  0  0  0
  -28.8350  -12.5090   19.7190 C   0  0  0  0  0  2  0  0  0  0  0  0
  -30.0540  -12.8180   18.9450 N   0  0  0  0  0  0  0  0  0  0  0  0
  -31.9550  -14.0040   18.5560 O   0  0  0  0  0  0  0  0  0  0  0  0
  -30.5820  -14.5540   20.2800 N   0  0  0  0  0  0  0  0  0  0  0  0
  -29.7300  -14.2310   20.7110 H   0  0  0  0  0  0  0  0  0  0  0  0
  -25.4790  -13.9330   20.3030 C   0  0  0  0  0  0  0  0  0  0  0  0
  -24.4570  -13.1800   20.8180 C   0  0  0  0  0  0  0  0  0  0  0  0
  -24.8170  -11.8170   20.5840 C   0  0  0  0  0  0  0  0  0  0  0  0
  -26.4020  -13.0300   19.7990 N   0  0  0  0  0  0  0  0  0  0  0  0
  -26.0160  -11.7460   20.0200 N   0  0  0  0  0  0  0  0  0  0  0  0
  -24.0650  -10.5770   20.8150 C   0  0  0  0  0  0  0  0  0  0  0  0
  -24.5950   -9.5320   21.6030 C   0  0  0  0  0  3  0  0  0  0  0  0
  -23.8480   -8.3560   21.8280 C   0  0  0  0  0  3  0  0  0  0  0  0
  -22.5560   -8.2190   21.2680 C   0  0  0  0  0  0  0  0  0  0  0  0
  -22.0420   -9.2520   20.4650 C   0  0  0  0  0  3  0  0  0  0  0  0
  -22.7900  -10.4200   20.2370 C   0  0  0  0  0  3  0  0  0  0  0  0
  -21.7680   -7.1010   21.4070 O   0  0  0  0  0  0  0  0  0  0  0  0
  -21.8420   -6.3030   22.5200 C   0  0  0  0  0  0  0  0  0  0  0  0
  -21.6430   -6.8150   23.8210 C   0  0  0  0  0  3  0  0  0  0  0  0
  -21.6640   -5.9450   24.9280 C   0  0  0  0  0  3  0  0  0  0  0  0
  -21.8710   -4.5670   24.7390 C   0  0  0  0  0  0  0  0  0  0  0  0
  -22.0670   -4.0550   23.4440 C   0  0  0  0  0  3  0  0  0  0  0  0
  -22.0490   -4.9210   22.3370 C   0  0  0  0  0  0  0  0  0  0  0  0
  -22.2180   -4.4200   21.0890 F   0  0  0  0  0  0  0  0  0  0  0  0
  -21.8810   -3.7300   25.8030 F   0  0  0  0  0  0  0  0  0  0  0  0
  -23.1730  -13.6930   21.4000 C   0  0  0  0  0  0  0  0  0  0  0  0
  -22.6080  -12.9760   22.3660 N   0  0  0  0  0  0  0  0  0  0  0  0
  -22.6850  -14.7610   21.0330 O   0  0  0  0  0  0  0  0  0  0  0  0
  -23.0220  -12.1110   22.6810 H   0  0  0  0  0  0  0  0  0  0  0  0
  -21.7540  -13.2980   22.7960 H   0  0  0  0  0  0  0  0  0  0  0  0
  -25.6900  -15.3050   20.2100 N   0  0  0  0  0  0  0  0  0  0  0  0
  -24.9930  -15.9740   20.5210 H   0  0  0  0  0  0  0  0  0  0  0  0
  -26.4780  -15.7370   19.7440 H   0  0  0  0  0  0  0  0  0  0  0  0
  -31.3080  -17.0660   22.9220 C   0  0  0  0  0  2  0  0  0  0  0  0
  -31.3320  -15.9150   22.2270 C   0  0  0  0  0  0  0  0  0  0  0  0
  -31.6350  -14.5990   22.9370 C   0  0  0  0  0  2  0  0  0  0  0  0
  -32.7410  -13.9180   22.3550 O   0  0  0  0  0  0  0  0  0  0  0  0
  -32.1890  -11.5240   22.4880 C   0  0  0  0  0  1  0  0  0  0  0  0
  -33.0570  -12.6830   22.9950 C   0  0  0  0  0  2  0  0  0  0  0  0
  -31.8570  -20.4110   19.7780 C   0  0  0  0  0  1  0  0  0  0  0  0
  -32.6150  -19.7830   18.5960 C   0  0  0  0  0  3  0  0  0  0  0  0
  -33.9550  -19.5560   18.9790 O   0  0  0  0  0  0  0  0  0  0  0  0
  -34.3570  -20.4010   19.1520 H   0  0  0  0  0  0  0  0  0  0  0  0
  -29.6050  -18.9930   17.3070 C   0  0  0  0  0  3  0  0  0  0  0  0
  -30.9120  -18.8600   17.0090 C   0  0  0  0  0  3  0  0  0  0  0  0
  -28.5020  -19.4130   16.3600 C   0  0  0  0  0  2  0  0  0  0  0  0
  -28.0260  -20.8370   16.6830 C   0  0  0  0  0  2  0  0  0  0  0  0
  -27.8340  -20.9270   18.0880 O   0  0  0  0  0  0  0  0  0  0  0  0
  -27.3960  -22.1940   18.5510 C   0  0  0  0  0  2  0  0  0  0  0  0
  -28.0070  -22.4310   19.9400 C   0  0  0  0  0  2  0  0  0  0  0  0
  -29.2700  -23.0830   19.8120 O   0  0  0  0  0  0  0  0  0  0  0  0
  -29.1870  -24.5020   19.7280 C   0  0  0  0  0  2  0  0  0  0  0  0
  -28.8750  -25.1000   21.1110 C   0  0  0  0  0  2  0  0  0  0  0  0
  -28.8620  -26.5260   21.0670 O   0  0  0  0  0  0  0  0  0  0  0  0
  -24.7160  -31.7430   23.4800 C   0  0  0  0  0  0  0  0  0  0  0  0
  -27.6600  -27.1790   20.9020 C   0  0  0  0  0  0  0  0  0  0  0  0
  -23.6700  -30.2470   21.8070 C   0  0  0  0  0  3  0  0  0  0  0  0
  -25.2540  -28.6420   20.6120 C   0  0  0  0  0  0  0  0  0  0  0  0
  -26.1990  -30.6170   21.8250 C   0  0  0  0  0  2  0  0  0  0  0  0
  -26.3460  -29.2140   21.2740 C   0  0  0  0  0  0  0  0  0  0  0  0
  -27.5500  -28.4920   21.4080 C   0  0  0  0  0  3  0  0  0  0  0  0
  -26.5460  -26.6090   20.2380 C   0  0  0  0  0  3  0  0  0  0  0  0
  -25.3500  -27.3360   20.0910 C   0  0  0  0  0  3  0  0  0  0  0  0
  -24.0090  -29.4920   20.4920 C   0  0  0  0  0  2  0  0  0  0  0  0
  -24.8740  -30.8880   22.4300 N   0  0  0  0  0  0  0  0  0  0  0  0
  -23.5890  -32.0330   23.9040 O   0  0  0  0  0  0  0  0  0  0  0  0
  -22.9370  -29.2720   22.7560 C   0  0  0  0  0  0  0  0  0  0  0  0
  -21.6330  -29.0650   22.5090 N   0  0  0  0  0  0  0  0  0  0  0  0
  -23.5410  -28.7040   23.6690 O   0  0  0  0  0  0  0  0  0  0  0  0
  -21.2080  -29.5760   21.7470 H   0  0  0  0  0  0  0  0  0  0  0  0
  -18.2340  -27.8650   22.7350 C   0  0  0  0  0  0  0  0  0  0  0  0
  -20.7500  -28.1610   23.2460 C   0  0  0  0  0  3  0  0  0  0  0  0
  -20.9140  -26.7010   22.7640 C   0  0  0  0  0  2  0  0  0  0  0  0
  -19.9200  -26.3130   21.6650 C   0  0  0  0  0  2  0  0  0  0  0  0
  -18.4810  -26.4820   22.1600 C   0  0  0  0  0  2  0  0  0  0  0  0
  -19.3010  -28.6600   23.2310 C   0  0  0  0  0  0  0  0  0  0  0  0
  -19.0210  -29.9550   23.7230 C   0  0  0  0  0  3  0  0  0  0  0  0
  -17.7050  -30.4520   23.7280 C   0  0  0  0  0  3  0  0  0  0  0  0
  -16.6490  -29.6550   23.2510 C   0  0  0  0  0  3  0  0  0  0  0  0
  -16.9150  -28.3650   22.7600 C   0  0  0  0  0  3  0  0  0  0  0  0
  -25.9370  -32.4150   24.1830 C   0  0  0  0  0  3  0  0  0  0  0  0
  -25.5760  -33.8100   24.4690 N   0  0  0  0  0  0  0  0  0  0  0  0
  -25.9270  -34.8570   23.7120 C   0  0  0  0  0  0  0  0  0  0  0  0
  -26.6660  -34.7540   22.7270 O   0  0  0  0  0  0  0  0  0  0  0  0
  -24.9340  -33.9580   25.2340 H   0  0  0  0  0  0  0  0  0  0  0  0
  -24.1710  -36.5830   23.2080 C   0  0  0  0  0  1  0  0  0  0  0  0
  -25.3720  -36.2400   24.1040 C   0  0  0  0  0  3  0  0  0  0  0  0
  -27.4270  -37.2010   25.0430 C   0  0  0  0  0  1  0  0  0  0  0  0
  -26.3800  -37.3220   24.0320 N   0  0  0  0  0  0  0  0  0  0  0  0
  -25.9390  -38.2330   24.1390 H   0  0  0  0  0  0  0  0  0  0  0  0
  -26.3800  -31.6750   25.5050 C   0  0  1  0  0  0  0  0  0  0  0  0
  -25.2170  -31.4050   26.4870 C   0  0  0  0  0  1  0  0  0  0  0  0
  -27.0380  -30.3170   25.1720 C   0  0  0  0  0  1  0  0  0  0  0  0
  -27.4480  -32.5140   26.2460 C   0  0  0  0  0  1  0  0  0  0  0  0
  1 56  1  0
  1 52  1  0
  1  3  1  0
  3  5  1  0
  3  2  1  0
  4  2  2  0
  6  2  1  0
  6 46  1  0
  7 15  1  0
  8 13  1  0
  9 10  1  0
  9  8  1  0
 11 10  1  0
 11 12  1  0
 11 20  1  0
 13  7  1  0
 13 12  1  0
 14  7  2  0
 15 16  1  0
 15  6  1  0
 17 18  2  0
 18 37  1  0
 19 22  1  0
 19 18  1  0
 20 21  1  0
 20 17  1  0
 21 19  2  0
 22 23  1  0
 23 24  2  0
 25 28  1  0
 25 24  1  0
 26 25  2  0
 27 26  1  0
 27 22  2  0
 28 29  1  0
 29 30  1  0
 30 31  2  0
 32 31  1  0
 32 36  1  0
 33 32  2  0
 34 29  2  0
 34 33  1  0
 35 34  1  0
 37 38  1  0
 38 40  1  0
 38 41  1  0
 39 37  2  0
 42 17  1  0
 42 43  1  0
 44 42  1  0
 46 45  2  0
 46 47  1  0
 48 47  1  0
 48 50  1  0
 49 50  1  0
 52 53  1  0
 52 51  1  0
 53 54  1  0
 56 55  2  0
 57 58  1  0
 57 55  1  0
 58 59  1  0
 59 60  1  0
 60 61  1  0
 62 61  1  0
 63 62  1  0
 63 64  1  0
 65 64  1  0
 66 77  2  0
 67 65  1  0
 67 72  1  0
 68 76  1  0
 68 78  1  0
 69 71  1  0
 70 76  1  0
 71 72  2  0
 71 70  1  0
 73 67  2  0
 74 73  1  0
 74 69  2  0
 75 69  1  0
 75 68  1  0
 76 66  1  0
 78 80  2  0
 79 78  1  0
 81 79  1  0
 82 91  2  0
 82 87  1  0
 83 79  1  0
 84 83  1  0
 85 86  1  0
 85 84  1  0
 86 82  1  0
 87 83  1  0
 87 88  2  0
 88 89  1  0
 90 89  2  0
 91 90  1  0
 92 66  1  0
 92 93  1  0
 92102  1  0
 93 96  1  0
 94 98  1  0
 94 93  1  0
 95 94  2  0
 98 97  1  0
100 98  1  0
100101  1  0
100 99  1  0
102105  1  1
102103  1  0
104102  1  0
M  ISO  4   7 100  15 100  64 101  65 101
M  END
>  <TORSDO>  (40) 
F 33

>  <SCORE>  (40) 
-3.512

>  <name>  (40) 
41

>  <ligand_id>  (40) 
41

>  <original_smiles>  (40) 
[H]OC([H])(C([H])([H])[H])C([H])(C([H])=C([H])C([H])([H])C([H])([H])OC([H])([H])C([H])([H])OC([H])([H])C([H])([H])Oc1c([H])c([H])c2c(c1[H])C([H])([H])N(C(=O)C([H])(N([H])C(=O)C([H])(N([H])C([H])([H])[H])C([H])([H])[H])C(C([H])([H])[H])(C([H])([H])[H])C([H])([H])[H])C([H])(C(=O)N([H])C1([H])c3c([H])c([H])c([H])c([H])c3C([H])([H])C([H])([H])C1([H])[H])C2([H])[H])N([H])C(=O)C([H])(C(=C([H])[H])C([H])([H])OC([H])([H])C([H])([H])[H])N([H])C(=O)N1C([H])([H])C([H])([H])C([H])([H])C([H])(n2nc(-c3c([H])c([H])c(Oc4c([H])c([H])c(F)c([H])c4F)c([H])c3[H])c(C(=O)N([H])[H])c2N([H])[H])C1([H])[H]

>  <smiles>  (40) 
[H]OC([H])(C([H])([H])[H])C([H])(C([H])=C([H])C([H])([H])C([H])([H])OC([H])([H])C([H])([H])OC([H])([H])C([H])([H])Oc1c([H])c([H])c2c(c1[H])C([H])([H])N(C(=O)C([H])(N([H])C(=O)C([H])(N([H])C([H])([H])[H])C([H])([H])[H])C(C([H])([H])[H])(C([H])([H])[H])C([H])([H])[H])C([H])(C(=O)N([H])C1([H])c3c([H])c([H])c([H])c([H])c3C([H])([H])C([H])([H])C1([H])[H])C2([H])[H])N([H])C(=O)C([H])(C(=C([H])[H])C([H])([H])OC([H])([H])C([H])([H])[H])N([H])C(=O)N1C([H])([H])C([H])([H])C([H])([H])C([H])(n2nc(-c3c([H])c([H])c(Oc4c([H])c([H])c(F)c([H])c4F)c([H])c3[H])c(C(=O)N([H])[H])c2N([H])[H])C1([H])[H]

$$$$
42:0:0
     RDKit          3D

 97104  0  0  1  0  0  0  0  0999 V2000
  -29.1960  -18.9100   22.4060 C   0  0  0  0  0  2  0  0  0  0  0  0
  -30.9010  -17.2050   21.7630 C   0  0  0  0  0  0  0  0  0  0  0  0
  -29.8470  -17.9880   21.4790 N   0  0  0  0  0  0  0  0  0  0  0  0
  -31.3290  -17.0900   22.9140 O   0  0  0  0  0  0  0  0  0  0  0  0
  -29.5520  -18.0380   20.5090 H   0  0  0  0  0  0  0  0  0  0  0  0
  -31.5610  -16.3960   20.6200 C   0  0  0  0  0  3  0  0  0  0  0  0
  -31.5270  -13.9990   20.0240 C   0  0  0  0  0  0  0  0  0  0  0  0
  -30.9100  -11.9430   18.8270 C   0  0  0  0  0  2  0  0  0  0  0  0
  -29.9270  -12.2980   17.6930 C   0  0  0  0  0  2  0  0  0  0  0  0
  -28.4740  -12.3260   18.2120 C   0  0  0  0  0  2  0  0  0  0  0  0
  -28.3170  -13.1530   19.5180 C   0  0  0  0  0  3  0  0  0  0  0  0
  -29.4000  -12.7630   20.5500 C   0  0  0  0  0  2  0  0  0  0  0  0
  -30.7150  -12.9210   19.9060 N   0  0  0  0  0  0  0  0  0  0  0  0
  -32.6530  -14.0590   19.5230 O   0  0  0  0  0  0  0  0  0  0  0  0
  -30.9330  -15.0870   20.5140 N   0  0  0  0  0  0  0  0  0  0  0  0
  -29.9770  -15.0140   20.8200 H   0  0  0  0  0  0  0  0  0  0  0  0
  -26.0580  -14.0150   20.4010 C   0  0  0  0  0  0  0  0  0  0  0  0
  -24.9320  -13.3600   20.8230 C   0  0  0  0  0  0  0  0  0  0  0  0
  -25.2240  -11.9660   20.7210 C   0  0  0  0  0  0  0  0  0  0  0  0
  -26.9720  -13.0250   20.0760 N   0  0  0  0  0  0  0  0  0  0  0  0
  -26.4770  -11.7860   20.3230 N   0  0  0  0  0  0  0  0  0  0  0  0
  -24.3660  -10.7920   20.9230 C   0  0  0  0  0  0  0  0  0  0  0  0
  -24.7440   -9.7410   21.7870 C   0  0  0  0  0  3  0  0  0  0  0  0
  -23.8940   -8.6290   21.9770 C   0  0  0  0  0  3  0  0  0  0  0  0
  -22.6520   -8.5630   21.3040 C   0  0  0  0  0  0  0  0  0  0  0  0
  -22.2900   -9.6000   20.4280 C   0  0  0  0  0  3  0  0  0  0  0  0
  -23.1380  -10.7040   20.2360 C   0  0  0  0  0  3  0  0  0  0  0  0
  -21.7760   -7.5100   21.4070 O   0  0  0  0  0  0  0  0  0  0  0  0
  -21.7070   -6.7390   22.5400 C   0  0  0  0  0  0  0  0  0  0  0  0
  -21.4350   -7.2980   23.8080 C   0  0  0  0  0  3  0  0  0  0  0  0
  -21.3040   -6.4610   24.9340 C   0  0  0  0  0  3  0  0  0  0  0  0
  -21.4360   -5.0660   24.7930 C   0  0  0  0  0  0  0  0  0  0  0  0
  -21.7020   -4.5070   23.5310 C   0  0  0  0  0  3  0  0  0  0  0  0
  -21.8330   -5.3410   22.4090 C   0  0  0  0  0  0  0  0  0  0  0  0
  -22.0680   -4.7960   21.1900 F   0  0  0  0  0  0  0  0  0  0  0  0
  -21.3040   -4.2610   25.8730 F   0  0  0  0  0  0  0  0  0  0  0  0
  -23.6210  -13.9870   21.2040 C   0  0  0  0  0  0  0  0  0  0  0  0
  -22.8930  -13.3690   22.1260 N   0  0  0  0  0  0  0  0  0  0  0  0
  -23.2580  -15.0590   20.7200 O   0  0  0  0  0  0  0  0  0  0  0  0
  -23.2000  -12.5030   22.5420 H   0  0  0  0  0  0  0  0  0  0  0  0
  -22.0160  -13.7720   22.4260 H   0  0  0  0  0  0  0  0  0  0  0  0
  -26.3740  -15.3620   20.2480 N   0  0  0  0  0  0  0  0  0  0  0  0
  -25.6880  -16.0920   20.4050 H   0  0  0  0  0  0  0  0  0  0  0  0
  -27.2160  -15.7040   19.8020 H   0  0  0  0  0  0  0  0  0  0  0  0
  -31.4020  -17.1180   19.2660 C   0  0  0  0  0  0  0  0  0  0  0  0
  -32.4810  -17.6710   18.7240 N   0  0  0  0  0  0  0  0  0  0  0  0
  -30.3210  -17.1300   18.6760 O   0  0  0  0  0  0  0  0  0  0  0  0
  -33.3760  -17.6380   19.1960 H   0  0  0  0  0  0  0  0  0  0  0  0
  -32.4250  -18.1040   17.8140 H   0  0  0  0  0  0  0  0  0  0  0  0
  -28.7680  -20.1930   21.6790 C   0  0  0  0  0  2  0  0  0  0  0  0
  -29.9180  -20.9670   21.3580 O   0  0  0  0  0  0  0  0  0  0  0  0
  -29.6000  -22.1290   20.6000 C   0  0  0  0  0  2  0  0  0  0  0  0
  -30.8690  -22.9580   20.3480 C   0  0  0  0  0  2  0  0  0  0  0  0
  -31.0360  -23.9670   21.3390 O   0  0  0  0  0  0  0  0  0  0  0  0
  -31.9520  -24.9810   20.9150 C   0  0  0  0  0  2  0  0  0  0  0  0
  -31.8260  -26.2660   21.7790 C   0  0  0  0  0  2  0  0  0  0  0  0
  -31.4260  -27.6240   21.4740 O   0  0  0  0  0  0  0  0  0  0  0  0
  -25.8290  -31.2770   23.8490 C   0  0  0  0  0  0  0  0  0  0  0  0
  -30.1090  -27.9730   21.2460 C   0  0  0  0  0  0  0  0  0  0  0  0
  -25.3820  -29.7760   21.9310 C   0  0  0  0  0  3  0  0  0  0  0  0
  -27.4440  -28.7920   20.7940 C   0  0  0  0  0  0  0  0  0  0  0  0
  -27.7020  -30.7840   22.2850 C   0  0  0  0  0  2  0  0  0  0  0  0
  -28.2740  -29.5420   21.6360 C   0  0  0  0  0  0  0  0  0  0  0  0
  -29.6070  -29.1390   21.8580 C   0  0  0  0  0  3  0  0  0  0  0  0
  -29.2680  -27.2320   20.3860 C   0  0  0  0  0  3  0  0  0  0  0  0
  -27.9370  -27.6360   20.1630 C   0  0  0  0  0  3  0  0  0  0  0  0
  -26.0310  -29.2970   20.6030 C   0  0  0  0  0  2  0  0  0  0  0  0
  -26.3070  -30.6250   22.7510 N   0  0  0  0  0  0  0  0  0  0  0  0
  -24.6320  -31.2140   24.1620 O   0  0  0  0  0  0  0  0  0  0  0  0
  -24.8540  -28.5390   22.6910 C   0  0  0  0  0  0  0  0  0  0  0  0
  -23.6890  -28.0260   22.2650 N   0  0  0  0  0  0  0  0  0  0  0  0
  -25.4970  -28.0470   23.6240 O   0  0  0  0  0  0  0  0  0  0  0  0
  -23.2170  -28.4970   21.5070 H   0  0  0  0  0  0  0  0  0  0  0  0
  -20.7570  -25.9430   21.9380 C   0  0  0  0  0  0  0  0  0  0  0  0
  -23.0200  -26.8410   22.8030 C   0  0  0  0  0  3  0  0  0  0  0  0
  -23.6350  -25.5430   22.2320 C   0  0  0  0  0  2  0  0  0  0  0  0
  -22.9150  -25.0370   20.9790 C   0  0  0  0  0  2  0  0  0  0  0  0
  -21.4400  -24.7570   21.2780 C   0  0  0  0  0  2  0  0  0  0  0  0
  -21.4990  -26.9320   22.6350 C   0  0  0  0  0  0  0  0  0  0  0  0
  -20.8160  -28.0370   23.1870 C   0  0  0  0  0  3  0  0  0  0  0  0
  -19.4200  -28.1610   23.0540 C   0  0  0  0  0  3  0  0  0  0  0  0
  -18.6890  -27.1680   22.3800 C   0  0  0  0  0  3  0  0  0  0  0  0
  -19.3560  -26.0620   21.8270 C   0  0  0  0  0  3  0  0  0  0  0  0
  -26.7560  -32.1490   24.7520 C   0  0  0  0  0  3  0  0  0  0  0  0
  -27.0040  -31.5210   26.1790 C   0  0  1  0  0  0  0  0  0  0  0  0
  -25.7080  -31.1190   26.9200 C   0  0  0  0  0  1  0  0  0  0  0  0
  -27.8950  -30.2610   26.0700 C   0  0  0  0  0  1  0  0  0  0  0  0
  -27.7690  -32.5280   27.0700 C   0  0  0  0  0  1  0  0  0  0  0  0
  -26.1400  -33.4770   24.8670 N   0  0  0  0  0  0  0  0  0  0  0  0
  -26.5030  -34.5460   24.1460 C   0  0  0  0  0  0  0  0  0  0  0  0
  -27.4510  -34.5310   23.3560 O   0  0  0  0  0  0  0  0  0  0  0  0
  -25.3190  -33.5470   25.4530 H   0  0  0  0  0  0  0  0  0  0  0  0
  -24.6860  -35.9830   23.1650 C   0  0  0  0  0  1  0  0  0  0  0  0
  -25.6820  -35.8370   24.3250 C   0  0  0  0  0  3  0  0  0  0  0  0
  -27.3080  -37.1190   25.6450 C   0  0  0  0  0  1  0  0  0  0  0  0
  -26.5170  -37.0540   24.4200 N   0  0  0  0  0  0  0  0  0  0  0  0
  -25.9410  -37.8900   24.3710 H   0  0  0  0  0  0  0  0  0  0  0  0
  2  4  2  0
  3  2  1  0
  3  1  1  0
  5  3  1  0
  6 45  1  0
  6  2  1  0
  7 15  1  0
  8 13  1  0
  9 10  1  0
  9  8  1  0
 11 10  1  0
 11 20  1  0
 11 12  1  0
 13  7  1  0
 13 12  1  0
 14  7  2  0
 15  6  1  0
 15 16  1  0
 17 18  2  0
 18 37  1  0
 19 18  1  0
 19 22  1  0
 20 21  1  0
 20 17  1  0
 21 19  2  0
 22 23  1  0
 23 24  2  0
 25 28  1  0
 25 24  1  0
 26 25  2  0
 27 26  1  0
 27 22  2  0
 28 29  1  0
 29 30  1  0
 30 31  2  0
 32 31  1  0
 32 36  1  0
 33 32  2  0
 34 29  2  0
 34 33  1  0
 35 34  1  0
 37 38  1  0
 38 41  1  0
 38 40  1  0
 39 37  2  0
 42 17  1  0
 42 43  1  0
 44 42  1  0
 46 48  1  0
 46 45  1  0
 47 45  2  0
 49 46  1  0
 50  1  1  0
 51 50  1  0
 52 51  1  0
 53 52  1  0
 53 54  1  0
 55 54  1  0
 55 56  1  0
 57 56  1  0
 58 69  2  0
 59 57  1  0
 59 64  1  0
 60 70  1  0
 60 68  1  0
 61 63  1  0
 62 68  1  0
 63 64  2  0
 63 62  1  0
 65 59  2  0
 66 65  1  0
 66 61  2  0
 67 61  1  0
 67 60  1  0
 68 58  1  0
 70 72  2  0
 71 70  1  0
 73 71  1  0
 74 79  1  0
 75 71  1  0
 76 75  1  0
 77 78  1  0
 77 76  1  0
 78 74  1  0
 79 75  1  0
 79 80  2  0
 81 80  1  0
 82 81  2  0
 83 74  2  0
 83 82  1  0
 84 58  1  0
 84 89  1  0
 84 85  1  0
 85 86  1  1
 85 88  1  0
 87 85  1  0
 89 92  1  0
 90 94  1  0
 90 89  1  0
 91 90  2  0
 94 93  1  0
 94 96  1  0
 96 95  1  0
 97 96  1  0
M  ISO  4   7 100  15 100  56 101  57 101
M  END
>  <TORSDO>  (41) 
F 26

>  <SCORE>  (41) 
-6.073

>  <name>  (41) 
42

>  <ligand_id>  (41) 
42

>  <original_smiles>  (41) 
[H]c1c([H])c([H])c2c(c1[H])C([H])([H])C([H])([H])C([H])([H])C2([H])N([H])C(=O)C1([H])N(C(=O)C([H])(N([H])C(=O)C([H])(N([H])C([H])([H])[H])C([H])([H])[H])C(C([H])([H])[H])(C([H])([H])[H])C([H])([H])[H])C([H])([H])c2c([H])c(OC([H])([H])C([H])([H])OC([H])([H])C([H])([H])OC([H])([H])C([H])([H])N([H])C(=O)C([H])(C(=O)N([H])[H])N([H])C(=O)N3C([H])([H])C([H])([H])C([H])([H])C([H])(n4nc(-c5c([H])c([H])c(Oc6c([H])c([H])c(F)c([H])c6F)c([H])c5[H])c(C(=O)N([H])[H])c4N([H])[H])C3([H])[H])c([H])c([H])c2C1([H])[H]

>  <smiles>  (41) 
[H]c1c([H])c([H])c2c(c1[H])C([H])([H])C([H])([H])C([H])([H])C2([H])N([H])C(=O)C1([H])N(C(=O)C([H])(N([H])C(=O)C([H])(N([H])C([H])([H])[H])C([H])([H])[H])C(C([H])([H])[H])(C([H])([H])[H])C([H])([H])[H])C([H])([H])c2c([H])c(OC([H])([H])C([H])([H])OC([H])([H])C([H])([H])OC([H])([H])C([H])([H])N([H])C(=O)C([H])(C(=O)N([H])[H])N([H])C(=O)N3C([H])([H])C([H])([H])C([H])([H])C([H])(n4nc(-c5c([H])c([H])c(Oc6c([H])c([H])c(F)c([H])c6F)c([H])c5[H])c(C(=O)N([H])[H])c4N([H])[H])C3([H])[H])c([H])c([H])c2C1([H])[H]

$$$$
43:0:0
     RDKit          3D

 93100  0  0  1  0  0  0  0  0999 V2000
  -29.5800  -21.2960   23.3440 O   0  0  0  0  0  0  0  0  0  0  0  0
  -30.6750  -20.9660   24.1920 C   0  0  0  0  0  2  0  0  0  0  0  0
  -30.8650  -19.4450   24.2320 C   0  0  0  0  0  2  0  0  0  0  0  0
  -31.0980  -17.6210   22.5930 C   0  0  0  0  0  0  0  0  0  0  0  0
  -31.2380  -18.9050   22.9280 N   0  0  0  0  0  0  0  0  0  0  0  0
  -30.6390  -16.7850   23.3780 O   0  0  0  0  0  0  0  0  0  0  0  0
  -31.6020  -19.5530   22.2420 H   0  0  0  0  0  0  0  0  0  0  0  0
  -31.0010  -18.1240   20.0640 C   0  0  0  0  0  1  0  0  0  0  0  0
  -31.5230  -17.1960   21.1800 C   0  0  0  0  0  3  0  0  0  0  0  0
  -31.6410  -14.8800   20.1970 C   0  0  0  0  0  0  0  0  0  0  0  0
  -31.1660  -12.8140   18.9430 C   0  0  0  0  0  2  0  0  0  0  0  0
  -30.2210  -13.1430   17.7710 C   0  0  0  0  0  2  0  0  0  0  0  0
  -28.7470  -13.0900   18.2210 C   0  0  0  0  0  2  0  0  0  0  0  0
  -28.4920  -13.9010   19.5200 C   0  0  0  0  0  3  0  0  0  0  0  0
  -29.5400  -13.5440   20.5970 C   0  0  0  0  0  2  0  0  0  0  0  0
  -30.8840  -13.7660   20.0250 N   0  0  0  0  0  0  0  0  0  0  0  0
  -32.7240  -15.0650   19.6350 O   0  0  0  0  0  0  0  0  0  0  0  0
  -31.0700  -15.8270   20.9460 N   0  0  0  0  0  0  0  0  0  0  0  0
  -30.2190  -15.5780   21.4290 H   0  0  0  0  0  0  0  0  0  0  0  0
  -26.1520  -14.6620   20.2790 C   0  0  0  0  0  0  0  0  0  0  0  0
  -25.0370  -13.9580   20.6500 C   0  0  0  0  0  0  0  0  0  0  0  0
  -25.4010  -12.5790   20.5810 C   0  0  0  0  0  0  0  0  0  0  0  0
  -27.1280  -13.7150   20.0110 N   0  0  0  0  0  0  0  0  0  0  0  0
  -26.6800  -12.4560   20.2470 N   0  0  0  0  0  0  0  0  0  0  0  0
  -24.5930  -11.3660   20.7560 C   0  0  0  0  0  0  0  0  0  0  0  0
  -24.9560  -10.3650   21.6840 C   0  0  0  0  0  3  0  0  0  0  0  0
  -24.1530   -9.2160   21.8470 C   0  0  0  0  0  3  0  0  0  0  0  0
  -22.9740   -9.0590   21.0820 C   0  0  0  0  0  0  0  0  0  0  0  0
  -22.6300  -10.0470   20.1420 C   0  0  0  0  0  3  0  0  0  0  0  0
  -23.4310  -11.1880   19.9770 C   0  0  0  0  0  3  0  0  0  0  0  0
  -22.1460   -7.9640   21.1550 O   0  0  0  0  0  0  0  0  0  0  0  0
  -21.9880   -7.2570   22.3200 C   0  0  0  0  0  0  0  0  0  0  0  0
  -21.5680   -7.8770   23.5170 C   0  0  0  0  0  3  0  0  0  0  0  0
  -21.3520   -7.1010   24.6740 C   0  0  0  0  0  3  0  0  0  0  0  0
  -21.5460   -5.7070   24.6340 C   0  0  0  0  0  0  0  0  0  0  0  0
  -21.9580   -5.0870   23.4410 C   0  0  0  0  0  3  0  0  0  0  0  0
  -22.1760   -5.8610   22.2880 C   0  0  0  0  0  0  0  0  0  0  0  0
  -22.5530   -5.2550   21.1350 F   0  0  0  0  0  0  0  0  0  0  0  0
  -21.3300   -4.9600   25.7420 F   0  0  0  0  0  0  0  0  0  0  0  0
  -23.6810  -14.5240   20.9590 C   0  0  0  0  0  0  0  0  0  0  0  0
  -22.9330  -13.8770   21.8460 N   0  0  0  0  0  0  0  0  0  0  0  0
  -23.2950  -15.5760   20.4500 O   0  0  0  0  0  0  0  0  0  0  0  0
  -23.2550  -13.0260   22.2830 H   0  0  0  0  0  0  0  0  0  0  0  0
  -22.0210  -14.2380   22.0910 H   0  0  0  0  0  0  0  0  0  0  0  0
  -26.4100  -16.0220   20.1290 N   0  0  0  0  0  0  0  0  0  0  0  0
  -25.6980  -16.7300   20.2640 H   0  0  0  0  0  0  0  0  0  0  0  0
  -27.2910  -16.4040   19.8100 H   0  0  0  0  0  0  0  0  0  0  0  0
  -29.2600  -22.6810   23.4090 C   0  0  0  0  0  2  0  0  0  0  0  0
  -28.3050  -23.0880   22.2780 C   0  0  0  0  0  2  0  0  0  0  0  0
  -29.0540  -23.3610   21.0990 O   0  0  0  0  0  0  0  0  0  0  0  0
  -28.4150  -24.2730   20.2100 C   0  0  0  0  0  2  0  0  0  0  0  0
  -28.6630  -25.7350   20.6360 C   0  0  0  0  0  2  0  0  0  0  0  0
  -28.3810  -26.6290   19.5650 O   0  0  0  0  0  0  0  0  0  0  0  0
  -24.6580  -31.5930   23.0520 C   0  0  0  0  0  0  0  0  0  0  0  0
  -27.2060  -27.3250   19.6910 C   0  0  0  0  0  0  0  0  0  0  0  0
  -23.4000  -30.2770   21.3740 C   0  0  0  0  0  3  0  0  0  0  0  0
  -24.8090  -28.7990   19.8460 C   0  0  0  0  0  0  0  0  0  0  0  0
  -25.9150  -30.6470   21.1190 C   0  0  0  0  0  2  0  0  0  0  0  0
  -25.9800  -29.3040   20.4260 C   0  0  0  0  0  0  0  0  0  0  0  0
  -27.1840  -28.5720   20.3500 C   0  0  0  0  0  3  0  0  0  0  0  0
  -26.0230  -26.8200   19.1170 C   0  0  0  0  0  3  0  0  0  0  0  0
  -24.8230  -27.5530   19.1930 C   0  0  0  0  0  3  0  0  0  0  0  0
  -23.5680  -29.6550   19.9610 C   0  0  0  0  0  2  0  0  0  0  0  0
  -24.6780  -30.8510   21.9090 N   0  0  0  0  0  0  0  0  0  0  0  0
  -23.5940  -31.8430   23.6330 O   0  0  0  0  0  0  0  0  0  0  0  0
  -22.7680  -29.2160   22.3020 C   0  0  0  0  0  0  0  0  0  0  0  0
  -21.4400  -29.0430   22.1930 N   0  0  0  0  0  0  0  0  0  0  0  0
  -23.4660  -28.5550   23.0730 O   0  0  0  0  0  0  0  0  0  0  0  0
  -20.9380  -29.6360   21.5480 H   0  0  0  0  0  0  0  0  0  0  0  0
  -18.0760  -27.8210   22.6790 C   0  0  0  0  0  0  0  0  0  0  0  0
  -20.6360  -28.0710   22.9320 C   0  0  0  0  0  3  0  0  0  0  0  0
  -20.7340  -26.6660   22.2910 C   0  0  0  0  0  2  0  0  0  0  0  0
  -19.6190  -26.3850   21.2780 C   0  0  0  0  0  2  0  0  0  0  0  0
  -18.2450  -26.5020   21.9450 C   0  0  0  0  0  2  0  0  0  0  0  0
  -19.1990  -28.5660   23.1280 C   0  0  0  0  0  0  0  0  0  0  0  0
  -18.9860  -29.8040   23.7710 C   0  0  0  0  0  3  0  0  0  0  0  0
  -17.6840  -30.2980   23.9710 C   0  0  0  0  0  3  0  0  0  0  0  0
  -16.5750  -29.5480   23.5400 C   0  0  0  0  0  3  0  0  0  0  0  0
  -16.7720  -28.3120   22.9000 C   0  0  0  0  0  3  0  0  0  0  0  0
  -25.9640  -32.1820   23.6720 C   0  0  0  0  0  3  0  0  0  0  0  0
  -26.5280  -31.3260   24.8720 C   0  0  1  0  0  0  0  0  0  0  0  0
  -25.4750  -31.0180   25.9620 C   0  0  0  0  0  1  0  0  0  0  0  0
  -27.0910  -29.9810   24.3590 C   0  0  0  0  0  1  0  0  0  0  0  0
  -27.7050  -32.0740   25.5440 C   0  0  0  0  0  1  0  0  0  0  0  0
  -25.6690  -33.5540   24.1060 N   0  0  0  0  0  0  0  0  0  0  0  0
  -25.9950  -34.6560   23.4190 C   0  0  0  0  0  0  0  0  0  0  0  0
  -26.6480  -34.6230   22.3710 O   0  0  0  0  0  0  0  0  0  0  0  0
  -25.0910  -33.6570   24.9280 H   0  0  0  0  0  0  0  0  0  0  0  0
  -24.2700  -36.4730   23.2210 C   0  0  0  0  0  1  0  0  0  0  0  0
  -25.5220  -36.0080   23.9810 C   0  0  0  0  0  3  0  0  0  0  0  0
  -27.6740  -36.8220   24.8380 C   0  0  0  0  0  1  0  0  0  0  0  0
  -26.5570  -37.0640   23.9290 N   0  0  0  0  0  0  0  0  0  0  0  0
  -26.1580  -37.9710   24.1520 H   0  0  0  0  0  0  0  0  0  0  0  0
  1 48  1  0
  1  2  1  0
  2  3  1  0
  4  5  1  0
  4  6  2  0
  5  3  1  0
  7  5  1  0
  9  8  1  0
  9  4  1  0
 10 18  1  0
 11 16  1  0
 12 13  1  0
 12 11  1  0
 14 13  1  0
 14 23  1  0
 14 15  1  0
 16 10  1  0
 16 15  1  0
 17 10  2  0
 18  9  1  0
 18 19  1  0
 20 21  2  0
 21 40  1  0
 22 21  1  0
 22 25  1  0
 23 24  1  0
 23 20  1  0
 24 22  2  0
 25 26  1  0
 26 27  2  0
 28 31  1  0
 28 27  1  0
 29 28  2  0
 30 29  1  0
 30 25  2  0
 31 32  1  0
 32 33  1  0
 33 34  2  0
 35 34  1  0
 35 39  1  0
 36 35  2  0
 37 32  2  0
 37 36  1  0
 38 37  1  0
 40 41  1  0
 41 44  1  0
 41 43  1  0
 42 40  2  0
 45 46  1  0
 45 20  1  0
 47 45  1  0
 49 48  1  0
 50 49  1  0
 51 52  1  0
 51 50  1  0
 53 55  1  0
 53 52  1  0
 54 65  2  0
 55 60  1  0
 56 64  1  0
 56 66  1  0
 57 63  1  0
 57 59  1  0
 58 64  1  0
 59 58  1  0
 60 59  2  0
 61 62  1  0
 61 55  2  0
 62 57  2  0
 63 56  1  0
 64 54  1  0
 66 68  2  0
 67 66  1  0
 69 67  1  0
 70 79  2  0
 70 75  1  0
 71 67  1  0
 71 75  1  0
 72 71  1  0
 73 74  1  0
 73 72  1  0
 74 70  1  0
 75 76  2  0
 76 77  1  0
 78 77  2  0
 79 78  1  0
 80 54  1  0
 80 85  1  0
 80 81  1  0
 81 84  1  1
 81 82  1  0
 83 81  1  0
 85 88  1  0
 86 90  1  0
 86 85  1  0
 87 86  2  0
 90 89  1  0
 92 90  1  0
 92 93  1  0
 92 91  1  0
M  ISO  4  10 100  18 100  52 101  53 101
M  END
>  <TORSDO>  (42) 
F 25

>  <SCORE>  (42) 
-9.429

>  <name>  (42) 
43

>  <ligand_id>  (42) 
43

>  <original_smiles>  (42) 
[H]c1c([H])c([H])c2c(c1[H])C([H])([H])C([H])([H])C([H])([H])C2([H])N([H])C(=O)C1([H])N(C(=O)C([H])(N([H])C(=O)C([H])(N([H])C([H])([H])[H])C([H])([H])[H])C(C([H])([H])[H])(C([H])([H])[H])C([H])([H])[H])C([H])([H])c2c([H])c(OC([H])([H])C([H])([H])OC([H])([H])C([H])([H])OC([H])([H])C([H])([H])N([H])C(=O)C([H])(N([H])C(=O)N3C([H])([H])C([H])([H])C([H])([H])C([H])(n4nc(-c5c([H])c([H])c(Oc6c([H])c([H])c(F)c([H])c6F)c([H])c5[H])c(C(=O)N([H])[H])c4N([H])[H])C3([H])[H])C([H])([H])[H])c([H])c([H])c2C1([H])[H]

>  <smiles>  (42) 
[H]c1c([H])c([H])c2c(c1[H])C([H])([H])C([H])([H])C([H])([H])C2([H])N([H])C(=O)C1([H])N(C(=O)C([H])(N([H])C(=O)C([H])(N([H])C([H])([H])[H])C([H])([H])[H])C(C([H])([H])[H])(C([H])([H])[H])C([H])([H])[H])C([H])([H])c2c([H])c(OC([H])([H])C([H])([H])OC([H])([H])C([H])([H])OC([H])([H])C([H])([H])N([H])C(=O)C([H])(N([H])C(=O)N3C([H])([H])C([H])([H])C([H])([H])C([H])(n4nc(-c5c([H])c([H])c(Oc6c([H])c([H])c(F)c([H])c6F)c([H])c5[H])c(C(=O)N([H])[H])c4N([H])[H])C3([H])[H])C([H])([H])[H])c([H])c([H])c2C1([H])[H]

$$$$
44:0:0
     RDKit          3D

103110  0  0  1  0  0  0  0  0999 V2000
  -25.2600  -22.9540   20.5990 C   0  0  0  0  0  0  0  0  0  0  0  0
  -25.4790  -23.5160   21.7930 N   0  0  0  0  0  0  0  0  0  0  0  0
  -24.1540  -22.8850   20.0580 O   0  0  0  0  0  0  0  0  0  0  0  0
  -26.4340  -23.5420   22.1210 H   0  0  0  0  0  0  0  0  0  0  0  0
  -26.5220  -22.3660   19.9110 C   0  0  0  0  0  0  0  0  0  0  0  0
  -27.2920  -21.6070   20.7050 N   0  0  0  0  0  0  0  0  0  0  0  0
  -26.7570  -22.5940   18.7210 O   0  0  0  0  0  0  0  0  0  0  0  0
  -26.9560  -21.4420   21.6440 H   0  0  0  0  0  0  0  0  0  0  0  0
  -28.5860  -21.0410   20.3390 C   0  0  0  0  0  2  0  0  0  0  0  0
  -29.7490  -21.9160   20.8430 C   0  0  0  0  0  2  0  0  0  0  0  0
  -29.4280  -23.2850   20.6450 O   0  0  0  0  0  0  0  0  0  0  0  0
  -30.5450  -24.1610   20.6680 C   0  0  0  0  0  2  0  0  0  0  0  0
  -30.0270  -25.6060   20.6760 C   0  0  0  0  0  2  0  0  0  0  0  0
  -29.2310  -25.8200   19.5130 O   0  0  0  0  0  0  0  0  0  0  0  0
  -25.6320  -30.4760   23.5430 C   0  0  0  0  0  0  0  0  0  0  0  0
  -28.1290  -26.6210   19.6840 C   0  0  0  0  0  0  0  0  0  0  0  0
  -24.3990  -29.5210   21.6180 C   0  0  0  0  0  3  0  0  0  0  0  0
  -25.8110  -28.2110   19.9440 C   0  0  0  0  0  0  0  0  0  0  0  0
  -26.9410  -29.7550   21.5560 C   0  0  0  0  0  2  0  0  0  0  0  0
  -26.9700  -28.5380   20.6590 C   0  0  0  0  0  0  0  0  0  0  0  0
  -28.1300  -27.7470   20.5390 C   0  0  0  0  0  3  0  0  0  0  0  0
  -26.9610  -26.3070   18.9620 C   0  0  0  0  0  3  0  0  0  0  0  0
  -25.7980  -27.0910   19.0940 C   0  0  0  0  0  3  0  0  0  0  0  0
  -24.6160  -29.1160   20.1340 C   0  0  0  0  0  2  0  0  0  0  0  0
  -25.6730  -29.9190   22.3000 N   0  0  0  0  0  0  0  0  0  0  0  0
  -24.5530  -30.7040   24.1060 O   0  0  0  0  0  0  0  0  0  0  0  0
  -23.6560  -28.3730   22.3360 C   0  0  0  0  0  0  0  0  0  0  0  0
  -22.3360  -28.2790   22.1050 N   0  0  0  0  0  0  0  0  0  0  0  0
  -24.2660  -27.5770   23.0550 O   0  0  0  0  0  0  0  0  0  0  0  0
  -21.9100  -28.9720   21.5070 H   0  0  0  0  0  0  0  0  0  0  0  0
  -18.9090  -27.1440   22.1360 C   0  0  0  0  0  0  0  0  0  0  0  0
  -21.4410  -27.2550   22.6410 C   0  0  0  0  0  3  0  0  0  0  0  0
  -21.5570  -25.9380   21.8380 C   0  0  0  0  0  2  0  0  0  0  0  0
  -20.5340  -25.8320   20.7040 C   0  0  0  0  0  2  0  0  0  0  0  0
  -19.1070  -25.9210   21.2560 C   0  0  0  0  0  2  0  0  0  0  0  0
  -20.0070  -27.7790   22.7740 C   0  0  0  0  0  0  0  0  0  0  0  0
  -19.7740  -28.9320   23.5530 C   0  0  0  0  0  3  0  0  0  0  0  0
  -18.4740  -29.4510   23.7010 C   0  0  0  0  0  3  0  0  0  0  0  0
  -17.3880  -28.8080   23.0830 C   0  0  0  0  0  3  0  0  0  0  0  0
  -17.6050  -27.6550   22.3080 C   0  0  0  0  0  3  0  0  0  0  0  0
  -26.9350  -30.8780   24.3030 C   0  0  0  0  0  3  0  0  0  0  0  0
  -27.3500  -29.8430   25.4200 C   0  0  1  0  0  0  0  0  0  0  0  0
  -26.2070  -29.4960   26.4010 C   0  0  0  0  0  1  0  0  0  0  0  0
  -27.8440  -28.5230   24.7820 C   0  0  0  0  0  1  0  0  0  0  0  0
  -28.5310  -30.4060   26.2470 C   0  0  0  0  0  1  0  0  0  0  0  0
  -26.7160  -32.2090   24.8850 N   0  0  0  0  0  0  0  0  0  0  0  0
  -27.1870  -33.3510   24.3660 C   0  0  0  0  0  0  0  0  0  0  0  0
  -27.9250  -33.3840   23.3770 O   0  0  0  0  0  0  0  0  0  0  0  0
  -26.0820  -32.2620   25.6690 H   0  0  0  0  0  0  0  0  0  0  0  0
  -25.6560  -35.3420   24.2450 C   0  0  0  0  0  1  0  0  0  0  0  0
  -26.7740  -34.6650   25.0560 C   0  0  0  0  0  3  0  0  0  0  0  0
  -28.8870  -35.1480   26.2080 C   0  0  0  0  0  1  0  0  0  0  0  0
  -27.8950  -35.6120   25.2410 N   0  0  0  0  0  0  0  0  0  0  0  0
  -27.5530  -36.5170   25.5520 H   0  0  0  0  0  0  0  0  0  0  0  0
  -24.4470  -24.0380   22.6810 C   0  0  0  0  0  2  0  0  0  0  0  0
  -23.8940  -22.9220   23.5780 C   0  0  0  0  0  2  0  0  0  0  0  0
  -24.9310  -22.4430   24.4290 O   0  0  0  0  0  0  0  0  0  0  0  0
  -24.5190  -21.3060   25.1790 C   0  0  0  0  0  2  0  0  0  0  0  0
  -25.6200  -20.8580   26.1500 C   0  0  0  0  0  2  0  0  0  0  0  0
  -26.7290  -20.2850   25.4630 O   0  0  0  0  0  0  0  0  0  0  0  0
  -27.5140  -19.4750   26.3350 C   0  0  0  0  0  2  0  0  0  0  0  0
  -28.9330  -19.2660   25.7890 C   0  0  0  0  0  2  0  0  0  0  0  0
  -28.9400  -18.4620   24.6110 O   0  0  0  0  0  0  0  0  0  0  0  0
  -30.2700  -18.2190   24.1600 C   0  0  0  0  0  2  0  0  0  0  0  0
  -30.2950  -17.9720   22.6480 C   0  0  0  0  0  2  0  0  0  0  0  0
  -30.6540  -15.8180   21.4810 C   0  0  0  0  0  0  0  0  0  0  0  0
  -30.6840  -13.7420   20.1510 C   0  0  0  0  0  2  0  0  0  0  0  0
  -29.8780  -13.9270   18.8520 C   0  0  0  0  0  2  0  0  0  0  0  0
  -28.3850  -13.6270   19.0880 C   0  0  0  0  0  2  0  0  0  0  0  0
  -27.8190  -14.3630   20.3320 C   0  0  0  0  0  3  0  0  0  0  0  0
  -28.7440  -14.1740   21.5530 C   0  0  0  0  0  2  0  0  0  0  0  0
  -30.1000  -14.6160   21.1820 N   0  0  0  0  0  0  0  0  0  0  0  0
  -31.7260  -16.2070   21.0070 O   0  0  0  0  0  0  0  0  0  0  0  0
  -29.9480  -16.5930   22.3120 N   0  0  0  0  0  0  0  0  0  0  0  0
  -29.0730  -16.2360   22.6690 H   0  0  0  0  0  0  0  0  0  0  0  0
  -25.2970  -14.7060   20.7280 C   0  0  0  0  0  0  0  0  0  0  0  0
  -24.2760  -13.8190   20.9440 C   0  0  0  0  0  0  0  0  0  0  0  0
  -24.8760  -12.5230   20.9490 C   0  0  0  0  0  0  0  0  0  0  0  0
  -26.4490  -13.9420   20.6220 N   0  0  0  0  0  0  0  0  0  0  0  0
  -26.1920  -12.6220   20.8080 N   0  0  0  0  0  0  0  0  0  0  0  0
  -24.2690  -11.1880   21.0220 C   0  0  0  0  0  0  0  0  0  0  0  0
  -24.6930  -10.2350   21.9730 C   0  0  0  0  0  3  0  0  0  0  0  0
  -24.0790   -8.9660   22.0370 C   0  0  0  0  0  3  0  0  0  0  0  0
  -23.0280   -8.6400   21.1460 C   0  0  0  0  0  0  0  0  0  0  0  0
  -22.6260   -9.5840   20.1860 C   0  0  0  0  0  3  0  0  0  0  0  0
  -23.2410  -10.8450   20.1210 C   0  0  0  0  0  3  0  0  0  0  0  0
  -22.3920   -7.4220   21.1160 O   0  0  0  0  0  0  0  0  0  0  0  0
  -22.2130   -6.6750   22.2520 C   0  0  0  0  0  0  0  0  0  0  0  0
  -21.5790   -7.2020   23.3990 C   0  0  0  0  0  3  0  0  0  0  0  0
  -21.3540   -6.3790   24.5200 C   0  0  0  0  0  3  0  0  0  0  0  0
  -21.7530   -5.0290   24.4940 C   0  0  0  0  0  0  0  0  0  0  0  0
  -22.3780   -4.5010   23.3520 C   0  0  0  0  0  3  0  0  0  0  0  0
  -22.6060   -5.3220   22.2330 C   0  0  0  0  0  0  0  0  0  0  0  0
  -23.1900   -4.8030   21.1280 F   0  0  0  0  0  0  0  0  0  0  0  0
  -21.5300   -4.2360   25.5690 F   0  0  0  0  0  0  0  0  0  0  0  0
  -22.8140  -14.1440   21.0460 C   0  0  0  0  0  0  0  0  0  0  0  0
  -22.0620  -13.3520   21.8020 N   0  0  0  0  0  0  0  0  0  0  0  0
  -22.3380  -15.1340   20.4920 O   0  0  0  0  0  0  0  0  0  0  0  0
  -22.4560  -12.5500   22.2720 H   0  0  0  0  0  0  0  0  0  0  0  0
  -21.0780  -13.5490   21.9110 H   0  0  0  0  0  0  0  0  0  0  0  0
  -25.3390  -16.0910   20.5960 N   0  0  0  0  0  0  0  0  0  0  0  0
  -24.5030  -16.6640   20.6170 H   0  0  0  0  0  0  0  0  0  0  0  0
  -26.1790  -16.6250   20.4060 H   0  0  0  0  0  0  0  0  0  0  0  0
  1  2  1  0
  2  4  1  0
  2 55  1  0
  3  1  2  0
  5  1  1  0
  5  6  1  0
  6  8  1  0
  7  5  2  0
  9  6  1  0
  9 10  1  0
 11 12  1  0
 11 10  1  0
 12 13  1  0
 14 16  1  0
 14 13  1  0
 15 26  2  0
 16 21  1  0
 17 25  1  0
 17 27  1  0
 18 24  1  0
 18 20  1  0
 19 25  1  0
 20 19  1  0
 21 20  2  0
 22 23  1  0
 22 16  2  0
 23 18  2  0
 24 17  1  0
 25 15  1  0
 27 29  2  0
 28 27  1  0
 30 28  1  0
 31 40  2  0
 31 36  1  0
 32 28  1  0
 32 36  1  0
 33 32  1  0
 34 35  1  0
 34 33  1  0
 35 31  1  0
 36 37  2  0
 37 38  1  0
 39 38  2  0
 40 39  1  0
 41 15  1  0
 41 46  1  0
 41 42  1  0
 42 45  1  1
 42 43  1  0
 44 42  1  0
 46 49  1  0
 47 46  1  0
 47 51  1  0
 48 47  2  0
 51 50  1  0
 51 53  1  0
 53 54  1  0
 53 52  1  0
 55 56  1  0
 56 57  1  0
 57 58  1  0
 58 59  1  0
 60 59  1  0
 60 61  1  0
 62 61  1  0
 63 62  1  0
 64 63  1  0
 65 64  1  0
 66 74  1  0
 67 72  1  0
 68 69  1  0
 68 67  1  0
 70 69  1  0
 70 79  1  0
 70 71  1  0
 72 66  1  0
 72 71  1  0
 73 66  2  0
 74 65  1  0
 74 75  1  0
 76 77  2  0
 77 78  1  0
 77 96  1  0
 78 81  1  0
 79 76  1  0
 79 80  1  0
 80 78  2  0
 81 82  1  0
 82 83  2  0
 84 83  1  0
 85 84  2  0
 86 85  1  0
 86 81  2  0
 87 84  1  0
 87 88  1  0
 88 89  1  0
 89 90  2  0
 91 90  1  0
 91 95  1  0
 92 91  2  0
 93 88  2  0
 93 92  1  0
 94 93  1  0
 96 97  1  0
 97100  1  0
 97 99  1  0
 98 96  2  0
101102  1  0
101 76  1  0
103101  1  0
M  ISO  4  13 101  14 101  66 100  74 100
M  END
>  <TORSDO>  (43) 
F 33

>  <SCORE>  (43) 
17.541

>  <name>  (43) 
44

>  <ligand_id>  (43) 
44

>  <original_smiles>  (43) 
[H]c1c([H])c([H])c2c(c1[H])C([H])([H])C([H])([H])C([H])([H])C2([H])N([H])C(=O)C1([H])N(C(=O)C([H])(N([H])C(=O)C([H])(N([H])C([H])([H])[H])C([H])([H])[H])C(C([H])([H])[H])(C([H])([H])[H])C([H])([H])[H])C([H])([H])c2c([H])c(OC([H])([H])C([H])([H])OC([H])([H])C([H])([H])N([H])C(=O)C(=O)N([H])C([H])([H])C([H])([H])OC([H])([H])C([H])([H])OC([H])([H])C([H])([H])OC([H])([H])C([H])([H])N([H])C(=O)N3C([H])([H])C([H])([H])C([H])([H])C([H])(n4nc(-c5c([H])c([H])c(Oc6c([H])c([H])c(F)c([H])c6F)c([H])c5[H])c(C(=O)N([H])[H])c4N([H])[H])C3([H])[H])c([H])c([H])c2C1([H])[H]

>  <smiles>  (43) 
[H]c1c([H])c([H])c2c(c1[H])C([H])([H])C([H])([H])C([H])([H])C2([H])N([H])C(=O)C1([H])N(C(=O)C([H])(N([H])C(=O)C([H])(N([H])C([H])([H])[H])C([H])([H])[H])C(C([H])([H])[H])(C([H])([H])[H])C([H])([H])[H])C([H])([H])c2c([H])c(OC([H])([H])C([H])([H])OC([H])([H])C([H])([H])N([H])C(=O)C(=O)N([H])C([H])([H])C([H])([H])OC([H])([H])C([H])([H])OC([H])([H])C([H])([H])OC([H])([H])C([H])([H])N([H])C(=O)N3C([H])([H])C([H])([H])C([H])([H])C([H])(n4nc(-c5c([H])c([H])c(Oc6c([H])c([H])c(F)c([H])c6F)c([H])c5[H])c(C(=O)N([H])[H])c4N([H])[H])C3([H])[H])c([H])c([H])c2C1([H])[H]

$$$$
45:0:0
     RDKit          3D

112119  0  0  1  0  0  0  0  0999 V2000
  -24.0410  -23.2940   24.1170 C   0  0  0  0  0  3  0  0  0  0  0  0
  -24.9980  -23.7550   21.8540 C   0  0  0  0  0  0  0  0  0  0  0  0
  -25.1300  -23.5430   23.1680 N   0  0  0  0  0  0  0  0  0  0  0  0
  -23.9280  -23.9430   21.2720 O   0  0  0  0  0  0  0  0  0  0  0  0
  -26.0690  -23.3200   23.4670 H   0  0  0  0  0  0  0  0  0  0  0  0
  -26.3420  -23.7150   21.0810 C   0  0  0  0  0  0  0  0  0  0  0  0
  -27.1730  -24.7240   21.3710 N   0  0  0  0  0  0  0  0  0  0  0  0
  -26.6040  -22.7890   20.3100 O   0  0  0  0  0  0  0  0  0  0  0  0
  -26.8230  -25.4220   22.0130 H   0  0  0  0  0  0  0  0  0  0  0  0
  -28.5570  -24.8380   20.9070 C   0  0  0  0  0  2  0  0  0  0  0  0
  -29.0510  -26.2970   20.8800 C   0  0  0  0  0  2  0  0  0  0  0  0
  -28.6570  -26.9600   19.6810 O   0  0  0  0  0  0  0  0  0  0  0  0
  -24.6480  -31.7480   23.1090 C   0  0  0  0  0  0  0  0  0  0  0  0
  -27.4830  -27.6620   19.7500 C   0  0  0  0  0  0  0  0  0  0  0  0
  -23.5330  -30.4870   21.2960 C   0  0  0  0  0  3  0  0  0  0  0  0
  -25.0670  -29.1100   19.7930 C   0  0  0  0  0  0  0  0  0  0  0  0
  -26.0520  -30.9000   21.2340 C   0  0  0  0  0  2  0  0  0  0  0  0
  -26.1850  -29.5950   20.4800 C   0  0  0  0  0  0  0  0  0  0  0  0
  -27.3980  -28.8760   20.4620 C   0  0  0  0  0  3  0  0  0  0  0  0
  -26.3600  -27.1880   19.0460 C   0  0  0  0  0  3  0  0  0  0  0  0
  -25.1460  -27.9020   19.0760 C   0  0  0  0  0  3  0  0  0  0  0  0
  -23.8050  -29.9400   19.8680 C   0  0  0  0  0  2  0  0  0  0  0  0
  -24.7600  -31.0550   21.9400 N   0  0  0  0  0  0  0  0  0  0  0  0
  -23.5430  -31.9590   23.6270 O   0  0  0  0  0  0  0  0  0  0  0  0
  -22.8600  -29.3720   22.1300 C   0  0  0  0  0  0  0  0  0  0  0  0
  -21.5290  -29.2520   22.0020 N   0  0  0  0  0  0  0  0  0  0  0  0
  -23.5310  -28.6250   22.8500 O   0  0  0  0  0  0  0  0  0  0  0  0
  -21.0460  -29.9050   21.3980 H   0  0  0  0  0  0  0  0  0  0  0  0
  -18.1110  -28.2340   22.5320 C   0  0  0  0  0  0  0  0  0  0  0  0
  -20.6920  -28.2480   22.6570 C   0  0  0  0  0  3  0  0  0  0  0  0
  -20.6400  -26.9450   21.8280 C   0  0  0  0  0  2  0  0  0  0  0  0
  -19.4590  -26.8950   20.8560 C   0  0  0  0  0  2  0  0  0  0  0  0
  -18.1330  -27.0230   21.6130 C   0  0  0  0  0  2  0  0  0  0  0  0
  -19.3140  -28.8180   23.0080 C   0  0  0  0  0  0  0  0  0  0  0  0
  -19.2400  -29.9690   23.8230 C   0  0  0  0  0  3  0  0  0  0  0  0
  -17.9940  -30.5230   24.1760 C   0  0  0  0  0  3  0  0  0  0  0  0
  -16.8050  -29.9270   23.7200 C   0  0  0  0  0  3  0  0  0  0  0  0
  -16.8660  -28.7870   22.9010 C   0  0  0  0  0  3  0  0  0  0  0  0
  -25.9010  -32.3300   23.8360 C   0  0  0  0  0  3  0  0  0  0  0  0
  -25.5520  -33.6750   24.3160 N   0  0  0  0  0  0  0  0  0  0  0  0
  -25.9020  -34.8120   23.6990 C   0  0  0  0  0  0  0  0  0  0  0  0
  -26.6200  -34.8390   22.6980 O   0  0  0  0  0  0  0  0  0  0  0  0
  -24.9110  -33.7310   25.0940 H   0  0  0  0  0  0  0  0  0  0  0  0
  -24.1600  -36.6120   23.4680 C   0  0  0  0  0  1  0  0  0  0  0  0
  -25.3700  -36.1320   24.2860 C   0  0  0  0  0  3  0  0  0  0  0  0
  -27.4440  -36.9410   25.3210 C   0  0  0  0  0  1  0  0  0  0  0  0
  -26.3860  -37.2050   24.3490 N   0  0  0  0  0  0  0  0  0  0  0  0
  -25.9530  -38.0940   24.5860 H   0  0  0  0  0  0  0  0  0  0  0  0
  -26.4050  -31.4260   25.0280 C   0  0  1  0  0  0  0  0  0  0  0  0
  -25.2930  -31.0480   26.0340 C   0  0  0  0  0  1  0  0  0  0  0  0
  -27.0220  -30.1110   24.4950 C   0  0  0  0  0  1  0  0  0  0  0  0
  -27.5300  -32.1510   25.8010 C   0  0  0  0  0  1  0  0  0  0  0  0
  -24.3730  -21.9940   24.8640 C   0  0  0  0  0  0  0  0  0  0  0  0
  -25.5770  -21.9670   25.4520 N   0  0  0  0  0  0  0  0  0  0  0  0
  -23.5950  -21.0410   24.8770 O   0  0  0  0  0  0  0  0  0  0  0  0
  -26.1370  -22.8060   25.4010 H   0  0  0  0  0  0  0  0  0  0  0  0
  -26.2090  -20.8680   26.1620 C   0  0  0  0  0  2  0  0  0  0  0  0
  -27.6700  -21.2670   26.4230 C   0  0  0  0  0  2  0  0  0  0  0  0
  -28.2830  -21.5880   25.1730 O   0  0  0  0  0  0  0  0  0  0  0  0
  -29.6820  -21.8260   25.2760 C   0  0  0  0  0  2  0  0  0  0  0  0
  -30.1990  -22.4600   23.9730 C   0  0  0  0  0  2  0  0  0  0  0  0
  -30.1210  -21.5320   22.9000 O   0  0  0  0  0  0  0  0  0  0  0  0
  -30.6470  -22.0420   21.6780 C   0  0  0  0  0  2  0  0  0  0  0  0
  -30.0940  -21.2230   20.5070 C   0  0  0  0  0  2  0  0  0  0  0  0
  -30.8040  -19.9940   20.3820 O   0  0  0  0  0  0  0  0  0  0  0  0
  -29.9450  -18.9110   20.0590 C   0  0  0  0  0  2  0  0  0  0  0  0
  -30.7410  -17.7470   19.4500 C   0  0  0  0  0  2  0  0  0  0  0  0
  -32.0170  -17.4020   20.2450 C   0  0  0  0  0  2  0  0  0  0  0  0
  -33.3160  -16.1280   18.4670 C   0  0  0  0  0  0  0  0  0  0  0  0
  -33.8330  -14.3230   16.8670 C   0  0  0  0  0  2  0  0  0  0  0  0
  -32.5280  -13.5560   16.5630 C   0  0  0  0  0  2  0  0  0  0  0  0
  -32.2690  -12.4590   17.6180 C   0  0  0  0  0  2  0  0  0  0  0  0
  -32.3990  -12.9900   19.0700 C   0  0  0  0  0  3  0  0  0  0  0  0
  -33.7240  -13.7700   19.2280 C   0  0  0  0  0  2  0  0  0  0  0  0
  -33.7250  -14.8570   18.2300 N   0  0  0  0  0  0  0  0  0  0  0  0
  -33.3120  -17.0200   17.6130 O   0  0  0  0  0  0  0  0  0  0  0  0
  -32.7690  -16.2820   19.6830 N   0  0  0  0  0  0  0  0  0  0  0  0
  -32.8330  -15.4650   20.2730 H   0  0  0  0  0  0  0  0  0  0  0  0
  -31.2920  -11.6770   20.9920 C   0  0  0  0  0  0  0  0  0  0  0  0
  -31.6360  -10.5040   21.6120 C   0  0  0  0  0  0  0  0  0  0  0  0
  -32.8510  -10.0760   20.9960 C   0  0  0  0  0  0  0  0  0  0  0  0
  -32.2860  -11.9140   20.0530 N   0  0  0  0  0  0  0  0  0  0  0  0
  -33.2540  -10.9660   20.1000 N   0  0  0  0  0  0  0  0  0  0  0  0
  -33.6270   -8.8410   21.1670 C   0  0  0  0  0  0  0  0  0  0  0  0
  -35.0240   -8.8690   21.3700 C   0  0  0  0  0  3  0  0  0  0  0  0
  -35.7460   -7.6700   21.5480 C   0  0  0  0  0  3  0  0  0  0  0  0
  -35.0720   -6.4260   21.5280 C   0  0  0  0  0  0  0  0  0  0  0  0
  -33.6840   -6.4020   21.3040 C   0  0  0  0  0  3  0  0  0  0  0  0
  -32.9660   -7.5960   21.1220 C   0  0  0  0  0  3  0  0  0  0  0  0
  -35.6930   -5.2090   21.6660 O   0  0  0  0  0  0  0  0  0  0  0  0
  -36.9000   -5.0870   22.3080 C   0  0  0  0  0  0  0  0  0  0  0  0
  -37.0730   -5.4870   23.6500 C   0  0  0  0  0  3  0  0  0  0  0  0
  -38.3110   -5.2790   24.2930 C   0  0  0  0  0  3  0  0  0  0  0  0
  -39.3710   -4.6650   23.5980 C   0  0  0  0  0  0  0  0  0  0  0  0
  -39.1970   -4.2610   22.2630 C   0  0  0  0  0  3  0  0  0  0  0  0
  -37.9640   -4.4690   21.6200 C   0  0  0  0  0  0  0  0  0  0  0  0
  -37.7960   -4.0590   20.3400 F   0  0  0  0  0  0  0  0  0  0  0  0
  -40.5560   -4.4580   24.2160 F   0  0  0  0  0  0  0  0  0  0  0  0
  -30.8350   -9.7720   22.6480 C   0  0  0  0  0  0  0  0  0  0  0  0
  -31.5060   -9.0610   23.5510 N   0  0  0  0  0  0  0  0  0  0  0  0
  -29.6100   -9.8610   22.6940 O   0  0  0  0  0  0  0  0  0  0  0  0
  -32.5120   -9.0000   23.5270 H   0  0  0  0  0  0  0  0  0  0  0  0
  -31.0030   -8.5700   24.2770 H   0  0  0  0  0  0  0  0  0  0  0  0
  -30.2160  -12.5460   21.1340 N   0  0  0  0  0  0  0  0  0  0  0  0
  -29.4510  -12.3620   21.7730 H   0  0  0  0  0  0  0  0  0  0  0  0
  -30.0620  -13.3660   20.5590 H   0  0  0  0  0  0  0  0  0  0  0  0
  -23.9430  -24.4470   25.1470 C   0  0  0  0  0  2  0  0  0  0  0  0
  -23.9460  -25.8430   24.5230 C   0  0  0  0  0  0  0  0  0  0  0  0
  -25.1110  -26.4700   24.3970 N   0  0  0  0  0  0  0  0  0  0  0  0
  -22.8920  -26.3750   24.1810 O   0  0  0  0  0  0  0  0  0  0  0  0
  -25.9650  -26.0300   24.7100 H   0  0  0  0  0  0  0  0  0  0  0  0
  -25.1560  -27.3930   23.9840 H   0  0  0  0  0  0  0  0  0  0  0  0
  1 53  1  0
  1107  1  0
  2  3  1  0
  3  5  1  0
  3  1  1  0
  4  2  2  0
  6  7  1  0
  6  2  1  0
  7  9  1  0
  8  6  2  0
 10  7  1  0
 11 10  1  0
 12 14  1  0
 12 11  1  0
 13 24  2  0
 14 19  1  0
 15 23  1  0
 15 25  1  0
 16 22  1  0
 16 18  1  0
 17 23  1  0
 18 17  1  0
 19 18  2  0
 20 21  1  0
 20 14  2  0
 21 16  2  0
 22 15  1  0
 23 13  1  0
 25 27  2  0
 26 25  1  0
 28 26  1  0
 29 38  2  0
 29 34  1  0
 30 26  1  0
 30 34  1  0
 31 30  1  0
 32 33  1  0
 32 31  1  0
 33 29  1  0
 34 35  2  0
 35 36  1  0
 37 36  2  0
 38 37  1  0
 39 13  1  0
 39 40  1  0
 39 49  1  0
 40 43  1  0
 41 45  1  0
 41 40  1  0
 42 41  2  0
 45 44  1  0
 45 47  1  0
 47 48  1  0
 47 46  1  0
 49 52  1  1
 49 50  1  0
 51 49  1  0
 53 55  2  0
 53 54  1  0
 54 57  1  0
 56 54  1  0
 57 58  1  0
 59 60  1  0
 59 58  1  0
 61 60  1  0
 62 61  1  0
 63 62  1  0
 64 63  1  0
 65 64  1  0
 66 65  1  0
 67 66  1  0
 67 68  1  0
 69 77  1  0
 70 75  1  0
 71 70  1  0
 71 72  1  0
 73 72  1  0
 73 74  1  0
 73 82  1  0
 75 69  1  0
 75 74  1  0
 76 69  2  0
 77 68  1  0
 77 78  1  0
 79104  1  0
 79 80  2  0
 80 99  1  0
 81 84  1  0
 81 80  1  0
 82 83  1  0
 82 79  1  0
 83 81  2  0
 84 85  1  0
 85 86  2  0
 87 86  1  0
 87 90  1  0
 88 87  2  0
 89 84  2  0
 89 88  1  0
 90 91  1  0
 91 92  1  0
 92 93  2  0
 94 98  1  0
 94 93  1  0
 95 94  2  0
 96 95  1  0
 96 91  2  0
 97 96  1  0
 99101  2  0
 99100  1  0
100103  1  0
102100  1  0
104105  1  0
106104  1  0
108107  1  0
109108  1  0
109111  1  0
110108  2  0
112109  1  0
M  ISO  4  11 101  12 101  69 100  77 100
M  END
>  <TORSDO>  (44) 
F 35

>  <SCORE>  (44) 
18.396

>  <name>  (44) 
45

>  <ligand_id>  (44) 
45

>  <original_smiles>  (44) 
[H]c1c([H])c([H])c2c(c1[H])C([H])([H])C([H])([H])C([H])([H])C2([H])N([H])C(=O)C1([H])N(C(=O)C([H])(N([H])C(=O)C([H])(N([H])C([H])([H])[H])C([H])([H])[H])C(C([H])([H])[H])(C([H])([H])[H])C([H])([H])[H])C([H])([H])c2c([H])c(OC([H])([H])C([H])([H])N([H])C(=O)C(=O)N([H])C([H])(C(=O)N([H])C([H])([H])C([H])([H])OC([H])([H])C([H])([H])OC([H])([H])C([H])([H])OC([H])([H])C([H])([H])C([H])([H])N([H])C(=O)N3C([H])([H])C([H])([H])C([H])([H])C([H])(n4nc(-c5c([H])c([H])c(Oc6c([H])c([H])c(F)c([H])c6F)c([H])c5[H])c(C(=O)N([H])[H])c4N([H])[H])C3([H])[H])C([H])([H])C(=O)N([H])[H])c([H])c([H])c2C1([H])[H]

>  <smiles>  (44) 
[H]c1c([H])c([H])c2c(c1[H])C([H])([H])C([H])([H])C([H])([H])C2([H])N([H])C(=O)C1([H])N(C(=O)C([H])(N([H])C(=O)C([H])(N([H])C([H])([H])[H])C([H])([H])[H])C(C([H])([H])[H])(C([H])([H])[H])C([H])([H])[H])C([H])([H])c2c([H])c(OC([H])([H])C([H])([H])N([H])C(=O)C(=O)N([H])C([H])(C(=O)N([H])C([H])([H])C([H])([H])OC([H])([H])C([H])([H])OC([H])([H])C([H])([H])OC([H])([H])C([H])([H])C([H])([H])N([H])C(=O)N3C([H])([H])C([H])([H])C([H])([H])C([H])(n4nc(-c5c([H])c([H])c(Oc6c([H])c([H])c(F)c([H])c6F)c([H])c5[H])c(C(=O)N([H])[H])c4N([H])[H])C3([H])[H])C([H])([H])C(=O)N([H])[H])c([H])c([H])c2C1([H])[H]

$$$$
46:0:0
     RDKit          3D

100107  0  0  1  0  0  0  0  0999 V2000
  -32.4300  -19.0770   17.5060 C   0  0  0  0  0  0  0  0  0  0  0  0
  -32.8690  -20.3320   17.3970 N   0  0  0  0  0  0  0  0  0  0  0  0
  -31.6470  -18.5820   16.6940 O   0  0  0  0  0  0  0  0  0  0  0  0
  -33.5450  -20.6610   18.0740 H   0  0  0  0  0  0  0  0  0  0  0  0
  -32.9020  -18.2600   18.7140 C   0  0  0  0  0  2  0  0  0  0  0  0
  -31.2880  -17.4860   20.4360 C   0  0  0  0  0  0  0  0  0  0  0  0
  -31.7500  -17.5110   19.1890 N   0  0  0  0  0  0  0  0  0  0  0  0
  -31.9440  -17.8970   21.3970 O   0  0  0  0  0  0  0  0  0  0  0  0
  -31.1510  -17.1500   18.4570 H   0  0  0  0  0  0  0  0  0  0  0  0
  -29.8540  -16.9490   20.6420 C   0  0  0  0  0  3  0  0  0  0  0  0
  -30.4430  -14.4750   20.3150 C   0  0  0  0  0  0  0  0  0  0  0  0
  -30.2280  -12.2310   19.3540 C   0  0  0  0  0  2  0  0  0  0  0  0
  -29.2650  -12.3030   18.1510 C   0  0  0  0  0  2  0  0  0  0  0  0
  -27.7990  -12.1430   18.6080 C   0  0  0  0  0  2  0  0  0  0  0  0
  -27.4410  -13.0680   19.8050 C   0  0  0  0  0  3  0  0  0  0  0  0
  -28.5150  -12.9690   20.9140 C   0  0  0  0  0  2  0  0  0  0  0  0
  -29.8240  -13.2710   20.3060 N   0  0  0  0  0  0  0  0  0  0  0  0
  -31.5880  -14.6440   19.8930 O   0  0  0  0  0  0  0  0  0  0  0  0
  -29.6260  -15.4970   20.6130 N   0  0  0  0  0  0  0  0  0  0  0  0
  -28.7150  -15.2050   20.9240 H   0  0  0  0  0  0  0  0  0  0  0  0
  -25.0560  -13.6630   20.5820 C   0  0  0  0  0  0  0  0  0  0  0  0
  -24.0090  -12.8800   20.9920 C   0  0  0  0  0  0  0  0  0  0  0  0
  -24.4820  -11.5330   20.9430 C   0  0  0  0  0  0  0  0  0  0  0  0
  -26.1040  -12.7910   20.3230 N   0  0  0  0  0  0  0  0  0  0  0  0
  -25.7610  -11.5040   20.5900 N   0  0  0  0  0  0  0  0  0  0  0  0
  -23.7760  -10.2610   21.1440 C   0  0  0  0  0  0  0  0  0  0  0  0
  -24.2640   -9.2860   22.0400 C   0  0  0  0  0  3  0  0  0  0  0  0
  -23.5630   -8.0770   22.2350 C   0  0  0  0  0  3  0  0  0  0  0  0
  -22.3570   -7.8390   21.5310 C   0  0  0  0  0  0  0  0  0  0  0  0
  -21.8890   -8.8030   20.6220 C   0  0  0  0  0  3  0  0  0  0  0  0
  -22.5940  -10.0030   20.4250 C   0  0  0  0  0  3  0  0  0  0  0  0
  -21.6200   -6.6850   21.6360 O   0  0  0  0  0  0  0  0  0  0  0  0
  -21.6430   -5.9130   22.7690 C   0  0  0  0  0  0  0  0  0  0  0  0
  -21.2830   -6.4300   24.0330 C   0  0  0  0  0  3  0  0  0  0  0  0
  -21.2510   -5.5810   25.1590 C   0  0  0  0  0  3  0  0  0  0  0  0
  -21.5720   -4.2180   25.0230 C   0  0  0  0  0  0  0  0  0  0  0  0
  -21.9330   -3.7020   23.7650 C   0  0  0  0  0  3  0  0  0  0  0  0
  -21.9620   -4.5460   22.6420 C   0  0  0  0  0  0  0  0  0  0  0  0
  -22.2830   -4.0350   21.4290 F   0  0  0  0  0  0  0  0  0  0  0  0
  -21.5390   -3.4030   26.1030 F   0  0  0  0  0  0  0  0  0  0  0  0
  -22.6140  -13.3410   21.3060 C   0  0  0  0  0  0  0  0  0  0  0  0
  -21.9260  -12.6440   22.2040 N   0  0  0  0  0  0  0  0  0  0  0  0
  -22.1400  -14.3540   20.7950 O   0  0  0  0  0  0  0  0  0  0  0  0
  -22.3220  -11.8300   22.6460 H   0  0  0  0  0  0  0  0  0  0  0  0
  -20.9880  -12.9330   22.4540 H   0  0  0  0  0  0  0  0  0  0  0  0
  -25.1950  -15.0360   20.3860 N   0  0  0  0  0  0  0  0  0  0  0  0
  -24.4170  -15.6790   20.5000 H   0  0  0  0  0  0  0  0  0  0  0  0
  -26.0100  -15.4720   19.9750 H   0  0  0  0  0  0  0  0  0  0  0  0
  -28.7110  -17.1750   18.2910 C   0  0  0  0  0  1  0  0  0  0  0  0
  -27.4120  -17.6970   20.3990 C   0  0  0  0  0  1  0  0  0  0  0  0
  -28.8040  -17.6830   19.7520 C   0  0  0  0  0  3  0  0  0  0  0  0
  -32.4090  -21.2730   16.3830 C   0  0  0  0  0  2  0  0  0  0  0  0
  -32.6410  -22.7170   16.8370 C   0  0  0  0  0  2  0  0  0  0  0  0
  -32.2190  -23.5910   15.8050 O   0  0  0  0  0  0  0  0  0  0  0  0
  -32.2380  -24.9630   16.1810 C   0  0  0  0  0  2  0  0  0  0  0  0
  -30.7990  -25.4760   16.3740 C   0  0  0  0  0  2  0  0  0  0  0  0
  -30.3750  -25.2720   17.7170 O   0  0  0  0  0  0  0  0  0  0  0  0
  -29.1030  -25.8610   17.9870 C   0  0  0  0  0  2  0  0  0  0  0  0
  -28.6990  -25.5910   19.4500 C   0  0  0  0  0  2  0  0  0  0  0  0
  -28.5280  -26.8070   20.1840 O   0  0  0  0  0  0  0  0  0  0  0  0
  -24.6220  -31.8900   23.2450 C   0  0  0  0  0  0  0  0  0  0  0  0
  -27.3150  -27.4690   20.1690 C   0  0  0  0  0  0  0  0  0  0  0  0
  -23.4320  -30.4820   21.5960 C   0  0  0  0  0  3  0  0  0  0  0  0
  -24.9000  -28.9510   20.1850 C   0  0  0  0  0  0  0  0  0  0  0  0
  -25.9590  -30.8490   21.4200 C   0  0  0  0  0  2  0  0  0  0  0  0
  -26.0520  -29.4810   20.7760 C   0  0  0  0  0  0  0  0  0  0  0  0
  -27.2550  -28.7440   20.7740 C   0  0  0  0  0  3  0  0  0  0  0  0
  -26.1360  -26.9420   19.5840 C   0  0  0  0  0  3  0  0  0  0  0  0
  -24.9350  -27.6740   19.5950 C   0  0  0  0  0  3  0  0  0  0  0  0
  -23.6570  -29.8080   20.2170 C   0  0  0  0  0  2  0  0  0  0  0  0
  -24.6890  -31.0870   22.1450 N   0  0  0  0  0  0  0  0  0  0  0  0
  -23.5340  -32.1570   23.7760 O   0  0  0  0  0  0  0  0  0  0  0  0
  -22.7790  -29.4560   22.5470 C   0  0  0  0  0  0  0  0  0  0  0  0
  -21.4550  -29.2790   22.4210 N   0  0  0  0  0  0  0  0  0  0  0  0
  -23.4610  -28.8230   23.3590 O   0  0  0  0  0  0  0  0  0  0  0  0
  -20.9640  -29.8390   21.7380 H   0  0  0  0  0  0  0  0  0  0  0  0
  -18.0720  -28.1210   22.9290 C   0  0  0  0  0  0  0  0  0  0  0  0
  -20.6340  -28.3430   23.1880 C   0  0  0  0  0  3  0  0  0  0  0  0
  -20.7170  -26.9180   22.5940 C   0  0  0  0  0  2  0  0  0  0  0  0
  -19.6050  -26.6210   21.5830 C   0  0  0  0  0  2  0  0  0  0  0  0
  -18.2280  -26.7780   22.2360 C   0  0  0  0  0  2  0  0  0  0  0  0
  -19.2040  -28.8650   23.3610 C   0  0  0  0  0  0  0  0  0  0  0  0
  -19.0060  -30.1230   23.9640 C   0  0  0  0  0  3  0  0  0  0  0  0
  -17.7100  -30.6430   24.1450 C   0  0  0  0  0  3  0  0  0  0  0  0
  -16.5940  -29.8940   23.7340 C   0  0  0  0  0  3  0  0  0  0  0  0
  -16.7740  -28.6390   23.1310 C   0  0  0  0  0  3  0  0  0  0  0  0
  -25.9010  -32.5260   23.8690 C   0  0  0  0  0  3  0  0  0  0  0  0
  -25.5840  -33.9250   24.1930 N   0  0  0  0  0  0  0  0  0  0  0  0
  -25.9120  -34.9750   23.4290 C   0  0  0  0  0  0  0  0  0  0  0  0
  -26.5890  -34.8740   22.4030 O   0  0  0  0  0  0  0  0  0  0  0  0
  -24.9890  -34.0780   24.9930 H   0  0  0  0  0  0  0  0  0  0  0  0
  -24.1800  -36.7570   23.0520 C   0  0  0  0  0  1  0  0  0  0  0  0
  -25.4130  -36.3620   23.8790 C   0  0  0  0  0  3  0  0  0  0  0  0
  -27.5320  -37.2610   24.7340 C   0  0  0  0  0  1  0  0  0  0  0  0
  -26.4410  -37.4220   23.7760 N   0  0  0  0  0  0  0  0  0  0  0  0
  -26.0250  -38.3390   23.9210 H   0  0  0  0  0  0  0  0  0  0  0  0
  -26.4130  -31.7620   25.1520 C   0  0  1  0  0  0  0  0  0  0  0  0
  -25.3180  -31.5230   26.2150 C   0  0  0  0  0  1  0  0  0  0  0  0
  -27.0040  -30.3860   24.7660 C   0  0  0  0  0  1  0  0  0  0  0  0
  -27.5480  -32.5690   25.8240 C   0  0  0  0  0  1  0  0  0  0  0  0
  1  5  1  0
  2  1  1  0
  2  4  1  0
  3  1  2  0
  5  7  1  0
  6 10  1  0
  6  8  2  0
  7  6  1  0
  9  7  1  0
 10 51  1  0
 11 19  1  0
 12 17  1  0
 13 14  1  0
 13 12  1  0
 15 14  1  0
 15 24  1  0
 15 16  1  0
 17 11  1  0
 17 16  1  0
 18 11  2  0
 19 10  1  0
 19 20  1  0
 21 22  2  0
 22 41  1  0
 23 22  1  0
 23 26  1  0
 24 21  1  0
 24 25  1  0
 25 23  2  0
 26 27  1  0
 27 28  2  0
 29 32  1  0
 29 28  1  0
 30 29  2  0
 31 30  1  0
 31 26  2  0
 32 33  1  0
 33 34  1  0
 34 35  2  0
 36 35  1  0
 36 40  1  0
 37 36  2  0
 38 33  2  0
 38 37  1  0
 39 38  1  0
 41 42  1  0
 42 45  1  0
 42 44  1  0
 43 41  2  0
 46 47  1  0
 46 21  1  0
 48 46  1  0
 49 51  1  0
 51 50  1  0
 52 53  1  0
 52  2  1  0
 54 55  1  0
 54 53  1  0
 55 56  1  0
 56 57  1  0
 57 58  1  0
 58 59  1  0
 59 60  1  0
 61 72  2  0
 62 60  1  0
 62 67  1  0
 63 71  1  0
 63 73  1  0
 64 70  1  0
 64 66  1  0
 65 71  1  0
 66 65  1  0
 67 66  2  0
 68 69  1  0
 68 62  2  0
 69 64  2  0
 70 63  1  0
 71 61  1  0
 73 75  2  0
 74 73  1  0
 76 74  1  0
 77 86  2  0
 77 82  1  0
 78 74  1  0
 78 82  1  0
 79 78  1  0
 80 81  1  0
 80 79  1  0
 81 77  1  0
 82 83  2  0
 83 84  1  0
 85 84  2  0
 86 85  1  0
 87 61  1  0
 87 88  1  0
 87 97  1  0
 88 91  1  0
 89 93  1  0
 89 88  1  0
 90 89  2  0
 93 92  1  0
 95 93  1  0
 95 96  1  0
 95 94  1  0
 97100  1  1
 97 98  1  0
 99 97  1  0
M  ISO  4  11 100  19 100  59 101  60 101
M  END
>  <TORSDO>  (45) 
F 28

>  <SCORE>  (45) 
-11.061

>  <name>  (45) 
46

>  <ligand_id>  (45) 
46

>  <original_smiles>  (45) 
[H]c1c([H])c([H])c2c(c1[H])C([H])([H])C([H])([H])C([H])([H])C2([H])N([H])C(=O)C1([H])N(C(=O)C([H])(N([H])C(=O)C([H])(N([H])C([H])([H])[H])C([H])([H])[H])C(C([H])([H])[H])(C([H])([H])[H])C([H])([H])[H])C([H])([H])c2c([H])c(OC([H])([H])C([H])([H])OC([H])([H])C([H])([H])OC([H])([H])C([H])([H])N([H])C(=O)C([H])([H])N([H])C(=O)C([H])(N([H])C(=O)N3C([H])([H])C([H])([H])C([H])([H])C([H])(n4nc(-c5c([H])c([H])c(Oc6c([H])c([H])c(F)c([H])c6F)c([H])c5[H])c(C(=O)N([H])[H])c4N([H])[H])C3([H])[H])C([H])(C([H])([H])[H])C([H])([H])[H])c([H])c([H])c2C1([H])[H]

>  <smiles>  (45) 
[H]c1c([H])c([H])c2c(c1[H])C([H])([H])C([H])([H])C([H])([H])C2([H])N([H])C(=O)C1([H])N(C(=O)C([H])(N([H])C(=O)C([H])(N([H])C([H])([H])[H])C([H])([H])[H])C(C([H])([H])[H])(C([H])([H])[H])C([H])([H])[H])C([H])([H])c2c([H])c(OC([H])([H])C([H])([H])OC([H])([H])C([H])([H])OC([H])([H])C([H])([H])N([H])C(=O)C([H])([H])N([H])C(=O)C([H])(N([H])C(=O)N3C([H])([H])C([H])([H])C([H])([H])C([H])(n4nc(-c5c([H])c([H])c(Oc6c([H])c([H])c(F)c([H])c6F)c([H])c5[H])c(C(=O)N([H])[H])c4N([H])[H])C3([H])[H])C([H])(C([H])([H])[H])C([H])([H])[H])c([H])c([H])c2C1([H])[H]

$$$$
47:0:0
     RDKit          3D

 96103  0  0  1  0  0  0  0  0999 V2000
  -33.5200  -19.0140   21.5060 C   0  0  0  0  0  2  0  0  0  0  0  0
  -32.4520  -17.4430   19.8710 C   0  0  0  0  0  0  0  0  0  0  0  0
  -32.4760  -18.1100   21.0290 N   0  0  0  0  0  0  0  0  0  0  0  0
  -33.3990  -17.4650   19.0820 O   0  0  0  0  0  0  0  0  0  0  0  0
  -31.6440  -18.0450   21.5980 H   0  0  0  0  0  0  0  0  0  0  0  0
  -31.1550  -16.6790   19.5050 C   0  0  0  0  0  0  0  0  0  0  0  0
  -31.7210  -14.1600   19.4900 C   0  0  0  0  0  0  0  0  0  0  0  0
  -31.3000  -11.7810   18.9800 C   0  0  0  0  0  2  0  0  0  0  0  0
  -30.3030  -11.6920   17.8040 C   0  0  0  0  0  2  0  0  0  0  0  0
  -28.8460  -11.7640   18.3050 C   0  0  0  0  0  2  0  0  0  0  0  0
  -28.6100  -12.9430   19.2870 C   0  0  0  0  0  3  0  0  0  0  0  0
  -29.6990  -12.9450   20.3840 C   0  0  0  0  0  2  0  0  0  0  0  0
  -31.0170  -13.0200   19.7190 N   0  0  0  0  0  0  0  0  0  0  0  0
  -32.7880  -14.1760   18.8730 O   0  0  0  0  0  0  0  0  0  0  0  0
  -31.0700  -15.2630   19.8920 N   0  0  0  0  0  4  0  0  0  0  0  0
  -30.2480  -15.0550   20.4340 H   0  0  0  0  0  0  0  0  0  0  0  0
  -26.4100  -13.9450   20.1800 C   0  0  0  0  0  0  0  0  0  0  0  0
  -25.2520  -13.3630   20.6220 C   0  0  0  0  0  0  0  0  0  0  0  0
  -25.4610  -11.9540   20.5270 C   0  0  0  0  0  0  0  0  0  0  0  0
  -27.2640  -12.9020   19.8580 N   0  0  0  0  0  0  0  0  0  0  0  0
  -26.6960  -11.6970   20.1160 N   0  0  0  0  0  0  0  0  0  0  0  0
  -24.5380  -10.8350   20.7460 C   0  0  0  0  0  0  0  0  0  0  0  0
  -24.8650   -9.7650   21.6090 C   0  0  0  0  0  3  0  0  0  0  0  0
  -23.9540   -8.7080   21.8180 C   0  0  0  0  0  3  0  0  0  0  0  0
  -22.6990   -8.7150   21.1640 C   0  0  0  0  0  0  0  0  0  0  0  0
  -22.3870   -9.7700   20.2890 C   0  0  0  0  0  3  0  0  0  0  0  0
  -23.2970  -10.8180   20.0780 C   0  0  0  0  0  3  0  0  0  0  0  0
  -21.7610   -7.7190   21.2870 O   0  0  0  0  0  0  0  0  0  0  0  0
  -21.6550   -6.9670   22.4290 C   0  0  0  0  0  0  0  0  0  0  0  0
  -21.4100   -7.5570   23.6890 C   0  0  0  0  0  3  0  0  0  0  0  0
  -21.2390   -6.7410   24.8260 C   0  0  0  0  0  3  0  0  0  0  0  0
  -21.3020   -5.3400   24.7050 C   0  0  0  0  0  0  0  0  0  0  0  0
  -21.5420   -4.7520   23.4510 C   0  0  0  0  0  3  0  0  0  0  0  0
  -21.7140   -5.5640   22.3150 C   0  0  0  0  0  0  0  0  0  0  0  0
  -21.9230   -4.9910   21.1050 F   0  0  0  0  0  0  0  0  0  0  0  0
  -21.1310   -4.5570   25.7950 F   0  0  0  0  0  0  0  0  0  0  0  0
  -23.9880  -14.0710   21.0170 C   0  0  0  0  0  0  0  0  0  0  0  0
  -23.2330  -13.5010   21.9510 N   0  0  0  0  0  0  0  0  0  0  0  0
  -23.6870  -15.1610   20.5350 O   0  0  0  0  0  0  0  0  0  0  0  0
  -23.4910  -12.6160   22.3620 H   0  0  0  0  0  0  0  0  0  0  0  0
  -22.3850  -13.9560   22.2580 H   0  0  0  0  0  0  0  0  0  0  0  0
  -26.7970  -15.2700   20.0070 N   0  0  0  0  0  0  0  0  0  0  0  0
  -26.1650  -16.0430   20.1840 H   0  0  0  0  0  0  0  0  0  0  0  0
  -27.6800  -15.5620   19.6100 H   0  0  0  0  0  0  0  0  0  0  0  0
  -29.3720  -17.5220   21.1820 C   0  0  0  0  0  1  0  0  0  0  0  0
  -28.6590  -16.5240   19.0090 C   0  0  0  0  0  1  0  0  0  0  0  0
  -29.7040  -18.7600   19.0090 C   0  0  0  0  0  1  0  0  0  0  0  0
  -29.7560  -17.3740   19.6930 C   0  0  2  0  0  0  0  0  0  0  0  0
  -33.3830  -20.4450   20.9490 C   0  0  0  0  0  2  0  0  0  0  0  0
  -32.0700  -20.9610   21.1610 O   0  0  0  0  0  0  0  0  0  0  0  0
  -31.8900  -22.2210   20.5230 C   0  0  0  0  0  2  0  0  0  0  0  0
  -30.4610  -22.7530   20.7170 C   0  0  0  0  0  2  0  0  0  0  0  0
  -30.3370  -23.9550   19.9680 O   0  0  0  0  0  0  0  0  0  0  0  0
  -29.0640  -24.5820   20.0740 C   0  0  0  0  0  2  0  0  0  0  0  0
  -29.0830  -25.8870   19.2550 C   0  0  0  0  0  2  0  0  0  0  0  0
  -28.7810  -27.0110   20.0820 O   0  0  0  0  0  0  0  0  0  0  0  0
  -24.5900  -31.7640   23.2650 C   0  0  0  0  0  0  0  0  0  0  0  0
  -27.5340  -27.6000   20.0700 C   0  0  0  0  0  0  0  0  0  0  0  0
  -23.5020  -30.4020   21.5090 C   0  0  0  0  0  3  0  0  0  0  0  0
  -25.0670  -28.9870   20.0760 C   0  0  0  0  0  0  0  0  0  0  0  0
  -26.0150  -30.8660   21.4290 C   0  0  0  0  0  2  0  0  0  0  0  0
  -26.1770  -29.5310   20.7310 C   0  0  0  0  0  0  0  0  0  0  0  0
  -27.4070  -28.8420   20.7290 C   0  0  0  0  0  3  0  0  0  0  0  0
  -26.3950  -27.0470   19.4370 C   0  0  0  0  0  3  0  0  0  0  0  0
  -25.1680  -27.7410   19.4330 C   0  0  0  0  0  3  0  0  0  0  0  0
  -23.7890  -29.7950   20.1100 C   0  0  0  0  0  2  0  0  0  0  0  0
  -24.7170  -31.0230   22.1270 N   0  0  0  0  0  0  0  0  0  0  0  0
  -23.4790  -31.9690   23.7730 O   0  0  0  0  0  0  0  0  0  0  0  0
  -22.8550  -29.3110   22.3910 C   0  0  0  0  0  0  0  0  0  0  0  0
  -21.5350  -29.1190   22.2320 N   0  0  0  0  0  0  0  0  0  0  0  0
  -23.5360  -28.6430   23.1740 O   0  0  0  0  0  0  0  0  0  0  0  0
  -21.0470  -29.7120   21.5760 H   0  0  0  0  0  0  0  0  0  0  0  0
  -18.1670  -27.8760   22.6250 C   0  0  0  0  0  0  0  0  0  0  0  0
  -20.7220  -28.1220   22.9270 C   0  0  0  0  0  3  0  0  0  0  0  0
  -20.8330  -26.7390   22.2440 C   0  0  0  0  0  2  0  0  0  0  0  0
  -19.7360  -26.4900   21.2040 C   0  0  0  0  0  2  0  0  0  0  0  0
  -18.3510  -26.5810   21.8510 C   0  0  0  0  0  2  0  0  0  0  0  0
  -19.2810  -28.6070   23.1160 C   0  0  0  0  0  0  0  0  0  0  0  0
  -19.0560  -29.8230   23.7980 C   0  0  0  0  0  3  0  0  0  0  0  0
  -17.7490  -30.3070   23.9940 C   0  0  0  0  0  3  0  0  0  0  0  0
  -16.6490  -29.5720   23.5200 C   0  0  0  0  0  3  0  0  0  0  0  0
  -16.8590  -28.3570   22.8420 C   0  0  0  0  0  3  0  0  0  0  0  0
  -25.8270  -32.4070   23.9650 C   0  0  0  0  0  3  0  0  0  0  0  0
  -26.2650  -31.6460   25.2770 C   0  0  1  0  0  0  0  0  0  0  0  0
  -25.1070  -31.4100   26.2740 C   0  0  0  0  0  1  0  0  0  0  0  0
  -26.8780  -30.2700   24.9300 C   0  0  0  0  0  1  0  0  0  0  0  0
  -27.3660  -32.4510   26.0070 C   0  0  0  0  0  1  0  0  0  0  0  0
  -25.4890  -33.8050   24.2630 N   0  0  0  0  0  0  0  0  0  0  0  0
  -25.8640  -34.8530   23.5180 C   0  0  0  0  0  0  0  0  0  0  0  0
  -26.6030  -34.7450   22.5340 O   0  0  0  0  0  0  0  0  0  0  0  0
  -24.8410  -33.9620   25.0220 H   0  0  0  0  0  0  0  0  0  0  0  0
  -24.1410  -36.6200   23.0410 C   0  0  0  0  0  1  0  0  0  0  0  0
  -25.3370  -36.2410   23.9280 C   0  0  0  0  0  3  0  0  0  0  0  0
  -27.4120  -37.1570   24.8680 C   0  0  0  0  0  1  0  0  0  0  0  0
  -26.3640  -37.3040   23.8600 N   0  0  0  0  0  0  0  0  0  0  0  0
  -25.9420  -38.2210   23.9730 H   0  0  0  0  0  0  0  0  0  0  0  0
  2  3  1  0
  3  1  1  0
  3  5  1  0
  4  2  2  0
  6 48  1  0
  6  2  1  0
  6 15  2  0
  7 13  1  0
  7 15  1  0
  8 13  1  0
  9 10  1  0
  9  8  1  0
 11 10  1  0
 11 20  1  0
 11 12  1  0
 13 12  1  0
 14  7  2  0
 15 16  1  0
 17 18  2  0
 18 37  1  0
 19 18  1  0
 19 22  1  0
 20 21  1  0
 20 17  1  0
 21 19  2  0
 22 23  1  0
 23 24  2  0
 25 28  1  0
 25 24  1  0
 26 25  2  0
 27 26  1  0
 27 22  2  0
 28 29  1  0
 29 30  1  0
 30 31  2  0
 32 31  1  0
 32 36  1  0
 33 32  2  0
 34 29  2  0
 34 33  1  0
 35 34  1  0
 37 38  1  0
 38 41  1  0
 38 40  1  0
 39 37  2  0
 42 17  1  0
 42 43  1  0
 44 42  1  0
 48 46  1  6
 47 48  1  0
 48 45  1  0
 49 50  1  0
 49  1  1  0
 51 52  1  0
 51 50  1  0
 53 54  1  0
 53 52  1  0
 55 54  1  0
 55 56  1  0
 57 68  2  0
 58 56  1  0
 58 63  1  0
 59 67  1  0
 59 69  1  0
 60 66  1  0
 60 62  1  0
 61 67  1  0
 62 61  1  0
 63 62  2  0
 64 58  2  0
 65 64  1  0
 65 60  2  0
 66 59  1  0
 67 57  1  0
 69 71  2  0
 70 69  1  0
 72 70  1  0
 73 82  2  0
 73 78  1  0
 74 70  1  0
 74 78  1  0
 75 74  1  0
 76 77  1  0
 76 75  1  0
 77 73  1  0
 78 79  2  0
 79 80  1  0
 81 80  2  0
 82 81  1  0
 83 57  1  0
 83 88  1  0
 83 84  1  0
 84 87  1  1
 84 85  1  0
 86 84  1  0
 88 91  1  0
 89 93  1  0
 89 88  1  0
 90 89  2  0
 93 92  1  0
 95 93  1  0
 95 96  1  0
 95 94  1  0
M  ISO  4   7 100  15 100  55 101  56 101
M  END
>  <TORSDO>  (46) 
F 26

>  <SCORE>  (46) 
-10.998

>  <name>  (46) 
47

>  <ligand_id>  (46) 
47

>  <original_smiles>  (46) 
[H]c1c([H])c([H])c2c(c1[H])C([H])([H])C([H])([H])C([H])([H])C2([H])N([H])C(=O)C1([H])N(C(=O)C([H])(N([H])C(=O)C([H])(N([H])C([H])([H])[H])C([H])([H])[H])C(C([H])([H])[H])(C([H])([H])[H])C([H])([H])[H])C([H])([H])c2c([H])c(OC([H])([H])C([H])([H])OC([H])([H])C([H])([H])OC([H])([H])C([H])([H])N([H])C(=O)C([H])(N([H])C(=O)N3C([H])([H])C([H])([H])C([H])([H])C([H])(n4nc(-c5c([H])c([H])c(Oc6c([H])c([H])c(F)c([H])c6F)c([H])c5[H])c(C(=O)N([H])[H])c4N([H])[H])C3([H])[H])C(C([H])([H])[H])(C([H])([H])[H])C([H])([H])[H])c([H])c([H])c2C1([H])[H]

>  <smiles>  (46) 
[H]c1c([H])c([H])c2c(c1[H])C([H])([H])C([H])([H])C([H])([H])C2([H])N([H])C(=O)C1([H])N(C(=O)C([H])(N([H])C(=O)C([H])(N([H])C([H])([H])[H])C([H])([H])[H])C(C([H])([H])[H])(C([H])([H])[H])C([H])([H])[H])C([H])([H])c2c([H])c(OC([H])([H])C([H])([H])OC([H])([H])C([H])([H])OC([H])([H])C([H])([H])N([H])C(=O)C([H])(N([H])C(=O)N3C([H])([H])C([H])([H])C([H])([H])C([H])(n4nc(-c5c([H])c([H])c(Oc6c([H])c([H])c(F)c([H])c6F)c([H])c5[H])c(C(=O)N([H])[H])c4N([H])[H])C3([H])[H])C(C([H])([H])[H])(C([H])([H])[H])C([H])([H])[H])c([H])c([H])c2C1([H])[H]

$$$$
48:0:0
     RDKit          3D

 99106  0  0  1  0  0  0  0  0999 V2000
  -30.2810  -21.5690   24.2970 C   0  0  0  0  0  0  0  0  0  0  0  0
  -29.7590  -20.3490   24.4730 N   0  0  0  0  0  0  0  0  0  0  0  0
  -31.4260  -21.8540   24.6530 O   0  0  0  0  0  0  0  0  0  0  0  0
  -28.8200  -20.1840   24.1390 H   0  0  0  0  0  0  0  0  0  0  0  0
  -29.4680  -18.4560   25.9760 C   0  0  0  0  0  1  0  0  0  0  0  0
  -30.4630  -19.2050   25.0690 C   0  0  0  0  0  3  0  0  0  0  0  0
  -30.9850  -18.2090   24.0070 C   0  0  0  0  0  0  0  0  0  0  0  0
  -30.7390  -18.4850   22.7220 N   0  0  0  0  0  0  0  0  0  0  0  0
  -31.5940  -17.1930   24.3540 O   0  0  0  0  0  0  0  0  0  0  0  0
  -30.2600  -19.3570   22.5430 H   0  0  0  0  0  0  0  0  0  0  0  0
  -31.0130  -17.6280   21.5800 C   0  0  0  0  0  2  0  0  0  0  0  0
  -29.6850  -17.2330   20.9200 C   0  0  0  0  0  2  0  0  0  0  0  0
  -30.1990  -14.8490   20.4900 C   0  0  0  0  0  0  0  0  0  0  0  0
  -30.1010  -12.6110   19.4850 C   0  0  0  0  0  2  0  0  0  0  0  0
  -29.1530  -12.6490   18.2690 C   0  0  0  0  0  2  0  0  0  0  0  0
  -27.6950  -12.4010   18.7060 C   0  0  0  0  0  2  0  0  0  0  0  0
  -27.2700  -13.2900   19.9070 C   0  0  0  0  0  3  0  0  0  0  0  0
  -28.3330  -13.2410   21.0290 C   0  0  0  0  0  2  0  0  0  0  0  0
  -29.6340  -13.6170   20.4460 N   0  0  0  0  0  0  0  0  0  0  0  0
  -31.2730  -15.1290   19.9510 O   0  0  0  0  0  0  0  0  0  0  0  0
  -29.4380  -15.8000   21.0380 N   0  0  0  0  0  0  0  0  0  0  0  0
  -28.5680  -15.5080   21.4590 H   0  0  0  0  0  0  0  0  0  0  0  0
  -24.8600  -13.7330   20.6990 C   0  0  0  0  0  0  0  0  0  0  0  0
  -23.8420  -12.8870   21.0480 C   0  0  0  0  0  0  0  0  0  0  0  0
  -24.3720  -11.5650   20.9330 C   0  0  0  0  0  0  0  0  0  0  0  0
  -25.9450  -12.9230   20.3990 N   0  0  0  0  0  0  0  0  0  0  0  0
  -25.6540  -11.6110   20.5930 N   0  0  0  0  0  0  0  0  0  0  0  0
  -23.7190  -10.2580   21.0710 C   0  0  0  0  0  0  0  0  0  0  0  0
  -24.2010   -9.2840   21.9740 C   0  0  0  0  0  3  0  0  0  0  0  0
  -23.5450   -8.0400   22.1010 C   0  0  0  0  0  3  0  0  0  0  0  0
  -22.3970   -7.7610   21.3240 C   0  0  0  0  0  0  0  0  0  0  0  0
  -21.9360   -8.7240   20.4100 C   0  0  0  0  0  3  0  0  0  0  0  0
  -22.5920   -9.9590   20.2800 C   0  0  0  0  0  3  0  0  0  0  0  0
  -21.7100   -6.5710   21.3630 O   0  0  0  0  0  0  0  0  0  0  0  0
  -21.5800   -5.8530   22.5240 C   0  0  0  0  0  0  0  0  0  0  0  0
  -20.9920   -6.4070   23.6810 C   0  0  0  0  0  3  0  0  0  0  0  0
  -20.8140   -5.6110   24.8300 C   0  0  0  0  0  3  0  0  0  0  0  0
  -21.2160   -4.2620   24.8230 C   0  0  0  0  0  0  0  0  0  0  0  0
  -21.7970   -3.7070   23.6700 C   0  0  0  0  0  3  0  0  0  0  0  0
  -21.9780   -4.4990   22.5230 C   0  0  0  0  0  0  0  0  0  0  0  0
  -22.5180   -3.9540   21.4070 F   0  0  0  0  0  0  0  0  0  0  0  0
  -21.0380   -3.4950   25.9240 F   0  0  0  0  0  0  0  0  0  0  0  0
  -22.4300  -13.2720   21.3830 C   0  0  0  0  0  0  0  0  0  0  0  0
  -21.7780  -12.5130   22.2550 N   0  0  0  0  0  0  0  0  0  0  0  0
  -21.9140  -14.2810   20.9050 O   0  0  0  0  0  0  0  0  0  0  0  0
  -22.2120  -11.6960   22.6630 H   0  0  0  0  0  0  0  0  0  0  0  0
  -20.8330  -12.7500   22.5200 H   0  0  0  0  0  0  0  0  0  0  0  0
  -24.9490  -15.1180   20.5920 N   0  0  0  0  0  0  0  0  0  0  0  0
  -24.1540  -15.7270   20.7570 H   0  0  0  0  0  0  0  0  0  0  0  0
  -25.7710  -15.6180   20.2750 H   0  0  0  0  0  0  0  0  0  0  0  0
  -29.8400  -23.4880   22.8860 C   0  0  0  0  0  3  0  0  0  0  0  0
  -29.3640  -22.4620   23.6180 C   0  0  0  0  0  3  0  0  0  0  0  0
  -28.9380  -24.3940   22.2050 C   0  0  0  0  0  0  0  0  0  0  0  0
  -29.5580  -25.5180   21.8380 N   0  0  0  0  0  0  0  0  0  0  0  0
  -27.7450  -24.1880   21.9750 O   0  0  0  0  0  0  0  0  0  0  0  0
  -30.5390  -25.6050   22.0660 H   0  0  0  0  0  0  0  0  0  0  0  0
  -28.9390  -26.6400   21.1410 C   0  0  0  0  0  2  0  0  0  0  0  0
  -28.7930  -26.3760   19.6310 C   0  0  0  0  0  2  0  0  0  0  0  0
  -28.5080  -27.5900   18.9400 O   0  0  0  0  0  0  0  0  0  0  0  0
  -24.4970  -31.7230   23.0890 C   0  0  0  0  0  0  0  0  0  0  0  0
  -27.2650  -28.1250   19.1670 C   0  0  0  0  0  0  0  0  0  0  0  0
  -23.2830  -30.4370   21.3590 C   0  0  0  0  0  3  0  0  0  0  0  0
  -24.7390  -29.2930   19.6050 C   0  0  0  0  0  0  0  0  0  0  0  0
  -25.7210  -31.1190   21.0070 C   0  0  0  0  0  2  0  0  0  0  0  0
  -25.8840  -29.8700   20.1670 C   0  0  0  0  0  0  0  0  0  0  0  0
  -27.1510  -29.2940   19.9450 C   0  0  0  0  0  3  0  0  0  0  0  0
  -26.1050  -27.5440   18.6110 C   0  0  0  0  0  3  0  0  0  0  0  0
  -24.8400  -28.1250   18.8280 C   0  0  0  0  0  3  0  0  0  0  0  0
  -23.4220  -29.9830   19.8800 C   0  0  0  0  0  2  0  0  0  0  0  0
  -24.5220  -31.0990   21.8770 N   0  0  0  0  0  0  0  0  0  0  0  0
  -23.4540  -31.7880   23.7540 O   0  0  0  0  0  0  0  0  0  0  0  0
  -22.8420  -29.2200   22.2050 C   0  0  0  0  0  0  0  0  0  0  0  0
  -21.5700  -28.8190   22.0520 N   0  0  0  0  0  0  0  0  0  0  0  0
  -23.6400  -28.6430   22.9470 O   0  0  0  0  0  0  0  0  0  0  0  0
  -20.9840  -29.3450   21.4190 H   0  0  0  0  0  0  0  0  0  0  0  0
  -18.5070  -26.9220   22.2900 C   0  0  0  0  0  0  0  0  0  0  0  0
  -20.9420  -27.6780   22.7150 C   0  0  0  0  0  3  0  0  0  0  0  0
  -21.3650  -26.3490   22.0480 C   0  0  0  0  0  2  0  0  0  0  0  0
  -20.3940  -25.8850   20.9580 C   0  0  0  0  0  2  0  0  0  0  0  0
  -18.9880  -25.6930   21.5360 C   0  0  0  0  0  2  0  0  0  0  0  0
  -19.4240  -27.8620   22.8290 C   0  0  0  0  0  0  0  0  0  0  0  0
  -18.9230  -29.0060   23.4880 C   0  0  0  0  0  3  0  0  0  0  0  0
  -17.5370  -29.2160   23.6130 C   0  0  0  0  0  3  0  0  0  0  0  0
  -16.6340  -28.2720   23.0930 C   0  0  0  0  0  3  0  0  0  0  0  0
  -17.1190  -27.1270   22.4370 C   0  0  0  0  0  3  0  0  0  0  0  0
  -25.7690  -32.3990   23.6870 C   0  0  0  0  0  3  0  0  0  0  0  0
  -26.4160  -31.5760   24.8680 C   0  0  1  0  0  0  0  0  0  0  0  0
  -25.4090  -31.1850   25.9760 C   0  0  0  0  0  1  0  0  0  0  0  0
  -27.0590  -30.2750   24.3330 C   0  0  0  0  0  1  0  0  0  0  0  0
  -27.5540  -32.3980   25.5170 C   0  0  0  0  0  1  0  0  0  0  0  0
  -25.3790  -33.7420   24.1380 N   0  0  0  0  0  0  0  0  0  0  0  0
  -25.6670  -34.8750   23.4850 C   0  0  0  0  0  0  0  0  0  0  0  0
  -26.3580  -34.9040   22.4620 O   0  0  0  0  0  0  0  0  0  0  0  0
  -24.7580  -33.7870   24.9330 H   0  0  0  0  0  0  0  0  0  0  0  0
  -23.8750  -36.6200   23.2320 C   0  0  0  0  0  1  0  0  0  0  0  0
  -25.0970  -36.1880   24.0570 C   0  0  0  0  0  3  0  0  0  0  0  0
  -27.1460  -37.0740   25.0780 C   0  0  0  0  0  1  0  0  0  0  0  0
  -26.0840  -37.2880   24.0980 N   0  0  0  0  0  0  0  0  0  0  0  0
  -25.6300  -38.1720   24.3110 H   0  0  0  0  0  0  0  0  0  0  0  0
  1  2  1  0
  1  3  2  0
  2  6  1  0
  4  2  1  0
  6  5  1  0
  7  9  2  0
  7  6  1  0
  8  7  1  0
 10  8  1  0
 11  8  1  0
 12 21  1  0
 12 11  1  0
 13 21  1  0
 14 19  1  0
 15 16  1  0
 15 14  1  0
 17 16  1  0
 17 26  1  0
 17 18  1  0
 19 13  1  0
 19 18  1  0
 20 13  2  0
 21 22  1  0
 23 24  2  0
 24 43  1  0
 25 24  1  0
 25 28  1  0
 26 27  1  0
 26 23  1  0
 27 25  2  0
 28 29  1  0
 29 30  2  0
 31 34  1  0
 31 30  1  0
 32 31  2  0
 33 32  1  0
 33 28  2  0
 34 35  1  0
 35 36  1  0
 36 37  2  0
 38 37  1  0
 38 42  1  0
 39 38  2  0
 40 35  2  0
 40 39  1  0
 41 40  1  0
 43 44  1  0
 44 47  1  0
 44 46  1  0
 45 43  2  0
 48 23  1  0
 48 49  1  0
 50 48  1  0
 51 52  2  0
 52  1  1  0
 53 51  1  0
 54 56  1  0
 54 53  1  0
 55 53  2  0
 57 54  1  0
 58 57  1  0
 59 61  1  0
 59 58  1  0
 60 71  2  0
 61 66  1  0
 62 70  1  0
 62 72  1  0
 63 69  1  0
 63 65  1  0
 64 70  1  0
 65 64  1  0
 66 65  2  0
 67 68  1  0
 67 61  2  0
 68 63  2  0
 69 62  1  0
 70 60  1  0
 72 74  2  0
 73 72  1  0
 75 73  1  0
 76 85  2  0
 76 81  1  0
 77 73  1  0
 77 81  1  0
 78 77  1  0
 79 80  1  0
 79 78  1  0
 80 76  1  0
 81 82  2  0
 82 83  1  0
 84 83  2  0
 85 84  1  0
 86 60  1  0
 86 91  1  0
 86 87  1  0
 87 90  1  1
 87 88  1  0
 89 87  1  0
 91 94  1  0
 92 96  1  0
 92 91  1  0
 93 92  2  0
 96 95  1  0
 96 98  1  0
 98 99  1  0
 98 97  1  0
M  ISO  4  13 100  21 100  58 101  59 101
M  END
>  <TORSDO>  (47) 
F 24

>  <SCORE>  (47) 
-5.527

>  <name>  (47) 
48

>  <ligand_id>  (47) 
48

>  <original_smiles>  (47) 
[H]C(C(=O)N([H])C([H])([H])C([H])([H])Oc1c([H])c([H])c2c(c1[H])C([H])([H])N(C(=O)C([H])(N([H])C(=O)C([H])(N([H])C([H])([H])[H])C([H])([H])[H])C(C([H])([H])[H])(C([H])([H])[H])C([H])([H])[H])C([H])(C(=O)N([H])C1([H])c3c([H])c([H])c([H])c([H])c3C([H])([H])C([H])([H])C1([H])[H])C2([H])[H])=C([H])C(=O)N([H])C([H])(C(=O)N([H])C([H])([H])C([H])([H])N([H])C(=O)N1C([H])([H])C([H])([H])C([H])([H])C([H])(n2nc(-c3c([H])c([H])c(Oc4c([H])c([H])c(F)c([H])c4F)c([H])c3[H])c(C(=O)N([H])[H])c2N([H])[H])C1([H])[H])C([H])([H])[H]

>  <smiles>  (47) 
[H]C(C(=O)N([H])C([H])([H])C([H])([H])Oc1c([H])c([H])c2c(c1[H])C([H])([H])N(C(=O)C([H])(N([H])C(=O)C([H])(N([H])C([H])([H])[H])C([H])([H])[H])C(C([H])([H])[H])(C([H])([H])[H])C([H])([H])[H])C([H])(C(=O)N([H])C1([H])c3c([H])c([H])c([H])c([H])c3C([H])([H])C([H])([H])C1([H])[H])C2([H])[H])=C([H])C(=O)N([H])C([H])(C(=O)N([H])C([H])([H])C([H])([H])N([H])C(=O)N1C([H])([H])C([H])([H])C([H])([H])C([H])(n2nc(-c3c([H])c([H])c(Oc4c([H])c([H])c(F)c([H])c4F)c([H])c3[H])c(C(=O)N([H])[H])c2N([H])[H])C1([H])[H])C([H])([H])[H]

$$$$
49:0:0
     RDKit          3D

 96103  0  0  1  0  0  0  0  0999 V2000
  -31.2690  -20.2450   18.2030 C   0  0  0  0  0  2  0  0  0  0  0  0
  -32.5880  -18.6940   16.5970 C   0  0  0  0  0  1  0  0  0  0  0  0
  -32.4680  -19.2930   18.0130 C   0  0  0  0  0  3  0  0  0  0  0  0
  -31.5720  -17.3080   19.2440 C   0  0  0  0  0  0  0  0  0  0  0  0
  -32.4500  -18.3010   19.0850 N   0  0  0  0  0  0  0  0  0  0  0  0
  -30.8110  -16.9210   18.3520 O   0  0  0  0  0  0  0  0  0  0  0  0
  -33.0560  -18.5030   19.8720 H   0  0  0  0  0  0  0  0  0  0  0  0
  -31.4750  -16.6900   20.6560 C   0  0  0  0  0  3  0  0  0  0  0  0
  -31.5620  -14.2550   20.0550 C   0  0  0  0  0  0  0  0  0  0  0  0
  -31.0080  -12.2230   18.7830 C   0  0  0  0  0  2  0  0  0  0  0  0
  -30.0390  -12.5940   17.6430 C   0  0  0  0  0  2  0  0  0  0  0  0
  -28.5780  -12.5820   18.1370 C   0  0  0  0  0  2  0  0  0  0  0  0
  -28.3850  -13.3790   19.4540 C   0  0  0  0  0  3  0  0  0  0  0  0
  -29.4470  -12.9720   20.5000 C   0  0  0  0  0  2  0  0  0  0  0  0
  -30.7700  -13.1660   19.8860 N   0  0  0  0  0  0  0  0  0  0  0  0
  -32.7000  -14.3340   19.5800 O   0  0  0  0  0  0  0  0  0  0  0  0
  -30.9610  -15.3110   20.6260 N   0  0  0  0  0  0  0  0  0  0  0  0
  -30.0140  -15.1800   20.9460 H   0  0  0  0  0  0  0  0  0  0  0  0
  -26.0660  -14.1970   20.2200 C   0  0  0  0  0  0  0  0  0  0  0  0
  -24.9500  -13.5220   20.6350 C   0  0  0  0  0  0  0  0  0  0  0  0
  -25.2940  -12.1370   20.6000 C   0  0  0  0  0  0  0  0  0  0  0  0
  -27.0270  -13.2290   19.9710 N   0  0  0  0  0  0  0  0  0  0  0  0
  -26.5680  -11.9850   20.2590 N   0  0  0  0  0  0  0  0  0  0  0  0
  -24.4690  -10.9420   20.8190 C   0  0  0  0  0  0  0  0  0  0  0  0
  -24.8270   -9.9630   21.7710 C   0  0  0  0  0  3  0  0  0  0  0  0
  -24.0110   -8.8300   21.9760 C   0  0  0  0  0  3  0  0  0  0  0  0
  -22.8180   -8.6720   21.2290 C   0  0  0  0  0  0  0  0  0  0  0  0
  -22.4780   -9.6380   20.2660 C   0  0  0  0  0  3  0  0  0  0  0  0
  -23.2950  -10.7620   20.0600 C   0  0  0  0  0  3  0  0  0  0  0  0
  -21.9740   -7.5960   21.3460 O   0  0  0  0  0  0  0  0  0  0  0  0
  -21.8360   -6.9140   22.5270 C   0  0  0  0  0  0  0  0  0  0  0  0
  -21.4370   -7.5570   23.7190 C   0  0  0  0  0  3  0  0  0  0  0  0
  -21.2430   -6.8040   24.8950 C   0  0  0  0  0  3  0  0  0  0  0  0
  -21.4400   -5.4120   24.8780 C   0  0  0  0  0  0  0  0  0  0  0  0
  -21.8280   -4.7670   23.6910 C   0  0  0  0  0  3  0  0  0  0  0  0
  -22.0240   -5.5180   22.5180 C   0  0  0  0  0  0  0  0  0  0  0  0
  -22.3800   -4.8890   21.3720 F   0  0  0  0  0  0  0  0  0  0  0  0
  -21.2460   -4.6860   26.0050 F   0  0  0  0  0  0  0  0  0  0  0  0
  -23.6070  -14.1180   20.9490 C   0  0  0  0  0  0  0  0  0  0  0  0
  -22.8620  -13.5000   21.8610 N   0  0  0  0  0  0  0  0  0  0  0  0
  -23.2330  -15.1660   20.4260 O   0  0  0  0  0  0  0  0  0  0  0  0
  -23.1850  -12.6580   22.3140 H   0  0  0  0  0  0  0  0  0  0  0  0
  -21.9620  -13.8800   22.1200 H   0  0  0  0  0  0  0  0  0  0  0  0
  -26.3340  -15.5440   20.0060 N   0  0  0  0  0  0  0  0  0  0  0  0
  -25.6110  -16.2490   20.0880 H   0  0  0  0  0  0  0  0  0  0  0  0
  -27.1700  -15.8790   19.5470 H   0  0  0  0  0  0  0  0  0  0  0  0
  -29.2150  -17.9560   21.1090 C   0  0  0  0  0  1  0  0  0  0  0  0
  -30.5800  -17.0840   23.0530 C   0  0  0  0  0  1  0  0  0  0  0  0
  -30.6370  -17.6060   21.6070 C   0  0  0  0  0  3  0  0  0  0  0  0
  -31.5530  -21.1040   19.3060 O   0  0  0  0  0  0  0  0  0  0  0  0
  -30.5130  -22.0440   19.5380 C   0  0  0  0  0  2  0  0  0  0  0  0
  -30.9550  -23.1080   20.5540 C   0  0  0  0  0  2  0  0  0  0  0  0
  -29.9150  -24.0730   20.6780 O   0  0  0  0  0  0  0  0  0  0  0  0
  -30.3630  -25.3460   21.1290 C   0  0  0  0  0  2  0  0  0  0  0  0
  -29.1610  -26.2870   21.3440 C   0  0  0  0  0  2  0  0  0  0  0  0
  -28.4460  -26.4470   20.1230 O   0  0  0  0  0  0  0  0  0  0  0  0
  -24.5740  -31.6690   23.1410 C   0  0  0  0  0  0  0  0  0  0  0  0
  -27.2950  -27.1980   20.1790 C   0  0  0  0  0  0  0  0  0  0  0  0
  -23.4030  -30.2440   21.4930 C   0  0  0  0  0  3  0  0  0  0  0  0
  -24.8860  -28.6800   20.1290 C   0  0  0  0  0  0  0  0  0  0  0  0
  -25.9300  -30.5990   21.3430 C   0  0  0  0  0  2  0  0  0  0  0  0
  -26.0280  -29.2160   20.7400 C   0  0  0  0  0  0  0  0  0  0  0  0
  -27.2320  -28.4790   20.7730 C   0  0  0  0  0  3  0  0  0  0  0  0
  -26.1410  -26.6760   19.5590 C   0  0  0  0  0  3  0  0  0  0  0  0
  -24.9340  -27.4020   19.5450 C   0  0  0  0  0  3  0  0  0  0  0  0
  -23.6410  -29.5400   20.1300 C   0  0  0  0  0  2  0  0  0  0  0  0
  -24.6520  -30.8520   22.0520 N   0  0  0  0  0  0  0  0  0  0  0  0
  -23.4830  -31.9490   23.6540 O   0  0  0  0  0  0  0  0  0  0  0  0
  -22.7300  -29.2370   22.4520 C   0  0  0  0  0  0  0  0  0  0  0  0
  -21.4090  -29.0550   22.2980 N   0  0  0  0  0  0  0  0  0  0  0  0
  -23.3940  -28.6220   23.2910 O   0  0  0  0  0  0  0  0  0  0  0  0
  -20.9360  -29.5960   21.5890 H   0  0  0  0  0  0  0  0  0  0  0  0
  -18.0200  -27.8940   22.7400 C   0  0  0  0  0  0  0  0  0  0  0  0
  -20.5730  -28.1330   23.0640 C   0  0  0  0  0  3  0  0  0  0  0  0
  -20.6760  -26.6940   22.5070 C   0  0  0  0  0  2  0  0  0  0  0  0
  -19.5930  -26.3690   21.4740 C   0  0  0  0  0  2  0  0  0  0  0  0
  -18.1990  -26.5350   22.0830 C   0  0  0  0  0  2  0  0  0  0  0  0
  -19.1350  -28.6500   23.1860 C   0  0  0  0  0  0  0  0  0  0  0  0
  -18.9140  -29.9230   23.7560 C   0  0  0  0  0  3  0  0  0  0  0  0
  -17.6110  -30.4380   23.8860 C   0  0  0  0  0  3  0  0  0  0  0  0
  -16.5090  -29.6760   23.4590 C   0  0  0  0  0  3  0  0  0  0  0  0
  -16.7140  -28.4070   22.8930 C   0  0  0  0  0  3  0  0  0  0  0  0
  -25.8490  -32.3050   23.7780 C   0  0  0  0  0  3  0  0  0  0  0  0
  -26.3510  -31.5370   25.0610 C   0  0  1  0  0  0  0  0  0  0  0  0
  -25.2440  -31.2970   26.1140 C   0  0  0  0  0  1  0  0  0  0  0  0
  -26.9450  -30.1620   24.6730 C   0  0  0  0  0  1  0  0  0  0  0  0
  -27.4900  -32.3370   25.7360 C   0  0  0  0  0  1  0  0  0  0  0  0
  -25.5310  -33.7020   24.1010 N   0  0  0  0  0  0  0  0  0  0  0  0
  -25.8690  -34.7510   23.3410 C   0  0  0  0  0  0  0  0  0  0  0  0
  -26.5530  -34.6470   22.3190 O   0  0  0  0  0  0  0  0  0  0  0  0
  -24.9240  -33.8560   24.8930 H   0  0  0  0  0  0  0  0  0  0  0  0
  -24.1320  -36.5260   22.9610 C   0  0  0  0  0  1  0  0  0  0  0  0
  -25.3690  -36.1380   23.7860 C   0  0  0  0  0  3  0  0  0  0  0  0
  -27.4910  -37.0390   24.6290 C   0  0  0  0  0  1  0  0  0  0  0  0
  -26.3960  -37.1970   23.6760 N   0  0  0  0  0  0  0  0  0  0  0  0
  -25.9850  -38.1160   23.8160 H   0  0  0  0  0  0  0  0  0  0  0  0
  1 50  1  0
  3  2  1  0
  3  1  1  0
  3  5  1  0
  5  4  1  0
  5  7  1  0
  6  4  2  0
  8  4  1  0
  8 49  1  0
  9 17  1  0
 10 15  1  0
 11 12  1  0
 11 10  1  0
 13 12  1  0
 13 22  1  0
 13 14  1  0
 15  9  1  0
 15 14  1  0
 16  9  2  0
 17  8  1  0
 17 18  1  0
 19 20  2  0
 20 39  1  0
 21 20  1  0
 21 24  1  0
 22 19  1  0
 22 23  1  0
 23 21  2  0
 24 25  1  0
 25 26  2  0
 27 30  1  0
 27 26  1  0
 28 27  2  0
 29 28  1  0
 29 24  2  0
 30 31  1  0
 31 32  1  0
 32 33  2  0
 34 33  1  0
 34 38  1  0
 35 34  2  0
 36 31  2  0
 36 35  1  0
 37 36  1  0
 39 40  1  0
 40 43  1  0
 40 42  1  0
 41 39  2  0
 44 45  1  0
 44 19  1  0
 46 44  1  0
 47 49  1  0
 49 48  1  0
 50 51  1  0
 51 52  1  0
 52 53  1  0
 53 54  1  0
 54 55  1  0
 56 58  1  0
 56 55  1  0
 57 68  2  0
 58 63  1  0
 59 67  1  0
 59 69  1  0
 60 66  1  0
 60 62  1  0
 61 67  1  0
 62 63  2  0
 62 61  1  0
 64 58  2  0
 65 64  1  0
 65 60  2  0
 66 59  1  0
 67 57  1  0
 69 71  2  0
 70 69  1  0
 72 70  1  0
 73 82  2  0
 73 78  1  0
 74 70  1  0
 74 78  1  0
 75 74  1  0
 76 77  1  0
 76 75  1  0
 77 73  1  0
 78 79  2  0
 79 80  1  0
 81 80  2  0
 82 81  1  0
 83 57  1  0
 83 88  1  0
 83 84  1  0
 84 87  1  1
 84 85  1  0
 86 84  1  0
 88 91  1  0
 89 93  1  0
 89 88  1  0
 90 89  2  0
 93 92  1  0
 95 93  1  0
 95 96  1  0
 95 94  1  0
M  ISO  4   9 100  17 100  55 101  56 101
M  END
>  <TORSDO>  (48) 
F 26

>  <SCORE>  (48) 
-10.801

>  <name>  (48) 
49

>  <ligand_id>  (48) 
49

>  <original_smiles>  (48) 
[H]c1c([H])c([H])c2c(c1[H])C([H])([H])C([H])([H])C([H])([H])C2([H])N([H])C(=O)C1([H])N(C(=O)C([H])(N([H])C(=O)C([H])(N([H])C([H])([H])[H])C([H])([H])[H])C(C([H])([H])[H])(C([H])([H])[H])C([H])([H])[H])C([H])([H])c2c([H])c(OC([H])([H])C([H])([H])OC([H])([H])C([H])([H])OC([H])([H])C([H])(N([H])C(=O)C([H])(N([H])C(=O)N3C([H])([H])C([H])([H])C([H])([H])C([H])(n4nc(-c5c([H])c([H])c(Oc6c([H])c([H])c(F)c([H])c6F)c([H])c5[H])c(C(=O)N([H])[H])c4N([H])[H])C3([H])[H])C([H])(C([H])([H])[H])C([H])([H])[H])C([H])([H])[H])c([H])c([H])c2C1([H])[H]

>  <smiles>  (48) 
[H]c1c([H])c([H])c2c(c1[H])C([H])([H])C([H])([H])C([H])([H])C2([H])N([H])C(=O)C1([H])N(C(=O)C([H])(N([H])C(=O)C([H])(N([H])C([H])([H])[H])C([H])([H])[H])C(C([H])([H])[H])(C([H])([H])[H])C([H])([H])[H])C([H])([H])c2c([H])c(OC([H])([H])C([H])([H])OC([H])([H])C([H])([H])OC([H])([H])C([H])(N([H])C(=O)C([H])(N([H])C(=O)N3C([H])([H])C([H])([H])C([H])([H])C([H])(n4nc(-c5c([H])c([H])c(Oc6c([H])c([H])c(F)c([H])c6F)c([H])c5[H])c(C(=O)N([H])[H])c4N([H])[H])C3([H])[H])C([H])(C([H])([H])[H])C([H])([H])[H])C([H])([H])[H])c([H])c([H])c2C1([H])[H]

$$$$
50:0:0
     RDKit          3D

 94101  0  0  1  0  0  0  0  0999 V2000
  -26.9230  -21.4800   21.7610 C   0  0  0  0  0  2  0  0  0  0  0  0
  -28.1390  -21.0610   21.1510 O   0  0  0  0  0  0  0  0  0  0  0  0
  -27.9490  -20.4120   19.9030 C   0  0  0  0  0  2  0  0  0  0  0  0
  -28.8580  -21.0680   18.8450 C   0  0  0  0  0  2  0  0  0  0  0  0
  -30.5580  -19.2870   19.0090 C   0  0  0  0  0  0  0  0  0  0  0  0
  -30.2390  -20.5840   18.9310 N   0  0  0  0  0  0  0  0  0  0  0  0
  -29.6860  -18.4200   19.1370 O   0  0  0  0  0  0  0  0  0  0  0  0
  -30.9840  -21.2620   18.8490 H   0  0  0  0  0  0  0  0  0  0  0  0
  -32.4220  -18.6750   17.4010 C   0  0  0  0  0  1  0  0  0  0  0  0
  -32.0410  -18.8650   18.8900 C   0  0  0  0  0  3  0  0  0  0  0  0
  -32.8870  -16.5550   19.6240 C   0  0  0  0  0  0  0  0  0  0  0  0
  -32.8290  -14.0940   19.7450 C   0  0  0  0  0  2  0  0  0  0  0  0
  -32.0580  -13.5640   18.5200 C   0  0  0  0  0  2  0  0  0  0  0  0
  -30.5370  -13.5340   18.7960 C   0  0  0  0  0  2  0  0  0  0  0  0
  -30.0090  -14.8700   19.3750 C   0  0  0  0  0  3  0  0  0  0  0  0
  -30.8970  -15.3250   20.5540 C   0  0  0  0  0  2  0  0  0  0  0  0
  -32.2910  -15.4210   20.0720 N   0  0  0  0  0  0  0  0  0  0  0  0
  -34.0260  -16.5980   19.1500 O   0  0  0  0  0  0  0  0  0  0  0  0
  -32.0640  -17.6020   19.6240 N   0  0  0  0  0  0  0  0  0  0  0  0
  -31.1730  -17.4480   20.0820 H   0  0  0  0  0  0  0  0  0  0  0  0
  -27.6400  -15.7620   19.8720 C   0  0  0  0  0  0  0  0  0  0  0  0
  -26.4750  -15.1250   20.1980 C   0  0  0  0  0  0  0  0  0  0  0  0
  -26.7880  -13.7310   20.2490 C   0  0  0  0  0  0  0  0  0  0  0  0
  -28.6020  -14.7670   19.7600 N   0  0  0  0  0  0  0  0  0  0  0  0
  -28.0840  -13.5420   20.0330 N   0  0  0  0  0  0  0  0  0  0  0  0
  -25.9180  -12.5620   20.4280 C   0  0  0  0  0  0  0  0  0  0  0  0
  -26.1120  -11.6520   21.4920 C   0  0  0  0  0  3  0  0  0  0  0  0
  -25.2530  -10.5450   21.6550 C   0  0  0  0  0  3  0  0  0  0  0  0
  -24.1830  -10.3390   20.7520 C   0  0  0  0  0  0  0  0  0  0  0  0
  -24.0050  -11.2350   19.6830 C   0  0  0  0  0  3  0  0  0  0  0  0
  -24.8660  -12.3340   19.5190 C   0  0  0  0  0  3  0  0  0  0  0  0
  -23.3130   -9.2770   20.8180 O   0  0  0  0  0  0  0  0  0  0  0  0
  -22.9420   -8.7220   22.0180 C   0  0  0  0  0  0  0  0  0  0  0  0
  -22.3260   -9.4850   23.0320 C   0  0  0  0  0  3  0  0  0  0  0  0
  -21.8980   -8.8610   24.2210 C   0  0  0  0  0  3  0  0  0  0  0  0
  -22.0780   -7.4750   24.3940 C   0  0  0  0  0  0  0  0  0  0  0  0
  -22.6920   -6.7140   23.3850 C   0  0  0  0  0  3  0  0  0  0  0  0
  -23.1220   -7.3360   22.1970 C   0  0  0  0  0  0  0  0  0  0  0  0
  -23.6880   -6.5910   21.2180 F   0  0  0  0  0  0  0  0  0  0  0  0
  -21.6650   -6.8750   25.5350 F   0  0  0  0  0  0  0  0  0  0  0  0
  -25.1210  -15.7560   20.3590 C   0  0  0  0  0  0  0  0  0  0  0  0
  -24.2800  -15.1850   21.2140 N   0  0  0  0  0  0  0  0  0  0  0  0
  -24.8180  -16.7900   19.7620 O   0  0  0  0  0  0  0  0  0  0  0  0
  -24.5300  -14.3450   21.7160 H   0  0  0  0  0  0  0  0  0  0  0  0
  -23.3680  -15.5880   21.3640 H   0  0  0  0  0  0  0  0  0  0  0  0
  -27.9520  -17.0970   19.6360 N   0  0  0  0  0  0  0  0  0  0  0  0
  -27.2400  -17.8160   19.6030 H   0  0  0  0  0  0  0  0  0  0  0  0
  -28.8620  -17.4250   19.3340 H   0  0  0  0  0  0  0  0  0  0  0  0
  -26.9260  -23.0070   21.8520 C   0  0  0  0  0  2  0  0  0  0  0  0
  -26.9280  -23.5690   20.5470 O   0  0  0  0  0  0  0  0  0  0  0  0
  -27.5970  -24.8230   20.5190 C   0  0  0  0  0  2  0  0  0  0  0  0
  -27.1780  -25.6000   19.2700 C   0  0  0  0  0  2  0  0  0  0  0  0
  -28.0500  -26.8510   19.0480 C   0  0  0  0  0  2  0  0  0  0  0  0
  -27.4860  -27.7330   18.0830 O   0  0  0  0  0  0  0  0  0  0  0  0
  -24.5910  -31.6830   23.2460 C   0  0  0  0  0  0  0  0  0  0  0  0
  -26.3890  -28.4100   18.5460 C   0  0  0  0  0  0  0  0  0  0  0  0
  -23.0270  -30.7850   21.5520 C   0  0  0  0  0  3  0  0  0  0  0  0
  -24.1050  -29.7630   19.4790 C   0  0  0  0  0  0  0  0  0  0  0  0
  -25.4690  -31.2500   20.9570 C   0  0  0  0  0  2  0  0  0  0  0  0
  -25.3720  -30.1250   19.9530 C   0  0  0  0  0  0  0  0  0  0  0  0
  -26.5210  -29.4470   19.4930 C   0  0  0  0  0  3  0  0  0  0  0  0
  -25.1110  -28.0620   18.0640 C   0  0  0  0  0  3  0  0  0  0  0  0
  -23.9660  -28.7260   18.5380 C   0  0  0  0  0  3  0  0  0  0  0  0
  -22.9250  -30.5370   20.0240 C   0  0  0  0  0  2  0  0  0  0  0  0
  -24.3920  -31.2380   21.9730 N   0  0  0  0  0  0  0  0  0  0  0  0
  -23.6520  -31.7620   24.0510 O   0  0  0  0  0  0  0  0  0  0  0  0
  -22.5490  -29.5130   22.2910 C   0  0  0  0  0  0  0  0  0  0  0  0
  -21.2380  -29.2360   22.2120 N   0  0  0  0  0  0  0  0  0  0  0  0
  -23.3510  -28.7890   22.8880 O   0  0  0  0  0  0  0  0  0  0  0  0
  -20.6470  -29.8820   21.7040 H   0  0  0  0  0  0  0  0  0  0  0  0
  -18.0560  -27.5490   22.4790 C   0  0  0  0  0  0  0  0  0  0  0  0
  -20.5660  -28.0740   22.7950 C   0  0  0  0  0  3  0  0  0  0  0  0
  -20.8370  -26.8020   21.9620 C   0  0  0  0  0  2  0  0  0  0  0  0
  -19.7590  -26.5290   20.9060 C   0  0  0  0  0  2  0  0  0  0  0  0
  -18.3860  -26.3760   21.5700 C   0  0  0  0  0  2  0  0  0  0  0  0
  -19.0790  -28.3530   23.0430 C   0  0  0  0  0  0  0  0  0  0  0  0
  -18.7220  -29.4470   23.8580 C   0  0  0  0  0  3  0  0  0  0  0  0
  -17.3680  -29.7360   24.1180 C   0  0  0  0  0  3  0  0  0  0  0  0
  -16.3560  -28.9300   23.5700 C   0  0  0  0  0  3  0  0  0  0  0  0
  -16.7020  -27.8340   22.7560 C   0  0  0  0  0  3  0  0  0  0  0  0
  -26.0000  -32.1370   23.7430 C   0  0  0  0  0  3  0  0  0  0  0  0
  -26.6590  -31.1230   24.7570 C   0  0  1  0  0  0  0  0  0  0  0  0
  -25.7360  -30.7260   25.9350 C   0  0  0  0  0  1  0  0  0  0  0  0
  -27.0840  -29.8260   24.0300 C   0  0  0  0  0  1  0  0  0  0  0  0
  -27.9500  -31.7380   25.3490 C   0  0  0  0  0  1  0  0  0  0  0  0
  -25.8450  -33.4600   24.3600 N   0  0  0  0  0  0  0  0  0  0  0  0
  -26.1730  -34.6150   23.7700 C   0  0  0  0  0  0  0  0  0  0  0  0
  -26.7110  -34.6710   22.6610 O   0  0  0  0  0  0  0  0  0  0  0  0
  -25.3600  -33.4900   25.2450 H   0  0  0  0  0  0  0  0  0  0  0  0
  -24.5710  -36.5460   23.9510 C   0  0  0  0  0  1  0  0  0  0  0  0
  -25.8490  -35.9180   24.5270 C   0  0  0  0  0  3  0  0  0  0  0  0
  -28.1240  -36.4930   25.2510 C   0  0  0  0  0  1  0  0  0  0  0  0
  -26.9480  -36.9080   24.4910 N   0  0  0  0  0  0  0  0  0  0  0  0
  -26.6370  -37.8080   24.8490 H   0  0  0  0  0  0  0  0  0  0  0  0
  1 49  1  0
  2  1  1  0
  3  2  1  0
  4  6  1  0
  4  3  1  0
  5  7  2  0
  6  5  1  0
  8  6  1  0
 10  9  1  0
 10  5  1  0
 10 19  1  0
 11 19  1  0
 11 17  1  0
 12 17  1  0
 13 14  1  0
 13 12  1  0
 15 14  1  0
 15 24  1  0
 15 16  1  0
 17 16  1  0
 18 11  2  0
 19 20  1  0
 21 22  2  0
 22 23  1  0
 22 41  1  0
 23 26  1  0
 24 21  1  0
 24 25  1  0
 25 23  2  0
 26 27  1  0
 27 28  2  0
 29 32  1  0
 29 28  1  0
 30 29  2  0
 31 30  1  0
 31 26  2  0
 32 33  1  0
 33 38  2  0
 33 34  1  0
 34 35  2  0
 35 36  1  0
 36 40  1  0
 37 36  2  0
 38 37  1  0
 39 38  1  0
 41 42  1  0
 42 45  1  0
 42 44  1  0
 43 41  2  0
 46 21  1  0
 47 46  1  0
 48 46  1  0
 50 49  1  0
 51 50  1  0
 52 51  1  0
 53 52  1  0
 54 56  1  0
 54 53  1  0
 55 66  2  0
 56 61  1  0
 57 65  1  0
 57 67  1  0
 58 60  1  0
 58 64  1  0
 59 65  1  0
 60 59  1  0
 61 60  2  0
 62 63  1  0
 62 56  2  0
 63 58  2  0
 64 57  1  0
 65 55  1  0
 67 69  2  0
 68 67  1  0
 70 68  1  0
 71 80  2  0
 71 76  1  0
 72 68  1  0
 72 76  1  0
 73 72  1  0
 74 75  1  0
 74 73  1  0
 75 71  1  0
 76 77  2  0
 77 78  1  0
 79 78  2  0
 80 79  1  0
 81 55  1  0
 81 86  1  0
 81 82  1  0
 82 85  1  1
 82 83  1  0
 84 82  1  0
 86 89  1  0
 87 86  1  0
 87 91  1  0
 88 87  2  0
 91 90  1  0
 93 91  1  0
 93 94  1  0
 93 92  1  0
M  ISO  4  11 100  19 100  53 101  54 101
M  END
>  <TORSDO>  (49) 
F 26

>  <SCORE>  (49) 
-3.684

>  <name>  (49) 
50

>  <ligand_id>  (49) 
50

>  <original_smiles>  (49) 
[H]c1c([H])c([H])c2c(c1[H])C([H])([H])C([H])([H])C([H])([H])C2([H])N([H])C(=O)C1([H])N(C(=O)C([H])(N([H])C(=O)C([H])(N([H])C([H])([H])[H])C([H])([H])[H])C(C([H])([H])[H])(C([H])([H])[H])C([H])([H])[H])C([H])([H])c2c([H])c(OC([H])([H])C([H])([H])C([H])([H])OC([H])([H])C([H])([H])OC([H])([H])C([H])([H])N([H])C(=O)C([H])(N([H])C(=O)N3C([H])([H])C([H])([H])C([H])([H])C([H])(n4nc(-c5c([H])c([H])c(Oc6c([H])c([H])c(F)c([H])c6F)c([H])c5[H])c(C(=O)N([H])[H])c4N([H])[H])C3([H])[H])C([H])([H])[H])c([H])c([H])c2C1([H])[H]

>  <smiles>  (49) 
[H]c1c([H])c([H])c2c(c1[H])C([H])([H])C([H])([H])C([H])([H])C2([H])N([H])C(=O)C1([H])N(C(=O)C([H])(N([H])C(=O)C([H])(N([H])C([H])([H])[H])C([H])([H])[H])C(C([H])([H])[H])(C([H])([H])[H])C([H])([H])[H])C([H])([H])c2c([H])c(OC([H])([H])C([H])([H])C([H])([H])OC([H])([H])C([H])([H])OC([H])([H])C([H])([H])N([H])C(=O)C([H])(N([H])C(=O)N3C([H])([H])C([H])([H])C([H])([H])C([H])(n4nc(-c5c([H])c([H])c(Oc6c([H])c([H])c(F)c([H])c6F)c([H])c5[H])c(C(=O)N([H])[H])c4N([H])[H])C3([H])[H])C([H])([H])[H])c([H])c([H])c2C1([H])[H]

$$$$
51:0:0
     RDKit          3D

 95102  0  0  1  0  0  0  0  0999 V2000
  -31.7260  -19.9990   17.8500 C   0  0  0  0  0  2  0  0  0  0  0  0
  -32.6360  -18.8820   18.3810 C   0  0  0  0  0  2  0  0  0  0  0  0
  -31.2290  -17.2680   19.6530 C   0  0  0  0  0  0  0  0  0  0  0  0
  -32.1450  -18.2470   19.6030 N   0  0  0  0  0  0  0  0  0  0  0  0
  -30.5200  -16.9760   18.6830 O   0  0  0  0  0  0  0  0  0  0  0  0
  -32.6530  -18.4590   20.4520 H   0  0  0  0  0  0  0  0  0  0  0  0
  -31.1590  -16.4460   20.9650 C   0  0  0  0  0  3  0  0  0  0  0  0
  -31.1860  -14.1180   20.0360 C   0  0  0  0  0  0  0  0  0  0  0  0
  -30.6610  -12.1090   18.7100 C   0  0  0  0  0  2  0  0  0  0  0  0
  -29.6770  -12.4690   17.5830 C   0  0  0  0  0  2  0  0  0  0  0  0
  -28.2200  -12.4150   18.0850 C   0  0  0  0  0  2  0  0  0  0  0  0
  -28.0130  -13.1660   19.4290 C   0  0  0  0  0  3  0  0  0  0  0  0
  -29.0980  -12.7630   20.4500 C   0  0  0  0  0  2  0  0  0  0  0  0
  -30.4110  -13.0220   19.8330 N   0  0  0  0  0  0  0  0  0  0  0  0
  -32.2900  -14.2690   19.5050 O   0  0  0  0  0  0  0  0  0  0  0  0
  -30.6320  -15.0900   20.7730 N   0  0  0  0  0  0  0  0  0  0  0  0
  -29.6790  -14.9740   21.0810 H   0  0  0  0  0  0  0  0  0  0  0  0
  -25.6690  -13.8840   20.2150 C   0  0  0  0  0  0  0  0  0  0  0  0
  -24.5780  -13.1630   20.6190 C   0  0  0  0  0  0  0  0  0  0  0  0
  -24.9780  -11.7910   20.5870 C   0  0  0  0  0  0  0  0  0  0  0  0
  -26.6660  -12.9540   19.9570 N   0  0  0  0  0  0  0  0  0  0  0  0
  -26.2540  -11.6900   20.2350 N   0  0  0  0  0  0  0  0  0  0  0  0
  -24.2060  -10.5660   20.8250 C   0  0  0  0  0  0  0  0  0  0  0  0
  -24.6080   -9.6110   21.7850 C   0  0  0  0  0  3  0  0  0  0  0  0
  -23.8410   -8.4480   22.0020 C   0  0  0  0  0  3  0  0  0  0  0  0
  -22.6560   -8.2290   21.2600 C   0  0  0  0  0  0  0  0  0  0  0  0
  -22.2720   -9.1710   20.2900 C   0  0  0  0  0  3  0  0  0  0  0  0
  -23.0400  -10.3280   20.0710 C   0  0  0  0  0  3  0  0  0  0  0  0
  -21.8640   -7.1130   21.3800 O   0  0  0  0  0  0  0  0  0  0  0  0
  -21.7580   -6.4330   22.5670 C   0  0  0  0  0  0  0  0  0  0  0  0
  -21.3280   -7.0670   23.7520 C   0  0  0  0  0  3  0  0  0  0  0  0
  -21.1650   -6.3150   24.9320 C   0  0  0  0  0  3  0  0  0  0  0  0
  -21.4240   -4.9320   24.9290 C   0  0  0  0  0  0  0  0  0  0  0  0
  -21.8470   -4.2970   23.7470 C   0  0  0  0  0  3  0  0  0  0  0  0
  -22.0110   -5.0470   22.5680 C   0  0  0  0  0  0  0  0  0  0  0  0
  -22.4000   -4.4280   21.4280 F   0  0  0  0  0  0  0  0  0  0  0  0
  -21.2610   -4.2070   26.0610 F   0  0  0  0  0  0  0  0  0  0  0  0
  -23.2150  -13.7040   20.9350 C   0  0  0  0  0  0  0  0  0  0  0  0
  -22.4970  -13.0560   21.8450 N   0  0  0  0  0  0  0  0  0  0  0  0
  -22.7990  -14.7380   20.4130 O   0  0  0  0  0  0  0  0  0  0  0  0
  -22.8510  -12.2210   22.2850 H   0  0  0  0  0  0  0  0  0  0  0  0
  -21.5820  -13.3990   22.1030 H   0  0  0  0  0  0  0  0  0  0  0  0
  -25.8990  -15.2420   20.0340 N   0  0  0  0  0  0  0  0  0  0  0  0
  -25.1950  -15.9440   20.2310 H   0  0  0  0  0  0  0  0  0  0  0  0
  -26.8110  -15.6420   19.8430 H   0  0  0  0  0  0  0  0  0  0  0  0
  -30.3430  -17.1110   22.0960 C   0  0  0  0  0  2  0  0  0  0  0  0
  -28.9380  -16.9720   21.9160 O   0  0  0  0  0  0  0  0  0  0  0  0
  -28.5160  -17.2200   22.7350 H   0  0  0  0  0  0  0  0  0  0  0  0
  -31.8170  -21.1560   18.6750 O   0  0  0  0  0  0  0  0  0  0  0  0
  -30.9750  -22.2040   18.2000 C   0  0  0  0  0  2  0  0  0  0  0  0
  -31.2440  -23.5260   18.9380 C   0  0  0  0  0  2  0  0  0  0  0  0
  -30.1120  -24.3780   18.7910 O   0  0  0  0  0  0  0  0  0  0  0  0
  -30.3860  -25.7530   19.0430 C   0  0  0  0  0  2  0  0  0  0  0  0
  -29.0830  -26.5660   18.9500 C   0  0  0  0  0  2  0  0  0  0  0  0
  -28.4970  -26.7010   20.2430 O   0  0  0  0  0  0  0  0  0  0  0  0
  -24.5960  -31.8450   23.2450 C   0  0  0  0  0  0  0  0  0  0  0  0
  -27.3160  -27.4000   20.2500 C   0  0  0  0  0  0  0  0  0  0  0  0
  -23.4190  -30.4140   21.6020 C   0  0  0  0  0  3  0  0  0  0  0  0
  -24.9020  -28.8590   20.2290 C   0  0  0  0  0  0  0  0  0  0  0  0
  -25.9420  -30.7830   21.4390 C   0  0  0  0  0  2  0  0  0  0  0  0
  -26.0440  -29.4020   20.8290 C   0  0  0  0  0  0  0  0  0  0  0  0
  -27.2530  -28.6720   20.8520 C   0  0  0  0  0  3  0  0  0  0  0  0
  -26.1570  -26.8510   19.6650 C   0  0  0  0  0  3  0  0  0  0  0  0
  -24.9490  -27.5750   19.6520 C   0  0  0  0  0  3  0  0  0  0  0  0
  -23.6530  -29.7100   20.2380 C   0  0  0  0  0  2  0  0  0  0  0  0
  -24.6690  -31.0290   22.1540 N   0  0  0  0  0  0  0  0  0  0  0  0
  -23.5070  -32.1210   23.7630 O   0  0  0  0  0  0  0  0  0  0  0  0
  -22.7550  -29.4080   22.5670 C   0  0  0  0  0  0  0  0  0  0  0  0
  -21.4380  -29.2040   22.4050 N   0  0  0  0  0  0  0  0  0  0  0  0
  -23.4230  -28.8100   23.4160 O   0  0  0  0  0  0  0  0  0  0  0  0
  -20.9620  -29.7370   21.6890 H   0  0  0  0  0  0  0  0  0  0  0  0
  -18.0730  -27.9610   22.8060 C   0  0  0  0  0  0  0  0  0  0  0  0
  -20.6100  -28.2740   23.1710 C   0  0  0  0  0  3  0  0  0  0  0  0
  -20.7650  -26.8300   22.6420 C   0  0  0  0  0  2  0  0  0  0  0  0
  -19.7100  -26.4570   21.5940 C   0  0  0  0  0  2  0  0  0  0  0  0
  -18.3000  -26.5950   22.1790 C   0  0  0  0  0  2  0  0  0  0  0  0
  -19.1580  -28.7550   23.2570 C   0  0  0  0  0  0  0  0  0  0  0  0
  -18.8950  -30.0310   23.7980 C   0  0  0  0  0  3  0  0  0  0  0  0
  -17.5770  -30.5140   23.8950 C   0  0  0  0  0  3  0  0  0  0  0  0
  -16.5030  -29.7150   23.4640 C   0  0  0  0  0  3  0  0  0  0  0  0
  -16.7520  -28.4400   22.9250 C   0  0  0  0  0  3  0  0  0  0  0  0
  -25.8720  -32.4840   23.8770 C   0  0  0  0  0  3  0  0  0  0  0  0
  -26.3800  -31.7230   25.1610 C   0  0  1  0  0  0  0  0  0  0  0  0
  -25.2780  -31.4830   26.2200 C   0  0  0  0  0  1  0  0  0  0  0  0
  -26.9750  -30.3470   24.7790 C   0  0  0  0  0  1  0  0  0  0  0  0
  -27.5190  -32.5270   25.8310 C   0  0  0  0  0  1  0  0  0  0  0  0
  -25.5570  -33.8840   24.1900 N   0  0  0  0  0  0  0  0  0  0  0  0
  -25.8970  -34.9300   23.4270 C   0  0  0  0  0  0  0  0  0  0  0  0
  -26.5830  -34.8200   22.4060 O   0  0  0  0  0  0  0  0  0  0  0  0
  -24.9510  -34.0450   24.9820 H   0  0  0  0  0  0  0  0  0  0  0  0
  -24.1660  -36.7090   23.0290 C   0  0  0  0  0  1  0  0  0  0  0  0
  -25.3980  -36.3200   23.8630 C   0  0  0  0  0  3  0  0  0  0  0  0
  -27.5160  -37.2210   24.7160 C   0  0  0  0  0  1  0  0  0  0  0  0
  -26.4280  -37.3770   23.7560 N   0  0  0  0  0  0  0  0  0  0  0  0
  -26.0140  -38.2970   23.8890 H   0  0  0  0  0  0  0  0  0  0  0  0
  1  2  1  0
  1 49  1  0
  2  4  1  0
  3  7  1  0
  4  3  1  0
  4  6  1  0
  5  3  2  0
  7 46  1  0
  8 16  1  0
  9 14  1  0
 10 11  1  0
 10  9  1  0
 12 11  1  0
 12 21  1  0
 12 13  1  0
 14  8  1  0
 14 13  1  0
 15  8  2  0
 16  7  1  0
 16 17  1  0
 18 19  2  0
 19 38  1  0
 20 19  1  0
 20 23  1  0
 21 18  1  0
 21 22  1  0
 22 20  2  0
 23 24  1  0
 24 25  2  0
 26 29  1  0
 26 25  1  0
 27 26  2  0
 28 27  1  0
 28 23  2  0
 29 30  1  0
 30 35  2  0
 30 31  1  0
 31 32  2  0
 33 32  1  0
 33 37  1  0
 34 33  2  0
 35 34  1  0
 36 35  1  0
 38 39  1  0
 39 42  1  0
 39 41  1  0
 40 38  2  0
 43 18  1  0
 43 44  1  0
 45 43  1  0
 47 46  1  0
 47 48  1  0
 50 49  1  0
 50 51  1  0
 52 51  1  0
 52 53  1  0
 54 53  1  0
 54 55  1  0
 55 57  1  0
 56 67  2  0
 57 62  1  0
 58 66  1  0
 58 68  1  0
 59 65  1  0
 59 61  1  0
 60 66  1  0
 61 62  2  0
 61 60  1  0
 63 57  2  0
 64 63  1  0
 64 59  2  0
 65 58  1  0
 66 56  1  0
 68 70  2  0
 69 68  1  0
 71 69  1  0
 72 81  2  0
 72 77  1  0
 73 69  1  0
 73 77  1  0
 74 73  1  0
 75 76  1  0
 75 74  1  0
 76 72  1  0
 77 78  2  0
 78 79  1  0
 80 79  2  0
 81 80  1  0
 82 56  1  0
 82 87  1  0
 82 83  1  0
 83 86  1  1
 83 84  1  0
 85 83  1  0
 87 90  1  0
 88 92  1  0
 88 87  1  0
 89 88  2  0
 92 91  1  0
 94 92  1  0
 94 95  1  0
 94 93  1  0
M  ISO  4   8 100  16 100  54 101  55 101
M  END
>  <TORSDO>  (50) 
F 27

>  <SCORE>  (50) 
-11.259

>  <name>  (50) 
51

>  <ligand_id>  (50) 
51

>  <original_smiles>  (50) 
[H]OC([H])([H])C([H])(C(=O)N([H])C([H])([H])C([H])([H])OC([H])([H])C([H])([H])OC([H])([H])C([H])([H])Oc1c([H])c([H])c2c(c1[H])C([H])([H])N(C(=O)C([H])(N([H])C(=O)C([H])(N([H])C([H])([H])[H])C([H])([H])[H])C(C([H])([H])[H])(C([H])([H])[H])C([H])([H])[H])C([H])(C(=O)N([H])C1([H])c3c([H])c([H])c([H])c([H])c3C([H])([H])C([H])([H])C1([H])[H])C2([H])[H])N([H])C(=O)N1C([H])([H])C([H])([H])C([H])([H])C([H])(n2nc(-c3c([H])c([H])c(Oc4c([H])c([H])c(F)c([H])c4F)c([H])c3[H])c(C(=O)N([H])[H])c2N([H])[H])C1([H])[H]

>  <smiles>  (50) 
[H]OC([H])([H])C([H])(C(=O)N([H])C([H])([H])C([H])([H])OC([H])([H])C([H])([H])OC([H])([H])C([H])([H])Oc1c([H])c([H])c2c(c1[H])C([H])([H])N(C(=O)C([H])(N([H])C(=O)C([H])(N([H])C([H])([H])[H])C([H])([H])[H])C(C([H])([H])[H])(C([H])([H])[H])C([H])([H])[H])C([H])(C(=O)N([H])C1([H])c3c([H])c([H])c([H])c([H])c3C([H])([H])C([H])([H])C1([H])[H])C2([H])[H])N([H])C(=O)N1C([H])([H])C([H])([H])C([H])([H])C([H])(n2nc(-c3c([H])c([H])c(Oc4c([H])c([H])c(F)c([H])c4F)c([H])c3[H])c(C(=O)N([H])[H])c2N([H])[H])C1([H])[H]

$$$$
52:0:0
     RDKit          3D

 97104  0  0  1  0  0  0  0  0999 V2000
  -29.1960  -18.9100   22.4060 C   0  0  0  0  0  2  0  0  0  0  0  0
  -30.9010  -17.2050   21.7630 C   0  0  0  0  0  0  0  0  0  0  0  0
  -29.8470  -17.9880   21.4790 N   0  0  0  0  0  0  0  0  0  0  0  0
  -31.3290  -17.0900   22.9140 O   0  0  0  0  0  0  0  0  0  0  0  0
  -29.5520  -18.0380   20.5090 H   0  0  0  0  0  0  0  0  0  0  0  0
  -31.5610  -16.3960   20.6200 C   0  0  0  0  0  3  0  0  0  0  0  0
  -31.5270  -13.9990   20.0240 C   0  0  0  0  0  0  0  0  0  0  0  0
  -30.9100  -11.9430   18.8270 C   0  0  0  0  0  2  0  0  0  0  0  0
  -29.9270  -12.2980   17.6930 C   0  0  0  0  0  2  0  0  0  0  0  0
  -28.4740  -12.3260   18.2120 C   0  0  0  0  0  2  0  0  0  0  0  0
  -28.3170  -13.1530   19.5180 C   0  0  0  0  0  3  0  0  0  0  0  0
  -29.4000  -12.7630   20.5500 C   0  0  0  0  0  2  0  0  0  0  0  0
  -30.7150  -12.9210   19.9060 N   0  0  0  0  0  0  0  0  0  0  0  0
  -32.6530  -14.0590   19.5230 O   0  0  0  0  0  0  0  0  0  0  0  0
  -30.9330  -15.0870   20.5140 N   0  0  0  0  0  0  0  0  0  0  0  0
  -29.9770  -15.0140   20.8200 H   0  0  0  0  0  0  0  0  0  0  0  0
  -26.0580  -14.0150   20.4010 C   0  0  0  0  0  0  0  0  0  0  0  0
  -24.9320  -13.3600   20.8230 C   0  0  0  0  0  0  0  0  0  0  0  0
  -25.2240  -11.9660   20.7210 C   0  0  0  0  0  0  0  0  0  0  0  0
  -26.9720  -13.0250   20.0760 N   0  0  0  0  0  0  0  0  0  0  0  0
  -26.4770  -11.7860   20.3230 N   0  0  0  0  0  0  0  0  0  0  0  0
  -24.3660  -10.7920   20.9230 C   0  0  0  0  0  0  0  0  0  0  0  0
  -24.7440   -9.7410   21.7870 C   0  0  0  0  0  3  0  0  0  0  0  0
  -23.8940   -8.6290   21.9770 C   0  0  0  0  0  3  0  0  0  0  0  0
  -22.6520   -8.5630   21.3040 C   0  0  0  0  0  0  0  0  0  0  0  0
  -22.2900   -9.6000   20.4280 C   0  0  0  0  0  3  0  0  0  0  0  0
  -23.1380  -10.7040   20.2360 C   0  0  0  0  0  3  0  0  0  0  0  0
  -21.7760   -7.5100   21.4070 O   0  0  0  0  0  0  0  0  0  0  0  0
  -21.7070   -6.7390   22.5400 C   0  0  0  0  0  0  0  0  0  0  0  0
  -21.4350   -7.2980   23.8080 C   0  0  0  0  0  3  0  0  0  0  0  0
  -21.3040   -6.4610   24.9340 C   0  0  0  0  0  3  0  0  0  0  0  0
  -21.4360   -5.0660   24.7930 C   0  0  0  0  0  0  0  0  0  0  0  0
  -21.7020   -4.5070   23.5310 C   0  0  0  0  0  3  0  0  0  0  0  0
  -21.8330   -5.3410   22.4090 C   0  0  0  0  0  0  0  0  0  0  0  0
  -22.0680   -4.7960   21.1900 F   0  0  0  0  0  0  0  0  0  0  0  0
  -21.3040   -4.2610   25.8730 F   0  0  0  0  0  0  0  0  0  0  0  0
  -23.6210  -13.9870   21.2040 C   0  0  0  0  0  0  0  0  0  0  0  0
  -22.8930  -13.3690   22.1260 N   0  0  0  0  0  0  0  0  0  0  0  0
  -23.2580  -15.0590   20.7200 O   0  0  0  0  0  0  0  0  0  0  0  0
  -23.2000  -12.5030   22.5420 H   0  0  0  0  0  0  0  0  0  0  0  0
  -22.0160  -13.7720   22.4260 H   0  0  0  0  0  0  0  0  0  0  0  0
  -26.3740  -15.3620   20.2480 N   0  0  0  0  0  0  0  0  0  0  0  0
  -25.6880  -16.0920   20.4050 H   0  0  0  0  0  0  0  0  0  0  0  0
  -27.2160  -15.7040   19.8020 H   0  0  0  0  0  0  0  0  0  0  0  0
  -31.4020  -17.1180   19.2660 C   0  0  0  0  0  0  0  0  0  0  0  0
  -32.4810  -17.6710   18.7240 N   0  0  0  0  0  0  0  0  0  0  0  0
  -30.3210  -17.1300   18.6760 O   0  0  0  0  0  0  0  0  0  0  0  0
  -33.3760  -17.6380   19.1960 H   0  0  0  0  0  0  0  0  0  0  0  0
  -32.4250  -18.1040   17.8140 H   0  0  0  0  0  0  0  0  0  0  0  0
  -28.7680  -20.1930   21.6790 C   0  0  0  0  0  2  0  0  0  0  0  0
  -29.9180  -20.9670   21.3580 O   0  0  0  0  0  0  0  0  0  0  0  0
  -29.6000  -22.1290   20.6000 C   0  0  0  0  0  2  0  0  0  0  0  0
  -30.8690  -22.9580   20.3480 C   0  0  0  0  0  2  0  0  0  0  0  0
  -31.0360  -23.9670   21.3390 O   0  0  0  0  0  0  0  0  0  0  0  0
  -31.9520  -24.9810   20.9150 C   0  0  0  0  0  2  0  0  0  0  0  0
  -31.8260  -26.2660   21.7790 C   0  0  0  0  0  2  0  0  0  0  0  0
  -31.4260  -27.6240   21.4740 O   0  0  0  0  0  0  0  0  0  0  0  0
  -25.8290  -31.2770   23.8490 C   0  0  0  0  0  0  0  0  0  0  0  0
  -30.1090  -27.9730   21.2460 C   0  0  0  0  0  0  0  0  0  0  0  0
  -25.3820  -29.7760   21.9310 C   0  0  0  0  0  3  0  0  0  0  0  0
  -27.4440  -28.7920   20.7940 C   0  0  0  0  0  0  0  0  0  0  0  0
  -27.7020  -30.7840   22.2850 C   0  0  0  0  0  2  0  0  0  0  0  0
  -28.2740  -29.5420   21.6360 C   0  0  0  0  0  0  0  0  0  0  0  0
  -29.6070  -29.1390   21.8580 C   0  0  0  0  0  3  0  0  0  0  0  0
  -29.2680  -27.2320   20.3860 C   0  0  0  0  0  3  0  0  0  0  0  0
  -27.9370  -27.6360   20.1630 C   0  0  0  0  0  3  0  0  0  0  0  0
  -26.0310  -29.2970   20.6030 C   0  0  0  0  0  2  0  0  0  0  0  0
  -26.3070  -30.6250   22.7510 N   0  0  0  0  0  0  0  0  0  0  0  0
  -24.6320  -31.2140   24.1620 O   0  0  0  0  0  0  0  0  0  0  0  0
  -24.8540  -28.5390   22.6910 C   0  0  0  0  0  0  0  0  0  0  0  0
  -23.6890  -28.0260   22.2650 N   0  0  0  0  0  0  0  0  0  0  0  0
  -25.4970  -28.0470   23.6240 O   0  0  0  0  0  0  0  0  0  0  0  0
  -23.2170  -28.4970   21.5070 H   0  0  0  0  0  0  0  0  0  0  0  0
  -20.7570  -25.9430   21.9380 C   0  0  0  0  0  0  0  0  0  0  0  0
  -23.0200  -26.8410   22.8030 C   0  0  0  0  0  3  0  0  0  0  0  0
  -23.6350  -25.5430   22.2320 C   0  0  0  0  0  2  0  0  0  0  0  0
  -22.9150  -25.0370   20.9790 C   0  0  0  0  0  2  0  0  0  0  0  0
  -21.4400  -24.7570   21.2780 C   0  0  0  0  0  2  0  0  0  0  0  0
  -21.4990  -26.9320   22.6350 C   0  0  0  0  0  0  0  0  0  0  0  0
  -20.8160  -28.0370   23.1870 C   0  0  0  0  0  3  0  0  0  0  0  0
  -19.4200  -28.1610   23.0540 C   0  0  0  0  0  3  0  0  0  0  0  0
  -18.6890  -27.1680   22.3800 C   0  0  0  0  0  3  0  0  0  0  0  0
  -19.3560  -26.0620   21.8270 C   0  0  0  0  0  3  0  0  0  0  0  0
  -26.7560  -32.1490   24.7520 C   0  0  0  0  0  3  0  0  0  0  0  0
  -27.0040  -31.5210   26.1790 C   0  0  1  0  0  0  0  0  0  0  0  0
  -25.7080  -31.1190   26.9200 C   0  0  0  0  0  1  0  0  0  0  0  0
  -27.8950  -30.2610   26.0700 C   0  0  0  0  0  1  0  0  0  0  0  0
  -27.7690  -32.5280   27.0700 C   0  0  0  0  0  1  0  0  0  0  0  0
  -26.1400  -33.4770   24.8670 N   0  0  0  0  0  0  0  0  0  0  0  0
  -26.5030  -34.5460   24.1460 C   0  0  0  0  0  0  0  0  0  0  0  0
  -27.4510  -34.5310   23.3560 O   0  0  0  0  0  0  0  0  0  0  0  0
  -25.3190  -33.5470   25.4530 H   0  0  0  0  0  0  0  0  0  0  0  0
  -24.6860  -35.9830   23.1650 C   0  0  0  0  0  1  0  0  0  0  0  0
  -25.6820  -35.8370   24.3250 C   0  0  0  0  0  3  0  0  0  0  0  0
  -27.3080  -37.1190   25.6450 C   0  0  0  0  0  1  0  0  0  0  0  0
  -26.5170  -37.0540   24.4200 N   0  0  0  0  0  0  0  0  0  0  0  0
  -25.9410  -37.8900   24.3710 H   0  0  0  0  0  0  0  0  0  0  0  0
  2  4  2  0
  3  2  1  0
  3  1  1  0
  5  3  1  0
  6 45  1  0
  6  2  1  0
  7 15  1  0
  8 13  1  0
  9 10  1  0
  9  8  1  0
 11 10  1  0
 11 20  1  0
 11 12  1  0
 13  7  1  0
 13 12  1  0
 14  7  2  0
 15  6  1  0
 15 16  1  0
 17 18  2  0
 18 37  1  0
 19 18  1  0
 19 22  1  0
 20 21  1  0
 20 17  1  0
 21 19  2  0
 22 23  1  0
 23 24  2  0
 25 28  1  0
 25 24  1  0
 26 25  2  0
 27 26  1  0
 27 22  2  0
 28 29  1  0
 29 30  1  0
 30 31  2  0
 32 31  1  0
 32 36  1  0
 33 32  2  0
 34 29  2  0
 34 33  1  0
 35 34  1  0
 37 38  1  0
 38 41  1  0
 38 40  1  0
 39 37  2  0
 42 17  1  0
 42 43  1  0
 44 42  1  0
 46 48  1  0
 46 45  1  0
 47 45  2  0
 49 46  1  0
 50  1  1  0
 51 50  1  0
 52 51  1  0
 53 52  1  0
 53 54  1  0
 55 54  1  0
 55 56  1  0
 57 56  1  0
 58 69  2  0
 59 57  1  0
 59 64  1  0
 60 70  1  0
 60 68  1  0
 61 63  1  0
 62 68  1  0
 63 64  2  0
 63 62  1  0
 65 59  2  0
 66 65  1  0
 66 61  2  0
 67 61  1  0
 67 60  1  0
 68 58  1  0
 70 72  2  0
 71 70  1  0
 73 71  1  0
 74 79  1  0
 75 71  1  0
 76 75  1  0
 77 78  1  0
 77 76  1  0
 78 74  1  0
 79 75  1  0
 79 80  2  0
 81 80  1  0
 82 81  2  0
 83 74  2  0
 83 82  1  0
 84 58  1  0
 84 89  1  0
 84 85  1  0
 85 86  1  1
 85 88  1  0
 87 85  1  0
 89 92  1  0
 90 94  1  0
 90 89  1  0
 91 90  2  0
 94 93  1  0
 94 96  1  0
 96 95  1  0
 97 96  1  0
M  ISO  4   7 100  15 100  56 101  57 101
M  END
>  <TORSDO>  (51) 
F 26

>  <SCORE>  (51) 
-6.073

>  <name>  (51) 
52

>  <ligand_id>  (51) 
52

>  <original_smiles>  (51) 
[H]c1c([H])c([H])c2c(c1[H])C([H])([H])C([H])([H])C([H])([H])C2([H])N([H])C(=O)C1([H])N(C(=O)C([H])(N([H])C(=O)C([H])(N([H])C([H])([H])[H])C([H])([H])[H])C(C([H])([H])[H])(C([H])([H])[H])C([H])([H])[H])C([H])([H])c2c([H])c(OC([H])([H])C([H])([H])OC([H])([H])C([H])([H])OC([H])([H])C([H])([H])N([H])C(=O)C([H])(C(=O)N([H])[H])N([H])C(=O)N3C([H])([H])C([H])([H])C([H])([H])C([H])(n4nc(-c5c([H])c([H])c(Oc6c([H])c([H])c(F)c([H])c6F)c([H])c5[H])c(C(=O)N([H])[H])c4N([H])[H])C3([H])[H])c([H])c([H])c2C1([H])[H]

>  <smiles>  (51) 
[H]c1c([H])c([H])c2c(c1[H])C([H])([H])C([H])([H])C([H])([H])C2([H])N([H])C(=O)C1([H])N(C(=O)C([H])(N([H])C(=O)C([H])(N([H])C([H])([H])[H])C([H])([H])[H])C(C([H])([H])[H])(C([H])([H])[H])C([H])([H])[H])C([H])([H])c2c([H])c(OC([H])([H])C([H])([H])OC([H])([H])C([H])([H])OC([H])([H])C([H])([H])N([H])C(=O)C([H])(C(=O)N([H])[H])N([H])C(=O)N3C([H])([H])C([H])([H])C([H])([H])C([H])(n4nc(-c5c([H])c([H])c(Oc6c([H])c([H])c(F)c([H])c6F)c([H])c5[H])c(C(=O)N([H])[H])c4N([H])[H])C3([H])[H])c([H])c([H])c2C1([H])[H]

$$$$
53:0:0
     RDKit          3D

 95103  0  0  1  0  0  0  0  0999 V2000
  -31.4790  -19.5280   21.4250 C   0  0  0  0  0  0  0  0  0  0  0  0
  -30.9820  -20.7730   21.4490 N   0  0  0  0  0  0  0  0  0  0  0  0
  -32.6640  -19.2620   21.1920 O   0  0  0  0  0  0  0  0  0  0  0  0
  -29.9990  -20.8960   21.6570 H   0  0  0  0  0  0  0  0  0  0  0  0
  -30.4120  -18.4310   21.6690 C   0  0  0  0  0  0  0  0  0  0  0  0
  -30.2250  -17.9780   22.8040 O   0  0  0  0  0  0  0  0  0  0  0  0
  -29.2840  -18.8860   19.4350 C   0  0  0  0  0  3  0  0  0  0  0  0
  -28.7060  -18.2650   18.3640 C   0  0  0  0  0  3  0  0  0  0  0  0
  -29.7410  -17.9790   20.4490 C   0  0  0  0  0  0  0  0  0  0  0  0
  -29.4890  -16.6540   20.1350 C   0  0  0  0  0  0  0  0  0  0  0  0
  -28.7130  -16.5460   18.5620 S   0  0  0  0  0  0  0  0  0  0  0  0
  -30.5000  -14.5370   20.3720 C   0  0  0  0  0  0  0  0  0  0  0  0
  -30.1810  -12.4660   19.1040 C   0  0  0  0  0  2  0  0  0  0  0  0
  -29.1840  -12.7790   17.9680 C   0  0  0  0  0  2  0  0  0  0  0  0
  -27.7280  -12.6090   18.4540 C   0  0  0  0  0  2  0  0  0  0  0  0
  -27.4500  -13.3150   19.8090 C   0  0  0  0  0  3  0  0  0  0  0  0
  -28.5600  -12.9990   20.8370 C   0  0  0  0  0  2  0  0  0  0  0  0
  -29.8570  -13.3500   20.2330 N   0  0  0  0  0  0  0  0  0  0  0  0
  -31.6220  -14.7710   19.9130 O   0  0  0  0  0  0  0  0  0  0  0  0
  -29.7410  -15.5300   20.8610 N   0  0  0  0  0  0  0  0  0  0  0  0
  -28.9510  -15.1980   21.3940 H   0  0  0  0  0  0  0  0  0  0  0  0
  -25.0460  -13.8290   20.5710 C   0  0  0  0  0  0  0  0  0  0  0  0
  -24.0240  -13.0140   20.9730 C   0  0  0  0  0  0  0  0  0  0  0  0
  -24.5430  -11.6840   20.9370 C   0  0  0  0  0  0  0  0  0  0  0  0
  -26.1230  -12.9910   20.3200 N   0  0  0  0  0  0  0  0  0  0  0  0
  -25.8240  -11.6960   20.5970 N   0  0  0  0  0  0  0  0  0  0  0  0
  -23.8810  -10.3920   21.1540 C   0  0  0  0  0  0  0  0  0  0  0  0
  -24.3470   -9.4780   22.1240 C   0  0  0  0  0  3  0  0  0  0  0  0
  -23.6850   -8.2480   22.3250 C   0  0  0  0  0  3  0  0  0  0  0  0
  -22.5400   -7.9260   21.5580 C   0  0  0  0  0  0  0  0  0  0  0  0
  -22.0930   -8.8290   20.5790 C   0  0  0  0  0  3  0  0  0  0  0  0
  -22.7570  -10.0510   20.3760 C   0  0  0  0  0  3  0  0  0  0  0  0
  -21.8470   -6.7460   21.6690 O   0  0  0  0  0  0  0  0  0  0  0  0
  -21.7800   -6.0590   22.8540 C   0  0  0  0  0  0  0  0  0  0  0  0
  -21.2250   -6.6330   24.0190 C   0  0  0  0  0  3  0  0  0  0  0  0
  -21.1120   -5.8670   25.1970 C   0  0  0  0  0  3  0  0  0  0  0  0
  -21.5430   -4.5270   25.2100 C   0  0  0  0  0  0  0  0  0  0  0  0
  -22.0920   -3.9520   24.0500 C   0  0  0  0  0  3  0  0  0  0  0  0
  -22.2070   -4.7160   22.8750 C   0  0  0  0  0  0  0  0  0  0  0  0
  -22.7170   -4.1490   21.7530 F   0  0  0  0  0  0  0  0  0  0  0  0
  -21.4280   -3.7890   26.3380 F   0  0  0  0  0  0  0  0  0  0  0  0
  -22.6140  -13.4300   21.2800 C   0  0  0  0  0  0  0  0  0  0  0  0
  -21.9440  -12.7070   22.1700 N   0  0  0  0  0  0  0  0  0  0  0  0
  -22.1150  -14.4310   20.7690 O   0  0  0  0  0  0  0  0  0  0  0  0
  -22.3610  -11.8980   22.6050 H   0  0  0  0  0  0  0  0  0  0  0  0
  -20.9990  -12.9640   22.4180 H   0  0  0  0  0  0  0  0  0  0  0  0
  -25.1450  -15.2060   20.3780 N   0  0  0  0  0  0  0  0  0  0  0  0
  -24.3500  -15.8240   20.4940 H   0  0  0  0  0  0  0  0  0  0  0  0
  -25.9640  -15.6780   20.0160 H   0  0  0  0  0  0  0  0  0  0  0  0
  -31.7550  -21.9520   21.0810 C   0  0  0  0  0  2  0  0  0  0  0  0
  -31.1000  -23.2470   21.5750 C   0  0  0  0  0  2  0  0  0  0  0  0
  -29.9210  -23.5540   20.8330 O   0  0  0  0  0  0  0  0  0  0  0  0
  -29.6090  -24.9400   20.9500 C   0  0  0  0  0  2  0  0  0  0  0  0
  -28.2980  -25.3460   20.2600 C   0  0  0  0  0  2  0  0  0  0  0  0
  -28.3020  -26.7720   20.2700 O   0  0  0  0  0  0  0  0  0  0  0  0
  -24.5360  -31.9500   23.3090 C   0  0  0  0  0  0  0  0  0  0  0  0
  -27.1080  -27.4500   20.2690 C   0  0  0  0  0  0  0  0  0  0  0  0
  -23.3020  -30.5440   21.6890 C   0  0  0  0  0  3  0  0  0  0  0  0
  -24.7240  -28.9650   20.2800 C   0  0  0  0  0  0  0  0  0  0  0  0
  -25.8280  -30.8710   21.4730 C   0  0  0  0  0  2  0  0  0  0  0  0
  -25.8890  -29.4910   20.8510 C   0  0  0  0  0  0  0  0  0  0  0  0
  -27.0830  -28.7420   20.8370 C   0  0  0  0  0  3  0  0  0  0  0  0
  -25.9260  -26.9250   19.7010 C   0  0  0  0  0  3  0  0  0  0  0  0
  -24.7360  -27.6810   19.7040 C   0  0  0  0  0  3  0  0  0  0  0  0
  -23.4920  -29.8400   20.3180 C   0  0  0  0  0  2  0  0  0  0  0  0
  -24.5740  -31.1360   22.2150 N   0  0  0  0  0  0  0  0  0  0  0  0
  -23.4630  -32.2460   23.8500 O   0  0  0  0  0  0  0  0  0  0  0  0
  -22.6400  -29.5460   22.6660 C   0  0  0  0  0  0  0  0  0  0  0  0
  -21.3170  -29.3670   22.5310 N   0  0  0  0  0  0  0  0  0  0  0  0
  -23.3150  -28.9330   23.4980 O   0  0  0  0  0  0  0  0  0  0  0  0
  -20.8340  -29.9170   21.8340 H   0  0  0  0  0  0  0  0  0  0  0  0
  -17.9330  -28.1970   23.0180 C   0  0  0  0  0  0  0  0  0  0  0  0
  -20.4890  -28.4480   23.3110 C   0  0  0  0  0  3  0  0  0  0  0  0
  -20.5900  -27.0050   22.7650 C   0  0  0  0  0  2  0  0  0  0  0  0
  -19.4980  -26.6670   21.7460 C   0  0  0  0  0  2  0  0  0  0  0  0
  -18.1110  -26.8320   22.3740 C   0  0  0  0  0  2  0  0  0  0  0  0
  -19.0520  -28.9620   23.4430 C   0  0  0  0  0  0  0  0  0  0  0  0
  -18.8340  -30.2400   24.0040 C   0  0  0  0  0  3  0  0  0  0  0  0
  -17.5300  -30.7520   24.1440 C   0  0  0  0  0  3  0  0  0  0  0  0
  -16.4260  -29.9830   23.7350 C   0  0  0  0  0  3  0  0  0  0  0  0
  -16.6290  -28.7080   23.1780 C   0  0  0  0  0  3  0  0  0  0  0  0
  -25.8360  -32.5670   23.9160 C   0  0  0  0  0  3  0  0  0  0  0  0
  -25.5550  -33.9760   24.2190 N   0  0  0  0  0  0  0  0  0  0  0  0
  -25.9260  -35.0080   23.4490 C   0  0  0  0  0  0  0  0  0  0  0  0
  -26.6120  -34.8720   22.4320 O   0  0  0  0  0  0  0  0  0  0  0  0
  -24.9490  -34.1590   25.0040 H   0  0  0  0  0  0  0  0  0  0  0  0
  -24.2660  -36.8450   23.0100 C   0  0  0  0  0  1  0  0  0  0  0  0
  -25.4620  -36.4140   23.8740 C   0  0  0  0  0  3  0  0  0  0  0  0
  -27.5830  -37.2490   24.7850 C   0  0  0  0  0  1  0  0  0  0  0  0
  -26.5290  -37.4350   23.7920 N   0  0  0  0  0  0  0  0  0  0  0  0
  -26.1450  -38.3690   23.9080 H   0  0  0  0  0  0  0  0  0  0  0  0
  -26.3430  -31.8090   25.2050 C   0  0  1  0  0  0  0  0  0  0  0  0
  -25.2480  -31.6070   26.2770 C   0  0  0  0  0  1  0  0  0  0  0  0
  -26.9050  -30.4170   24.8330 C   0  0  0  0  0  1  0  0  0  0  0  0
  -27.5070  -32.5980   25.8520 C   0  0  0  0  0  1  0  0  0  0  0  0
  1  2  1  0
  1  5  1  0
  2  4  1  0
  3  1  2  0
  5  6  2  0
  7  9  1  0
  8 11  1  0
  8  7  2  0
  9  5  1  0
 10  9  2  0
 10 20  1  0
 11 10  1  0
 12 20  1  0
 13 18  1  0
 14 15  1  0
 14 13  1  0
 16 15  1  0
 16 25  1  0
 16 17  1  0
 18 12  1  0
 18 17  1  0
 19 12  2  0
 20 21  1  0
 22 23  2  0
 23 42  1  0
 24 23  1  0
 24 27  1  0
 25 22  1  0
 25 26  1  0
 26 24  2  0
 27 28  1  0
 28 29  2  0
 30 33  1  0
 30 29  1  0
 31 30  2  0
 32 31  1  0
 32 27  2  0
 33 34  1  0
 34 39  2  0
 34 35  1  0
 35 36  2  0
 36 37  1  0
 37 41  1  0
 38 37  2  0
 39 38  1  0
 40 39  1  0
 42 43  1  0
 43 46  1  0
 43 45  1  0
 44 42  2  0
 47 48  1  0
 47 22  1  0
 49 47  1  0
 50  2  1  0
 50 51  1  0
 52 53  1  0
 52 51  1  0
 54 55  1  0
 54 53  1  0
 56 67  2  0
 57 55  1  0
 57 62  1  0
 58 66  1  0
 58 68  1  0
 59 65  1  0
 59 61  1  0
 60 66  1  0
 61 60  1  0
 62 61  2  0
 63 64  1  0
 63 57  2  0
 64 59  2  0
 65 58  1  0
 66 56  1  0
 68 70  2  0
 69 68  1  0
 71 69  1  0
 72 81  2  0
 72 77  1  0
 73 69  1  0
 73 77  1  0
 74 73  1  0
 75 76  1  0
 75 74  1  0
 76 72  1  0
 77 78  2  0
 78 79  1  0
 80 79  2  0
 81 80  1  0
 82 56  1  0
 82 83  1  0
 82 92  1  0
 83 86  1  0
 84 88  1  0
 84 83  1  0
 85 84  2  0
 88 87  1  0
 90 88  1  0
 90 91  1  0
 90 89  1  0
 92 95  1  1
 92 93  1  0
 94 92  1  0
M  ISO  4  12 100  20 100  54 101  55 101
M  END
>  <TORSDO>  (52) 
F 23

>  <SCORE>  (52) 
-12.031

>  <name>  (52) 
53

>  <ligand_id>  (52) 
53

>  <original_smiles>  (52) 
[H]c1sc(N([H])C(=O)N2C([H])([H])C([H])([H])C([H])([H])C([H])(n3nc(-c4c([H])c([H])c(Oc5c([H])c([H])c(F)c([H])c5F)c([H])c4[H])c(C(=O)N([H])[H])c3N([H])[H])C2([H])[H])c(C(=O)C(=O)N([H])C([H])([H])C([H])([H])OC([H])([H])C([H])([H])Oc2c([H])c([H])c3c(c2[H])C([H])([H])N(C(=O)C([H])(N([H])C(=O)C([H])(N([H])C([H])([H])[H])C([H])([H])[H])C(C([H])([H])[H])(C([H])([H])[H])C([H])([H])[H])C([H])(C(=O)N([H])C2([H])c4c([H])c([H])c([H])c([H])c4C([H])([H])C([H])([H])C2([H])[H])C3([H])[H])c1[H]

>  <smiles>  (52) 
[H]c1sc(N([H])C(=O)N2C([H])([H])C([H])([H])C([H])([H])C([H])(n3nc(-c4c([H])c([H])c(Oc5c([H])c([H])c(F)c([H])c5F)c([H])c4[H])c(C(=O)N([H])[H])c3N([H])[H])C2([H])[H])c(C(=O)C(=O)N([H])C([H])([H])C([H])([H])OC([H])([H])C([H])([H])Oc2c([H])c([H])c3c(c2[H])C([H])([H])N(C(=O)C([H])(N([H])C(=O)C([H])(N([H])C([H])([H])[H])C([H])([H])[H])C(C([H])([H])[H])(C([H])([H])[H])C([H])([H])[H])C([H])(C(=O)N([H])C2([H])c4c([H])c([H])c([H])c([H])c4C([H])([H])C([H])([H])C2([H])[H])C3([H])[H])c1[H]

$$$$
54:0:0
     RDKit          3D

117121  0  0  1  0  0  0  0  0999 V2000
  -31.0220  -18.9590   19.5800 C   0  0  0  0  0  0  0  0  0  0  0  0
  -29.9460  -18.5510   18.9050 N   0  0  0  0  0  0  0  0  0  0  0  0
  -32.1600  -18.9560   19.1110 O   0  0  0  0  0  0  0  0  0  0  0  0
  -29.1040  -18.6150   19.4630 H   0  0  0  0  0  0  0  0  0  0  0  0
  -30.7650  -19.3400   21.0490 C   0  0  0  0  0  3  0  0  0  0  0  0
  -30.1110  -21.6800   21.6210 C   0  0  0  0  0  0  0  0  0  0  0  0
  -31.0310  -20.7680   21.2710 N   0  0  0  0  0  0  0  0  0  0  0  0
  -28.9480  -21.3680   21.8940 O   0  0  0  0  0  0  0  0  0  0  0  0
  -31.9520  -21.1020   21.0240 H   0  0  0  0  0  0  0  0  0  0  0  0
  -30.5500  -23.1530   21.6620 C   0  0  0  0  0  2  0  0  0  0  0  0
  -29.4730  -23.9750   22.1240 O   0  0  0  0  0  0  0  0  0  0  0  0
  -29.4900  -25.2810   21.5570 C   0  0  0  0  0  2  0  0  0  0  0  0
  -28.4670  -26.1870   22.2670 C   0  0  0  0  0  2  0  0  0  0  0  0
  -29.1510  -27.1530   23.0680 O   0  0  0  0  0  0  0  0  0  0  0  0
  -28.0230  -33.4070   26.2410 C   0  0  0  0  0  0  0  0  0  0  0  0
  -28.4160  -27.8330   24.0110 C   0  0  0  0  0  0  0  0  0  0  0  0
  -26.9320  -31.4550   27.3000 C   0  0  0  0  0  3  0  0  0  0  0  0
  -26.9570  -29.2980   25.9390 C   0  0  0  0  0  0  0  0  0  0  0  0
  -27.4330  -31.4690   24.7930 C   0  0  0  0  0  2  0  0  0  0  0  0
  -27.5760  -29.9640   24.8750 C   0  0  0  0  0  0  0  0  0  0  0  0
  -28.3130  -29.2380   23.9150 C   0  0  0  0  0  3  0  0  0  0  0  0
  -27.8000  -27.1760   25.1010 C   0  0  0  0  0  3  0  0  0  0  0  0
  -27.0720  -27.9020   26.0610 C   0  0  0  0  0  3  0  0  0  0  0  0
  -26.1860  -30.1470   26.9240 C   0  0  0  0  0  2  0  0  0  0  0  0
  -27.5090  -32.1510   26.1050 N   0  0  0  0  0  0  0  0  0  0  0  0
  -27.9830  -34.0010   27.3270 O   0  0  0  0  0  0  0  0  0  0  0  0
  -27.9820  -31.1290   28.3840 C   0  0  0  0  0  0  0  0  0  0  0  0
  -27.5720  -31.2230   29.6590 N   0  0  0  0  0  0  0  0  0  0  0  0
  -29.1240  -30.7750   28.0750 O   0  0  0  0  0  0  0  0  0  0  0  0
  -26.6240  -31.5250   29.8290 H   0  0  0  0  0  0  0  0  0  0  0  0
  -27.6150  -31.4200   33.2670 C   0  0  0  0  0  0  0  0  0  0  0  0
  -28.3740  -30.9270   30.8460 C   0  0  0  0  0  3  0  0  0  0  0  0
  -28.2730  -29.4320   31.2270 C   0  0  0  0  0  2  0  0  0  0  0  0
  -27.1740  -29.1440   32.2530 C   0  0  0  0  0  2  0  0  0  0  0  0
  -27.4180  -29.9380   33.5390 C   0  0  0  0  0  2  0  0  0  0  0  0
  -28.0490  -31.8850   31.9970 C   0  0  0  0  0  0  0  0  0  0  0  0
  -28.1810  -33.2740   31.7850 C   0  0  0  0  0  3  0  0  0  0  0  0
  -27.8940  -34.1900   32.8140 C   0  0  0  0  0  3  0  0  0  0  0  0
  -27.4800  -33.7230   34.0740 C   0  0  0  0  0  3  0  0  0  0  0  0
  -27.3460  -32.3420   34.2990 C   0  0  0  0  0  3  0  0  0  0  0  0
  -28.6620  -34.1640   25.0340 C   0  0  0  0  0  3  0  0  0  0  0  0
  -30.2400  -34.1430   25.0530 C   0  0  1  0  0  0  0  0  0  0  0  0
  -30.8530  -34.5460   26.4140 C   0  0  0  0  0  1  0  0  0  0  0  0
  -30.7700  -32.7360   24.6970 C   0  0  0  0  0  1  0  0  0  0  0  0
  -30.7900  -35.1080   23.9760 C   0  0  0  0  0  1  0  0  0  0  0  0
  -28.1590  -35.5430   25.0640 N   0  0  0  0  0  0  0  0  0  0  0  0
  -27.4960  -36.1310   24.0590 C   0  0  0  0  0  0  0  0  0  0  0  0
  -27.3050  -35.5820   22.9700 O   0  0  0  0  0  0  0  0  0  0  0  0
  -28.2300  -36.0330   25.9430 H   0  0  0  0  0  0  0  0  0  0  0  0
  -25.4250  -37.5520   24.1840 C   0  0  0  0  0  1  0  0  0  0  0  0
  -26.9580  -37.5540   24.3010 C   0  0  0  0  0  3  0  0  0  0  0  0
  -28.9190  -38.8890   23.6720 C   0  0  0  0  0  1  0  0  0  0  0  0
  -27.5270  -38.5610   23.3790 N   0  0  0  0  0  0  0  0  0  0  0  0
  -26.9860  -39.4210   23.4070 H   0  0  0  0  0  0  0  0  0  0  0  0
  -31.6710  -18.4380   21.9350 C   0  0  0  0  0  2  0  0  0  0  0  0
  -30.9050  -17.6120   22.9690 C   0  0  0  0  0  0  0  0  0  0  0  0
  -30.7600  -18.1040   24.1940 N   0  0  0  0  0  0  0  0  0  0  0  0
  -30.4410  -16.5120   22.6750 O   0  0  0  0  0  0  0  0  0  0  0  0
  -31.1380  -19.0060   24.4470 H   0  0  0  0  0  0  0  0  0  0  0  0
  -30.2870  -17.5580   24.9010 H   0  0  0  0  0  0  0  0  0  0  0  0
  -29.8780  -17.3850   18.0050 C   0  0  0  0  0  3  0  0  0  0  0  0
  -29.0640  -16.3340   18.7980 C   0  0  0  0  0  0  0  0  0  0  0  0
  -29.0160  -15.0100   18.3530 N   0  0  0  0  0  2  0  0  0  0  0  0
  -28.4890  -16.7420   19.8150 O   0  0  0  0  0  0  0  0  0  0  0  0
  -29.5210  -15.0040   17.4780 H   0  0  0  0  0  0  0  0  0  0  0  0
  -28.3630  -12.6900   18.5980 C   0  0  0  0  0  3  0  0  0  0  0  0
  -29.1140  -11.2570   18.7140 C   0  0  0  0  0  2  0  0  0  0  0  0
  -29.6020  -10.9250   20.0080 O   0  0  0  0  0  0  0  0  0  0  0  0
  -30.2240   -9.6500   20.1070 C   0  0  0  0  0  2  0  0  0  0  0  0
  -31.6060   -9.8610   20.7350 C   0  0  0  0  0  2  0  0  0  0  0  0
  -31.5260   -9.7000   22.1460 O   0  0  0  0  0  0  0  0  0  0  0  0
  -32.3460  -10.6020   22.8780 C   0  0  0  0  0  2  0  0  0  0  0  0
  -31.5910  -11.9170   23.1600 C   0  0  0  0  0  2  0  0  0  0  0  0
  -31.6960  -13.5260   21.1670 C   0  0  0  0  0  0  0  0  0  0  0  0
  -31.0460  -12.8810   18.6470 C   0  0  0  0  0  1  0  0  0  0  0  0
  -29.4810  -13.3190   17.3660 C   0  0  0  0  0  1  0  0  0  0  0  0
  -27.6170  -13.6610   18.1960 C   0  0  0  0  0  1  0  0  0  0  0  0
  -27.4750  -13.5890   20.2220 C   0  0  0  0  0  1  0  0  0  0  0  0
  -29.1120  -13.0380   21.3320 C   0  0  0  0  0  1  0  0  0  0  0  0
  -30.7670  -12.8290   20.5150 N   0  0  0  0  0  0  0  0  0  0  0  0
  -32.3150  -14.4430   20.6310 O   0  0  0  0  0  0  0  0  0  0  0  0
  -32.0920  -13.0420   22.3570 N   0  0  0  0  0  0  0  0  0  0  0  0
  -32.8700  -13.5390   22.7670 H   0  0  0  0  0  0  0  0  0  0  0  0
  -25.2510  -13.8980   21.1360 C   0  0  0  0  0  0  0  0  0  0  0  0
  -24.2920  -12.9870   21.4130 C   0  0  0  0  0  0  0  0  0  0  0  0
  -24.8940  -11.7000   21.2610 C   0  0  0  0  0  0  0  0  0  0  0  0
  -26.3100  -13.1160   20.7680 N   0  0  0  0  0  0  0  0  0  0  0  0
  -26.1540  -11.7980   20.9120 N   0  0  0  0  0  0  0  0  0  0  0  0
  -24.3340  -10.3670   21.3380 C   0  0  0  0  0  0  0  0  0  0  0  0
  -24.6650   -9.4980   22.3960 C   0  0  0  0  0  3  0  0  0  0  0  0
  -24.0810   -8.2190   22.4600 C   0  0  0  0  0  3  0  0  0  0  0  0
  -23.1630   -7.8130   21.4620 C   0  0  0  0  0  0  0  0  0  0  0  0
  -22.8680   -8.6790   20.3930 C   0  0  0  0  0  3  0  0  0  0  0  0
  -23.4550   -9.9490   20.3250 C   0  0  0  0  0  3  0  0  0  0  0  0
  -22.5510   -6.5880   21.4350 O   0  0  0  0  0  0  0  0  0  0  0  0
  -22.0890   -5.9960   22.5810 C   0  0  0  0  0  0  0  0  0  0  0  0
  -21.0980   -6.6010   23.3870 C   0  0  0  0  0  3  0  0  0  0  0  0
  -20.5920   -5.9160   24.5080 C   0  0  0  0  0  3  0  0  0  0  0  0
  -21.0770   -4.6350   24.8290 C   0  0  0  0  0  0  0  0  0  0  0  0
  -22.0700   -4.0360   24.0340 C   0  0  0  0  0  3  0  0  0  0  0  0
  -22.5700   -4.7130   22.9090 C   0  0  0  0  0  0  0  0  0  0  0  0
  -23.5050   -4.1250   22.1250 F   0  0  0  0  0  0  0  0  0  0  0  0
  -20.5890   -3.9750   25.9060 F   0  0  0  0  0  0  0  0  0  0  0  0
  -22.8690  -13.3120   21.6890 C   0  0  0  0  0  0  0  0  0  0  0  0
  -22.2330  -12.5340   22.5520 N   0  0  0  0  0  0  0  0  0  0  0  0
  -22.3370  -14.2940   21.1740 O   0  0  0  0  0  0  0  0  0  0  0  0
  -22.6880  -11.7410   22.9780 H   0  0  0  0  0  0  0  0  0  0  0  0
  -21.2700  -12.7280   22.7860 H   0  0  0  0  0  0  0  0  0  0  0  0
  -25.3060  -15.2940   21.1030 N   0  0  0  0  0  0  0  0  0  0  0  0
  -24.5290  -15.8930   21.3580 H   0  0  0  0  0  0  0  0  0  0  0  0
  -26.1580  -15.8050   20.8830 H   0  0  0  0  0  0  0  0  0  0  0  0
  -29.0610  -17.7650   16.7470 C   0  0  0  0  0  2  0  0  0  0  0  0
  -29.3620  -19.1780   16.2450 C   0  0  0  0  0  0  0  0  0  0  0  0
  -28.4010  -20.0910   16.3480 N   0  0  0  0  0  0  0  0  0  0  0  0
  -30.4650  -19.4570   15.7810 O   0  0  0  0  0  0  0  0  0  0  0  0
  -27.5010  -19.8440   16.7390 H   0  0  0  0  0  0  0  0  0  0  0  0
  -28.5560  -21.0430   16.0500 H   0  0  0  0  0  0  0  0  0  0  0  0
  1  5  1  0
  2  4  1  0
  2  1  1  0
  3  1  2  0
  5  7  1  0
  5 55  1  0
  6 10  1  0
  6  8  2  0
  7  6  1  0
  9  7  1  0
 10 11  1  0
 12 11  1  0
 12 13  1  0
 13 14  1  0
 14 16  1  0
 15 26  2  0
 16 22  1  0
 17 27  1  0
 18 23  1  0
 18 24  1  0
 19 20  1  0
 19 25  1  0
 20 18  2  0
 21 16  2  0
 21 20  1  0
 22 23  2  0
 24 17  1  0
 25 15  1  0
 25 17  1  0
 27 28  1  0
 28 30  1  0
 29 27  2  0
 31 35  1  0
 31 40  1  0
 32 28  1  0
 32 33  1  0
 32 36  1  0
 33 34  1  0
 34 35  1  0
 36 31  2  0
 37 36  1  0
 37 38  2  0
 38 39  1  0
 39 40  2  0
 41 42  1  0
 41 46  1  0
 41 15  1  0
 42 43  1  1
 44 42  1  0
 45 42  1  0
 46 49  1  0
 47 51  1  0
 47 46  1  0
 48 47  2  0
 51 50  1  0
 53 54  1  0
 53 52  1  0
 53 51  1  0
 55 56  1  0
 56 57  1  0
 57 59  1  0
 57 60  1  0
 58 56  2  0
 61112  1  0
 61 62  1  0
 61  2  1  0
 62 64  2  0
 63 62  1  0
 65 63  1  0
 66 67  1  0
 67 68  1  0
 68 69  1  0
 69 70  1  0
 70 71  1  0
 71 72  1  0
 72 73  1  0
 74 82  1  0
 75 80  1  0
 76 66  1  0
 77 66  1  0
 78 87  1  0
 80 74  1  0
 80 79  1  0
 81 74  2  0
 82 83  1  0
 82 73  1  0
 84 85  2  0
 85104  1  0
 86 89  1  0
 86 85  1  0
 87 88  1  0
 87 84  1  0
 88 86  2  0
 89 90  1  0
 90 91  2  0
 92 91  1  0
 93 92  2  0
 94 93  1  0
 94 89  2  0
 95 92  1  0
 95 96  1  0
 96101  2  0
 96 97  1  0
 97 98  2  0
 98 99  1  0
 99103  1  0
100 99  2  0
101100  1  0
102101  1  0
104105  1  0
105108  1  0
105107  1  0
106104  2  0
109 84  1  0
109110  1  0
111109  1  0
113114  1  0
113112  1  0
114116  1  0
115113  2  0
117114  1  0
M  ISO  4  13 101  14 101  74 100  82 100
M  END
>  <TORSDO>  (53) 
F 36

>  <SCORE>  (53) 
-4.269

>  <name>  (53) 
54

>  <ligand_id>  (53) 
54

>  <original_smiles>  (53) 
[H]c1c([H])c([H])c2c(c1[H])C([H])([H])C([H])([H])C([H])([H])C2([H])N([H])C(=O)C1([H])N(C(=O)C([H])(N([H])C(=O)C([H])(N([H])C([H])([H])[H])C([H])([H])[H])C(C([H])([H])[H])(C([H])([H])[H])C([H])([H])[H])C([H])([H])c2c([H])c(OC([H])([H])C([H])([H])OC([H])([H])C(=O)N([H])C([H])(C(=O)N([H])C([H])(C(=O)N([H])C([H])([H])C([H])([H])OC([H])([H])C([H])([H])OC([H])([H])C([H])([H])N([H])C(=O)N3C([H])([H])C([H])([H])C([H])([H])C([H])(n4nc(-c5c([H])c([H])c(Oc6c([H])c([H])c(F)c([H])c6F)c([H])c5[H])c(C(=O)N([H])[H])c4N([H])[H])C3([H])[H])C([H])([H])C(=O)N([H])[H])C([H])([H])C(=O)N([H])[H])c([H])c([H])c2C1([H])[H]

>  <smiles>  (53) 
[H]c1c([H])c([H])c2c(c1[H])C([H])([H])C([H])([H])C([H])([H])C2([H])N([H])C(=O)C1([H])N(C(=O)C([H])(N([H])C(=O)C([H])(N([H])C([H])([H])[H])C([H])([H])[H])C(C([H])([H])[H])(C([H])([H])[H])C([H])([H])[H])C([H])([H])c2c([H])c(OC([H])([H])C([H])([H])OC([H])([H])C(=O)N([H])C([H])(C(=O)N([H])C([H])(C(=O)N([H])C([H])([H])C([H])([H])OC([H])([H])C([H])([H])OC([H])([H])C([H])([H])N([H])C(=O)N3C([H])([H])C([H])([H])C([H])([H])C([H])(n4nc(-c5c([H])c([H])c(Oc6c([H])c([H])c(F)c([H])c6F)c([H])c5[H])c(C(=O)N([H])[H])c4N([H])[H])C3([H])[H])C([H])([H])C(=O)N([H])[H])C([H])([H])C(=O)N([H])[H])c([H])c([H])c2C1([H])[H]

$$$$
55:0:0
     RDKit          3D

 94101  0  0  1  0  0  0  0  0999 V2000
  -27.8620  -20.2120   21.3170 C   0  0  0  0  0  2  0  0  0  0  0  0
  -28.9980  -20.4090   20.2980 C   0  0  0  0  0  2  0  0  0  0  0  0
  -30.6160  -18.5390   20.6950 C   0  0  0  0  0  0  0  0  0  0  0  0
  -29.6810  -19.1620   19.9670 N   0  0  0  0  0  0  0  0  0  0  0  0
  -30.9300  -18.8800   21.8390 O   0  0  0  0  0  0  0  0  0  0  0  0
  -29.4930  -18.7550   19.0560 H   0  0  0  0  0  0  0  0  0  0  0  0
  -31.3200  -17.3650   20.0060 C   0  0  0  0  0  3  0  0  0  0  0  0
  -31.5420  -14.9670   20.6270 C   0  0  0  0  0  0  0  0  0  0  0  0
  -31.2020  -12.7350   19.6910 C   0  0  0  0  0  2  0  0  0  0  0  0
  -30.3630  -12.9330   18.4150 C   0  0  0  0  0  2  0  0  0  0  0  0
  -28.8710  -12.8220   18.7680 C   0  0  0  0  0  2  0  0  0  0  0  0
  -28.4660  -13.7640   19.9340 C   0  0  0  0  0  3  0  0  0  0  0  0
  -29.4500  -13.6430   21.1250 C   0  0  0  0  0  2  0  0  0  0  0  0
  -30.8200  -13.8170   20.6130 N   0  0  0  0  0  0  0  0  0  0  0  0
  -32.7510  -15.0060   20.3940 O   0  0  0  0  0  0  0  0  0  0  0  0
  -30.8080  -16.0870   20.5240 N   0  0  0  0  0  0  0  0  0  0  0  0
  -29.8320  -16.0460   20.7680 H   0  0  0  0  0  0  0  0  0  0  0  0
  -26.0750  -14.4790   20.5500 C   0  0  0  0  0  0  0  0  0  0  0  0
  -24.9450  -13.7570   20.8210 C   0  0  0  0  0  0  0  0  0  0  0  0
  -25.3270  -12.3840   20.7460 C   0  0  0  0  0  0  0  0  0  0  0  0
  -27.0790  -13.5490   20.3350 N   0  0  0  0  0  0  0  0  0  0  0  0
  -26.6290  -12.2800   20.5090 N   0  0  0  0  0  0  0  0  0  0  0  0
  -24.5190  -11.1630   20.8360 C   0  0  0  0  0  0  0  0  0  0  0  0
  -24.8810  -10.1020   21.6940 C   0  0  0  0  0  3  0  0  0  0  0  0
  -24.0750   -8.9460   21.7780 C   0  0  0  0  0  3  0  0  0  0  0  0
  -22.8950   -8.8470   21.0040 C   0  0  0  0  0  0  0  0  0  0  0  0
  -22.5530   -9.8970   20.1350 C   0  0  0  0  0  3  0  0  0  0  0  0
  -23.3580  -11.0450   20.0470 C   0  0  0  0  0  3  0  0  0  0  0  0
  -22.0650   -7.7510   21.0030 O   0  0  0  0  0  0  0  0  0  0  0  0
  -21.9900   -6.9030   22.0790 C   0  0  0  0  0  0  0  0  0  0  0  0
  -21.6430   -7.3590   23.3690 C   0  0  0  0  0  3  0  0  0  0  0  0
  -21.5110   -6.4420   24.4300 C   0  0  0  0  0  3  0  0  0  0  0  0
  -21.7200   -5.0680   24.2030 C   0  0  0  0  0  0  0  0  0  0  0  0
  -22.0590   -4.6110   22.9170 C   0  0  0  0  0  3  0  0  0  0  0  0
  -22.1930   -5.5240   21.8590 C   0  0  0  0  0  0  0  0  0  0  0  0
  -22.4980   -5.0750   20.6170 F   0  0  0  0  0  0  0  0  0  0  0  0
  -21.5920   -4.1840   25.2190 F   0  0  0  0  0  0  0  0  0  0  0  0
  -23.5620  -14.3020   21.0370 C   0  0  0  0  0  0  0  0  0  0  0  0
  -22.7540  -13.6280   21.8470 N   0  0  0  0  0  0  0  0  0  0  0  0
  -23.2070  -15.3660   20.5300 O   0  0  0  0  0  0  0  0  0  0  0  0
  -23.0480  -12.7680   22.2890 H   0  0  0  0  0  0  0  0  0  0  0  0
  -21.8260  -13.9860   22.0380 H   0  0  0  0  0  0  0  0  0  0  0  0
  -26.3290  -15.8460   20.4570 N   0  0  0  0  0  0  0  0  0  0  0  0
  -25.6050  -16.5380   20.6220 H   0  0  0  0  0  0  0  0  0  0  0  0
  -27.2320  -16.2540   20.2730 H   0  0  0  0  0  0  0  0  0  0  0  0
  -30.5060  -16.7750   17.6420 C   0  0  0  0  0  2  0  0  0  0  0  0
  -31.3390  -17.4230   18.4760 C   0  0  0  0  0  3  0  0  0  0  0  0
  -27.5070  -21.4800   21.8560 O   0  0  0  0  0  0  0  0  0  0  0  0
  -26.7020  -22.2770   20.9950 C   0  0  0  0  0  2  0  0  0  0  0  0
  -26.8780  -23.7460   21.3880 C   0  0  0  0  0  2  0  0  0  0  0  0
  -28.0730  -24.2230   20.7840 O   0  0  0  0  0  0  0  0  0  0  0  0
  -28.3510  -25.5810   21.0860 C   0  0  0  0  0  2  0  0  0  0  0  0
  -29.1910  -26.1880   19.9360 C   0  0  0  0  0  2  0  0  0  0  0  0
  -29.1450  -27.6170   19.8980 O   0  0  0  0  0  0  0  0  0  0  0  0
  -24.7540  -31.9480   23.3730 C   0  0  0  0  0  0  0  0  0  0  0  0
  -27.8990  -28.2040   19.8910 C   0  0  0  0  0  0  0  0  0  0  0  0
  -23.7250  -30.6040   21.5720 C   0  0  0  0  0  3  0  0  0  0  0  0
  -25.3530  -29.4090   20.0160 C   0  0  0  0  0  0  0  0  0  0  0  0
  -26.1930  -31.2700   21.4580 C   0  0  0  0  0  2  0  0  0  0  0  0
  -26.4360  -29.9960   20.6780 C   0  0  0  0  0  0  0  0  0  0  0  0
  -27.7140  -29.3970   20.6160 C   0  0  0  0  0  3  0  0  0  0  0  0
  -26.8000  -27.6360   19.2040 C   0  0  0  0  0  3  0  0  0  0  0  0
  -25.5280  -28.2270   19.2780 C   0  0  0  0  0  3  0  0  0  0  0  0
  -24.0170  -30.1030   20.1310 C   0  0  0  0  0  2  0  0  0  0  0  0
  -24.9070  -31.2800   22.1950 N   0  0  0  0  0  0  0  0  0  0  0  0
  -23.6450  -32.0390   23.9160 O   0  0  0  0  0  0  0  0  0  0  0  0
  -23.1860  -29.4180   22.4050 C   0  0  0  0  0  0  0  0  0  0  0  0
  -21.8930  -29.1060   22.2290 N   0  0  0  0  0  0  0  0  0  0  0  0
  -23.9270  -28.7860   23.1630 O   0  0  0  0  0  0  0  0  0  0  0  0
  -21.3540  -29.6770   21.5940 H   0  0  0  0  0  0  0  0  0  0  0  0
  -18.6650  -27.5010   22.5110 C   0  0  0  0  0  0  0  0  0  0  0  0
  -21.1740  -28.0070   22.8750 C   0  0  0  0  0  3  0  0  0  0  0  0
  -21.4470  -26.6650   22.1570 C   0  0  0  0  0  2  0  0  0  0  0  0
  -20.4020  -26.3320   21.0870 C   0  0  0  0  0  2  0  0  0  0  0  0
  -19.0020  -26.2560   21.7060 C   0  0  0  0  0  2  0  0  0  0  0  0
  -19.6860  -28.3300   23.0470 C   0  0  0  0  0  0  0  0  0  0  0  0
  -19.3220  -29.4910   23.7630 C   0  0  0  0  0  3  0  0  0  0  0  0
  -17.9690  -29.8300   23.9440 C   0  0  0  0  0  3  0  0  0  0  0  0
  -16.9620  -28.9970   23.4290 C   0  0  0  0  0  3  0  0  0  0  0  0
  -17.3100  -27.8330   22.7190 C   0  0  0  0  0  3  0  0  0  0  0  0
  -25.9550  -32.6460   24.0820 C   0  0  0  0  0  3  0  0  0  0  0  0
  -26.4450  -31.8810   25.3720 C   0  0  1  0  0  0  0  0  0  0  0  0
  -25.3080  -31.5520   26.3690 C   0  0  0  0  0  1  0  0  0  0  0  0
  -27.1370  -30.5500   24.9890 C   0  0  0  0  0  1  0  0  0  0  0  0
  -27.5040  -32.7280   26.1150 C   0  0  0  0  0  1  0  0  0  0  0  0
  -25.5390  -34.0130   24.4160 N   0  0  0  0  0  0  0  0  0  0  0  0
  -25.8480  -35.1000   23.6970 C   0  0  0  0  0  0  0  0  0  0  0  0
  -26.5850  -35.0600   22.7070 O   0  0  0  0  0  0  0  0  0  0  0  0
  -24.8880  -34.1100   25.1810 H   0  0  0  0  0  0  0  0  0  0  0  0
  -24.0280  -36.7830   23.2600 C   0  0  0  0  0  1  0  0  0  0  0  0
  -25.2410  -36.4450   24.1410 C   0  0  0  0  0  3  0  0  0  0  0  0
  -27.2610  -37.4490   25.1110 C   0  0  0  0  0  1  0  0  0  0  0  0
  -26.2070  -37.5660   24.1070 N   0  0  0  0  0  0  0  0  0  0  0  0
  -25.7330  -38.4540   24.2460 H   0  0  0  0  0  0  0  0  0  0  0  0
  1 48  1  0
  2  1  1  0
  3  5  2  0
  4  2  1  0
  4  3  1  0
  6  4  1  0
  7 47  1  0
  7 16  1  0
  7  3  1  0
  9 14  1  0
 10 11  1  0
 10  9  1  0
 12 11  1  0
 12 21  1  0
 12 13  1  0
 14  8  1  0
 14 13  1  0
 15  8  2  0
 16  8  1  0
 16 17  1  0
 18 19  2  0
 19 38  1  0
 20 19  1  0
 20 23  1  0
 21 22  1  0
 21 18  1  0
 22 20  2  0
 23 24  1  0
 24 25  2  0
 26 25  1  0
 27 26  2  0
 28 27  1  0
 28 23  2  0
 29 26  1  0
 29 30  1  0
 30 31  1  0
 31 32  2  0
 33 32  1  0
 33 37  1  0
 34 33  2  0
 35 30  2  0
 35 34  1  0
 36 35  1  0
 38 39  1  0
 39 42  1  0
 39 41  1  0
 40 38  2  0
 43 18  1  0
 43 44  1  0
 45 43  1  0
 46 47  2  0
 49 50  1  0
 49 48  1  0
 51 52  1  0
 51 50  1  0
 53 52  1  0
 54 53  1  0
 55 66  2  0
 56 54  1  0
 56 61  1  0
 57 65  1  0
 57 67  1  0
 58 64  1  0
 58 60  1  0
 59 65  1  0
 60 59  1  0
 61 60  2  0
 62 63  1  0
 62 56  2  0
 63 58  2  0
 64 57  1  0
 65 55  1  0
 67 69  2  0
 68 67  1  0
 70 68  1  0
 71 80  2  0
 71 76  1  0
 72 68  1  0
 72 76  1  0
 73 72  1  0
 74 75  1  0
 74 73  1  0
 75 71  1  0
 76 77  2  0
 77 78  1  0
 79 78  2  0
 80 79  1  0
 81 55  1  0
 81 86  1  0
 81 82  1  0
 82 85  1  1
 82 83  1  0
 84 82  1  0
 86 89  1  0
 87 91  1  0
 87 86  1  0
 88 87  2  0
 91 90  1  0
 93 91  1  0
 93 94  1  0
 93 92  1  0
M  ISO  4   8 100  16 100  53 101  54 101
M  END
>  <TORSDO>  (54) 
F 26

>  <SCORE>  (54) 
-7.466

>  <name>  (54) 
55

>  <ligand_id>  (54) 
55

>  <original_smiles>  (54) 
[H]C([H])=C([H])C([H])(C(=O)N([H])C([H])([H])C([H])([H])OC([H])([H])C([H])([H])OC([H])([H])C([H])([H])Oc1c([H])c([H])c2c(c1[H])C([H])([H])N(C(=O)C([H])(N([H])C(=O)C([H])(N([H])C([H])([H])[H])C([H])([H])[H])C(C([H])([H])[H])(C([H])([H])[H])C([H])([H])[H])C([H])(C(=O)N([H])C1([H])c3c([H])c([H])c([H])c([H])c3C([H])([H])C([H])([H])C1([H])[H])C2([H])[H])N([H])C(=O)N1C([H])([H])C([H])([H])C([H])([H])C([H])(n2nc(-c3c([H])c([H])c(Oc4c([H])c([H])c(F)c([H])c4F)c([H])c3[H])c(C(=O)N([H])[H])c2N([H])[H])C1([H])[H]

>  <smiles>  (54) 
[H]C([H])=C([H])C([H])(C(=O)N([H])C([H])([H])C([H])([H])OC([H])([H])C([H])([H])OC([H])([H])C([H])([H])Oc1c([H])c([H])c2c(c1[H])C([H])([H])N(C(=O)C([H])(N([H])C(=O)C([H])(N([H])C([H])([H])[H])C([H])([H])[H])C(C([H])([H])[H])(C([H])([H])[H])C([H])([H])[H])C([H])(C(=O)N([H])C1([H])c3c([H])c([H])c([H])c([H])c3C([H])([H])C([H])([H])C1([H])[H])C2([H])[H])N([H])C(=O)N1C([H])([H])C([H])([H])C([H])([H])C([H])(n2nc(-c3c([H])c([H])c(Oc4c([H])c([H])c(F)c([H])c4F)c([H])c3[H])c(C(=O)N([H])[H])c2N([H])[H])C1([H])[H]

$$$$
56:0:0
     RDKit          3D

 96103  0  0  1  0  0  0  0  0999 V2000
  -33.5200  -19.0140   21.5060 C   0  0  0  0  0  2  0  0  0  0  0  0
  -32.4520  -17.4430   19.8710 C   0  0  0  0  0  0  0  0  0  0  0  0
  -32.4760  -18.1100   21.0290 N   0  0  0  0  0  0  0  0  0  0  0  0
  -33.3990  -17.4650   19.0820 O   0  0  0  0  0  0  0  0  0  0  0  0
  -31.6440  -18.0450   21.5980 H   0  0  0  0  0  0  0  0  0  0  0  0
  -31.1550  -16.6790   19.5050 C   0  0  0  0  0  0  0  0  0  0  0  0
  -31.7210  -14.1600   19.4900 C   0  0  0  0  0  0  0  0  0  0  0  0
  -31.3000  -11.7810   18.9800 C   0  0  0  0  0  2  0  0  0  0  0  0
  -30.3030  -11.6920   17.8040 C   0  0  0  0  0  2  0  0  0  0  0  0
  -28.8460  -11.7640   18.3050 C   0  0  0  0  0  2  0  0  0  0  0  0
  -28.6100  -12.9430   19.2870 C   0  0  0  0  0  3  0  0  0  0  0  0
  -29.6990  -12.9450   20.3840 C   0  0  0  0  0  2  0  0  0  0  0  0
  -31.0170  -13.0200   19.7190 N   0  0  0  0  0  0  0  0  0  0  0  0
  -32.7880  -14.1760   18.8730 O   0  0  0  0  0  0  0  0  0  0  0  0
  -31.0700  -15.2630   19.8920 N   0  0  0  0  0  4  0  0  0  0  0  0
  -30.2480  -15.0550   20.4340 H   0  0  0  0  0  0  0  0  0  0  0  0
  -26.4100  -13.9450   20.1800 C   0  0  0  0  0  0  0  0  0  0  0  0
  -25.2520  -13.3630   20.6220 C   0  0  0  0  0  0  0  0  0  0  0  0
  -25.4610  -11.9540   20.5270 C   0  0  0  0  0  0  0  0  0  0  0  0
  -27.2640  -12.9020   19.8580 N   0  0  0  0  0  0  0  0  0  0  0  0
  -26.6960  -11.6970   20.1160 N   0  0  0  0  0  0  0  0  0  0  0  0
  -24.5380  -10.8350   20.7460 C   0  0  0  0  0  0  0  0  0  0  0  0
  -24.8650   -9.7650   21.6090 C   0  0  0  0  0  3  0  0  0  0  0  0
  -23.9540   -8.7080   21.8180 C   0  0  0  0  0  3  0  0  0  0  0  0
  -22.6990   -8.7150   21.1640 C   0  0  0  0  0  0  0  0  0  0  0  0
  -22.3870   -9.7700   20.2890 C   0  0  0  0  0  3  0  0  0  0  0  0
  -23.2970  -10.8180   20.0780 C   0  0  0  0  0  3  0  0  0  0  0  0
  -21.7610   -7.7190   21.2870 O   0  0  0  0  0  0  0  0  0  0  0  0
  -21.6550   -6.9670   22.4290 C   0  0  0  0  0  0  0  0  0  0  0  0
  -21.4100   -7.5570   23.6890 C   0  0  0  0  0  3  0  0  0  0  0  0
  -21.2390   -6.7410   24.8260 C   0  0  0  0  0  3  0  0  0  0  0  0
  -21.3020   -5.3400   24.7050 C   0  0  0  0  0  0  0  0  0  0  0  0
  -21.5420   -4.7520   23.4510 C   0  0  0  0  0  3  0  0  0  0  0  0
  -21.7140   -5.5640   22.3150 C   0  0  0  0  0  0  0  0  0  0  0  0
  -21.9230   -4.9910   21.1050 F   0  0  0  0  0  0  0  0  0  0  0  0
  -21.1310   -4.5570   25.7950 F   0  0  0  0  0  0  0  0  0  0  0  0
  -23.9880  -14.0710   21.0170 C   0  0  0  0  0  0  0  0  0  0  0  0
  -23.2330  -13.5010   21.9510 N   0  0  0  0  0  0  0  0  0  0  0  0
  -23.6870  -15.1610   20.5350 O   0  0  0  0  0  0  0  0  0  0  0  0
  -23.4910  -12.6160   22.3620 H   0  0  0  0  0  0  0  0  0  0  0  0
  -22.3850  -13.9560   22.2580 H   0  0  0  0  0  0  0  0  0  0  0  0
  -26.7970  -15.2700   20.0070 N   0  0  0  0  0  0  0  0  0  0  0  0
  -26.1650  -16.0430   20.1840 H   0  0  0  0  0  0  0  0  0  0  0  0
  -27.6800  -15.5620   19.6100 H   0  0  0  0  0  0  0  0  0  0  0  0
  -29.3720  -17.5220   21.1820 C   0  0  0  0  0  1  0  0  0  0  0  0
  -28.6590  -16.5240   19.0090 C   0  0  0  0  0  1  0  0  0  0  0  0
  -29.7040  -18.7600   19.0090 C   0  0  0  0  0  1  0  0  0  0  0  0
  -29.7560  -17.3740   19.6930 C   0  0  2  0  0  0  0  0  0  0  0  0
  -33.3830  -20.4450   20.9490 C   0  0  0  0  0  2  0  0  0  0  0  0
  -32.0700  -20.9610   21.1610 O   0  0  0  0  0  0  0  0  0  0  0  0
  -31.8900  -22.2210   20.5230 C   0  0  0  0  0  2  0  0  0  0  0  0
  -30.4610  -22.7530   20.7170 C   0  0  0  0  0  2  0  0  0  0  0  0
  -30.3370  -23.9550   19.9680 O   0  0  0  0  0  0  0  0  0  0  0  0
  -29.0640  -24.5820   20.0740 C   0  0  0  0  0  2  0  0  0  0  0  0
  -29.0830  -25.8870   19.2550 C   0  0  0  0  0  2  0  0  0  0  0  0
  -28.7810  -27.0110   20.0820 O   0  0  0  0  0  0  0  0  0  0  0  0
  -24.5900  -31.7640   23.2650 C   0  0  0  0  0  0  0  0  0  0  0  0
  -27.5340  -27.6000   20.0700 C   0  0  0  0  0  0  0  0  0  0  0  0
  -23.5020  -30.4020   21.5090 C   0  0  0  0  0  3  0  0  0  0  0  0
  -25.0670  -28.9870   20.0760 C   0  0  0  0  0  0  0  0  0  0  0  0
  -26.0150  -30.8660   21.4290 C   0  0  0  0  0  2  0  0  0  0  0  0
  -26.1770  -29.5310   20.7310 C   0  0  0  0  0  0  0  0  0  0  0  0
  -27.4070  -28.8420   20.7290 C   0  0  0  0  0  3  0  0  0  0  0  0
  -26.3950  -27.0470   19.4370 C   0  0  0  0  0  3  0  0  0  0  0  0
  -25.1680  -27.7410   19.4330 C   0  0  0  0  0  3  0  0  0  0  0  0
  -23.7890  -29.7950   20.1100 C   0  0  0  0  0  2  0  0  0  0  0  0
  -24.7170  -31.0230   22.1270 N   0  0  0  0  0  0  0  0  0  0  0  0
  -23.4790  -31.9690   23.7730 O   0  0  0  0  0  0  0  0  0  0  0  0
  -22.8550  -29.3110   22.3910 C   0  0  0  0  0  0  0  0  0  0  0  0
  -21.5350  -29.1190   22.2320 N   0  0  0  0  0  0  0  0  0  0  0  0
  -23.5360  -28.6430   23.1740 O   0  0  0  0  0  0  0  0  0  0  0  0
  -21.0470  -29.7120   21.5760 H   0  0  0  0  0  0  0  0  0  0  0  0
  -18.1670  -27.8760   22.6250 C   0  0  0  0  0  0  0  0  0  0  0  0
  -20.7220  -28.1220   22.9270 C   0  0  0  0  0  3  0  0  0  0  0  0
  -20.8330  -26.7390   22.2440 C   0  0  0  0  0  2  0  0  0  0  0  0
  -19.7360  -26.4900   21.2040 C   0  0  0  0  0  2  0  0  0  0  0  0
  -18.3510  -26.5810   21.8510 C   0  0  0  0  0  2  0  0  0  0  0  0
  -19.2810  -28.6070   23.1160 C   0  0  0  0  0  0  0  0  0  0  0  0
  -19.0560  -29.8230   23.7980 C   0  0  0  0  0  3  0  0  0  0  0  0
  -17.7490  -30.3070   23.9940 C   0  0  0  0  0  3  0  0  0  0  0  0
  -16.6490  -29.5720   23.5200 C   0  0  0  0  0  3  0  0  0  0  0  0
  -16.8590  -28.3570   22.8420 C   0  0  0  0  0  3  0  0  0  0  0  0
  -25.8270  -32.4070   23.9650 C   0  0  0  0  0  3  0  0  0  0  0  0
  -26.2650  -31.6460   25.2770 C   0  0  1  0  0  0  0  0  0  0  0  0
  -25.1070  -31.4100   26.2740 C   0  0  0  0  0  1  0  0  0  0  0  0
  -26.8780  -30.2700   24.9300 C   0  0  0  0  0  1  0  0  0  0  0  0
  -27.3660  -32.4510   26.0070 C   0  0  0  0  0  1  0  0  0  0  0  0
  -25.4890  -33.8050   24.2630 N   0  0  0  0  0  0  0  0  0  0  0  0
  -25.8640  -34.8530   23.5180 C   0  0  0  0  0  0  0  0  0  0  0  0
  -26.6030  -34.7450   22.5340 O   0  0  0  0  0  0  0  0  0  0  0  0
  -24.8410  -33.9620   25.0220 H   0  0  0  0  0  0  0  0  0  0  0  0
  -24.1410  -36.6200   23.0410 C   0  0  0  0  0  1  0  0  0  0  0  0
  -25.3370  -36.2410   23.9280 C   0  0  0  0  0  3  0  0  0  0  0  0
  -27.4120  -37.1570   24.8680 C   0  0  0  0  0  1  0  0  0  0  0  0
  -26.3640  -37.3040   23.8600 N   0  0  0  0  0  0  0  0  0  0  0  0
  -25.9420  -38.2210   23.9730 H   0  0  0  0  0  0  0  0  0  0  0  0
  2  3  1  0
  3  1  1  0
  3  5  1  0
  4  2  2  0
  6 48  1  0
  6  2  1  0
  6 15  2  0
  7 13  1  0
  7 15  1  0
  8 13  1  0
  9 10  1  0
  9  8  1  0
 11 10  1  0
 11 20  1  0
 11 12  1  0
 13 12  1  0
 14  7  2  0
 15 16  1  0
 17 18  2  0
 18 37  1  0
 19 18  1  0
 19 22  1  0
 20 21  1  0
 20 17  1  0
 21 19  2  0
 22 23  1  0
 23 24  2  0
 25 28  1  0
 25 24  1  0
 26 25  2  0
 27 26  1  0
 27 22  2  0
 28 29  1  0
 29 30  1  0
 30 31  2  0
 32 31  1  0
 32 36  1  0
 33 32  2  0
 34 29  2  0
 34 33  1  0
 35 34  1  0
 37 38  1  0
 38 41  1  0
 38 40  1  0
 39 37  2  0
 42 17  1  0
 42 43  1  0
 44 42  1  0
 48 46  1  6
 47 48  1  0
 48 45  1  0
 49 50  1  0
 49  1  1  0
 51 52  1  0
 51 50  1  0
 53 54  1  0
 53 52  1  0
 55 54  1  0
 55 56  1  0
 57 68  2  0
 58 56  1  0
 58 63  1  0
 59 67  1  0
 59 69  1  0
 60 66  1  0
 60 62  1  0
 61 67  1  0
 62 61  1  0
 63 62  2  0
 64 58  2  0
 65 64  1  0
 65 60  2  0
 66 59  1  0
 67 57  1  0
 69 71  2  0
 70 69  1  0
 72 70  1  0
 73 82  2  0
 73 78  1  0
 74 70  1  0
 74 78  1  0
 75 74  1  0
 76 77  1  0
 76 75  1  0
 77 73  1  0
 78 79  2  0
 79 80  1  0
 81 80  2  0
 82 81  1  0
 83 57  1  0
 83 88  1  0
 83 84  1  0
 84 87  1  1
 84 85  1  0
 86 84  1  0
 88 91  1  0
 89 93  1  0
 89 88  1  0
 90 89  2  0
 93 92  1  0
 95 93  1  0
 95 96  1  0
 95 94  1  0
M  ISO  4   7 100  15 100  55 101  56 101
M  END
>  <TORSDO>  (55) 
F 26

>  <SCORE>  (55) 
-10.998

>  <name>  (55) 
56

>  <ligand_id>  (55) 
56

>  <original_smiles>  (55) 
[H]c1c([H])c([H])c2c(c1[H])C([H])([H])C([H])([H])C([H])([H])C2([H])N([H])C(=O)C1([H])N(C(=O)C([H])(N([H])C(=O)C([H])(N([H])C([H])([H])[H])C([H])([H])[H])C(C([H])([H])[H])(C([H])([H])[H])C([H])([H])[H])C([H])([H])c2c([H])c(OC([H])([H])C([H])([H])OC([H])([H])C([H])([H])OC([H])([H])C([H])([H])N([H])C(=O)C([H])(N([H])C(=O)N3C([H])([H])C([H])([H])C([H])([H])C([H])(n4nc(-c5c([H])c([H])c(Oc6c([H])c([H])c(F)c([H])c6F)c([H])c5[H])c(C(=O)N([H])[H])c4N([H])[H])C3([H])[H])C(C([H])([H])[H])(C([H])([H])[H])C([H])([H])[H])c([H])c([H])c2C1([H])[H]

>  <smiles>  (55) 
[H]c1c([H])c([H])c2c(c1[H])C([H])([H])C([H])([H])C([H])([H])C2([H])N([H])C(=O)C1([H])N(C(=O)C([H])(N([H])C(=O)C([H])(N([H])C([H])([H])[H])C([H])([H])[H])C(C([H])([H])[H])(C([H])([H])[H])C([H])([H])[H])C([H])([H])c2c([H])c(OC([H])([H])C([H])([H])OC([H])([H])C([H])([H])OC([H])([H])C([H])([H])N([H])C(=O)C([H])(N([H])C(=O)N3C([H])([H])C([H])([H])C([H])([H])C([H])(n4nc(-c5c([H])c([H])c(Oc6c([H])c([H])c(F)c([H])c6F)c([H])c5[H])c(C(=O)N([H])[H])c4N([H])[H])C3([H])[H])C(C([H])([H])[H])(C([H])([H])[H])C([H])([H])[H])c([H])c([H])c2C1([H])[H]

$$$$
57:0:0
     RDKit          3D

 94102  0  0  1  0  0  0  0  0999 V2000
  -27.7980  -18.5010   19.1810 C   0  0  0  0  0  2  0  0  0  0  0  0
  -27.8840  -17.4690   20.2780 N   0  0  0  0  0  4  0  0  0  0  0  0
  -28.1340  -17.9290   21.1390 H   0  0  0  0  0  0  0  0  0  0  0  0
  -26.9840  -17.0330   20.4250 H   0  0  0  0  0  0  0  0  0  0  0  0
  -28.8960  -16.3930   20.0440 C   0  0  0  0  0  2  0  0  0  0  0  0
  -29.1370  -15.4070   21.2240 C   0  0  0  0  0  2  0  0  0  0  0  0
  -30.0410  -14.4410   20.7010 O   0  0  0  0  0  0  0  0  0  0  0  0
  -30.4180  -13.2520   21.4140 C   0  0  0  0  0  2  0  0  0  0  0  0
  -31.1990  -12.3050   20.3530 C   0  0  0  0  0  3  0  0  0  0  0  0
  -32.7510  -13.1940   20.5400 C   0  0  0  0  0  2  0  0  0  0  0  0
  -35.0300  -12.7030   22.2950 C   0  0  0  0  0  0  0  0  0  0  0  0
  -34.8580  -10.9950   24.1430 C   0  0  0  0  0  2  0  0  0  0  0  0
  -34.6920   -9.5610   23.5180 C   0  0  0  0  0  2  0  0  0  0  0  0
  -33.3980   -9.3220   22.7090 C   0  0  0  0  0  2  0  0  0  0  0  0
  -33.2200  -10.5600   21.8920 C   0  0  0  0  0  3  0  0  0  0  0  0
  -33.0190  -11.6980   22.9390 C   0  0  0  0  0  2  0  0  0  0  0  0
  -34.3490  -12.0310   23.2320 N   0  0  0  0  0  0  0  0  0  0  0  0
  -36.2750  -12.7880   22.4370 O   0  0  0  0  0  0  0  0  0  0  0  0
  -34.2510  -13.0640   21.1520 N   0  0  0  0  0  0  0  0  0  0  0  0
  -34.9000  -13.4310   20.4770 H   0  0  0  0  0  0  0  0  0  0  0  0
  -31.5730  -11.1750   19.4670 C   0  0  2  0  0  0  0  0  0  0  0  0
  -29.8510  -11.0710   19.4300 C   0  0  0  0  0  3  0  0  0  0  0  0
  -29.2400  -10.4590   21.0230 C   0  0  0  0  0  3  0  0  0  0  0  0
  -32.1160  -10.5540   21.1520 N   0  0  0  0  0  0  0  0  0  0  0  0
  -30.5940  -10.1370   22.0830 N   0  0  0  0  0  2  0  0  0  0  0  0
  -28.1170   -9.5800   21.2710 C   0  0  0  0  0  0  0  0  0  0  0  0
  -27.2660   -9.9310   22.3190 C   0  0  0  0  0  3  0  0  0  0  0  0
  -26.1410   -9.1400   22.5970 C   0  0  0  0  0  3  0  0  0  0  0  0
  -25.8790   -7.9800   21.8260 C   0  0  0  0  0  0  0  0  0  0  0  0
  -26.7950   -7.5790   20.8390 C   0  0  0  0  0  3  0  0  0  0  0  0
  -27.9270   -8.3720   20.5670 C   0  0  0  0  0  3  0  0  0  0  0  0
  -24.7580   -7.2160   22.0130 O   0  0  0  0  0  0  0  0  0  0  0  0
  -23.5700   -7.8050   22.3810 C   0  0  0  0  0  0  0  0  0  0  0  0
  -22.9000   -8.7130   21.5370 C   0  0  0  0  0  3  0  0  0  0  0  0
  -21.6660   -9.2650   21.9310 C   0  0  0  0  0  3  0  0  0  0  0  0
  -21.0870   -8.8890   23.1600 C   0  0  0  0  0  0  0  0  0  0  0  0
  -21.7560   -7.9750   24.0050 C   0  0  0  0  0  3  0  0  0  0  0  0
  -22.9920   -7.4350   23.6120 C   0  0  0  0  0  0  0  0  0  0  0  0
  -23.6280   -6.5480   24.4170 F   0  0  0  0  0  0  0  0  0  0  0  0
  -19.8970   -9.3960   23.5370 F   0  0  0  0  0  0  0  0  0  0  0  0
  -29.0080  -11.0610   18.2270 C   0  0  0  0  0  0  0  0  0  0  0  0
  -27.7090  -11.2500   18.4290 N   0  0  0  0  0  0  0  0  0  0  0  0
  -29.5060  -10.8760   17.1290 O   0  0  0  0  0  0  0  0  0  0  0  0
  -27.3670  -11.5800   19.3150 H   0  0  0  0  0  0  0  0  0  0  0  0
  -27.0480  -11.1100   17.6770 H   0  0  0  0  0  0  0  0  0  0  0  0
  -32.4980  -11.6690   18.6020 N   0  0  0  0  0  0  0  0  0  0  0  0
  -32.2630  -12.0150   17.6820 H   0  0  0  0  0  0  0  0  0  0  0  0
  -33.4930  -11.6410   18.7850 H   0  0  0  0  0  0  0  0  0  0  0  0
  -27.5090  -19.9760   19.6390 C   0  0  0  0  0  2  0  0  0  0  0  0
  -27.9570  -20.9860   18.6920 O   0  0  0  0  0  0  0  0  0  0  0  0
  -27.7240  -22.3680   19.0700 C   0  0  0  0  0  2  0  0  0  0  0  0
  -28.5860  -23.3840   18.2340 C   0  0  0  0  0  2  0  0  0  0  0  0
  -28.7920  -24.8080   18.8660 C   0  0  0  0  0  2  0  0  0  0  0  0
  -28.9320  -25.9200   17.9210 O   0  0  0  0  0  0  0  0  0  0  0  0
  -24.8410  -29.7940   22.1330 C   0  0  0  0  0  0  0  0  0  0  0  0
  -27.8140  -26.7170   17.9510 C   0  0  0  0  0  0  0  0  0  0  0  0
  -23.7500  -28.8480   20.1280 C   0  0  0  0  0  3  0  0  0  0  0  0
  -25.3230  -27.9820   18.3180 C   0  0  0  0  0  0  0  0  0  0  0  0
  -26.2240  -29.5050   20.0800 C   0  0  0  0  0  2  0  0  0  0  0  0
  -26.4320  -28.4090   19.0540 C   0  0  0  0  0  0  0  0  0  0  0  0
  -27.6920  -27.7980   18.8560 C   0  0  0  0  0  3  0  0  0  0  0  0
  -26.6960  -26.3290   17.1850 C   0  0  0  0  0  3  0  0  0  0  0  0
  -25.4480  -26.9550   17.3680 C   0  0  0  0  0  3  0  0  0  0  0  0
  -24.0000  -28.6550   18.6090 C   0  0  0  0  0  2  0  0  0  0  0  0
  -24.9550  -29.3820   20.8400 N   0  0  0  0  0  0  0  0  0  0  0  0
  -23.7500  -29.7700   22.7210 O   0  0  0  0  0  0  0  0  0  0  0  0
  -23.2310  -27.5150   20.7150 C   0  0  0  0  0  0  0  0  0  0  0  0
  -21.9080  -27.2940   20.6230 N   0  0  0  0  0  0  0  0  0  0  0  0
  -24.0100  -26.7030   21.2150 O   0  0  0  0  0  0  0  0  0  0  0  0
  -21.3350  -28.0110   20.1980 H   0  0  0  0  0  0  0  0  0  0  0  0
  -18.6250  -25.9090   21.2210 C   0  0  0  0  0  0  0  0  0  0  0  0
  -21.2000  -26.1010   21.0890 C   0  0  0  0  0  3  0  0  0  0  0  0
  -21.1200  -25.0310   19.9750 C   0  0  0  0  0  2  0  0  0  0  0  0
  -19.8360  -25.1210   19.1450 C   0  0  0  0  0  2  0  0  0  0  0  0
  -18.6040  -24.9580   20.0370 C   0  0  0  0  0  2  0  0  0  0  0  0
  -19.8410  -26.4590   21.7060 C   0  0  0  0  0  0  0  0  0  0  0  0
  -19.7990  -27.3630   22.7900 C   0  0  0  0  0  3  0  0  0  0  0  0
  -18.5740  -27.7160   23.3870 C   0  0  0  0  0  3  0  0  0  0  0  0
  -17.3740  -27.1570   22.9100 C   0  0  0  0  0  3  0  0  0  0  0  0
  -17.4020  -26.2520   21.8340 C   0  0  0  0  0  3  0  0  0  0  0  0
  -26.0700  -30.3390   22.9260 C   0  0  0  0  0  3  0  0  0  0  0  0
  -26.7260  -29.2620   23.8740 C   0  0  1  0  0  0  0  0  0  0  0  0
  -25.6990  -28.5050   24.7490 C   0  0  0  0  0  1  0  0  0  0  0  0
  -27.5120  -28.2160   23.0500 C   0  0  0  0  0  1  0  0  0  0  0  0
  -27.7520  -29.9410   24.8130 C   0  0  0  0  0  1  0  0  0  0  0  0
  -25.6220  -31.5050   23.7000 N   0  0  0  0  0  0  0  0  0  0  0  0
  -25.8580  -32.7780   23.3530 C   0  0  0  0  0  0  0  0  0  0  0  0
  -26.5460  -33.0920   22.3760 O   0  0  0  0  0  0  0  0  0  0  0  0
  -25.0070  -31.3230   24.4790 H   0  0  0  0  0  0  0  0  0  0  0  0
  -23.9900  -34.4530   23.5250 C   0  0  0  0  0  1  0  0  0  0  0  0
  -25.2300  -33.8790   24.2290 C   0  0  0  0  0  3  0  0  0  0  0  0
  -27.2080  -34.5720   25.5060 C   0  0  0  0  0  1  0  0  0  0  0  0
  -26.1670  -34.9720   24.5620 N   0  0  0  0  0  0  0  0  0  0  0  0
  -25.6680  -35.7630   24.9610 H   0  0  0  0  0  0  0  0  0  0  0  0
  1 49  1  0
  1  2  1  0
  2  4  1  0
  2  3  1  0
  5  2  1  0
  5  6  1  0
  7  6  1  0
  7  8  1  0
  9 10  1  0
  9  8  1  0
 10 19  1  0
 11 18  2  0
 11 17  1  0
 13 12  1  0
 14 13  1  0
 15 14  1  0
 15 16  1  0
 16 17  1  0
 17 12  1  0
 19 11  1  0
 20 19  1  0
 21 46  1  6
 21  9  1  0
 21 24  1  0
 22 41  1  0
 22 21  1  0
 22 23  1  0
 23 26  1  0
 23 25  1  0
 24 15  1  0
 24 25  1  0
 26 27  1  0
 27 28  2  0
 29 32  1  0
 29 28  1  0
 30 29  2  0
 31 30  1  0
 31 26  2  0
 32 33  1  0
 33 38  1  0
 34 35  1  0
 34 33  2  0
 35 36  2  0
 36 40  1  0
 36 37  1  0
 38 37  2  0
 38 39  1  0
 41 42  1  0
 42 44  1  0
 43 41  2  0
 45 42  1  0
 46 48  1  0
 47 46  1  0
 50 51  1  0
 50 49  1  0
 52 53  1  0
 52 51  1  0
 54 56  1  0
 54 53  1  0
 55 66  2  0
 56 61  1  0
 57 67  1  0
 57 65  1  0
 58 64  1  0
 58 60  1  0
 59 65  1  0
 60 59  1  0
 61 60  2  0
 62 63  1  0
 62 56  2  0
 63 58  2  0
 64 57  1  0
 65 55  1  0
 67 69  2  0
 68 67  1  0
 70 68  1  0
 71 76  2  0
 71 80  1  0
 72 68  1  0
 72 76  1  0
 73 72  1  0
 74 73  1  0
 74 75  1  0
 75 71  1  0
 76 77  1  0
 77 78  2  0
 79 78  1  0
 80 79  2  0
 81 55  1  0
 81 86  1  0
 81 82  1  0
 82 83  1  1
 82 85  1  0
 84 82  1  0
 86 89  1  0
 87 86  1  0
 87 91  1  0
 88 87  2  0
 91 90  1  0
 91 93  1  0
 93 94  1  0
 93 92  1  0
M  ISO  4  11 100  19 100  53 101  54 101
M  END
>  <TORSDO>  (56) 
F 28

>  <SCORE>  (56) 
-2.911

>  <name>  (56) 
57

>  <ligand_id>  (56) 
57

>  <original_smiles>  (56) 
[H]c1c([H])c([H])c2c(c1[H])C([H])([H])C([H])([H])C([H])([H])C2([H])N([H])C(=O)C1([H])N(C(=O)C([H])(N([H])C(=O)C([H])(N([H])C([H])([H])[H])C([H])([H])[H])C(C([H])([H])[H])(C([H])([H])[H])C([H])([H])[H])C([H])([H])c2c([H])c(OC([H])([H])C([H])([H])C([H])([H])OC([H])([H])C([H])([H])[N+]([H])([H])C([H])([H])C([H])([H])OC([H])([H])C([H])([H])C([H])([H])N([H])C(=O)N3C([H])([H])C([H])([H])C([H])([H])C([H])(n4nc(-c5c([H])c([H])c(Oc6c([H])c([H])c(F)c([H])c6F)c([H])c5[H])c(C(=O)N([H])[H])c4N([H])[H])C3([H])[H])c([H])c([H])c2C1([H])[H]

>  <smiles>  (56) 
[H]c1c([H])c([H])c2c(c1[H])C([H])([H])C([H])([H])C([H])([H])C2([H])N([H])C(=O)C1([H])N(C(=O)C([H])(N([H])C(=O)C([H])(N([H])C([H])([H])[H])C([H])([H])[H])C(C([H])([H])[H])(C([H])([H])[H])C([H])([H])[H])C([H])([H])c2c([H])c(OC([H])([H])C([H])([H])C([H])([H])OC([H])([H])C([H])([H])[N+]([H])([H])C([H])([H])C([H])([H])OC([H])([H])C([H])([H])C([H])([H])N([H])C(=O)N3C([H])([H])C([H])([H])C([H])([H])C([H])(n4nc(-c5c([H])c([H])c(Oc6c([H])c([H])c(F)c([H])c6F)c([H])c5[H])c(C(=O)N([H])[H])c4N([H])[H])C3([H])[H])c([H])c([H])c2C1([H])[H]

$$$$
58:0:0
     RDKit          3D

101108  0  0  1  0  0  0  0  0999 V2000
  -26.7040  -20.4380   19.5230 C   0  0  0  0  0  2  0  0  0  0  0  0
  -27.5830  -21.5290   19.7720 O   0  0  0  0  0  0  0  0  0  0  0  0
  -26.9200  -22.7080   20.2070 C   0  0  0  0  0  2  0  0  0  0  0  0
  -27.9850  -23.7440   20.5880 C   0  0  0  0  0  2  0  0  0  0  0  0
  -28.3880  -24.5070   19.4530 O   0  0  0  0  0  0  0  0  0  0  0  0
  -29.6720  -25.0970   19.6380 C   0  0  0  0  0  2  0  0  0  0  0  0
  -29.8090  -26.4310   18.8790 C   0  0  0  0  0  2  0  0  0  0  0  0
  -30.0760  -26.2670   17.4890 O   0  0  0  0  0  0  0  0  0  0  0  0
  -28.9130  -26.0200   16.7060 C   0  0  0  0  0  2  0  0  0  0  0  0
  -28.9820  -26.8260   15.3930 C   0  0  0  0  0  2  0  0  0  0  0  0
  -27.7260  -26.7980   14.7180 O   0  0  0  0  0  0  0  0  0  0  0  0
  -25.0830  -28.6580   21.0730 C   0  0  0  0  0  0  0  0  0  0  0  0
  -26.6330  -27.1060   15.4890 C   0  0  0  0  0  0  0  0  0  0  0  0
  -23.4350  -27.9270   19.3760 C   0  0  0  0  0  3  0  0  0  0  0  0
  -24.3260  -27.6910   17.0000 C   0  0  0  0  0  0  0  0  0  0  0  0
  -25.6450  -29.0030   18.6760 C   0  0  0  0  0  2  0  0  0  0  0  0
  -25.5750  -28.1720   17.4130 C   0  0  0  0  0  0  0  0  0  0  0  0
  -26.7330  -27.8830   16.6640 C   0  0  0  0  0  3  0  0  0  0  0  0
  -25.3720  -26.6330   15.0760 C   0  0  0  0  0  3  0  0  0  0  0  0
  -24.2170  -26.9160   15.8310 C   0  0  0  0  0  3  0  0  0  0  0  0
  -23.1380  -28.0560   17.8590 C   0  0  0  0  0  2  0  0  0  0  0  0
  -24.7590  -28.5170   19.7570 N   0  0  0  0  0  0  0  0  0  0  0  0
  -24.2820  -28.3460   21.9660 O   0  0  0  0  0  0  0  0  0  0  0  0
  -23.2860  -26.4450   19.7800 C   0  0  0  0  0  0  0  0  0  0  0  0
  -22.0350  -25.9590   19.8120 N   0  0  0  0  0  0  0  0  0  0  0  0
  -24.2770  -25.7530   20.0280 O   0  0  0  0  0  0  0  0  0  0  0  0
  -21.2740  -26.5910   19.6010 H   0  0  0  0  0  0  0  0  0  0  0  0
  -19.2380  -23.6860   20.0030 C   0  0  0  0  0  0  0  0  0  0  0  0
  -21.6570  -24.5840   20.1320 C   0  0  0  0  0  3  0  0  0  0  0  0
  -21.9630  -23.6350   18.9500 C   0  0  0  0  0  2  0  0  0  0  0  0
  -20.7720  -23.4440   18.0060 C   0  0  0  0  0  2  0  0  0  0  0  0
  -19.5730  -22.8690   18.7660 C   0  0  0  0  0  2  0  0  0  0  0  0
  -20.2120  -24.5020   20.6350 C   0  0  0  0  0  0  0  0  0  0  0  0
  -19.8380  -25.2660   21.7610 C   0  0  0  0  0  3  0  0  0  0  0  0
  -18.5220  -25.2240   22.2570 C   0  0  0  0  0  3  0  0  0  0  0  0
  -17.5640  -24.4020   21.6370 C   0  0  0  0  0  3  0  0  0  0  0  0
  -17.9250  -23.6330   20.5160 C   0  0  0  0  0  3  0  0  0  0  0  0
  -26.4620  -29.2360   21.5210 C   0  0  0  0  0  3  0  0  0  0  0  0
  -26.2410  -29.9950   22.7590 N   0  0  0  0  0  0  0  0  0  0  0  0
  -26.1740  -31.3310   22.8280 C   0  0  0  0  0  0  0  0  0  0  0  0
  -26.3710  -32.0650   21.8560 O   0  0  0  0  0  0  0  0  0  0  0  0
  -26.0150  -29.4580   23.5830 H   0  0  0  0  0  0  0  0  0  0  0  0
  -24.3650  -32.3770   24.2240 C   0  0  0  0  0  1  0  0  0  0  0  0
  -25.8410  -31.9520   24.1970 C   0  0  0  0  0  3  0  0  0  0  0  0
  -28.0880  -32.7380   24.8030 C   0  0  0  0  0  1  0  0  0  0  0  0
  -26.6980  -33.1070   24.5440 N   0  0  0  0  0  0  0  0  0  0  0  0
  -26.3390  -33.5860   25.3650 H   0  0  0  0  0  0  0  0  0  0  0  0
  -27.5640  -28.1260   21.7320 C   0  0  1  0  0  0  0  0  0  0  0  0
  -27.1080  -26.9630   22.6430 C   0  0  0  0  0  1  0  0  0  0  0  0
  -27.9920  -27.5200   20.3730 C   0  0  0  0  0  1  0  0  0  0  0  0
  -28.8310  -28.7550   22.3560 C   0  0  0  0  0  1  0  0  0  0  0  0
  -27.4770  -19.3750   18.7270 C   0  0  0  0  0  2  0  0  0  0  0  0
  -28.4820  -17.6230   20.1730 C   0  0  0  0  0  0  0  0  0  0  0  0
  -28.5440  -18.8000   19.5430 N   0  0  0  0  0  0  0  0  0  0  0  0
  -27.5190  -16.8610   20.0610 O   0  0  0  0  0  0  0  0  0  0  0  0
  -29.3520  -19.3860   19.7050 H   0  0  0  0  0  0  0  0  0  0  0  0
  -29.6580  -17.2500   21.0810 C   0  0  0  0  0  2  0  0  0  0  0  0
  -30.7140  -16.3640   20.3750 C   0  0  0  0  0  3  0  0  0  0  0  0
  -30.6160  -14.0790   19.3800 C   0  0  0  0  0  0  0  0  0  0  0  0
  -30.1510  -11.8470   18.4320 C   0  0  0  0  0  2  0  0  0  0  0  0
  -29.0410  -11.9240   17.3670 C   0  0  0  0  0  2  0  0  0  0  0  0
  -27.6490  -11.8250   18.0170 C   0  0  0  0  0  2  0  0  0  0  0  0
  -27.4810  -12.7990   19.2140 C   0  0  0  0  0  3  0  0  0  0  0  0
  -28.6780  -12.6780   20.1820 C   0  0  0  0  0  2  0  0  0  0  0  0
  -29.9200  -12.9130   19.4170 N   0  0  0  0  0  0  0  0  0  0  0  0
  -31.5370  -14.3010   18.5860 O   0  0  0  0  0  0  0  0  0  0  0  0
  -30.2140  -14.9940   20.2620 N   0  0  0  0  0  0  0  0  0  0  0  0
  -29.5080  -14.7120   20.9230 H   0  0  0  0  0  0  0  0  0  0  0  0
  -25.2740  -13.5050   20.3390 C   0  0  0  0  0  0  0  0  0  0  0  0
  -24.2340  -12.7740   20.8470 C   0  0  0  0  0  0  0  0  0  0  0  0
  -24.5940  -11.4020   20.6790 C   0  0  0  0  0  0  0  0  0  0  0  0
  -26.2090  -12.5810   19.9000 N   0  0  0  0  0  0  0  0  0  0  0  0
  -25.8090  -11.3070   20.1530 N   0  0  0  0  0  0  0  0  0  0  0  0
  -23.8330  -10.1740   20.9360 C   0  0  0  0  0  0  0  0  0  0  0  0
  -24.3270   -9.1630   21.7900 C   0  0  0  0  0  3  0  0  0  0  0  0
  -23.5680   -7.9990   22.0360 C   0  0  0  0  0  3  0  0  0  0  0  0
  -22.2990   -7.8380   21.4280 C   0  0  0  0  0  0  0  0  0  0  0  0
  -21.8230   -8.8370   20.5610 C   0  0  0  0  0  3  0  0  0  0  0  0
  -22.5820   -9.9920   20.3140 C   0  0  0  0  0  3  0  0  0  0  0  0
  -21.5030   -6.7290   21.5890 O   0  0  0  0  0  0  0  0  0  0  0  0
  -21.5330   -5.9800   22.7370 C   0  0  0  0  0  0  0  0  0  0  0  0
  -21.2440   -6.5420   24.0010 C   0  0  0  0  0  3  0  0  0  0  0  0
  -21.2180   -5.7230   25.1460 C   0  0  0  0  0  3  0  0  0  0  0  0
  -21.4690   -4.3420   25.0310 C   0  0  0  0  0  0  0  0  0  0  0  0
  -21.7500   -3.7790   23.7730 C   0  0  0  0  0  3  0  0  0  0  0  0
  -21.7790   -4.5960   22.6300 C   0  0  0  0  0  0  0  0  0  0  0  0
  -22.0300   -4.0450   21.4170 F   0  0  0  0  0  0  0  0  0  0  0  0
  -21.4360   -3.5520   26.1300 F   0  0  0  0  0  0  0  0  0  0  0  0
  -22.9370  -13.3100   21.3830 C   0  0  0  0  0  0  0  0  0  0  0  0
  -22.3350  -12.6150   22.3400 N   0  0  0  0  0  0  0  0  0  0  0  0
  -22.4760  -14.3800   20.9860 O   0  0  0  0  0  0  0  0  0  0  0  0
  -22.7270  -11.7490   22.6810 H   0  0  0  0  0  0  0  0  0  0  0  0
  -21.4710  -12.9510   22.7400 H   0  0  0  0  0  0  0  0  0  0  0  0
  -25.4970  -14.8720   20.2050 N   0  0  0  0  0  0  0  0  0  0  0  0
  -24.8170  -15.5610   20.5070 H   0  0  0  0  0  0  0  0  0  0  0  0
  -26.3810  -15.2900   19.9200 H   0  0  0  0  0  0  0  0  0  0  0  0
  -31.9650  -16.3450   21.2600 C   0  0  0  0  0  0  0  0  0  0  0  0
  -32.8730  -17.2870   21.0570 N   0  0  0  0  0  0  0  0  0  0  0  0
  -32.1060  -15.4990   22.1430 O   0  0  0  0  0  0  0  0  0  0  0  0
  -32.7470  -17.9730   20.3270 H   0  0  0  0  0  0  0  0  0  0  0  0
  -33.7040  -17.3260   21.6290 H   0  0  0  0  0  0  0  0  0  0  0  0
  1  2  1  0
  2  3  1  0
  3  4  1  0
  5  6  1  0
  5  4  1  0
  7  6  1  0
  8  7  1  0
  9  8  1  0
 10  9  1  0
 11 10  1  0
 11 13  1  0
 12 23  2  0
 13 18  1  0
 14 22  1  0
 14 24  1  0
 15 17  1  0
 15 21  1  0
 16 22  1  0
 17 16  1  0
 18 17  2  0
 19 13  2  0
 19 20  1  0
 20 15  2  0
 21 14  1  0
 22 12  1  0
 24 25  1  0
 24 26  2  0
 27 25  1  0
 28 37  2  0
 28 33  1  0
 29 25  1  0
 29 33  1  0
 30 29  1  0
 31 32  1  0
 31 30  1  0
 32 28  1  0
 33 34  2  0
 34 35  1  0
 36 35  2  0
 37 36  1  0
 38 12  1  0
 38 48  1  0
 38 39  1  0
 39 40  1  0
 39 42  1  0
 40 44  1  0
 41 40  2  0
 44 43  1  0
 44 46  1  0
 46 45  1  0
 46 47  1  0
 48 51  1  1
 48 49  1  0
 50 48  1  0
 52  1  1  0
 52 54  1  0
 53 57  1  0
 54 56  1  0
 54 53  1  0
 55 53  2  0
 58 57  1  0
 58 97  1  0
 59 65  1  0
 59 67  1  0
 60 65  1  0
 61 62  1  0
 61 60  1  0
 63 62  1  0
 63 72  1  0
 63 64  1  0
 65 64  1  0
 66 59  2  0
 67 58  1  0
 67 68  1  0
 69 70  2  0
 70 89  1  0
 71 70  1  0
 71 74  1  0
 72 73  1  0
 72 69  1  0
 73 71  2  0
 74 75  1  0
 75 76  2  0
 77 80  1  0
 77 76  1  0
 78 77  2  0
 79 78  1  0
 79 74  2  0
 80 81  1  0
 81 82  1  0
 82 83  2  0
 84 83  1  0
 84 88  1  0
 85 84  2  0
 86 81  2  0
 86 85  1  0
 87 86  1  0
 89 90  1  0
 90 92  1  0
 90 93  1  0
 91 89  2  0
 94 69  1  0
 94 95  1  0
 96 94  1  0
 97 99  2  0
 98 97  1  0
 98101  1  0
100 98  1  0
M  ISO  4  10 101  11 101  59 100  67 100
M  END
>  <TORSDO>  (57) 
F 30

>  <SCORE>  (57) 
-5.917

>  <name>  (57) 
58

>  <ligand_id>  (57) 
58

>  <original_smiles>  (57) 
[H]c1c([H])c([H])c2c(c1[H])C([H])([H])C([H])([H])C([H])([H])C2([H])N([H])C(=O)C1([H])N(C(=O)C([H])(N([H])C(=O)C([H])(N([H])C([H])([H])[H])C([H])([H])[H])C(C([H])([H])[H])(C([H])([H])[H])C([H])([H])[H])C([H])([H])c2c([H])c(OC([H])([H])C([H])([H])OC([H])([H])C([H])([H])OC([H])([H])C([H])([H])OC([H])([H])C([H])([H])N([H])C(=O)C([H])([H])C([H])(C(=O)N([H])[H])N([H])C(=O)N3C([H])([H])C([H])([H])C([H])([H])C([H])(n4nc(-c5c([H])c([H])c(Oc6c([H])c([H])c(F)c([H])c6F)c([H])c5[H])c(C(=O)N([H])[H])c4N([H])[H])C3([H])[H])c([H])c([H])c2C1([H])[H]

>  <smiles>  (57) 
[H]c1c([H])c([H])c2c(c1[H])C([H])([H])C([H])([H])C([H])([H])C2([H])N([H])C(=O)C1([H])N(C(=O)C([H])(N([H])C(=O)C([H])(N([H])C([H])([H])[H])C([H])([H])[H])C(C([H])([H])[H])(C([H])([H])[H])C([H])([H])[H])C([H])([H])c2c([H])c(OC([H])([H])C([H])([H])OC([H])([H])C([H])([H])OC([H])([H])C([H])([H])OC([H])([H])C([H])([H])N([H])C(=O)C([H])([H])C([H])(C(=O)N([H])[H])N([H])C(=O)N3C([H])([H])C([H])([H])C([H])([H])C([H])(n4nc(-c5c([H])c([H])c(Oc6c([H])c([H])c(F)c([H])c6F)c([H])c5[H])c(C(=O)N([H])[H])c4N([H])[H])C3([H])[H])c([H])c([H])c2C1([H])[H]

$$$$
59:0:0
     RDKit          3D

 99106  0  0  1  0  0  0  0  0999 V2000
  -29.7470  -23.0430   20.2430 O   0  0  0  0  0  0  0  0  0  0  0  0
  -30.2210  -22.9570   18.9000 C   0  0  0  0  0  2  0  0  0  0  0  0
  -30.0920  -24.3310   18.2250 C   0  0  0  0  0  2  0  0  0  0  0  0
  -31.0770  -25.1990   18.7640 O   0  0  0  0  0  0  0  0  0  0  0  0
  -31.0110  -26.5250   18.2590 C   0  0  0  0  0  2  0  0  0  0  0  0
  -32.0280  -27.3520   19.0580 C   0  0  0  0  0  2  0  0  0  0  0  0
  -31.7160  -27.4130   20.4500 O   0  0  0  0  0  0  0  0  0  0  0  0
  -30.4830  -28.0450   20.7890 C   0  0  0  0  0  2  0  0  0  0  0  0
  -29.4360  -27.0130   21.2620 C   0  0  0  0  0  2  0  0  0  0  0  0
  -28.4360  -26.7270   20.2780 O   0  0  0  0  0  0  0  0  0  0  0  0
  -24.5560  -31.9000   23.2570 C   0  0  0  0  0  0  0  0  0  0  0  0
  -27.2900  -27.4880   20.2750 C   0  0  0  0  0  0  0  0  0  0  0  0
  -23.3720  -30.4710   21.6140 C   0  0  0  0  0  3  0  0  0  0  0  0
  -24.8590  -28.9330   20.2210 C   0  0  0  0  0  0  0  0  0  0  0  0
  -25.8850  -30.8710   21.4250 C   0  0  0  0  0  2  0  0  0  0  0  0
  -25.9940  -29.4930   20.8140 C   0  0  0  0  0  0  0  0  0  0  0  0
  -27.2070  -28.7810   20.8430 C   0  0  0  0  0  3  0  0  0  0  0  0
  -26.1420  -26.9410   19.6650 C   0  0  0  0  0  3  0  0  0  0  0  0
  -24.9240  -27.6520   19.6410 C   0  0  0  0  0  3  0  0  0  0  0  0
  -23.6000  -29.7700   20.2440 C   0  0  0  0  0  2  0  0  0  0  0  0
  -24.6230  -31.0940   22.1590 N   0  0  0  0  0  0  0  0  0  0  0  0
  -23.4710  -32.1680   23.7890 O   0  0  0  0  0  0  0  0  0  0  0  0
  -22.7240  -29.4580   22.5830 C   0  0  0  0  0  0  0  0  0  0  0  0
  -21.4040  -29.2590   22.4420 N   0  0  0  0  0  0  0  0  0  0  0  0
  -23.4060  -28.8530   23.4160 O   0  0  0  0  0  0  0  0  0  0  0  0
  -20.9160  -29.8040   21.7430 H   0  0  0  0  0  0  0  0  0  0  0  0
  -18.0340  -28.0520   22.9090 C   0  0  0  0  0  0  0  0  0  0  0  0
  -20.5860  -28.3240   23.2140 C   0  0  0  0  0  3  0  0  0  0  0  0
  -20.7060  -26.8880   22.6540 C   0  0  0  0  0  2  0  0  0  0  0  0
  -19.6190  -26.5490   21.6290 C   0  0  0  0  0  2  0  0  0  0  0  0
  -18.2270  -26.6960   22.2510 C   0  0  0  0  0  2  0  0  0  0  0  0
  -19.1420  -28.8230   23.3470 C   0  0  0  0  0  0  0  0  0  0  0  0
  -18.9100  -30.0930   23.9180 C   0  0  0  0  0  3  0  0  0  0  0  0
  -17.6010  -30.5910   24.0590 C   0  0  0  0  0  3  0  0  0  0  0  0
  -16.5060  -29.8150   23.6390 C   0  0  0  0  0  3  0  0  0  0  0  0
  -16.7230  -28.5490   23.0670 C   0  0  0  0  0  3  0  0  0  0  0  0
  -25.8360  -32.5430   23.8790 C   0  0  0  0  0  3  0  0  0  0  0  0
  -25.5230  -33.9420   24.1850 N   0  0  0  0  0  0  0  0  0  0  0  0
  -25.8720  -34.9850   23.4190 C   0  0  0  0  0  0  0  0  0  0  0  0
  -26.5620  -34.8680   22.4030 O   0  0  0  0  0  0  0  0  0  0  0  0
  -24.9090  -34.1070   24.9710 H   0  0  0  0  0  0  0  0  0  0  0  0
  -24.1600  -36.7750   22.9940 C   0  0  0  0  0  1  0  0  0  0  0  0
  -25.3750  -36.3780   23.8470 C   0  0  0  0  0  3  0  0  0  0  0  0
  -27.4850  -37.2700   24.7290 C   0  0  0  0  0  1  0  0  0  0  0  0
  -26.4110  -37.4270   23.7530 N   0  0  0  0  0  0  0  0  0  0  0  0
  -26.0020  -38.3490   23.8760 H   0  0  0  0  0  0  0  0  0  0  0  0
  -26.3470  -31.7870   25.1670 C   0  0  1  0  0  0  0  0  0  0  0  0
  -25.2470  -31.5640   26.2310 C   0  0  0  0  0  1  0  0  0  0  0  0
  -26.9360  -30.4090   24.7860 C   0  0  0  0  0  1  0  0  0  0  0  0
  -27.4870  -32.5960   25.8290 C   0  0  0  0  0  1  0  0  0  0  0  0
  -29.7270  -21.8030   20.9400 C   0  0  0  0  0  2  0  0  0  0  0  0
  -31.1040  -21.4300   21.5360 C   0  0  0  0  0  2  0  0  0  0  0  0
  -31.0620  -20.2060   22.4760 C   0  0  0  0  0  2  0  0  0  0  0  0
  -30.7110  -17.8460   21.6530 C   0  0  0  0  0  0  0  0  0  0  0  0
  -30.3390  -19.1150   21.8410 N   0  0  0  0  0  0  0  0  0  0  0  0
  -31.7410  -17.3480   22.1130 O   0  0  0  0  0  0  0  0  0  0  0  0
  -29.4510  -19.3650   21.4310 H   0  0  0  0  0  0  0  0  0  0  0  0
  -29.7500  -17.0640   20.7530 C   0  0  0  0  0  0  0  0  0  0  0  0
  -30.5040  -14.6510   20.4210 C   0  0  0  0  0  0  0  0  0  0  0  0
  -30.2390  -12.5420   19.1820 C   0  0  0  0  0  2  0  0  0  0  0  0
  -29.2680  -12.7810   18.0070 C   0  0  0  0  0  2  0  0  0  0  0  0
  -27.7980  -12.6350   18.4490 C   0  0  0  0  0  2  0  0  0  0  0  0
  -27.4750  -13.3750   19.7770 C   0  0  0  0  0  3  0  0  0  0  0  0
  -28.5610  -13.0960   20.8410 C   0  0  0  0  0  2  0  0  0  0  0  0
  -29.8700  -13.4600   20.2660 N   0  0  0  0  0  0  0  0  0  0  0  0
  -31.6220  -14.8880   19.9570 O   0  0  0  0  0  0  0  0  0  0  0  0
  -29.7290  -15.6060   20.9440 N   0  0  0  0  0  4  0  0  0  0  0  0
  -28.8740  -15.2570   21.3520 H   0  0  0  0  0  0  0  0  0  0  0  0
  -25.0520  -13.8720   20.5040 C   0  0  0  0  0  0  0  0  0  0  0  0
  -24.0260  -13.0470   20.8860 C   0  0  0  0  0  0  0  0  0  0  0  0
  -24.5480  -11.7180   20.8430 C   0  0  0  0  0  0  0  0  0  0  0  0
  -26.1390  -13.0410   20.2660 N   0  0  0  0  0  0  0  0  0  0  0  0
  -25.8360  -11.7420   20.5240 N   0  0  0  0  0  0  0  0  0  0  0  0
  -23.8850  -10.4240   21.0380 C   0  0  0  0  0  0  0  0  0  0  0  0
  -24.3450   -9.5020   22.0020 C   0  0  0  0  0  3  0  0  0  0  0  0
  -23.6830   -8.2670   22.1840 C   0  0  0  0  0  3  0  0  0  0  0  0
  -22.5470   -7.9480   21.4060 C   0  0  0  0  0  0  0  0  0  0  0  0
  -22.1030   -8.8620   20.4340 C   0  0  0  0  0  3  0  0  0  0  0  0
  -22.7660  -10.0890   20.2490 C   0  0  0  0  0  3  0  0  0  0  0  0
  -21.8560   -6.7620   21.4940 O   0  0  0  0  0  0  0  0  0  0  0  0
  -21.7920   -6.0550   22.6660 C   0  0  0  0  0  0  0  0  0  0  0  0
  -21.2650   -6.6150   23.8490 C   0  0  0  0  0  3  0  0  0  0  0  0
  -21.1560   -5.8300   25.0130 C   0  0  0  0  0  3  0  0  0  0  0  0
  -21.5640   -4.4830   24.9960 C   0  0  0  0  0  0  0  0  0  0  0  0
  -22.0830   -3.9200   23.8170 C   0  0  0  0  0  3  0  0  0  0  0  0
  -22.1940   -4.7050   22.6550 C   0  0  0  0  0  0  0  0  0  0  0  0
  -22.6770   -4.1530   21.5150 F   0  0  0  0  0  0  0  0  0  0  0  0
  -21.4510   -3.7260   26.1130 F   0  0  0  0  0  0  0  0  0  0  0  0
  -22.6110  -13.4580   21.1770 C   0  0  0  0  0  0  0  0  0  0  0  0
  -21.9220  -12.7270   22.0460 N   0  0  0  0  0  0  0  0  0  0  0  0
  -22.1240  -14.4670   20.6700 O   0  0  0  0  0  0  0  0  0  0  0  0
  -22.3190  -11.9120   22.4910 H   0  0  0  0  0  0  0  0  0  0  0  0
  -20.9750  -12.9930   22.2790 H   0  0  0  0  0  0  0  0  0  0  0  0
  -25.1490  -15.2460   20.3240 N   0  0  0  0  0  0  0  0  0  0  0  0
  -24.3500  -15.8650   20.4270 H   0  0  0  0  0  0  0  0  0  0  0  0
  -25.9780  -15.7260   20.0050 H   0  0  0  0  0  0  0  0  0  0  0  0
  -30.9620  -17.7110   18.4890 C   0  0  0  0  0  1  0  0  0  0  0  0
  -28.5080  -16.9520   18.4830 C   0  0  0  0  0  1  0  0  0  0  0  0
  -29.6450  -17.6010   19.2870 C   0  0  0  0  0  3  0  0  0  0  0  0
  1 51  1  0
  2  1  1  0
  3  4  1  0
  3  2  1  0
  5  4  1  0
  5  6  1  0
  6  7  1  0
  7  8  1  0
  8  9  1  0
 10  9  1  0
 11 22  2  0
 12 10  1  0
 12 17  1  0
 13 21  1  0
 13 23  1  0
 14 20  1  0
 14 16  1  0
 15 21  1  0
 16 17  2  0
 16 15  1  0
 18 12  2  0
 19 18  1  0
 19 14  2  0
 20 13  1  0
 21 11  1  0
 23 25  2  0
 24 23  1  0
 26 24  1  0
 27 36  2  0
 27 32  1  0
 28 24  1  0
 28 32  1  0
 29 28  1  0
 30 31  1  0
 30 29  1  0
 31 27  1  0
 32 33  2  0
 33 34  1  0
 35 34  2  0
 36 35  1  0
 37 11  1  0
 37 38  1  0
 37 47  1  0
 38 41  1  0
 39 43  1  0
 39 38  1  0
 40 39  2  0
 43 42  1  0
 45 43  1  0
 45 46  1  0
 45 44  1  0
 47 50  1  1
 47 48  1  0
 49 47  1  0
 51 52  1  0
 52 53  1  0
 54 55  1  0
 54 56  2  0
 55 53  1  0
 57 55  1  0
 58 67  2  3
 58 54  1  0
 59 67  1  0
 60 65  1  0
 61 62  1  0
 61 60  1  0
 63 62  1  0
 63 72  1  0
 63 64  1  0
 65 59  1  0
 65 64  1  0
 66 59  2  0
 67 68  1  0
 69 70  2  0
 70 89  1  0
 71 70  1  0
 71 74  1  0
 72 69  1  0
 72 73  1  0
 73 71  2  0
 74 75  1  0
 75 76  2  0
 77 80  1  0
 77 76  1  0
 78 77  2  0
 79 78  1  0
 79 74  2  0
 80 81  1  0
 81 82  1  0
 82 83  2  0
 84 83  1  0
 84 88  1  0
 85 84  2  0
 86 81  2  0
 86 85  1  0
 87 86  1  0
 89 90  1  0
 90 93  1  0
 90 92  1  0
 91 89  2  0
 94 95  1  0
 94 69  1  0
 96 94  1  0
 97 99  1  0
 98 99  1  0
 99 58  1  0
M  ISO  4   9 101  10 101  59 100  67 100
M  END
>  <TORSDO>  (58) 
F 30

>  <SCORE>  (58) 
-11.015

>  <name>  (58) 
59

>  <ligand_id>  (58) 
59

>  <original_smiles>  (58) 
[H]c1c([H])c([H])c2c(c1[H])C([H])([H])C([H])([H])C([H])([H])C2([H])N([H])C(=O)C1([H])N(C(=O)C([H])(N([H])C(=O)C([H])(N([H])C([H])([H])[H])C([H])([H])[H])C(C([H])([H])[H])(C([H])([H])[H])C([H])([H])[H])C([H])([H])c2c([H])c(OC([H])([H])C([H])([H])OC([H])([H])C([H])([H])OC([H])([H])C([H])([H])OC([H])([H])C([H])([H])C([H])([H])N([H])C(=O)C([H])(N([H])C(=O)N3C([H])([H])C([H])([H])C([H])([H])C([H])(n4nc(-c5c([H])c([H])c(Oc6c([H])c([H])c(F)c([H])c6F)c([H])c5[H])c(C(=O)N([H])[H])c4N([H])[H])C3([H])[H])C([H])(C([H])([H])[H])C([H])([H])[H])c([H])c([H])c2C1([H])[H]

>  <smiles>  (58) 
[H]c1c([H])c([H])c2c(c1[H])C([H])([H])C([H])([H])C([H])([H])C2([H])N([H])C(=O)C1([H])N(C(=O)C([H])(N([H])C(=O)C([H])(N([H])C([H])([H])[H])C([H])([H])[H])C(C([H])([H])[H])(C([H])([H])[H])C([H])([H])[H])C([H])([H])c2c([H])c(OC([H])([H])C([H])([H])OC([H])([H])C([H])([H])OC([H])([H])C([H])([H])OC([H])([H])C([H])([H])C([H])([H])N([H])C(=O)C([H])(N([H])C(=O)N3C([H])([H])C([H])([H])C([H])([H])C([H])(n4nc(-c5c([H])c([H])c(Oc6c([H])c([H])c(F)c([H])c6F)c([H])c5[H])c(C(=O)N([H])[H])c4N([H])[H])C3([H])[H])C([H])(C([H])([H])[H])C([H])([H])[H])c([H])c([H])c2C1([H])[H]

$$$$
60:0:0
     RDKit          3D

101108  0  0  1  0  0  0  0  0999 V2000
  -30.6480  -18.4210   20.6170 C   0  0  0  0  0  0  0  0  0  0  0  0
  -31.1810  -19.5960   20.1120 N   0  0  0  0  0  0  0  0  0  0  0  0
  -30.5320  -18.2580   21.8360 O   0  0  0  0  0  0  0  0  0  0  0  0
  -31.0600  -20.8570   20.9480 C   0  0  0  0  0  2  0  0  0  0  0  0
  -30.6990  -22.2230   20.2380 C   0  0  0  0  0  2  0  0  0  0  0  0
  -29.9230  -23.1910   21.0030 O   0  0  0  0  0  0  0  0  0  0  0  0
  -29.5470  -24.3830   20.2520 C   0  0  0  0  0  2  0  0  0  0  0  0
  -28.7240  -25.4920   21.0060 C   0  0  0  0  0  2  0  0  0  0  0  0
  -28.6410  -26.7640   20.2960 O   0  0  0  0  0  0  0  0  0  0  0  0
  -24.5730  -31.9100   23.2450 C   0  0  0  0  0  0  0  0  0  0  0  0
  -27.4440  -27.4710   20.3080 C   0  0  0  0  0  0  0  0  0  0  0  0
  -23.4680  -30.4800   21.5590 C   0  0  0  0  0  3  0  0  0  0  0  0
  -25.0140  -28.9580   20.2010 C   0  0  0  0  0  0  0  0  0  0  0  0
  -25.9950  -30.8720   21.4760 C   0  0  0  0  0  2  0  0  0  0  0  0
  -26.1360  -29.4950   20.8450 C   0  0  0  0  0  0  0  0  0  0  0  0
  -27.3490  -28.7590   20.8960 C   0  0  0  0  0  3  0  0  0  0  0  0
  -26.3070  -26.9660   19.6370 C   0  0  0  0  0  3  0  0  0  0  0  0
  -25.0990  -27.6950   19.5860 C   0  0  0  0  0  3  0  0  0  0  0  0
  -23.7540  -29.8010   20.1920 C   0  0  0  0  0  2  0  0  0  0  0  0
  -24.6930  -31.1040   22.1530 N   0  0  0  0  0  0  0  0  0  0  0  0
  -23.4640  -32.1640   23.7380 O   0  0  0  0  0  0  0  0  0  0  0  0
  -22.7900  -29.4520   22.4940 C   0  0  0  0  0  0  0  0  0  0  0  0
  -21.4660  -29.2790   22.3460 N   0  0  0  0  0  0  0  0  0  0  0  0
  -23.4540  -28.8120   23.3140 O   0  0  0  0  0  0  0  0  0  0  0  0
  -20.9900  -29.8440   21.6560 H   0  0  0  0  0  0  0  0  0  0  0  0
  -18.0670  -28.1400   22.8180 C   0  0  0  0  0  0  0  0  0  0  0  0
  -20.6310  -28.3370   23.0910 C   0  0  0  0  0  3  0  0  0  0  0  0
  -20.7010  -26.9230   22.4680 C   0  0  0  0  0  2  0  0  0  0  0  0
  -19.5910  -26.6560   21.4470 C   0  0  0  0  0  2  0  0  0  0  0  0
  -18.2130  -26.8100   22.0980 C   0  0  0  0  0  2  0  0  0  0  0  0
  -19.2030  -28.8660   23.2680 C   0  0  0  0  0  0  0  0  0  0  0  0
  -19.0080  -30.1130   23.8980 C   0  0  0  0  0  3  0  0  0  0  0  0
  -17.7150  -30.6380   24.0790 C   0  0  0  0  0  3  0  0  0  0  0  0
  -16.5950  -29.9100   23.6440 C   0  0  0  0  0  3  0  0  0  0  0  0
  -16.7730  -28.6610   23.0220 C   0  0  0  0  0  3  0  0  0  0  0  0
  -25.8190  -32.5690   23.9150 C   0  0  0  0  0  3  0  0  0  0  0  0
  -25.4750  -33.9630   24.2230 N   0  0  0  0  0  0  0  0  0  0  0  0
  -25.8170  -35.0160   23.4680 C   0  0  0  0  0  0  0  0  0  0  0  0
  -26.5270  -34.9160   22.4630 O   0  0  0  0  0  0  0  0  0  0  0  0
  -24.8520  -34.1120   25.0050 H   0  0  0  0  0  0  0  0  0  0  0  0
  -24.0740  -36.7720   23.0360 C   0  0  0  0  0  1  0  0  0  0  0  0
  -25.2910  -36.3980   23.8970 C   0  0  0  0  0  3  0  0  0  0  0  0
  -27.3750  -37.3260   24.8040 C   0  0  0  0  0  1  0  0  0  0  0  0
  -26.3080  -37.4680   23.8150 N   0  0  0  0  0  0  0  0  0  0  0  0
  -25.8810  -38.3810   23.9390 H   0  0  0  0  0  0  0  0  0  0  0  0
  -26.2980  -31.8140   25.2140 C   0  0  1  0  0  0  0  0  0  0  0  0
  -25.1660  -31.5460   26.2340 C   0  0  0  0  0  1  0  0  0  0  0  0
  -26.9350  -30.4530   24.8500 C   0  0  0  0  0  1  0  0  0  0  0  0
  -27.3970  -32.6410   25.9220 C   0  0  0  0  0  1  0  0  0  0  0  0
  -32.1510  -19.5210   18.9640 C   0  0  0  0  0  3  0  0  0  0  0  0
  -33.6260  -19.5460   19.4350 C   0  0  0  0  0  0  0  0  0  0  0  0
  -34.4950  -18.7550   18.8100 N   0  0  0  0  0  0  0  0  0  0  0  0
  -34.0080  -20.2870   20.3380 O   0  0  0  0  0  0  0  0  0  0  0  0
  -34.1990  -18.1710   18.0430 H   0  0  0  0  0  0  0  0  0  0  0  0
  -35.4700  -18.7410   19.0790 H   0  0  0  0  0  0  0  0  0  0  0  0
  -31.9480  -20.6150   17.8720 C   0  0  0  0  0  2  0  0  0  0  0  0
  -32.3010  -21.0960   15.5580 C   0  0  0  0  0  1  0  0  0  0  0  0
  -32.4360  -20.1500   16.6140 O   0  0  0  0  0  0  0  0  0  0  0  0
  -30.0030  -17.3100   19.6870 C   0  0  0  0  0  3  0  0  0  0  0  0
  -30.6270  -14.8510   20.3970 C   0  0  0  0  0  0  0  0  0  0  0  0
  -30.4500  -12.5730   19.4550 C   0  0  0  0  0  2  0  0  0  0  0  0
  -29.5310  -12.7190   18.2260 C   0  0  0  0  0  2  0  0  0  0  0  0
  -28.0430  -12.5680   18.6180 C   0  0  0  0  0  2  0  0  0  0  0  0
  -27.6650  -13.3580   19.9010 C   0  0  0  0  0  3  0  0  0  0  0  0
  -28.7320  -13.2420   21.0060 C   0  0  0  0  0  2  0  0  0  0  0  0
  -30.0250  -13.6120   20.4120 N   0  0  0  0  0  0  0  0  0  0  0  0
  -31.8230  -14.9730   20.1370 O   0  0  0  0  0  0  0  0  0  0  0  0
  -29.7960  -15.9450   20.3410 N   0  0  0  0  0  0  0  0  0  0  0  0
  -28.8440  -15.7720   20.6170 H   0  0  0  0  0  0  0  0  0  0  0  0
  -25.2430  -13.9000   20.5930 C   0  0  0  0  0  0  0  0  0  0  0  0
  -24.1910  -13.1030   20.9380 C   0  0  0  0  0  0  0  0  0  0  0  0
  -24.6820  -11.7630   20.9010 C   0  0  0  0  0  0  0  0  0  0  0  0
  -26.3150  -13.0450   20.3650 N   0  0  0  0  0  0  0  0  0  0  0  0
  -25.9780  -11.7510   20.6070 N   0  0  0  0  0  0  0  0  0  0  0  0
  -23.9770  -10.4900   21.0780 C   0  0  0  0  0  0  0  0  0  0  0  0
  -24.4020   -9.5350   22.0260 C   0  0  0  0  0  3  0  0  0  0  0  0
  -23.6950   -8.3240   22.1860 C   0  0  0  0  0  3  0  0  0  0  0  0
  -22.5470   -8.0590   21.4000 C   0  0  0  0  0  0  0  0  0  0  0  0
  -22.1450   -9.0070   20.4420 C   0  0  0  0  0  3  0  0  0  0  0  0
  -22.8510  -10.2080   20.2800 C   0  0  0  0  0  3  0  0  0  0  0  0
  -21.8080   -6.9020   21.4730 O   0  0  0  0  0  0  0  0  0  0  0  0
  -21.7200   -6.1760   22.6350 C   0  0  0  0  0  0  0  0  0  0  0  0
  -21.1930   -6.7270   23.8210 C   0  0  0  0  0  3  0  0  0  0  0  0
  -21.0570   -5.9210   24.9700 C   0  0  0  0  0  3  0  0  0  0  0  0
  -21.4390   -4.5670   24.9310 C   0  0  0  0  0  0  0  0  0  0  0  0
  -21.9530   -4.0150   23.7460 C   0  0  0  0  0  3  0  0  0  0  0  0
  -22.0910   -4.8150   22.5990 C   0  0  0  0  0  0  0  0  0  0  0  0
  -22.5710   -4.2720   21.4550 F   0  0  0  0  0  0  0  0  0  0  0  0
  -21.2970   -3.7910   26.0330 F   0  0  0  0  0  0  0  0  0  0  0  0
  -22.7810  -13.5560   21.1960 C   0  0  0  0  0  0  0  0  0  0  0  0
  -22.0500  -12.8360   22.0370 N   0  0  0  0  0  0  0  0  0  0  0  0
  -22.3330  -14.5790   20.6830 O   0  0  0  0  0  0  0  0  0  0  0  0
  -22.4250  -12.0150   22.4870 H   0  0  0  0  0  0  0  0  0  0  0  0
  -21.1040  -13.1240   22.2460 H   0  0  0  0  0  0  0  0  0  0  0  0
  -25.3640  -15.2780   20.4360 N   0  0  0  0  0  0  0  0  0  0  0  0
  -24.5730  -15.8890   20.6010 H   0  0  0  0  0  0  0  0  0  0  0  0
  -26.1820  -15.7720   20.1160 H   0  0  0  0  0  0  0  0  0  0  0  0
  -27.8160  -16.8080   18.3780 C   0  0  0  0  0  1  0  0  0  0  0  0
  -28.6310  -19.1130   18.2830 C   0  0  0  0  0  1  0  0  0  0  0  0
  -27.6810  -18.2870   20.4060 C   0  0  0  0  0  1  0  0  0  0  0  0
  -28.5740  -17.8660   19.2120 C   0  0  2  0  0  0  0  0  0  0  0  0
  1  3  2  0
  2  1  1  0
  2  4  1  0
  5  4  1  0
  5  6  1  0
  7  6  1  0
  7  8  1  0
  9 11  1  0
  9  8  1  0
 10 21  2  0
 11 16  1  0
 12 20  1  0
 12 22  1  0
 13 15  1  0
 14 20  1  0
 15 16  2  0
 15 14  1  0
 17 11  2  0
 18 17  1  0
 18 13  2  0
 19 13  1  0
 19 12  1  0
 20 10  1  0
 22 24  2  0
 23 22  1  0
 25 23  1  0
 26 35  2  0
 26 31  1  0
 27 23  1  0
 27 31  1  0
 28 27  1  0
 29 30  1  0
 29 28  1  0
 30 26  1  0
 31 32  2  0
 32 33  1  0
 34 33  2  0
 35 34  1  0
 36 10  1  0
 36 37  1  0
 36 46  1  0
 37 40  1  0
 38 42  1  0
 38 37  1  0
 39 38  2  0
 42 41  1  0
 44 42  1  0
 44 45  1  0
 44 43  1  0
 46 49  1  1
 46 47  1  0
 48 46  1  0
 50 56  1  0
 50 51  1  0
 50  2  1  0
 51 53  2  0
 52 55  1  0
 52 51  1  0
 54 52  1  0
 57 58  1  0
 58 56  1  0
 59 68  1  0
 59  1  1  0
 60 66  1  0
 61 66  1  0
 62 63  1  0
 62 61  1  0
 64 63  1  0
 64 73  1  0
 64 65  1  0
 66 65  1  0
 67 60  2  0
 68 60  1  0
 68 69  1  0
 70 71  2  0
 71 90  1  0
 72 71  1  0
 72 75  1  0
 73 70  1  0
 73 74  1  0
 74 72  2  0
 75 76  1  0
 76 77  2  0
 78 81  1  0
 78 77  1  0
 79 78  2  0
 80 79  1  0
 80 75  2  0
 81 82  1  0
 82 83  1  0
 83 84  2  0
 85 84  1  0
 85 89  1  0
 86 85  2  0
 87 82  2  0
 87 86  1  0
 88 87  1  0
 90 91  1  0
 91 94  1  0
 91 93  1  0
 92 90  2  0
 95 70  1  0
 95 96  1  0
 97 95  1  0
101 98  1  6
 99101  1  0
101 59  1  0
101100  1  0
M  ISO  4   8 101   9 101  60 100  68 100
M  END
>  <TORSDO>  (59) 
F 27

>  <SCORE>  (59) 
-11.759

>  <name>  (59) 
60

>  <ligand_id>  (59) 
60

>  <original_smiles>  (59) 
[H]c1c([H])c([H])c2c(c1[H])C([H])([H])C([H])([H])C([H])([H])C2([H])N([H])C(=O)C1([H])N(C(=O)C([H])(N([H])C(=O)C([H])(N([H])C([H])([H])[H])C([H])([H])[H])C(C([H])([H])[H])(C([H])([H])[H])C([H])([H])[H])C([H])([H])c2c([H])c(OC([H])([H])C([H])([H])OC([H])([H])C([H])([H])N(C(=O)C([H])(N([H])C(=O)N3C([H])([H])C([H])([H])C([H])([H])C([H])(n4nc(-c5c([H])c([H])c(Oc6c([H])c([H])c(F)c([H])c6F)c([H])c5[H])c(C(=O)N([H])[H])c4N([H])[H])C3([H])[H])C(C([H])([H])[H])(C([H])([H])[H])C([H])([H])[H])C([H])(C(=O)N([H])[H])C([H])([H])OC([H])([H])[H])c([H])c([H])c2C1([H])[H]

>  <smiles>  (59) 
[H]c1c([H])c([H])c2c(c1[H])C([H])([H])C([H])([H])C([H])([H])C2([H])N([H])C(=O)C1([H])N(C(=O)C([H])(N([H])C(=O)C([H])(N([H])C([H])([H])[H])C([H])([H])[H])C(C([H])([H])[H])(C([H])([H])[H])C([H])([H])[H])C([H])([H])c2c([H])c(OC([H])([H])C([H])([H])OC([H])([H])C([H])([H])N(C(=O)C([H])(N([H])C(=O)N3C([H])([H])C([H])([H])C([H])([H])C([H])(n4nc(-c5c([H])c([H])c(Oc6c([H])c([H])c(F)c([H])c6F)c([H])c5[H])c(C(=O)N([H])[H])c4N([H])[H])C3([H])[H])C(C([H])([H])[H])(C([H])([H])[H])C([H])([H])[H])C([H])(C(=O)N([H])[H])C([H])([H])OC([H])([H])[H])c([H])c([H])c2C1([H])[H]

$$$$
61:0:0
     RDKit          3D

 95102  0  0  1  0  0  0  0  0999 V2000
  -31.7260  -19.9990   17.8500 C   0  0  0  0  0  2  0  0  0  0  0  0
  -32.6360  -18.8820   18.3810 C   0  0  0  0  0  2  0  0  0  0  0  0
  -31.2290  -17.2680   19.6530 C   0  0  0  0  0  0  0  0  0  0  0  0
  -32.1450  -18.2470   19.6030 N   0  0  0  0  0  0  0  0  0  0  0  0
  -30.5200  -16.9760   18.6830 O   0  0  0  0  0  0  0  0  0  0  0  0
  -32.6530  -18.4590   20.4520 H   0  0  0  0  0  0  0  0  0  0  0  0
  -31.1590  -16.4460   20.9650 C   0  0  0  0  0  3  0  0  0  0  0  0
  -31.1860  -14.1180   20.0360 C   0  0  0  0  0  0  0  0  0  0  0  0
  -30.6610  -12.1090   18.7100 C   0  0  0  0  0  2  0  0  0  0  0  0
  -29.6770  -12.4690   17.5830 C   0  0  0  0  0  2  0  0  0  0  0  0
  -28.2200  -12.4150   18.0850 C   0  0  0  0  0  2  0  0  0  0  0  0
  -28.0130  -13.1660   19.4290 C   0  0  0  0  0  3  0  0  0  0  0  0
  -29.0980  -12.7630   20.4500 C   0  0  0  0  0  2  0  0  0  0  0  0
  -30.4110  -13.0220   19.8330 N   0  0  0  0  0  0  0  0  0  0  0  0
  -32.2900  -14.2690   19.5050 O   0  0  0  0  0  0  0  0  0  0  0  0
  -30.6320  -15.0900   20.7730 N   0  0  0  0  0  0  0  0  0  0  0  0
  -29.6790  -14.9740   21.0810 H   0  0  0  0  0  0  0  0  0  0  0  0
  -25.6690  -13.8840   20.2150 C   0  0  0  0  0  0  0  0  0  0  0  0
  -24.5780  -13.1630   20.6190 C   0  0  0  0  0  0  0  0  0  0  0  0
  -24.9780  -11.7910   20.5870 C   0  0  0  0  0  0  0  0  0  0  0  0
  -26.6660  -12.9540   19.9570 N   0  0  0  0  0  0  0  0  0  0  0  0
  -26.2540  -11.6900   20.2350 N   0  0  0  0  0  0  0  0  0  0  0  0
  -24.2060  -10.5660   20.8250 C   0  0  0  0  0  0  0  0  0  0  0  0
  -24.6080   -9.6110   21.7850 C   0  0  0  0  0  3  0  0  0  0  0  0
  -23.8410   -8.4480   22.0020 C   0  0  0  0  0  3  0  0  0  0  0  0
  -22.6560   -8.2290   21.2600 C   0  0  0  0  0  0  0  0  0  0  0  0
  -22.2720   -9.1710   20.2900 C   0  0  0  0  0  3  0  0  0  0  0  0
  -23.0400  -10.3280   20.0710 C   0  0  0  0  0  3  0  0  0  0  0  0
  -21.8640   -7.1130   21.3800 O   0  0  0  0  0  0  0  0  0  0  0  0
  -21.7580   -6.4330   22.5670 C   0  0  0  0  0  0  0  0  0  0  0  0
  -21.3280   -7.0670   23.7520 C   0  0  0  0  0  3  0  0  0  0  0  0
  -21.1650   -6.3150   24.9320 C   0  0  0  0  0  3  0  0  0  0  0  0
  -21.4240   -4.9320   24.9290 C   0  0  0  0  0  0  0  0  0  0  0  0
  -21.8470   -4.2970   23.7470 C   0  0  0  0  0  3  0  0  0  0  0  0
  -22.0110   -5.0470   22.5680 C   0  0  0  0  0  0  0  0  0  0  0  0
  -22.4000   -4.4280   21.4280 F   0  0  0  0  0  0  0  0  0  0  0  0
  -21.2610   -4.2070   26.0610 F   0  0  0  0  0  0  0  0  0  0  0  0
  -23.2150  -13.7040   20.9350 C   0  0  0  0  0  0  0  0  0  0  0  0
  -22.4970  -13.0560   21.8450 N   0  0  0  0  0  0  0  0  0  0  0  0
  -22.7990  -14.7380   20.4130 O   0  0  0  0  0  0  0  0  0  0  0  0
  -22.8510  -12.2210   22.2850 H   0  0  0  0  0  0  0  0  0  0  0  0
  -21.5820  -13.3990   22.1030 H   0  0  0  0  0  0  0  0  0  0  0  0
  -25.8990  -15.2420   20.0340 N   0  0  0  0  0  0  0  0  0  0  0  0
  -25.1950  -15.9440   20.2310 H   0  0  0  0  0  0  0  0  0  0  0  0
  -26.8110  -15.6420   19.8430 H   0  0  0  0  0  0  0  0  0  0  0  0
  -30.3430  -17.1110   22.0960 C   0  0  0  0  0  2  0  0  0  0  0  0
  -28.9380  -16.9720   21.9160 O   0  0  0  0  0  0  0  0  0  0  0  0
  -28.5160  -17.2200   22.7350 H   0  0  0  0  0  0  0  0  0  0  0  0
  -31.8170  -21.1560   18.6750 O   0  0  0  0  0  0  0  0  0  0  0  0
  -30.9750  -22.2040   18.2000 C   0  0  0  0  0  2  0  0  0  0  0  0
  -31.2440  -23.5260   18.9380 C   0  0  0  0  0  2  0  0  0  0  0  0
  -30.1120  -24.3780   18.7910 O   0  0  0  0  0  0  0  0  0  0  0  0
  -30.3860  -25.7530   19.0430 C   0  0  0  0  0  2  0  0  0  0  0  0
  -29.0830  -26.5660   18.9500 C   0  0  0  0  0  2  0  0  0  0  0  0
  -28.4970  -26.7010   20.2430 O   0  0  0  0  0  0  0  0  0  0  0  0
  -24.5960  -31.8450   23.2450 C   0  0  0  0  0  0  0  0  0  0  0  0
  -27.3160  -27.4000   20.2500 C   0  0  0  0  0  0  0  0  0  0  0  0
  -23.4190  -30.4140   21.6020 C   0  0  0  0  0  3  0  0  0  0  0  0
  -24.9020  -28.8590   20.2290 C   0  0  0  0  0  0  0  0  0  0  0  0
  -25.9420  -30.7830   21.4390 C   0  0  0  0  0  2  0  0  0  0  0  0
  -26.0440  -29.4020   20.8290 C   0  0  0  0  0  0  0  0  0  0  0  0
  -27.2530  -28.6720   20.8520 C   0  0  0  0  0  3  0  0  0  0  0  0
  -26.1570  -26.8510   19.6650 C   0  0  0  0  0  3  0  0  0  0  0  0
  -24.9490  -27.5750   19.6520 C   0  0  0  0  0  3  0  0  0  0  0  0
  -23.6530  -29.7100   20.2380 C   0  0  0  0  0  2  0  0  0  0  0  0
  -24.6690  -31.0290   22.1540 N   0  0  0  0  0  0  0  0  0  0  0  0
  -23.5070  -32.1210   23.7630 O   0  0  0  0  0  0  0  0  0  0  0  0
  -22.7550  -29.4080   22.5670 C   0  0  0  0  0  0  0  0  0  0  0  0
  -21.4380  -29.2040   22.4050 N   0  0  0  0  0  0  0  0  0  0  0  0
  -23.4230  -28.8100   23.4160 O   0  0  0  0  0  0  0  0  0  0  0  0
  -20.9620  -29.7370   21.6890 H   0  0  0  0  0  0  0  0  0  0  0  0
  -18.0730  -27.9610   22.8060 C   0  0  0  0  0  0  0  0  0  0  0  0
  -20.6100  -28.2740   23.1710 C   0  0  0  0  0  3  0  0  0  0  0  0
  -20.7650  -26.8300   22.6420 C   0  0  0  0  0  2  0  0  0  0  0  0
  -19.7100  -26.4570   21.5940 C   0  0  0  0  0  2  0  0  0  0  0  0
  -18.3000  -26.5950   22.1790 C   0  0  0  0  0  2  0  0  0  0  0  0
  -19.1580  -28.7550   23.2570 C   0  0  0  0  0  0  0  0  0  0  0  0
  -18.8950  -30.0310   23.7980 C   0  0  0  0  0  3  0  0  0  0  0  0
  -17.5770  -30.5140   23.8950 C   0  0  0  0  0  3  0  0  0  0  0  0
  -16.5030  -29.7150   23.4640 C   0  0  0  0  0  3  0  0  0  0  0  0
  -16.7520  -28.4400   22.9250 C   0  0  0  0  0  3  0  0  0  0  0  0
  -25.8720  -32.4840   23.8770 C   0  0  0  0  0  3  0  0  0  0  0  0
  -26.3800  -31.7230   25.1610 C   0  0  1  0  0  0  0  0  0  0  0  0
  -25.2780  -31.4830   26.2200 C   0  0  0  0  0  1  0  0  0  0  0  0
  -26.9750  -30.3470   24.7790 C   0  0  0  0  0  1  0  0  0  0  0  0
  -27.5190  -32.5270   25.8310 C   0  0  0  0  0  1  0  0  0  0  0  0
  -25.5570  -33.8840   24.1900 N   0  0  0  0  0  0  0  0  0  0  0  0
  -25.8970  -34.9300   23.4270 C   0  0  0  0  0  0  0  0  0  0  0  0
  -26.5830  -34.8200   22.4060 O   0  0  0  0  0  0  0  0  0  0  0  0
  -24.9510  -34.0450   24.9820 H   0  0  0  0  0  0  0  0  0  0  0  0
  -24.1660  -36.7090   23.0290 C   0  0  0  0  0  1  0  0  0  0  0  0
  -25.3980  -36.3200   23.8630 C   0  0  0  0  0  3  0  0  0  0  0  0
  -27.5160  -37.2210   24.7160 C   0  0  0  0  0  1  0  0  0  0  0  0
  -26.4280  -37.3770   23.7560 N   0  0  0  0  0  0  0  0  0  0  0  0
  -26.0140  -38.2970   23.8890 H   0  0  0  0  0  0  0  0  0  0  0  0
  1  2  1  0
  1 49  1  0
  2  4  1  0
  3  7  1  0
  4  3  1  0
  4  6  1  0
  5  3  2  0
  7 46  1  0
  8 16  1  0
  9 14  1  0
 10 11  1  0
 10  9  1  0
 12 11  1  0
 12 21  1  0
 12 13  1  0
 14  8  1  0
 14 13  1  0
 15  8  2  0
 16  7  1  0
 16 17  1  0
 18 19  2  0
 19 38  1  0
 20 19  1  0
 20 23  1  0
 21 18  1  0
 21 22  1  0
 22 20  2  0
 23 24  1  0
 24 25  2  0
 26 29  1  0
 26 25  1  0
 27 26  2  0
 28 27  1  0
 28 23  2  0
 29 30  1  0
 30 35  2  0
 30 31  1  0
 31 32  2  0
 33 32  1  0
 33 37  1  0
 34 33  2  0
 35 34  1  0
 36 35  1  0
 38 39  1  0
 39 42  1  0
 39 41  1  0
 40 38  2  0
 43 18  1  0
 43 44  1  0
 45 43  1  0
 47 46  1  0
 47 48  1  0
 50 49  1  0
 50 51  1  0
 52 51  1  0
 52 53  1  0
 54 53  1  0
 54 55  1  0
 55 57  1  0
 56 67  2  0
 57 62  1  0
 58 66  1  0
 58 68  1  0
 59 65  1  0
 59 61  1  0
 60 66  1  0
 61 62  2  0
 61 60  1  0
 63 57  2  0
 64 63  1  0
 64 59  2  0
 65 58  1  0
 66 56  1  0
 68 70  2  0
 69 68  1  0
 71 69  1  0
 72 81  2  0
 72 77  1  0
 73 69  1  0
 73 77  1  0
 74 73  1  0
 75 76  1  0
 75 74  1  0
 76 72  1  0
 77 78  2  0
 78 79  1  0
 80 79  2  0
 81 80  1  0
 82 56  1  0
 82 87  1  0
 82 83  1  0
 83 86  1  1
 83 84  1  0
 85 83  1  0
 87 90  1  0
 88 92  1  0
 88 87  1  0
 89 88  2  0
 92 91  1  0
 94 92  1  0
 94 95  1  0
 94 93  1  0
M  ISO  4   8 100  16 100  54 101  55 101
M  END
>  <TORSDO>  (60) 
F 27

>  <SCORE>  (60) 
-11.259

>  <name>  (60) 
61

>  <ligand_id>  (60) 
61

>  <original_smiles>  (60) 
[H]OC([H])([H])C([H])(C(=O)N([H])C([H])([H])C([H])([H])OC([H])([H])C([H])([H])OC([H])([H])C([H])([H])Oc1c([H])c([H])c2c(c1[H])C([H])([H])N(C(=O)C([H])(N([H])C(=O)C([H])(N([H])C([H])([H])[H])C([H])([H])[H])C(C([H])([H])[H])(C([H])([H])[H])C([H])([H])[H])C([H])(C(=O)N([H])C1([H])c3c([H])c([H])c([H])c([H])c3C([H])([H])C([H])([H])C1([H])[H])C2([H])[H])N([H])C(=O)N1C([H])([H])C([H])([H])C([H])([H])C([H])(n2nc(-c3c([H])c([H])c(Oc4c([H])c([H])c(F)c([H])c4F)c([H])c3[H])c(C(=O)N([H])[H])c2N([H])[H])C1([H])[H]

>  <smiles>  (60) 
[H]OC([H])([H])C([H])(C(=O)N([H])C([H])([H])C([H])([H])OC([H])([H])C([H])([H])OC([H])([H])C([H])([H])Oc1c([H])c([H])c2c(c1[H])C([H])([H])N(C(=O)C([H])(N([H])C(=O)C([H])(N([H])C([H])([H])[H])C([H])([H])[H])C(C([H])([H])[H])(C([H])([H])[H])C([H])([H])[H])C([H])(C(=O)N([H])C1([H])c3c([H])c([H])c([H])c([H])c3C([H])([H])C([H])([H])C1([H])[H])C2([H])[H])N([H])C(=O)N1C([H])([H])C([H])([H])C([H])([H])C([H])(n2nc(-c3c([H])c([H])c(Oc4c([H])c([H])c(F)c([H])c4F)c([H])c3[H])c(C(=O)N([H])[H])c2N([H])[H])C1([H])[H]

$$$$
62:0:0
     RDKit          3D

 98105  0  0  1  0  0  0  0  0999 V2000
  -24.6120  -22.6020   21.7670 C   0  0  0  0  0  2  0  0  0  0  0  0
  -25.9490  -22.6710   21.1380 N   0  0  0  0  0  4  0  0  0  0  0  0
  -26.2320  -23.6430   21.1430 H   0  0  0  0  0  0  0  0  0  0  0  0
  -26.6150  -22.1610   21.7020 H   0  0  0  0  0  0  0  0  0  0  0  0
  -26.0120  -22.1420   19.7590 C   0  0  0  0  0  2  0  0  0  0  0  0
  -27.4620  -21.8720   19.3450 C   0  0  0  0  0  2  0  0  0  0  0  0
  -27.9230  -20.7860   20.1380 O   0  0  0  0  0  0  0  0  0  0  0  0
  -29.2480  -20.3910   19.8150 C   0  0  0  0  0  2  0  0  0  0  0  0
  -29.6320  -19.2140   20.7200 C   0  0  0  0  0  2  0  0  0  0  0  0
  -31.1220  -18.8550   20.6130 C   0  0  0  0  0  2  0  0  0  0  0  0
  -31.5660  -17.7520   21.5930 C   0  0  0  0  0  2  0  0  0  0  0  0
  -31.4380  -15.5870   20.3680 C   0  0  0  0  0  0  0  0  0  0  0  0
  -31.2350  -13.3090   19.4460 C   0  0  0  0  0  2  0  0  0  0  0  0
  -30.3690  -13.2790   18.1750 C   0  0  0  0  0  2  0  0  0  0  0  0
  -28.8810  -13.1300   18.5360 C   0  0  0  0  0  2  0  0  0  0  0  0
  -28.4270  -14.1500   19.6110 C   0  0  0  0  0  3  0  0  0  0  0  0
  -29.4050  -14.1630   20.8080 C   0  0  0  0  0  2  0  0  0  0  0  0
  -30.7690  -14.4090   20.3030 N   0  0  0  0  0  0  0  0  0  0  0  0
  -32.4490  -15.8340   19.7040 O   0  0  0  0  0  0  0  0  0  0  0  0
  -30.9730  -16.4540   21.2760 N   0  0  0  0  0  0  0  0  0  0  0  0
  -30.1780  -16.1580   21.8220 H   0  0  0  0  0  0  0  0  0  0  0  0
  -26.0030  -14.7810   20.2170 C   0  0  0  0  0  0  0  0  0  0  0  0
  -24.9180  -14.0200   20.5590 C   0  0  0  0  0  0  0  0  0  0  0  0
  -25.3740  -12.6660   20.5670 C   0  0  0  0  0  0  0  0  0  0  0  0
  -27.0530  -13.8930   20.0410 N   0  0  0  0  0  0  0  0  0  0  0  0
  -26.6740  -12.6160   20.3060 N   0  0  0  0  0  0  0  0  0  0  0  0
  -24.6360  -11.4080   20.7510 C   0  0  0  0  0  0  0  0  0  0  0  0
  -24.9700  -10.5000   21.7810 C   0  0  0  0  0  3  0  0  0  0  0  0
  -24.2350   -9.3080   21.9490 C   0  0  0  0  0  3  0  0  0  0  0  0
  -23.1510   -9.0140   21.0880 C   0  0  0  0  0  0  0  0  0  0  0  0
  -22.8370   -9.9110   20.0520 C   0  0  0  0  0  3  0  0  0  0  0  0
  -23.5720  -11.0950   19.8820 C   0  0  0  0  0  3  0  0  0  0  0  0
  -22.3960   -7.8690   21.1610 O   0  0  0  0  0  0  0  0  0  0  0  0
  -22.1450   -7.2470   22.3580 C   0  0  0  0  0  0  0  0  0  0  0  0
  -21.5050   -7.9140   23.4250 C   0  0  0  0  0  3  0  0  0  0  0  0
  -21.2040   -7.2170   24.6110 C   0  0  0  0  0  3  0  0  0  0  0  0
  -21.5330   -5.8540   24.7320 C   0  0  0  0  0  0  0  0  0  0  0  0
  -22.1650   -5.1860   23.6680 C   0  0  0  0  0  3  0  0  0  0  0  0
  -22.4680   -5.8810   22.4830 C   0  0  0  0  0  0  0  0  0  0  0  0
  -23.0580   -5.2270   21.4540 F   0  0  0  0  0  0  0  0  0  0  0  0
  -21.2370   -5.1810   25.8680 F   0  0  0  0  0  0  0  0  0  0  0  0
  -23.5140  -14.5050   20.7750 C   0  0  0  0  0  0  0  0  0  0  0  0
  -22.7590  -13.8350   21.6390 N   0  0  0  0  0  0  0  0  0  0  0  0
  -23.0930  -15.5150   20.2110 O   0  0  0  0  0  0  0  0  0  0  0  0
  -23.1090  -13.0180   22.1170 H   0  0  0  0  0  0  0  0  0  0  0  0
  -21.8160  -14.1450   21.8270 H   0  0  0  0  0  0  0  0  0  0  0  0
  -26.1810  -16.1480   20.0230 N   0  0  0  0  0  0  0  0  0  0  0  0
  -25.4160  -16.8110   20.0950 H   0  0  0  0  0  0  0  0  0  0  0  0
  -27.0520  -16.5780   19.7400 H   0  0  0  0  0  0  0  0  0  0  0  0
  -24.4550  -23.7230   22.7970 C   0  0  0  0  0  2  0  0  0  0  0  0
  -24.8940  -24.9150   22.1570 O   0  0  0  0  0  0  0  0  0  0  0  0
  -24.9880  -26.0180   23.0460 C   0  0  0  0  0  2  0  0  0  0  0  0
  -25.9770  -27.0330   22.4640 C   0  0  0  0  0  2  0  0  0  0  0  0
  -27.2120  -26.3660   22.2460 O   0  0  0  0  0  0  0  0  0  0  0  0
  -28.2820  -27.2520   21.9570 C   0  0  0  0  0  2  0  0  0  0  0  0
  -29.3140  -26.4860   21.1180 C   0  0  0  0  0  2  0  0  0  0  0  0
  -28.7890  -26.0450   19.7400 C   0  0  0  0  0  2  0  0  0  0  0  0
  -28.4560  -27.1940   18.9690 O   0  0  0  0  0  0  0  0  0  0  0  0
  -24.5740  -31.6160   22.9590 C   0  0  0  0  0  0  0  0  0  0  0  0
  -27.2300  -27.7630   19.2020 C   0  0  0  0  0  0  0  0  0  0  0  0
  -23.3250  -30.3260   21.2570 C   0  0  0  0  0  3  0  0  0  0  0  0
  -24.7490  -29.0470   19.5730 C   0  0  0  0  0  0  0  0  0  0  0  0
  -25.7940  -30.8850   20.9130 C   0  0  0  0  0  2  0  0  0  0  0  0
  -25.9110  -29.6010   20.1200 C   0  0  0  0  0  0  0  0  0  0  0  0
  -27.1570  -28.9710   19.9240 C   0  0  0  0  0  3  0  0  0  0  0  0
  -26.0520  -27.1980   18.6700 C   0  0  0  0  0  3  0  0  0  0  0  0
  -24.8090  -27.8410   18.8490 C   0  0  0  0  0  3  0  0  0  0  0  0
  -23.4620  -29.8080   19.8000 C   0  0  0  0  0  2  0  0  0  0  0  0
  -24.5870  -30.9500   21.7690 N   0  0  0  0  0  0  0  0  0  0  0  0
  -23.5270  -31.7570   23.6050 O   0  0  0  0  0  0  0  0  0  0  0  0
  -22.8110  -29.1660   22.1370 C   0  0  0  0  0  0  0  0  0  0  0  0
  -21.5080  -28.8630   22.0220 N   0  0  0  0  0  0  0  0  0  0  0  0
  -23.5790  -28.5430   22.8760 O   0  0  0  0  0  0  0  0  0  0  0  0
  -20.9450  -29.4260   21.3980 H   0  0  0  0  0  0  0  0  0  0  0  0
  -18.2980  -27.2570   22.4220 C   0  0  0  0  0  0  0  0  0  0  0  0
  -20.8100  -27.7860   22.7190 C   0  0  0  0  0  3  0  0  0  0  0  0
  -21.0730  -26.4210   22.0420 C   0  0  0  0  0  2  0  0  0  0  0  0
  -20.0110  -26.0480   21.0040 C   0  0  0  0  0  2  0  0  0  0  0  0
  -18.6250  -25.9880   21.6520 C   0  0  0  0  0  2  0  0  0  0  0  0
  -19.3240  -28.1100   22.9080 C   0  0  0  0  0  0  0  0  0  0  0  0
  -18.9680  -29.2960   23.5850 C   0  0  0  0  0  3  0  0  0  0  0  0
  -17.6170  -29.6350   23.7810 C   0  0  0  0  0  3  0  0  0  0  0  0
  -16.6040  -28.7800   23.3120 C   0  0  0  0  0  3  0  0  0  0  0  0
  -16.9450  -27.5920   22.6410 C   0  0  0  0  0  3  0  0  0  0  0  0
  -25.8690  -32.2540   23.5550 C   0  0  0  0  0  3  0  0  0  0  0  0
  -25.5330  -33.6170   23.9850 N   0  0  0  0  0  0  0  0  0  0  0  0
  -25.8540  -34.7290   23.3110 C   0  0  0  0  0  0  0  0  0  0  0  0
  -26.5360  -34.7150   22.2810 O   0  0  0  0  0  0  0  0  0  0  0  0
  -24.9210  -33.7010   24.7830 H   0  0  0  0  0  0  0  0  0  0  0  0
  -24.1080  -36.5230   23.0510 C   0  0  0  0  0  1  0  0  0  0  0  0
  -25.3330  -36.0700   23.8630 C   0  0  0  0  0  3  0  0  0  0  0  0
  -27.4370  -36.9030   24.8150 C   0  0  0  0  0  1  0  0  0  0  0  0
  -26.3530  -37.1410   23.8670 N   0  0  0  0  0  0  0  0  0  0  0  0
  -25.9300  -38.0370   24.0940 H   0  0  0  0  0  0  0  0  0  0  0  0
  -26.4760  -31.4230   24.7500 C   0  0  1  0  0  0  0  0  0  0  0  0
  -25.4490  -31.0770   25.8530 C   0  0  0  0  0  1  0  0  0  0  0  0
  -27.0840  -30.0960   24.2340 C   0  0  0  0  0  1  0  0  0  0  0  0
  -27.6310  -32.2170   25.4080 C   0  0  0  0  0  1  0  0  0  0  0  0
  1 50  1  0
  2  3  1  0
  2  4  1  0
  2  1  1  0
  5  2  1  0
  6  5  1  0
  6  7  1  0
  8  7  1  0
  8  9  1  0
 10  9  1  0
 10 11  1  0
 12 20  1  0
 13 18  1  0
 14 15  1  0
 14 13  1  0
 16 15  1  0
 16 25  1  0
 16 17  1  0
 18 12  1  0
 18 17  1  0
 19 12  2  0
 20 11  1  0
 20 21  1  0
 22 23  2  0
 23 24  1  0
 23 42  1  0
 24 27  1  0
 25 22  1  0
 25 26  1  0
 26 24  2  0
 27 28  1  0
 28 29  2  0
 30 33  1  0
 30 29  1  0
 31 30  2  0
 32 31  1  0
 32 27  2  0
 33 34  1  0
 34 39  2  0
 34 35  1  0
 35 36  2  0
 36 37  1  0
 37 41  1  0
 38 37  2  0
 39 38  1  0
 40 39  1  0
 42 43  1  0
 43 46  1  0
 43 45  1  0
 44 42  2  0
 47 48  1  0
 47 22  1  0
 49 47  1  0
 51 50  1  0
 51 52  1  0
 53 52  1  0
 54 53  1  0
 55 54  1  0
 56 55  1  0
 57 56  1  0
 58 60  1  0
 58 57  1  0
 59 70  2  0
 60 65  1  0
 61 69  1  0
 61 71  1  0
 62 68  1  0
 62 64  1  0
 63 69  1  0
 64 63  1  0
 65 64  2  0
 66 67  1  0
 66 60  2  0
 67 62  2  0
 68 61  1  0
 69 59  1  0
 71 73  2  0
 72 71  1  0
 74 72  1  0
 75 84  2  0
 75 80  1  0
 76 72  1  0
 76 80  1  0
 77 76  1  0
 78 79  1  0
 78 77  1  0
 79 75  1  0
 80 81  2  0
 81 82  1  0
 83 82  2  0
 84 83  1  0
 85 59  1  0
 85 86  1  0
 85 95  1  0
 86 89  1  0
 87 91  1  0
 87 86  1  0
 88 87  2  0
 91 90  1  0
 91 93  1  0
 93 94  1  0
 93 92  1  0
 95 98  1  1
 95 96  1  0
 97 95  1  0
M  ISO  4  12 100  20 100  57 101  58 101
M  END
>  <TORSDO>  (61) 
F 32

>  <SCORE>  (61) 
-6.632

>  <name>  (61) 
62

>  <ligand_id>  (61) 
62

>  <original_smiles>  (61) 
[H]c1c([H])c([H])c2c(c1[H])C([H])([H])C([H])([H])C([H])([H])C2([H])N([H])C(=O)C1([H])N(C(=O)C([H])(N([H])C(=O)C([H])(N([H])C([H])([H])[H])C([H])([H])[H])C(C([H])([H])[H])(C([H])([H])[H])C([H])([H])[H])C([H])([H])c2c([H])c(OC([H])([H])C([H])([H])C([H])([H])OC([H])([H])C([H])([H])OC([H])([H])C([H])([H])[N+]([H])([H])C([H])([H])C([H])([H])OC([H])([H])C([H])([H])C([H])([H])C([H])([H])N([H])C(=O)N3C([H])([H])C([H])([H])C([H])([H])C([H])(n4nc(-c5c([H])c([H])c(Oc6c([H])c([H])c(F)c([H])c6F)c([H])c5[H])c(C(=O)N([H])[H])c4N([H])[H])C3([H])[H])c([H])c([H])c2C1([H])[H]

>  <smiles>  (61) 
[H]c1c([H])c([H])c2c(c1[H])C([H])([H])C([H])([H])C([H])([H])C2([H])N([H])C(=O)C1([H])N(C(=O)C([H])(N([H])C(=O)C([H])(N([H])C([H])([H])[H])C([H])([H])[H])C(C([H])([H])[H])(C([H])([H])[H])C([H])([H])[H])C([H])([H])c2c([H])c(OC([H])([H])C([H])([H])C([H])([H])OC([H])([H])C([H])([H])OC([H])([H])C([H])([H])[N+]([H])([H])C([H])([H])C([H])([H])OC([H])([H])C([H])([H])C([H])([H])C([H])([H])N([H])C(=O)N3C([H])([H])C([H])([H])C([H])([H])C([H])(n4nc(-c5c([H])c([H])c(Oc6c([H])c([H])c(F)c([H])c6F)c([H])c5[H])c(C(=O)N([H])[H])c4N([H])[H])C3([H])[H])c([H])c([H])c2C1([H])[H]

$$$$
63:0:0
     RDKit          3D

 97104  0  0  1  0  0  0  0  0999 V2000
  -29.6400  -21.4630   15.0320 C   0  0  0  0  0  2  0  0  0  0  0  0
  -29.0280  -23.2830   16.6160 C   0  0  0  0  0  0  0  0  0  0  0  0
  -29.1100  -21.9900   16.2860 N   0  0  0  0  0  0  0  0  0  0  0  0
  -29.2470  -24.1950   15.8170 O   0  0  0  0  0  0  0  0  0  0  0  0
  -28.8990  -21.3130   17.0070 H   0  0  0  0  0  0  0  0  0  0  0  0
  -28.6620  -23.5790   18.0710 C   0  0  0  0  0  2  0  0  0  0  0  0
  -28.8210  -25.0610   18.4620 C   0  0  0  0  0  2  0  0  0  0  0  0
  -28.6110  -25.2850   19.9660 C   0  0  0  0  0  2  0  0  0  0  0  0
  -28.5720  -26.6750   20.2800 O   0  0  0  0  0  0  0  0  0  0  0  0
  -24.5930  -31.7510   23.2350 C   0  0  0  0  0  0  0  0  0  0  0  0
  -27.3630  -27.3380   20.2350 C   0  0  0  0  0  0  0  0  0  0  0  0
  -23.4420  -30.3300   21.5700 C   0  0  0  0  0  3  0  0  0  0  0  0
  -24.9440  -28.8020   20.1900 C   0  0  0  0  0  0  0  0  0  0  0  0
  -25.9660  -30.7170   21.4320 C   0  0  0  0  0  2  0  0  0  0  0  0
  -26.0800  -29.3450   20.8010 C   0  0  0  0  0  0  0  0  0  0  0  0
  -27.2900  -28.6190   20.8200 C   0  0  0  0  0  3  0  0  0  0  0  0
  -26.2020  -26.8010   19.6260 C   0  0  0  0  0  3  0  0  0  0  0  0
  -24.9980  -27.5280   19.6030 C   0  0  0  0  0  3  0  0  0  0  0  0
  -23.6910  -29.6460   20.1980 C   0  0  0  0  0  2  0  0  0  0  0  0
  -24.6840  -30.9470   22.1380 N   0  0  0  0  0  0  0  0  0  0  0  0
  -23.4970  -32.0150   23.7460 O   0  0  0  0  0  0  0  0  0  0  0  0
  -22.7780  -29.3050   22.5170 C   0  0  0  0  0  0  0  0  0  0  0  0
  -21.4600  -29.1060   22.3530 N   0  0  0  0  0  0  0  0  0  0  0  0
  -23.4470  -28.6910   23.3530 O   0  0  0  0  0  0  0  0  0  0  0  0
  -20.9830  -29.6550   21.6510 H   0  0  0  0  0  0  0  0  0  0  0  0
  -18.0880  -27.8770   22.7530 C   0  0  0  0  0  0  0  0  0  0  0  0
  -20.6320  -28.1640   23.1050 C   0  0  0  0  0  3  0  0  0  0  0  0
  -20.7690  -26.7310   22.5420 C   0  0  0  0  0  2  0  0  0  0  0  0
  -19.7030  -26.3880   21.4960 C   0  0  0  0  0  2  0  0  0  0  0  0
  -18.3000  -26.5240   22.0960 C   0  0  0  0  0  2  0  0  0  0  0  0
  -19.1830  -28.6540   23.2130 C   0  0  0  0  0  0  0  0  0  0  0  0
  -18.9340  -29.9210   23.7840 C   0  0  0  0  0  3  0  0  0  0  0  0
  -17.6200  -30.4100   23.9040 C   0  0  0  0  0  3  0  0  0  0  0  0
  -16.5370  -29.6290   23.4630 C   0  0  0  0  0  3  0  0  0  0  0  0
  -16.7720  -28.3650   22.8940 C   0  0  0  0  0  3  0  0  0  0  0  0
  -25.8580  -32.3950   23.8830 C   0  0  0  0  0  3  0  0  0  0  0  0
  -25.5320  -33.7930   24.1920 N   0  0  0  0  0  0  0  0  0  0  0  0
  -25.8790  -34.8400   23.4320 C   0  0  0  0  0  0  0  0  0  0  0  0
  -26.5780  -34.7310   22.4210 O   0  0  0  0  0  0  0  0  0  0  0  0
  -24.9140  -33.9520   24.9760 H   0  0  0  0  0  0  0  0  0  0  0  0
  -24.1480  -36.6150   23.0090 C   0  0  0  0  0  1  0  0  0  0  0  0
  -25.3680  -36.2290   23.8600 C   0  0  0  0  0  3  0  0  0  0  0  0
  -27.4710  -37.1370   24.7430 C   0  0  0  0  0  1  0  0  0  0  0  0
  -26.3960  -37.2870   23.7660 N   0  0  0  0  0  0  0  0  0  0  0  0
  -25.9800  -38.2070   23.8930 H   0  0  0  0  0  0  0  0  0  0  0  0
  -26.3490  -31.6360   25.1770 C   0  0  1  0  0  0  0  0  0  0  0  0
  -25.2320  -31.3970   26.2190 C   0  0  0  0  0  1  0  0  0  0  0  0
  -26.9520  -30.2610   24.8050 C   0  0  0  0  0  1  0  0  0  0  0  0
  -27.4780  -32.4420   25.8620 C   0  0  0  0  0  1  0  0  0  0  0  0
  -31.0770  -20.9680   15.2430 C   0  0  0  0  0  2  0  0  0  0  0  0
  -31.9100  -22.0790   15.5550 O   0  0  0  0  0  0  0  0  0  0  0  0
  -33.0770  -21.7340   16.2910 C   0  0  0  0  0  2  0  0  0  0  0  0
  -32.8480  -21.9570   17.7970 C   0  0  0  0  0  2  0  0  0  0  0  0
  -31.9090  -21.0130   18.2920 O   0  0  0  0  0  0  0  0  0  0  0  0
  -31.7380  -21.0770   19.7020 C   0  0  0  0  0  2  0  0  0  0  0  0
  -30.7200  -20.0060   20.1130 C   0  0  0  0  0  2  0  0  0  0  0  0
  -31.2310  -18.7390   19.7230 O   0  0  0  0  0  0  0  0  0  0  0  0
  -30.3350  -17.6560   19.9180 C   0  0  0  0  0  2  0  0  0  0  0  0
  -30.5940  -16.9600   21.2710 C   0  0  0  0  0  2  0  0  0  0  0  0
  -30.8240  -14.5940   20.5860 C   0  0  0  0  0  0  0  0  0  0  0  0
  -30.5190  -12.4870   19.3580 C   0  0  0  0  0  2  0  0  0  0  0  0
  -29.5980  -12.7370   18.1470 C   0  0  0  0  0  2  0  0  0  0  0  0
  -28.1180  -12.5960   18.5500 C   0  0  0  0  0  2  0  0  0  0  0  0
  -27.7650  -13.4030   19.8300 C   0  0  0  0  0  3  0  0  0  0  0  0
  -28.7980  -13.1390   20.9480 C   0  0  0  0  0  2  0  0  0  0  0  0
  -30.1380  -13.4380   20.4120 N   0  0  0  0  0  0  0  0  0  0  0  0
  -31.9270  -14.8150   20.0790 O   0  0  0  0  0  0  0  0  0  0  0  0
  -30.1660  -15.5610   21.2370 N   0  0  0  0  0  0  0  0  0  0  0  0
  -29.2600  -15.3340   21.6190 H   0  0  0  0  0  0  0  0  0  0  0  0
  -25.3410  -13.9950   20.4720 C   0  0  0  0  0  0  0  0  0  0  0  0
  -24.2720  -13.2160   20.8240 C   0  0  0  0  0  0  0  0  0  0  0  0
  -24.7470  -11.8680   20.8190 C   0  0  0  0  0  0  0  0  0  0  0  0
  -26.4010  -13.1220   20.2760 N   0  0  0  0  0  0  0  0  0  0  0  0
  -26.0430  -11.8390   20.5390 N   0  0  0  0  0  0  0  0  0  0  0  0
  -24.0300  -10.6010   21.0060 C   0  0  0  0  0  0  0  0  0  0  0  0
  -24.4530   -9.6470   21.9570 C   0  0  0  0  0  3  0  0  0  0  0  0
  -23.7380   -8.4430   22.1310 C   0  0  0  0  0  3  0  0  0  0  0  0
  -22.5830   -8.1860   21.3540 C   0  0  0  0  0  0  0  0  0  0  0  0
  -22.1780   -9.1290   20.3930 C   0  0  0  0  0  3  0  0  0  0  0  0
  -22.8950  -10.3240   20.2170 C   0  0  0  0  0  3  0  0  0  0  0  0
  -21.8390   -7.0340   21.4370 O   0  0  0  0  0  0  0  0  0  0  0  0
  -21.7720   -6.3010   22.5950 C   0  0  0  0  0  0  0  0  0  0  0  0
  -21.3180   -6.8640   23.8080 C   0  0  0  0  0  3  0  0  0  0  0  0
  -21.2000   -6.0580   24.9580 C   0  0  0  0  0  3  0  0  0  0  0  0
  -21.5250   -4.6890   24.8960 C   0  0  0  0  0  0  0  0  0  0  0  0
  -21.9720   -4.1260   23.6880 C   0  0  0  0  0  3  0  0  0  0  0  0
  -22.0930   -4.9290   22.5400 C   0  0  0  0  0  0  0  0  0  0  0  0
  -22.5040   -4.3760   21.3740 F   0  0  0  0  0  0  0  0  0  0  0  0
  -21.4040   -3.9120   25.9980 F   0  0  0  0  0  0  0  0  0  0  0  0
  -22.8650  -13.6820   21.0620 C   0  0  0  0  0  0  0  0  0  0  0  0
  -22.1260  -12.9870   21.9210 N   0  0  0  0  0  0  0  0  0  0  0  0
  -22.4280  -14.6980   20.5230 O   0  0  0  0  0  0  0  0  0  0  0  0
  -22.4910  -12.1670   22.3810 H   0  0  0  0  0  0  0  0  0  0  0  0
  -21.1810  -13.2810   22.1220 H   0  0  0  0  0  0  0  0  0  0  0  0
  -25.5000  -15.3650   20.2830 N   0  0  0  0  0  0  0  0  0  0  0  0
  -24.7260  -16.0170   20.3630 H   0  0  0  0  0  0  0  0  0  0  0  0
  -26.3570  -15.8040   19.9750 H   0  0  0  0  0  0  0  0  0  0  0  0
  1 50  1  0
  1  3  1  0
  2  6  1  0
  3  2  1  0
  3  5  1  0
  4  2  2  0
  6  7  1  0
  7  8  1  0
  8  9  1  0
 10 21  2  0
 11  9  1  0
 11 16  1  0
 12 20  1  0
 12 22  1  0
 13 19  1  0
 13 15  1  0
 14 20  1  0
 15 16  2  0
 15 14  1  0
 17 11  2  0
 18 17  1  0
 18 13  2  0
 19 12  1  0
 20 10  1  0
 22 24  2  0
 23 22  1  0
 25 23  1  0
 26 35  2  0
 26 31  1  0
 27 23  1  0
 27 31  1  0
 28 27  1  0
 29 30  1  0
 29 28  1  0
 30 26  1  0
 31 32  2  0
 32 33  1  0
 34 33  2  0
 35 34  1  0
 36 10  1  0
 36 37  1  0
 36 46  1  0
 37 40  1  0
 38 42  1  0
 38 37  1  0
 39 38  2  0
 42 41  1  0
 44 42  1  0
 44 45  1  0
 44 43  1  0
 46 49  1  1
 46 47  1  0
 48 46  1  0
 50 51  1  0
 51 52  1  0
 52 53  1  0
 53 54  1  0
 54 55  1  0
 55 56  1  0
 57 58  1  0
 57 56  1  0
 58 59  1  0
 60 68  1  0
 61 66  1  0
 62 63  1  0
 62 61  1  0
 64 63  1  0
 64 73  1  0
 64 65  1  0
 66 60  1  0
 66 65  1  0
 67 60  2  0
 68 59  1  0
 68 69  1  0
 70 71  2  0
 71 90  1  0
 72 71  1  0
 72 75  1  0
 73 70  1  0
 73 74  1  0
 74 72  2  0
 75 76  1  0
 76 77  2  0
 78 81  1  0
 78 77  1  0
 79 78  2  0
 80 79  1  0
 80 75  2  0
 81 82  1  0
 82 83  1  0
 83 84  2  0
 85 84  1  0
 85 89  1  0
 86 85  2  0
 87 82  2  0
 87 86  1  0
 88 87  1  0
 90 91  1  0
 91 94  1  0
 91 93  1  0
 92 90  2  0
 95 96  1  0
 95 70  1  0
 97 95  1  0
M  ISO  4   8 101   9 101  60 100  68 100
M  END
>  <TORSDO>  (62) 
F 30

>  <SCORE>  (62) 
-10.369

>  <name>  (62) 
63

>  <ligand_id>  (62) 
63

>  <original_smiles>  (62) 
[H]c1c([H])c([H])c2c(c1[H])C([H])([H])C([H])([H])C([H])([H])C2([H])N([H])C(=O)C1([H])N(C(=O)C([H])(N([H])C(=O)C([H])(N([H])C([H])([H])[H])C([H])([H])[H])C(C([H])([H])[H])(C([H])([H])[H])C([H])([H])[H])C([H])([H])c2c([H])c(OC([H])([H])C([H])([H])C([H])([H])C(=O)N([H])C([H])([H])C([H])([H])OC([H])([H])C([H])([H])OC([H])([H])C([H])([H])OC([H])([H])C([H])([H])N([H])C(=O)N3C([H])([H])C([H])([H])C([H])([H])C([H])(n4nc(-c5c([H])c([H])c(Oc6c([H])c([H])c(F)c([H])c6F)c([H])c5[H])c(C(=O)N([H])[H])c4N([H])[H])C3([H])[H])c([H])c([H])c2C1([H])[H]

>  <smiles>  (62) 
[H]c1c([H])c([H])c2c(c1[H])C([H])([H])C([H])([H])C([H])([H])C2([H])N([H])C(=O)C1([H])N(C(=O)C([H])(N([H])C(=O)C([H])(N([H])C([H])([H])[H])C([H])([H])[H])C(C([H])([H])[H])(C([H])([H])[H])C([H])([H])[H])C([H])([H])c2c([H])c(OC([H])([H])C([H])([H])C([H])([H])C(=O)N([H])C([H])([H])C([H])([H])OC([H])([H])C([H])([H])OC([H])([H])C([H])([H])OC([H])([H])C([H])([H])N([H])C(=O)N3C([H])([H])C([H])([H])C([H])([H])C([H])(n4nc(-c5c([H])c([H])c(Oc6c([H])c([H])c(F)c([H])c6F)c([H])c5[H])c(C(=O)N([H])[H])c4N([H])[H])C3([H])[H])c([H])c([H])c2C1([H])[H]

$$$$
64:0:0
     RDKit          3D

100107  0  0  1  0  0  0  0  0999 V2000
  -36.6390  -24.6660   16.8470 C   0  0  0  0  0  0  0  0  0  0  0  0
  -36.2850  -25.8280   17.4080 N   0  0  0  0  0  0  0  0  0  0  0  0
  -36.5480  -24.4560   15.6340 O   0  0  0  0  0  0  0  0  0  0  0  0
  -36.4010  -25.9320   18.4080 H   0  0  0  0  0  0  0  0  0  0  0  0
  -38.6100  -23.1400   17.4840 C   0  0  0  0  0  1  0  0  0  0  0  0
  -37.1620  -23.5700   17.7740 C   0  0  0  0  0  3  0  0  0  0  0  0
  -35.9890  -21.5950   18.7190 C   0  0  0  0  0  0  0  0  0  0  0  0
  -36.2500  -22.4310   17.7120 N   0  0  0  0  0  0  0  0  0  0  0  0
  -36.6100  -21.6600   19.7900 O   0  0  0  0  0  0  0  0  0  0  0  0
  -35.6860  -22.3780   16.8730 H   0  0  0  0  0  0  0  0  0  0  0  0
  -34.8950  -20.5140   18.5260 C   0  0  0  0  0  3  0  0  0  0  0  0
  -36.7400  -19.0140   17.5780 C   0  0  0  0  0  0  0  0  0  0  0  0
  -37.6270  -17.0460   16.4010 C   0  0  0  0  0  2  0  0  0  0  0  0
  -36.5000  -16.4680   15.5210 C   0  0  0  0  0  2  0  0  0  0  0  0
  -35.6130  -15.4870   16.3220 C   0  0  0  0  0  2  0  0  0  0  0  0
  -35.1510  -16.0700   17.6830 C   0  0  0  0  0  3  0  0  0  0  0  0
  -36.3540  -16.6790   18.4400 C   0  0  0  0  0  2  0  0  0  0  0  0
  -36.9910  -17.6800   17.5590 N   0  0  0  0  0  0  0  0  0  0  0  0
  -37.3180  -19.8340   16.8650 O   0  0  0  0  0  0  0  0  0  0  0  0
  -35.6950  -19.3160   18.3370 N   0  0  0  0  0  0  0  0  0  0  0  0
  -35.2990  -18.5520   18.8710 H   0  0  0  0  0  0  0  0  0  0  0  0
  -33.0990  -14.9500   18.7740 C   0  0  0  0  0  0  0  0  0  0  0  0
  -32.9700  -13.8010   19.5070 C   0  0  0  0  0  0  0  0  0  0  0  0
  -34.2860  -13.2620   19.6350 C   0  0  0  0  0  0  0  0  0  0  0  0
  -34.4530  -15.0710   18.4930 N   0  0  0  0  0  0  0  0  0  0  0  0
  -35.1720  -14.0700   19.0640 N   0  0  0  0  0  0  0  0  0  0  0  0
  -34.7490  -11.9970   20.2200 C   0  0  0  0  0  0  0  0  0  0  0  0
  -35.0590  -11.8880   21.5940 C   0  0  0  0  0  3  0  0  0  0  0  0
  -35.4870  -10.6560   22.1360 C   0  0  0  0  0  3  0  0  0  0  0  0
  -35.6030   -9.5180   21.3030 C   0  0  0  0  0  0  0  0  0  0  0  0
  -35.3140   -9.6370   19.9320 C   0  0  0  0  0  3  0  0  0  0  0  0
  -34.8940  -10.8650   19.3940 C   0  0  0  0  0  3  0  0  0  0  0  0
  -36.0340   -8.2880   21.7350 O   0  0  0  0  0  0  0  0  0  0  0  0
  -35.1540   -7.3210   22.1510 C   0  0  0  0  0  0  0  0  0  0  0  0
  -34.6490   -6.3440   21.2660 C   0  0  0  0  0  3  0  0  0  0  0  0
  -33.8000   -5.3290   21.7510 C   0  0  0  0  0  3  0  0  0  0  0  0
  -33.4660   -5.2800   23.1170 C   0  0  0  0  0  0  0  0  0  0  0  0
  -33.9740   -6.2500   24.0000 C   0  0  0  0  0  3  0  0  0  0  0  0
  -34.8180   -7.2660   23.5200 C   0  0  0  0  0  0  0  0  0  0  0  0
  -35.3190   -8.1860   24.3770 F   0  0  0  0  0  0  0  0  0  0  0  0
  -32.6580   -4.3000   23.5850 F   0  0  0  0  0  0  0  0  0  0  0  0
  -31.6850  -13.1880   19.9890 C   0  0  0  0  0  0  0  0  0  0  0  0
  -31.5860  -12.9080   21.2850 N   0  0  0  0  0  0  0  0  0  0  0  0
  -30.7410  -12.9970   19.2250 O   0  0  0  0  0  0  0  0  0  0  0  0
  -32.3500  -13.0830   21.9180 H   0  0  0  0  0  0  0  0  0  0  0  0
  -30.7280  -12.5150   21.6450 H   0  0  0  0  0  0  0  0  0  0  0  0
  -32.1810  -15.8900   18.3160 N   0  0  0  0  0  0  0  0  0  0  0  0
  -31.1940  -15.8220   18.5400 H   0  0  0  0  0  0  0  0  0  0  0  0
  -32.4470  -16.8130   17.9900 H   0  0  0  0  0  0  0  0  0  0  0  0
  -34.4610  -19.5930   20.9310 C   0  0  0  0  0  1  0  0  0  0  0  0
  -33.3270  -21.7240   20.1900 C   0  0  0  0  0  1  0  0  0  0  0  0
  -33.8840  -20.3650   19.7250 C   0  0  1  0  0  0  0  0  0  0  0  0
  -32.7300  -19.6660   19.2870 O   0  0  0  0  0  0  0  0  0  0  0  0
  -32.1020  -19.6390   20.0020 H   0  0  0  0  0  0  0  0  0  0  0  0
  -35.7590  -26.9630   16.6630 C   0  0  0  0  0  2  0  0  0  0  0  0
  -34.4130  -27.4580   17.2300 C   0  0  0  0  0  2  0  0  0  0  0  0
  -33.3640  -27.0180   16.3760 O   0  0  0  0  0  0  0  0  0  0  0  0
  -32.4050  -28.0340   16.1190 C   0  0  0  0  0  2  0  0  0  0  0  0
  -31.6270  -27.7090   14.8300 C   0  0  0  0  0  2  0  0  0  0  0  0
  -32.3540  -28.0900   13.6610 O   0  0  0  0  0  0  0  0  0  0  0  0
  -29.8330  -27.4500    7.0570 C   0  0  0  0  0  0  0  0  0  0  0  0
  -32.1180  -27.2590   12.5970 C   0  0  0  0  0  0  0  0  0  0  0  0
  -30.2380  -25.3340    8.2730 C   0  0  0  0  0  3  0  0  0  0  0  0
  -31.5610  -25.5380   10.4410 C   0  0  0  0  0  0  0  0  0  0  0  0
  -31.6060  -27.4260    8.7990 C   0  0  0  0  0  2  0  0  0  0  0  0
  -31.7300  -26.9100   10.2150 C   0  0  0  0  0  0  0  0  0  0  0  0
  -32.0060  -27.7790   11.2900 C   0  0  0  0  0  3  0  0  0  0  0  0
  -31.9770  -25.8750   12.8130 C   0  0  0  0  0  3  0  0  0  0  0  0
  -31.6850  -25.0110   11.7400 C   0  0  0  0  0  3  0  0  0  0  0  0
  -31.2700  -24.6820    9.2330 C   0  0  0  0  0  2  0  0  0  0  0  0
  -30.5230  -26.7840    8.0230 N   0  0  0  0  0  0  0  0  0  0  0  0
  -29.0020  -26.8690    6.3470 O   0  0  0  0  0  0  0  0  0  0  0  0
  -28.8170  -25.0760    8.8190 C   0  0  0  0  0  0  0  0  0  0  0  0
  -28.2190  -23.9400    8.4190 N   0  0  0  0  0  0  0  0  0  0  0  0
  -28.2860  -25.8680    9.6030 O   0  0  0  0  0  0  0  0  0  0  0  0
  -28.7100  -23.3530    7.7590 H   0  0  0  0  0  0  0  0  0  0  0  0
  -25.5530  -21.6380    7.6160 C   0  0  0  0  0  0  0  0  0  0  0  0
  -26.9010  -23.4710    8.8410 C   0  0  0  0  0  3  0  0  0  0  0  0
  -27.0120  -22.4640   10.0090 C   0  0  0  0  0  2  0  0  0  0  0  0
  -27.0580  -21.0040    9.5500 C   0  0  0  0  0  2  0  0  0  0  0  0
  -25.8030  -20.6530    8.7460 C   0  0  0  0  0  2  0  0  0  0  0  0
  -26.0800  -22.9560    7.6540 C   0  0  0  0  0  0  0  0  0  0  0  0
  -25.8460  -23.8200    6.5630 C   0  0  0  0  0  3  0  0  0  0  0  0
  -25.0970  -23.3890    5.4510 C   0  0  0  0  0  3  0  0  0  0  0  0
  -24.5640  -22.0880    5.4260 C   0  0  0  0  0  3  0  0  0  0  0  0
  -24.7880  -21.2180    6.5070 C   0  0  0  0  0  3  0  0  0  0  0  0
  -30.0760  -28.9680    6.7780 C   0  0  0  0  0  3  0  0  0  0  0  0
  -28.8420  -29.8750    7.1540 C   0  0  1  0  0  0  0  0  0  0  0  0
  -27.7370  -29.9020    6.0720 C   0  0  0  0  0  1  0  0  0  0  0  0
  -28.1960  -29.3980    8.4760 C   0  0  0  0  0  1  0  0  0  0  0  0
  -29.3110  -31.3290    7.3910 C   0  0  0  0  0  1  0  0  0  0  0  0
  -30.4140  -29.1090    5.3550 N   0  0  0  0  0  0  0  0  0  0  0  0
  -31.6530  -29.2980    4.8850 C   0  0  0  0  0  0  0  0  0  0  0  0
  -32.6330  -29.4490    5.6190 O   0  0  0  0  0  0  0  0  0  0  0  0
  -29.6680  -28.9480    4.6960 H   0  0  0  0  0  0  0  0  0  0  0  0
  -32.1620  -27.9090    2.8520 C   0  0  0  0  0  1  0  0  0  0  0  0
  -31.8330  -29.3240    3.3550 C   0  0  0  0  0  3  0  0  0  0  0  0
  -32.4920  -31.6700    3.0540 C   0  0  0  0  0  1  0  0  0  0  0  0
  -32.8770  -30.2690    2.9010 N   0  0  0  0  0  0  0  0  0  0  0  0
  -33.1050  -30.1090    1.9230 H   0  0  0  0  0  0  0  0  0  0  0  0
  1  2  1  0
  1  6  1  0
  2  4  1  0
  3  1  2  0
  6  5  1  0
  7  9  2  0
  8  6  1  0
  8  7  1  0
 10  8  1  0
 11  7  1  0
 11 52  1  0
 12 20  1  0
 13 18  1  0
 14 15  1  0
 14 13  1  0
 16 15  1  0
 16 17  1  0
 16 25  1  0
 18 12  1  0
 18 17  1  0
 19 12  2  0
 20 11  1  0
 20 21  1  0
 22 23  2  0
 23 24  1  0
 23 42  1  0
 24 27  1  0
 25 22  1  0
 25 26  1  0
 26 24  2  0
 27 28  1  0
 28 29  2  0
 30 33  1  0
 30 29  1  0
 31 30  2  0
 32 31  1  0
 32 27  2  0
 33 34  1  0
 34 39  1  0
 35 36  1  0
 35 34  2  0
 36 37  2  0
 37 41  1  0
 37 38  1  0
 39 38  2  0
 39 40  1  0
 42 43  1  0
 43 46  1  0
 43 45  1  0
 44 42  2  0
 47 48  1  0
 47 22  1  0
 49 47  1  0
 52 51  1  1
 52 50  1  0
 53 52  1  0
 53 54  1  0
 55 56  1  0
 55  2  1  0
 57 56  1  0
 58 57  1  0
 59 58  1  0
 60 59  1  0
 61 71  1  0
 62 68  1  0
 62 60  1  0
 63 73  1  0
 63 70  1  0
 64 69  1  0
 65 66  1  0
 66 64  2  0
 66 67  1  0
 67 62  2  0
 69 68  2  0
 70 64  1  0
 71 63  1  0
 71 65  1  0
 72 61  2  0
 73 75  2  0
 74 73  1  0
 76 74  1  0
 77 82  1  0
 77 81  1  0
 78 74  1  0
 78 79  1  0
 80 79  1  0
 81 80  1  0
 82 78  1  0
 83 82  2  0
 84 83  1  0
 85 84  2  0
 85 86  1  0
 86 77  2  0
 87 61  1  0
 87 88  1  0
 88 91  1  1
 88 90  1  0
 89 88  1  0
 92 87  1  0
 93 92  1  0
 93 94  2  0
 95 92  1  0
 97 96  1  0
 97 93  1  0
 99 98  1  0
 99 97  1  0
100 99  1  0
M  ISO  4  12 100  20 100  59 101  60 101
M  END
>  <TORSDO>  (63) 
F 26

>  <SCORE>  (63) 
-3.188

>  <name>  (63) 
64

>  <ligand_id>  (63) 
64

>  <original_smiles>  (63) 
[H]OC(C([H])([H])[H])(C([H])([H])[H])C([H])(C(=O)N([H])C([H])(C(=O)N([H])C([H])([H])C([H])([H])OC([H])([H])C([H])([H])Oc1c([H])c([H])c2c(c1[H])C([H])([H])N(C(=O)C([H])(N([H])C(=O)C([H])(N([H])C([H])([H])[H])C([H])([H])[H])C(C([H])([H])[H])(C([H])([H])[H])C([H])([H])[H])C([H])(C(=O)N([H])C1([H])c3c([H])c([H])c([H])c([H])c3C([H])([H])C([H])([H])C1([H])[H])C2([H])[H])C([H])([H])[H])N([H])C(=O)N1C([H])([H])C([H])([H])C([H])([H])C([H])(n2nc(-c3c([H])c([H])c(Oc4c([H])c([H])c(F)c([H])c4F)c([H])c3[H])c(C(=O)N([H])[H])c2N([H])[H])C1([H])[H]

>  <smiles>  (63) 
[H]OC(C([H])([H])[H])(C([H])([H])[H])C([H])(C(=O)N([H])C([H])(C(=O)N([H])C([H])([H])C([H])([H])OC([H])([H])C([H])([H])Oc1c([H])c([H])c2c(c1[H])C([H])([H])N(C(=O)C([H])(N([H])C(=O)C([H])(N([H])C([H])([H])[H])C([H])([H])[H])C(C([H])([H])[H])(C([H])([H])[H])C([H])([H])[H])C([H])(C(=O)N([H])C1([H])c3c([H])c([H])c([H])c([H])c3C([H])([H])C([H])([H])C1([H])[H])C2([H])[H])C([H])([H])[H])N([H])C(=O)N1C([H])([H])C([H])([H])C([H])([H])C([H])(n2nc(-c3c([H])c([H])c(Oc4c([H])c([H])c(F)c([H])c4F)c([H])c3[H])c(C(=O)N([H])[H])c2N([H])[H])C1([H])[H]

$$$$
65:0:0
     RDKit          3D

 99106  0  0  1  0  0  0  0  0999 V2000
  -32.4000  -17.8360   20.1450 C   0  0  0  0  0  0  0  0  0  0  0  0
  -32.1400  -18.9680   19.4620 N   0  0  0  0  0  0  0  0  0  0  0  0
  -33.4560  -17.2240   19.9740 O   0  0  0  0  0  0  0  0  0  0  0  0
  -31.2610  -19.4490   19.5950 H   0  0  0  0  0  0  0  0  0  0  0  0
  -33.0300  -19.5800   18.4790 C   0  0  0  0  0  2  0  0  0  0  0  0
  -32.4680  -20.9240   17.9740 C   0  0  0  0  0  2  0  0  0  0  0  0
  -32.2900  -21.8270   19.0630 O   0  0  0  0  0  0  0  0  0  0  0  0
  -31.7170  -23.0670   18.6490 C   0  0  0  0  0  2  0  0  0  0  0  0
  -31.6500  -24.0620   19.8200 C   0  0  0  0  0  2  0  0  0  0  0  0
  -30.8720  -25.2000   19.4510 O   0  0  0  0  0  0  0  0  0  0  0  0
  -30.8800  -26.2250   20.4450 C   0  0  0  0  0  2  0  0  0  0  0  0
  -29.8000  -27.2890   20.1660 C   0  0  0  0  0  2  0  0  0  0  0  0
  -28.5270  -26.6830   20.3680 O   0  0  0  0  0  0  0  0  0  0  0  0
  -24.5480  -31.8670   23.3020 C   0  0  0  0  0  0  0  0  0  0  0  0
  -27.3960  -27.4670   20.3500 C   0  0  0  0  0  0  0  0  0  0  0  0
  -23.4260  -30.4270   21.6300 C   0  0  0  0  0  3  0  0  0  0  0  0
  -24.9610  -28.9000   20.2810 C   0  0  0  0  0  0  0  0  0  0  0  0
  -25.9480  -30.8350   21.5210 C   0  0  0  0  0  2  0  0  0  0  0  0
  -26.0860  -29.4620   20.8980 C   0  0  0  0  0  0  0  0  0  0  0  0
  -27.3090  -28.7550   20.9310 C   0  0  0  0  0  3  0  0  0  0  0  0
  -26.2480  -26.9050   19.7610 C   0  0  0  0  0  3  0  0  0  0  0  0
  -25.0340  -27.6160   19.7130 C   0  0  0  0  0  3  0  0  0  0  0  0
  -23.6980  -29.7290   20.2700 C   0  0  0  0  0  2  0  0  0  0  0  0
  -24.6560  -31.0570   22.2100 N   0  0  0  0  0  0  0  0  0  0  0  0
  -23.4430  -32.1290   23.7980 O   0  0  0  0  0  0  0  0  0  0  0  0
  -22.7510  -29.4100   22.5780 C   0  0  0  0  0  0  0  0  0  0  0  0
  -21.4370  -29.2020   22.3940 N   0  0  0  0  0  0  0  0  0  0  0  0
  -23.4090  -28.8080   23.4310 O   0  0  0  0  0  0  0  0  0  0  0  0
  -20.9700  -29.7380   21.6760 H   0  0  0  0  0  0  0  0  0  0  0  0
  -18.0660  -27.9540   22.7510 C   0  0  0  0  0  0  0  0  0  0  0  0
  -20.6030  -28.2610   23.1400 C   0  0  0  0  0  3  0  0  0  0  0  0
  -20.7580  -26.8240   22.5910 C   0  0  0  0  0  2  0  0  0  0  0  0
  -19.7110  -26.4660   21.5320 C   0  0  0  0  0  2  0  0  0  0  0  0
  -18.2980  -26.5970   22.1070 C   0  0  0  0  0  2  0  0  0  0  0  0
  -19.1500  -28.7420   23.2210 C   0  0  0  0  0  0  0  0  0  0  0  0
  -18.8810  -30.0120   23.7780 C   0  0  0  0  0  3  0  0  0  0  0  0
  -17.5620  -30.4930   23.8730 C   0  0  0  0  0  3  0  0  0  0  0  0
  -16.4910  -29.7010   23.4210 C   0  0  0  0  0  3  0  0  0  0  0  0
  -16.7450  -28.4330   22.8680 C   0  0  0  0  0  3  0  0  0  0  0  0
  -25.8020  -32.5200   23.9630 C   0  0  0  0  0  3  0  0  0  0  0  0
  -25.4770  -33.9270   24.2350 N   0  0  0  0  0  0  0  0  0  0  0  0
  -25.8480  -34.9540   23.4610 C   0  0  0  0  0  0  0  0  0  0  0  0
  -26.5670  -34.8210   22.4670 O   0  0  0  0  0  0  0  0  0  0  0  0
  -24.8450  -34.1070   25.0010 H   0  0  0  0  0  0  0  0  0  0  0  0
  -24.1360  -36.7300   22.9630 C   0  0  0  0  0  1  0  0  0  0  0  0
  -25.3360  -36.3540   23.8480 C   0  0  0  0  0  3  0  0  0  0  0  0
  -27.4220  -37.2700   24.7610 C   0  0  0  0  0  1  0  0  0  0  0  0
  -26.3700  -37.4070   23.7580 N   0  0  0  0  0  0  0  0  0  0  0  0
  -25.9550  -38.3290   23.8580 H   0  0  0  0  0  0  0  0  0  0  0  0
  -26.2660  -31.7860   25.2800 C   0  0  1  0  0  0  0  0  0  0  0  0
  -25.1290  -31.5720   26.3040 C   0  0  0  0  0  1  0  0  0  0  0  0
  -26.8690  -30.4020   24.9480 C   0  0  0  0  0  1  0  0  0  0  0  0
  -27.3820  -32.6050   25.9730 C   0  0  0  0  0  1  0  0  0  0  0  0
  -31.4100  -17.4070   21.2660 C   0  0  0  0  0  3  0  0  0  0  0  0
  -31.2120  -18.6030   22.1050 N   0  0  0  0  0  4  0  0  0  0  0  0
  -30.7820  -19.3490   21.5890 H   0  0  0  0  0  0  0  0  0  0  0  0
  -32.1120  -18.9200   22.4230 H   0  0  0  0  0  0  0  0  0  0  0  0
  -30.6480  -18.3830   22.9080 H   0  0  0  0  0  0  0  0  0  0  0  0
  -29.5410  -17.1900   19.4240 C   0  0  0  0  0  1  0  0  0  0  0  0
  -28.8790  -17.1070   21.8010 C   0  0  0  0  0  1  0  0  0  0  0  0
  -30.0260  -16.7410   20.8270 C   0  0  2  0  0  0  0  0  0  0  0  0
  -30.6800  -14.3560   20.1030 C   0  0  0  0  0  0  0  0  0  0  0  0
  -30.3330  -12.2290   18.9130 C   0  0  0  0  0  2  0  0  0  0  0  0
  -29.3430  -12.4770   17.7600 C   0  0  0  0  0  2  0  0  0  0  0  0
  -27.8800  -12.3620   18.2370 C   0  0  0  0  0  2  0  0  0  0  0  0
  -27.6090  -13.1700   19.5360 C   0  0  0  0  0  3  0  0  0  0  0  0
  -28.7020  -12.8720   20.5900 C   0  0  0  0  0  2  0  0  0  0  0  0
  -30.0170  -13.1760   19.9900 N   0  0  0  0  0  0  0  0  0  0  0  0
  -31.7150  -14.6190   19.4890 O   0  0  0  0  0  0  0  0  0  0  0  0
  -30.0300  -15.2670   20.8400 N   0  0  0  0  0  0  0  0  0  0  0  0
  -29.2740  -14.8530   21.3640 H   0  0  0  0  0  0  0  0  0  0  0  0
  -25.2250  -13.7960   20.2900 C   0  0  0  0  0  0  0  0  0  0  0  0
  -24.1670  -13.0320   20.7060 C   0  0  0  0  0  0  0  0  0  0  0  0
  -24.6280  -11.6790   20.6940 C   0  0  0  0  0  0  0  0  0  0  0  0
  -26.2660  -12.9110   20.0550 N   0  0  0  0  0  0  0  0  0  0  0  0
  -25.9090  -11.6340   20.3490 N   0  0  0  0  0  0  0  0  0  0  0  0
  -23.9090  -10.4220   20.9380 C   0  0  0  0  0  0  0  0  0  0  0  0
  -24.3700   -9.4820   21.8850 C   0  0  0  0  0  3  0  0  0  0  0  0
  -23.6560   -8.2860   22.1150 C   0  0  0  0  0  3  0  0  0  0  0  0
  -22.4640   -8.0240   21.3990 C   0  0  0  0  0  0  0  0  0  0  0  0
  -22.0170   -8.9520   20.4420 C   0  0  0  0  0  3  0  0  0  0  0  0
  -22.7330  -10.1400   20.2110 C   0  0  0  0  0  3  0  0  0  0  0  0
  -21.7160   -6.8790   21.5400 O   0  0  0  0  0  0  0  0  0  0  0  0
  -21.7000   -6.1650   22.7090 C   0  0  0  0  0  0  0  0  0  0  0  0
  -21.3060   -6.7510   23.9330 C   0  0  0  0  0  3  0  0  0  0  0  0
  -21.2390   -5.9630   25.0990 C   0  0  0  0  0  3  0  0  0  0  0  0
  -21.5560   -4.5930   25.0430 C   0  0  0  0  0  0  0  0  0  0  0  0
  -21.9440   -4.0070   23.8240 C   0  0  0  0  0  3  0  0  0  0  0  0
  -22.0130   -4.7920   22.6590 C   0  0  0  0  0  0  0  0  0  0  0  0
  -22.3670   -4.2190   21.4840 F   0  0  0  0  0  0  0  0  0  0  0  0
  -21.4810   -3.8350   26.1600 F   0  0  0  0  0  0  0  0  0  0  0  0
  -22.7780  -13.5140   21.0090 C   0  0  0  0  0  0  0  0  0  0  0  0
  -22.0770  -12.8440   21.9140 N   0  0  0  0  0  0  0  0  0  0  0  0
  -22.3210  -14.5250   20.4730 O   0  0  0  0  0  0  0  0  0  0  0  0
  -22.4500  -12.0250   22.3720 H   0  0  0  0  0  0  0  0  0  0  0  0
  -21.1490  -13.1580   22.1510 H   0  0  0  0  0  0  0  0  0  0  0  0
  -25.3850  -15.1640   20.0840 N   0  0  0  0  0  0  0  0  0  0  0  0
  -24.6340  -15.8270   20.2440 H   0  0  0  0  0  0  0  0  0  0  0  0
  -26.2330  -15.6030   19.7470 H   0  0  0  0  0  0  0  0  0  0  0  0
  2  4  1  0
  2  1  1  0
  3  1  2  0
  5  2  1  0
  6  5  1  0
  6  7  1  0
  8  7  1  0
  8  9  1  0
 10  9  1  0
 10 11  1  0
 12 13  1  0
 12 11  1  0
 14 25  2  0
 15 13  1  0
 15 20  1  0
 16 24  1  0
 16 26  1  0
 17 19  1  0
 18 24  1  0
 19 20  2  0
 19 18  1  0
 21 15  2  0
 22 21  1  0
 22 17  2  0
 23 17  1  0
 23 16  1  0
 24 14  1  0
 26 28  2  0
 27 26  1  0
 29 27  1  0
 30 39  2  0
 30 35  1  0
 31 27  1  0
 31 35  1  0
 32 31  1  0
 33 34  1  0
 33 32  1  0
 34 30  1  0
 35 36  2  0
 36 37  1  0
 38 37  2  0
 39 38  1  0
 40 14  1  0
 40 41  1  0
 40 50  1  0
 41 44  1  0
 42 46  1  0
 42 41  1  0
 43 42  2  0
 46 45  1  0
 48 46  1  0
 48 49  1  0
 48 47  1  0
 50 53  1  1
 50 51  1  0
 52 50  1  0
 54  1  1  0
 54 55  1  0
 55 57  1  0
 55 58  1  0
 56 55  1  0
 61 59  1  6
 61 70  1  0
 61 54  1  0
 61 60  1  0
 62 70  1  0
 63 68  1  0
 64 65  1  0
 64 63  1  0
 66 65  1  0
 66 75  1  0
 66 67  1  0
 68 62  1  0
 68 67  1  0
 69 62  2  0
 70 71  1  0
 72 73  2  0
 73 92  1  0
 74 73  1  0
 74 77  1  0
 75 72  1  0
 75 76  1  0
 76 74  2  0
 77 78  1  0
 78 79  2  0
 80 83  1  0
 80 79  1  0
 81 80  2  0
 82 81  1  0
 82 77  2  0
 83 84  1  0
 84 85  1  0
 85 86  2  0
 87 86  1  0
 87 91  1  0
 88 87  2  0
 89 84  2  0
 89 88  1  0
 90 89  1  0
 92 93  1  0
 93 96  1  0
 93 95  1  0
 94 92  2  0
 97 98  1  0
 97 72  1  0
 99 97  1  0
M  ISO  4  12 101  13 101  62 100  70 100
M  END
>  <TORSDO>  (64) 
F 27

>  <SCORE>  (64) 
-10.819

>  <name>  (64) 
65

>  <ligand_id>  (64) 
65

>  <original_smiles>  (64) 
[H]c1c([H])c([H])c2c(c1[H])C([H])([H])C([H])([H])C([H])([H])C2([H])N([H])C(=O)C1([H])N(C(=O)C([H])(N([H])C(=O)C([H])(N([H])C([H])([H])[H])C([H])([H])[H])C(C([H])([H])[H])(C([H])([H])[H])C([H])([H])[H])C([H])([H])c2c([H])c(OC([H])([H])C([H])([H])OC([H])([H])C([H])([H])OC([H])([H])C([H])([H])N([H])C(=O)C([H])(C(N([H])C(=O)N3C([H])([H])C([H])([H])C([H])([H])C([H])(n4nc(-c5c([H])c([H])c(Oc6c([H])c([H])c(F)c([H])c6F)c([H])c5[H])c(C(=O)N([H])[H])c4N([H])[H])C3([H])[H])(C([H])([H])[H])C([H])([H])[H])[N+]([H])([H])[H])c([H])c([H])c2C1([H])[H]

>  <smiles>  (64) 
[H]c1c([H])c([H])c2c(c1[H])C([H])([H])C([H])([H])C([H])([H])C2([H])N([H])C(=O)C1([H])N(C(=O)C([H])(N([H])C(=O)C([H])(N([H])C([H])([H])[H])C([H])([H])[H])C(C([H])([H])[H])(C([H])([H])[H])C([H])([H])[H])C([H])([H])c2c([H])c(OC([H])([H])C([H])([H])OC([H])([H])C([H])([H])OC([H])([H])C([H])([H])N([H])C(=O)C([H])(C(N([H])C(=O)N3C([H])([H])C([H])([H])C([H])([H])C([H])(n4nc(-c5c([H])c([H])c(Oc6c([H])c([H])c(F)c([H])c6F)c([H])c5[H])c(C(=O)N([H])[H])c4N([H])[H])C3([H])[H])(C([H])([H])[H])C([H])([H])[H])[N+]([H])([H])[H])c([H])c([H])c2C1([H])[H]

$$$$
66:0:0
     RDKit          3D

 93100  0  0  1  0  0  0  0  0999 V2000
  -29.5800  -21.2960   23.3440 O   0  0  0  0  0  0  0  0  0  0  0  0
  -30.6750  -20.9660   24.1920 C   0  0  0  0  0  2  0  0  0  0  0  0
  -30.8650  -19.4450   24.2320 C   0  0  0  0  0  2  0  0  0  0  0  0
  -31.0980  -17.6210   22.5930 C   0  0  0  0  0  0  0  0  0  0  0  0
  -31.2380  -18.9050   22.9280 N   0  0  0  0  0  0  0  0  0  0  0  0
  -30.6390  -16.7850   23.3780 O   0  0  0  0  0  0  0  0  0  0  0  0
  -31.6020  -19.5530   22.2420 H   0  0  0  0  0  0  0  0  0  0  0  0
  -31.0010  -18.1240   20.0640 C   0  0  0  0  0  1  0  0  0  0  0  0
  -31.5230  -17.1960   21.1800 C   0  0  0  0  0  3  0  0  0  0  0  0
  -31.6410  -14.8800   20.1970 C   0  0  0  0  0  0  0  0  0  0  0  0
  -31.1660  -12.8140   18.9430 C   0  0  0  0  0  2  0  0  0  0  0  0
  -30.2210  -13.1430   17.7710 C   0  0  0  0  0  2  0  0  0  0  0  0
  -28.7470  -13.0900   18.2210 C   0  0  0  0  0  2  0  0  0  0  0  0
  -28.4920  -13.9010   19.5200 C   0  0  0  0  0  3  0  0  0  0  0  0
  -29.5400  -13.5440   20.5970 C   0  0  0  0  0  2  0  0  0  0  0  0
  -30.8840  -13.7660   20.0250 N   0  0  0  0  0  0  0  0  0  0  0  0
  -32.7240  -15.0650   19.6350 O   0  0  0  0  0  0  0  0  0  0  0  0
  -31.0700  -15.8270   20.9460 N   0  0  0  0  0  0  0  0  0  0  0  0
  -30.2190  -15.5780   21.4290 H   0  0  0  0  0  0  0  0  0  0  0  0
  -26.1520  -14.6620   20.2790 C   0  0  0  0  0  0  0  0  0  0  0  0
  -25.0370  -13.9580   20.6500 C   0  0  0  0  0  0  0  0  0  0  0  0
  -25.4010  -12.5790   20.5810 C   0  0  0  0  0  0  0  0  0  0  0  0
  -27.1280  -13.7150   20.0110 N   0  0  0  0  0  0  0  0  0  0  0  0
  -26.6800  -12.4560   20.2470 N   0  0  0  0  0  0  0  0  0  0  0  0
  -24.5930  -11.3660   20.7560 C   0  0  0  0  0  0  0  0  0  0  0  0
  -24.9560  -10.3650   21.6840 C   0  0  0  0  0  3  0  0  0  0  0  0
  -24.1530   -9.2160   21.8470 C   0  0  0  0  0  3  0  0  0  0  0  0
  -22.9740   -9.0590   21.0820 C   0  0  0  0  0  0  0  0  0  0  0  0
  -22.6300  -10.0470   20.1420 C   0  0  0  0  0  3  0  0  0  0  0  0
  -23.4310  -11.1880   19.9770 C   0  0  0  0  0  3  0  0  0  0  0  0
  -22.1460   -7.9640   21.1550 O   0  0  0  0  0  0  0  0  0  0  0  0
  -21.9880   -7.2570   22.3200 C   0  0  0  0  0  0  0  0  0  0  0  0
  -21.5680   -7.8770   23.5170 C   0  0  0  0  0  3  0  0  0  0  0  0
  -21.3520   -7.1010   24.6740 C   0  0  0  0  0  3  0  0  0  0  0  0
  -21.5460   -5.7070   24.6340 C   0  0  0  0  0  0  0  0  0  0  0  0
  -21.9580   -5.0870   23.4410 C   0  0  0  0  0  3  0  0  0  0  0  0
  -22.1760   -5.8610   22.2880 C   0  0  0  0  0  0  0  0  0  0  0  0
  -22.5530   -5.2550   21.1350 F   0  0  0  0  0  0  0  0  0  0  0  0
  -21.3300   -4.9600   25.7420 F   0  0  0  0  0  0  0  0  0  0  0  0
  -23.6810  -14.5240   20.9590 C   0  0  0  0  0  0  0  0  0  0  0  0
  -22.9330  -13.8770   21.8460 N   0  0  0  0  0  0  0  0  0  0  0  0
  -23.2950  -15.5760   20.4500 O   0  0  0  0  0  0  0  0  0  0  0  0
  -23.2550  -13.0260   22.2830 H   0  0  0  0  0  0  0  0  0  0  0  0
  -22.0210  -14.2380   22.0910 H   0  0  0  0  0  0  0  0  0  0  0  0
  -26.4100  -16.0220   20.1290 N   0  0  0  0  0  0  0  0  0  0  0  0
  -25.6980  -16.7300   20.2640 H   0  0  0  0  0  0  0  0  0  0  0  0
  -27.2910  -16.4040   19.8100 H   0  0  0  0  0  0  0  0  0  0  0  0
  -29.2600  -22.6810   23.4090 C   0  0  0  0  0  2  0  0  0  0  0  0
  -28.3050  -23.0880   22.2780 C   0  0  0  0  0  2  0  0  0  0  0  0
  -29.0540  -23.3610   21.0990 O   0  0  0  0  0  0  0  0  0  0  0  0
  -28.4150  -24.2730   20.2100 C   0  0  0  0  0  2  0  0  0  0  0  0
  -28.6630  -25.7350   20.6360 C   0  0  0  0  0  2  0  0  0  0  0  0
  -28.3810  -26.6290   19.5650 O   0  0  0  0  0  0  0  0  0  0  0  0
  -24.6580  -31.5930   23.0520 C   0  0  0  0  0  0  0  0  0  0  0  0
  -27.2060  -27.3250   19.6910 C   0  0  0  0  0  0  0  0  0  0  0  0
  -23.4000  -30.2770   21.3740 C   0  0  0  0  0  3  0  0  0  0  0  0
  -24.8090  -28.7990   19.8460 C   0  0  0  0  0  0  0  0  0  0  0  0
  -25.9150  -30.6470   21.1190 C   0  0  0  0  0  2  0  0  0  0  0  0
  -25.9800  -29.3040   20.4260 C   0  0  0  0  0  0  0  0  0  0  0  0
  -27.1840  -28.5720   20.3500 C   0  0  0  0  0  3  0  0  0  0  0  0
  -26.0230  -26.8200   19.1170 C   0  0  0  0  0  3  0  0  0  0  0  0
  -24.8230  -27.5530   19.1930 C   0  0  0  0  0  3  0  0  0  0  0  0
  -23.5680  -29.6550   19.9610 C   0  0  0  0  0  2  0  0  0  0  0  0
  -24.6780  -30.8510   21.9090 N   0  0  0  0  0  0  0  0  0  0  0  0
  -23.5940  -31.8430   23.6330 O   0  0  0  0  0  0  0  0  0  0  0  0
  -22.7680  -29.2160   22.3020 C   0  0  0  0  0  0  0  0  0  0  0  0
  -21.4400  -29.0430   22.1930 N   0  0  0  0  0  0  0  0  0  0  0  0
  -23.4660  -28.5550   23.0730 O   0  0  0  0  0  0  0  0  0  0  0  0
  -20.9380  -29.6360   21.5480 H   0  0  0  0  0  0  0  0  0  0  0  0
  -18.0760  -27.8210   22.6790 C   0  0  0  0  0  0  0  0  0  0  0  0
  -20.6360  -28.0710   22.9320 C   0  0  0  0  0  3  0  0  0  0  0  0
  -20.7340  -26.6660   22.2910 C   0  0  0  0  0  2  0  0  0  0  0  0
  -19.6190  -26.3850   21.2780 C   0  0  0  0  0  2  0  0  0  0  0  0
  -18.2450  -26.5020   21.9450 C   0  0  0  0  0  2  0  0  0  0  0  0
  -19.1990  -28.5660   23.1280 C   0  0  0  0  0  0  0  0  0  0  0  0
  -18.9860  -29.8040   23.7710 C   0  0  0  0  0  3  0  0  0  0  0  0
  -17.6840  -30.2980   23.9710 C   0  0  0  0  0  3  0  0  0  0  0  0
  -16.5750  -29.5480   23.5400 C   0  0  0  0  0  3  0  0  0  0  0  0
  -16.7720  -28.3120   22.9000 C   0  0  0  0  0  3  0  0  0  0  0  0
  -25.9640  -32.1820   23.6720 C   0  0  0  0  0  3  0  0  0  0  0  0
  -26.5280  -31.3260   24.8720 C   0  0  1  0  0  0  0  0  0  0  0  0
  -25.4750  -31.0180   25.9620 C   0  0  0  0  0  1  0  0  0  0  0  0
  -27.0910  -29.9810   24.3590 C   0  0  0  0  0  1  0  0  0  0  0  0
  -27.7050  -32.0740   25.5440 C   0  0  0  0  0  1  0  0  0  0  0  0
  -25.6690  -33.5540   24.1060 N   0  0  0  0  0  0  0  0  0  0  0  0
  -25.9950  -34.6560   23.4190 C   0  0  0  0  0  0  0  0  0  0  0  0
  -26.6480  -34.6230   22.3710 O   0  0  0  0  0  0  0  0  0  0  0  0
  -25.0910  -33.6570   24.9280 H   0  0  0  0  0  0  0  0  0  0  0  0
  -24.2700  -36.4730   23.2210 C   0  0  0  0  0  1  0  0  0  0  0  0
  -25.5220  -36.0080   23.9810 C   0  0  0  0  0  3  0  0  0  0  0  0
  -27.6740  -36.8220   24.8380 C   0  0  0  0  0  1  0  0  0  0  0  0
  -26.5570  -37.0640   23.9290 N   0  0  0  0  0  0  0  0  0  0  0  0
  -26.1580  -37.9710   24.1520 H   0  0  0  0  0  0  0  0  0  0  0  0
  1 48  1  0
  1  2  1  0
  2  3  1  0
  4  5  1  0
  4  6  2  0
  5  3  1  0
  7  5  1  0
  9  8  1  0
  9  4  1  0
 10 18  1  0
 11 16  1  0
 12 13  1  0
 12 11  1  0
 14 13  1  0
 14 23  1  0
 14 15  1  0
 16 10  1  0
 16 15  1  0
 17 10  2  0
 18  9  1  0
 18 19  1  0
 20 21  2  0
 21 40  1  0
 22 21  1  0
 22 25  1  0
 23 24  1  0
 23 20  1  0
 24 22  2  0
 25 26  1  0
 26 27  2  0
 28 31  1  0
 28 27  1  0
 29 28  2  0
 30 29  1  0
 30 25  2  0
 31 32  1  0
 32 33  1  0
 33 34  2  0
 35 34  1  0
 35 39  1  0
 36 35  2  0
 37 32  2  0
 37 36  1  0
 38 37  1  0
 40 41  1  0
 41 44  1  0
 41 43  1  0
 42 40  2  0
 45 46  1  0
 45 20  1  0
 47 45  1  0
 49 48  1  0
 50 49  1  0
 51 52  1  0
 51 50  1  0
 53 55  1  0
 53 52  1  0
 54 65  2  0
 55 60  1  0
 56 64  1  0
 56 66  1  0
 57 63  1  0
 57 59  1  0
 58 64  1  0
 59 58  1  0
 60 59  2  0
 61 62  1  0
 61 55  2  0
 62 57  2  0
 63 56  1  0
 64 54  1  0
 66 68  2  0
 67 66  1  0
 69 67  1  0
 70 79  2  0
 70 75  1  0
 71 67  1  0
 71 75  1  0
 72 71  1  0
 73 74  1  0
 73 72  1  0
 74 70  1  0
 75 76  2  0
 76 77  1  0
 78 77  2  0
 79 78  1  0
 80 54  1  0
 80 85  1  0
 80 81  1  0
 81 84  1  1
 81 82  1  0
 83 81  1  0
 85 88  1  0
 86 90  1  0
 86 85  1  0
 87 86  2  0
 90 89  1  0
 92 90  1  0
 92 93  1  0
 92 91  1  0
M  ISO  4  10 100  18 100  52 101  53 101
M  END
>  <TORSDO>  (65) 
F 25

>  <SCORE>  (65) 
-9.429

>  <name>  (65) 
66

>  <ligand_id>  (65) 
66

>  <original_smiles>  (65) 
[H]c1c([H])c([H])c2c(c1[H])C([H])([H])C([H])([H])C([H])([H])C2([H])N([H])C(=O)C1([H])N(C(=O)C([H])(N([H])C(=O)C([H])(N([H])C([H])([H])[H])C([H])([H])[H])C(C([H])([H])[H])(C([H])([H])[H])C([H])([H])[H])C([H])([H])c2c([H])c(OC([H])([H])C([H])([H])OC([H])([H])C([H])([H])OC([H])([H])C([H])([H])N([H])C(=O)C([H])(N([H])C(=O)N3C([H])([H])C([H])([H])C([H])([H])C([H])(n4nc(-c5c([H])c([H])c(Oc6c([H])c([H])c(F)c([H])c6F)c([H])c5[H])c(C(=O)N([H])[H])c4N([H])[H])C3([H])[H])C([H])([H])[H])c([H])c([H])c2C1([H])[H]

>  <smiles>  (65) 
[H]c1c([H])c([H])c2c(c1[H])C([H])([H])C([H])([H])C([H])([H])C2([H])N([H])C(=O)C1([H])N(C(=O)C([H])(N([H])C(=O)C([H])(N([H])C([H])([H])[H])C([H])([H])[H])C(C([H])([H])[H])(C([H])([H])[H])C([H])([H])[H])C([H])([H])c2c([H])c(OC([H])([H])C([H])([H])OC([H])([H])C([H])([H])OC([H])([H])C([H])([H])N([H])C(=O)C([H])(N([H])C(=O)N3C([H])([H])C([H])([H])C([H])([H])C([H])(n4nc(-c5c([H])c([H])c(Oc6c([H])c([H])c(F)c([H])c6F)c([H])c5[H])c(C(=O)N([H])[H])c4N([H])[H])C3([H])[H])C([H])([H])[H])c([H])c([H])c2C1([H])[H]

$$$$
67:0:0
     RDKit          3D

 94101  0  0  1  0  0  0  0  0999 V2000
  -28.8090  -21.7040   19.0700 C   0  0  0  0  0  2  0  0  0  0  0  0
  -30.0000  -22.6230   19.3910 C   0  0  0  0  0  2  0  0  0  0  0  0
  -29.5810  -23.9230   19.8090 O   0  0  0  0  0  0  0  0  0  0  0  0
  -30.6250  -24.6470   20.4620 C   0  0  0  0  0  2  0  0  0  0  0  0
  -30.6540  -26.1350   20.0600 C   0  0  0  0  0  2  0  0  0  0  0  0
  -29.5580  -27.0300   20.6720 C   0  0  0  0  0  2  0  0  0  0  0  0
  -28.3090  -26.6170   20.1530 O   0  0  0  0  0  0  0  0  0  0  0  0
  -24.5520  -31.9160   23.2600 C   0  0  0  0  0  0  0  0  0  0  0  0
  -27.2040  -27.4350   20.2440 C   0  0  0  0  0  0  0  0  0  0  0  0
  -23.3500  -30.5060   21.6220 C   0  0  0  0  0  3  0  0  0  0  0  0
  -24.8080  -28.9380   20.2400 C   0  0  0  0  0  0  0  0  0  0  0  0
  -25.8810  -30.8440   21.4460 C   0  0  0  0  0  2  0  0  0  0  0  0
  -25.9680  -29.4640   20.8300 C   0  0  0  0  0  0  0  0  0  0  0  0
  -27.1720  -28.7240   20.8320 C   0  0  0  0  0  3  0  0  0  0  0  0
  -26.0260  -26.9180   19.6720 C   0  0  0  0  0  3  0  0  0  0  0  0
  -24.8310  -27.6590   19.6610 C   0  0  0  0  0  3  0  0  0  0  0  0
  -23.5710  -29.8040   20.2570 C   0  0  0  0  0  2  0  0  0  0  0  0
  -24.6130  -31.1040   22.1680 N   0  0  0  0  0  0  0  0  0  0  0  0
  -23.4670  -32.2020   23.7840 O   0  0  0  0  0  0  0  0  0  0  0  0
  -22.6810  -29.5010   22.5860 C   0  0  0  0  0  0  0  0  0  0  0  0
  -21.3550  -29.3300   22.4460 N   0  0  0  0  0  0  0  0  0  0  0  0
  -23.3490  -28.8730   23.4110 O   0  0  0  0  0  0  0  0  0  0  0  0
  -20.8780  -29.8880   21.7500 H   0  0  0  0  0  0  0  0  0  0  0  0
  -17.9610  -28.1820   22.9080 C   0  0  0  0  0  0  0  0  0  0  0  0
  -20.5170  -28.4110   23.2150 C   0  0  0  0  0  3  0  0  0  0  0  0
  -20.6090  -26.9700   22.6600 C   0  0  0  0  0  2  0  0  0  0  0  0
  -19.5190  -26.6490   21.6330 C   0  0  0  0  0  2  0  0  0  0  0  0
  -18.1290  -26.8210   22.2530 C   0  0  0  0  0  2  0  0  0  0  0  0
  -19.0830  -28.9350   23.3450 C   0  0  0  0  0  0  0  0  0  0  0  0
  -18.8730  -30.2110   23.9130 C   0  0  0  0  0  3  0  0  0  0  0  0
  -17.5730  -30.7320   24.0510 C   0  0  0  0  0  3  0  0  0  0  0  0
  -16.4640  -29.9740   23.6350 C   0  0  0  0  0  3  0  0  0  0  0  0
  -16.6590  -28.7010   23.0680 C   0  0  0  0  0  3  0  0  0  0  0  0
  -25.8360  -32.5410   23.8890 C   0  0  0  0  0  3  0  0  0  0  0  0
  -26.3360  -31.7750   25.1760 C   0  0  1  0  0  0  0  0  0  0  0  0
  -25.2310  -31.5580   26.2370 C   0  0  0  0  0  1  0  0  0  0  0  0
  -26.9090  -30.3890   24.7950 C   0  0  0  0  0  1  0  0  0  0  0  0
  -27.4850  -32.5660   25.8430 C   0  0  0  0  0  1  0  0  0  0  0  0
  -25.5330  -33.9440   24.1980 N   0  0  0  0  0  0  0  0  0  0  0  0
  -25.8870  -34.9850   23.4340 C   0  0  0  0  0  0  0  0  0  0  0  0
  -26.5700  -34.8670   22.4130 O   0  0  0  0  0  0  0  0  0  0  0  0
  -24.9220  -34.1120   24.9840 H   0  0  0  0  0  0  0  0  0  0  0  0
  -24.1780  -36.7860   23.0410 C   0  0  0  0  0  1  0  0  0  0  0  0
  -25.4040  -36.3800   23.8730 C   0  0  0  0  0  3  0  0  0  0  0  0
  -27.5400  -37.2500   24.7160 C   0  0  0  0  0  1  0  0  0  0  0  0
  -26.4430  -37.4280   23.7670 N   0  0  0  0  0  0  0  0  0  0  0  0
  -26.0410  -38.3490   23.9150 H   0  0  0  0  0  0  0  0  0  0  0  0
  -28.1560  -21.2940   20.2740 O   0  0  0  0  0  0  0  0  0  0  0  0
  -27.1640  -20.2700   20.1070 C   0  0  0  0  0  2  0  0  0  0  0  0
  -27.7950  -18.8600   20.1540 C   0  0  0  0  0  0  0  0  0  0  0  0
  -29.1350  -18.8100   20.1210 N   0  0  0  0  0  0  0  0  0  0  0  0
  -27.0900  -17.8550   20.2540 O   0  0  0  0  0  0  0  0  0  0  0  0
  -29.5970  -19.7070   20.0360 H   0  0  0  0  0  0  0  0  0  0  0  0
  -29.9880  -17.6340   20.2360 C   0  0  0  0  0  2  0  0  0  0  0  0
  -30.2100  -17.2380   21.7050 C   0  0  0  0  0  2  0  0  0  0  0  0
  -31.2680  -16.1290   21.8820 C   0  0  0  0  0  2  0  0  0  0  0  0
  -31.0840  -14.2130   20.2600 C   0  0  0  0  0  0  0  0  0  0  0  0
  -30.6220  -12.1710   18.9410 C   0  0  0  0  0  2  0  0  0  0  0  0
  -29.6590  -12.4370   17.7690 C   0  0  0  0  0  2  0  0  0  0  0  0
  -28.1880  -12.3500   18.2290 C   0  0  0  0  0  2  0  0  0  0  0  0
  -27.9240  -13.1880   19.5060 C   0  0  0  0  0  3  0  0  0  0  0  0
  -28.9800  -12.8750   20.5860 C   0  0  0  0  0  2  0  0  0  0  0  0
  -30.3280  -13.1120   20.0290 N   0  0  0  0  0  0  0  0  0  0  0  0
  -32.0080  -14.5770   19.5220 O   0  0  0  0  0  0  0  0  0  0  0  0
  -30.7940  -14.8280   21.4130 N   0  0  0  0  0  0  0  0  0  0  0  0
  -30.1600  -14.3340   22.0250 H   0  0  0  0  0  0  0  0  0  0  0  0
  -25.5630  -13.9060   20.2600 C   0  0  0  0  0  0  0  0  0  0  0  0
  -24.4700  -13.1850   20.6640 C   0  0  0  0  0  0  0  0  0  0  0  0
  -24.8720  -11.8150   20.6330 C   0  0  0  0  0  0  0  0  0  0  0  0
  -26.5660  -12.9810   20.0130 N   0  0  0  0  0  0  0  0  0  0  0  0
  -26.1490  -11.7170   20.2860 N   0  0  0  0  0  0  0  0  0  0  0  0
  -24.1040  -10.5850   20.8620 C   0  0  0  0  0  0  0  0  0  0  0  0
  -24.5160   -9.6200   21.8080 C   0  0  0  0  0  3  0  0  0  0  0  0
  -23.7480   -8.4560   22.0240 C   0  0  0  0  0  3  0  0  0  0  0  0
  -22.5550   -8.2490   21.2930 C   0  0  0  0  0  0  0  0  0  0  0  0
  -22.1630   -9.1990   20.3340 C   0  0  0  0  0  3  0  0  0  0  0  0
  -22.9320  -10.3550   20.1170 C   0  0  0  0  0  3  0  0  0  0  0  0
  -21.7600   -7.1330   21.4090 O   0  0  0  0  0  0  0  0  0  0  0  0
  -21.6880   -6.4250   22.5800 C   0  0  0  0  0  0  0  0  0  0  0  0
  -21.3050   -7.0300   23.7940 C   0  0  0  0  0  3  0  0  0  0  0  0
  -21.1720   -6.2500   24.9600 C   0  0  0  0  0  3  0  0  0  0  0  0
  -21.4150   -4.8650   24.9120 C   0  0  0  0  0  0  0  0  0  0  0  0
  -21.7880   -4.2590   23.6990 C   0  0  0  0  0  3  0  0  0  0  0  0
  -21.9250   -5.0360   22.5370 C   0  0  0  0  0  0  0  0  0  0  0  0
  -22.2640   -4.4430   21.3670 F   0  0  0  0  0  0  0  0  0  0  0  0
  -21.2840   -4.1130   26.0300 F   0  0  0  0  0  0  0  0  0  0  0  0
  -23.1030  -13.7250   20.9750 C   0  0  0  0  0  0  0  0  0  0  0  0
  -22.3800  -13.0660   21.8730 N   0  0  0  0  0  0  0  0  0  0  0  0
  -22.6920  -14.7630   20.4590 O   0  0  0  0  0  0  0  0  0  0  0  0
  -22.7330  -12.2270   22.3090 H   0  0  0  0  0  0  0  0  0  0  0  0
  -21.4650  -13.4080   22.1350 H   0  0  0  0  0  0  0  0  0  0  0  0
  -25.7800  -15.2650   20.0680 N   0  0  0  0  0  0  0  0  0  0  0  0
  -25.0560  -15.9550   20.2260 H   0  0  0  0  0  0  0  0  0  0  0  0
  -26.6740  -15.6930   19.8540 H   0  0  0  0  0  0  0  0  0  0  0  0
  1  2  1  0
  1 48  1  0
  2  3  1  0
  3  4  1  0
  5  4  1  0
  5  6  1  0
  7  9  1  0
  7  6  1  0
  8 19  2  0
  9 14  1  0
 10 18  1  0
 10 20  1  0
 11 17  1  0
 11 13  1  0
 12 18  1  0
 13 14  2  0
 13 12  1  0
 15  9  2  0
 16 15  1  0
 16 11  2  0
 17 10  1  0
 18  8  1  0
 20 22  2  0
 21 20  1  0
 23 21  1  0
 24 33  2  0
 24 29  1  0
 25 21  1  0
 25 29  1  0
 26 25  1  0
 27 28  1  0
 27 26  1  0
 28 24  1  0
 29 30  2  0
 30 31  1  0
 32 31  2  0
 33 32  1  0
 34  8  1  0
 34 39  1  0
 34 35  1  0
 35 38  1  1
 35 36  1  0
 37 35  1  0
 39 42  1  0
 40 44  1  0
 40 39  1  0
 41 40  2  0
 44 43  1  0
 46 44  1  0
 46 47  1  0
 46 45  1  0
 49 50  1  0
 49 48  1  0
 50 52  2  0
 51 50  1  0
 51 54  1  0
 53 51  1  0
 54 55  1  0
 55 56  1  0
 57 65  1  0
 58 63  1  0
 59 60  1  0
 59 58  1  0
 61 60  1  0
 61 70  1  0
 61 62  1  0
 63 57  1  0
 63 62  1  0
 64 57  2  0
 65 56  1  0
 65 66  1  0
 67 68  2  0
 68 87  1  0
 69 68  1  0
 69 72  1  0
 70 67  1  0
 70 71  1  0
 71 69  2  0
 72 73  1  0
 73 74  2  0
 75 78  1  0
 75 74  1  0
 76 75  2  0
 77 76  1  0
 77 72  2  0
 78 79  1  0
 79 80  1  0
 80 81  2  0
 82 81  1  0
 82 86  1  0
 83 82  2  0
 84 79  2  0
 84 83  1  0
 85 84  1  0
 87 88  1  0
 88 91  1  0
 88 90  1  0
 89 87  2  0
 92 93  1  0
 92 67  1  0
 94 92  1  0
M  ISO  4   6 101   7 101  57 100  65 100
M  END
>  <TORSDO>  (66) 
F 27

>  <SCORE>  (66) 
-11.248

>  <name>  (66) 
67

>  <ligand_id>  (66) 
67

>  <original_smiles>  (66) 
[H]c1c([H])c([H])c2c(c1[H])C([H])([H])C([H])([H])C([H])([H])C2([H])N([H])C(=O)C1([H])N(C(=O)C([H])(N([H])C(=O)C([H])(N([H])C([H])([H])[H])C([H])([H])[H])C(C([H])([H])[H])(C([H])([H])[H])C([H])([H])[H])C([H])([H])c2c([H])c(OC([H])([H])C([H])([H])C([H])([H])OC([H])([H])C([H])([H])OC([H])([H])C(=O)N([H])C([H])([H])C([H])([H])C([H])([H])N([H])C(=O)N3C([H])([H])C([H])([H])C([H])([H])C([H])(n4nc(-c5c([H])c([H])c(Oc6c([H])c([H])c(F)c([H])c6F)c([H])c5[H])c(C(=O)N([H])[H])c4N([H])[H])C3([H])[H])c([H])c([H])c2C1([H])[H]

>  <smiles>  (66) 
[H]c1c([H])c([H])c2c(c1[H])C([H])([H])C([H])([H])C([H])([H])C2([H])N([H])C(=O)C1([H])N(C(=O)C([H])(N([H])C(=O)C([H])(N([H])C([H])([H])[H])C([H])([H])[H])C(C([H])([H])[H])(C([H])([H])[H])C([H])([H])[H])C([H])([H])c2c([H])c(OC([H])([H])C([H])([H])C([H])([H])OC([H])([H])C([H])([H])OC([H])([H])C(=O)N([H])C([H])([H])C([H])([H])C([H])([H])N([H])C(=O)N3C([H])([H])C([H])([H])C([H])([H])C([H])(n4nc(-c5c([H])c([H])c(Oc6c([H])c([H])c(F)c([H])c6F)c([H])c5[H])c(C(=O)N([H])[H])c4N([H])[H])C3([H])[H])c([H])c([H])c2C1([H])[H]

$$$$
68:0:0
     RDKit          3D

107115  0  0  1  0  0  0  0  0999 V2000
  -31.1310  -19.3100   22.6580 C   0  0  0  0  0  0  0  0  0  0  0  0
  -30.1120  -20.3250   20.6230 C   0  0  0  0  0  2  0  0  0  0  0  0
  -32.5330  -19.8650   20.7190 C   0  0  0  0  0  2  0  0  0  0  0  0
  -30.5840  -21.4320   19.6430 C   0  0  0  0  0  2  0  0  0  0  0  0
  -32.9430  -21.3270   20.4590 C   0  0  0  0  0  3  0  0  0  0  0  0
  -33.9940  -21.4270   19.3420 C   0  0  0  0  0  1  0  0  0  0  0  0
  -31.2360  -19.7880   21.4020 N   0  0  0  0  0  0  0  0  0  0  0  0
  -31.7620  -22.1910   20.1530 N   0  0  2  0  0  4  0  0  0  0  0  0
  -32.1040  -19.3000   23.4180 O   0  0  0  0  0  0  0  0  0  0  0  0
  -32.0520  -22.7950   19.3940 H   0  0  0  0  0  0  0  0  0  0  0  0
  -29.8140  -18.6150   23.1010 C   0  0  0  0  0  3  0  0  0  0  0  0
  -29.8130  -16.5690   21.7480 C   0  0  0  0  0  0  0  0  0  0  0  0
  -30.0370  -17.1790   22.9170 N   0  0  0  0  0  0  0  0  0  0  0  0
  -28.9520  -16.9480   20.9500 O   0  0  0  0  0  0  0  0  0  0  0  0
  -30.7780  -16.7910   23.4820 H   0  0  0  0  0  0  0  0  0  0  0  0
  -31.6820  -15.8460   20.1920 C   0  0  0  0  0  1  0  0  0  0  0  0
  -30.7740  -15.4410   21.3760 C   0  0  0  0  0  3  0  0  0  0  0  0
  -30.3600  -13.3030   20.1910 C   0  0  0  0  0  0  0  0  0  0  0  0
  -30.1170  -10.9400   19.5570 C   0  0  0  0  0  2  0  0  0  0  0  0
  -29.1850  -10.7420   18.3510 C   0  0  0  0  0  2  0  0  0  0  0  0
  -27.7220  -10.6240   18.8120 C   0  0  0  0  0  2  0  0  0  0  0  0
  -27.3110  -11.7670   19.7760 C   0  0  0  0  0  3  0  0  0  0  0  0
  -28.3520  -11.9510   20.9020 C   0  0  0  0  0  2  0  0  0  0  0  0
  -29.6820  -12.1350   20.2930 N   0  0  0  0  0  0  0  0  0  0  0  0
  -31.3230  -13.4660   19.4380 O   0  0  0  0  0  0  0  0  0  0  0  0
  -30.0020  -14.2440   21.0640 N   0  0  0  0  0  0  0  0  0  0  0  0
  -29.2240  -14.0560   21.6820 H   0  0  0  0  0  0  0  0  0  0  0  0
  -24.9330  -12.4550   20.4880 C   0  0  0  0  0  0  0  0  0  0  0  0
  -23.8690  -11.7230   20.9460 C   0  0  0  0  0  0  0  0  0  0  0  0
  -24.3200  -10.3700   21.0170 C   0  0  0  0  0  0  0  0  0  0  0  0
  -25.9670  -11.5480   20.3100 N   0  0  0  0  0  0  0  0  0  0  0  0
  -25.6010  -10.2940   20.6810 N   0  0  0  0  0  0  0  0  0  0  0  0
  -23.5910   -9.1330   21.3310 C   0  0  0  0  0  0  0  0  0  0  0  0
  -24.0780   -8.2100   22.2820 C   0  0  0  0  0  3  0  0  0  0  0  0
  -23.3500   -7.0380   22.5790 C   0  0  0  0  0  3  0  0  0  0  0  0
  -22.1210   -6.7810   21.9260 C   0  0  0  0  0  0  0  0  0  0  0  0
  -21.6520   -7.6920   20.9630 C   0  0  0  0  0  3  0  0  0  0  0  0
  -22.3800   -8.8570   20.6650 C   0  0  0  0  0  3  0  0  0  0  0  0
  -21.3600   -5.6570   22.1310 O   0  0  0  0  0  0  0  0  0  0  0  0
  -21.4210   -4.9500   23.3060 C   0  0  0  0  0  0  0  0  0  0  0  0
  -21.1470   -5.5540   24.5520 C   0  0  0  0  0  3  0  0  0  0  0  0
  -21.1520   -4.7760   25.7270 C   0  0  0  0  0  3  0  0  0  0  0  0
  -21.4230   -3.3950   25.6570 C   0  0  0  0  0  0  0  0  0  0  0  0
  -21.6910   -2.7930   24.4160 C   0  0  0  0  0  3  0  0  0  0  0  0
  -21.6860   -3.5680   23.2440 C   0  0  0  0  0  0  0  0  0  0  0  0
  -21.9250   -2.9770   22.0470 F   0  0  0  0  0  0  0  0  0  0  0  0
  -21.4210   -2.6450   26.7840 F   0  0  0  0  0  0  0  0  0  0  0  0
  -22.4830  -12.2340   21.2130 C   0  0  0  0  0  0  0  0  0  0  0  0
  -21.7850  -11.6380   22.1760 N   0  0  0  0  0  0  0  0  0  0  0  0
  -22.0270  -13.1990   20.6020 O   0  0  0  0  0  0  0  0  0  0  0  0
  -22.1680  -10.8600   22.6920 H   0  0  0  0  0  0  0  0  0  0  0  0
  -20.8570  -11.9670   22.3980 H   0  0  0  0  0  0  0  0  0  0  0  0
  -25.1010  -13.8030   20.1910 N   0  0  0  0  0  0  0  0  0  0  0  0
  -24.3440  -14.4740   20.2700 H   0  0  0  0  0  0  0  0  0  0  0  0
  -25.9530  -14.2060   19.8180 H   0  0  0  0  0  0  0  0  0  0  0  0
  -29.4440  -18.8870   24.5770 C   0  0  0  0  0  2  0  0  0  0  0  0
  -30.1870  -18.1240   25.5200 O   0  0  0  0  0  0  0  0  0  0  0  0
  -29.8280  -17.2430   25.5290 H   0  0  0  0  0  0  0  0  0  0  0  0
  -31.4230  -23.1570   21.2340 C   0  0  0  0  0  2  0  0  0  0  0  0
  -31.4630  -24.6030   20.7220 C   0  0  0  0  0  2  0  0  0  0  0  0
  -30.1880  -24.9040   20.1700 O   0  0  0  0  0  0  0  0  0  0  0  0
  -30.0660  -26.2760   19.8130 C   0  0  0  0  0  2  0  0  0  0  0  0
  -28.8830  -26.4940   18.8570 C   0  0  0  0  0  2  0  0  0  0  0  0
  -29.2290  -26.2630   17.4860 O   0  0  0  0  0  0  0  0  0  0  0  0
  -28.3230  -26.9450   16.6180 C   0  0  0  0  0  2  0  0  0  0  0  0
  -28.2100  -26.3400   15.1940 C   0  0  0  0  0  2  0  0  0  0  0  0
  -27.0970  -26.8330   14.4280 O   0  0  0  0  0  0  0  0  0  0  0  0
  -24.1940  -28.0190   20.7870 C   0  0  0  0  0  0  0  0  0  0  0  0
  -25.9390  -27.0480   15.1360 C   0  0  0  0  0  0  0  0  0  0  0  0
  -22.6020  -27.4620   18.9700 C   0  0  0  0  0  3  0  0  0  0  0  0
  -23.5680  -27.4790   16.6060 C   0  0  0  0  0  0  0  0  0  0  0  0
  -24.8150  -28.6240   18.4520 C   0  0  0  0  0  2  0  0  0  0  0  0
  -24.7940  -27.9300   17.1090 C   0  0  0  0  0  0  0  0  0  0  0  0
  -25.9780  -27.7260   16.3740 C   0  0  0  0  0  3  0  0  0  0  0  0
  -24.6980  -26.6150   14.6260 C   0  0  0  0  0  3  0  0  0  0  0  0
  -23.5110  -26.8280   15.3570 C   0  0  0  0  0  3  0  0  0  0  0  0
  -22.3490  -27.7430   17.4610 C   0  0  0  0  0  2  0  0  0  0  0  0
  -23.9090  -28.0180   19.4530 N   0  0  0  0  0  0  0  0  0  0  0  0
  -23.3740  -27.6080   21.6200 O   0  0  0  0  0  0  0  0  0  0  0  0
  -22.4570  -25.9450   19.2200 C   0  0  0  0  0  0  0  0  0  0  0  0
  -21.2050  -25.4600   19.2350 N   0  0  0  0  0  0  0  0  0  0  0  0
  -23.4520  -25.2280   19.3650 O   0  0  0  0  0  0  0  0  0  0  0  0
  -20.4460  -26.1170   19.1150 H   0  0  0  0  0  0  0  0  0  0  0  0
  -18.3830  -23.2080   19.3440 C   0  0  0  0  0  0  0  0  0  0  0  0
  -20.8230  -24.0600   19.4090 C   0  0  0  0  0  3  0  0  0  0  0  0
  -21.0300  -23.2610   18.1020 C   0  0  0  0  0  2  0  0  0  0  0  0
  -19.7720  -23.1970   17.2290 C   0  0  0  0  0  2  0  0  0  0  0  0
  -18.6190  -22.5450   17.9970 C   0  0  0  0  0  2  0  0  0  0  0  0
  -19.4140  -23.9330   19.9990 C   0  0  0  0  0  0  0  0  0  0  0  0
  -19.1350  -24.5580   21.2340 C   0  0  0  0  0  3  0  0  0  0  0  0
  -17.8570  -24.4630   21.8160 C   0  0  0  0  0  3  0  0  0  0  0  0
  -16.8450  -23.7300   21.1720 C   0  0  0  0  0  3  0  0  0  0  0  0
  -17.1090  -23.1040   19.9400 C   0  0  0  0  0  3  0  0  0  0  0  0
  -25.5570  -28.5560   21.3310 C   0  0  0  0  0  3  0  0  0  0  0  0
  -25.2780  -29.2930   22.5720 N   0  0  0  0  0  0  0  0  0  0  0  0
  -25.3950  -30.6210   22.7120 C   0  0  0  0  0  0  0  0  0  0  0  0
  -25.8210  -31.3540   21.8150 O   0  0  0  0  0  0  0  0  0  0  0  0
  -24.8630  -28.7650   23.3280 H   0  0  0  0  0  0  0  0  0  0  0  0
  -23.5950  -31.9110   23.9060 C   0  0  0  0  0  1  0  0  0  0  0  0
  -24.9670  -31.2360   24.0580 C   0  0  0  0  0  3  0  0  0  0  0  0
  -27.1940  -31.5890   25.0310 C   0  0  0  0  0  1  0  0  0  0  0  0
  -25.9430  -32.2060   24.5990 N   0  0  0  0  0  0  0  0  0  0  0  0
  -25.5520  -32.7080   25.3930 H   0  0  0  0  0  0  0  0  0  0  0  0
  -26.6170  -27.4180   21.5820 C   0  0  1  0  0  0  0  0  0  0  0  0
  -26.0870  -26.2610   22.4620 C   0  0  0  0  0  1  0  0  0  0  0  0
  -27.0910  -26.8140   20.2400 C   0  0  0  0  0  1  0  0  0  0  0  0
  -27.8670  -28.0060   22.2770 C   0  0  0  0  0  1  0  0  0  0  0  0
  1 11  1  0
  1  9  2  0
  2  7  1  0
  3  7  1  0
  4  8  1  0
  4  2  1  0
  5  6  1  0
  5  3  1  0
  7  1  1  0
  8  5  1  0
  8 59  1  0
  8 10  1  6
 11 56  1  0
 12 13  1  0
 13 11  1  0
 13 15  1  0
 14 12  2  0
 17 16  1  0
 17 12  1  0
 18 24  1  0
 18 26  1  0
 19 24  1  0
 20 21  1  0
 20 19  1  0
 22 21  1  0
 22 31  1  0
 22 23  1  0
 24 23  1  0
 25 18  2  0
 26 17  1  0
 26 27  1  0
 28 29  2  0
 29 30  1  0
 29 48  1  0
 30 33  1  0
 31 28  1  0
 31 32  1  0
 32 30  2  0
 33 34  1  0
 34 35  2  0
 36 39  1  0
 36 35  1  0
 37 36  2  0
 38 37  1  0
 38 33  2  0
 39 40  1  0
 40 41  1  0
 41 42  2  0
 43 42  1  0
 43 47  1  0
 44 43  2  0
 45 40  2  0
 45 44  1  0
 46 45  1  0
 48 49  1  0
 49 52  1  0
 49 51  1  0
 50 48  2  0
 53 54  1  0
 53 28  1  0
 55 53  1  0
 56 57  1  0
 57 58  1  0
 60 59  1  0
 61 60  1  0
 62 61  1  0
 63 62  1  0
 64 63  1  0
 65 64  1  0
 66 65  1  0
 67 69  1  0
 67 66  1  0
 68 79  2  0
 69 74  1  0
 70 80  1  0
 70 78  1  0
 71 73  1  0
 71 77  1  0
 72 78  1  0
 73 72  1  0
 74 73  2  0
 75 69  2  0
 75 76  1  0
 76 71  2  0
 77 70  1  0
 78 68  1  0
 80 81  1  0
 80 82  2  0
 83 81  1  0
 84 93  2  0
 84 89  1  0
 85 81  1  0
 85 89  1  0
 86 85  1  0
 87 88  1  0
 87 86  1  0
 88 84  1  0
 89 90  2  0
 90 91  1  0
 92 91  2  0
 93 92  1  0
 94 68  1  0
 94104  1  0
 94 95  1  0
 95 96  1  0
 95 98  1  0
 96100  1  0
 97 96  2  0
100 99  1  0
100102  1  0
102101  1  0
102103  1  0
104107  1  1
104105  1  0
106104  1  0
M  ISO  4  18 100  26 100  66 101  67 101
M  END
>  <TORSDO>  (67) 
F 29

>  <SCORE>  (67) 
-1.396

>  <name>  (67) 
68

>  <ligand_id>  (67) 
68

>  <original_smiles>  (67) 
[H]OC([H])([H])C([H])(C(=O)N1C([H])([H])C([H])([H])[N+]([H])(C([H])([H])C([H])([H])OC([H])([H])C([H])([H])OC([H])([H])C([H])([H])Oc2c([H])c([H])c3c(c2[H])C([H])([H])N(C(=O)C([H])(N([H])C(=O)C([H])(N([H])C([H])([H])[H])C([H])([H])[H])C(C([H])([H])[H])(C([H])([H])[H])C([H])([H])[H])C([H])(C(=O)N([H])C2([H])c4c([H])c([H])c([H])c([H])c4C([H])([H])C([H])([H])C2([H])[H])C3([H])[H])C([H])(C([H])([H])[H])C1([H])[H])N([H])C(=O)C([H])(N([H])C(=O)N1C([H])([H])C([H])([H])C([H])([H])C([H])(n2nc(-c3c([H])c([H])c(Oc4c([H])c([H])c(F)c([H])c4F)c([H])c3[H])c(C(=O)N([H])[H])c2N([H])[H])C1([H])[H])C([H])([H])[H]

>  <smiles>  (67) 
[H]OC([H])([H])C([H])(C(=O)N1C([H])([H])C([H])([H])[N+]([H])(C([H])([H])C([H])([H])OC([H])([H])C([H])([H])OC([H])([H])C([H])([H])Oc2c([H])c([H])c3c(c2[H])C([H])([H])N(C(=O)C([H])(N([H])C(=O)C([H])(N([H])C([H])([H])[H])C([H])([H])[H])C(C([H])([H])[H])(C([H])([H])[H])C([H])([H])[H])C([H])(C(=O)N([H])C2([H])c4c([H])c([H])c([H])c([H])c4C([H])([H])C([H])([H])C2([H])[H])C3([H])[H])C([H])(C([H])([H])[H])C1([H])[H])N([H])C(=O)C([H])(N([H])C(=O)N1C([H])([H])C([H])([H])C([H])([H])C([H])(n2nc(-c3c([H])c([H])c(Oc4c([H])c([H])c(F)c([H])c4F)c([H])c3[H])c(C(=O)N([H])[H])c2N([H])[H])C1([H])[H])C([H])([H])[H]

$$$$
69:0:0
     RDKit          3D

104111  0  0  1  0  0  0  0  0999 V2000
  -31.9500  -24.0140   16.7340 C   0  0  0  0  0  0  0  0  0  0  0  0
  -32.8780  -23.0980   17.0300 N   0  0  0  0  0  0  0  0  0  0  0  0
  -31.6580  -24.9410   17.4920 O   0  0  0  0  0  0  0  0  0  0  0  0
  -33.0720  -22.3850   16.3410 H   0  0  0  0  0  0  0  0  0  0  0  0
  -31.4210  -25.0330   14.4860 C   0  0  0  0  0  1  0  0  0  0  0  0
  -31.1750  -23.8340   15.4220 C   0  0  0  0  0  3  0  0  0  0  0  0
  -29.7450  -23.7320   15.7680 N   0  0  0  0  0  4  0  0  0  0  0  0
  -29.6210  -24.4170   16.5010 H   0  0  0  0  0  0  0  0  0  0  0  0
  -29.1670  -23.9830   14.9830 H   0  0  0  0  0  0  0  0  0  0  0  0
  -29.3010  -22.4360   16.3370 C   0  0  0  0  0  2  0  0  0  0  0  0
  -28.2590  -22.6960   17.4260 C   0  0  0  0  0  2  0  0  0  0  0  0
  -28.8450  -23.5870   18.3790 O   0  0  0  0  0  0  0  0  0  0  0  0
  -27.9170  -24.5520   18.8550 C   0  0  0  0  0  2  0  0  0  0  0  0
  -28.3860  -25.3010   20.1250 C   0  0  0  0  0  2  0  0  0  0  0  0
  -28.4090  -26.7330   20.0280 O   0  0  0  0  0  0  0  0  0  0  0  0
  -24.6160  -31.8700   23.2130 C   0  0  0  0  0  0  0  0  0  0  0  0
  -27.2180  -27.4330   20.0830 C   0  0  0  0  0  0  0  0  0  0  0  0
  -23.4010  -30.4980   21.5570 C   0  0  0  0  0  3  0  0  0  0  0  0
  -24.8360  -28.9680   20.1260 C   0  0  0  0  0  0  0  0  0  0  0  0
  -25.9310  -30.8370   21.3630 C   0  0  0  0  0  2  0  0  0  0  0  0
  -26.0040  -29.4730   20.7110 C   0  0  0  0  0  0  0  0  0  0  0  0
  -27.1970  -28.7150   20.6810 C   0  0  0  0  0  3  0  0  0  0  0  0
  -26.0160  -26.9400   19.5200 C   0  0  0  0  0  3  0  0  0  0  0  0
  -24.8380  -27.6990   19.5340 C   0  0  0  0  0  3  0  0  0  0  0  0
  -23.6030  -29.8360   20.1720 C   0  0  0  0  0  2  0  0  0  0  0  0
  -24.6690  -31.0820   22.1030 N   0  0  0  0  0  0  0  0  0  0  0  0
  -23.5360  -32.1430   23.7540 O   0  0  0  0  0  0  0  0  0  0  0  0
  -22.7410  -29.4690   22.5050 C   0  0  0  0  0  0  0  0  0  0  0  0
  -21.4140  -29.3040   22.3750 N   0  0  0  0  0  0  0  0  0  0  0  0
  -23.4170  -28.8240   23.3080 O   0  0  0  0  0  0  0  0  0  0  0  0
  -20.9300  -29.8720   21.6940 H   0  0  0  0  0  0  0  0  0  0  0  0
  -18.0270  -28.1380   22.8510 C   0  0  0  0  0  0  0  0  0  0  0  0
  -20.5870  -28.3670   23.1340 C   0  0  0  0  0  3  0  0  0  0  0  0
  -20.6780  -26.9420   22.5410 C   0  0  0  0  0  2  0  0  0  0  0  0
  -19.5750  -26.6410   21.5210 C   0  0  0  0  0  2  0  0  0  0  0  0
  -18.1930  -26.7940   22.1620 C   0  0  0  0  0  2  0  0  0  0  0  0
  -19.1520  -28.8840   23.2920 C   0  0  0  0  0  0  0  0  0  0  0  0
  -18.9450  -30.1450   23.8920 C   0  0  0  0  0  3  0  0  0  0  0  0
  -17.6450  -30.6600   24.0570 C   0  0  0  0  0  3  0  0  0  0  0  0
  -16.5350  -29.9100   23.6340 C   0  0  0  0  0  3  0  0  0  0  0  0
  -16.7260  -28.6510   23.0360 C   0  0  0  0  0  3  0  0  0  0  0  0
  -25.9060  -32.4830   23.8410 C   0  0  0  0  0  3  0  0  0  0  0  0
  -25.5950  -33.8640   24.2340 N   0  0  0  0  0  0  0  0  0  0  0  0
  -25.9060  -34.9480   23.5120 C   0  0  0  0  0  0  0  0  0  0  0  0
  -26.5590  -34.8930   22.4680 O   0  0  0  0  0  0  0  0  0  0  0  0
  -25.0150  -33.9800   25.0520 H   0  0  0  0  0  0  0  0  0  0  0  0
  -24.1500  -36.7310   23.2640 C   0  0  0  0  0  1  0  0  0  0  0  0
  -25.4110  -36.3120   24.0340 C   0  0  0  0  0  3  0  0  0  0  0  0
  -27.5580  -37.1810   24.8470 C   0  0  0  0  0  1  0  0  0  0  0  0
  -26.4290  -37.3800   23.9420 N   0  0  0  0  0  0  0  0  0  0  0  0
  -26.0180  -38.2880   24.1420 H   0  0  0  0  0  0  0  0  0  0  0  0
  -26.4480  -31.6600   25.0730 C   0  0  1  0  0  0  0  0  0  0  0  0
  -25.3740  -31.3650   26.1460 C   0  0  0  0  0  1  0  0  0  0  0  0
  -27.0300  -30.3060   24.6080 C   0  0  0  0  0  1  0  0  0  0  0  0
  -27.6090  -32.4290   25.7460 C   0  0  0  0  0  1  0  0  0  0  0  0
  -33.5240  -22.9540   18.3330 C   0  0  0  0  0  2  0  0  0  0  0  0
  -33.5420  -21.4730   18.7440 C   0  0  0  0  0  2  0  0  0  0  0  0
  -32.2020  -20.9880   18.8230 O   0  0  0  0  0  0  0  0  0  0  0  0
  -32.1370  -19.5800   19.0320 C   0  0  0  0  0  2  0  0  0  0  0  0
  -30.6800  -19.0850   18.9940 C   0  0  0  0  0  2  0  0  0  0  0  0
  -30.0790  -19.1580   20.2860 O   0  0  0  0  0  0  0  0  0  0  0  0
  -28.7780  -18.5740   20.3200 C   0  0  0  0  0  2  0  0  0  0  0  0
  -28.2270  -18.5150   21.7580 C   0  0  0  0  0  2  0  0  0  0  0  0
  -28.5430  -17.2970   22.4310 O   0  0  0  0  0  0  0  0  0  0  0  0
  -29.8650  -17.2140   22.9500 C   0  0  0  0  0  2  0  0  0  0  0  0
  -30.7990  -16.4850   21.9760 C   0  0  0  0  0  2  0  0  0  0  0  0
  -30.7430  -14.3810   20.6740 C   0  0  0  0  0  0  0  0  0  0  0  0
  -30.4220  -12.2840   19.4200 C   0  0  0  0  0  2  0  0  0  0  0  0
  -29.4930  -12.4990   18.2080 C   0  0  0  0  0  2  0  0  0  0  0  0
  -28.0140  -12.3520   18.6200 C   0  0  0  0  0  2  0  0  0  0  0  0
  -27.6640  -13.1940   19.8780 C   0  0  0  0  0  3  0  0  0  0  0  0
  -28.6970  -12.9470   21.0010 C   0  0  0  0  0  2  0  0  0  0  0  0
  -30.0390  -13.2390   20.4670 N   0  0  0  0  0  0  0  0  0  0  0  0
  -31.7900  -14.6580   20.0810 O   0  0  0  0  0  0  0  0  0  0  0  0
  -30.2200  -15.2110   21.5800 N   0  0  0  0  0  0  0  0  0  0  0  0
  -29.3320  -14.9650   21.9940 H   0  0  0  0  0  0  0  0  0  0  0  0
  -25.2590  -13.8150   20.5650 C   0  0  0  0  0  0  0  0  0  0  0  0
  -24.1820  -13.0450   20.9130 C   0  0  0  0  0  0  0  0  0  0  0  0
  -24.6350  -11.6910   20.8680 C   0  0  0  0  0  0  0  0  0  0  0  0
  -26.3010  -12.9290   20.3330 N   0  0  0  0  0  0  0  0  0  0  0  0
  -25.9270  -11.6460   20.5720 N   0  0  0  0  0  0  0  0  0  0  0  0
  -23.9010  -10.4290   21.0390 C   0  0  0  0  0  0  0  0  0  0  0  0
  -24.3580   -9.4220   21.9180 C   0  0  0  0  0  3  0  0  0  0  0  0
  -23.6270   -8.2240   22.0750 C   0  0  0  0  0  3  0  0  0  0  0  0
  -22.4240   -8.0270   21.3550 C   0  0  0  0  0  0  0  0  0  0  0  0
  -21.9860   -9.0230   20.4640 C   0  0  0  0  0  3  0  0  0  0  0  0
  -22.7180  -10.2120   20.3040 C   0  0  0  0  0  3  0  0  0  0  0  0
  -21.6640   -6.8850   21.4240 O   0  0  0  0  0  0  0  0  0  0  0  0
  -21.6840   -6.0720   22.5290 C   0  0  0  0  0  0  0  0  0  0  0  0
  -21.4020   -6.5630   23.8230 C   0  0  0  0  0  3  0  0  0  0  0  0
  -21.3660   -5.6790   24.9190 C   0  0  0  0  0  3  0  0  0  0  0  0
  -21.6040   -4.3040   24.7230 C   0  0  0  0  0  0  0  0  0  0  0  0
  -21.8830   -3.8130   23.4340 C   0  0  0  0  0  3  0  0  0  0  0  0
  -21.9180   -4.6950   22.3400 C   0  0  0  0  0  0  0  0  0  0  0  0
  -22.1640   -4.2130   21.0980 F   0  0  0  0  0  0  0  0  0  0  0  0
  -21.5620   -3.4540   25.7740 F   0  0  0  0  0  0  0  0  0  0  0  0
  -22.7840  -13.5230   21.1810 C   0  0  0  0  0  0  0  0  0  0  0  0
  -22.0510  -12.8220   22.0400 N   0  0  0  0  0  0  0  0  0  0  0  0
  -22.3500  -14.5530   20.6650 O   0  0  0  0  0  0  0  0  0  0  0  0
  -22.4130  -11.9860   22.4740 H   0  0  0  0  0  0  0  0  0  0  0  0
  -21.1140  -13.1230   22.2680 H   0  0  0  0  0  0  0  0  0  0  0  0
  -25.4390  -15.1850   20.4070 N   0  0  0  0  0  0  0  0  0  0  0  0
  -24.6880  -15.8490   20.5560 H   0  0  0  0  0  0  0  0  0  0  0  0
  -26.3120  -15.6240   20.1410 H   0  0  0  0  0  0  0  0  0  0  0  0
  1  2  1  0
  1  3  2  0
  2 56  1  0
  4  2  1  0
  6  5  1  0
  6  7  1  0
  6  1  1  0
  7 10  1  0
  7  8  1  0
  9  7  1  0
 10 11  1  0
 11 12  1  0
 12 13  1  0
 13 14  1  0
 15 17  1  0
 15 14  1  0
 16 27  2  0
 17 22  1  0
 18 26  1  0
 18 28  1  0
 19 25  1  0
 19 21  1  0
 20 26  1  0
 21 20  1  0
 22 21  2  0
 23 24  1  0
 23 17  2  0
 24 19  2  0
 25 18  1  0
 26 16  1  0
 28 30  2  0
 29 28  1  0
 31 29  1  0
 32 41  2  0
 32 37  1  0
 33 29  1  0
 33 37  1  0
 34 33  1  0
 35 36  1  0
 35 34  1  0
 36 32  1  0
 37 38  2  0
 38 39  1  0
 40 39  2  0
 41 40  1  0
 42 16  1  0
 42 43  1  0
 42 52  1  0
 43 46  1  0
 44 48  1  0
 44 43  1  0
 45 44  2  0
 48 47  1  0
 50 48  1  0
 50 51  1  0
 50 49  1  0
 52 55  1  1
 52 53  1  0
 54 52  1  0
 56 57  1  0
 57 58  1  0
 58 59  1  0
 60 59  1  0
 60 61  1  0
 61 62  1  0
 62 63  1  0
 63 64  1  0
 64 65  1  0
 66 65  1  0
 67 75  1  0
 68 73  1  0
 69 70  1  0
 69 68  1  0
 71 70  1  0
 71 80  1  0
 71 72  1  0
 73 67  1  0
 73 72  1  0
 74 67  2  0
 75 66  1  0
 75 76  1  0
 77 78  2  0
 78 97  1  0
 79 78  1  0
 79 82  1  0
 80 77  1  0
 80 81  1  0
 81 79  2  0
 82 83  1  0
 83 84  2  0
 85 88  1  0
 85 84  1  0
 86 85  2  0
 87 86  1  0
 87 82  2  0
 88 89  1  0
 89 90  1  0
 90 91  2  0
 92 91  1  0
 92 96  1  0
 93 92  2  0
 94 89  2  0
 94 93  1  0
 95 94  1  0
 97 98  1  0
 98101  1  0
 98100  1  0
 99 97  2  0
102103  1  0
102 77  1  0
104102  1  0
M  ISO  4  14 101  15 101  67 100  75 100
M  END
>  <TORSDO>  (68) 
F 34

>  <SCORE>  (68) 
-5.795

>  <name>  (68) 
69

>  <ligand_id>  (68) 
69

>  <original_smiles>  (68) 
[H]c1c([H])c([H])c2c(c1[H])C([H])([H])C([H])([H])C([H])([H])C2([H])N([H])C(=O)C1([H])N(C(=O)C([H])(N([H])C(=O)C([H])(N([H])C([H])([H])[H])C([H])([H])[H])C(C([H])([H])[H])(C([H])([H])[H])C([H])([H])[H])C([H])([H])c2c([H])c(OC([H])([H])C([H])([H])OC([H])([H])C([H])([H])[N+]([H])([H])C([H])(C(=O)N([H])C([H])([H])C([H])([H])OC([H])([H])C([H])([H])OC([H])([H])C([H])([H])OC([H])([H])C([H])([H])N([H])C(=O)N3C([H])([H])C([H])([H])C([H])([H])C([H])(n4nc(-c5c([H])c([H])c(Oc6c([H])c([H])c(F)c([H])c6F)c([H])c5[H])c(C(=O)N([H])[H])c4N([H])[H])C3([H])[H])C([H])([H])[H])c([H])c([H])c2C1([H])[H]

>  <smiles>  (68) 
[H]c1c([H])c([H])c2c(c1[H])C([H])([H])C([H])([H])C([H])([H])C2([H])N([H])C(=O)C1([H])N(C(=O)C([H])(N([H])C(=O)C([H])(N([H])C([H])([H])[H])C([H])([H])[H])C(C([H])([H])[H])(C([H])([H])[H])C([H])([H])[H])C([H])([H])c2c([H])c(OC([H])([H])C([H])([H])OC([H])([H])C([H])([H])[N+]([H])([H])C([H])(C(=O)N([H])C([H])([H])C([H])([H])OC([H])([H])C([H])([H])OC([H])([H])C([H])([H])OC([H])([H])C([H])([H])N([H])C(=O)N3C([H])([H])C([H])([H])C([H])([H])C([H])(n4nc(-c5c([H])c([H])c(Oc6c([H])c([H])c(F)c([H])c6F)c([H])c5[H])c(C(=O)N([H])[H])c4N([H])[H])C3([H])[H])C([H])([H])[H])c([H])c([H])c2C1([H])[H]

$$$$
70:0:0
     RDKit          3D

110117  0  0  1  0  0  0  0  0999 V2000
  -27.2670  -24.0310   21.1870 C   0  0  0  0  0  3  0  0  0  0  0  0
  -27.7470  -22.5710   21.3510 C   0  0  0  0  0  0  0  0  0  0  0  0
  -29.0640  -22.3570   21.3630 N   0  0  0  0  0  0  0  0  0  0  0  0
  -26.9290  -21.6550   21.4890 O   0  0  0  0  0  0  0  0  0  0  0  0
  -29.6600  -23.1720   21.2830 H   0  0  0  0  0  0  0  0  0  0  0  0
  -29.7310  -21.1560   21.8590 C   0  0  0  0  0  3  0  0  0  0  0  0
  -30.5400  -21.5660   23.1020 C   0  0  0  0  0  0  0  0  0  0  0  0
  -30.9060  -20.6040   23.9380 N   0  0  0  0  0  0  0  0  0  0  0  0
  -30.8600  -22.7380   23.3040 O   0  0  0  0  0  0  0  0  0  0  0  0
  -30.6500  -19.6460   23.7440 H   0  0  0  0  0  0  0  0  0  0  0  0
  -31.4840  -20.8160   24.7370 H   0  0  0  0  0  0  0  0  0  0  0  0
  -30.6820  -20.5700   20.7860 C   0  0  0  0  0  2  0  0  0  0  0  0
  -30.0780  -19.4700   19.8900 C   0  0  0  0  0  2  0  0  0  0  0  0
  -29.9690  -18.0810   20.5680 C   0  0  0  0  0  2  0  0  0  0  0  0
  -30.0150  -16.9240   19.5480 C   0  0  0  0  0  2  0  0  0  0  0  0
  -30.6380  -14.5320   19.9230 C   0  0  0  0  0  0  0  0  0  0  0  0
  -30.5290  -12.1250   19.4130 C   0  0  0  0  0  2  0  0  0  0  0  0
  -29.5980  -11.9190   18.2000 C   0  0  0  0  0  2  0  0  0  0  0  0
  -28.1270  -11.7980   18.6470 C   0  0  0  0  0  2  0  0  0  0  0  0
  -27.7040  -12.9240   19.6280 C   0  0  0  0  0  3  0  0  0  0  0  0
  -28.7440  -13.0900   20.7570 C   0  0  0  0  0  2  0  0  0  0  0  0
  -30.0600  -13.3200   20.1370 N   0  0  0  0  0  0  0  0  0  0  0  0
  -31.7430  -14.6610   19.3930 O   0  0  0  0  0  0  0  0  0  0  0  0
  -29.8470  -15.5980   20.1570 N   0  0  0  0  0  0  0  0  0  0  0  0
  -28.9530  -15.4030   20.5840 H   0  0  0  0  0  0  0  0  0  0  0  0
  -25.3870  -13.6130   20.5090 C   0  0  0  0  0  0  0  0  0  0  0  0
  -24.2960  -12.8770   20.8870 C   0  0  0  0  0  0  0  0  0  0  0  0
  -24.6720  -11.5080   20.7360 C   0  0  0  0  0  0  0  0  0  0  0  0
  -26.3630  -12.6940   20.1600 N   0  0  0  0  0  0  0  0  0  0  0  0
  -25.9390  -11.4180   20.3520 N   0  0  0  0  0  0  0  0  0  0  0  0
  -23.8800  -10.2790   20.8770 C   0  0  0  0  0  0  0  0  0  0  0  0
  -24.2580   -9.2620   21.7820 C   0  0  0  0  0  3  0  0  0  0  0  0
  -23.4750   -8.0960   21.9140 C   0  0  0  0  0  3  0  0  0  0  0  0
  -22.2980   -7.9410   21.1440 C   0  0  0  0  0  0  0  0  0  0  0  0
  -21.9380   -8.9460   20.2290 C   0  0  0  0  0  3  0  0  0  0  0  0
  -22.7220  -10.1030   20.0950 C   0  0  0  0  0  3  0  0  0  0  0  0
  -21.4860   -6.8330   21.1900 O   0  0  0  0  0  0  0  0  0  0  0  0
  -21.3200   -6.1070   22.3430 C   0  0  0  0  0  0  0  0  0  0  0  0
  -20.8310   -6.6930   23.5300 C   0  0  0  0  0  3  0  0  0  0  0  0
  -20.6150   -5.8970   24.6710 C   0  0  0  0  0  3  0  0  0  0  0  0
  -20.8740   -4.5150   24.6270 C   0  0  0  0  0  0  0  0  0  0  0  0
  -21.3560   -3.9280   23.4440 C   0  0  0  0  0  3  0  0  0  0  0  0
  -21.5770   -4.7220   22.3040 C   0  0  0  0  0  0  0  0  0  0  0  0
  -22.0230   -4.1480   21.1610 F   0  0  0  0  0  0  0  0  0  0  0  0
  -20.6560   -3.7470   25.7190 F   0  0  0  0  0  0  0  0  0  0  0  0
  -22.9460  -13.4110   21.2730 C   0  0  0  0  0  0  0  0  0  0  0  0
  -22.2350  -12.7080   22.1490 N   0  0  0  0  0  0  0  0  0  0  0  0
  -22.5340  -14.4840   20.8340 O   0  0  0  0  0  0  0  0  0  0  0  0
  -22.5790  -11.8390   22.5280 H   0  0  0  0  0  0  0  0  0  0  0  0
  -21.3300  -13.0470   22.4430 H   0  0  0  0  0  0  0  0  0  0  0  0
  -25.6220  -14.9820   20.4140 N   0  0  0  0  0  0  0  0  0  0  0  0
  -24.8970  -15.6640   20.6030 H   0  0  0  0  0  0  0  0  0  0  0  0
  -26.4750  -15.4010   20.0670 H   0  0  0  0  0  0  0  0  0  0  0  0
  -25.2980  -24.7950   22.5260 C   0  0  0  0  0  0  0  0  0  0  0  0
  -25.8340  -24.1030   21.5100 N   0  0  0  0  0  0  0  0  0  0  0  0
  -25.9760  -25.5160   23.2630 O   0  0  0  0  0  0  0  0  0  0  0  0
  -25.2250  -23.5170   20.9570 H   0  0  0  0  0  0  0  0  0  0  0  0
  -23.7840  -24.6800   22.7520 C   0  0  0  0  0  3  0  0  0  0  0  0
  -23.3020  -25.7540   23.6420 N   0  0  0  0  0  4  0  0  0  0  0  0
  -23.7130  -25.6160   24.5510 H   0  0  0  0  0  0  0  0  0  0  0  0
  -22.3010  -25.7430   23.7330 H   0  0  0  0  0  0  0  0  0  0  0  0
  -23.5990  -26.6500   23.2980 H   0  0  0  0  0  0  0  0  0  0  0  0
  -23.3850  -23.3100   23.3300 C   0  0  0  0  0  2  0  0  0  0  0  0
  -23.7070  -21.8830   25.1890 C   0  0  0  0  0  1  0  0  0  0  0  0
  -23.9720  -23.1570   24.6200 O   0  0  0  0  0  0  0  0  0  0  0  0
  -27.4550  -24.4940   19.7230 C   0  0  0  0  0  2  0  0  0  0  0  0
  -28.7210  -25.1140   19.4880 O   0  0  0  0  0  0  0  0  0  0  0  0
  -28.8640  -25.4810   18.1150 C   0  0  0  0  0  2  0  0  0  0  0  0
  -29.4820  -26.8830   17.9060 C   0  0  0  0  0  2  0  0  0  0  0  0
  -29.1040  -27.8980   18.8420 O   0  0  0  0  0  0  0  0  0  0  0  0
  -24.5610  -31.4610   22.9490 C   0  0  0  0  0  0  0  0  0  0  0  0
  -27.8070  -28.3610   18.9360 C   0  0  0  0  0  0  0  0  0  0  0  0
  -23.5480  -30.2650   21.0340 C   0  0  0  0  0  3  0  0  0  0  0  0
  -25.1850  -29.3730   19.2940 C   0  0  0  0  0  0  0  0  0  0  0  0
  -25.9640  -31.0950   20.9260 C   0  0  0  0  0  2  0  0  0  0  0  0
  -26.2540  -29.9350   20.0000 C   0  0  0  0  0  0  0  0  0  0  0  0
  -27.5600  -29.4210   19.8350 C   0  0  0  0  0  3  0  0  0  0  0  0
  -26.7200  -27.8410   18.1970 C   0  0  0  0  0  3  0  0  0  0  0  0
  -25.4130  -28.3230   18.3920 C   0  0  0  0  0  3  0  0  0  0  0  0
  -23.8140  -29.9610   19.5350 C   0  0  0  0  0  2  0  0  0  0  0  0
  -24.7090  -30.9450   21.6970 N   0  0  0  0  0  0  0  0  0  0  0  0
  -23.4730  -31.4130   23.5380 O   0  0  0  0  0  0  0  0  0  0  0  0
  -23.1260  -28.9560   21.7390 C   0  0  0  0  0  0  0  0  0  0  0  0
  -21.8780  -28.5240   21.4950 N   0  0  0  0  0  0  0  0  0  0  0  0
  -23.9150  -28.3400   22.4610 O   0  0  0  0  0  0  0  0  0  0  0  0
  -21.2920  -29.0890   20.8970 H   0  0  0  0  0  0  0  0  0  0  0  0
  -18.8540  -26.5490   21.5100 C   0  0  0  0  0  0  0  0  0  0  0  0
  -21.2730  -27.3030   22.0230 C   0  0  0  0  0  3  0  0  0  0  0  0
  -21.7220  -26.0650   21.2120 C   0  0  0  0  0  2  0  0  0  0  0  0
  -20.7620  -25.7090   20.0730 C   0  0  0  0  0  2  0  0  0  0  0  0
  -19.3600  -25.4240   20.6220 C   0  0  0  0  0  2  0  0  0  0  0  0
  -19.7530  -27.4400   22.1540 C   0  0  0  0  0  0  0  0  0  0  0  0
  -19.2310  -28.4910   22.9400 C   0  0  0  0  0  3  0  0  0  0  0  0
  -17.8420  -28.6560   23.0930 C   0  0  0  0  0  3  0  0  0  0  0  0
  -16.9570  -27.7600   22.4670 C   0  0  0  0  0  3  0  0  0  0  0  0
  -17.4620  -26.7100   21.6800 C   0  0  0  0  0  3  0  0  0  0  0  0
  -25.7460  -32.1570   23.6900 C   0  0  0  0  0  3  0  0  0  0  0  0
  -25.2740  -33.4730   24.1380 N   0  0  0  0  0  0  0  0  0  0  0  0
  -25.5320  -34.6290   23.5080 C   0  0  0  0  0  0  0  0  0  0  0  0
  -26.2660  -34.7040   22.5180 O   0  0  0  0  0  0  0  0  0  0  0  0
  -24.6270  -33.4860   24.9120 H   0  0  0  0  0  0  0  0  0  0  0  0
  -23.6460  -36.2660   23.2190 C   0  0  0  0  0  1  0  0  0  0  0  0
  -24.8730  -35.9040   24.0690 C   0  0  0  0  0  3  0  0  0  0  0  0
  -26.8550  -36.8960   25.1200 C   0  0  0  0  0  1  0  0  0  0  0  0
  -25.7920  -37.0600   24.1330 N   0  0  0  0  0  0  0  0  0  0  0  0
  -25.2830  -37.9110   24.3570 H   0  0  0  0  0  0  0  0  0  0  0  0
  -26.3000  -31.3160   24.9050 C   0  0  1  0  0  0  0  0  0  0  0  0
  -25.2000  -30.8380   25.8820 C   0  0  0  0  0  1  0  0  0  0  0  0
  -27.0600  -30.0670   24.4030 C   0  0  0  0  0  1  0  0  0  0  0  0
  -27.3220  -32.1600   25.7010 C   0  0  0  0  0  1  0  0  0  0  0  0
  1 66  1  0
  1  2  1  0
  1 55  1  0
  2  3  1  0
  2  4  2  0
  3  6  1  0
  5  3  1  0
  6 12  1  0
  6  7  1  0
  7  9  2  0
  7  8  1  0
  8 11  1  0
 10  8  1  0
 13 14  1  0
 13 12  1  0
 15 24  1  0
 15 14  1  0
 16 22  1  0
 16 24  1  0
 17 22  1  0
 18 19  1  0
 18 17  1  0
 20 19  1  0
 20 29  1  0
 20 21  1  0
 22 21  1  0
 23 16  2  0
 24 25  1  0
 26 27  2  0
 27 46  1  0
 28 31  1  0
 28 27  1  0
 29 30  1  0
 29 26  1  0
 30 28  2  0
 31 32  1  0
 32 33  2  0
 34 37  1  0
 34 33  1  0
 35 34  2  0
 36 35  1  0
 36 31  2  0
 37 38  1  0
 38 39  1  0
 39 40  2  0
 41 40  1  0
 41 45  1  0
 42 41  2  0
 43 38  2  0
 43 42  1  0
 44 43  1  0
 46 47  1  0
 47 50  1  0
 47 49  1  0
 48 46  2  0
 51 26  1  0
 51 52  1  0
 53 51  1  0
 54 58  1  0
 54 56  2  0
 55 54  1  0
 57 55  1  0
 58 63  1  0
 58 59  1  0
 59 61  1  0
 59 60  1  0
 62 59  1  0
 63 65  1  0
 65 64  1  0
 67 66  1  0
 68 67  1  0
 69 68  1  0
 69 70  1  0
 70 72  1  0
 71 82  2  0
 72 77  1  0
 73 81  1  0
 73 83  1  0
 74 80  1  0
 74 76  1  0
 75 81  1  0
 76 75  1  0
 77 76  2  0
 78 79  1  0
 78 72  2  0
 79 74  2  0
 80 73  1  0
 81 71  1  0
 83 85  2  0
 84 83  1  0
 86 84  1  0
 87 96  2  0
 87 92  1  0
 88 84  1  0
 88 92  1  0
 89 88  1  0
 90 91  1  0
 90 89  1  0
 91 87  1  0
 92 93  2  0
 93 94  1  0
 95 94  2  0
 96 95  1  0
 97 71  1  0
 97 98  1  0
 97107  1  0
 98101  1  0
 99103  1  0
 99 98  1  0
100 99  2  0
103102  1  0
103105  1  0
105106  1  0
105104  1  0
107110  1  1
107108  1  0
109107  1  0
M  ISO  4  16 100  24 100  69 101  70 101
M  END
>  <TORSDO>  (69) 
F 32

>  <SCORE>  (69) 
-2.172

>  <name>  (69) 
70

>  <ligand_id>  (69) 
70

>  <original_smiles>  (69) 
[H]c1c([H])c([H])c2c(c1[H])C([H])([H])C([H])([H])C([H])([H])C2([H])N([H])C(=O)C1([H])N(C(=O)C([H])(N([H])C(=O)C([H])(N([H])C([H])([H])[H])C([H])([H])[H])C(C([H])([H])[H])(C([H])([H])[H])C([H])([H])[H])C([H])([H])c2c([H])c(OC([H])([H])C([H])([H])OC([H])([H])C([H])(C(=O)N([H])C([H])(C(=O)N([H])[H])C([H])([H])C([H])([H])C([H])([H])C([H])([H])N([H])C(=O)N3C([H])([H])C([H])([H])C([H])([H])C([H])(n4nc(-c5c([H])c([H])c(Oc6c([H])c([H])c(F)c([H])c6F)c([H])c5[H])c(C(=O)N([H])[H])c4N([H])[H])C3([H])[H])N([H])C(=O)C([H])(C([H])([H])OC([H])([H])[H])[N+]([H])([H])[H])c([H])c([H])c2C1([H])[H]

>  <smiles>  (69) 
[H]c1c([H])c([H])c2c(c1[H])C([H])([H])C([H])([H])C([H])([H])C2([H])N([H])C(=O)C1([H])N(C(=O)C([H])(N([H])C(=O)C([H])(N([H])C([H])([H])[H])C([H])([H])[H])C(C([H])([H])[H])(C([H])([H])[H])C([H])([H])[H])C([H])([H])c2c([H])c(OC([H])([H])C([H])([H])OC([H])([H])C([H])(C(=O)N([H])C([H])(C(=O)N([H])[H])C([H])([H])C([H])([H])C([H])([H])C([H])([H])N([H])C(=O)N3C([H])([H])C([H])([H])C([H])([H])C([H])(n4nc(-c5c([H])c([H])c(Oc6c([H])c([H])c(F)c([H])c6F)c([H])c5[H])c(C(=O)N([H])[H])c4N([H])[H])C3([H])[H])N([H])C(=O)C([H])(C([H])([H])OC([H])([H])[H])[N+]([H])([H])[H])c([H])c([H])c2C1([H])[H]

$$$$
71:0:0
     RDKit          3D

104112  0  0  1  0  0  0  0  0999 V2000
  -32.9660  -24.2050   21.4090 C   0  0  0  0  0  3  0  0  0  0  0  0
  -31.7210  -24.3970   22.2880 C   0  0  0  0  0  2  0  0  0  0  0  0
  -31.2150  -23.1200   22.6460 O   0  0  0  0  0  0  0  0  0  0  0  0
  -31.3500  -22.1480   21.6160 C   0  0  0  0  0  2  0  0  0  0  0  0
  -32.7730  -21.5740   21.6570 C   0  0  0  0  0  2  0  0  0  0  0  0
  -33.6200  -22.4520   20.9170 O   0  0  0  0  0  0  0  0  0  0  0  0
  -32.9530  -23.5130   20.2390 C   0  0  0  0  0  3  0  0  0  0  0  0
  -31.6120  -23.0620   19.6290 C   0  0  0  0  0  2  0  0  0  0  0  0
  -30.9350  -24.1940   19.1110 O   0  0  0  0  0  0  0  0  0  0  0  0
  -29.5690  -23.9740   18.8040 C   0  0  0  0  0  2  0  0  0  0  0  0
  -29.5460  -23.2140   17.4730 C   0  0  0  0  0  2  0  0  0  0  0  0
  -28.2750  -23.4520   16.6230 C   0  0  0  0  0  2  0  0  0  0  0  0
  -28.5130  -23.1670   15.2400 O   0  0  0  0  0  0  0  0  0  0  0  0
  -30.6160  -28.2440   10.7580 C   0  0  0  0  0  0  0  0  0  0  0  0
  -29.5950  -23.7890   14.6570 C   0  0  0  0  0  0  0  0  0  0  0  0
  -32.3620  -26.6300   11.4430 C   0  0  0  0  0  3  0  0  0  0  0  0
  -31.7500  -25.0910   13.3800 C   0  0  0  0  0  0  0  0  0  0  0  0
  -30.3910  -27.1580   12.9880 C   0  0  0  0  0  2  0  0  0  0  0  0
  -30.5230  -25.7520   13.5340 C   0  0  0  0  0  0  0  0  0  0  0  0
  -29.4480  -25.1100   14.1810 C   0  0  0  0  0  3  0  0  0  0  0  0
  -30.8400  -23.1360   14.4960 C   0  0  0  0  0  3  0  0  0  0  0  0
  -31.9130  -23.7800   13.8550 C   0  0  0  0  0  3  0  0  0  0  0  0
  -32.8550  -25.8600   12.6970 C   0  0  0  0  0  2  0  0  0  0  0  0
  -31.0780  -27.3640   11.6900 N   0  0  0  0  0  0  0  0  0  0  0  0
  -31.2660  -28.4870    9.7310 O   0  0  0  0  0  0  0  0  0  0  0  0
  -32.2890  -25.6450   10.2560 C   0  0  0  0  0  0  0  0  0  0  0  0
  -31.6960  -24.4640   10.4910 N   0  0  0  0  0  0  0  0  0  0  0  0
  -32.7340  -25.9550    9.1480 O   0  0  0  0  0  0  0  0  0  0  0  0
  -31.3640  -24.2780   11.4270 H   0  0  0  0  0  0  0  0  0  0  0  0
  -29.1490  -22.4990    8.8520 C   0  0  0  0  0  0  0  0  0  0  0  0
  -31.4810  -23.3980    9.5140 C   0  0  0  0  0  3  0  0  0  0  0  0
  -31.5730  -23.9340    8.0680 C   0  0  0  0  0  2  0  0  0  0  0  0
  -30.2160  -24.3460    7.4910 C   0  0  0  0  0  2  0  0  0  0  0  0
  -29.2500  -23.1590    7.4860 C   0  0  0  0  0  2  0  0  0  0  0  0
  -30.1900  -22.6250    9.8090 C   0  0  0  0  0  0  0  0  0  0  0  0
  -30.0310  -22.0240   11.0760 C   0  0  0  0  0  3  0  0  0  0  0  0
  -28.8620  -21.3070   11.3920 C   0  0  0  0  0  3  0  0  0  0  0  0
  -27.8420  -21.1710   10.4350 C   0  0  0  0  0  3  0  0  0  0  0  0
  -27.9880  -21.7630    9.1670 C   0  0  0  0  0  3  0  0  0  0  0  0
  -29.2700  -29.0090   10.9490 C   0  0  0  0  0  3  0  0  0  0  0  0
  -28.1520  -28.1370   11.6390 C   0  0  1  0  0  0  0  0  0  0  0  0
  -27.9750  -26.7390   11.0020 C   0  0  0  0  0  1  0  0  0  0  0  0
  -28.4600  -27.9370   13.1410 C   0  0  0  0  0  1  0  0  0  0  0  0
  -26.7930  -28.8710   11.5600 C   0  0  0  0  0  1  0  0  0  0  0  0
  -28.8310  -29.4670    9.6250 N   0  0  0  0  0  0  0  0  0  0  0  0
  -29.5870  -30.1870    8.7860 C   0  0  0  0  0  0  0  0  0  0  0  0
  -30.7110  -30.6030    9.0840 O   0  0  0  0  0  0  0  0  0  0  0  0
  -27.9410  -29.1240    9.2940 H   0  0  0  0  0  0  0  0  0  0  0  0
  -28.9420  -29.2030    6.5630 C   0  0  0  0  0  1  0  0  0  0  0  0
  -29.0020  -30.4950    7.3930 C   0  0  0  0  0  3  0  0  0  0  0  0
  -30.4300  -32.4880    7.5290 C   0  0  0  0  0  1  0  0  0  0  0  0
  -29.7590  -31.5290    6.6540 N   0  0  0  0  0  0  0  0  0  0  0  0
  -29.1510  -32.0450    6.0260 H   0  0  0  0  0  0  0  0  0  0  0  0
  -34.1060  -25.1690   21.7910 C   0  0  0  0  0  2  0  0  0  0  0  0
  -36.2300  -24.8430   20.5300 C   0  0  0  0  0  0  0  0  0  0  0  0
  -35.4350  -24.5920   21.5830 N   0  0  0  0  0  0  0  0  0  0  0  0
  -35.9410  -25.6870   19.6770 O   0  0  0  0  0  0  0  0  0  0  0  0
  -35.7340  -23.8960   22.2530 H   0  0  0  0  0  0  0  0  0  0  0  0
  -37.5410  -24.0300   20.3920 C   0  0  0  0  0  3  0  0  0  0  0  0
  -38.5650  -24.6830   21.2260 N   0  0  0  0  0  4  0  0  0  0  0  0
  -38.2060  -24.7800   22.1600 H   0  0  0  0  0  0  0  0  0  0  0  0
  -38.7290  -25.6060   20.8650 H   0  0  0  0  0  0  0  0  0  0  0  0
  -39.4070  -24.1390   21.2470 H   0  0  0  0  0  0  0  0  0  0  0  0
  -36.9110  -23.3600   17.9190 C   0  0  0  0  0  1  0  0  0  0  0  0
  -38.9830  -22.4940   18.9460 C   0  0  0  0  0  1  0  0  0  0  0  0
  -38.0440  -23.7290   18.9090 C   0  0  2  0  0  0  0  0  0  0  0  0
  -39.4060  -25.9410   18.7910 C   0  0  0  0  0  0  0  0  0  0  0  0
  -40.5370  -28.0630   18.2330 C   0  0  0  0  0  2  0  0  0  0  0  0
  -39.6010  -29.2740   18.4060 C   0  0  0  0  0  2  0  0  0  0  0  0
  -38.7740  -29.5120   17.1280 C   0  0  0  0  0  2  0  0  0  0  0  0
  -38.0790  -28.2220   16.6250 C   0  0  0  0  0  3  0  0  0  0  0  0
  -39.0950  -27.0570   16.5480 C   0  0  0  0  0  2  0  0  0  0  0  0
  -39.7290  -26.8880   17.8740 N   0  0  0  0  0  0  0  0  0  0  0  0
  -39.7550  -26.0050   19.9730 O   0  0  0  0  0  0  0  0  0  0  0  0
  -38.6780  -24.9260   18.2920 N   0  0  0  0  0  0  0  0  0  0  0  0
  -38.6020  -24.9710   17.2850 H   0  0  0  0  0  0  0  0  0  0  0  0
  -36.6550  -29.5280   14.9210 C   0  0  0  0  0  0  0  0  0  0  0  0
  -36.3090  -29.2600   13.6220 C   0  0  0  0  0  0  0  0  0  0  0  0
  -36.8950  -27.9950   13.3120 C   0  0  0  0  0  0  0  0  0  0  0  0
  -37.4100  -28.4430   15.3440 N   0  0  0  0  0  0  0  0  0  0  0  0
  -37.5020  -27.4950   14.3790 N   0  0  0  0  0  0  0  0  0  0  0  0
  -36.9620  -27.2550   12.0450 C   0  0  0  0  0  0  0  0  0  0  0  0
  -37.6100  -26.0030   11.9560 C   0  0  0  0  0  3  0  0  0  0  0  0
  -37.6480  -25.3030   10.7310 C   0  0  0  0  0  3  0  0  0  0  0  0
  -37.0300  -25.8500    9.5820 C   0  0  0  0  0  0  0  0  0  0  0  0
  -36.4060  -27.1070    9.6710 C   0  0  0  0  0  3  0  0  0  0  0  0
  -36.3730  -27.8050   10.8900 C   0  0  0  0  0  3  0  0  0  0  0  0
  -37.0380  -25.2530    8.3440 O   0  0  0  0  0  0  0  0  0  0  0  0
  -38.0150  -24.3620    7.9820 C   0  0  0  0  0  0  0  0  0  0  0  0
  -38.7920  -23.6790    8.9440 C   0  0  0  0  0  3  0  0  0  0  0  0
  -39.7380  -22.7190    8.5320 C   0  0  0  0  0  3  0  0  0  0  0  0
  -39.9020  -22.4330    7.1640 C   0  0  0  0  0  0  0  0  0  0  0  0
  -39.1260  -23.1070    6.2050 C   0  0  0  0  0  3  0  0  0  0  0  0
  -38.1820  -24.0660    6.6150 C   0  0  0  0  0  0  0  0  0  0  0  0
  -37.4210  -24.6980    5.6900 F   0  0  0  0  0  0  0  0  0  0  0  0
  -40.8040  -21.5050    6.7670 F   0  0  0  0  0  0  0  0  0  0  0  0
  -35.5680  -30.1720   12.6880 C   0  0  0  0  0  0  0  0  0  0  0  0
  -34.9830  -29.6200   11.6300 N   0  0  0  0  0  0  0  0  0  0  0  0
  -35.4680  -31.3760   12.9160 O   0  0  0  0  0  0  0  0  0  0  0  0
  -35.0490  -28.6280   11.4560 H   0  0  0  0  0  0  0  0  0  0  0  0
  -34.4620  -30.1970   10.9860 H   0  0  0  0  0  0  0  0  0  0  0  0
  -36.4190  -30.6060   15.7680 N   0  0  0  0  0  0  0  0  0  0  0  0
  -36.0140  -31.4400   15.3580 H   0  0  0  0  0  0  0  0  0  0  0  0
  -37.1160  -30.8290   16.4670 H   0  0  0  0  0  0  0  0  0  0  0  0
  1 54  1  0
  1  2  1  0
  2  3  1  0
  4  5  1  0
  4  3  1  0
  6  5  1  0
  7  8  1  0
  7  6  1  0
  7  1  1  0
  9  8  1  0
 10  9  1  0
 11 10  1  0
 12 11  1  0
 13 12  1  0
 14 24  1  0
 15 13  1  0
 16 26  1  0
 16 24  1  0
 16 23  1  0
 17 19  2  0
 17 22  1  0
 18 19  1  0
 19 20  1  0
 20 15  2  0
 21 15  1  0
 22 21  2  0
 23 17  1  0
 24 18  1  0
 25 14  2  0
 26 27  1  0
 27 29  1  0
 28 26  2  0
 30 39  2  0
 30 35  1  0
 31 35  1  0
 31 27  1  0
 32 31  1  0
 33 32  1  0
 34 33  1  0
 34 30  1  0
 35 36  2  0
 36 37  1  0
 38 37  2  0
 39 38  1  0
 40 14  1  0
 40 41  1  0
 41 43  1  1
 42 41  1  0
 44 41  1  0
 45 40  1  0
 46 47  2  0
 46 45  1  0
 48 45  1  0
 50 49  1  0
 50 46  1  0
 52 50  1  0
 52 51  1  0
 53 52  1  0
 55 56  1  0
 56 54  1  0
 56 58  1  0
 57 55  2  0
 59 55  1  0
 59 60  1  0
 60 63  1  0
 60 61  1  0
 62 60  1  0
 66 64  1  6
 66 65  1  0
 66 59  1  0
 67 74  2  0
 68 69  1  0
 70 69  1  0
 71 80  1  0
 71 70  1  0
 72 71  1  0
 72 73  1  0
 73 68  1  0
 73 67  1  0
 75 67  1  0
 75 66  1  0
 76 75  1  0
 77 80  1  0
 77102  1  0
 78 77  2  0
 79 78  1  0
 79 81  2  0
 81 80  1  0
 82 79  1  0
 83 82  1  0
 84 83  2  0
 85 86  2  0
 85 84  1  0
 86 87  1  0
 87 82  2  0
 88 85  1  0
 89 88  1  0
 89 90  1  0
 91 90  2  0
 92 91  1  0
 93 94  1  0
 93 92  2  0
 94 89  2  0
 95 94  1  0
 96 92  1  0
 97 99  2  0
 97 78  1  0
 98 97  1  0
100 98  1  0
101 98  1  0
102104  1  0
103102  1  0
M  ISO  4  12 101  13 101  67 100  75 100
M  END
>  <TORSDO>  (70) 
F 32

>  <SCORE>  (70) 
6.412

>  <name>  (70) 
71

>  <ligand_id>  (70) 
71

>  <original_smiles>  (70) 
[H]c1c([H])c([H])c2c(c1[H])C([H])([H])C([H])([H])C([H])([H])C2([H])N([H])C(=O)C1([H])N(C(=O)C([H])(N([H])C(=O)C([H])(N([H])C([H])([H])[H])C([H])([H])[H])C(C([H])([H])[H])(C([H])([H])[H])C([H])([H])[H])C([H])([H])c2c([H])c(OC([H])([H])C([H])([H])C([H])([H])OC([H])([H])C([H])([H])OC([H])([H])C([H])([H])OC([H])([H])C([H])([H])C([H])([H])N([H])C(=O)C([H])(C(N([H])C(=O)N3C([H])([H])C([H])([H])C([H])([H])C([H])(n4nc(-c5c([H])c([H])c(Oc6c([H])c([H])c(F)c([H])c6F)c([H])c5[H])c(C(=O)N([H])[H])c4N([H])[H])C3([H])[H])(C([H])([H])[H])C([H])([H])[H])[N+]([H])([H])[H])c([H])c([H])c2C1([H])[H]

>  <smiles>  (70) 
[H]c1c([H])c([H])c2c(c1[H])C([H])([H])C([H])([H])C([H])([H])C2([H])N([H])C(=O)C1([H])N(C(=O)C([H])(N([H])C(=O)C([H])(N([H])C([H])([H])[H])C([H])([H])[H])C(C([H])([H])[H])(C([H])([H])[H])C([H])([H])[H])C([H])([H])c2c([H])c(OC([H])([H])C([H])([H])C([H])([H])OC([H])([H])C([H])([H])OC([H])([H])C([H])([H])OC([H])([H])C([H])([H])C([H])([H])N([H])C(=O)C([H])(C(N([H])C(=O)N3C([H])([H])C([H])([H])C([H])([H])C([H])(n4nc(-c5c([H])c([H])c(Oc6c([H])c([H])c(F)c([H])c6F)c([H])c5[H])c(C(=O)N([H])[H])c4N([H])[H])C3([H])[H])(C([H])([H])[H])C([H])([H])[H])[N+]([H])([H])[H])c([H])c([H])c2C1([H])[H]

$$$$
72:0:0
     RDKit          3D

100108  0  0  1  0  0  0  0  0999 V2000
  -29.4780  -20.4180   21.0070 C   0  0  0  0  0  0  0  0  0  0  0  0
  -30.7650  -19.5810   21.0370 C   0  0  0  0  0  2  0  0  0  0  0  0
  -29.3350  -17.5510   20.8440 C   0  0  0  0  0  2  0  0  0  0  0  0
  -28.1490  -18.4030   20.3680 C   0  0  0  0  0  2  0  0  0  0  0  0
  -30.6490  -18.1930   20.3660 C   0  0  0  0  0  3  0  0  0  0  0  0
  -28.3180  -19.8460   20.5970 N   0  0  0  0  0  0  0  0  0  0  0  0
  -29.5530  -21.5970   21.3590 O   0  0  0  0  0  0  0  0  0  0  0  0
  -31.9130  -17.3180   20.6000 C   0  0  0  0  0  3  0  0  0  0  0  0
  -32.1970  -14.8240   20.5790 C   0  0  0  0  0  0  0  0  0  0  0  0
  -31.7950  -12.5860   19.6580 C   0  0  0  0  0  2  0  0  0  0  0  0
  -30.9740  -12.7440   18.3620 C   0  0  0  0  0  2  0  0  0  0  0  0
  -29.4630  -12.7970   18.6660 C   0  0  0  0  0  2  0  0  0  0  0  0
  -29.1110  -13.8010   19.7960 C   0  0  0  0  0  3  0  0  0  0  0  0
  -30.0450  -13.5970   21.0120 C   0  0  0  0  0  2  0  0  0  0  0  0
  -31.4370  -13.7020   20.5400 N   0  0  0  0  0  0  0  0  0  0  0  0
  -33.3800  -14.8650   20.2330 O   0  0  0  0  0  0  0  0  0  0  0  0
  -31.4960  -15.9360   20.8380 N   0  0  0  0  0  0  0  0  0  0  0  0
  -30.5230  -15.7970   21.0490 H   0  0  0  0  0  0  0  0  0  0  0  0
  -26.7670  -14.7230   20.3230 C   0  0  0  0  0  0  0  0  0  0  0  0
  -25.5840  -14.1000   20.6210 C   0  0  0  0  0  0  0  0  0  0  0  0
  -25.8690  -12.7000   20.6320 C   0  0  0  0  0  0  0  0  0  0  0  0
  -27.7040  -13.7130   20.1760 N   0  0  0  0  0  0  0  0  0  0  0  0
  -27.1620  -12.4910   20.4170 N   0  0  0  0  0  0  0  0  0  0  0  0
  -24.9770  -11.5430   20.7760 C   0  0  0  0  0  0  0  0  0  0  0  0
  -25.2330  -10.5270   21.7240 C   0  0  0  0  0  3  0  0  0  0  0  0
  -24.3500   -9.4330   21.8560 C   0  0  0  0  0  3  0  0  0  0  0  0
  -23.1980   -9.3470   21.0390 C   0  0  0  0  0  0  0  0  0  0  0  0
  -22.9610  -10.3500   20.0810 C   0  0  0  0  0  3  0  0  0  0  0  0
  -23.8430  -11.4350   19.9470 C   0  0  0  0  0  3  0  0  0  0  0  0
  -22.3000   -8.3090   21.0800 O   0  0  0  0  0  0  0  0  0  0  0  0
  -22.0590   -7.6100   22.2350 C   0  0  0  0  0  0  0  0  0  0  0  0
  -21.6130   -8.2480   23.4130 C   0  0  0  0  0  3  0  0  0  0  0  0
  -21.3120   -7.4820   24.5570 C   0  0  0  0  0  3  0  0  0  0  0  0
  -21.4460   -6.0820   24.5240 C   0  0  0  0  0  0  0  0  0  0  0  0
  -21.8860   -5.4440   23.3500 C   0  0  0  0  0  3  0  0  0  0  0  0
  -22.1880   -6.2070   22.2080 C   0  0  0  0  0  0  0  0  0  0  0  0
  -22.5910   -5.5850   21.0730 F   0  0  0  0  0  0  0  0  0  0  0  0
  -21.1500   -5.3450   25.6200 F   0  0  0  0  0  0  0  0  0  0  0  0
  -24.2430  -14.7540   20.7870 C   0  0  0  0  0  0  0  0  0  0  0  0
  -23.3790  -14.1800   21.6170 N   0  0  0  0  0  0  0  0  0  0  0  0
  -23.9710  -15.8100   20.2160 O   0  0  0  0  0  0  0  0  0  0  0  0
  -23.6080  -13.3250   22.1010 H   0  0  0  0  0  0  0  0  0  0  0  0
  -22.4740  -14.6030   21.7690 H   0  0  0  0  0  0  0  0  0  0  0  0
  -27.1190  -16.0590   20.1470 N   0  0  0  0  0  0  0  0  0  0  0  0
  -26.4290  -16.8010   20.1730 H   0  0  0  0  0  0  0  0  0  0  0  0
  -28.0170  -16.3670   19.8000 H   0  0  0  0  0  0  0  0  0  0  0  0
  -32.8580  -17.3760   19.3790 C   0  0  0  0  0  0  0  0  0  0  0  0
  -33.9840  -18.0630   19.4920 N   0  0  0  0  0  0  0  0  0  0  0  0
  -32.5630  -16.8020   18.3300 O   0  0  0  0  0  0  0  0  0  0  0  0
  -34.2210  -18.5250   20.3600 H   0  0  0  0  0  0  0  0  0  0  0  0
  -34.6300  -18.1100   18.7170 H   0  0  0  0  0  0  0  0  0  0  0  0
  -27.1230  -20.6500   20.3050 C   0  0  0  0  0  2  0  0  0  0  0  0
  -27.2870  -21.4680   19.0050 C   0  0  0  0  0  2  0  0  0  0  0  0
  -28.4670  -22.2630   18.9880 O   0  0  0  0  0  0  0  0  0  0  0  0
  -28.3750  -23.4810   19.7210 C   0  0  0  0  0  2  0  0  0  0  0  0
  -29.7190  -24.2180   19.6250 C   0  0  0  0  0  2  0  0  0  0  0  0
  -29.7850  -25.2130   20.6430 O   0  0  0  0  0  0  0  0  0  0  0  0
  -31.1200  -25.5170   21.0300 C   0  0  0  0  0  2  0  0  0  0  0  0
  -31.1630  -26.7580   21.9360 C   0  0  0  0  0  2  0  0  0  0  0  0
  -30.9420  -27.9540   21.1970 O   0  0  0  0  0  0  0  0  0  0  0  0
  -25.5210  -31.6560   23.9130 C   0  0  0  0  0  0  0  0  0  0  0  0
  -29.6290  -28.3250   21.0900 C   0  0  0  0  0  0  0  0  0  0  0  0
  -24.9630  -30.1480   22.0310 C   0  0  0  0  0  3  0  0  0  0  0  0
  -26.9540  -29.1480   20.7910 C   0  0  0  0  0  0  0  0  0  0  0  0
  -27.3070  -31.1430   22.2610 C   0  0  0  0  0  2  0  0  0  0  0  0
  -27.8340  -29.8980   21.5810 C   0  0  0  0  0  0  0  0  0  0  0  0
  -29.1750  -29.4930   21.7330 C   0  0  0  0  0  3  0  0  0  0  0  0
  -28.7380  -27.5720   20.2980 C   0  0  0  0  0  3  0  0  0  0  0  0
  -27.3980  -27.9780   20.1480 C   0  0  0  0  0  3  0  0  0  0  0  0
  -25.5370  -29.6610   20.6720 C   0  0  0  0  0  2  0  0  0  0  0  0
  -25.9350  -30.9940   22.7960 N   0  0  0  0  0  0  0  0  0  0  0  0
  -24.3410  -31.6020   24.2870 O   0  0  0  0  0  0  0  0  0  0  0  0
  -24.4700  -28.9170   22.8250 C   0  0  0  0  0  0  0  0  0  0  0  0
  -23.2990  -28.3870   22.4360 N   0  0  0  0  0  0  0  0  0  0  0  0
  -25.1450  -28.4450   23.7420 O   0  0  0  0  0  0  0  0  0  0  0  0
  -22.8040  -28.8380   21.6790 H   0  0  0  0  0  0  0  0  0  0  0  0
  -20.3760  -26.2770   22.2220 C   0  0  0  0  0  0  0  0  0  0  0  0
  -22.6540  -27.2080   23.0120 C   0  0  0  0  0  3  0  0  0  0  0  0
  -23.2690  -25.9070   22.4470 C   0  0  0  0  0  2  0  0  0  0  0  0
  -22.5170  -25.3670   21.2250 C   0  0  0  0  0  2  0  0  0  0  0  0
  -21.0540  -25.0810   21.5760 C   0  0  0  0  0  2  0  0  0  0  0  0
  -21.1280  -27.2850   22.8820 C   0  0  0  0  0  0  0  0  0  0  0  0
  -20.4490  -28.3950   23.4320 C   0  0  0  0  0  3  0  0  0  0  0  0
  -19.0500  -28.5030   23.3370 C   0  0  0  0  0  3  0  0  0  0  0  0
  -18.3090  -27.4930   22.6970 C   0  0  0  0  0  3  0  0  0  0  0  0
  -18.9720  -26.3840   22.1440 C   0  0  0  0  0  3  0  0  0  0  0  0
  -26.5020  -32.5260   24.7590 C   0  0  0  0  0  3  0  0  0  0  0  0
  -26.8260  -31.9030   26.1720 C   0  0  1  0  0  0  0  0  0  0  0  0
  -25.5720  -31.4570   26.9570 C   0  0  0  0  0  1  0  0  0  0  0  0
  -27.7540  -30.6740   26.0250 C   0  0  0  0  0  1  0  0  0  0  0  0
  -27.5880  -32.9330   27.0400 C   0  0  0  0  0  1  0  0  0  0  0  0
  -25.8990  -33.8560   24.9050 N   0  0  0  0  0  0  0  0  0  0  0  0
  -26.1950  -34.9130   24.1370 C   0  0  0  0  0  0  0  0  0  0  0  0
  -27.0720  -34.8860   23.2680 O   0  0  0  0  0  0  0  0  0  0  0  0
  -25.1410  -33.9420   25.5680 H   0  0  0  0  0  0  0  0  0  0  0  0
  -24.2870  -36.3240   23.3040 C   0  0  0  0  0  1  0  0  0  0  0  0
  -25.3910  -36.2070   24.3670 C   0  0  0  0  0  3  0  0  0  0  0  0
  -27.1510  -37.5040   25.4840 C   0  0  0  0  0  1  0  0  0  0  0  0
  -26.2220  -37.4300   24.3600 N   0  0  0  0  0  0  0  0  0  0  0  0
  -25.6370  -38.2610   24.3780 H   0  0  0  0  0  0  0  0  0  0  0  0
  1  2  1  0
  1  7  2  0
  4  6  1  0
  4  3  1  0
  5  8  1  0
  5  3  1  0
  5  2  1  0
  6  1  1  0
  8 47  1  0
  8 17  1  0
  9 17  1  0
 10 15  1  0
 11 12  1  0
 11 10  1  0
 13 12  1  0
 13 22  1  0
 13 14  1  0
 15  9  1  0
 15 14  1  0
 16  9  2  0
 17 18  1  0
 19 20  2  0
 20 21  1  0
 20 39  1  0
 21 24  1  0
 22 19  1  0
 22 23  1  0
 23 21  2  0
 24 25  1  0
 25 26  2  0
 27 30  1  0
 27 26  1  0
 28 27  2  0
 29 28  1  0
 29 24  2  0
 30 31  1  0
 31 32  1  0
 32 33  2  0
 34 33  1  0
 34 38  1  0
 35 34  2  0
 36 31  2  0
 36 35  1  0
 37 36  1  0
 39 40  1  0
 40 43  1  0
 40 42  1  0
 41 39  2  0
 44 45  1  0
 44 19  1  0
 46 44  1  0
 47 48  1  0
 48 50  1  0
 49 47  2  0
 51 48  1  0
 52  6  1  0
 53 52  1  0
 54 53  1  0
 54 55  1  0
 56 55  1  0
 56 57  1  0
 57 58  1  0
 58 59  1  0
 60 59  1  0
 61 72  2  0
 62 60  1  0
 62 67  1  0
 63 71  1  0
 63 73  1  0
 64 66  1  0
 65 71  1  0
 66 67  2  0
 66 65  1  0
 68 62  2  0
 69 68  1  0
 69 64  2  0
 70 64  1  0
 70 63  1  0
 71 61  1  0
 73 75  2  0
 74 73  1  0
 76 74  1  0
 77 82  1  0
 78 74  1  0
 79 78  1  0
 80 81  1  0
 80 79  1  0
 81 77  1  0
 82 78  1  0
 82 83  2  0
 84 83  1  0
 85 84  2  0
 86 77  2  0
 86 85  1  0
 87 61  1  0
 87 92  1  0
 87 88  1  0
 88 89  1  1
 88 91  1  0
 90 88  1  0
 92 95  1  0
 93 97  1  0
 93 92  1  0
 94 93  2  0
 97 96  1  0
 99 97  1  0
 99100  1  0
 99 98  1  0
M  ISO  4   9 100  17 100  59 101  60 101
M  END
>  <TORSDO>  (71) 
F 26

>  <SCORE>  (71) 
-7.716

>  <name>  (71) 
72

>  <ligand_id>  (71) 
72

>  <original_smiles>  (71) 
[H]c1c([H])c([H])c2c(c1[H])C([H])([H])C([H])([H])C([H])([H])C2([H])N([H])C(=O)C1([H])N(C(=O)C([H])(N([H])C(=O)C([H])(N([H])C([H])([H])[H])C([H])([H])[H])C(C([H])([H])[H])(C([H])([H])[H])C([H])([H])[H])C([H])([H])c2c([H])c(OC([H])([H])C([H])([H])OC([H])([H])C([H])([H])OC([H])([H])C([H])([H])N3C(=O)C([H])([H])C([H])(C([H])(C(=O)N([H])[H])N([H])C(=O)N4C([H])([H])C([H])([H])C([H])([H])C([H])(n5nc(-c6c([H])c([H])c(Oc7c([H])c([H])c(F)c([H])c7F)c([H])c6[H])c(C(=O)N([H])[H])c5N([H])[H])C4([H])[H])C([H])([H])C3([H])[H])c([H])c([H])c2C1([H])[H]

>  <smiles>  (71) 
[H]c1c([H])c([H])c2c(c1[H])C([H])([H])C([H])([H])C([H])([H])C2([H])N([H])C(=O)C1([H])N(C(=O)C([H])(N([H])C(=O)C([H])(N([H])C([H])([H])[H])C([H])([H])[H])C(C([H])([H])[H])(C([H])([H])[H])C([H])([H])[H])C([H])([H])c2c([H])c(OC([H])([H])C([H])([H])OC([H])([H])C([H])([H])OC([H])([H])C([H])([H])N3C(=O)C([H])([H])C([H])(C([H])(C(=O)N([H])[H])N([H])C(=O)N4C([H])([H])C([H])([H])C([H])([H])C([H])(n5nc(-c6c([H])c([H])c(Oc7c([H])c([H])c(F)c([H])c7F)c([H])c6[H])c(C(=O)N([H])[H])c5N([H])[H])C4([H])[H])C([H])([H])C3([H])[H])c([H])c([H])c2C1([H])[H]

$$$$
73:0:0
     RDKit          3D

110113  0  0  1  0  0  0  0  0999 V2000
  -25.1470  -22.2290   20.5590 C   0  0  0  0  0  0  0  0  0  0  0  0
  -23.5700  -23.0250   20.0360 C   0  0  0  0  0  0  0  0  0  0  0  0
  -22.7860  -24.2910   20.4170 N   0  0  0  0  0  0  0  0  0  0  0  0
  -22.9730  -22.3300   19.2140 O   0  0  0  0  0  0  0  0  0  0  0  0
  -23.3680  -24.8580   21.0110 H   0  0  0  0  0  0  0  0  0  0  0  0
  -21.1670  -24.9630   20.3360 C   0  0  0  0  0  1  0  0  0  0  0  0
  -20.1050  -26.5840   19.9610 C   0  0  0  0  0  3  0  0  0  0  0  0
  -20.2640  -28.0320   18.0220 O   0  0  0  0  0  1  0  0  0  0  0  0
  -21.2380  -28.3300   16.7250 C   0  0  0  0  0  2  0  0  0  0  0  0
  -22.7040  -27.6170   16.0980 C   0  0  0  0  0  2  0  0  0  0  0  0
  -24.1790  -28.0700   16.2320 O   0  0  0  0  0  0  0  0  0  0  0  0
  -25.4780  -27.2150   16.1100 C   0  0  0  0  0  2  0  0  0  0  0  0
  -26.9690  -27.4410   16.9510 C   0  0  0  0  0  2  0  0  0  0  0  0
  -27.7780  -26.5700   18.0060 O   0  0  0  0  0  0  0  0  0  0  0  0
  -24.6700  -30.9930   22.5440 C   0  0  0  0  0  0  0  0  0  0  0  0
  -27.3770  -26.7370   19.2860 C   0  0  0  0  0  3  0  0  0  0  0  0
  -23.7350  -30.0010   20.5440 C   0  0  0  0  0  3  0  0  0  0  0  0
  -25.2130  -28.3820   19.4130 C   0  0  0  0  0  3  0  0  0  0  0  0
  -26.2850  -30.1160   20.8050 C   0  0  0  0  0  2  0  0  0  0  0  0
  -26.3710  -28.8080   20.0410 C   0  0  0  0  0  0  0  0  0  0  0  0
  -27.5170  -27.9890   19.9450 C   0  0  0  0  0  3  0  0  0  0  0  0
  -26.1500  -26.1350   19.2500 C   0  0  0  0  0  3  0  0  0  0  0  0
  -25.0730  -27.0010   19.2050 C   0  0  0  0  0  3  0  0  0  0  0  0
  -24.1520  -29.4300   19.1990 C   0  0  0  0  0  2  0  0  0  0  0  0
  -24.9180  -30.3870   21.3540 N   0  0  0  0  0  0  0  0  0  0  0  0
  -23.5190  -31.2920   22.8960 O   0  0  0  0  0  0  0  0  0  0  0  0
  -22.9190  -28.9150   21.2420 C   0  0  0  0  0  0  0  0  0  0  0  0
  -21.6230  -29.1000   21.2910 N   0  0  0  0  0  0  0  0  0  0  0  0
  -23.4390  -27.8820   21.6710 O   0  0  0  0  0  0  0  0  0  0  0  0
  -21.1890  -29.9360   20.9240 H   0  0  0  0  0  0  0  0  0  0  0  0
  -17.8920  -28.6310   22.2310 C   0  0  0  0  0  0  0  0  0  0  0  0
  -20.7980  -27.9570   21.5390 C   0  0  0  0  0  2  0  0  0  0  0  0
  -20.4360  -27.1380   19.6730 C   0  0  0  0  0  3  0  0  0  0  0  0
  -18.2810  -27.1880   19.1270 C   0  0  0  0  0 15  0  0  0  0  0  0
  -17.1150  -27.9470   20.6650 C   0  0  0  0  0  1  0  0  0  0  0  0
  -19.4480  -28.6380   22.5810 C   0  0  0  0  0  0  0  0  0  0  0  0
  -19.8630  -29.5380   23.6220 C   0  0  0  0  0  3  0  0  0  0  0  0
  -18.9810  -30.3410   24.3780 C   0  0  0  0  0  3  0  0  0  0  0  0
  -17.6000  -30.2760   24.1290 C   0  0  0  0  0  3  0  0  0  0  0  0
  -17.0880  -29.4550   23.0890 C   0  0  0  0  0  3  0  0  0  0  0  0
  -25.8280  -31.3450   23.5070 C   0  0  0  0  0  3  0  0  0  0  0  0
  -25.9420  -30.3560   24.7280 C   0  0  1  0  0  0  0  0  0  0  0  0
  -24.5990  -30.0640   25.4380 C   0  0  0  0  0  1  0  0  0  0  0  0
  -26.5320  -29.0030   24.2660 C   0  0  0  0  0  1  0  0  0  0  0  0
  -26.9200  -30.9470   25.7690 C   0  0  0  0  0  1  0  0  0  0  0  0
  -25.5870  -32.7190   23.9540 N   0  0  0  0  0  0  0  0  0  0  0  0
  -26.1640  -33.7920   23.4030 C   0  0  0  0  0  0  0  0  0  0  0  0
  -27.0210  -33.7130   22.5190 O   0  0  0  0  0  0  0  0  0  0  0  0
  -24.8460  -32.8540   24.6250 H   0  0  0  0  0  0  0  0  0  0  0  0
  -24.7260  -35.8000   22.9360 C   0  0  0  0  0  1  0  0  0  0  0  0
  -25.7250  -35.1720   23.9220 C   0  0  0  0  0  3  0  0  0  0  0  0
  -27.7210  -35.6860   25.2520 C   0  0  0  0  0  1  0  0  0  0  0  0
  -26.8590  -36.0960   24.1460 N   0  0  0  0  0  0  0  0  0  0  0  0
  -26.5250  -37.0380   24.3320 H   0  0  0  0  0  0  0  0  0  0  0  0
  -27.2850  -19.9620   20.4750 C   0  0  0  0  0  0  0  0  0  0  0  0
  -26.3070  -21.0400   19.9820 N   0  0  0  0  0  4  0  0  0  0  0  0
  -27.0820  -19.6390   21.6450 O   0  0  0  0  0  0  0  0  0  0  0  0
  -26.4500  -21.1820   18.9900 H   0  0  0  0  0  0  0  0  0  0  0  0
  -28.6850  -19.2140   18.2670 C   0  0  0  0  0  1  0  0  0  0  0  0
  -28.7530  -19.0800   19.7970 C   0  0  0  0  0  0  0  0  0  0  0  0
  -30.9720  -16.8080   19.8540 C   0  0  0  0  0  0  0  0  0  0  0  0
  -31.7930  -14.3550   19.2350 C   0  0  0  0  0  2  0  0  0  0  0  0
  -30.9390  -13.7830   18.0590 C   0  0  0  0  0  2  0  0  0  0  0  0
  -29.5330  -13.3610   18.5340 C   0  0  0  0  0  2  0  0  0  0  0  0
  -28.9630  -14.4020   19.5230 C   0  0  0  0  0  3  0  0  0  0  0  0
  -29.9330  -14.6970   20.6660 C   0  0  0  0  0  2  0  0  0  0  0  0
  -30.9920  -15.3980   20.0030 N   0  0  0  0  0  0  0  0  0  0  0  0
  -32.0850  -17.1700   19.3880 O   0  0  0  0  0  0  0  0  0  0  0  0
  -29.6870  -17.6300   20.1080 N   0  0  0  0  0  4  0  0  0  0  0  0
  -29.0630  -17.0070   20.6000 H   0  0  0  0  0  0  0  0  0  0  0  0
  -26.7550  -14.9270   20.6230 C   0  0  0  0  0  0  0  0  0  0  0  0
  -25.7150  -14.1290   20.9960 C   0  0  0  0  0  0  0  0  0  0  0  0
  -26.1080  -12.7920   20.6770 C   0  0  0  0  0  0  0  0  0  0  0  0
  -27.6890  -14.0680   20.0800 N   0  0  0  0  0  0  0  0  0  0  0  0
  -27.3360  -12.7700   20.1850 N   0  0  0  0  0  0  0  0  0  0  0  0
  -25.3620  -11.5380   20.7410 C   0  0  0  0  0  0  0  0  0  0  0  0
  -25.7470  -10.4930   21.6080 C   0  0  0  0  0  3  0  0  0  0  0  0
  -24.9980   -9.2990   21.6560 C   0  0  0  0  0  3  0  0  0  0  0  0
  -23.8550   -9.1470   20.8360 C   0  0  0  0  0  0  0  0  0  0  0  0
  -23.4950  -10.1820   19.9550 C   0  0  0  0  0  3  0  0  0  0  0  0
  -24.2440  -11.3680   19.9050 C   0  0  0  0  0  3  0  0  0  0  0  0
  -23.0780   -8.0150   20.7980 O   0  0  0  0  0  0  0  0  0  0  0  0
  -22.7280   -7.3480   21.9430 C   0  0  0  0  0  0  0  0  0  0  0  0
  -22.0400   -7.9860   22.9980 C   0  0  0  0  0  3  0  0  0  0  0  0
  -21.6370   -7.2440   24.1260 C   0  0  0  0  0  3  0  0  0  0  0  0
  -21.9140   -5.8650   24.1980 C   0  0  0  0  0  0  0  0  0  0  0  0
  -22.5960   -5.2270   23.1450 C   0  0  0  0  0  3  0  0  0  0  0  0
  -23.0000   -5.9670   22.0200 C   0  0  0  0  0  0  0  0  0  0  0  0
  -23.6380   -5.3460   21.0000 F   0  0  0  0  0  0  0  0  0  0  0  0
  -21.5200   -5.1490   25.2760 F   0  0  0  0  0  0  0  0  0  0  0  0
  -24.3920  -14.5940   21.5170 C   0  0  0  0  0  0  0  0  0  0  0  0
  -23.7500  -13.7930   22.3590 N   0  0  0  0  0  0  0  0  0  0  0  0
  -23.9410  -15.6980   21.2130 O   0  0  0  0  0  0  0  0  0  0  0  0
  -24.1330  -12.8970   22.6220 H   0  0  0  0  0  0  0  0  0  0  0  0
  -22.8640  -14.0810   22.7480 H   0  0  0  0  0  0  0  0  0  0  0  0
  -26.9720  -16.3010   20.6710 N   0  0  0  0  0  0  0  0  0  0  0  0
  -26.2170  -16.9220   20.9420 H   0  0  0  0  0  0  0  0  0  0  0  0
  -27.6970  -16.7700   20.1450 H   0  0  0  0  0  0  0  0  0  0  0  0
  -25.9830  -23.3040   21.3090 C   0  0  0  0  0  2  0  0  0  0  0  0
  -25.4320  -23.7840   22.6810 C   0  0  0  0  0  2  0  0  0  0  0  0
  -25.6150  -25.2940   22.9560 C   0  0  0  0  0  2  0  0  0  0  0  0
  -25.3320  -26.0780   25.3570 C   0  0  0  0  0  0  0  0  0  0  0  0
  -24.4910  -26.5520   26.2770 N   0  0  0  0  0  0  0  0  0  0  0  0
  -26.6260  -25.9470   25.6560 N   0  0  0  0  0  4  0  0  0  0  0  0
  -24.8600  -25.7380   24.1480 N   0  0  0  0  0  0  0  0  0  0  0  0
  -24.7970  -26.8400   27.1960 H   0  0  0  0  0  0  0  0  0  0  0  0
  -23.5040  -26.6790   26.1010 H   0  0  0  0  0  0  0  0  0  0  0  0
  -26.9980  -26.1950   26.5610 H   0  0  0  0  0  0  0  0  0  0  0  0
  -27.2820  -25.5640   24.9930 H   0  0  0  0  0  0  0  0  0  0  0  0
  -23.8720  -25.8740   23.9920 H   0  0  0  0  0  0  0  0  0  0  0  0
  1 99  1  0
  2  3  1  0
  2  1  1  0
  3  5  1  0
  4  2  2  0
  6  3  1  0
  9  8  1  0
 10 11  1  0
 10  9  1  0
 12 11  1  0
 12 13  1  0
 13 14  1  0
 15 26  2  0
 16 14  1  0
 16 21  1  0
 17 27  1  0
 17 25  1  0
 18 24  1  0
 18 20  1  0
 19 25  1  0
 20 19  1  0
 21 20  2  0
 22 16  1  0
 23 22  2  0
 23 18  1  0
 24 17  1  0
 25 15  1  0
 27 28  1  0
 27 29  2  0
 28 32  1  0
 30 28  1  0
 31 36  2  0
 31 40  1  0
 32 36  1  0
 33  7  3  0
 35 31  1  0
 36 37  1  0
 37 38  2  0
 39 38  1  0
 40 39  2  0
 41 15  1  0
 41 46  1  0
 41 42  1  0
 42 43  1  1
 42 45  1  0
 44 42  1  0
 46 49  1  0
 47 51  1  0
 47 46  1  0
 48 47  2  0
 51 50  1  0
 51 53  1  0
 53 54  1  0
 53 52  1  0
 55 57  2  0
 56 55  1  0
 56  1  2  0
 58 56  1  0
 59 60  1  0
 60 69  2  0
 60 55  1  0
 61 67  1  0
 61 69  1  0
 62 67  1  0
 63 64  1  0
 63 62  1  0
 65 64  1  0
 65 74  1  0
 65 66  1  0
 67 66  1  0
 68 61  2  0
 69 70  1  0
 71 96  1  0
 71 72  2  0
 72 91  1  0
 73 76  1  0
 73 72  1  0
 74 75  1  0
 74 71  1  0
 75 73  2  0
 76 77  1  0
 77 78  2  0
 79 78  1  0
 80 79  2  0
 81 80  1  0
 81 76  2  0
 82 79  1  0
 82 83  1  0
 83 88  2  0
 83 84  1  0
 84 85  2  0
 85 86  1  0
 86 90  1  0
 87 86  2  0
 88 87  1  0
 89 88  1  0
 91 92  1  0
 92 94  1  0
 92 95  1  0
 93 91  2  0
 96 97  1  0
 98 96  1  0
 99100  1  0
100101  1  0
101105  1  0
102104  2  0
102103  1  0
103106  1  0
104108  1  0
105102  1  0
107103  1  0
109104  1  0
110105  1  0
M  ISO  4  13 101  14 101  61 100  69 100
M  END
>  <TORSDO>  (72) 
F 31

>  <SCORE>  (72) 
-0.872

>  <name>  (72) 
73

>  <ligand_id>  (72) 
73

>  <original_smiles>  (72) 
[H]c1c([H])c([H])c2c(c1[H])C([H])([H])C([H])([H])C([H])([H])C2([H])N([H])C(=O)C1([H])N(C(=O)C([H])(N([H])C(=O)C([H])(N([H])C([H])([H])[H])C([H])([H])[H])C(C([H])([H])[H])(C([H])([H])[H])C([H])([H])[H])C([H])([H])c2c([H])c(OC([H])([H])C([H])([H])OC([H])([H])C([H])([H])OC([H])([H])C([H])([H])N([H])C(=O)C([H])(N([H])C(=O)C([H])(N([H])C(=O)N3C([H])([H])C([H])([H])C([H])([H])C([H])(n4nc(-c5c([H])c([H])c(Oc6c([H])c([H])c(F)c([H])c6F)c([H])c5[H])c(C(=O)N([H])[H])c4N([H])[H])C3([H])[H])C([H])([H])[H])C([H])([H])C([H])([H])C([H])([H])N([H])C(N([H])[H])=[N+]([H])[H])c([H])c([H])c2C1([H])[H]

>  <smiles>  (72) 
[H]c1c([H])c([H])c2c(c1[H])C([H])([H])C([H])([H])C([H])([H])C2([H])N([H])C(=O)C1([H])N(C(=O)C([H])(N([H])C(=O)C([H])(N([H])C([H])([H])[H])C([H])([H])[H])C(C([H])([H])[H])(C([H])([H])[H])C([H])([H])[H])C([H])([H])c2c([H])c(OC([H])([H])C([H])([H])OC([H])([H])C([H])([H])OC([H])([H])C([H])([H])N([H])C(=O)C([H])(N([H])C(=O)C([H])(N([H])C(=O)N3C([H])([H])C([H])([H])C([H])([H])C([H])(n4nc(-c5c([H])c([H])c(Oc6c([H])c([H])c(F)c([H])c6F)c([H])c5[H])c(C(=O)N([H])[H])c4N([H])[H])C3([H])[H])C([H])([H])[H])C([H])([H])C([H])([H])C([H])([H])N([H])C(N([H])[H])=[N+]([H])[H])c([H])c([H])c2C1([H])[H]

$$$$
74:0:0
     RDKit          3D

 99106  0  0  1  0  0  0  0  0999 V2000
  -34.8570  -23.4300   19.4960 C   0  0  0  0  0  0  0  0  0  0  0  0
  -35.3770  -24.7000   19.5280 N   0  0  0  0  0  0  0  0  0  0  0  0
  -35.3310  -22.4330   20.0420 O   0  0  0  0  0  0  0  0  0  0  0  0
  -34.8210  -25.4160   19.0790 H   0  0  0  0  0  0  0  0  0  0  0  0
  -36.6130  -25.1300   20.1750 C   0  0  0  0  0  3  0  0  0  0  0  0
  -36.6520  -24.5460   21.5920 C   0  0  0  0  0  0  0  0  0  0  0  0
  -37.0620  -25.3410   22.5700 N   0  0  0  0  0  0  0  0  0  0  0  0
  -36.3070  -23.3850   21.8100 O   0  0  0  0  0  0  0  0  0  0  0  0
  -37.3360  -26.2930   22.3700 H   0  0  0  0  0  0  0  0  0  0  0  0
  -37.1040  -25.0040   23.5210 H   0  0  0  0  0  0  0  0  0  0  0  0
  -36.7130  -26.6730   20.1590 C   0  0  0  0  0  2  0  0  0  0  0  0
  -35.5880  -27.3800   19.3750 C   0  0  0  0  0  2  0  0  0  0  0  0
  -34.1870  -27.0400   19.9050 C   0  0  0  0  0  2  0  0  0  0  0  0
  -33.0880  -27.9480   19.3310 C   0  0  0  0  0  2  0  0  0  0  0  0
  -33.4630  -30.3170   18.6850 C   0  0  0  0  0  0  0  0  0  0  0  0
  -33.4990  -32.5460   17.6410 C   0  0  0  0  0  2  0  0  0  0  0  0
  -32.3030  -32.6920   16.6810 C   0  0  0  0  0  2  0  0  0  0  0  0
  -32.6600  -32.1560   15.2810 C   0  0  0  0  0  2  0  0  0  0  0  0
  -33.3030  -30.7430   15.3290 C   0  0  0  0  0  3  0  0  0  0  0  0
  -34.4320  -30.6870   16.3840 C   0  0  0  0  0  2  0  0  0  0  0  0
  -33.8790  -31.1270   17.6780 N   0  0  0  0  0  0  0  0  0  0  0  0
  -32.9020  -30.7370   19.7020 O   0  0  0  0  0  0  0  0  0  0  0  0
  -33.6350  -29.0040   18.4800 N   0  0  0  0  0  0  0  0  0  0  0  0
  -34.0920  -28.7310   17.6230 H   0  0  0  0  0  0  0  0  0  0  0  0
  -34.8700  -30.7720   13.2860 C   0  0  0  0  0  0  0  0  0  0  0  0
  -34.9020  -30.0120   12.1470 C   0  0  0  0  0  0  0  0  0  0  0  0
  -33.7970  -29.1130   12.2420 C   0  0  0  0  0  0  0  0  0  0  0  0
  -33.7730  -30.3280   14.0100 N   0  0  0  0  0  0  0  0  0  0  0  0
  -33.0980  -29.3550   13.3440 N   0  0  0  0  0  0  0  0  0  0  0  0
  -33.3940  -27.9970   11.3760 C   0  0  0  0  0  0  0  0  0  0  0  0
  -32.7710  -28.2180   10.1280 C   0  0  0  0  0  3  0  0  0  0  0  0
  -32.4110  -27.1290    9.3050 C   0  0  0  0  0  3  0  0  0  0  0  0
  -32.6740  -25.8040    9.7260 C   0  0  0  0  0  0  0  0  0  0  0  0
  -33.2720  -25.5890   10.9790 C   0  0  0  0  0  3  0  0  0  0  0  0
  -33.6270  -26.6730   11.8000 C   0  0  0  0  0  3  0  0  0  0  0  0
  -32.3340  -24.6840    9.0060 O   0  0  0  0  0  0  0  0  0  0  0  0
  -32.9430  -24.3830    7.8130 C   0  0  0  0  0  0  0  0  0  0  0  0
  -34.2270  -23.8000    7.7590 C   0  0  0  0  0  3  0  0  0  0  0  0
  -34.7870  -23.4430    6.5150 C   0  0  0  0  0  3  0  0  0  0  0  0
  -34.0610  -23.6610    5.3290 C   0  0  0  0  0  0  0  0  0  0  0  0
  -32.7800  -24.2360    5.3820 C   0  0  0  0  0  3  0  0  0  0  0  0
  -32.2210  -24.5930    6.6210 C   0  0  0  0  0  0  0  0  0  0  0  0
  -30.9770  -25.1280    6.6680 F   0  0  0  0  0  0  0  0  0  0  0  0
  -34.5940  -23.3100    4.1350 F   0  0  0  0  0  0  0  0  0  0  0  0
  -35.9510  -30.0510   11.0740 C   0  0  0  0  0  0  0  0  0  0  0  0
  -35.5480  -29.8970    9.8170 N   0  0  0  0  0  0  0  0  0  0  0  0
  -37.1320  -30.2690   11.3410 O   0  0  0  0  0  0  0  0  0  0  0  0
  -34.5770  -29.7380    9.5960 H   0  0  0  0  0  0  0  0  0  0  0  0
  -36.2220  -29.9380    9.0650 H   0  0  0  0  0  0  0  0  0  0  0  0
  -35.6870  -31.7860   13.7730 N   0  0  0  0  0  0  0  0  0  0  0  0
  -36.5240  -32.0910   13.2860 H   0  0  0  0  0  0  0  0  0  0  0  0
  -35.5610  -32.2470   14.6670 H   0  0  0  0  0  0  0  0  0  0  0  0
  -33.7670  -23.4430   18.7330 O   0  0  0  0  0  0  0  0  0  0  0  0
  -32.5830  -22.8170   19.2060 C   0  0  0  0  0  2  0  0  0  0  0  0
  -31.4980  -23.8670   19.4580 C   0  0  0  0  0  2  0  0  0  0  0  0
  -30.3290  -23.4960   18.7440 O   0  0  0  0  0  0  0  0  0  0  0  0
  -29.2000  -23.3100   19.5850 C   0  0  0  0  0  2  0  0  0  0  0  0
  -28.0710  -22.6670   18.7660 C   0  0  0  0  0  2  0  0  0  0  0  0
  -28.3250  -21.2720   18.6050 O   0  0  0  0  0  0  0  0  0  0  0  0
  -31.4990  -20.6480   12.2800 C   0  0  0  0  0  0  0  0  0  0  0  0
  -29.4570  -20.8900   17.9240 C   0  0  0  0  0  0  0  0  0  0  0  0
  -32.7210  -19.6670   14.1930 C   0  0  0  0  0  3  0  0  0  0  0  0
  -31.8110  -20.2450   16.5020 C   0  0  0  0  0  0  0  0  0  0  0  0
  -31.1180  -21.6300   14.5380 C   0  0  0  0  0  2  0  0  0  0  0  0
  -30.8540  -21.0890   15.9250 C   0  0  0  0  0  0  0  0  0  0  0  0
  -29.6790  -21.4170   16.6340 C   0  0  0  0  0  3  0  0  0  0  0  0
  -30.4350  -20.0440   18.4950 C   0  0  0  0  0  3  0  0  0  0  0  0
  -31.6060  -19.7170   17.7880 C   0  0  0  0  0  3  0  0  0  0  0  0
  -33.0470  -19.9530   15.6830 C   0  0  0  0  0  2  0  0  0  0  0  0
  -31.7400  -20.6450   13.6210 N   0  0  0  0  0  0  0  0  0  0  0  0
  -32.1090  -19.8850   11.5170 O   0  0  0  0  0  0  0  0  0  0  0  0
  -32.2680  -18.1950   14.0630 C   0  0  0  0  0  0  0  0  0  0  0  0
  -33.1040  -17.3670   13.4150 N   0  0  0  0  0  0  0  0  0  0  0  0
  -31.2050  -17.8140   14.5600 O   0  0  0  0  0  0  0  0  0  0  0  0
  -33.9510  -17.7590   13.0280 H   0  0  0  0  0  0  0  0  0  0  0  0
  -33.0140  -14.7870   10.8910 C   0  0  0  0  0  0  0  0  0  0  0  0
  -32.9020  -15.9340   13.2050 C   0  0  0  0  0  3  0  0  0  0  0  0
  -34.1800  -15.1360   13.5490 C   0  0  0  0  0  2  0  0  0  0  0  0
  -35.0880  -14.8960   12.3380 C   0  0  0  0  0  2  0  0  0  0  0  0
  -34.3360  -14.1280   11.2470 C   0  0  0  0  0  2  0  0  0  0  0  0
  -32.3490  -15.6480   11.8040 C   0  0  0  0  0  0  0  0  0  0  0  0
  -31.1410  -16.2630   11.4110 C   0  0  0  0  0  3  0  0  0  0  0  0
  -30.5950  -16.0280   10.1340 C   0  0  0  0  0  3  0  0  0  0  0  0
  -31.2470  -15.1600    9.2420 C   0  0  0  0  0  3  0  0  0  0  0  0
  -32.4520  -14.5410    9.6210 C   0  0  0  0  0  3  0  0  0  0  0  0
  -30.4660  -21.6260   11.6370 C   0  0  0  0  0  3  0  0  0  0  0  0
  -30.8650  -22.9920   11.9980 N   0  0  0  0  0  0  0  0  0  0  0  0
  -30.2070  -23.7730   12.8650 C   0  0  0  0  0  0  0  0  0  0  0  0
  -29.1460  -23.4360   13.3980 O   0  0  0  0  0  0  0  0  0  0  0  0
  -31.7530  -23.3130   11.6390 H   0  0  0  0  0  0  0  0  0  0  0  0
  -31.4080  -25.1190   14.6170 C   0  0  0  0  0  1  0  0  0  0  0  0
  -30.8270  -25.1450   13.1940 C   0  0  0  0  0  3  0  0  0  0  0  0
  -29.6650  -26.6920   11.6850 C   0  0  0  0  0  1  0  0  0  0  0  0
  -29.8720  -26.2670   13.0660 N   0  0  0  0  0  0  0  0  0  0  0  0
  -30.1880  -27.0720   13.6000 H   0  0  0  0  0  0  0  0  0  0  0  0
  -30.3540  -21.4710   10.0710 C   0  0  1  0  0  0  0  0  0  0  0  0
  -31.7200  -21.3430    9.3590 C   0  0  0  0  0  1  0  0  0  0  0  0
  -29.5110  -20.2260    9.7070 C   0  0  0  0  0  1  0  0  0  0  0  0
  -29.6190  -22.6940    9.4740 C   0  0  0  0  0  1  0  0  0  0  0  0
  1  2  1  0
  1  3  2  0
  2  5  1  0
  4  2  1  0
  5 11  1  0
  5  6  1  0
  6  8  2  0
  6  7  1  0
  7 10  1  0
  9  7  1  0
 12 13  1  0
 12 11  1  0
 14 13  1  0
 15 22  2  0
 16 21  1  0
 17 16  1  0
 18 19  1  0
 18 17  1  0
 19 28  1  0
 19 20  1  0
 20 21  1  0
 21 15  1  0
 23 15  1  0
 23 14  1  0
 24 23  1  0
 25 50  1  0
 25 28  1  0
 26 27  1  0
 26 25  2  0
 27 29  2  0
 29 28  1  0
 30 35  1  0
 30 27  1  0
 31 30  2  0
 32 33  2  0
 32 31  1  0
 33 34  1  0
 34 35  2  0
 36 33  1  0
 37 36  1  0
 38 37  1  0
 39 38  2  0
 40 41  2  0
 40 39  1  0
 41 42  1  0
 42 43  1  0
 42 37  2  0
 44 40  1  0
 45 47  2  0
 45 26  1  0
 46 45  1  0
 48 46  1  0
 49 46  1  0
 50 52  1  0
 51 50  1  0
 53 54  1  0
 53  1  1  0
 54 55  1  0
 56 55  1  0
 56 57  1  0
 58 57  1  0
 59 58  1  0
 60 70  1  0
 61 67  1  0
 61 59  1  0
 62 72  1  0
 62 69  1  0
 63 68  1  0
 64 65  1  0
 65 63  2  0
 65 66  1  0
 66 61  2  0
 68 67  2  0
 69 63  1  0
 70 62  1  0
 70 64  1  0
 71 60  2  0
 72 74  2  0
 73 72  1  0
 75 73  1  0
 76 80  1  0
 76 81  1  0
 77 73  1  0
 77 78  1  0
 79 78  1  0
 80 79  1  0
 81 77  1  0
 82 81  2  0
 83 82  1  0
 84 85  1  0
 84 83  2  0
 85 76  2  0
 86 87  1  0
 86 60  1  0
 87 88  1  0
 88 92  1  0
 88 89  2  0
 90 87  1  0
 92 91  1  0
 93 94  1  0
 94 92  1  0
 94 95  1  0
 96 86  1  0
 96 97  1  6
 98 96  1  0
 99 96  1  0
M  ISO  4  15 100  23 100  58 101  59 101
M  END
>  <TORSDO>  (73) 
F 28

>  <SCORE>  (73) 
-2.665

>  <name>  (73) 
74

>  <ligand_id>  (73) 
74

>  <original_smiles>  (73) 
[H]c1c([H])c([H])c2c(c1[H])C([H])([H])C([H])([H])C([H])([H])C2([H])N([H])C(=O)C1([H])N(C(=O)C([H])(N([H])C(=O)C([H])(N([H])C([H])([H])[H])C([H])([H])[H])C(C([H])([H])[H])(C([H])([H])[H])C([H])([H])[H])C([H])([H])c2c([H])c(OC([H])([H])C([H])([H])OC([H])([H])C([H])([H])OC(=O)N([H])C([H])(C(=O)N([H])[H])C([H])([H])C([H])([H])C([H])([H])C([H])([H])N([H])C(=O)N3C([H])([H])C([H])([H])C([H])([H])C([H])(n4nc(-c5c([H])c([H])c(Oc6c([H])c([H])c(F)c([H])c6F)c([H])c5[H])c(C(=O)N([H])[H])c4N([H])[H])C3([H])[H])c([H])c([H])c2C1([H])[H]

>  <smiles>  (73) 
[H]c1c([H])c([H])c2c(c1[H])C([H])([H])C([H])([H])C([H])([H])C2([H])N([H])C(=O)C1([H])N(C(=O)C([H])(N([H])C(=O)C([H])(N([H])C([H])([H])[H])C([H])([H])[H])C(C([H])([H])[H])(C([H])([H])[H])C([H])([H])[H])C([H])([H])c2c([H])c(OC([H])([H])C([H])([H])OC([H])([H])C([H])([H])OC(=O)N([H])C([H])(C(=O)N([H])[H])C([H])([H])C([H])([H])C([H])([H])C([H])([H])N([H])C(=O)N3C([H])([H])C([H])([H])C([H])([H])C([H])(n4nc(-c5c([H])c([H])c(Oc6c([H])c([H])c(F)c([H])c6F)c([H])c5[H])c(C(=O)N([H])[H])c4N([H])[H])C3([H])[H])c([H])c([H])c2C1([H])[H]

$$$$
75:0:0
     RDKit          3D

111119  0  0  1  0  0  0  0  0999 V2000
  -31.0190  -20.7740   19.8570 C   0  0  0  0  0  3  0  0  0  0  0  0
  -32.3680  -21.1780   19.8360 C   0  0  0  0  0  3  0  0  0  0  0  0
  -30.3480  -23.0690   20.2980 C   0  0  0  0  0  3  0  0  0  0  0  0
  -29.9950  -21.7150   20.1030 C   0  0  0  0  0  0  0  0  0  0  0  0
  -32.7160  -22.5300   20.0390 C   0  0  0  0  0  0  0  0  0  0  0  0
  -31.7040  -23.4940   20.2480 C   0  0  0  0  0  0  0  0  0  0  0  0
  -34.0550  -22.9470   20.0710 N   0  0  0  0  0  0  0  0  0  0  0  0
  -34.1360  -23.9610   20.1030 H   0  0  0  0  0  0  0  0  0  0  0  0
  -35.0050  -22.3160   19.1560 C   0  0  0  0  0  2  0  0  0  0  0  0
  -35.6020  -23.3430   18.1800 C   0  0  0  0  0  2  0  0  0  0  0  0
  -36.5870  -24.1400   18.8410 O   0  0  0  0  0  0  0  0  0  0  0  0
  -40.3690  -30.1660   18.8810 C   0  0  0  0  0  0  0  0  0  0  0  0
  -37.3410  -25.0170   18.0870 C   0  0  0  0  0  0  0  0  0  0  0  0
  -39.8870  -29.2160   16.6490 C   0  0  0  0  0  3  0  0  0  0  0  0
  -38.9300  -26.8560   16.6330 C   0  0  0  0  0  0  0  0  0  0  0  0
  -40.0370  -27.7020   18.7060 C   0  0  0  0  0  2  0  0  0  0  0  0
  -39.0460  -26.7810   18.0260 C   0  0  0  0  0  0  0  0  0  0  0  0
  -38.2540  -25.8670   18.7560 C   0  0  0  0  0  3  0  0  0  0  0  0
  -37.2420  -25.1090   16.6780 C   0  0  0  0  0  3  0  0  0  0  0  0
  -38.0270  -26.0240   15.9550 C   0  0  0  0  0  3  0  0  0  0  0  0
  -39.8130  -27.8520   15.9170 C   0  0  0  0  0  2  0  0  0  0  0  0
  -40.0840  -29.0660   18.1280 N   0  0  0  0  0  0  0  0  0  0  0  0
  -40.5050  -31.2800   18.3600 O   0  0  0  0  0  0  0  0  0  0  0  0
  -38.6340  -30.0420   16.2810 C   0  0  0  0  0  0  0  0  0  0  0  0
  -38.6640  -30.6800   15.1000 N   0  0  0  0  0  0  0  0  0  0  0  0
  -37.6550  -30.0750   17.0330 O   0  0  0  0  0  0  0  0  0  0  0  0
  -39.5050  -30.6130   14.5470 H   0  0  0  0  0  0  0  0  0  0  0  0
  -37.7590  -32.7710   12.2950 C   0  0  0  0  0  0  0  0  0  0  0  0
  -37.5820  -31.4830   14.5290 C   0  0  0  0  0  3  0  0  0  0  0  0
  -36.5390  -30.5900   13.8160 C   0  0  0  0  0  2  0  0  0  0  0  0
  -36.8150  -30.4210   12.3190 C   0  0  0  0  0  2  0  0  0  0  0  0
  -36.8250  -31.7820   11.6170 C   0  0  0  0  0  2  0  0  0  0  0  0
  -38.1290  -32.6200   13.6580 C   0  0  0  0  0  0  0  0  0  0  0  0
  -39.0300  -33.5430   14.2300 C   0  0  0  0  0  3  0  0  0  0  0  0
  -39.5570  -34.6020   13.4670 C   0  0  0  0  0  3  0  0  0  0  0  0
  -39.1770  -34.7550   12.1230 C   0  0  0  0  0  3  0  0  0  0  0  0
  -38.2760  -33.8450   11.5410 C   0  0  0  0  0  3  0  0  0  0  0  0
  -40.5600  -30.0700   20.4270 C   0  0  0  0  0  3  0  0  0  0  0  0
  -39.2310  -30.3370   21.2350 C   0  0  1  0  0  0  0  0  0  0  0  0
  -38.4980  -31.6330   20.8160 C   0  0  0  0  0  1  0  0  0  0  0  0
  -38.2420  -29.1610   21.0660 C   0  0  0  0  0  1  0  0  0  0  0  0
  -39.5490  -30.4300   22.7460 C   0  0  0  0  0  1  0  0  0  0  0  0
  -41.6010  -31.0350   20.8040 N   0  0  0  0  0  0  0  0  0  0  0  0
  -42.8930  -30.7270   20.9840 C   0  0  0  0  0  0  0  0  0  0  0  0
  -43.3210  -29.5720   20.9190 O   0  0  0  0  0  0  0  0  0  0  0  0
  -41.3330  -32.0090   20.8230 H   0  0  0  0  0  0  0  0  0  0  0  0
  -44.5820  -32.3060   19.9900 C   0  0  0  0  0  1  0  0  0  0  0  0
  -43.8630  -31.8860   21.2840 C   0  0  0  0  0  3  0  0  0  0  0  0
  -44.2820  -31.4210   23.6570 C   0  0  0  0  0  1  0  0  0  0  0  0
  -44.8630  -31.5630   22.3250 N   0  0  0  0  0  0  0  0  0  0  0  0
  -45.5820  -32.2800   22.3680 H   0  0  0  0  0  0  0  0  0  0  0  0
  -28.6370  -21.3550   20.1610 N   0  0  0  0  0  0  0  0  0  0  0  0
  -28.0750  -21.6820   20.9440 H   0  0  0  0  0  0  0  0  0  0  0  0
  -28.1370  -20.1990   19.4190 C   0  0  0  0  0  2  0  0  0  0  0  0
  -26.6490  -19.9230   19.7130 C   0  0  0  0  0  2  0  0  0  0  0  0
  -25.6290  -21.3780   17.9530 C   0  0  0  0  0  0  0  0  0  0  0  0
  -24.4410  -22.9070   16.4180 C   0  0  0  0  0  2  0  0  0  0  0  0
  -25.0130  -24.3350   16.5140 C   0  0  0  0  0  2  0  0  0  0  0  0
  -24.3380  -25.1210   17.6550 C   0  0  0  0  0  2  0  0  0  0  0  0
  -24.3080  -24.3270   18.9870 C   0  0  0  0  0  3  0  0  0  0  0  0
  -23.7770  -22.8950   18.7550 C   0  0  0  0  0  2  0  0  0  0  0  0
  -24.6180  -22.2570   17.7250 N   0  0  0  0  0  0  0  0  0  0  0  0
  -26.3800  -20.9640   17.0650 O   0  0  0  0  0  0  0  0  0  0  0  0
  -25.7600  -20.9760   19.2260 N   0  0  0  0  0  0  0  0  0  0  0  0
  -25.1220  -21.3840   19.8930 H   0  0  0  0  0  0  0  0  0  0  0  0
  -23.9360  -26.0350   20.8770 C   0  0  0  0  0  0  0  0  0  0  0  0
  -22.8160  -26.3950   21.5760 C   0  0  0  0  0  0  0  0  0  0  0  0
  -21.7580  -25.5700   21.0800 C   0  0  0  0  0  0  0  0  0  0  0  0
  -23.5360  -25.0300   20.0090 N   0  0  0  0  0  0  0  0  0  0  0  0
  -22.2240  -24.7200   20.1750 N   0  0  0  0  0  0  0  0  0  0  0  0
  -20.3200  -25.5830   21.3720 C   0  0  0  0  0  0  0  0  0  0  0  0
  -19.6270  -24.4010   21.7200 C   0  0  0  0  0  3  0  0  0  0  0  0
  -18.2460  -24.4410   22.0120 C   0  0  0  0  0  3  0  0  0  0  0  0
  -17.5460  -25.6690   21.9610 C   0  0  0  0  0  0  0  0  0  0  0  0
  -18.2350  -26.8380   21.5910 C   0  0  0  0  0  3  0  0  0  0  0  0
  -19.6070  -26.7960   21.2950 C   0  0  0  0  0  3  0  0  0  0  0  0
  -16.2000  -25.8010   22.2040 O   0  0  0  0  0  0  0  0  0  0  0  0
  -15.5100  -24.8790   22.9490 C   0  0  0  0  0  0  0  0  0  0  0  0
  -15.8880  -24.5550   24.2710 C   0  0  0  0  0  3  0  0  0  0  0  0
  -15.1110  -23.6540   25.0250 C   0  0  0  0  0  3  0  0  0  0  0  0
  -13.9530  -23.0830   24.4640 C   0  0  0  0  0  0  0  0  0  0  0  0
  -13.5710  -23.4070   23.1510 C   0  0  0  0  0  3  0  0  0  0  0  0
  -14.3480  -24.3050   22.3970 C   0  0  0  0  0  0  0  0  0  0  0  0
  -13.9640  -24.6310   21.1380 F   0  0  0  0  0  0  0  0  0  0  0  0
  -13.2010  -22.2230   25.1920 F   0  0  0  0  0  0  0  0  0  0  0  0
  -22.7050  -27.5020   22.5840 C   0  0  0  0  0  0  0  0  0  0  0  0
  -21.8090  -27.3630   23.5540 N   0  0  0  0  0  0  0  0  0  0  0  0
  -23.4510  -28.4800   22.5420 O   0  0  0  0  0  0  0  0  0  0  0  0
  -21.2120  -26.5500   23.5990 H   0  0  0  0  0  0  0  0  0  0  0  0
  -21.7190  -28.0770   24.2620 H   0  0  0  0  0  0  0  0  0  0  0  0
  -25.2510  -26.4890   20.8910 N   0  0  0  0  0  0  0  0  0  0  0  0
  -25.5560  -27.2550   21.4820 H   0  0  0  0  0  0  0  0  0  0  0  0
  -25.9820  -26.1420   20.2830 H   0  0  0  0  0  0  0  0  0  0  0  0
  -32.1150  -24.8100   20.3870 O   0  0  0  0  0  0  0  0  0  0  0  0
  -31.1640  -25.8150   20.7320 C   0  0  0  0  0  2  0  0  0  0  0  0
  -30.1940  -26.1600   19.5840 C   0  0  0  0  0  2  0  0  0  0  0  0
  -30.8590  -26.8780   18.5490 O   0  0  0  0  0  0  0  0  0  0  0  0
  -30.0220  -27.8660   17.9590 C   0  0  0  0  0  2  0  0  0  0  0  0
  -30.5920  -28.2800   16.5980 C   0  0  0  0  0  2  0  0  0  0  0  0
  -29.8960  -27.5840   14.3130 C   0  0  0  0  0  0  0  0  0  0  0  0
  -30.2020  -27.3060   15.5850 N   0  0  0  0  0  0  0  0  0  0  0  0
  -29.9730  -28.7290   13.8540 O   0  0  0  0  0  0  0  0  0  0  0  0
  -30.0680  -26.3520   15.9000 H   0  0  0  0  0  0  0  0  0  0  0  0
  -29.4460  -26.4140   13.4100 C   0  0  0  0  0  3  0  0  0  0  0  0
  -29.2440  -26.9120   12.0400 N   0  0  0  0  0  4  0  0  0  0  0  0
  -28.5280  -27.6160   12.0460 H   0  0  0  0  0  0  0  0  0  0  0  0
  -28.9960  -26.1730   11.4080 H   0  0  0  0  0  0  0  0  0  0  0  0
  -30.0920  -27.3510   11.7310 H   0  0  0  0  0  0  0  0  0  0  0  0
  -28.1640  -25.7030   13.9280 C   0  0  0  0  0  2  0  0  0  0  0  0
  -28.3550  -24.9720   15.1360 O   0  0  0  0  0  0  0  0  0  0  0  0
  -28.7900  -24.1510   14.9220 H   0  0  0  0  0  0  0  0  0  0  0  0
  1  4  1  0
  2  1  2  0
  2  5  1  0
  4 52  1  0
  4  3  2  0
  5  7  1  0
  5  6  2  0
  6  3  1  0
  6 94  1  0
  7  8  1  0
  9  7  1  0
 10 11  1  0
 10  9  1  0
 13 18  1  0
 13 11  1  0
 14 24  1  0
 14 22  1  0
 15 17  1  0
 17 16  1  0
 17 18  2  0
 19 13  2  0
 20 15  2  0
 20 19  1  0
 21 15  1  0
 21 14  1  0
 22 16  1  0
 22 12  1  0
 23 12  2  0
 24 26  2  0
 25 24  1  0
 27 25  1  0
 28 33  1  0
 29 25  1  0
 30 29  1  0
 31 30  1  0
 32 28  1  0
 32 31  1  0
 33 34  2  0
 33 29  1  0
 35 34  1  0
 36 35  2  0
 37 36  1  0
 37 28  2  0
 38 12  1  0
 38 43  1  0
 38 39  1  0
 39 42  1  1
 40 39  1  0
 41 39  1  0
 43 46  1  0
 43 44  1  0
 44 48  1  0
 45 44  2  0
 48 47  1  0
 48 50  1  0
 50 51  1  0
 50 49  1  0
 52 53  1  0
 54 55  1  0
 54 52  1  0
 56 64  1  0
 57 58  1  0
 57 62  1  0
 58 59  1  0
 60 59  1  0
 60 69  1  0
 61 60  1  0
 62 56  1  0
 62 61  1  0
 63 56  2  0
 64 55  1  0
 64 65  1  0
 66 91  1  0
 66 67  2  0
 67 86  1  0
 68 71  1  0
 68 67  1  0
 69 70  1  0
 69 66  1  0
 70 68  2  0
 71 72  1  0
 72 73  2  0
 74 73  1  0
 74 77  1  0
 75 74  2  0
 76 71  2  0
 76 75  1  0
 77 78  1  0
 78 79  1  0
 79 80  2  0
 81 80  1  0
 81 85  1  0
 82 81  2  0
 83 78  2  0
 83 82  1  0
 84 83  1  0
 86 87  1  0
 87 89  1  0
 87 90  1  0
 88 86  2  0
 91 92  1  0
 93 91  1  0
 94 95  1  0
 96 95  1  0
 97 96  1  0
 98 97  1  0
 99 98  1  0
100101  1  0
101103  1  0
101 99  1  0
102100  2  0
104109  1  0
104100  1  0
105106  1  0
105104  1  0
107105  1  0
108105  1  0
109110  1  0
111110  1  0
M  ISO  4  10 101  11 101  56 100  64 100
M  END
>  <TORSDO>  (74) 
F 33

>  <SCORE>  (74) 
-2.589

>  <name>  (74) 
75

>  <ligand_id>  (74) 
75

>  <original_smiles>  (74) 
[H]OC([H])([H])C([H])(C(=O)N([H])C([H])([H])C([H])([H])OC([H])([H])C([H])([H])Oc1c([H])c(N([H])C([H])([H])C([H])([H])N([H])C(=O)N2C([H])([H])C([H])([H])C([H])([H])C([H])(n3nc(-c4c([H])c([H])c(Oc5c([H])c([H])c(F)c([H])c5F)c([H])c4[H])c(C(=O)N([H])[H])c3N([H])[H])C2([H])[H])c([H])c([H])c1N([H])C([H])([H])C([H])([H])Oc1c([H])c([H])c2c(c1[H])C([H])([H])N(C(=O)C([H])(N([H])C(=O)C([H])(N([H])C([H])([H])[H])C([H])([H])[H])C(C([H])([H])[H])(C([H])([H])[H])C([H])([H])[H])C([H])(C(=O)N([H])C1([H])c3c([H])c([H])c([H])c([H])c3C([H])([H])C([H])([H])C1([H])[H])C2([H])[H])[N+]([H])([H])[H]

>  <smiles>  (74) 
[H]OC([H])([H])C([H])(C(=O)N([H])C([H])([H])C([H])([H])OC([H])([H])C([H])([H])Oc1c([H])c(N([H])C([H])([H])C([H])([H])N([H])C(=O)N2C([H])([H])C([H])([H])C([H])([H])C([H])(n3nc(-c4c([H])c([H])c(Oc5c([H])c([H])c(F)c([H])c5F)c([H])c4[H])c(C(=O)N([H])[H])c3N([H])[H])C2([H])[H])c([H])c([H])c1N([H])C([H])([H])C([H])([H])Oc1c([H])c([H])c2c(c1[H])C([H])([H])N(C(=O)C([H])(N([H])C(=O)C([H])(N([H])C([H])([H])[H])C([H])([H])[H])C(C([H])([H])[H])(C([H])([H])[H])C([H])([H])[H])C([H])(C(=O)N([H])C1([H])c3c([H])c([H])c([H])c([H])c3C([H])([H])C([H])([H])C1([H])[H])C2([H])[H])[N+]([H])([H])[H]

$$$$
76:0:0
     RDKit          3D

 97104  0  0  1  0  0  0  0  0999 V2000
  -29.1960  -18.9100   22.4060 C   0  0  0  0  0  2  0  0  0  0  0  0
  -30.9010  -17.2050   21.7630 C   0  0  0  0  0  0  0  0  0  0  0  0
  -29.8470  -17.9880   21.4790 N   0  0  0  0  0  0  0  0  0  0  0  0
  -31.3290  -17.0900   22.9140 O   0  0  0  0  0  0  0  0  0  0  0  0
  -29.5520  -18.0380   20.5090 H   0  0  0  0  0  0  0  0  0  0  0  0
  -31.5610  -16.3960   20.6200 C   0  0  0  0  0  3  0  0  0  0  0  0
  -31.5270  -13.9990   20.0240 C   0  0  0  0  0  0  0  0  0  0  0  0
  -30.9100  -11.9430   18.8270 C   0  0  0  0  0  2  0  0  0  0  0  0
  -29.9270  -12.2980   17.6930 C   0  0  0  0  0  2  0  0  0  0  0  0
  -28.4740  -12.3260   18.2120 C   0  0  0  0  0  2  0  0  0  0  0  0
  -28.3170  -13.1530   19.5180 C   0  0  0  0  0  3  0  0  0  0  0  0
  -29.4000  -12.7630   20.5500 C   0  0  0  0  0  2  0  0  0  0  0  0
  -30.7150  -12.9210   19.9060 N   0  0  0  0  0  0  0  0  0  0  0  0
  -32.6530  -14.0590   19.5230 O   0  0  0  0  0  0  0  0  0  0  0  0
  -30.9330  -15.0870   20.5140 N   0  0  0  0  0  0  0  0  0  0  0  0
  -29.9770  -15.0140   20.8200 H   0  0  0  0  0  0  0  0  0  0  0  0
  -26.0580  -14.0150   20.4010 C   0  0  0  0  0  0  0  0  0  0  0  0
  -24.9320  -13.3600   20.8230 C   0  0  0  0  0  0  0  0  0  0  0  0
  -25.2240  -11.9660   20.7210 C   0  0  0  0  0  0  0  0  0  0  0  0
  -26.9720  -13.0250   20.0760 N   0  0  0  0  0  0  0  0  0  0  0  0
  -26.4770  -11.7860   20.3230 N   0  0  0  0  0  0  0  0  0  0  0  0
  -24.3660  -10.7920   20.9230 C   0  0  0  0  0  0  0  0  0  0  0  0
  -24.7440   -9.7410   21.7870 C   0  0  0  0  0  3  0  0  0  0  0  0
  -23.8940   -8.6290   21.9770 C   0  0  0  0  0  3  0  0  0  0  0  0
  -22.6520   -8.5630   21.3040 C   0  0  0  0  0  0  0  0  0  0  0  0
  -22.2900   -9.6000   20.4280 C   0  0  0  0  0  3  0  0  0  0  0  0
  -23.1380  -10.7040   20.2360 C   0  0  0  0  0  3  0  0  0  0  0  0
  -21.7760   -7.5100   21.4070 O   0  0  0  0  0  0  0  0  0  0  0  0
  -21.7070   -6.7390   22.5400 C   0  0  0  0  0  0  0  0  0  0  0  0
  -21.4350   -7.2980   23.8080 C   0  0  0  0  0  3  0  0  0  0  0  0
  -21.3040   -6.4610   24.9340 C   0  0  0  0  0  3  0  0  0  0  0  0
  -21.4360   -5.0660   24.7930 C   0  0  0  0  0  0  0  0  0  0  0  0
  -21.7020   -4.5070   23.5310 C   0  0  0  0  0  3  0  0  0  0  0  0
  -21.8330   -5.3410   22.4090 C   0  0  0  0  0  0  0  0  0  0  0  0
  -22.0680   -4.7960   21.1900 F   0  0  0  0  0  0  0  0  0  0  0  0
  -21.3040   -4.2610   25.8730 F   0  0  0  0  0  0  0  0  0  0  0  0
  -23.6210  -13.9870   21.2040 C   0  0  0  0  0  0  0  0  0  0  0  0
  -22.8930  -13.3690   22.1260 N   0  0  0  0  0  0  0  0  0  0  0  0
  -23.2580  -15.0590   20.7200 O   0  0  0  0  0  0  0  0  0  0  0  0
  -23.2000  -12.5030   22.5420 H   0  0  0  0  0  0  0  0  0  0  0  0
  -22.0160  -13.7720   22.4260 H   0  0  0  0  0  0  0  0  0  0  0  0
  -26.3740  -15.3620   20.2480 N   0  0  0  0  0  0  0  0  0  0  0  0
  -25.6880  -16.0920   20.4050 H   0  0  0  0  0  0  0  0  0  0  0  0
  -27.2160  -15.7040   19.8020 H   0  0  0  0  0  0  0  0  0  0  0  0
  -31.4020  -17.1180   19.2660 C   0  0  0  0  0  0  0  0  0  0  0  0
  -32.4810  -17.6710   18.7240 N   0  0  0  0  0  0  0  0  0  0  0  0
  -30.3210  -17.1300   18.6760 O   0  0  0  0  0  0  0  0  0  0  0  0
  -33.3760  -17.6380   19.1960 H   0  0  0  0  0  0  0  0  0  0  0  0
  -32.4250  -18.1040   17.8140 H   0  0  0  0  0  0  0  0  0  0  0  0
  -28.7680  -20.1930   21.6790 C   0  0  0  0  0  2  0  0  0  0  0  0
  -29.9180  -20.9670   21.3580 O   0  0  0  0  0  0  0  0  0  0  0  0
  -29.6000  -22.1290   20.6000 C   0  0  0  0  0  2  0  0  0  0  0  0
  -30.8690  -22.9580   20.3480 C   0  0  0  0  0  2  0  0  0  0  0  0
  -31.0360  -23.9670   21.3390 O   0  0  0  0  0  0  0  0  0  0  0  0
  -31.9520  -24.9810   20.9150 C   0  0  0  0  0  2  0  0  0  0  0  0
  -31.8260  -26.2660   21.7790 C   0  0  0  0  0  2  0  0  0  0  0  0
  -31.4260  -27.6240   21.4740 O   0  0  0  0  0  0  0  0  0  0  0  0
  -25.8290  -31.2770   23.8490 C   0  0  0  0  0  0  0  0  0  0  0  0
  -30.1090  -27.9730   21.2460 C   0  0  0  0  0  0  0  0  0  0  0  0
  -25.3820  -29.7760   21.9310 C   0  0  0  0  0  3  0  0  0  0  0  0
  -27.4440  -28.7920   20.7940 C   0  0  0  0  0  0  0  0  0  0  0  0
  -27.7020  -30.7840   22.2850 C   0  0  0  0  0  2  0  0  0  0  0  0
  -28.2740  -29.5420   21.6360 C   0  0  0  0  0  0  0  0  0  0  0  0
  -29.6070  -29.1390   21.8580 C   0  0  0  0  0  3  0  0  0  0  0  0
  -29.2680  -27.2320   20.3860 C   0  0  0  0  0  3  0  0  0  0  0  0
  -27.9370  -27.6360   20.1630 C   0  0  0  0  0  3  0  0  0  0  0  0
  -26.0310  -29.2970   20.6030 C   0  0  0  0  0  2  0  0  0  0  0  0
  -26.3070  -30.6250   22.7510 N   0  0  0  0  0  0  0  0  0  0  0  0
  -24.6320  -31.2140   24.1620 O   0  0  0  0  0  0  0  0  0  0  0  0
  -24.8540  -28.5390   22.6910 C   0  0  0  0  0  0  0  0  0  0  0  0
  -23.6890  -28.0260   22.2650 N   0  0  0  0  0  0  0  0  0  0  0  0
  -25.4970  -28.0470   23.6240 O   0  0  0  0  0  0  0  0  0  0  0  0
  -23.2170  -28.4970   21.5070 H   0  0  0  0  0  0  0  0  0  0  0  0
  -20.7570  -25.9430   21.9380 C   0  0  0  0  0  0  0  0  0  0  0  0
  -23.0200  -26.8410   22.8030 C   0  0  0  0  0  3  0  0  0  0  0  0
  -23.6350  -25.5430   22.2320 C   0  0  0  0  0  2  0  0  0  0  0  0
  -22.9150  -25.0370   20.9790 C   0  0  0  0  0  2  0  0  0  0  0  0
  -21.4400  -24.7570   21.2780 C   0  0  0  0  0  2  0  0  0  0  0  0
  -21.4990  -26.9320   22.6350 C   0  0  0  0  0  0  0  0  0  0  0  0
  -20.8160  -28.0370   23.1870 C   0  0  0  0  0  3  0  0  0  0  0  0
  -19.4200  -28.1610   23.0540 C   0  0  0  0  0  3  0  0  0  0  0  0
  -18.6890  -27.1680   22.3800 C   0  0  0  0  0  3  0  0  0  0  0  0
  -19.3560  -26.0620   21.8270 C   0  0  0  0  0  3  0  0  0  0  0  0
  -26.7560  -32.1490   24.7520 C   0  0  0  0  0  3  0  0  0  0  0  0
  -27.0040  -31.5210   26.1790 C   0  0  1  0  0  0  0  0  0  0  0  0
  -25.7080  -31.1190   26.9200 C   0  0  0  0  0  1  0  0  0  0  0  0
  -27.8950  -30.2610   26.0700 C   0  0  0  0  0  1  0  0  0  0  0  0
  -27.7690  -32.5280   27.0700 C   0  0  0  0  0  1  0  0  0  0  0  0
  -26.1400  -33.4770   24.8670 N   0  0  0  0  0  0  0  0  0  0  0  0
  -26.5030  -34.5460   24.1460 C   0  0  0  0  0  0  0  0  0  0  0  0
  -27.4510  -34.5310   23.3560 O   0  0  0  0  0  0  0  0  0  0  0  0
  -25.3190  -33.5470   25.4530 H   0  0  0  0  0  0  0  0  0  0  0  0
  -24.6860  -35.9830   23.1650 C   0  0  0  0  0  1  0  0  0  0  0  0
  -25.6820  -35.8370   24.3250 C   0  0  0  0  0  3  0  0  0  0  0  0
  -27.3080  -37.1190   25.6450 C   0  0  0  0  0  1  0  0  0  0  0  0
  -26.5170  -37.0540   24.4200 N   0  0  0  0  0  0  0  0  0  0  0  0
  -25.9410  -37.8900   24.3710 H   0  0  0  0  0  0  0  0  0  0  0  0
  2  4  2  0
  3  2  1  0
  3  1  1  0
  5  3  1  0
  6 45  1  0
  6  2  1  0
  7 15  1  0
  8 13  1  0
  9 10  1  0
  9  8  1  0
 11 10  1  0
 11 20  1  0
 11 12  1  0
 13  7  1  0
 13 12  1  0
 14  7  2  0
 15  6  1  0
 15 16  1  0
 17 18  2  0
 18 37  1  0
 19 18  1  0
 19 22  1  0
 20 21  1  0
 20 17  1  0
 21 19  2  0
 22 23  1  0
 23 24  2  0
 25 28  1  0
 25 24  1  0
 26 25  2  0
 27 26  1  0
 27 22  2  0
 28 29  1  0
 29 30  1  0
 30 31  2  0
 32 31  1  0
 32 36  1  0
 33 32  2  0
 34 29  2  0
 34 33  1  0
 35 34  1  0
 37 38  1  0
 38 41  1  0
 38 40  1  0
 39 37  2  0
 42 17  1  0
 42 43  1  0
 44 42  1  0
 46 48  1  0
 46 45  1  0
 47 45  2  0
 49 46  1  0
 50  1  1  0
 51 50  1  0
 52 51  1  0
 53 52  1  0
 53 54  1  0
 55 54  1  0
 55 56  1  0
 57 56  1  0
 58 69  2  0
 59 57  1  0
 59 64  1  0
 60 70  1  0
 60 68  1  0
 61 63  1  0
 62 68  1  0
 63 64  2  0
 63 62  1  0
 65 59  2  0
 66 65  1  0
 66 61  2  0
 67 61  1  0
 67 60  1  0
 68 58  1  0
 70 72  2  0
 71 70  1  0
 73 71  1  0
 74 79  1  0
 75 71  1  0
 76 75  1  0
 77 78  1  0
 77 76  1  0
 78 74  1  0
 79 75  1  0
 79 80  2  0
 81 80  1  0
 82 81  2  0
 83 74  2  0
 83 82  1  0
 84 58  1  0
 84 89  1  0
 84 85  1  0
 85 86  1  1
 85 88  1  0
 87 85  1  0
 89 92  1  0
 90 94  1  0
 90 89  1  0
 91 90  2  0
 94 93  1  0
 94 96  1  0
 96 95  1  0
 97 96  1  0
M  ISO  4   7 100  15 100  56 101  57 101
M  END
>  <TORSDO>  (75) 
F 26

>  <SCORE>  (75) 
-6.073

>  <name>  (75) 
76

>  <ligand_id>  (75) 
76

>  <original_smiles>  (75) 
[H]c1c([H])c([H])c2c(c1[H])C([H])([H])C([H])([H])C([H])([H])C2([H])N([H])C(=O)C1([H])N(C(=O)C([H])(N([H])C(=O)C([H])(N([H])C([H])([H])[H])C([H])([H])[H])C(C([H])([H])[H])(C([H])([H])[H])C([H])([H])[H])C([H])([H])c2c([H])c(OC([H])([H])C([H])([H])OC([H])([H])C([H])([H])OC([H])([H])C([H])([H])N([H])C(=O)C([H])(C(=O)N([H])[H])N([H])C(=O)N3C([H])([H])C([H])([H])C([H])([H])C([H])(n4nc(-c5c([H])c([H])c(Oc6c([H])c([H])c(F)c([H])c6F)c([H])c5[H])c(C(=O)N([H])[H])c4N([H])[H])C3([H])[H])c([H])c([H])c2C1([H])[H]

>  <smiles>  (75) 
[H]c1c([H])c([H])c2c(c1[H])C([H])([H])C([H])([H])C([H])([H])C2([H])N([H])C(=O)C1([H])N(C(=O)C([H])(N([H])C(=O)C([H])(N([H])C([H])([H])[H])C([H])([H])[H])C(C([H])([H])[H])(C([H])([H])[H])C([H])([H])[H])C([H])([H])c2c([H])c(OC([H])([H])C([H])([H])OC([H])([H])C([H])([H])OC([H])([H])C([H])([H])N([H])C(=O)C([H])(C(=O)N([H])[H])N([H])C(=O)N3C([H])([H])C([H])([H])C([H])([H])C([H])(n4nc(-c5c([H])c([H])c(Oc6c([H])c([H])c(F)c([H])c6F)c([H])c5[H])c(C(=O)N([H])[H])c4N([H])[H])C3([H])[H])c([H])c([H])c2C1([H])[H]

$$$$
77:0:0
     RDKit          3D

 96103  0  0  1  0  0  0  0  0999 V2000
  -31.6460  -20.5080   19.6280 C   0  0  0  0  0  2  0  0  0  0  0  0
  -31.9460  -21.6870   18.6910 C   0  0  0  0  0  2  0  0  0  0  0  0
  -31.3360  -22.8640   19.2020 O   0  0  0  0  0  0  0  0  0  0  0  0
  -32.2490  -23.9100   19.5140 C   0  0  0  0  0  2  0  0  0  0  0  0
  -31.4480  -25.2060   19.6620 C   0  0  0  0  0  2  0  0  0  0  0  0
  -30.9810  -25.5720   18.3700 O   0  0  0  0  0  0  0  0  0  0  0  0
  -30.0160  -26.6140   18.3780 C   0  0  0  0  0  2  0  0  0  0  0  0
  -28.6590  -26.1260   18.9160 C   0  0  0  0  0  2  0  0  0  0  0  0
  -28.3690  -26.7770   20.1570 O   0  0  0  0  0  0  0  0  0  0  0  0
  -24.5600  -31.9070   23.3120 C   0  0  0  0  0  0  0  0  0  0  0  0
  -27.1800  -27.4640   20.2180 C   0  0  0  0  0  0  0  0  0  0  0  0
  -23.3470  -30.5120   21.6710 C   0  0  0  0  0  3  0  0  0  0  0  0
  -24.7870  -28.9600   20.2600 C   0  0  0  0  0  0  0  0  0  0  0  0
  -25.8750  -30.8520   21.4780 C   0  0  0  0  0  2  0  0  0  0  0  0
  -25.9480  -29.4800   20.8450 C   0  0  0  0  0  0  0  0  0  0  0  0
  -27.1470  -28.7350   20.8320 C   0  0  0  0  0  3  0  0  0  0  0  0
  -25.9870  -26.9320   19.6740 C   0  0  0  0  0  3  0  0  0  0  0  0
  -24.7970  -27.6790   19.6820 C   0  0  0  0  0  3  0  0  0  0  0  0
  -23.5520  -29.8280   20.2940 C   0  0  0  0  0  2  0  0  0  0  0  0
  -24.6120  -31.1050   22.2120 N   0  0  0  0  0  0  0  0  0  0  0  0
  -23.4800  -32.1890   23.8490 O   0  0  0  0  0  0  0  0  0  0  0  0
  -22.6860  -29.4950   22.6300 C   0  0  0  0  0  0  0  0  0  0  0  0
  -21.3690  -29.2920   22.4700 N   0  0  0  0  0  0  0  0  0  0  0  0
  -23.3580  -28.8920   23.4720 O   0  0  0  0  0  0  0  0  0  0  0  0
  -20.8910  -29.8310   21.7620 H   0  0  0  0  0  0  0  0  0  0  0  0
  -18.0090  -28.0220   22.8550 C   0  0  0  0  0  0  0  0  0  0  0  0
  -20.5440  -28.3570   23.2330 C   0  0  0  0  0  3  0  0  0  0  0  0
  -20.7090  -26.9110   22.7090 C   0  0  0  0  0  2  0  0  0  0  0  0
  -19.6650  -26.5270   21.6570 C   0  0  0  0  0  2  0  0  0  0  0  0
  -18.2510  -26.6570   22.2320 C   0  0  0  0  0  2  0  0  0  0  0  0
  -19.0870  -28.8270   23.3100 C   0  0  0  0  0  0  0  0  0  0  0  0
  -18.8100  -30.1030   23.8460 C   0  0  0  0  0  3  0  0  0  0  0  0
  -17.4870  -30.5750   23.9330 C   0  0  0  0  0  3  0  0  0  0  0  0
  -16.4220  -29.7670   23.4960 C   0  0  0  0  0  3  0  0  0  0  0  0
  -16.6840  -28.4920   22.9640 C   0  0  0  0  0  3  0  0  0  0  0  0
  -25.8510  -32.5270   23.9350 C   0  0  0  0  0  3  0  0  0  0  0  0
  -26.3490  -31.7640   25.2230 C   0  0  1  0  0  0  0  0  0  0  0  0
  -25.2430  -31.5420   26.2820 C   0  0  0  0  0  1  0  0  0  0  0  0
  -26.9260  -30.3790   24.8470 C   0  0  0  0  0  1  0  0  0  0  0  0
  -27.5000  -32.5570   25.8900 C   0  0  0  0  0  1  0  0  0  0  0  0
  -25.5610  -33.9330   24.2420 N   0  0  0  0  0  0  0  0  0  0  0  0
  -25.9160  -34.9680   23.4690 C   0  0  0  0  0  0  0  0  0  0  0  0
  -26.5960  -34.8380   22.4460 O   0  0  0  0  0  0  0  0  0  0  0  0
  -24.9610  -34.1090   25.0350 H   0  0  0  0  0  0  0  0  0  0  0  0
  -24.2110  -36.7740   23.0720 C   0  0  0  0  0  1  0  0  0  0  0  0
  -25.4440  -36.3710   23.8980 C   0  0  0  0  0  3  0  0  0  0  0  0
  -27.5880  -37.2380   24.7190 C   0  0  0  0  0  1  0  0  0  0  0  0
  -26.4900  -37.4080   23.7710 N   0  0  0  0  0  0  0  0  0  0  0  0
  -26.0970  -38.3360   23.9060 H   0  0  0  0  0  0  0  0  0  0  0  0
  -32.1720  -19.1750   19.0720 C   0  0  0  0  0  2  0  0  0  0  0  0
  -31.2040  -17.3310   20.4510 C   0  0  0  0  0  0  0  0  0  0  0  0
  -32.2160  -18.1340   20.0930 N   0  0  0  0  0  0  0  0  0  0  0  0
  -30.0760  -17.4150   19.9590 O   0  0  0  0  0  0  0  0  0  0  0  0
  -33.1140  -17.9650   20.5270 H   0  0  0  0  0  0  0  0  0  0  0  0
  -31.5110  -16.2540   21.5160 C   0  0  0  0  0  3  0  0  0  0  0  0
  -31.2960  -14.1860   20.1360 C   0  0  0  0  0  0  0  0  0  0  0  0
  -30.7630  -12.1660   18.8300 C   0  0  0  0  0  2  0  0  0  0  0  0
  -29.7910  -12.4800   17.6770 C   0  0  0  0  0  2  0  0  0  0  0  0
  -28.3290  -12.4180   18.1610 C   0  0  0  0  0  2  0  0  0  0  0  0
  -28.0970  -13.2370   19.4590 C   0  0  0  0  0  3  0  0  0  0  0  0
  -29.1670  -12.8890   20.5190 C   0  0  0  0  0  2  0  0  0  0  0  0
  -30.5010  -13.1090   19.9260 N   0  0  0  0  0  0  0  0  0  0  0  0
  -32.3060  -14.4320   19.4710 O   0  0  0  0  0  0  0  0  0  0  0  0
  -30.9280  -14.9680   21.1510 N   0  0  0  0  0  0  0  0  0  0  0  0
  -30.0860  -14.7310   21.6530 H   0  0  0  0  0  0  0  0  0  0  0  0
  -25.7510  -13.9760   20.2250 C   0  0  0  0  0  0  0  0  0  0  0  0
  -24.6560  -13.2620   20.6360 C   0  0  0  0  0  0  0  0  0  0  0  0
  -25.0470  -11.8880   20.6120 C   0  0  0  0  0  0  0  0  0  0  0  0
  -26.7440  -13.0390   19.9790 N   0  0  0  0  0  0  0  0  0  0  0  0
  -26.3240  -11.7810   20.2660 N   0  0  0  0  0  0  0  0  0  0  0  0
  -24.2660  -10.6670   20.8430 C   0  0  0  0  0  0  0  0  0  0  0  0
  -24.6690   -9.7040   21.7960 C   0  0  0  0  0  3  0  0  0  0  0  0
  -23.8950   -8.5440   22.0140 C   0  0  0  0  0  3  0  0  0  0  0  0
  -22.7020   -8.3390   21.2800 C   0  0  0  0  0  0  0  0  0  0  0  0
  -22.3170   -9.2880   20.3170 C   0  0  0  0  0  3  0  0  0  0  0  0
  -23.0920  -10.4390   20.0980 C   0  0  0  0  0  3  0  0  0  0  0  0
  -21.9010   -7.2310   21.4070 O   0  0  0  0  0  0  0  0  0  0  0  0
  -21.8100   -6.5370   22.5880 C   0  0  0  0  0  0  0  0  0  0  0  0
  -21.4190   -7.1610   23.7920 C   0  0  0  0  0  3  0  0  0  0  0  0
  -21.2740   -6.3960   24.9670 C   0  0  0  0  0  3  0  0  0  0  0  0
  -21.5110   -5.0080   24.9370 C   0  0  0  0  0  0  0  0  0  0  0  0
  -21.8960   -4.3840   23.7370 C   0  0  0  0  0  3  0  0  0  0  0  0
  -22.0420   -5.1460   22.5650 C   0  0  0  0  0  0  0  0  0  0  0  0
  -22.3940   -4.5370   21.4070 F   0  0  0  0  0  0  0  0  0  0  0  0
  -21.3650   -4.2720   26.0630 F   0  0  0  0  0  0  0  0  0  0  0  0
  -23.2920  -13.8100   20.9410 C   0  0  0  0  0  0  0  0  0  0  0  0
  -22.5630  -13.1730   21.8520 N   0  0  0  0  0  0  0  0  0  0  0  0
  -22.8810  -14.8390   20.4060 O   0  0  0  0  0  0  0  0  0  0  0  0
  -22.9040  -12.3400   22.3090 H   0  0  0  0  0  0  0  0  0  0  0  0
  -21.6480  -13.5240   22.0950 H   0  0  0  0  0  0  0  0  0  0  0  0
  -25.9800  -15.3330   20.0220 N   0  0  0  0  0  0  0  0  0  0  0  0
  -25.2630  -16.0360   20.1570 H   0  0  0  0  0  0  0  0  0  0  0  0
  -26.8520  -15.7180   19.6800 H   0  0  0  0  0  0  0  0  0  0  0  0
  -30.9500  -16.6150   22.9090 C   0  0  0  0  0  2  0  0  0  0  0  0
  -29.5290  -16.5070   22.9540 O   0  0  0  0  0  0  0  0  0  0  0  0
  -29.1770  -17.0880   22.2860 H   0  0  0  0  0  0  0  0  0  0  0  0
  2  3  1  0
  2  1  1  0
  3  4  1  0
  4  5  1  0
  6  7  1  0
  6  5  1  0
  7  8  1  0
  8  9  1  0
  9 11  1  0
 10 21  2  0
 11 16  1  0
 12 20  1  0
 12 22  1  0
 13 19  1  0
 13 15  1  0
 14 20  1  0
 15 14  1  0
 16 15  2  0
 17 18  1  0
 17 11  2  0
 18 13  2  0
 19 12  1  0
 20 10  1  0
 22 24  2  0
 23 22  1  0
 25 23  1  0
 26 35  2  0
 26 31  1  0
 27 23  1  0
 27 31  1  0
 28 27  1  0
 29 30  1  0
 29 28  1  0
 30 26  1  0
 31 32  2  0
 32 33  1  0
 34 33  2  0
 35 34  1  0
 36 10  1  0
 36 41  1  0
 36 37  1  0
 37 40  1  1
 37 38  1  0
 39 37  1  0
 41 44  1  0
 42 46  1  0
 42 41  1  0
 43 42  2  0
 46 45  1  0
 48 46  1  0
 48 49  1  0
 48 47  1  0
 50  1  1  0
 50 52  1  0
 51 55  1  0
 52 51  1  0
 52 54  1  0
 53 51  2  0
 55 94  1  0
 56 64  1  0
 57 62  1  0
 58 59  1  0
 58 57  1  0
 60 59  1  0
 60 69  1  0
 60 61  1  0
 62 56  1  0
 62 61  1  0
 63 56  2  0
 64 55  1  0
 64 65  1  0
 66 67  2  0
 67 86  1  0
 68 67  1  0
 68 71  1  0
 69 66  1  0
 69 70  1  0
 70 68  2  0
 71 72  1  0
 72 73  2  0
 74 77  1  0
 74 73  1  0
 75 74  2  0
 76 75  1  0
 76 71  2  0
 77 78  1  0
 78 79  1  0
 79 80  2  0
 81 80  1  0
 81 85  1  0
 82 81  2  0
 83 78  2  0
 83 82  1  0
 84 83  1  0
 86 87  1  0
 87 90  1  0
 87 89  1  0
 88 86  2  0
 91 92  1  0
 91 66  1  0
 93 91  1  0
 94 95  1  0
 96 95  1  0
M  ISO  4   8 101   9 101  56 100  64 100
M  END
>  <TORSDO>  (76) 
F 28

>  <SCORE>  (76) 
-9.941

>  <name>  (76) 
77

>  <ligand_id>  (76) 
77

>  <original_smiles>  (76) 
[H]OC([H])([H])C([H])(C(=O)N([H])C([H])([H])C([H])([H])C([H])([H])OC([H])([H])C([H])([H])OC([H])([H])C([H])([H])Oc1c([H])c([H])c2c(c1[H])C([H])([H])N(C(=O)C([H])(N([H])C(=O)C([H])(N([H])C([H])([H])[H])C([H])([H])[H])C(C([H])([H])[H])(C([H])([H])[H])C([H])([H])[H])C([H])(C(=O)N([H])C1([H])c3c([H])c([H])c([H])c([H])c3C([H])([H])C([H])([H])C1([H])[H])C2([H])[H])N([H])C(=O)N1C([H])([H])C([H])([H])C([H])([H])C([H])(n2nc(-c3c([H])c([H])c(Oc4c([H])c([H])c(F)c([H])c4F)c([H])c3[H])c(C(=O)N([H])[H])c2N([H])[H])C1([H])[H]

>  <smiles>  (76) 
[H]OC([H])([H])C([H])(C(=O)N([H])C([H])([H])C([H])([H])C([H])([H])OC([H])([H])C([H])([H])OC([H])([H])C([H])([H])Oc1c([H])c([H])c2c(c1[H])C([H])([H])N(C(=O)C([H])(N([H])C(=O)C([H])(N([H])C([H])([H])[H])C([H])([H])[H])C(C([H])([H])[H])(C([H])([H])[H])C([H])([H])[H])C([H])(C(=O)N([H])C1([H])c3c([H])c([H])c([H])c([H])c3C([H])([H])C([H])([H])C1([H])[H])C2([H])[H])N([H])C(=O)N1C([H])([H])C([H])([H])C([H])([H])C([H])(n2nc(-c3c([H])c([H])c(Oc4c([H])c([H])c(F)c([H])c4F)c([H])c3[H])c(C(=O)N([H])[H])c2N([H])[H])C1([H])[H]

$$$$
78:0:0
     RDKit          3D

107114  0  0  1  0  0  0  0  0999 V2000
  -31.0900  -20.8440   20.6140 C   0  0  0  0  0  3  0  0  0  0  0  0
  -31.7770  -21.8960   19.7310 C   0  0  0  0  0  0  0  0  0  0  0  0
  -32.1820  -23.0080   20.3490 N   0  0  0  0  0  0  0  0  0  0  0  0
  -31.9310  -21.7040   18.5210 O   0  0  0  0  0  0  0  0  0  0  0  0
  -32.0150  -23.0780   21.3450 H   0  0  0  0  0  0  0  0  0  0  0  0
  -32.8050  -24.1650   19.7200 C   0  0  0  0  0  2  0  0  0  0  0  0
  -32.3190  -25.4400   20.4170 C   0  0  0  0  0  2  0  0  0  0  0  0
  -30.9790  -25.6960   20.0170 O   0  0  0  0  0  0  0  0  0  0  0  0
  -30.4950  -26.9410   20.5050 C   0  0  0  0  0  2  0  0  0  0  0  0
  -29.2030  -27.3420   19.7750 C   0  0  0  0  0  2  0  0  0  0  0  0
  -28.0700  -26.6520   20.3090 O   0  0  0  0  0  0  0  0  0  0  0  0
  -24.2210  -31.8960   23.2420 C   0  0  0  0  0  0  0  0  0  0  0  0
  -26.9070  -27.3830   20.3260 C   0  0  0  0  0  0  0  0  0  0  0  0
  -23.0320  -30.4560   21.6150 C   0  0  0  0  0  3  0  0  0  0  0  0
  -24.5040  -28.8610   20.2710 C   0  0  0  0  0  0  0  0  0  0  0  0
  -25.5600  -30.7980   21.4540 C   0  0  0  0  0  2  0  0  0  0  0  0
  -25.6490  -29.4080   20.8630 C   0  0  0  0  0  0  0  0  0  0  0  0
  -26.8510  -28.6720   20.8980 C   0  0  0  0  0  3  0  0  0  0  0  0
  -25.7430  -26.8290   19.7590 C   0  0  0  0  0  3  0  0  0  0  0  0
  -24.5410  -27.5650   19.7230 C   0  0  0  0  0  3  0  0  0  0  0  0
  -23.2640  -29.7270   20.2630 C   0  0  0  0  0  2  0  0  0  0  0  0
  -24.2880  -31.0650   22.1630 N   0  0  0  0  0  0  0  0  0  0  0  0
  -23.1330  -32.1950   23.7520 O   0  0  0  0  0  0  0  0  0  0  0  0
  -22.3510  -29.4730   22.5920 C   0  0  0  0  0  0  0  0  0  0  0  0
  -21.0230  -29.3250   22.4610 N   0  0  0  0  0  0  0  0  0  0  0  0
  -23.0140  -28.8450   23.4210 O   0  0  0  0  0  0  0  0  0  0  0  0
  -20.5520  -29.8800   21.7600 H   0  0  0  0  0  0  0  0  0  0  0  0
  -17.6040  -28.3160   23.0360 C   0  0  0  0  0  0  0  0  0  0  0  0
  -20.1770  -28.4240   23.2420 C   0  0  0  0  0  3  0  0  0  0  0  0
  -20.1850  -26.9980   22.6470 C   0  0  0  0  0  2  0  0  0  0  0  0
  -19.0400  -26.7510   21.6590 C   0  0  0  0  0  2  0  0  0  0  0  0
  -17.6860  -26.9660   22.3420 C   0  0  0  0  0  2  0  0  0  0  0  0
  -18.7750  -29.0070   23.4450 C   0  0  0  0  0  0  0  0  0  0  0  0
  -18.6440  -30.2760   24.0520 C   0  0  0  0  0  3  0  0  0  0  0  0
  -17.3740  -30.8480   24.2570 C   0  0  0  0  0  3  0  0  0  0  0  0
  -16.2180  -30.1510   23.8650 C   0  0  0  0  0  3  0  0  0  0  0  0
  -16.3340  -28.8870   23.2600 C   0  0  0  0  0  3  0  0  0  0  0  0
  -25.5030  -32.5280   23.8680 C   0  0  0  0  0  3  0  0  0  0  0  0
  -26.0670  -31.7080   25.0930 C   0  0  1  0  0  0  0  0  0  0  0  0
  -24.9920  -31.3350   26.1390 C   0  0  0  0  0  1  0  0  0  0  0  0
  -26.7310  -30.3970   24.6080 C   0  0  0  0  0  1  0  0  0  0  0  0
  -27.1720  -32.5230   25.8070 C   0  0  0  0  0  1  0  0  0  0  0  0
  -25.1670  -33.9000   24.2730 N   0  0  0  0  0  0  0  0  0  0  0  0
  -25.4340  -34.9930   23.5450 C   0  0  0  0  0  0  0  0  0  0  0  0
  -26.0630  -34.9530   22.4830 O   0  0  0  0  0  0  0  0  0  0  0  0
  -24.6040  -34.0020   25.1040 H   0  0  0  0  0  0  0  0  0  0  0  0
  -23.6140  -36.7180   23.3680 C   0  0  0  0  0  1  0  0  0  0  0  0
  -24.9240  -36.3440   24.0800 C   0  0  0  0  0  3  0  0  0  0  0  0
  -27.0730  -37.2930   24.7920 C   0  0  0  0  0  1  0  0  0  0  0  0
  -25.9030  -37.4420   23.9310 N   0  0  0  0  0  0  0  0  0  0  0  0
  -25.4710  -38.3390   24.1370 H   0  0  0  0  0  0  0  0  0  0  0  0
  -31.2420  -18.3660   20.5100 C   0  0  0  0  0  0  0  0  0  0  0  0
  -31.0290  -19.5530   19.9390 N   0  0  0  0  0  0  0  0  0  0  0  0
  -31.6010  -18.2670   21.6880 O   0  0  0  0  0  0  0  0  0  0  0  0
  -30.7260  -19.5860   18.9780 H   0  0  0  0  0  0  0  0  0  0  0  0
  -30.9660  -17.1000   19.6510 C   0  0  0  0  0  3  0  0  0  0  0  0
  -33.2090  -15.9990   19.3860 C   0  0  0  0  0  0  0  0  0  0  0  0
  -31.9710  -16.0590   19.8820 N   0  0  0  0  0  0  0  0  0  0  0  0
  -33.6600  -16.8460   18.6110 O   0  0  0  0  0  0  0  0  0  0  0  0
  -31.6860  -15.3130   20.4980 H   0  0  0  0  0  0  0  0  0  0  0  0
  -33.6230  -14.1680   21.1400 C   0  0  0  0  0  1  0  0  0  0  0  0
  -34.1360  -13.7690   18.6720 C   0  0  0  0  0  1  0  0  0  0  0  0
  -34.0700  -14.8010   19.8070 C   0  0  0  0  0  3  0  0  0  0  0  0
  -28.5580  -16.7390   18.7420 C   0  0  0  0  0  1  0  0  0  0  0  0
  -28.8980  -17.0310   21.2030 C   0  0  0  0  0  1  0  0  0  0  0  0
  -29.5450  -16.4780   19.9080 C   0  0  2  0  0  0  0  0  0  0  0  0
  -30.2750  -14.0980   19.4160 C   0  0  0  0  0  0  0  0  0  0  0  0
  -29.9310  -11.8530   18.4710 C   0  0  0  0  0  2  0  0  0  0  0  0
  -28.7880  -11.9350   17.4370 C   0  0  0  0  0  2  0  0  0  0  0  0
  -27.4100  -11.7860   18.1130 C   0  0  0  0  0  2  0  0  0  0  0  0
  -27.2500  -12.7060   19.3540 C   0  0  0  0  0  3  0  0  0  0  0  0
  -28.4770  -12.5700   20.2820 C   0  0  0  0  0  2  0  0  0  0  0  0
  -29.6860  -12.8760   19.4930 N   0  0  0  0  0  0  0  0  0  0  0  0
  -31.2170  -14.3600   18.6620 O   0  0  0  0  0  0  0  0  0  0  0  0
  -29.6280  -15.0280   20.1300 N   0  0  0  0  0  0  0  0  0  0  0  0
  -28.9280  -14.6450   20.7490 H   0  0  0  0  0  0  0  0  0  0  0  0
  -25.0710  -13.3290   20.5820 C   0  0  0  0  0  0  0  0  0  0  0  0
  -24.0600  -12.5600   21.0930 C   0  0  0  0  0  0  0  0  0  0  0  0
  -24.4370  -11.2040   20.8550 C   0  0  0  0  0  0  0  0  0  0  0  0
  -26.0020  -12.4370   20.0670 N   0  0  0  0  0  0  0  0  0  0  0  0
  -25.6320  -11.1510   20.2830 N   0  0  0  0  0  0  0  0  0  0  0  0
  -23.7040   -9.9520   21.0870 C   0  0  0  0  0  0  0  0  0  0  0  0
  -24.2440   -8.9180   21.8850 C   0  0  0  0  0  3  0  0  0  0  0  0
  -23.5130   -7.7300   22.1060 C   0  0  0  0  0  3  0  0  0  0  0  0
  -22.2310   -7.5660   21.5310 C   0  0  0  0  0  0  0  0  0  0  0  0
  -21.7090   -8.5880   20.7190 C   0  0  0  0  0  3  0  0  0  0  0  0
  -22.4390   -9.7680   20.4950 C   0  0  0  0  0  3  0  0  0  0  0  0
  -21.4630   -6.4350   21.6680 O   0  0  0  0  0  0  0  0  0  0  0  0
  -21.6210   -5.5840   22.7330 C   0  0  0  0  0  0  0  0  0  0  0  0
  -21.3730   -5.9940   24.0590 C   0  0  0  0  0  3  0  0  0  0  0  0
  -21.4790   -5.0670   25.1160 C   0  0  0  0  0  3  0  0  0  0  0  0
  -21.8260   -3.7290   24.8460 C   0  0  0  0  0  0  0  0  0  0  0  0
  -22.0680   -3.3170   23.5240 C   0  0  0  0  0  3  0  0  0  0  0  0
  -21.9630   -4.2420   22.4700 C   0  0  0  0  0  0  0  0  0  0  0  0
  -22.1780   -3.8340   21.1960 F   0  0  0  0  0  0  0  0  0  0  0  0
  -21.9200   -2.8370   25.8590 F   0  0  0  0  0  0  0  0  0  0  0  0
  -22.7740  -13.0540   21.6910 C   0  0  0  0  0  0  0  0  0  0  0  0
  -22.2050  -12.3040   22.6290 N   0  0  0  0  0  0  0  0  0  0  0  0
  -22.2900  -14.1340   21.3580 O   0  0  0  0  0  0  0  0  0  0  0  0
  -22.6090  -11.4210   22.9060 H   0  0  0  0  0  0  0  0  0  0  0  0
  -21.3530  -12.6180   23.0720 H   0  0  0  0  0  0  0  0  0  0  0  0
  -25.2730  -14.7020   20.4920 N   0  0  0  0  0  0  0  0  0  0  0  0
  -24.6000  -15.3800   20.8380 H   0  0  0  0  0  0  0  0  0  0  0  0
  -26.0640  -15.1290   20.0240 H   0  0  0  0  0  0  0  0  0  0  0  0
  -29.6920  -21.2270   21.1630 C   0  0  0  0  0  2  0  0  0  0  0  0
  -28.6780  -21.2470   20.1640 O   0  0  0  0  0  0  0  0  0  0  0  0
  -28.8700  -21.9500   19.5520 H   0  0  0  0  0  0  0  0  0  0  0  0
  1105  1  0
  2  3  1  0
  2  1  1  0
  3  5  1  0
  4  2  2  0
  6  3  1  0
  6  7  1  0
  8  7  1  0
  8  9  1  0
 10 11  1  0
 10  9  1  0
 11 13  1  0
 12 23  2  0
 13 18  1  0
 14 22  1  0
 14 24  1  0
 15 17  1  0
 16 22  1  0
 17 18  2  0
 17 16  1  0
 19 13  2  0
 20 19  1  0
 20 15  2  0
 21 15  1  0
 21 14  1  0
 22 12  1  0
 24 26  2  0
 25 24  1  0
 27 25  1  0
 28 37  2  0
 28 33  1  0
 29 25  1  0
 29 33  1  0
 30 29  1  0
 31 32  1  0
 31 30  1  0
 32 28  1  0
 33 34  2  0
 34 35  1  0
 36 35  2  0
 37 36  1  0
 38 12  1  0
 38 43  1  0
 38 39  1  0
 39 42  1  1
 39 40  1  0
 41 39  1  0
 43 46  1  0
 44 48  1  0
 44 43  1  0
 45 44  2  0
 48 47  1  0
 50 48  1  0
 50 51  1  0
 50 49  1  0
 52 54  2  0
 53 52  1  0
 53  1  1  0
 55 53  1  0
 56 58  1  0
 56 66  1  0
 56 52  1  0
 57 63  1  0
 57 58  1  0
 58 60  1  0
 59 57  2  0
 62 63  1  0
 63 61  1  0
 66 64  1  6
 66 75  1  0
 66 65  1  0
 67 73  1  0
 67 75  1  0
 68 73  1  0
 69 70  1  0
 69 68  1  0
 71 70  1  0
 71 80  1  0
 71 72  1  0
 73 72  1  0
 74 67  2  0
 75 76  1  0
 77 78  2  0
 78 97  1  0
 79 82  1  0
 79 78  1  0
 80 81  1  0
 80 77  1  0
 81 79  2  0
 82 83  1  0
 83 84  2  0
 85 88  1  0
 85 84  1  0
 86 85  2  0
 87 86  1  0
 87 82  2  0
 88 89  1  0
 89 90  1  0
 90 91  2  0
 92 91  1  0
 92 96  1  0
 93 92  2  0
 94 89  2  0
 94 93  1  0
 95 94  1  0
 97 98  1  0
 98100  1  0
 98101  1  0
 99 97  2  0
102 77  1  0
102103  1  0
104102  1  0
106105  1  0
107106  1  0
M  ISO  4  10 101  11 101  67 100  75 100
M  END
>  <TORSDO>  (77) 
F 29

>  <SCORE>  (77) 
-8.265

>  <name>  (77) 
78

>  <ligand_id>  (77) 
78

>  <original_smiles>  (77) 
[H]OC([H])([H])C([H])(C(=O)N([H])C([H])([H])C([H])([H])OC([H])([H])C([H])([H])Oc1c([H])c([H])c2c(c1[H])C([H])([H])N(C(=O)C([H])(N([H])C(=O)C([H])(N([H])C([H])([H])[H])C([H])([H])[H])C(C([H])([H])[H])(C([H])([H])[H])C([H])([H])[H])C([H])(C(=O)N([H])C1([H])c3c([H])c([H])c([H])c([H])c3C([H])([H])C([H])([H])C1([H])[H])C2([H])[H])N([H])C(=O)C([H])(N([H])C(=O)C([H])(C([H])([H])[H])C([H])([H])[H])C(N([H])C(=O)N1C([H])([H])C([H])([H])C([H])([H])C([H])(n2nc(-c3c([H])c([H])c(Oc4c([H])c([H])c(F)c([H])c4F)c([H])c3[H])c(C(=O)N([H])[H])c2N([H])[H])C1([H])[H])(C([H])([H])[H])C([H])([H])[H]

>  <smiles>  (77) 
[H]OC([H])([H])C([H])(C(=O)N([H])C([H])([H])C([H])([H])OC([H])([H])C([H])([H])Oc1c([H])c([H])c2c(c1[H])C([H])([H])N(C(=O)C([H])(N([H])C(=O)C([H])(N([H])C([H])([H])[H])C([H])([H])[H])C(C([H])([H])[H])(C([H])([H])[H])C([H])([H])[H])C([H])(C(=O)N([H])C1([H])c3c([H])c([H])c([H])c([H])c3C([H])([H])C([H])([H])C1([H])[H])C2([H])[H])N([H])C(=O)C([H])(N([H])C(=O)C([H])(C([H])([H])[H])C([H])([H])[H])C(N([H])C(=O)N1C([H])([H])C([H])([H])C([H])([H])C([H])(n2nc(-c3c([H])c([H])c(Oc4c([H])c([H])c(F)c([H])c4F)c([H])c3[H])c(C(=O)N([H])[H])c2N([H])[H])C1([H])[H])(C([H])([H])[H])C([H])([H])[H]

$$$$
79:0:0
     RDKit          3D

 97104  0  0  1  0  0  0  0  0999 V2000
  -29.1960  -18.9100   22.4060 C   0  0  0  0  0  2  0  0  0  0  0  0
  -30.9010  -17.2050   21.7630 C   0  0  0  0  0  0  0  0  0  0  0  0
  -29.8470  -17.9880   21.4790 N   0  0  0  0  0  0  0  0  0  0  0  0
  -31.3290  -17.0900   22.9140 O   0  0  0  0  0  0  0  0  0  0  0  0
  -29.5520  -18.0380   20.5090 H   0  0  0  0  0  0  0  0  0  0  0  0
  -31.5610  -16.3960   20.6200 C   0  0  0  0  0  3  0  0  0  0  0  0
  -31.5270  -13.9990   20.0240 C   0  0  0  0  0  0  0  0  0  0  0  0
  -30.9100  -11.9430   18.8270 C   0  0  0  0  0  2  0  0  0  0  0  0
  -29.9270  -12.2980   17.6930 C   0  0  0  0  0  2  0  0  0  0  0  0
  -28.4740  -12.3260   18.2120 C   0  0  0  0  0  2  0  0  0  0  0  0
  -28.3170  -13.1530   19.5180 C   0  0  0  0  0  3  0  0  0  0  0  0
  -29.4000  -12.7630   20.5500 C   0  0  0  0  0  2  0  0  0  0  0  0
  -30.7150  -12.9210   19.9060 N   0  0  0  0  0  0  0  0  0  0  0  0
  -32.6530  -14.0590   19.5230 O   0  0  0  0  0  0  0  0  0  0  0  0
  -30.9330  -15.0870   20.5140 N   0  0  0  0  0  0  0  0  0  0  0  0
  -29.9770  -15.0140   20.8200 H   0  0  0  0  0  0  0  0  0  0  0  0
  -26.0580  -14.0150   20.4010 C   0  0  0  0  0  0  0  0  0  0  0  0
  -24.9320  -13.3600   20.8230 C   0  0  0  0  0  0  0  0  0  0  0  0
  -25.2240  -11.9660   20.7210 C   0  0  0  0  0  0  0  0  0  0  0  0
  -26.9720  -13.0250   20.0760 N   0  0  0  0  0  0  0  0  0  0  0  0
  -26.4770  -11.7860   20.3230 N   0  0  0  0  0  0  0  0  0  0  0  0
  -24.3660  -10.7920   20.9230 C   0  0  0  0  0  0  0  0  0  0  0  0
  -24.7440   -9.7410   21.7870 C   0  0  0  0  0  3  0  0  0  0  0  0
  -23.8940   -8.6290   21.9770 C   0  0  0  0  0  3  0  0  0  0  0  0
  -22.6520   -8.5630   21.3040 C   0  0  0  0  0  0  0  0  0  0  0  0
  -22.2900   -9.6000   20.4280 C   0  0  0  0  0  3  0  0  0  0  0  0
  -23.1380  -10.7040   20.2360 C   0  0  0  0  0  3  0  0  0  0  0  0
  -21.7760   -7.5100   21.4070 O   0  0  0  0  0  0  0  0  0  0  0  0
  -21.7070   -6.7390   22.5400 C   0  0  0  0  0  0  0  0  0  0  0  0
  -21.4350   -7.2980   23.8080 C   0  0  0  0  0  3  0  0  0  0  0  0
  -21.3040   -6.4610   24.9340 C   0  0  0  0  0  3  0  0  0  0  0  0
  -21.4360   -5.0660   24.7930 C   0  0  0  0  0  0  0  0  0  0  0  0
  -21.7020   -4.5070   23.5310 C   0  0  0  0  0  3  0  0  0  0  0  0
  -21.8330   -5.3410   22.4090 C   0  0  0  0  0  0  0  0  0  0  0  0
  -22.0680   -4.7960   21.1900 F   0  0  0  0  0  0  0  0  0  0  0  0
  -21.3040   -4.2610   25.8730 F   0  0  0  0  0  0  0  0  0  0  0  0
  -23.6210  -13.9870   21.2040 C   0  0  0  0  0  0  0  0  0  0  0  0
  -22.8930  -13.3690   22.1260 N   0  0  0  0  0  0  0  0  0  0  0  0
  -23.2580  -15.0590   20.7200 O   0  0  0  0  0  0  0  0  0  0  0  0
  -23.2000  -12.5030   22.5420 H   0  0  0  0  0  0  0  0  0  0  0  0
  -22.0160  -13.7720   22.4260 H   0  0  0  0  0  0  0  0  0  0  0  0
  -26.3740  -15.3620   20.2480 N   0  0  0  0  0  0  0  0  0  0  0  0
  -25.6880  -16.0920   20.4050 H   0  0  0  0  0  0  0  0  0  0  0  0
  -27.2160  -15.7040   19.8020 H   0  0  0  0  0  0  0  0  0  0  0  0
  -31.4020  -17.1180   19.2660 C   0  0  0  0  0  0  0  0  0  0  0  0
  -32.4810  -17.6710   18.7240 N   0  0  0  0  0  0  0  0  0  0  0  0
  -30.3210  -17.1300   18.6760 O   0  0  0  0  0  0  0  0  0  0  0  0
  -33.3760  -17.6380   19.1960 H   0  0  0  0  0  0  0  0  0  0  0  0
  -32.4250  -18.1040   17.8140 H   0  0  0  0  0  0  0  0  0  0  0  0
  -28.7680  -20.1930   21.6790 C   0  0  0  0  0  2  0  0  0  0  0  0
  -29.9180  -20.9670   21.3580 O   0  0  0  0  0  0  0  0  0  0  0  0
  -29.6000  -22.1290   20.6000 C   0  0  0  0  0  2  0  0  0  0  0  0
  -30.8690  -22.9580   20.3480 C   0  0  0  0  0  2  0  0  0  0  0  0
  -31.0360  -23.9670   21.3390 O   0  0  0  0  0  0  0  0  0  0  0  0
  -31.9520  -24.9810   20.9150 C   0  0  0  0  0  2  0  0  0  0  0  0
  -31.8260  -26.2660   21.7790 C   0  0  0  0  0  2  0  0  0  0  0  0
  -31.4260  -27.6240   21.4740 O   0  0  0  0  0  0  0  0  0  0  0  0
  -25.8290  -31.2770   23.8490 C   0  0  0  0  0  0  0  0  0  0  0  0
  -30.1090  -27.9730   21.2460 C   0  0  0  0  0  0  0  0  0  0  0  0
  -25.3820  -29.7760   21.9310 C   0  0  0  0  0  3  0  0  0  0  0  0
  -27.4440  -28.7920   20.7940 C   0  0  0  0  0  0  0  0  0  0  0  0
  -27.7020  -30.7840   22.2850 C   0  0  0  0  0  2  0  0  0  0  0  0
  -28.2740  -29.5420   21.6360 C   0  0  0  0  0  0  0  0  0  0  0  0
  -29.6070  -29.1390   21.8580 C   0  0  0  0  0  3  0  0  0  0  0  0
  -29.2680  -27.2320   20.3860 C   0  0  0  0  0  3  0  0  0  0  0  0
  -27.9370  -27.6360   20.1630 C   0  0  0  0  0  3  0  0  0  0  0  0
  -26.0310  -29.2970   20.6030 C   0  0  0  0  0  2  0  0  0  0  0  0
  -26.3070  -30.6250   22.7510 N   0  0  0  0  0  0  0  0  0  0  0  0
  -24.6320  -31.2140   24.1620 O   0  0  0  0  0  0  0  0  0  0  0  0
  -24.8540  -28.5390   22.6910 C   0  0  0  0  0  0  0  0  0  0  0  0
  -23.6890  -28.0260   22.2650 N   0  0  0  0  0  0  0  0  0  0  0  0
  -25.4970  -28.0470   23.6240 O   0  0  0  0  0  0  0  0  0  0  0  0
  -23.2170  -28.4970   21.5070 H   0  0  0  0  0  0  0  0  0  0  0  0
  -20.7570  -25.9430   21.9380 C   0  0  0  0  0  0  0  0  0  0  0  0
  -23.0200  -26.8410   22.8030 C   0  0  0  0  0  3  0  0  0  0  0  0
  -23.6350  -25.5430   22.2320 C   0  0  0  0  0  2  0  0  0  0  0  0
  -22.9150  -25.0370   20.9790 C   0  0  0  0  0  2  0  0  0  0  0  0
  -21.4400  -24.7570   21.2780 C   0  0  0  0  0  2  0  0  0  0  0  0
  -21.4990  -26.9320   22.6350 C   0  0  0  0  0  0  0  0  0  0  0  0
  -20.8160  -28.0370   23.1870 C   0  0  0  0  0  3  0  0  0  0  0  0
  -19.4200  -28.1610   23.0540 C   0  0  0  0  0  3  0  0  0  0  0  0
  -18.6890  -27.1680   22.3800 C   0  0  0  0  0  3  0  0  0  0  0  0
  -19.3560  -26.0620   21.8270 C   0  0  0  0  0  3  0  0  0  0  0  0
  -26.7560  -32.1490   24.7520 C   0  0  0  0  0  3  0  0  0  0  0  0
  -27.0040  -31.5210   26.1790 C   0  0  1  0  0  0  0  0  0  0  0  0
  -25.7080  -31.1190   26.9200 C   0  0  0  0  0  1  0  0  0  0  0  0
  -27.8950  -30.2610   26.0700 C   0  0  0  0  0  1  0  0  0  0  0  0
  -27.7690  -32.5280   27.0700 C   0  0  0  0  0  1  0  0  0  0  0  0
  -26.1400  -33.4770   24.8670 N   0  0  0  0  0  0  0  0  0  0  0  0
  -26.5030  -34.5460   24.1460 C   0  0  0  0  0  0  0  0  0  0  0  0
  -27.4510  -34.5310   23.3560 O   0  0  0  0  0  0  0  0  0  0  0  0
  -25.3190  -33.5470   25.4530 H   0  0  0  0  0  0  0  0  0  0  0  0
  -24.6860  -35.9830   23.1650 C   0  0  0  0  0  1  0  0  0  0  0  0
  -25.6820  -35.8370   24.3250 C   0  0  0  0  0  3  0  0  0  0  0  0
  -27.3080  -37.1190   25.6450 C   0  0  0  0  0  1  0  0  0  0  0  0
  -26.5170  -37.0540   24.4200 N   0  0  0  0  0  0  0  0  0  0  0  0
  -25.9410  -37.8900   24.3710 H   0  0  0  0  0  0  0  0  0  0  0  0
  2  4  2  0
  3  2  1  0
  3  1  1  0
  5  3  1  0
  6 45  1  0
  6  2  1  0
  7 15  1  0
  8 13  1  0
  9 10  1  0
  9  8  1  0
 11 10  1  0
 11 20  1  0
 11 12  1  0
 13  7  1  0
 13 12  1  0
 14  7  2  0
 15  6  1  0
 15 16  1  0
 17 18  2  0
 18 37  1  0
 19 18  1  0
 19 22  1  0
 20 21  1  0
 20 17  1  0
 21 19  2  0
 22 23  1  0
 23 24  2  0
 25 28  1  0
 25 24  1  0
 26 25  2  0
 27 26  1  0
 27 22  2  0
 28 29  1  0
 29 30  1  0
 30 31  2  0
 32 31  1  0
 32 36  1  0
 33 32  2  0
 34 29  2  0
 34 33  1  0
 35 34  1  0
 37 38  1  0
 38 41  1  0
 38 40  1  0
 39 37  2  0
 42 17  1  0
 42 43  1  0
 44 42  1  0
 46 48  1  0
 46 45  1  0
 47 45  2  0
 49 46  1  0
 50  1  1  0
 51 50  1  0
 52 51  1  0
 53 52  1  0
 53 54  1  0
 55 54  1  0
 55 56  1  0
 57 56  1  0
 58 69  2  0
 59 57  1  0
 59 64  1  0
 60 70  1  0
 60 68  1  0
 61 63  1  0
 62 68  1  0
 63 64  2  0
 63 62  1  0
 65 59  2  0
 66 65  1  0
 66 61  2  0
 67 61  1  0
 67 60  1  0
 68 58  1  0
 70 72  2  0
 71 70  1  0
 73 71  1  0
 74 79  1  0
 75 71  1  0
 76 75  1  0
 77 78  1  0
 77 76  1  0
 78 74  1  0
 79 75  1  0
 79 80  2  0
 81 80  1  0
 82 81  2  0
 83 74  2  0
 83 82  1  0
 84 58  1  0
 84 89  1  0
 84 85  1  0
 85 86  1  1
 85 88  1  0
 87 85  1  0
 89 92  1  0
 90 94  1  0
 90 89  1  0
 91 90  2  0
 94 93  1  0
 94 96  1  0
 96 95  1  0
 97 96  1  0
M  ISO  4   7 100  15 100  56 101  57 101
M  END
>  <TORSDO>  (78) 
F 26

>  <SCORE>  (78) 
-6.073

>  <name>  (78) 
79

>  <ligand_id>  (78) 
79

>  <original_smiles>  (78) 
[H]c1c([H])c([H])c2c(c1[H])C([H])([H])C([H])([H])C([H])([H])C2([H])N([H])C(=O)C1([H])N(C(=O)C([H])(N([H])C(=O)C([H])(N([H])C([H])([H])[H])C([H])([H])[H])C(C([H])([H])[H])(C([H])([H])[H])C([H])([H])[H])C([H])([H])c2c([H])c(OC([H])([H])C([H])([H])OC([H])([H])C([H])([H])OC([H])([H])C([H])([H])N([H])C(=O)C([H])(C(=O)N([H])[H])N([H])C(=O)N3C([H])([H])C([H])([H])C([H])([H])C([H])(n4nc(-c5c([H])c([H])c(Oc6c([H])c([H])c(F)c([H])c6F)c([H])c5[H])c(C(=O)N([H])[H])c4N([H])[H])C3([H])[H])c([H])c([H])c2C1([H])[H]

>  <smiles>  (78) 
[H]c1c([H])c([H])c2c(c1[H])C([H])([H])C([H])([H])C([H])([H])C2([H])N([H])C(=O)C1([H])N(C(=O)C([H])(N([H])C(=O)C([H])(N([H])C([H])([H])[H])C([H])([H])[H])C(C([H])([H])[H])(C([H])([H])[H])C([H])([H])[H])C([H])([H])c2c([H])c(OC([H])([H])C([H])([H])OC([H])([H])C([H])([H])OC([H])([H])C([H])([H])N([H])C(=O)C([H])(C(=O)N([H])[H])N([H])C(=O)N3C([H])([H])C([H])([H])C([H])([H])C([H])(n4nc(-c5c([H])c([H])c(Oc6c([H])c([H])c(F)c([H])c6F)c([H])c5[H])c(C(=O)N([H])[H])c4N([H])[H])C3([H])[H])c([H])c([H])c2C1([H])[H]

$$$$
80:0:0
     RDKit          3D

 89 96  0  0  1  0  0  0  0  0999 V2000
  -27.4660  -22.8810   21.3350 O   0  0  0  0  0  0  0  0  0  0  0  0
  -26.9340  -21.6540   20.8330 C   0  0  0  0  0  2  0  0  0  0  0  0
  -27.9130  -20.5030   21.1180 C   0  0  0  0  0  2  0  0  0  0  0  0
  -28.6710  -19.9740   19.8820 C   0  0  0  0  0  2  0  0  0  0  0  0
  -29.9190  -19.4170   20.2940 O   0  0  0  0  0  0  0  0  0  0  0  0
  -30.2430  -18.2070   19.6230 C   0  0  0  0  0  2  0  0  0  0  0  0
  -31.6410  -17.6910   20.0400 C   0  0  0  0  0  2  0  0  0  0  0  0
  -32.3460  -15.2400   19.9220 C   0  0  0  0  0  0  0  0  0  0  0  0
  -32.1440  -12.8620   19.2870 C   0  0  0  0  0  2  0  0  0  0  0  0
  -31.2450  -12.7640   18.0320 C   0  0  0  0  0  2  0  0  0  0  0  0
  -29.7430  -12.7650   18.3970 C   0  0  0  0  0  2  0  0  0  0  0  0
  -29.3760  -13.8910   19.3980 C   0  0  0  0  0  3  0  0  0  0  0  0
  -30.3570  -13.8680   20.5880 C   0  0  0  0  0  2  0  0  0  0  0  0
  -31.7230  -14.0440   20.0490 N   0  0  0  0  0  0  0  0  0  0  0  0
  -33.4560  -15.3910   19.3940 O   0  0  0  0  0  0  0  0  0  0  0  0
  -31.5740  -16.2580   20.3170 N   0  0  0  0  0  0  0  0  0  0  0  0
  -30.7120  -15.9580   20.7450 H   0  0  0  0  0  0  0  0  0  0  0  0
  -27.0480  -14.7960   20.0310 C   0  0  0  0  0  0  0  0  0  0  0  0
  -25.8940  -14.1640   20.4010 C   0  0  0  0  0  0  0  0  0  0  0  0
  -26.1950  -12.7660   20.4030 C   0  0  0  0  0  0  0  0  0  0  0  0
  -27.9890  -13.7960   19.8440 N   0  0  0  0  0  0  0  0  0  0  0  0
  -27.4750  -12.5710   20.1180 N   0  0  0  0  0  0  0  0  0  0  0  0
  -25.3270  -11.6000   20.6020 C   0  0  0  0  0  0  0  0  0  0  0  0
  -25.5840  -10.6570   21.6220 C   0  0  0  0  0  3  0  0  0  0  0  0
  -24.7260   -9.5530   21.8060 C   0  0  0  0  0  3  0  0  0  0  0  0
  -23.6000   -9.3810   20.9690 C   0  0  0  0  0  0  0  0  0  0  0  0
  -23.3570  -10.3150   19.9450 C   0  0  0  0  0  3  0  0  0  0  0  0
  -24.2140  -11.4120   19.7600 C   0  0  0  0  0  3  0  0  0  0  0  0
  -22.7240   -8.3270   21.0590 O   0  0  0  0  0  0  0  0  0  0  0  0
  -22.4490   -7.7190   22.2590 C   0  0  0  0  0  0  0  0  0  0  0  0
  -21.9240   -8.4370   23.3550 C   0  0  0  0  0  3  0  0  0  0  0  0
  -21.5920   -7.7590   24.5450 C   0  0  0  0  0  3  0  0  0  0  0  0
  -21.7740   -6.3670   24.6370 C   0  0  0  0  0  0  0  0  0  0  0  0
  -22.2910   -5.6500   23.5440 C   0  0  0  0  0  3  0  0  0  0  0  0
  -22.6250   -6.3240   22.3560 C   0  0  0  0  0  0  0  0  0  0  0  0
  -23.1030   -5.6250   21.3000 F   0  0  0  0  0  0  0  0  0  0  0  0
  -21.4480   -5.7150   25.7780 F   0  0  0  0  0  0  0  0  0  0  0  0
  -24.5560  -14.8030   20.6400 C   0  0  0  0  0  0  0  0  0  0  0  0
  -23.7450  -14.2200   21.5130 N   0  0  0  0  0  0  0  0  0  0  0  0
  -24.2400  -15.8560   20.0810 O   0  0  0  0  0  0  0  0  0  0  0  0
  -24.0090  -13.3720   21.9900 H   0  0  0  0  0  0  0  0  0  0  0  0
  -22.8450  -14.6330   21.7170 H   0  0  0  0  0  0  0  0  0  0  0  0
  -27.3710  -16.1350   19.8230 N   0  0  0  0  0  0  0  0  0  0  0  0
  -26.6580  -16.8570   19.8510 H   0  0  0  0  0  0  0  0  0  0  0  0
  -28.2340  -16.4460   19.3990 H   0  0  0  0  0  0  0  0  0  0  0  0
  -26.5310  -23.9520   21.2570 C   0  0  0  0  0  2  0  0  0  0  0  0
  -27.2020  -25.2900   21.6080 C   0  0  0  0  0  2  0  0  0  0  0  0
  -28.3280  -25.7140   20.6130 C   0  0  0  0  0  2  0  0  0  0  0  0
  -28.5580  -27.1410   20.5010 O   0  0  0  0  0  0  0  0  0  0  0  0
  -24.6640  -32.1550   23.5880 C   0  0  0  0  0  0  0  0  0  0  0  0
  -27.4220  -27.9090   20.3780 C   0  0  0  0  0  0  0  0  0  0  0  0
  -23.5160  -30.8260   21.8510 C   0  0  0  0  0  3  0  0  0  0  0  0
  -25.0230  -29.3820   20.3960 C   0  0  0  0  0  0  0  0  0  0  0  0
  -26.0460  -31.2310   21.7280 C   0  0  0  0  0  2  0  0  0  0  0  0
  -26.1660  -29.9030   21.0130 C   0  0  0  0  0  0  0  0  0  0  0  0
  -27.3800  -29.1790   20.9860 C   0  0  0  0  0  3  0  0  0  0  0  0
  -26.2700  -27.4160   19.7270 C   0  0  0  0  0  3  0  0  0  0  0  0
  -25.0660  -28.1410   19.7450 C   0  0  0  0  0  3  0  0  0  0  0  0
  -23.7700  -30.2240   20.4480 C   0  0  0  0  0  2  0  0  0  0  0  0
  -24.7580  -31.4170   22.4490 N   0  0  0  0  0  0  0  0  0  0  0  0
  -23.5650  -32.3830   24.1160 O   0  0  0  0  0  0  0  0  0  0  0  0
  -22.8530  -29.7470   22.7380 C   0  0  0  0  0  0  0  0  0  0  0  0
  -21.5260  -29.5620   22.5800 N   0  0  0  0  0  0  0  0  0  0  0  0
  -23.5220  -29.0780   23.5300 O   0  0  0  0  0  0  0  0  0  0  0  0
  -21.0320  -30.1780   21.9520 H   0  0  0  0  0  0  0  0  0  0  0  0
  -18.1610  -28.2700   22.8900 C   0  0  0  0  0  0  0  0  0  0  0  0
  -20.7010  -28.5680   23.2680 C   0  0  0  0  0  3  0  0  0  0  0  0
  -20.8540  -27.1650   22.6280 C   0  0  0  0  0  2  0  0  0  0  0  0
  -19.7920  -26.8600   21.5750 C   0  0  0  0  0  2  0  0  0  0  0  0
  -18.3920  -26.9480   22.1850 C   0  0  0  0  0  2  0  0  0  0  0  0
  -19.2480  -29.0420   23.3840 C   0  0  0  0  0  0  0  0  0  0  0  0
  -18.9780  -30.2770   24.0080 C   0  0  0  0  0  3  0  0  0  0  0  0
  -17.6600  -30.7490   24.1460 C   0  0  0  0  0  3  0  0  0  0  0  0
  -16.5850  -29.9770   23.6630 C   0  0  0  0  0  3  0  0  0  0  0  0
  -16.8340  -28.7400   23.0400 C   0  0  0  0  0  3  0  0  0  0  0  0
  -25.9300  -32.7650   24.2700 C   0  0  0  0  0  3  0  0  0  0  0  0
  -26.3590  -32.0020   25.5830 C   0  0  1  0  0  0  0  0  0  0  0  0
  -25.1970  -31.7890   26.5830 C   0  0  0  0  0  1  0  0  0  0  0  0
  -26.9490  -30.6120   25.2400 C   0  0  0  0  0  1  0  0  0  0  0  0
  -27.4780  -32.7900   26.3010 C   0  0  0  0  0  1  0  0  0  0  0  0
  -25.6360  -34.1750   24.5560 N   0  0  0  0  0  0  0  0  0  0  0  0
  -26.0460  -35.2030   23.8030 C   0  0  0  0  0  0  0  0  0  0  0  0
  -26.7790  -35.0640   22.8180 O   0  0  0  0  0  0  0  0  0  0  0  0
  -25.0020  -34.3570   25.3180 H   0  0  0  0  0  0  0  0  0  0  0  0
  -24.3960  -37.0320   23.2980 C   0  0  0  0  0  1  0  0  0  0  0  0
  -25.5650  -36.6120   24.2040 C   0  0  0  0  0  3  0  0  0  0  0  0
  -27.6610  -37.4530   25.1640 C   0  0  0  0  0  1  0  0  0  0  0  0
  -26.6290  -37.6350   24.1480 N   0  0  0  0  0  0  0  0  0  0  0  0
  -26.2400  -38.5670   24.2570 H   0  0  0  0  0  0  0  0  0  0  0  0
  2  3  1  0
  2  1  1  0
  4  5  1  0
  4  3  1  0
  6  7  1  0
  6  5  1  0
  7 16  1  0
  8 14  1  0
  8 16  1  0
  9 14  1  0
 10 11  1  0
 10  9  1  0
 12 11  1  0
 12 21  1  0
 12 13  1  0
 14 13  1  0
 15  8  2  0
 16 17  1  0
 18 19  2  0
 19 20  1  0
 19 38  1  0
 20 23  1  0
 21 18  1  0
 21 22  1  0
 22 20  2  0
 23 24  1  0
 24 25  2  0
 26 29  1  0
 26 25  1  0
 27 26  2  0
 28 27  1  0
 28 23  2  0
 29 30  1  0
 30 35  2  0
 30 31  1  0
 31 32  2  0
 32 33  1  0
 33 37  1  0
 34 33  2  0
 35 34  1  0
 36 35  1  0
 38 39  1  0
 39 42  1  0
 39 41  1  0
 40 38  2  0
 43 44  1  0
 43 18  1  0
 45 43  1  0
 46  1  1  0
 46 47  1  0
 48 47  1  0
 49 48  1  0
 50 61  2  0
 51 49  1  0
 51 56  1  0
 52 60  1  0
 52 62  1  0
 53 59  1  0
 53 55  1  0
 54 60  1  0
 55 54  1  0
 56 55  2  0
 57 58  1  0
 57 51  2  0
 58 53  2  0
 59 52  1  0
 60 50  1  0
 62 64  2  0
 63 62  1  0
 65 63  1  0
 66 75  2  0
 66 71  1  0
 67 63  1  0
 67 71  1  0
 68 67  1  0
 69 70  1  0
 69 68  1  0
 70 66  1  0
 71 72  2  0
 72 73  1  0
 74 73  2  0
 75 74  1  0
 76 50  1  0
 76 81  1  0
 76 77  1  0
 77 80  1  1
 77 78  1  0
 79 77  1  0
 81 84  1  0
 82 86  1  0
 82 81  1  0
 83 82  2  0
 86 85  1  0
 88 86  1  0
 88 89  1  0
 88 87  1  0
M  ISO  4   8 100  16 100  48 101  49 101
M  END
>  <TORSDO>  (79) 
F 25

>  <SCORE>  (79) 
-8.283

>  <name>  (79) 
80

>  <ligand_id>  (79) 
80

>  <original_smiles>  (79) 
[H]c1c([H])c([H])c2c(c1[H])C([H])([H])C([H])([H])C([H])([H])C2([H])N([H])C(=O)C1([H])N(C(=O)C([H])(N([H])C(=O)C([H])(N([H])C([H])([H])[H])C([H])([H])[H])C(C([H])([H])[H])(C([H])([H])[H])C([H])([H])[H])C([H])([H])c2c([H])c(OC([H])([H])C([H])([H])C([H])([H])OC([H])([H])C([H])([H])C([H])([H])OC([H])([H])C([H])([H])N([H])C(=O)N3C([H])([H])C([H])([H])C([H])([H])C([H])(n4nc(-c5c([H])c([H])c(Oc6c([H])c([H])c(F)c([H])c6F)c([H])c5[H])c(C(=O)N([H])[H])c4N([H])[H])C3([H])[H])c([H])c([H])c2C1([H])[H]

>  <smiles>  (79) 
[H]c1c([H])c([H])c2c(c1[H])C([H])([H])C([H])([H])C([H])([H])C2([H])N([H])C(=O)C1([H])N(C(=O)C([H])(N([H])C(=O)C([H])(N([H])C([H])([H])[H])C([H])([H])[H])C(C([H])([H])[H])(C([H])([H])[H])C([H])([H])[H])C([H])([H])c2c([H])c(OC([H])([H])C([H])([H])C([H])([H])OC([H])([H])C([H])([H])C([H])([H])OC([H])([H])C([H])([H])N([H])C(=O)N3C([H])([H])C([H])([H])C([H])([H])C([H])(n4nc(-c5c([H])c([H])c(Oc6c([H])c([H])c(F)c([H])c6F)c([H])c5[H])c(C(=O)N([H])[H])c4N([H])[H])C3([H])[H])c([H])c([H])c2C1([H])[H]

$$$$
81:0:0
     RDKit          3D

102108  0  0  1  0  0  0  0  0999 V2000
  -27.8690  -19.2220   21.1170 C   0  0  0  0  0  0  0  0  0  0  0  0
  -27.3790  -20.1770   21.9150 N   0  0  0  0  0  0  0  0  0  0  0  0
  -27.1560  -18.5670   20.3530 O   0  0  0  0  0  0  0  0  0  0  0  0
  -28.0320  -20.6750   22.5050 H   0  0  0  0  0  0  0  0  0  0  0  0
  -29.3760  -18.9500   21.1880 C   0  0  0  0  0  2  0  0  0  0  0  0
  -30.7640  -17.2740   19.9310 C   0  0  0  0  0  0  0  0  0  0  0  0
  -29.6610  -17.6510   20.5910 N   0  0  0  0  0  0  0  0  0  0  0  0
  -31.7590  -17.9990   19.8240 O   0  0  0  0  0  0  0  0  0  0  0  0
  -28.8760  -17.0140   20.5810 H   0  0  0  0  0  0  0  0  0  0  0  0
  -30.7140  -15.8960   19.2400 C   0  0  0  0  0  3  0  0  0  0  0  0
  -32.4750  -14.0320   19.1460 C   0  0  0  0  0  0  0  0  0  0  0  0
  -32.6130  -11.8280   20.2530 C   0  0  0  0  0  2  0  0  0  0  0  0
  -31.9080  -10.7350   19.4240 C   0  0  0  0  0  2  0  0  0  0  0  0
  -30.3960  -10.6820   19.7200 C   0  0  0  0  0  2  0  0  0  0  0  0
  -29.7420  -12.0880   19.6930 C   0  0  0  0  0  3  0  0  0  0  0  0
  -30.5780  -13.0450   20.5690 C   0  0  0  0  0  2  0  0  0  0  0  0
  -31.9410  -13.1210   20.0150 N   0  0  0  0  0  0  0  0  0  0  0  0
  -33.5200  -13.8110   18.5300 O   0  0  0  0  0  0  0  0  0  0  0  0
  -32.0420  -15.2990   19.1600 N   0  0  0  0  0  0  0  0  0  0  0  0
  -32.6700  -15.9250   18.6770 H   0  0  0  0  0  0  0  0  0  0  0  0
  -27.3940  -13.0460   20.1600 C   0  0  0  0  0  3  0  0  0  0  0  0
  -26.2330  -12.4550   20.5810 C   0  0  0  0  0  0  0  0  0  0  0  0
  -26.5400  -11.0740   20.7700 C   0  0  0  0  0  0  0  0  0  0  0  0
  -28.3440  -12.0360   20.1220 N   0  0  0  0  0  0  0  0  0  0  0  0
  -27.8290  -10.8510   20.5380 N   0  0  0  0  0  0  0  0  0  0  0  0
  -25.6730   -9.9390   21.1060 C   0  0  0  0  0  0  0  0  0  0  0  0
  -25.5880   -9.4420   22.4250 C   0  0  0  0  0  3  0  0  0  0  0  0
  -24.7330   -8.3600   22.7300 C   0  0  0  0  0  3  0  0  0  0  0  0
  -23.9510   -7.7660   21.7110 C   0  0  0  0  0  0  0  0  0  0  0  0
  -24.0550   -8.2520   20.3960 C   0  0  0  0  0  3  0  0  0  0  0  0
  -24.9100   -9.3260   20.0940 C   0  0  0  0  0  3  0  0  0  0  0  0
  -23.1150   -6.6930   21.9080 O   0  0  0  0  0  0  0  0  0  0  0  0
  -22.2250   -6.6580   22.9500 C   0  0  0  0  0  0  0  0  0  0  0  0
  -21.2080   -7.6280   23.0960 C   0  0  0  0  0  3  0  0  0  0  0  0
  -20.2720   -7.5160   24.1420 C   0  0  0  0  0  3  0  0  0  0  0  0
  -20.3420   -6.4300   25.0370 C   0  0  0  0  0  0  0  0  0  0  0  0
  -21.3480   -5.4610   24.8890 C   0  0  0  0  0  3  0  0  0  0  0  0
  -22.2840   -5.5730   23.8480 C   0  0  0  0  0  0  0  0  0  0  0  0
  -23.2400   -4.6250   23.6980 F   0  0  0  0  0  0  0  0  0  0  0  0
  -19.4360   -6.3170   26.0360 F   0  0  0  0  0  0  0  0  0  0  0  0
  -24.8890  -13.1110   20.7150 C   0  0  0  0  0  0  0  0  0  0  0  0
  -24.1060  -12.7040   21.7080 N   0  0  0  0  0  0  0  0  0  0  0  0
  -24.5460  -14.0260   19.9660 O   0  0  0  0  0  0  0  0  0  0  0  0
  -24.3970  -11.9740   22.3410 H   0  0  0  0  0  0  0  0  0  0  0  0
  -23.2050  -13.1400   21.8460 H   0  0  0  0  0  0  0  0  0  0  0  0
  -27.7180  -14.3500   19.7980 N   0  0  0  0  0  0  0  0  0  0  0  0
  -27.0310  -15.0950   19.7770 H   0  0  0  0  0  0  0  0  0  0  0  0
  -28.6240  -14.6460   19.4540 H   0  0  0  0  0  0  0  0  0  0  0  0
  -29.8330  -14.9530   20.0930 C   0  0  0  0  0  0  0  0  0  0  0  0
  -28.8200  -14.3290   19.5010 N   0  0  0  0  0  2  0  0  0  0  0  0
  -30.0830  -14.7500   21.2820 O   0  0  0  0  0  0  0  0  0  0  0  0
  -28.6210  -14.4610   18.5220 H   0  0  0  0  0  0  0  0  0  0  0  0
  -28.2530  -13.6800   20.0290 H   0  0  0  0  0  0  0  0  0  0  0  0
  -25.9840  -20.6180   21.9670 C   0  0  0  0  0  2  0  0  0  0  0  0
  -25.7200  -21.7850   21.0030 C   0  0  0  0  0  2  0  0  0  0  0  0
  -26.7240  -22.7590   21.2510 O   0  0  0  0  0  0  0  0  0  0  0  0
  -26.8910  -23.6990   20.2050 C   0  0  0  0  0  2  0  0  0  0  0  0
  -28.2960  -24.2860   20.3660 C   0  0  0  0  0  2  0  0  0  0  0  0
  -28.8120  -24.6730   19.1000 O   0  0  0  0  0  0  0  0  0  0  0  0
  -30.0190  -25.4210   19.1930 C   0  0  0  0  0  2  0  0  0  0  0  0
  -29.7310  -26.8750   19.5990 C   0  0  0  0  0  2  0  0  0  0  0  0
  -29.0720  -27.4880   18.4990 O   0  0  0  0  0  0  0  0  0  0  0  0
  -24.3150  -30.6040   22.7490 C   0  0  0  0  0  0  0  0  0  0  0  0
  -27.7630  -27.7920   18.7420 C   0  0  0  0  0  0  0  0  0  0  0  0
  -23.3880  -29.1940   20.9370 C   0  0  0  0  0  3  0  0  0  0  0  0
  -25.0570  -28.4280   19.1700 C   0  0  0  0  0  0  0  0  0  0  0  0
  -25.6580  -30.3390   20.6710 C   0  0  0  0  0  2  0  0  0  0  0  0
  -26.0630  -29.1860   19.7850 C   0  0  0  0  0  0  0  0  0  0  0  0
  -27.4190  -28.8740   19.5730 C   0  0  0  0  0  3  0  0  0  0  0  0
  -26.7510  -27.0250   18.1330 C   0  0  0  0  0  3  0  0  0  0  0  0
  -25.3950  -27.3400   18.3440 C   0  0  0  0  0  3  0  0  0  0  0  0
  -23.6300  -28.8430   19.4420 C   0  0  0  0  0  2  0  0  0  0  0  0
  -24.4720  -30.0560   21.5110 N   0  0  0  0  0  0  0  0  0  0  0  0
  -23.2680  -30.4410   23.3910 O   0  0  0  0  0  0  0  0  0  0  0  0
  -23.1720  -27.8810   21.7200 C   0  0  0  0  0  0  0  0  0  0  0  0
  -22.0270  -27.2210   21.4760 N   0  0  0  0  0  0  0  0  0  0  0  0
  -24.0290  -27.4600   22.5030 O   0  0  0  0  0  0  0  0  0  0  0  0
  -21.3720  -27.6350   20.8280 H   0  0  0  0  0  0  0  0  0  0  0  0
  -19.4550  -24.6860   21.4540 C   0  0  0  0  0  0  0  0  0  0  0  0
  -21.6270  -25.9460   22.0690 C   0  0  0  0  0  3  0  0  0  0  0  0
  -22.3780  -24.7650   21.4110 C   0  0  0  0  0  2  0  0  0  0  0  0
  -21.6100  -24.1370   20.2440 C   0  0  0  0  0  2  0  0  0  0  0  0
  -20.2470  -23.6190   20.7150 C   0  0  0  0  0  2  0  0  0  0  0  0
  -20.1030  -25.7850   22.0760 C   0  0  0  0  0  0  0  0  0  0  0  0
  -19.3200  -26.7650   22.7240 C   0  0  0  0  0  3  0  0  0  0  0  0
  -17.9170  -26.6610   22.7530 C   0  0  0  0  0  3  0  0  0  0  0  0
  -17.2810  -25.5630   22.1480 C   0  0  0  0  0  3  0  0  0  0  0  0
  -18.0500  -24.5760   21.5060 C   0  0  0  0  0  3  0  0  0  0  0  0
  -25.4280  -31.4820   23.4030 C   0  0  0  0  0  3  0  0  0  0  0  0
  -24.8010  -32.7350   23.8380 N   0  0  0  0  0  0  0  0  0  0  0  0
  -24.8730  -33.8940   23.1700 C   0  0  0  0  0  0  0  0  0  0  0  0
  -25.5470  -34.0370   22.1450 O   0  0  0  0  0  0  0  0  0  0  0  0
  -24.1850  -32.6820   24.6370 H   0  0  0  0  0  0  0  0  0  0  0  0
  -22.7760  -35.2620   22.9220 C   0  0  0  0  0  1  0  0  0  0  0  0
  -24.0710  -35.0850   23.7300 C   0  0  0  0  0  3  0  0  0  0  0  0
  -25.9380  -36.3610   24.6850 C   0  0  0  0  0  1  0  0  0  0  0  0
  -24.8270  -36.3550   23.7360 N   0  0  0  0  0  0  0  0  0  0  0  0
  -24.2160  -37.1360   23.9540 H   0  0  0  0  0  0  0  0  0  0  0  0
  -26.1560  -30.7710   24.6090 C   0  0  1  0  0  0  0  0  0  0  0  0
  -25.1870  -30.1960   25.6670 C   0  0  0  0  0  1  0  0  0  0  0  0
  -27.0440  -29.6100   24.1010 C   0  0  0  0  0  1  0  0  0  0  0  0
  -27.0950  -31.7740   25.3200 C   0  0  0  0  0  1  0  0  0  0  0  0
  1  5  1  0
  1  2  1  0
  2 54  1  0
  2  4  1  0
  3  1  2  0
  6  7  1  0
  7  5  1  0
  8  6  2  0
  9  7  1  0
 10  6  1  0
 10 49  1  0
 11 19  1  0
 11 17  1  0
 13 14  1  0
 13 12  1  0
 15 14  1  0
 15 24  1  0
 15 16  1  0
 17 12  1  0
 17 16  1  0
 18 11  2  0
 19 10  1  0
 20 19  1  0
 21 22  2  0
 22 41  1  0
 22 23  1  0
 23 26  1  0
 24 21  1  0
 24 25  1  0
 25 23  2  0
 26 27  1  0
 27 28  2  0
 29 32  1  0
 29 28  1  0
 30 29  2  0
 31 30  1  0
 31 26  2  0
 32 33  1  0
 33 34  2  0
 33 38  1  0
 34 35  1  0
 35 36  2  0
 36 40  1  0
 37 36  1  0
 38 37  2  0
 39 38  1  0
 41 42  1  0
 42 45  1  0
 42 44  1  0
 43 41  2  0
 46 53  1  0
 47 46  1  0
 48 46  1  0
 49 51  2  0
 50 49  1  0
 52 50  1  0
 55 56  1  0
 55 54  1  0
 57 58  1  0
 57 56  1  0
 59 60  1  0
 59 58  1  0
 60 61  1  0
 62 64  1  0
 62 61  1  0
 63 74  2  0
 64 69  1  0
 65 73  1  0
 65 75  1  0
 66 72  1  0
 66 68  1  0
 67 73  1  0
 68 67  1  0
 69 68  2  0
 70 71  1  0
 70 64  2  0
 71 66  2  0
 72 65  1  0
 73 63  1  0
 75 77  2  0
 76 75  1  0
 78 76  1  0
 79 88  2  0
 79 84  1  0
 80 76  1  0
 80 84  1  0
 81 80  1  0
 82 83  1  0
 82 81  1  0
 83 79  1  0
 84 85  2  0
 85 86  1  0
 87 86  2  0
 88 87  1  0
 89 63  1  0
 89 90  1  0
 89 99  1  0
 90 93  1  0
 91 95  1  0
 91 90  1  0
 92 91  2  0
 95 94  1  0
 95 97  1  0
 97 98  1  0
 97 96  1  0
 99102  1  1
 99100  1  0
101 99  1  0
M  ISO  4  11 100  19 100  61 101  62 101
M  END
>  <TORSDO>  (80) 
F 28

>  <SCORE>  (80) 
6.393

>  <name>  (80) 
81

>  <ligand_id>  (80) 
81

>  <original_smiles>  (80) 
[H]c1c([H])c([H])c2c(c1[H])C([H])([H])C([H])([H])C([H])([H])C2([H])N([H])C(=O)C1([H])N(C(=O)C([H])(N([H])C(=O)C([H])(N([H])C([H])([H])[H])C([H])([H])[H])C(C([H])([H])[H])(C([H])([H])[H])C([H])([H])[H])C([H])([H])c2c([H])c(OC([H])([H])C([H])([H])OC([H])([H])C([H])([H])OC([H])([H])C([H])([H])N([H])C(=O)C([H])([H])N([H])C(=O)C([H])(C(=O)N([H])[H])N([H])C(=O)N3C([H])([H])C([H])([H])C([H])([H])C([H])(n4nc(-c5c([H])c([H])c(Oc6c([H])c([H])c(F)c([H])c6F)c([H])c5[H])c(C(=O)N([H])[H])c4N([H])[H])C3([H])[H])c([H])c([H])c2C1([H])[H]

>  <smiles>  (80) 
[H]c1c([H])c([H])c2c(c1[H])C([H])([H])C([H])([H])C([H])([H])C2([H])N([H])C(=O)C1([H])N(C(=O)C([H])(N([H])C(=O)C([H])(N([H])C([H])([H])[H])C([H])([H])[H])C(C([H])([H])[H])(C([H])([H])[H])C([H])([H])[H])C([H])([H])c2c([H])c(OC([H])([H])C([H])([H])OC([H])([H])C([H])([H])OC([H])([H])C([H])([H])N([H])C(=O)C([H])([H])N([H])C(=O)C([H])(C(=O)N([H])[H])N([H])C(=O)N3C([H])([H])C([H])([H])C([H])([H])C([H])(n4nc(-c5c([H])c([H])c(Oc6c([H])c([H])c(F)c([H])c6F)c([H])c5[H])c(C(=O)N([H])[H])c4N([H])[H])C3([H])[H])c([H])c([H])c2C1([H])[H]

$$$$
82:0:0
     RDKit          3D

101108  0  0  1  0  0  0  0  0999 V2000
  -34.8090  -24.3960   14.2260 C   0  0  0  0  0  0  0  0  0  0  0  0
  -35.4050  -23.7820   15.2520 N   0  0  0  0  0  0  0  0  0  0  0  0
  -35.3820  -25.2210   13.5120 O   0  0  0  0  0  0  0  0  0  0  0  0
  -34.8690  -23.0780   15.7440 H   0  0  0  0  0  0  0  0  0  0  0  0
  -33.4060  -24.0630   14.1630 C   0  0  0  0  0  3  0  0  0  0  0  0
  -32.8170  -24.0150   12.9530 C   0  0  0  0  0  3  0  0  0  0  0  0
  -31.4080  -23.7170   12.8200 C   0  0  0  0  0  0  0  0  0  0  0  0
  -31.1720  -23.0310   11.6960 N   0  0  0  0  0  0  0  0  0  0  0  0
  -30.5240  -24.0400   13.6160 O   0  0  0  0  0  0  0  0  0  0  0  0
  -31.9700  -22.8470   11.1020 H   0  0  0  0  0  0  0  0  0  0  0  0
  -28.7410  -23.3900   11.8070 C   0  0  0  0  0  1  0  0  0  0  0  0
  -29.8820  -22.5350   11.2300 C   0  0  0  0  0  3  0  0  0  0  0  0
  -30.9480  -22.7420    8.9370 C   0  0  0  0  0  3  0  0  0  0  0  0
  -29.8630  -22.5580    9.7140 C   0  0  0  0  0  3  0  0  0  0  0  0
  -31.3030  -24.3370    5.7060 C   0  0  0  0  0  0  0  0  0  0  0  0
  -32.3880  -26.0540    4.3000 C   0  0  0  0  0  2  0  0  0  0  0  0
  -33.9210  -25.9080    4.3890 C   0  0  0  0  0  2  0  0  0  0  0  0
  -34.4820  -26.6670    5.6070 C   0  0  0  0  0  2  0  0  0  0  0  0
  -33.7060  -26.3590    6.9140 C   0  0  0  0  0  3  0  0  0  0  0  0
  -32.1850  -26.4910    6.6790 C   0  0  0  0  0  2  0  0  0  0  0  0
  -31.8150  -25.5890    5.5740 N   0  0  0  0  0  0  0  0  0  0  0  0
  -31.0760  -23.6090    4.7320 O   0  0  0  0  0  0  0  0  0  0  0  0
  -30.8270  -22.7460    7.4880 C   0  0  0  0  0  0  0  0  0  0  0  0
  -31.1610  -23.9490    6.9890 N   0  0  0  0  0  0  0  0  0  0  0  0
  -30.4780  -21.7680    6.8160 O   0  0  0  0  0  0  0  0  0  0  0  0
  -31.4120  -24.6470    7.6680 H   0  0  0  0  0  0  0  0  0  0  0  0
  -33.9790  -27.0370    9.3840 C   0  0  0  0  0  0  0  0  0  0  0  0
  -34.6610  -28.0640    9.9800 C   0  0  0  0  0  0  0  0  0  0  0  0
  -35.2440  -28.8180    8.9160 C   0  0  0  0  0  0  0  0  0  0  0  0
  -34.1600  -27.2000    8.0180 N   0  0  0  0  0  0  0  0  0  0  0  0
  -34.8860  -28.3150    7.7420 N   0  0  0  0  0  0  0  0  0  0  0  0
  -36.1690  -29.9600    8.9460 C   0  0  0  0  0  0  0  0  0  0  0  0
  -37.5350  -29.7950    9.2650 C   0  0  0  0  0  3  0  0  0  0  0  0
  -38.4070  -30.9060    9.2700 C   0  0  0  0  0  3  0  0  0  0  0  0
  -37.9180  -32.1940    8.9510 C   0  0  0  0  0  0  0  0  0  0  0  0
  -36.5530  -32.3550    8.6540 C   0  0  0  0  0  3  0  0  0  0  0  0
  -35.6840  -31.2510    8.6540 C   0  0  0  0  0  3  0  0  0  0  0  0
  -38.6850  -33.3330    8.9550 O   0  0  0  0  0  0  0  0  0  0  0  0
  -39.3490  -33.7490   10.0810 C   0  0  0  0  0  0  0  0  0  0  0  0
  -40.7590  -33.7350   10.1600 C   0  0  0  0  0  3  0  0  0  0  0  0
  -41.4040  -34.2360   11.3090 C   0  0  0  0  0  3  0  0  0  0  0  0
  -40.6440  -34.7570   12.3730 C   0  0  0  0  0  0  0  0  0  0  0  0
  -39.2410  -34.7760   12.2930 C   0  0  0  0  0  3  0  0  0  0  0  0
  -38.5960  -34.2760   11.1490 C   0  0  0  0  0  0  0  0  0  0  0  0
  -37.2440  -34.3160   11.0680 F   0  0  0  0  0  0  0  0  0  0  0  0
  -41.2630  -35.2450   13.4740 F   0  0  0  0  0  0  0  0  0  0  0  0
  -34.8440  -28.2830   11.4530 C   0  0  0  0  0  0  0  0  0  0  0  0
  -36.0250  -27.9780   11.9790 N   0  0  0  0  0  0  0  0  0  0  0  0
  -33.9510  -28.7770   12.1410 O   0  0  0  0  0  0  0  0  0  0  0  0
  -36.7650  -27.5940   11.4100 H   0  0  0  0  0  0  0  0  0  0  0  0
  -36.1910  -28.1330   12.9630 H   0  0  0  0  0  0  0  0  0  0  0  0
  -33.2390  -25.9710    9.8860 N   0  0  0  0  0  0  0  0  0  0  0  0
  -33.1400  -25.8030   10.8810 H   0  0  0  0  0  0  0  0  0  0  0  0
  -32.8290  -25.2390    9.3190 H   0  0  0  0  0  0  0  0  0  0  0  0
  -36.6270  -24.2560   15.8990 C   0  0  0  0  0  2  0  0  0  0  0  0
  -36.4750  -24.2950   17.4390 C   0  0  0  0  0  2  0  0  0  0  0  0
  -37.8130  -24.4630   18.1800 C   0  0  0  0  0  2  0  0  0  0  0  0
  -37.6260  -24.3940   19.5890 O   0  0  0  0  0  0  0  0  0  0  0  0
  -37.3080  -23.0690   20.0040 C   0  0  0  0  0  2  0  0  0  0  0  0
  -35.8920  -22.9890   20.6100 C   0  0  0  0  0  2  0  0  0  0  0  0
  -35.7030  -21.7660   21.3300 O   0  0  0  0  0  0  0  0  0  0  0  0
  -39.0520  -15.9120   19.0130 C   0  0  0  0  0  0  0  0  0  0  0  0
  -35.6610  -20.5890   20.6150 C   0  0  0  0  0  0  0  0  0  0  0  0
  -36.8820  -16.4220   17.9310 C   0  0  0  0  0  3  0  0  0  0  0  0
  -35.4880  -18.2390   19.0550 C   0  0  0  0  0  0  0  0  0  0  0  0
  -37.3470  -17.1520   20.3330 C   0  0  0  0  0  2  0  0  0  0  0  0
  -36.4310  -18.3290   20.0840 C   0  0  0  0  0  0  0  0  0  0  0  0
  -36.5220  -19.4950   20.8660 C   0  0  0  0  0  3  0  0  0  0  0  0
  -34.7070  -20.4830   19.5830 C   0  0  0  0  0  3  0  0  0  0  0  0
  -34.6230  -19.3180   18.7940 C   0  0  0  0  0  3  0  0  0  0  0  0
  -35.4590  -16.9430   18.2770 C   0  0  0  0  0  2  0  0  0  0  0  0
  -37.8250  -16.4980   19.0950 N   0  0  0  0  0  0  0  0  0  0  0  0
  -39.3890  -15.2720   18.0090 O   0  0  0  0  0  0  0  0  0  0  0  0
  -37.3930  -17.1750   16.6820 C   0  0  0  0  0  0  0  0  0  0  0  0
  -38.1260  -16.4600   15.8110 N   0  0  0  0  0  0  0  0  0  0  0  0
  -37.1050  -18.3600   16.4950 O   0  0  0  0  0  0  0  0  0  0  0  0
  -38.3190  -15.4940   16.0390 H   0  0  0  0  0  0  0  0  0  0  0  0
  -41.1640  -16.7320   13.8820 C   0  0  0  0  0  0  0  0  0  0  0  0
  -38.6780  -16.9470   14.5480 C   0  0  0  0  0  3  0  0  0  0  0  0
  -38.3850  -15.9620   13.3950 C   0  0  0  0  0  2  0  0  0  0  0  0
  -39.5140  -14.9510   13.1690 C   0  0  0  0  0  2  0  0  0  0  0  0
  -40.8260  -15.6730   12.8470 C   0  0  0  0  0  2  0  0  0  0  0  0
  -40.1570  -17.3200   14.6910 C   0  0  0  0  0  0  0  0  0  0  0  0
  -40.5270  -18.2750   15.6600 C   0  0  0  0  0  3  0  0  0  0  0  0
  -41.8740  -18.6460   15.8280 C   0  0  0  0  0  3  0  0  0  0  0  0
  -42.8660  -18.0750   15.0130 C   0  0  0  0  0  3  0  0  0  0  0  0
  -42.5110  -17.1220   14.0390 C   0  0  0  0  0  3  0  0  0  0  0  0
  -40.0820  -15.9940   20.1860 C   0  0  0  0  0  3  0  0  0  0  0  0
  -41.5630  -15.7100   19.7280 C   0  0  1  0  0  0  0  0  0  0  0  0
  -41.6650  -14.8160   18.4700 C   0  0  0  0  0  1  0  0  0  0  0  0
  -42.3010  -17.0370   19.4280 C   0  0  0  0  0  1  0  0  0  0  0  0
  -42.3460  -15.0120   20.8650 C   0  0  0  0  0  1  0  0  0  0  0  0
  -39.6620  -15.0340   21.2150 N   0  0  0  0  0  0  0  0  0  0  0  0
  -39.2600  -13.7790   20.9650 C   0  0  0  0  0  0  0  0  0  0  0  0
  -39.1310  -13.3330   19.8210 O   0  0  0  0  0  0  0  0  0  0  0  0
  -39.7820  -15.3200   22.1750 H   0  0  0  0  0  0  0  0  0  0  0  0
  -40.1650  -11.9610   22.4440 C   0  0  0  0  0  1  0  0  0  0  0  0
  -38.9590  -12.8750   22.1750 C   0  0  0  0  0  3  0  0  0  0  0  0
  -36.5620  -12.6460   22.6410 C   0  0  0  0  0  1  0  0  0  0  0  0
  -37.7400  -12.0580   22.0080 N   0  0  0  0  0  0  0  0  0  0  0  0
  -37.8710  -11.1270   22.3920 H   0  0  0  0  0  0  0  0  0  0  0  0
  1  2  1  0
  2  4  1  0
  2 55  1  0
  3  1  2  0
  5  1  1  0
  6  5  2  0
  7  6  1  0
  7  9  2  0
  8  7  1  0
 10  8  1  0
 12  8  1  0
 12 11  1  0
 13 14  2  0
 14 12  1  0
 15 24  1  0
 16 17  1  0
 16 21  1  0
 17 18  1  0
 19 18  1  0
 19 30  1  0
 20 19  1  0
 21 15  1  0
 21 20  1  0
 22 15  2  0
 23 13  1  0
 24 23  1  0
 24 26  1  0
 25 23  2  0
 27 52  1  0
 27 28  2  0
 28 47  1  0
 29 32  1  0
 29 28  1  0
 30 27  1  0
 31 30  1  0
 31 29  2  0
 32 33  1  0
 33 34  2  0
 35 38  1  0
 35 34  1  0
 36 35  2  0
 37 36  1  0
 37 32  2  0
 38 39  1  0
 39 40  2  0
 39 44  1  0
 40 41  1  0
 41 42  2  0
 42 46  1  0
 43 42  1  0
 44 43  2  0
 45 44  1  0
 47 48  1  0
 47 49  2  0
 48 51  1  0
 50 48  1  0
 52 53  1  0
 54 52  1  0
 55 56  1  0
 56 57  1  0
 57 58  1  0
 58 59  1  0
 59 60  1  0
 60 61  1  0
 62 72  1  0
 63 68  1  0
 63 61  1  0
 64 74  1  0
 64 71  1  0
 64 72  1  0
 65 67  1  0
 67 66  1  0
 67 68  2  0
 69 63  2  0
 70 65  2  0
 70 69  1  0
 71 65  1  0
 72 66  1  0
 73 62  2  0
 75 77  1  0
 75 74  1  0
 76 74  2  0
 78 87  2  0
 78 83  1  0
 79 83  1  0
 79 75  1  0
 80 79  1  0
 81 80  1  0
 82 81  1  0
 82 78  1  0
 83 84  2  0
 84 85  1  0
 86 85  2  0
 87 86  1  0
 88 62  1  0
 88 93  1  0
 89 88  1  0
 89 92  1  1
 90 89  1  0
 91 89  1  0
 93 96  1  0
 94 93  1  0
 94 98  1  0
 95 94  2  0
 98 97  1  0
100 98  1  0
100101  1  0
100 99  1  0
M  ISO  4  15 100  24 100  60 101  61 101
M  END
>  <TORSDO>  (81) 
F 26

>  <SCORE>  (81) 
-1.322

>  <name>  (81) 
82

>  <ligand_id>  (81) 
82

>  <original_smiles>  (81) 
[H]C(C(=O)N([H])C([H])([H])C([H])([H])C([H])([H])OC([H])([H])C([H])([H])Oc1c([H])c([H])c2c(c1[H])C([H])([H])N(C(=O)C([H])(N([H])C(=O)C([H])(N([H])C([H])([H])[H])C([H])([H])[H])C(C([H])([H])[H])(C([H])([H])[H])C([H])([H])[H])C([H])(C(=O)N([H])C1([H])c3c([H])c([H])c([H])c([H])c3C([H])([H])C([H])([H])C1([H])[H])C2([H])[H])=C([H])C(=O)N([H])C([H])(C([H])=C([H])C(=O)N([H])C(=O)N1C([H])([H])C([H])([H])C([H])([H])C([H])(n2nc(-c3c([H])c([H])c(Oc4c([H])c([H])c(F)c([H])c4F)c([H])c3[H])c(C(=O)N([H])[H])c2N([H])[H])C1([H])[H])C([H])([H])[H]

>  <smiles>  (81) 
[H]C(C(=O)N([H])C([H])([H])C([H])([H])C([H])([H])OC([H])([H])C([H])([H])Oc1c([H])c([H])c2c(c1[H])C([H])([H])N(C(=O)C([H])(N([H])C(=O)C([H])(N([H])C([H])([H])[H])C([H])([H])[H])C(C([H])([H])[H])(C([H])([H])[H])C([H])([H])[H])C([H])(C(=O)N([H])C1([H])c3c([H])c([H])c([H])c([H])c3C([H])([H])C([H])([H])C1([H])[H])C2([H])[H])=C([H])C(=O)N([H])C([H])(C([H])=C([H])C(=O)N([H])C(=O)N1C([H])([H])C([H])([H])C([H])([H])C([H])(n2nc(-c3c([H])c([H])c(Oc4c([H])c([H])c(F)c([H])c4F)c([H])c3[H])c(C(=O)N([H])[H])c2N([H])[H])C1([H])[H])C([H])([H])[H]

$$$$
83:0:0
     RDKit          3D

 95102  0  0  1  0  0  0  0  0999 V2000
  -30.7110  -19.1760   22.1940 C   0  0  0  0  0  0  0  0  0  0  0  0
  -30.7250  -19.9440   21.0820 N   0  0  0  0  0  0  0  0  0  0  0  0
  -30.6600  -19.6630   23.3300 O   0  0  0  0  0  0  0  0  0  0  0  0
  -30.7940  -19.4840   20.1850 H   0  0  0  0  0  0  0  0  0  0  0  0
  -30.7840  -17.6040   21.9960 C   0  0  0  0  0  0  0  0  0  0  0  0
  -31.2680  -16.9060   22.8960 O   0  0  0  0  0  0  0  0  0  0  0  0
  -30.2370  -16.9660   20.6810 C   0  0  0  0  0  3  0  0  0  0  0  0
  -30.8170  -14.5090   20.2730 C   0  0  0  0  0  0  0  0  0  0  0  0
  -30.4930  -12.3810   19.0650 C   0  0  0  0  0  2  0  0  0  0  0  0
  -29.5190  -12.6330   17.8930 C   0  0  0  0  0  2  0  0  0  0  0  0
  -28.0500  -12.5100   18.3500 C   0  0  0  0  0  2  0  0  0  0  0  0
  -27.7590  -13.2970   19.6560 C   0  0  0  0  0  3  0  0  0  0  0  0
  -28.8380  -13.0110   20.7250 C   0  0  0  0  0  2  0  0  0  0  0  0
  -30.1540  -13.3250   20.1400 N   0  0  0  0  0  0  0  0  0  0  0  0
  -31.9280  -14.7250   19.7870 O   0  0  0  0  0  0  0  0  0  0  0  0
  -30.0750  -15.4990   20.7850 N   0  0  0  0  0  0  0  0  0  0  0  0
  -29.1630  -15.2540   21.1490 H   0  0  0  0  0  0  0  0  0  0  0  0
  -25.3670  -13.9220   20.3750 C   0  0  0  0  0  0  0  0  0  0  0  0
  -24.2970  -13.1590   20.7570 C   0  0  0  0  0  0  0  0  0  0  0  0
  -24.7500  -11.8060   20.7310 C   0  0  0  0  0  0  0  0  0  0  0  0
  -26.4080  -13.0340   20.1480 N   0  0  0  0  0  0  0  0  0  0  0  0
  -26.0380  -11.7550   20.4160 N   0  0  0  0  0  0  0  0  0  0  0  0
  -24.0160  -10.5510   20.9330 C   0  0  0  0  0  0  0  0  0  0  0  0
  -24.4430   -9.5940   21.8800 C   0  0  0  0  0  3  0  0  0  0  0  0
  -23.7100   -8.4040   22.0730 C   0  0  0  0  0  3  0  0  0  0  0  0
  -22.5390   -8.1620   21.3170 C   0  0  0  0  0  0  0  0  0  0  0  0
  -22.1320   -9.1080   20.3590 C   0  0  0  0  0  3  0  0  0  0  0  0
  -22.8660  -10.2900   20.1640 C   0  0  0  0  0  3  0  0  0  0  0  0
  -21.7800   -7.0210   21.4170 O   0  0  0  0  0  0  0  0  0  0  0  0
  -21.7070   -6.3040   22.5850 C   0  0  0  0  0  0  0  0  0  0  0  0
  -21.2580   -6.8880   23.7900 C   0  0  0  0  0  3  0  0  0  0  0  0
  -21.1330   -6.1000   24.9500 C   0  0  0  0  0  3  0  0  0  0  0  0
  -21.4410   -4.7270   24.9070 C   0  0  0  0  0  0  0  0  0  0  0  0
  -21.8830   -4.1420   23.7080 C   0  0  0  0  0  3  0  0  0  0  0  0
  -22.0110   -4.9280   22.5490 C   0  0  0  0  0  0  0  0  0  0  0  0
  -22.4170   -4.3550   21.3890 F   0  0  0  0  0  0  0  0  0  0  0  0
  -21.3120   -3.9670   26.0190 F   0  0  0  0  0  0  0  0  0  0  0  0
  -22.9070  -13.6480   21.0500 C   0  0  0  0  0  0  0  0  0  0  0  0
  -22.1920  -12.9690   21.9400 N   0  0  0  0  0  0  0  0  0  0  0  0
  -22.4650  -14.6680   20.5240 O   0  0  0  0  0  0  0  0  0  0  0  0
  -22.5640  -12.1460   22.3920 H   0  0  0  0  0  0  0  0  0  0  0  0
  -21.2590  -13.2750   22.1770 H   0  0  0  0  0  0  0  0  0  0  0  0
  -25.5330  -15.2900   20.1920 N   0  0  0  0  0  0  0  0  0  0  0  0
  -24.7760  -15.9390   20.3670 H   0  0  0  0  0  0  0  0  0  0  0  0
  -26.4460  -15.7370   20.1800 H   0  0  0  0  0  0  0  0  0  0  0  0
  -28.5060  -17.5100   18.8590 C   0  0  0  0  0  1  0  0  0  0  0  0
  -28.8020  -17.4910   20.3630 C   0  0  0  0  0  3  0  0  0  0  0  0
  -27.8180  -16.7210   21.0400 O   0  0  0  0  0  0  0  0  0  0  0  0
  -27.0630  -17.2790   21.2050 H   0  0  0  0  0  0  0  0  0  0  0  0
  -30.7510  -21.4220   21.0690 C   0  0  0  0  0  2  0  0  0  0  0  0
  -29.3580  -22.0850   20.9120 C   0  0  0  0  0  2  0  0  0  0  0  0
  -29.3330  -23.4120   21.4580 O   0  0  0  0  0  0  0  0  0  0  0  0
  -29.6380  -24.5020   20.5780 C   0  0  0  0  0  2  0  0  0  0  0  0
  -28.3630  -25.2390   20.0860 C   0  0  0  0  0  2  0  0  0  0  0  0
  -28.4740  -26.6770   20.1540 O   0  0  0  0  0  0  0  0  0  0  0  0
  -24.6320  -31.8470   23.2030 C   0  0  0  0  0  0  0  0  0  0  0  0
  -27.2980  -27.4090   20.1180 C   0  0  0  0  0  0  0  0  0  0  0  0
  -23.4340  -30.4460   21.5540 C   0  0  0  0  0  3  0  0  0  0  0  0
  -24.8950  -28.9190   20.1260 C   0  0  0  0  0  0  0  0  0  0  0  0
  -25.9600  -30.8140   21.3600 C   0  0  0  0  0  2  0  0  0  0  0  0
  -26.0520  -29.4440   20.7130 C   0  0  0  0  0  0  0  0  0  0  0  0
  -27.2560  -28.7000   20.7000 C   0  0  0  0  0  3  0  0  0  0  0  0
  -26.1190  -26.9050   19.5190 C   0  0  0  0  0  3  0  0  0  0  0  0
  -24.9250  -27.6500   19.5240 C   0  0  0  0  0  3  0  0  0  0  0  0
  -23.6480  -29.7710   20.1730 C   0  0  0  0  0  2  0  0  0  0  0  0
  -24.6930  -31.0500   22.0970 N   0  0  0  0  0  0  0  0  0  0  0  0
  -23.5490  -32.1120   23.7440 O   0  0  0  0  0  0  0  0  0  0  0  0
  -22.7850  -29.4190   22.5110 C   0  0  0  0  0  0  0  0  0  0  0  0
  -21.4590  -29.2460   22.3930 N   0  0  0  0  0  0  0  0  0  0  0  0
  -23.4710  -28.7820   23.3150 O   0  0  0  0  0  0  0  0  0  0  0  0
  -20.9660  -29.8110   21.7160 H   0  0  0  0  0  0  0  0  0  0  0  0
  -18.0770  -28.0820   22.9230 C   0  0  0  0  0  0  0  0  0  0  0  0
  -20.6420  -28.3050   23.1620 C   0  0  0  0  0  3  0  0  0  0  0  0
  -20.7180  -26.8830   22.5610 C   0  0  0  0  0  2  0  0  0  0  0  0
  -19.5980  -26.5880   21.5590 C   0  0  0  0  0  2  0  0  0  0  0  0
  -18.2280  -26.7400   22.2240 C   0  0  0  0  0  2  0  0  0  0  0  0
  -19.2120  -28.8230   23.3480 C   0  0  0  0  0  0  0  0  0  0  0  0
  -19.0160  -30.0810   23.9610 C   0  0  0  0  0  3  0  0  0  0  0  0
  -17.7200  -30.5940   24.1520 C   0  0  0  0  0  3  0  0  0  0  0  0
  -16.6010  -29.8500   23.7420 C   0  0  0  0  0  3  0  0  0  0  0  0
  -16.7800  -28.5950   23.1340 C   0  0  0  0  0  3  0  0  0  0  0  0
  -25.9150  -32.4790   23.8270 C   0  0  0  0  0  3  0  0  0  0  0  0
  -26.4430  -31.6990   25.0920 C   0  0  1  0  0  0  0  0  0  0  0  0
  -25.3560  -31.4440   26.1620 C   0  0  0  0  0  1  0  0  0  0  0  0
  -27.0340  -30.3290   24.6830 C   0  0  0  0  0  1  0  0  0  0  0  0
  -27.5900  -32.4950   25.7580 C   0  0  0  0  0  1  0  0  0  0  0  0
  -25.5990  -33.8730   24.1700 N   0  0  0  0  0  0  0  0  0  0  0  0
  -25.9230  -34.9330   23.4190 C   0  0  0  0  0  0  0  0  0  0  0  0
  -26.5910  -34.8440   22.3850 O   0  0  0  0  0  0  0  0  0  0  0  0
  -25.0060  -34.0160   24.9740 H   0  0  0  0  0  0  0  0  0  0  0  0
  -24.1860  -36.7190   23.0760 C   0  0  0  0  0  1  0  0  0  0  0  0
  -25.4250  -36.3140   23.8890 C   0  0  0  0  0  3  0  0  0  0  0  0
  -27.5540  -37.1990   24.7350 C   0  0  0  0  0  1  0  0  0  0  0  0
  -26.4510  -37.3750   23.7940 N   0  0  0  0  0  0  0  0  0  0  0  0
  -26.0380  -38.2900   23.9580 H   0  0  0  0  0  0  0  0  0  0  0  0
  1  3  2  0
  2  1  1  0
  4  2  1  0
  5  1  1  0
  5  6  2  0
  7 16  1  0
  7  5  1  0
  8 16  1  0
  9 14  1  0
 10 11  1  0
 10  9  1  0
 12 11  1  0
 12 21  1  0
 12 13  1  0
 14  8  1  0
 14 13  1  0
 15  8  2  0
 16 17  1  0
 18 19  2  0
 19 38  1  0
 20 19  1  0
 20 23  1  0
 21 18  1  0
 21 22  1  0
 22 20  2  0
 23 24  1  0
 24 25  2  0
 26 29  1  0
 26 25  1  0
 27 26  2  0
 28 27  1  0
 28 23  2  0
 29 30  1  0
 30 31  1  0
 31 32  2  0
 33 32  1  0
 33 37  1  0
 34 33  2  0
 35 30  2  0
 35 34  1  0
 36 35  1  0
 38 39  1  0
 39 42  1  0
 39 41  1  0
 40 38  2  0
 43 44  1  0
 43 18  1  0
 45 43  1  0
 47 46  1  0
 47  7  1  0
 47 48  1  0
 48 49  1  0
 50  2  1  0
 51 50  1  0
 51 52  1  0
 53 52  1  0
 54 55  1  0
 54 53  1  0
 56 67  2  0
 57 55  1  0
 57 62  1  0
 58 66  1  0
 58 68  1  0
 59 65  1  0
 59 61  1  0
 60 66  1  0
 61 60  1  0
 62 61  2  0
 63 64  1  0
 63 57  2  0
 64 59  2  0
 65 58  1  0
 66 56  1  0
 68 70  2  0
 69 68  1  0
 71 69  1  0
 72 81  2  0
 72 77  1  0
 73 69  1  0
 73 77  1  0
 74 73  1  0
 75 76  1  0
 75 74  1  0
 76 72  1  0
 77 78  2  0
 78 79  1  0
 80 79  2  0
 81 80  1  0
 82 56  1  0
 82 87  1  0
 82 83  1  0
 83 86  1  1
 83 84  1  0
 85 83  1  0
 87 90  1  0
 88 92  1  0
 88 87  1  0
 89 88  2  0
 92 91  1  0
 94 92  1  0
 94 95  1  0
 94 93  1  0
M  ISO  4   8 100  16 100  54 101  55 101
M  END
>  <TORSDO>  (82) 
F 25

>  <SCORE>  (82) 
-11.864

>  <name>  (82) 
83

>  <ligand_id>  (82) 
83

>  <original_smiles>  (82) 
[H]OC([H])(C([H])([H])[H])C([H])(C(=O)C(=O)N([H])C([H])([H])C([H])([H])OC([H])([H])C([H])([H])Oc1c([H])c([H])c2c(c1[H])C([H])([H])N(C(=O)C([H])(N([H])C(=O)C([H])(N([H])C([H])([H])[H])C([H])([H])[H])C(C([H])([H])[H])(C([H])([H])[H])C([H])([H])[H])C([H])(C(=O)N([H])C1([H])c3c([H])c([H])c([H])c([H])c3C([H])([H])C([H])([H])C1([H])[H])C2([H])[H])N([H])C(=O)N1C([H])([H])C([H])([H])C([H])([H])C([H])(n2nc(-c3c([H])c([H])c(Oc4c([H])c([H])c(F)c([H])c4F)c([H])c3[H])c(C(=O)N([H])[H])c2N([H])[H])C1([H])[H]

>  <smiles>  (82) 
[H]OC([H])(C([H])([H])[H])C([H])(C(=O)C(=O)N([H])C([H])([H])C([H])([H])OC([H])([H])C([H])([H])Oc1c([H])c([H])c2c(c1[H])C([H])([H])N(C(=O)C([H])(N([H])C(=O)C([H])(N([H])C([H])([H])[H])C([H])([H])[H])C(C([H])([H])[H])(C([H])([H])[H])C([H])([H])[H])C([H])(C(=O)N([H])C1([H])c3c([H])c([H])c([H])c([H])c3C([H])([H])C([H])([H])C1([H])[H])C2([H])[H])N([H])C(=O)N1C([H])([H])C([H])([H])C([H])([H])C([H])(n2nc(-c3c([H])c([H])c(Oc4c([H])c([H])c(F)c([H])c4F)c([H])c3[H])c(C(=O)N([H])[H])c2N([H])[H])C1([H])[H]

$$$$
84:0:0
     RDKit          3D

102109  0  0  1  0  0  0  0  0999 V2000
  -29.0270  -21.1970   20.9020 C   0  0  0  0  0  0  0  0  0  0  0  0
  -28.3210  -22.2170   20.3790 N   0  0  0  0  0  0  0  0  0  0  0  0
  -28.5240  -20.2220   21.4620 O   0  0  0  0  0  0  0  0  0  0  0  0
  -28.8920  -22.9240   19.9320 H   0  0  0  0  0  0  0  0  0  0  0  0
  -25.9900  -21.1960   20.4900 C   0  0  0  0  0  1  0  0  0  0  0  0
  -26.8840  -22.3970   20.1240 C   0  0  0  0  0  3  0  0  0  0  0  0
  -26.7180  -22.8150   18.6480 C   0  0  0  0  0  2  0  0  0  0  0  0
  -27.6760  -23.8260   18.3130 O   0  0  0  0  0  0  0  0  0  0  0  0
  -27.1700  -25.1490   18.4490 C   0  0  0  0  0  2  0  0  0  0  0  0
  -28.2300  -26.1060   19.0390 C   0  0  0  0  0  2  0  0  0  0  0  0
  -28.0950  -27.4950   18.7000 O   0  0  0  0  0  0  0  0  0  0  0  0
  -24.6660  -31.5490   23.4660 C   0  0  0  0  0  0  0  0  0  0  0  0
  -26.9240  -28.1260   19.0570 C   0  0  0  0  0  0  0  0  0  0  0  0
  -23.2720  -30.5540   21.6820 C   0  0  0  0  0  3  0  0  0  0  0  0
  -24.5450  -29.4860   19.7520 C   0  0  0  0  0  0  0  0  0  0  0  0
  -25.7540  -31.0370   21.2860 C   0  0  0  0  0  2  0  0  0  0  0  0
  -25.7670  -29.8690   20.3220 C   0  0  0  0  0  0  0  0  0  0  0  0
  -26.9600  -29.1910   19.9830 C   0  0  0  0  0  3  0  0  0  0  0  0
  -25.6890  -27.7880   18.4600 C   0  0  0  0  0  3  0  0  0  0  0  0
  -24.5020  -28.4400   18.8200 C   0  0  0  0  0  3  0  0  0  0  0  0
  -23.3130  -30.2580   20.1620 C   0  0  0  0  0  2  0  0  0  0  0  0
  -24.5870  -31.0510   22.2010 N   0  0  0  0  0  0  0  0  0  0  0  0
  -23.6580  -31.6410   24.1810 O   0  0  0  0  0  0  0  0  0  0  0  0
  -22.7590  -29.2960   22.4170 C   0  0  0  0  0  0  0  0  0  0  0  0
  -21.4790  -28.9590   22.1960 N   0  0  0  0  0  0  0  0  0  0  0  0
  -23.5070  -28.6390   23.1450 O   0  0  0  0  0  0  0  0  0  0  0  0
  -20.9330  -29.5510   21.5870 H   0  0  0  0  0  0  0  0  0  0  0  0
  -18.3880  -27.0930   22.1000 C   0  0  0  0  0  0  0  0  0  0  0  0
  -20.7870  -27.7980   22.7540 C   0  0  0  0  0  3  0  0  0  0  0  0
  -21.2490  -26.4940   22.0650 C   0  0  0  0  0  2  0  0  0  0  0  0
  -20.3650  -26.0910   20.8800 C   0  0  0  0  0  2  0  0  0  0  0  0
  -18.9170  -25.8910   21.3360 C   0  0  0  0  0  2  0  0  0  0  0  0
  -19.2680  -27.9970   22.7530 C   0  0  0  0  0  0  0  0  0  0  0  0
  -18.7270  -29.1150   23.4250 C   0  0  0  0  0  3  0  0  0  0  0  0
  -17.3380  -29.3410   23.4460 C   0  0  0  0  0  3  0  0  0  0  0  0
  -16.4710  -28.4330   22.8130 C   0  0  0  0  0  3  0  0  0  0  0  0
  -16.9950  -27.3090   22.1510 C   0  0  0  0  0  3  0  0  0  0  0  0
  -26.0150  -32.0550   24.0630 C   0  0  0  0  0  3  0  0  0  0  0  0
  -25.7830  -33.4000   24.6020 N   0  0  0  0  0  0  0  0  0  0  0  0
  -26.1280  -34.5370   23.9840 C   0  0  0  0  0  0  0  0  0  0  0  0
  -26.7490  -34.5580   22.9190 O   0  0  0  0  0  0  0  0  0  0  0  0
  -25.2300  -33.4600   25.4450 H   0  0  0  0  0  0  0  0  0  0  0  0
  -24.4840  -36.4400   23.9320 C   0  0  0  0  0  1  0  0  0  0  0  0
  -25.7130  -35.8620   24.6520 C   0  0  0  0  0  3  0  0  0  0  0  0
  -27.8970  -36.5110   25.5690 C   0  0  0  0  0  1  0  0  0  0  0  0
  -26.7960  -36.8680   24.6790 N   0  0  0  0  0  0  0  0  0  0  0  0
  -26.4380  -37.7740   24.9640 H   0  0  0  0  0  0  0  0  0  0  0  0
  -26.5960  -31.1000   25.1780 C   0  0  1  0  0  0  0  0  0  0  0  0
  -25.5760  -30.7460   26.2840 C   0  0  0  0  0  1  0  0  0  0  0  0
  -27.1010  -29.7770   24.5540 C   0  0  0  0  0  1  0  0  0  0  0  0
  -27.8190  -31.7640   25.8550 C   0  0  0  0  0  1  0  0  0  0  0  0
  -30.5560  -21.2510   20.6510 C   0  0  0  0  0  3  0  0  0  0  0  0
  -30.9090  -20.3670   19.5840 O   0  0  0  0  0  0  0  0  0  0  0  0
  -30.0560  -20.3300   18.4300 C   0  0  0  0  0  2  0  0  0  0  0  0
  -29.3020  -18.9820   18.3920 C   0  0  0  0  0  2  0  0  0  0  0  0
  -31.2670  -17.5630   18.9860 C   0  0  0  0  0  0  0  0  0  0  0  0
  -29.9990  -17.9570   19.1550 N   0  0  0  0  0  0  0  0  0  0  0  0
  -32.0030  -18.0010   18.0990 O   0  0  0  0  0  0  0  0  0  0  0  0
  -29.5070  -17.5540   19.9430 H   0  0  0  0  0  0  0  0  0  0  0  0
  -31.6730  -17.0260   21.3980 C   0  0  0  0  0  1  0  0  0  0  0  0
  -31.7790  -16.4880   19.9550 C   0  0  0  0  0  3  0  0  0  0  0  0
  -31.2660  -14.2180   19.0320 C   0  0  0  0  0  0  0  0  0  0  0  0
  -30.9530  -11.7880   18.7620 C   0  0  0  0  0  2  0  0  0  0  0  0
  -29.8880  -11.3820   17.7240 C   0  0  0  0  0  2  0  0  0  0  0  0
  -28.4770  -11.3970   18.3390 C   0  0  0  0  0  2  0  0  0  0  0  0
  -28.1840  -12.6960   19.1330 C   0  0  0  0  0  3  0  0  0  0  0  0
  -29.3330  -13.0140   20.1110 C   0  0  0  0  0  2  0  0  0  0  0  0
  -30.5920  -13.0870   19.3410 N   0  0  0  0  0  0  0  0  0  0  0  0
  -32.1430  -14.2720   18.1610 O   0  0  0  0  0  0  0  0  0  0  0  0
  -31.0040  -15.2480   19.8510 N   0  0  0  0  0  0  0  0  0  0  0  0
  -30.2880  -15.0850   20.5420 H   0  0  0  0  0  0  0  0  0  0  0  0
  -26.0740  -13.6420   20.2780 C   0  0  0  0  0  0  0  0  0  0  0  0
  -24.9650  -13.0260   20.7940 C   0  0  0  0  0  0  0  0  0  0  0  0
  -25.1650  -11.6250   20.6050 C   0  0  0  0  0  0  0  0  0  0  0  0
  -26.8960  -12.6190   19.8220 N   0  0  0  0  0  0  0  0  0  0  0  0
  -26.3590  -11.3970   20.0740 N   0  0  0  0  0  0  0  0  0  0  0  0
  -24.2690  -10.4900   20.8490 C   0  0  0  0  0  0  0  0  0  0  0  0
  -24.6390   -9.4340   21.7060 C   0  0  0  0  0  3  0  0  0  0  0  0
  -23.7540   -8.3610   21.9430 C   0  0  0  0  0  3  0  0  0  0  0  0
  -22.4830   -8.3380   21.3190 C   0  0  0  0  0  0  0  0  0  0  0  0
  -22.1330   -9.3830   20.4470 C   0  0  0  0  0  3  0  0  0  0  0  0
  -23.0150  -10.4490   20.2090 C   0  0  0  0  0  3  0  0  0  0  0  0
  -21.5680   -7.3230   21.4680 O   0  0  0  0  0  0  0  0  0  0  0  0
  -21.4930   -6.5860   22.6220 C   0  0  0  0  0  0  0  0  0  0  0  0
  -21.2420   -7.1830   23.8760 C   0  0  0  0  0  3  0  0  0  0  0  0
  -21.1030   -6.3780   25.0260 C   0  0  0  0  0  3  0  0  0  0  0  0
  -21.2070   -4.9780   24.9190 C   0  0  0  0  0  0  0  0  0  0  0  0
  -21.4500   -4.3820   23.6710 C   0  0  0  0  0  3  0  0  0  0  0  0
  -21.5930   -5.1830   22.5240 C   0  0  0  0  0  0  0  0  0  0  0  0
  -21.8090   -4.6010   21.3200 F   0  0  0  0  0  0  0  0  0  0  0  0
  -21.0620   -4.2020   26.0200 F   0  0  0  0  0  0  0  0  0  0  0  0
  -23.7410  -13.7060   21.3340 C   0  0  0  0  0  0  0  0  0  0  0  0
  -23.0960  -13.1030   22.3280 N   0  0  0  0  0  0  0  0  0  0  0  0
  -23.3800  -14.8040   20.9170 O   0  0  0  0  0  0  0  0  0  0  0  0
  -23.4100  -12.2160   22.6940 H   0  0  0  0  0  0  0  0  0  0  0  0
  -22.2850  -13.5400   22.7380 H   0  0  0  0  0  0  0  0  0  0  0  0
  -26.4410  -14.9750   20.1440 N   0  0  0  0  0  0  0  0  0  0  0  0
  -25.8070  -15.7260   20.3940 H   0  0  0  0  0  0  0  0  0  0  0  0
  -27.2780  -15.2990   19.6720 H   0  0  0  0  0  0  0  0  0  0  0  0
  -31.4110  -20.8320   21.8820 C   0  0  0  0  0  2  0  0  0  0  0  0
  -32.3030  -21.8600   22.3040 O   0  0  0  0  0  0  0  0  0  0  0  0
  -32.7650  -21.5520   23.0770 H   0  0  0  0  0  0  0  0  0  0  0  0
  1  3  2  0
  2  1  1  0
  4  2  1  0
  6  2  1  0
  6  5  1  0
  7  6  1  0
  8  9  1  0
  8  7  1  0
  9 10  1  0
 11 10  1  0
 11 13  1  0
 12 23  2  0
 13 18  1  0
 14 22  1  0
 14 24  1  0
 15 21  1  0
 15 17  1  0
 16 22  1  0
 17 16  1  0
 18 17  2  0
 19 20  1  0
 19 13  2  0
 20 15  2  0
 21 14  1  0
 22 12  1  0
 24 26  2  0
 25 24  1  0
 27 25  1  0
 28 37  2  0
 28 33  1  0
 29 25  1  0
 30 29  1  0
 31 32  1  0
 31 30  1  0
 32 28  1  0
 33 29  1  0
 33 34  2  0
 34 35  1  0
 36 35  2  0
 37 36  1  0
 38 12  1  0
 38 39  1  0
 38 48  1  0
 39 42  1  0
 40 39  1  0
 40 44  1  0
 41 40  2  0
 44 43  1  0
 44 46  1  0
 46 47  1  0
 46 45  1  0
 48 51  1  1
 48 49  1  0
 50 48  1  0
 52  1  1  0
 52100  1  0
 53 52  1  0
 54 53  1  0
 55 54  1  0
 55 57  1  0
 56 57  1  0
 56 61  1  0
 57 59  1  0
 58 56  2  0
 61 60  1  0
 62 68  1  0
 62 70  1  0
 63 68  1  0
 64 65  1  0
 64 63  1  0
 66 65  1  0
 66 75  1  0
 66 67  1  0
 68 67  1  0
 69 62  2  0
 70 61  1  0
 70 71  1  0
 72 73  2  0
 73 92  1  0
 74 73  1  0
 74 77  1  0
 75 76  1  0
 75 72  1  0
 76 74  2  0
 77 78  1  0
 78 79  2  0
 80 83  1  0
 80 79  1  0
 81 80  2  0
 82 81  1  0
 82 77  2  0
 83 84  1  0
 84 85  1  0
 85 86  2  0
 87 86  1  0
 87 91  1  0
 88 87  2  0
 89 84  2  0
 89 88  1  0
 90 89  1  0
 92 93  1  0
 93 95  1  0
 93 96  1  0
 94 92  2  0
 97 72  1  0
 97 98  1  0
 99 97  1  0
100101  1  0
101102  1  0
M  ISO  4  10 101  11 101  62 100  70 100
M  END
>  <TORSDO>  (83) 
F 29

>  <SCORE>  (83) 
-7.206

>  <name>  (83) 
84

>  <ligand_id>  (83) 
84

>  <original_smiles>  (83) 
[H]OC([H])([H])C([H])(OC([H])([H])C([H])([H])N([H])C(=O)C([H])(N([H])C(=O)N1C([H])([H])C([H])([H])C([H])([H])C([H])(n2nc(-c3c([H])c([H])c(Oc4c([H])c([H])c(F)c([H])c4F)c([H])c3[H])c(C(=O)N([H])[H])c2N([H])[H])C1([H])[H])C([H])([H])[H])C(=O)N([H])C([H])(C([H])([H])[H])C([H])([H])OC([H])([H])C([H])([H])Oc1c([H])c([H])c2c(c1[H])C([H])([H])N(C(=O)C([H])(N([H])C(=O)C([H])(N([H])C([H])([H])[H])C([H])([H])[H])C(C([H])([H])[H])(C([H])([H])[H])C([H])([H])[H])C([H])(C(=O)N([H])C1([H])c3c([H])c([H])c([H])c([H])c3C([H])([H])C([H])([H])C1([H])[H])C2([H])[H]

>  <smiles>  (83) 
[H]OC([H])([H])C([H])(OC([H])([H])C([H])([H])N([H])C(=O)C([H])(N([H])C(=O)N1C([H])([H])C([H])([H])C([H])([H])C([H])(n2nc(-c3c([H])c([H])c(Oc4c([H])c([H])c(F)c([H])c4F)c([H])c3[H])c(C(=O)N([H])[H])c2N([H])[H])C1([H])[H])C([H])([H])[H])C(=O)N([H])C([H])(C([H])([H])[H])C([H])([H])OC([H])([H])C([H])([H])Oc1c([H])c([H])c2c(c1[H])C([H])([H])N(C(=O)C([H])(N([H])C(=O)C([H])(N([H])C([H])([H])[H])C([H])([H])[H])C(C([H])([H])[H])(C([H])([H])[H])C([H])([H])[H])C([H])(C(=O)N([H])C1([H])c3c([H])c([H])c([H])c([H])c3C([H])([H])C([H])([H])C1([H])[H])C2([H])[H]

$$$$
85:0:0
     RDKit          3D

100107  0  0  1  0  0  0  0  0999 V2000
  -25.0090  -19.6770   22.6030 C   0  0  0  0  0  0  0  0  0  0  0  0
  -25.3610  -20.9160   22.2510 N   0  0  0  0  0  0  0  0  0  0  0  0
  -24.4830  -18.9490   21.7630 O   0  0  0  0  0  0  0  0  0  0  0  0
  -25.1210  -21.1730   21.3040 H   0  0  0  0  0  0  0  0  0  0  0  0
  -26.1220  -21.9170   22.9900 C   0  0  0  0  0  2  0  0  0  0  0  0
  -26.2800  -23.1100   22.0480 C   0  0  0  0  0  2  0  0  0  0  0  0
  -27.3890  -23.9590   22.3370 O   0  0  0  0  0  0  0  0  0  0  0  0
  -27.3660  -24.9870   21.3570 C   0  0  0  0  0  2  0  0  0  0  0  0
  -28.4840  -26.0390   21.3730 C   0  0  0  0  0  2  0  0  0  0  0  0
  -28.3980  -26.7710   20.1400 O   0  0  0  0  0  0  0  0  0  0  0  0
  -24.6060  -31.8740   23.2150 C   0  0  0  0  0  0  0  0  0  0  0  0
  -27.2560  -27.5260   20.0670 C   0  0  0  0  0  0  0  0  0  0  0  0
  -23.3930  -30.4960   21.5540 C   0  0  0  0  0  3  0  0  0  0  0  0
  -24.8470  -28.9810   20.1040 C   0  0  0  0  0  0  0  0  0  0  0  0
  -25.9110  -30.8700   21.3530 C   0  0  0  0  0  2  0  0  0  0  0  0
  -25.9990  -29.5090   20.7040 C   0  0  0  0  0  0  0  0  0  0  0  0
  -27.2060  -28.7830   20.6960 C   0  0  0  0  0  3  0  0  0  0  0  0
  -26.1030  -27.0170   19.4260 C   0  0  0  0  0  3  0  0  0  0  0  0
  -24.8910  -27.7310   19.4620 C   0  0  0  0  0  3  0  0  0  0  0  0
  -23.5990  -29.8310   20.1670 C   0  0  0  0  0  2  0  0  0  0  0  0
  -24.6560  -31.0910   22.1020 N   0  0  0  0  0  0  0  0  0  0  0  0
  -23.5270  -32.1450   23.7580 O   0  0  0  0  0  0  0  0  0  0  0  0
  -22.7400  -29.4650   22.5010 C   0  0  0  0  0  0  0  0  0  0  0  0
  -21.4130  -29.3000   22.3760 N   0  0  0  0  0  0  0  0  0  0  0  0
  -23.4210  -28.8180   23.3010 O   0  0  0  0  0  0  0  0  0  0  0  0
  -20.9300  -29.8700   21.6960 H   0  0  0  0  0  0  0  0  0  0  0  0
  -18.0260  -28.1380   22.8480 C   0  0  0  0  0  0  0  0  0  0  0  0
  -20.5850  -28.3650   23.1350 C   0  0  0  0  0  3  0  0  0  0  0  0
  -20.6740  -26.9380   22.5440 C   0  0  0  0  0  2  0  0  0  0  0  0
  -19.5740  -26.6390   21.5210 C   0  0  0  0  0  2  0  0  0  0  0  0
  -18.1920  -26.7940   22.1620 C   0  0  0  0  0  2  0  0  0  0  0  0
  -19.1510  -28.8840   23.2920 C   0  0  0  0  0  0  0  0  0  0  0  0
  -18.9430  -30.1440   23.8930 C   0  0  0  0  0  3  0  0  0  0  0  0
  -17.6430  -30.6590   24.0560 C   0  0  0  0  0  3  0  0  0  0  0  0
  -16.5320  -29.9100   23.6300 C   0  0  0  0  0  3  0  0  0  0  0  0
  -16.7250  -28.6510   23.0320 C   0  0  0  0  0  3  0  0  0  0  0  0
  -25.8970  -32.4870   23.8440 C   0  0  0  0  0  3  0  0  0  0  0  0
  -25.5840  -33.8650   24.2390 N   0  0  0  0  0  0  0  0  0  0  0  0
  -25.9010  -34.9500   23.5180 C   0  0  0  0  0  0  0  0  0  0  0  0
  -26.5580  -34.8940   22.4750 O   0  0  0  0  0  0  0  0  0  0  0  0
  -24.9930  -33.9800   25.0500 H   0  0  0  0  0  0  0  0  0  0  0  0
  -24.1490  -36.7350   23.2630 C   0  0  0  0  0  1  0  0  0  0  0  0
  -25.4100  -36.3150   24.0350 C   0  0  0  0  0  3  0  0  0  0  0  0
  -27.5590  -37.1810   24.8470 C   0  0  0  0  0  1  0  0  0  0  0  0
  -26.4320  -37.3800   23.9400 N   0  0  0  0  0  0  0  0  0  0  0  0
  -26.0250  -38.2900   24.1400 H   0  0  0  0  0  0  0  0  0  0  0  0
  -26.4440  -31.6580   25.0700 C   0  0  1  0  0  0  0  0  0  0  0  0
  -25.3730  -31.3630   26.1470 C   0  0  0  0  0  1  0  0  0  0  0  0
  -27.0230  -30.3050   24.5950 C   0  0  0  0  0  1  0  0  0  0  0  0
  -27.6090  -32.4240   25.7430 C   0  0  0  0  0  1  0  0  0  0  0  0
  -25.2970  -19.1350   24.0190 C   0  0  0  0  0  3  0  0  0  0  0  0
  -27.2710  -17.6710   24.4800 C   0  0  0  0  0  0  0  0  0  0  0  0
  -26.1240  -17.9450   23.8550 N   0  0  0  0  0  0  0  0  0  0  0  0
  -27.8070  -18.4520   25.2670 O   0  0  0  0  0  0  0  0  0  0  0  0
  -25.7840  -17.2860   23.1680 H   0  0  0  0  0  0  0  0  0  0  0  0
  -27.9130  -16.3110   24.1670 C   0  0  0  0  0  2  0  0  0  0  0  0
  -29.3200  -16.4130   23.9360 O   0  0  0  0  0  0  0  0  0  0  0  0
  -29.6980  -17.1820   22.7930 C   0  0  0  0  0  2  0  0  0  0  0  0
  -30.8060  -16.4370   22.0440 C   0  0  0  0  0  2  0  0  0  0  0  0
  -30.7680  -14.3510   20.6940 C   0  0  0  0  0  0  0  0  0  0  0  0
  -30.4090  -12.2850   19.3950 C   0  0  0  0  0  2  0  0  0  0  0  0
  -29.4740  -12.5310   18.1960 C   0  0  0  0  0  2  0  0  0  0  0  0
  -28.0040  -12.3740   18.6190 C   0  0  0  0  0  2  0  0  0  0  0  0
  -27.6600  -13.2030   19.8830 C   0  0  0  0  0  3  0  0  0  0  0  0
  -28.6980  -12.9450   20.9990 C   0  0  0  0  0  2  0  0  0  0  0  0
  -30.0460  -13.2250   20.4660 N   0  0  0  0  0  0  0  0  0  0  0  0
  -31.7700  -14.6690   20.0470 O   0  0  0  0  0  0  0  0  0  0  0  0
  -30.3250  -15.1070   21.6990 N   0  0  0  0  0  0  0  0  0  0  0  0
  -29.5500  -14.7550   22.2380 H   0  0  0  0  0  0  0  0  0  0  0  0
  -25.2540  -13.8150   20.5760 C   0  0  0  0  0  0  0  0  0  0  0  0
  -24.1790  -13.0430   20.9200 C   0  0  0  0  0  0  0  0  0  0  0  0
  -24.6340  -11.6880   20.8700 C   0  0  0  0  0  0  0  0  0  0  0  0
  -26.3000  -12.9320   20.3410 N   0  0  0  0  0  0  0  0  0  0  0  0
  -25.9260  -11.6460   20.5740 N   0  0  0  0  0  0  0  0  0  0  0  0
  -23.9020  -10.4270   21.0360 C   0  0  0  0  0  0  0  0  0  0  0  0
  -24.3680   -9.4110   21.8990 C   0  0  0  0  0  3  0  0  0  0  0  0
  -23.6380   -8.2140   22.0600 C   0  0  0  0  0  3  0  0  0  0  0  0
  -22.4250   -8.0270   21.3550 C   0  0  0  0  0  0  0  0  0  0  0  0
  -21.9770   -9.0300   20.4770 C   0  0  0  0  0  3  0  0  0  0  0  0
  -22.7090  -10.2160   20.3150 C   0  0  0  0  0  3  0  0  0  0  0  0
  -21.6640   -6.8870   21.4270 O   0  0  0  0  0  0  0  0  0  0  0  0
  -21.6880   -6.0740   22.5300 C   0  0  0  0  0  0  0  0  0  0  0  0
  -21.4040   -6.5640   23.8230 C   0  0  0  0  0  3  0  0  0  0  0  0
  -21.3680   -5.6800   24.9190 C   0  0  0  0  0  3  0  0  0  0  0  0
  -21.6040   -4.3060   24.7240 C   0  0  0  0  0  0  0  0  0  0  0  0
  -21.8790   -3.8130   23.4370 C   0  0  0  0  0  3  0  0  0  0  0  0
  -21.9170   -4.6950   22.3430 C   0  0  0  0  0  0  0  0  0  0  0  0
  -22.1630   -4.2140   21.1010 F   0  0  0  0  0  0  0  0  0  0  0  0
  -21.5610   -3.4540   25.7750 F   0  0  0  0  0  0  0  0  0  0  0  0
  -22.7790  -13.5210   21.1860 C   0  0  0  0  0  0  0  0  0  0  0  0
  -22.0230  -12.8010   22.0080 N   0  0  0  0  0  0  0  0  0  0  0  0
  -22.3550  -14.5610   20.6840 O   0  0  0  0  0  0  0  0  0  0  0  0
  -22.3540  -11.9350   22.4050 H   0  0  0  0  0  0  0  0  0  0  0  0
  -21.0700  -13.0860   22.1860 H   0  0  0  0  0  0  0  0  0  0  0  0
  -25.4260  -15.1920   20.4290 N   0  0  0  0  0  0  0  0  0  0  0  0
  -24.6550  -15.8440   20.5180 H   0  0  0  0  0  0  0  0  0  0  0  0
  -26.2770  -15.6330   20.1090 H   0  0  0  0  0  0  0  0  0  0  0  0
  -23.1610  -17.6560   24.3020 C   0  0  0  0  0  1  0  0  0  0  0  0
  -24.4080  -18.4860   26.3340 C   0  0  0  0  0  1  0  0  0  0  0  0
  -24.0340  -18.7960   24.8720 C   0  0  0  0  0  3  0  0  0  0  0  0
  2  1  1  0
  2  5  1  0
  3  1  2  0
  4  2  1  0
  6  7  1  0
  6  5  1  0
  8  9  1  0
  8  7  1  0
 10  9  1  0
 11 22  2  0
 12 10  1  0
 12 17  1  0
 13 21  1  0
 13 23  1  0
 14 20  1  0
 14 16  1  0
 15 21  1  0
 16 15  1  0
 17 16  2  0
 18 19  1  0
 18 12  2  0
 19 14  2  0
 20 13  1  0
 21 11  1  0
 23 25  2  0
 24 23  1  0
 26 24  1  0
 27 36  2  0
 27 32  1  0
 28 24  1  0
 28 32  1  0
 29 28  1  0
 30 31  1  0
 30 29  1  0
 31 27  1  0
 32 33  2  0
 33 34  1  0
 35 34  2  0
 36 35  1  0
 37 11  1  0
 37 38  1  0
 37 47  1  0
 38 41  1  0
 39 43  1  0
 39 38  1  0
 40 39  2  0
 43 42  1  0
 45 43  1  0
 45 46  1  0
 45 44  1  0
 47 50  1  1
 47 48  1  0
 49 47  1  0
 51  1  1  0
 51100  1  0
 52 54  2  0
 53 51  1  0
 53 52  1  0
 55 53  1  0
 56 52  1  0
 57 56  1  0
 58 57  1  0
 59 58  1  0
 60 68  1  0
 61 66  1  0
 62 63  1  0
 62 61  1  0
 64 63  1  0
 64 73  1  0
 64 65  1  0
 66 60  1  0
 66 65  1  0
 67 60  2  0
 68 59  1  0
 68 69  1  0
 70 71  2  0
 71 90  1  0
 72 71  1  0
 72 75  1  0
 73 74  1  0
 73 70  1  0
 74 72  2  0
 75 76  1  0
 76 77  2  0
 78 81  1  0
 78 77  1  0
 79 78  2  0
 80 79  1  0
 80 75  2  0
 81 82  1  0
 82 83  1  0
 83 84  2  0
 85 84  1  0
 85 89  1  0
 86 85  2  0
 87 82  2  0
 87 86  1  0
 88 87  1  0
 90 91  1  0
 91 94  1  0
 91 93  1  0
 92 90  2  0
 95 96  1  0
 95 70  1  0
 97 95  1  0
 98100  1  0
100 99  1  0
M  ISO  4   9 101  10 101  60 100  68 100
M  END
>  <TORSDO>  (84) 
F 28

>  <SCORE>  (84) 
76.513

>  <name>  (84) 
85

>  <ligand_id>  (84) 
85

>  <original_smiles>  (84) 
[H]c1c([H])c([H])c2c(c1[H])C([H])([H])C([H])([H])C([H])([H])C2([H])N([H])C(=O)C1([H])N(C(=O)C([H])(N([H])C(=O)C([H])(N([H])C([H])([H])[H])C([H])([H])[H])C(C([H])([H])[H])(C([H])([H])[H])C([H])([H])[H])C([H])([H])c2c([H])c(OC([H])([H])C([H])([H])OC([H])([H])C([H])([H])N([H])C(=O)C([H])(N([H])C(=O)C([H])([H])OC([H])([H])C([H])([H])N([H])C(=O)N3C([H])([H])C([H])([H])C([H])([H])C([H])(n4nc(-c5c([H])c([H])c(Oc6c([H])c([H])c(F)c([H])c6F)c([H])c5[H])c(C(=O)N([H])[H])c4N([H])[H])C3([H])[H])C([H])(C([H])([H])[H])C([H])([H])[H])c([H])c([H])c2C1([H])[H]

>  <smiles>  (84) 
[H]c1c([H])c([H])c2c(c1[H])C([H])([H])C([H])([H])C([H])([H])C2([H])N([H])C(=O)C1([H])N(C(=O)C([H])(N([H])C(=O)C([H])(N([H])C([H])([H])[H])C([H])([H])[H])C(C([H])([H])[H])(C([H])([H])[H])C([H])([H])[H])C([H])([H])c2c([H])c(OC([H])([H])C([H])([H])OC([H])([H])C([H])([H])N([H])C(=O)C([H])(N([H])C(=O)C([H])([H])OC([H])([H])C([H])([H])N([H])C(=O)N3C([H])([H])C([H])([H])C([H])([H])C([H])(n4nc(-c5c([H])c([H])c(Oc6c([H])c([H])c(F)c([H])c6F)c([H])c5[H])c(C(=O)N([H])[H])c4N([H])[H])C3([H])[H])C([H])(C([H])([H])[H])C([H])([H])[H])c([H])c([H])c2C1([H])[H]

$$$$
86:0:0
     RDKit          3D

106113  0  0  1  0  0  0  0  0999 V2000
  -31.3300  -20.2660   17.9750 C   0  0  0  0  0  0  0  0  0  0  0  0
  -31.1310  -21.1640   17.0020 N   0  0  0  0  0  0  0  0  0  0  0  0
  -32.4110  -19.6960   18.1460 O   0  0  0  0  0  0  0  0  0  0  0  0
  -30.2220  -21.6060   16.9490 H   0  0  0  0  0  0  0  0  0  0  0  0
  -30.1440  -20.0070   18.9200 C   0  0  0  0  0  3  0  0  0  0  0  0
  -30.3000  -17.6690   19.7950 C   0  0  0  0  0  0  0  0  0  0  0  0
  -30.4780  -18.9900   19.9200 N   0  0  0  0  0  0  0  0  0  0  0  0
  -29.8780  -17.1470   18.7600 O   0  0  0  0  0  0  0  0  0  0  0  0
  -30.8870  -19.3200   20.7830 H   0  0  0  0  0  0  0  0  0  0  0  0
  -30.5920  -16.8270   21.0490 C   0  0  0  0  0  3  0  0  0  0  0  0
  -30.5500  -14.5340   20.0770 C   0  0  0  0  0  0  0  0  0  0  0  0
  -30.3060  -12.2140   19.2750 C   0  0  0  0  0  2  0  0  0  0  0  0
  -29.3210  -12.1400   18.0920 C   0  0  0  0  0  2  0  0  0  0  0  0
  -27.8730  -11.9990   18.5970 C   0  0  0  0  0  2  0  0  0  0  0  0
  -27.5170  -13.0460   19.6850 C   0  0  0  0  0  3  0  0  0  0  0  0
  -28.6060  -13.0850   20.7790 C   0  0  0  0  0  2  0  0  0  0  0  0
  -29.9060  -13.3400   20.1300 N   0  0  0  0  0  0  0  0  0  0  0  0
  -31.5410  -14.7440   19.3710 O   0  0  0  0  0  0  0  0  0  0  0  0
  -30.0560  -15.4750   20.8850 N   0  0  0  0  0  0  0  0  0  0  0  0
  -29.2290  -15.2410   21.4100 H   0  0  0  0  0  0  0  0  0  0  0  0
  -25.1910  -13.7020   20.5740 C   0  0  0  0  0  0  0  0  0  0  0  0
  -24.1270  -12.9480   20.9970 C   0  0  0  0  0  0  0  0  0  0  0  0
  -24.5450  -11.5860   20.8960 C   0  0  0  0  0  0  0  0  0  0  0  0
  -26.1910  -12.7980   20.2490 N   0  0  0  0  0  0  0  0  0  0  0  0
  -25.8090  -11.5190   20.4960 N   0  0  0  0  0  0  0  0  0  0  0  0
  -23.7980  -10.3390   21.1030 C   0  0  0  0  0  0  0  0  0  0  0  0
  -24.2560   -9.3420   21.9930 C   0  0  0  0  0  3  0  0  0  0  0  0
  -23.5110   -8.1600   22.1900 C   0  0  0  0  0  3  0  0  0  0  0  0
  -22.2920   -7.9660   21.4970 C   0  0  0  0  0  0  0  0  0  0  0  0
  -21.8510   -8.9510   20.5960 C   0  0  0  0  0  3  0  0  0  0  0  0
  -22.5970  -10.1250   20.3970 C   0  0  0  0  0  3  0  0  0  0  0  0
  -21.5140   -6.8390   21.6040 O   0  0  0  0  0  0  0  0  0  0  0  0
  -21.5090   -6.0730   22.7430 C   0  0  0  0  0  0  0  0  0  0  0  0
  -21.1380   -6.6080   23.9970 C   0  0  0  0  0  3  0  0  0  0  0  0
  -21.0800   -5.7700   25.1280 C   0  0  0  0  0  3  0  0  0  0  0  0
  -21.3800   -4.3990   25.0080 C   0  0  0  0  0  0  0  0  0  0  0  0
  -21.7440   -3.8650   23.7600 C   0  0  0  0  0  3  0  0  0  0  0  0
  -21.8050   -4.7000   22.6300 C   0  0  0  0  0  0  0  0  0  0  0  0
  -22.1350   -4.1770   21.4250 F   0  0  0  0  0  0  0  0  0  0  0  0
  -21.3170   -3.5930   26.0930 F   0  0  0  0  0  0  0  0  0  0  0  0
  -22.7680  -13.4550   21.3840 C   0  0  0  0  0  0  0  0  0  0  0  0
  -22.0930  -12.7650   22.2960 N   0  0  0  0  0  0  0  0  0  0  0  0
  -22.3160  -14.4990   20.9140 O   0  0  0  0  0  0  0  0  0  0  0  0
  -22.4730  -11.9200   22.6980 H   0  0  0  0  0  0  0  0  0  0  0  0
  -21.1850  -13.0870   22.5990 H   0  0  0  0  0  0  0  0  0  0  0  0
  -25.3840  -15.0720   20.4240 N   0  0  0  0  0  0  0  0  0  0  0  0
  -24.6510  -15.7470   20.6090 H   0  0  0  0  0  0  0  0  0  0  0  0
  -26.2350  -15.4970   20.0780 H   0  0  0  0  0  0  0  0  0  0  0  0
  -29.8830  -17.5070   22.2540 C   0  0  0  0  0  2  0  0  0  0  0  0
  -31.7910  -17.3400   23.9690 C   0  0  0  0  0  1  0  0  0  0  0  0
  -31.5350  -19.4200   22.5780 C   0  0  0  0  0  1  0  0  0  0  0  0
  -29.8610  -18.8750   24.3490 C   0  0  0  0  0  1  0  0  0  0  0  0
  -30.7790  -18.2690   23.2710 C   0  0  1  0  0  0  0  0  0  0  0  0
  -29.8390  -21.3370   19.6490 C   0  0  0  0  0  2  0  0  0  0  0  0
  -28.7960  -21.2080   20.7670 C   0  0  0  0  0  2  0  0  0  0  0  0
  -27.9730  -22.3280   22.6750 C   0  0  0  0  0  1  0  0  0  0  0  0
  -28.7840  -22.4160   21.5130 O   0  0  0  0  0  0  0  0  0  0  0  0
  -32.1320  -21.6280   16.0460 C   0  0  0  0  0  2  0  0  0  0  0  0
  -32.9610  -22.7760   16.6380 C   0  0  0  0  0  2  0  0  0  0  0  0
  -32.1100  -23.8720   16.9640 O   0  0  0  0  0  0  0  0  0  0  0  0
  -32.8530  -25.0110   17.3830 C   0  0  0  0  0  2  0  0  0  0  0  0
  -31.9290  -26.2170   17.6230 C   0  0  0  0  0  2  0  0  0  0  0  0
  -31.3200  -26.1360   18.9060 O   0  0  0  0  0  0  0  0  0  0  0  0
  -30.7570  -27.3800   19.3120 C   0  0  0  0  0  2  0  0  0  0  0  0
  -30.1520  -27.2500   20.7170 C   0  0  0  0  0  2  0  0  0  0  0  0
  -28.8950  -26.5730   20.6360 O   0  0  0  0  0  0  0  0  0  0  0  0
  -24.7530  -31.6870   23.4280 C   0  0  0  0  0  0  0  0  0  0  0  0
  -27.7390  -27.3220   20.5840 C   0  0  0  0  0  0  0  0  0  0  0  0
  -23.7040  -30.2510   21.7050 C   0  0  0  0  0  3  0  0  0  0  0  0
  -25.2960  -28.7340   20.4120 C   0  0  0  0  0  0  0  0  0  0  0  0
  -26.2220  -30.6710   21.6950 C   0  0  0  0  0  2  0  0  0  0  0  0
  -26.3860  -29.2990   21.0820 C   0  0  0  0  0  0  0  0  0  0  0  0
  -27.6040  -28.5970   21.1800 C   0  0  0  0  0  3  0  0  0  0  0  0
  -26.6240  -26.7520   19.9350 C   0  0  0  0  0  3  0  0  0  0  0  0
  -25.4050  -27.4540   19.8410 C   0  0  0  0  0  3  0  0  0  0  0  0
  -24.0320  -29.5630   20.3510 C   0  0  0  0  0  2  0  0  0  0  0  0
  -24.9060  -30.8830   22.3370 N   0  0  0  0  0  0  0  0  0  0  0  0
  -23.6280  -31.9410   23.8810 O   0  0  0  0  0  0  0  0  0  0  0  0
  -23.0010  -29.2240   22.6200 C   0  0  0  0  0  0  0  0  0  0  0  0
  -21.6950  -29.0160   22.3870 N   0  0  0  0  0  0  0  0  0  0  0  0
  -23.6300  -28.6160   23.4910 O   0  0  0  0  0  0  0  0  0  0  0  0
  -21.2500  -29.5590   21.6600 H   0  0  0  0  0  0  0  0  0  0  0  0
  -18.3060  -27.7970   22.6510 C   0  0  0  0  0  0  0  0  0  0  0  0
  -20.8370  -28.0680   23.0970 C   0  0  0  0  0  3  0  0  0  0  0  0
  -20.9890  -26.6420   22.5190 C   0  0  0  0  0  2  0  0  0  0  0  0
  -19.9600  -26.3180   21.4320 C   0  0  0  0  0  2  0  0  0  0  0  0
  -18.5370  -26.4530   21.9820 C   0  0  0  0  0  2  0  0  0  0  0  0
  -19.3880  -28.5630   23.1610 C   0  0  0  0  0  0  0  0  0  0  0  0
  -19.1220  -29.8230   23.7410 C   0  0  0  0  0  3  0  0  0  0  0  0
  -17.8070  -30.3170   23.8180 C   0  0  0  0  0  3  0  0  0  0  0  0
  -16.7370  -29.5480   23.3280 C   0  0  0  0  0  3  0  0  0  0  0  0
  -16.9870  -28.2890   22.7490 C   0  0  0  0  0  3  0  0  0  0  0  0
  -25.9770  -32.3430   24.1410 C   0  0  0  0  0  3  0  0  0  0  0  0
  -26.4020  -31.5950   25.4640 C   0  0  1  0  0  0  0  0  0  0  0  0
  -25.2250  -31.3260   26.4300 C   0  0  0  0  0  1  0  0  0  0  0  0
  -27.0630  -30.2370   25.1320 C   0  0  0  0  0  1  0  0  0  0  0  0
  -27.4610  -32.4300   26.2230 C   0  0  0  0  0  1  0  0  0  0  0  0
  -25.6270  -33.7420   24.4210 N   0  0  0  0  0  0  0  0  0  0  0  0
  -26.0040  -34.7840   23.6680 C   0  0  0  0  0  0  0  0  0  0  0  0
  -26.7520  -34.6720   22.6930 O   0  0  0  0  0  0  0  0  0  0  0  0
  -24.9790  -33.9030   25.1790 H   0  0  0  0  0  0  0  0  0  0  0  0
  -24.2720  -36.5320   23.1610 C   0  0  0  0  0  1  0  0  0  0  0  0
  -25.4660  -36.1740   24.0600 C   0  0  0  0  0  3  0  0  0  0  0  0
  -27.5270  -37.1190   25.0050 C   0  0  0  0  0  1  0  0  0  0  0  0
  -26.4880  -37.2420   23.9860 N   0  0  0  0  0  0  0  0  0  0  0  0
  -26.0570  -38.1570   24.0810 H   0  0  0  0  0  0  0  0  0  0  0  0
  1  3  2  0
  1  5  1  0
  2  1  1  0
  4  2  1  0
  5 54  1  0
  5  7  1  0
  6  7  1  0
  6 10  1  0
  7  9  1  0
  8  6  2  0
 10 49  1  0
 11 17  1  0
 11 19  1  0
 12 17  1  0
 13 14  1  0
 13 12  1  0
 15 14  1  0
 15 24  1  0
 15 16  1  0
 17 16  1  0
 18 11  2  0
 19 10  1  0
 19 20  1  0
 21 22  2  0
 22 41  1  0
 23 22  1  0
 23 26  1  0
 24 25  1  0
 24 21  1  0
 25 23  2  0
 26 27  1  0
 27 28  2  0
 29 32  1  0
 29 28  1  0
 30 29  2  0
 31 30  1  0
 31 26  2  0
 32 33  1  0
 33 34  1  0
 34 35  2  0
 36 35  1  0
 36 40  1  0
 37 36  2  0
 38 33  2  0
 38 37  1  0
 39 38  1  0
 41 42  1  0
 42 45  1  0
 42 44  1  0
 43 41  2  0
 46 21  1  0
 46 47  1  0
 48 46  1  0
 49 53  1  0
 53 51  1  6
 53 50  1  0
 53 52  1  0
 54 55  1  0
 55 57  1  0
 57 56  1  0
 58 59  1  0
 58  2  1  0
 59 60  1  0
 60 61  1  0
 61 62  1  0
 62 63  1  0
 63 64  1  0
 64 65  1  0
 66 65  1  0
 67 78  2  0
 68 66  1  0
 68 73  1  0
 69 77  1  0
 69 79  1  0
 70 72  1  0
 71 77  1  0
 72 73  2  0
 72 71  1  0
 74 68  2  0
 75 74  1  0
 75 70  2  0
 76 70  1  0
 76 69  1  0
 77 67  1  0
 79 81  2  0
 80 79  1  0
 82 80  1  0
 83 92  2  0
 83 88  1  0
 84 80  1  0
 84 88  1  0
 85 84  1  0
 86 87  1  0
 86 85  1  0
 87 83  1  0
 88 89  2  0
 89 90  1  0
 91 90  2  0
 92 91  1  0
 93 67  1  0
 93 98  1  0
 93 94  1  0
 94 97  1  1
 94 95  1  0
 96 94  1  0
 98101  1  0
 99103  1  0
 99 98  1  0
100 99  2  0
103102  1  0
105103  1  0
105106  1  0
105104  1  0
M  ISO  4  11 100  19 100  65 101  66 101
M  END
>  <TORSDO>  (85) 
F 32

>  <SCORE>  (85) 
-5.935

>  <name>  (85) 
86

>  <ligand_id>  (85) 
86

>  <original_smiles>  (85) 
[H]c1c([H])c([H])c2c(c1[H])C([H])([H])C([H])([H])C([H])([H])C2([H])N([H])C(=O)C1([H])N(C(=O)C([H])(N([H])C(=O)C([H])(N([H])C([H])([H])[H])C([H])([H])[H])C(C([H])([H])[H])(C([H])([H])[H])C([H])([H])[H])C([H])([H])c2c([H])c(OC([H])([H])C([H])([H])OC([H])([H])C([H])([H])OC([H])([H])C([H])([H])N([H])C(=O)C([H])(N([H])C(=O)C([H])(N([H])C(=O)N3C([H])([H])C([H])([H])C([H])([H])C([H])(n4nc(-c5c([H])c([H])c(Oc6c([H])c([H])c(F)c([H])c6F)c([H])c5[H])c(C(=O)N([H])[H])c4N([H])[H])C3([H])[H])C([H])([H])C(C([H])([H])[H])(C([H])([H])[H])C([H])([H])[H])C([H])([H])C([H])([H])OC([H])([H])[H])c([H])c([H])c2C1([H])[H]

>  <smiles>  (85) 
[H]c1c([H])c([H])c2c(c1[H])C([H])([H])C([H])([H])C([H])([H])C2([H])N([H])C(=O)C1([H])N(C(=O)C([H])(N([H])C(=O)C([H])(N([H])C([H])([H])[H])C([H])([H])[H])C(C([H])([H])[H])(C([H])([H])[H])C([H])([H])[H])C([H])([H])c2c([H])c(OC([H])([H])C([H])([H])OC([H])([H])C([H])([H])OC([H])([H])C([H])([H])N([H])C(=O)C([H])(N([H])C(=O)C([H])(N([H])C(=O)N3C([H])([H])C([H])([H])C([H])([H])C([H])(n4nc(-c5c([H])c([H])c(Oc6c([H])c([H])c(F)c([H])c6F)c([H])c5[H])c(C(=O)N([H])[H])c4N([H])[H])C3([H])[H])C([H])([H])C(C([H])([H])[H])(C([H])([H])[H])C([H])([H])[H])C([H])([H])C([H])([H])OC([H])([H])[H])c([H])c([H])c2C1([H])[H]

$$$$
87:0:0
     RDKit          3D

102109  0  0  1  0  0  0  0  0999 V2000
  -30.0770  -20.1950   20.3840 C   0  0  0  0  0  3  0  0  0  0  0  0
  -29.6870  -20.9450   21.6760 C   0  0  0  0  0  0  0  0  0  0  0  0
  -28.4410  -21.3980   21.7890 N   0  0  0  0  0  0  0  0  0  0  0  0
  -30.4900  -21.0850   22.6010 O   0  0  0  0  0  0  0  0  0  0  0  0
  -27.7620  -21.2450   21.0570 H   0  0  0  0  0  0  0  0  0  0  0  0
  -28.1520  -21.8760   22.6310 H   0  0  0  0  0  0  0  0  0  0  0  0
  -30.5520  -17.7360   20.4090 C   0  0  0  0  0  0  0  0  0  0  0  0
  -30.8090  -18.9930   20.7810 N   0  0  0  0  0  0  0  0  0  0  0  0
  -29.6660  -17.4580   19.5970 O   0  0  0  0  0  0  0  0  0  0  0  0
  -31.5510  -19.1600   21.4450 H   0  0  0  0  0  0  0  0  0  0  0  0
  -31.3990  -16.6230   21.0760 C   0  0  0  0  0  3  0  0  0  0  0  0
  -31.2090  -14.5040   19.7500 C   0  0  0  0  0  0  0  0  0  0  0  0
  -30.6820  -12.4160   18.5400 C   0  0  0  0  0  2  0  0  0  0  0  0
  -29.6330  -12.6630   17.4390 C   0  0  0  0  0  2  0  0  0  0  0  0
  -28.2050  -12.5700   18.0090 C   0  0  0  0  0  2  0  0  0  0  0  0
  -28.0230  -13.4190   19.2950 C   0  0  0  0  0  3  0  0  0  0  0  0
  -29.1610  -13.1340   20.2980 C   0  0  0  0  0  2  0  0  0  0  0  0
  -30.4510  -13.3840   19.6220 N   0  0  0  0  0  0  0  0  0  0  0  0
  -32.1720  -14.7640   19.0210 O   0  0  0  0  0  0  0  0  0  0  0  0
  -30.8510  -15.3040   20.7570 N   0  0  0  0  0  0  0  0  0  0  0  0
  -30.0500  -15.0150   21.2940 H   0  0  0  0  0  0  0  0  0  0  0  0
  -25.7470  -14.1280   20.2740 C   0  0  0  0  0  0  0  0  0  0  0  0
  -24.6740  -13.3990   20.7150 C   0  0  0  0  0  0  0  0  0  0  0  0
  -25.0430  -12.0270   20.5690 C   0  0  0  0  0  0  0  0  0  0  0  0
  -26.7070  -13.2010   19.8950 N   0  0  0  0  0  0  0  0  0  0  0  0
  -26.2900  -11.9290   20.1250 N   0  0  0  0  0  0  0  0  0  0  0  0
  -24.2620  -10.8000   20.7730 C   0  0  0  0  0  0  0  0  0  0  0  0
  -24.7000   -9.7810   21.6480 C   0  0  0  0  0  3  0  0  0  0  0  0
  -23.9240   -8.6190   21.8400 C   0  0  0  0  0  3  0  0  0  0  0  0
  -22.6920   -8.4670   21.1580 C   0  0  0  0  0  0  0  0  0  0  0  0
  -22.2720   -9.4730   20.2720 C   0  0  0  0  0  3  0  0  0  0  0  0
  -23.0480  -10.6270   20.0770 C   0  0  0  0  0  3  0  0  0  0  0  0
  -21.8840   -7.3620   21.2640 O   0  0  0  0  0  0  0  0  0  0  0  0
  -21.8320   -6.6150   22.4140 C   0  0  0  0  0  0  0  0  0  0  0  0
  -21.4760   -7.1820   23.6560 C   0  0  0  0  0  3  0  0  0  0  0  0
  -21.3680   -6.3650   24.7980 C   0  0  0  0  0  3  0  0  0  0  0  0
  -21.6050   -4.9800   24.7000 C   0  0  0  0  0  0  0  0  0  0  0  0
  -21.9560   -4.4120   23.4620 C   0  0  0  0  0  3  0  0  0  0  0  0
  -22.0650   -5.2270   22.3220 C   0  0  0  0  0  0  0  0  0  0  0  0
  -22.3820   -4.6710   21.1280 F   0  0  0  0  0  0  0  0  0  0  0  0
  -21.4950   -4.1940   25.7950 F   0  0  0  0  0  0  0  0  0  0  0  0
  -23.3450  -13.9410   21.1570 C   0  0  0  0  0  0  0  0  0  0  0  0
  -22.6760  -13.2490   22.0740 N   0  0  0  0  0  0  0  0  0  0  0  0
  -22.9130  -15.0090   20.7260 O   0  0  0  0  0  0  0  0  0  0  0  0
  -23.0390  -12.3830   22.4430 H   0  0  0  0  0  0  0  0  0  0  0  0
  -21.7880  -13.5920   22.4110 H   0  0  0  0  0  0  0  0  0  0  0  0
  -25.9830  -15.4940   20.1500 N   0  0  0  0  0  0  0  0  0  0  0  0
  -25.2820  -16.1910   20.3780 H   0  0  0  0  0  0  0  0  0  0  0  0
  -26.8390  -15.8970   19.7900 H   0  0  0  0  0  0  0  0  0  0  0  0
  -29.9720  -16.8730   23.2490 C   0  0  0  0  0  1  0  0  0  0  0  0
  -32.1750  -15.6330   23.3010 C   0  0  0  0  0  1  0  0  0  0  0  0
  -31.3840  -16.7710   22.6280 C   0  0  0  0  0  3  0  0  0  0  0  0
  -30.9730  -21.1340   19.5370 C   0  0  0  0  0  0  0  0  0  0  0  0
  -30.3750  -22.0310   18.7350 N   0  0  0  0  0  0  0  0  0  0  0  0
  -32.2040  -21.0340   19.5880 O   0  0  0  0  0  0  0  0  0  0  0  0
  -29.3650  -22.0700   18.7290 H   0  0  0  0  0  0  0  0  0  0  0  0
  -31.0710  -22.9820   17.8660 C   0  0  0  0  0  2  0  0  0  0  0  0
  -31.4530  -24.2750   18.6100 C   0  0  0  0  0  2  0  0  0  0  0  0
  -30.3480  -25.1750   18.6520 O   0  0  0  0  0  0  0  0  0  0  0  0
  -30.5990  -26.2950   19.5010 C   0  0  0  0  0  2  0  0  0  0  0  0
  -29.5310  -27.3890   19.3250 C   0  0  0  0  0  2  0  0  0  0  0  0
  -28.2500  -26.7890   19.4570 O   0  0  0  0  0  0  0  0  0  0  0  0
  -24.6310  -31.7010   23.1980 C   0  0  0  0  0  0  0  0  0  0  0  0
  -27.1360  -27.5810   19.6160 C   0  0  0  0  0  0  0  0  0  0  0  0
  -23.3370  -30.4210   21.5200 C   0  0  0  0  0  3  0  0  0  0  0  0
  -24.7180  -29.0200   19.8960 C   0  0  0  0  0  0  0  0  0  0  0  0
  -25.8400  -30.8350   21.2010 C   0  0  0  0  0  2  0  0  0  0  0  0
  -25.9020  -29.5230   20.4500 C   0  0  0  0  0  0  0  0  0  0  0  0
  -27.1140  -28.8120   20.3120 C   0  0  0  0  0  3  0  0  0  0  0  0
  -25.9310  -27.0810   19.0800 C   0  0  0  0  0  3  0  0  0  0  0  0
  -24.7250  -27.7940   19.2100 C   0  0  0  0  0  3  0  0  0  0  0  0
  -23.4690  -29.8520   20.0820 C   0  0  0  0  0  2  0  0  0  0  0  0
  -24.6240  -30.9950   22.0320 N   0  0  0  0  0  0  0  0  0  0  0  0
  -23.5830  -31.9170   23.8210 O   0  0  0  0  0  0  0  0  0  0  0  0
  -22.7500  -29.3210   22.4320 C   0  0  0  0  0  0  0  0  0  0  0  0
  -21.4400  -29.0640   22.2900 N   0  0  0  0  0  0  0  0  0  0  0  0
  -23.4710  -28.7040   23.2210 O   0  0  0  0  0  0  0  0  0  0  0  0
  -20.9180  -29.6190   21.6260 H   0  0  0  0  0  0  0  0  0  0  0  0
  -18.1730  -27.5610   22.6210 C   0  0  0  0  0  0  0  0  0  0  0  0
  -20.6800  -28.0440   23.0120 C   0  0  0  0  0  3  0  0  0  0  0  0
  -20.9380  -26.6370   22.4260 C   0  0  0  0  0  2  0  0  0  0  0  0
  -19.9170  -26.2310   21.3590 C   0  0  0  0  0  2  0  0  0  0  0  0
  -18.5000  -26.2430   21.9400 C   0  0  0  0  0  2  0  0  0  0  0  0
  -19.1970  -28.4140   23.1090 C   0  0  0  0  0  0  0  0  0  0  0  0
  -18.8380  -29.6450   23.7010 C   0  0  0  0  0  3  0  0  0  0  0  0
  -17.4890  -30.0260   23.8100 C   0  0  0  0  0  3  0  0  0  0  0  0
  -16.4770  -29.1700   23.3400 C   0  0  0  0  0  3  0  0  0  0  0  0
  -16.8190  -27.9400   22.7510 C   0  0  0  0  0  3  0  0  0  0  0  0
  -25.9500  -32.2910   23.7900 C   0  0  0  0  0  3  0  0  0  0  0  0
  -26.5150  -31.4550   25.0040 C   0  0  1  0  0  0  0  0  0  0  0  0
  -25.4590  -31.1440   26.0890 C   0  0  0  0  0  1  0  0  0  0  0  0
  -27.0980  -30.1090   24.5110 C   0  0  0  0  0  1  0  0  0  0  0  0
  -27.6780  -32.2240   25.6740 C   0  0  0  0  0  1  0  0  0  0  0  0
  -25.6720  -33.6750   24.1960 N   0  0  0  0  0  0  0  0  0  0  0  0
  -25.9910  -34.7570   23.4710 C   0  0  0  0  0  0  0  0  0  0  0  0
  -26.6230  -34.6920   22.4130 O   0  0  0  0  0  0  0  0  0  0  0  0
  -25.1090  -33.8000   25.0250 H   0  0  0  0  0  0  0  0  0  0  0  0
  -24.2690  -36.5760   23.2590 C   0  0  0  0  0  1  0  0  0  0  0  0
  -25.5350  -36.1270   24.0060 C   0  0  0  0  0  3  0  0  0  0  0  0
  -27.7110  -36.9500   24.7910 C   0  0  0  0  0  1  0  0  0  0  0  0
  -26.5760  -37.1750   23.9010 N   0  0  0  0  0  0  0  0  0  0  0  0
  -26.1860  -38.0900   24.1090 H   0  0  0  0  0  0  0  0  0  0  0  0
  1 53  1  0
  1  8  1  0
  1  2  1  0
  2  3  1  0
  2  4  2  0
  3  6  1  0
  5  3  1  0
  7  8  1  0
  8 10  1  0
  9  7  2  0
 11  7  1  0
 11 52  1  0
 12 20  1  0
 13 18  1  0
 14 15  1  0
 14 13  1  0
 16 15  1  0
 16 25  1  0
 16 17  1  0
 18 12  1  0
 18 17  1  0
 19 12  2  0
 20 11  1  0
 20 21  1  0
 22 23  2  0
 23 42  1  0
 24 23  1  0
 24 27  1  0
 25 26  1  0
 25 22  1  0
 26 24  2  0
 27 28  1  0
 28 29  2  0
 30 33  1  0
 30 29  1  0
 31 30  2  0
 32 31  1  0
 32 27  2  0
 33 34  1  0
 34 35  1  0
 35 36  2  0
 37 36  1  0
 37 41  1  0
 38 37  2  0
 39 34  2  0
 39 38  1  0
 40 39  1  0
 42 43  1  0
 43 46  1  0
 43 45  1  0
 44 42  2  0
 47 22  1  0
 47 48  1  0
 49 47  1  0
 52 50  1  0
 52 51  1  0
 53 55  2  0
 54 53  1  0
 56 54  1  0
 57 58  1  0
 57 54  1  0
 58 59  1  0
 59 60  1  0
 61 62  1  0
 61 60  1  0
 62 64  1  0
 63 74  2  0
 64 69  1  0
 65 73  1  0
 65 75  1  0
 66 72  1  0
 66 68  1  0
 67 73  1  0
 68 67  1  0
 69 68  2  0
 70 71  1  0
 70 64  2  0
 71 66  2  0
 72 65  1  0
 73 63  1  0
 75 77  2  0
 76 75  1  0
 78 76  1  0
 79 88  2  0
 79 84  1  0
 80 76  1  0
 80 84  1  0
 81 80  1  0
 82 83  1  0
 82 81  1  0
 83 79  1  0
 84 85  2  0
 85 86  1  0
 87 86  2  0
 88 87  1  0
 89 63  1  0
 89 94  1  0
 89 90  1  0
 90 93  1  1
 90 91  1  0
 92 90  1  0
 94 97  1  0
 95 99  1  0
 95 94  1  0
 96 95  2  0
 99 98  1  0
101 99  1  0
101102  1  0
101100  1  0
M  ISO  4  12 100  20 100  61 101  62 101
M  END
>  <TORSDO>  (86) 
F 26

>  <SCORE>  (86) 
-6.204

>  <name>  (86) 
87

>  <ligand_id>  (86) 
87

>  <original_smiles>  (86) 
[H]c1c([H])c([H])c2c(c1[H])C([H])([H])C([H])([H])C([H])([H])C2([H])N([H])C(=O)C1([H])N(C(=O)C([H])(N([H])C(=O)C([H])(N([H])C([H])([H])[H])C([H])([H])[H])C(C([H])([H])[H])(C([H])([H])[H])C([H])([H])[H])C([H])([H])c2c([H])c(OC([H])([H])C([H])([H])OC([H])([H])C([H])([H])N([H])C(=O)C([H])(C(=O)N([H])[H])N([H])C(=O)C([H])(N([H])C(=O)N3C([H])([H])C([H])([H])C([H])([H])C([H])(n4nc(-c5c([H])c([H])c(Oc6c([H])c([H])c(F)c([H])c6F)c([H])c5[H])c(C(=O)N([H])[H])c4N([H])[H])C3([H])[H])C([H])(C([H])([H])[H])C([H])([H])[H])c([H])c([H])c2C1([H])[H]

>  <smiles>  (86) 
[H]c1c([H])c([H])c2c(c1[H])C([H])([H])C([H])([H])C([H])([H])C2([H])N([H])C(=O)C1([H])N(C(=O)C([H])(N([H])C(=O)C([H])(N([H])C([H])([H])[H])C([H])([H])[H])C(C([H])([H])[H])(C([H])([H])[H])C([H])([H])[H])C([H])([H])c2c([H])c(OC([H])([H])C([H])([H])OC([H])([H])C([H])([H])N([H])C(=O)C([H])(C(=O)N([H])[H])N([H])C(=O)C([H])(N([H])C(=O)N3C([H])([H])C([H])([H])C([H])([H])C([H])(n4nc(-c5c([H])c([H])c(Oc6c([H])c([H])c(F)c([H])c6F)c([H])c5[H])c(C(=O)N([H])[H])c4N([H])[H])C3([H])[H])C([H])(C([H])([H])[H])C([H])([H])[H])c([H])c([H])c2C1([H])[H]

$$$$
88:0:0
     RDKit          3D

 93100  0  0  1  0  0  0  0  0999 V2000
  -29.5800  -21.2960   23.3440 O   0  0  0  0  0  0  0  0  0  0  0  0
  -30.6750  -20.9660   24.1920 C   0  0  0  0  0  2  0  0  0  0  0  0
  -30.8650  -19.4450   24.2320 C   0  0  0  0  0  2  0  0  0  0  0  0
  -31.0980  -17.6210   22.5930 C   0  0  0  0  0  0  0  0  0  0  0  0
  -31.2380  -18.9050   22.9280 N   0  0  0  0  0  0  0  0  0  0  0  0
  -30.6390  -16.7850   23.3780 O   0  0  0  0  0  0  0  0  0  0  0  0
  -31.6020  -19.5530   22.2420 H   0  0  0  0  0  0  0  0  0  0  0  0
  -31.0010  -18.1240   20.0640 C   0  0  0  0  0  1  0  0  0  0  0  0
  -31.5230  -17.1960   21.1800 C   0  0  0  0  0  3  0  0  0  0  0  0
  -31.6410  -14.8800   20.1970 C   0  0  0  0  0  0  0  0  0  0  0  0
  -31.1660  -12.8140   18.9430 C   0  0  0  0  0  2  0  0  0  0  0  0
  -30.2210  -13.1430   17.7710 C   0  0  0  0  0  2  0  0  0  0  0  0
  -28.7470  -13.0900   18.2210 C   0  0  0  0  0  2  0  0  0  0  0  0
  -28.4920  -13.9010   19.5200 C   0  0  0  0  0  3  0  0  0  0  0  0
  -29.5400  -13.5440   20.5970 C   0  0  0  0  0  2  0  0  0  0  0  0
  -30.8840  -13.7660   20.0250 N   0  0  0  0  0  0  0  0  0  0  0  0
  -32.7240  -15.0650   19.6350 O   0  0  0  0  0  0  0  0  0  0  0  0
  -31.0700  -15.8270   20.9460 N   0  0  0  0  0  0  0  0  0  0  0  0
  -30.2190  -15.5780   21.4290 H   0  0  0  0  0  0  0  0  0  0  0  0
  -26.1520  -14.6620   20.2790 C   0  0  0  0  0  0  0  0  0  0  0  0
  -25.0370  -13.9580   20.6500 C   0  0  0  0  0  0  0  0  0  0  0  0
  -25.4010  -12.5790   20.5810 C   0  0  0  0  0  0  0  0  0  0  0  0
  -27.1280  -13.7150   20.0110 N   0  0  0  0  0  0  0  0  0  0  0  0
  -26.6800  -12.4560   20.2470 N   0  0  0  0  0  0  0  0  0  0  0  0
  -24.5930  -11.3660   20.7560 C   0  0  0  0  0  0  0  0  0  0  0  0
  -24.9560  -10.3650   21.6840 C   0  0  0  0  0  3  0  0  0  0  0  0
  -24.1530   -9.2160   21.8470 C   0  0  0  0  0  3  0  0  0  0  0  0
  -22.9740   -9.0590   21.0820 C   0  0  0  0  0  0  0  0  0  0  0  0
  -22.6300  -10.0470   20.1420 C   0  0  0  0  0  3  0  0  0  0  0  0
  -23.4310  -11.1880   19.9770 C   0  0  0  0  0  3  0  0  0  0  0  0
  -22.1460   -7.9640   21.1550 O   0  0  0  0  0  0  0  0  0  0  0  0
  -21.9880   -7.2570   22.3200 C   0  0  0  0  0  0  0  0  0  0  0  0
  -21.5680   -7.8770   23.5170 C   0  0  0  0  0  3  0  0  0  0  0  0
  -21.3520   -7.1010   24.6740 C   0  0  0  0  0  3  0  0  0  0  0  0
  -21.5460   -5.7070   24.6340 C   0  0  0  0  0  0  0  0  0  0  0  0
  -21.9580   -5.0870   23.4410 C   0  0  0  0  0  3  0  0  0  0  0  0
  -22.1760   -5.8610   22.2880 C   0  0  0  0  0  0  0  0  0  0  0  0
  -22.5530   -5.2550   21.1350 F   0  0  0  0  0  0  0  0  0  0  0  0
  -21.3300   -4.9600   25.7420 F   0  0  0  0  0  0  0  0  0  0  0  0
  -23.6810  -14.5240   20.9590 C   0  0  0  0  0  0  0  0  0  0  0  0
  -22.9330  -13.8770   21.8460 N   0  0  0  0  0  0  0  0  0  0  0  0
  -23.2950  -15.5760   20.4500 O   0  0  0  0  0  0  0  0  0  0  0  0
  -23.2550  -13.0260   22.2830 H   0  0  0  0  0  0  0  0  0  0  0  0
  -22.0210  -14.2380   22.0910 H   0  0  0  0  0  0  0  0  0  0  0  0
  -26.4100  -16.0220   20.1290 N   0  0  0  0  0  0  0  0  0  0  0  0
  -25.6980  -16.7300   20.2640 H   0  0  0  0  0  0  0  0  0  0  0  0
  -27.2910  -16.4040   19.8100 H   0  0  0  0  0  0  0  0  0  0  0  0
  -29.2600  -22.6810   23.4090 C   0  0  0  0  0  2  0  0  0  0  0  0
  -28.3050  -23.0880   22.2780 C   0  0  0  0  0  2  0  0  0  0  0  0
  -29.0540  -23.3610   21.0990 O   0  0  0  0  0  0  0  0  0  0  0  0
  -28.4150  -24.2730   20.2100 C   0  0  0  0  0  2  0  0  0  0  0  0
  -28.6630  -25.7350   20.6360 C   0  0  0  0  0  2  0  0  0  0  0  0
  -28.3810  -26.6290   19.5650 O   0  0  0  0  0  0  0  0  0  0  0  0
  -24.6580  -31.5930   23.0520 C   0  0  0  0  0  0  0  0  0  0  0  0
  -27.2060  -27.3250   19.6910 C   0  0  0  0  0  0  0  0  0  0  0  0
  -23.4000  -30.2770   21.3740 C   0  0  0  0  0  3  0  0  0  0  0  0
  -24.8090  -28.7990   19.8460 C   0  0  0  0  0  0  0  0  0  0  0  0
  -25.9150  -30.6470   21.1190 C   0  0  0  0  0  2  0  0  0  0  0  0
  -25.9800  -29.3040   20.4260 C   0  0  0  0  0  0  0  0  0  0  0  0
  -27.1840  -28.5720   20.3500 C   0  0  0  0  0  3  0  0  0  0  0  0
  -26.0230  -26.8200   19.1170 C   0  0  0  0  0  3  0  0  0  0  0  0
  -24.8230  -27.5530   19.1930 C   0  0  0  0  0  3  0  0  0  0  0  0
  -23.5680  -29.6550   19.9610 C   0  0  0  0  0  2  0  0  0  0  0  0
  -24.6780  -30.8510   21.9090 N   0  0  0  0  0  0  0  0  0  0  0  0
  -23.5940  -31.8430   23.6330 O   0  0  0  0  0  0  0  0  0  0  0  0
  -22.7680  -29.2160   22.3020 C   0  0  0  0  0  0  0  0  0  0  0  0
  -21.4400  -29.0430   22.1930 N   0  0  0  0  0  0  0  0  0  0  0  0
  -23.4660  -28.5550   23.0730 O   0  0  0  0  0  0  0  0  0  0  0  0
  -20.9380  -29.6360   21.5480 H   0  0  0  0  0  0  0  0  0  0  0  0
  -18.0760  -27.8210   22.6790 C   0  0  0  0  0  0  0  0  0  0  0  0
  -20.6360  -28.0710   22.9320 C   0  0  0  0  0  3  0  0  0  0  0  0
  -20.7340  -26.6660   22.2910 C   0  0  0  0  0  2  0  0  0  0  0  0
  -19.6190  -26.3850   21.2780 C   0  0  0  0  0  2  0  0  0  0  0  0
  -18.2450  -26.5020   21.9450 C   0  0  0  0  0  2  0  0  0  0  0  0
  -19.1990  -28.5660   23.1280 C   0  0  0  0  0  0  0  0  0  0  0  0
  -18.9860  -29.8040   23.7710 C   0  0  0  0  0  3  0  0  0  0  0  0
  -17.6840  -30.2980   23.9710 C   0  0  0  0  0  3  0  0  0  0  0  0
  -16.5750  -29.5480   23.5400 C   0  0  0  0  0  3  0  0  0  0  0  0
  -16.7720  -28.3120   22.9000 C   0  0  0  0  0  3  0  0  0  0  0  0
  -25.9640  -32.1820   23.6720 C   0  0  0  0  0  3  0  0  0  0  0  0
  -26.5280  -31.3260   24.8720 C   0  0  1  0  0  0  0  0  0  0  0  0
  -25.4750  -31.0180   25.9620 C   0  0  0  0  0  1  0  0  0  0  0  0
  -27.0910  -29.9810   24.3590 C   0  0  0  0  0  1  0  0  0  0  0  0
  -27.7050  -32.0740   25.5440 C   0  0  0  0  0  1  0  0  0  0  0  0
  -25.6690  -33.5540   24.1060 N   0  0  0  0  0  0  0  0  0  0  0  0
  -25.9950  -34.6560   23.4190 C   0  0  0  0  0  0  0  0  0  0  0  0
  -26.6480  -34.6230   22.3710 O   0  0  0  0  0  0  0  0  0  0  0  0
  -25.0910  -33.6570   24.9280 H   0  0  0  0  0  0  0  0  0  0  0  0
  -24.2700  -36.4730   23.2210 C   0  0  0  0  0  1  0  0  0  0  0  0
  -25.5220  -36.0080   23.9810 C   0  0  0  0  0  3  0  0  0  0  0  0
  -27.6740  -36.8220   24.8380 C   0  0  0  0  0  1  0  0  0  0  0  0
  -26.5570  -37.0640   23.9290 N   0  0  0  0  0  0  0  0  0  0  0  0
  -26.1580  -37.9710   24.1520 H   0  0  0  0  0  0  0  0  0  0  0  0
  1 48  1  0
  1  2  1  0
  2  3  1  0
  4  5  1  0
  4  6  2  0
  5  3  1  0
  7  5  1  0
  9  8  1  0
  9  4  1  0
 10 18  1  0
 11 16  1  0
 12 13  1  0
 12 11  1  0
 14 13  1  0
 14 23  1  0
 14 15  1  0
 16 10  1  0
 16 15  1  0
 17 10  2  0
 18  9  1  0
 18 19  1  0
 20 21  2  0
 21 40  1  0
 22 21  1  0
 22 25  1  0
 23 24  1  0
 23 20  1  0
 24 22  2  0
 25 26  1  0
 26 27  2  0
 28 31  1  0
 28 27  1  0
 29 28  2  0
 30 29  1  0
 30 25  2  0
 31 32  1  0
 32 33  1  0
 33 34  2  0
 35 34  1  0
 35 39  1  0
 36 35  2  0
 37 32  2  0
 37 36  1  0
 38 37  1  0
 40 41  1  0
 41 44  1  0
 41 43  1  0
 42 40  2  0
 45 46  1  0
 45 20  1  0
 47 45  1  0
 49 48  1  0
 50 49  1  0
 51 52  1  0
 51 50  1  0
 53 55  1  0
 53 52  1  0
 54 65  2  0
 55 60  1  0
 56 64  1  0
 56 66  1  0
 57 63  1  0
 57 59  1  0
 58 64  1  0
 59 58  1  0
 60 59  2  0
 61 62  1  0
 61 55  2  0
 62 57  2  0
 63 56  1  0
 64 54  1  0
 66 68  2  0
 67 66  1  0
 69 67  1  0
 70 79  2  0
 70 75  1  0
 71 67  1  0
 71 75  1  0
 72 71  1  0
 73 74  1  0
 73 72  1  0
 74 70  1  0
 75 76  2  0
 76 77  1  0
 78 77  2  0
 79 78  1  0
 80 54  1  0
 80 85  1  0
 80 81  1  0
 81 84  1  1
 81 82  1  0
 83 81  1  0
 85 88  1  0
 86 90  1  0
 86 85  1  0
 87 86  2  0
 90 89  1  0
 92 90  1  0
 92 93  1  0
 92 91  1  0
M  ISO  4  10 100  18 100  52 101  53 101
M  END
>  <TORSDO>  (87) 
F 25

>  <SCORE>  (87) 
-9.429

>  <name>  (87) 
88

>  <ligand_id>  (87) 
88

>  <original_smiles>  (87) 
[H]c1c([H])c([H])c2c(c1[H])C([H])([H])C([H])([H])C([H])([H])C2([H])N([H])C(=O)C1([H])N(C(=O)C([H])(N([H])C(=O)C([H])(N([H])C([H])([H])[H])C([H])([H])[H])C(C([H])([H])[H])(C([H])([H])[H])C([H])([H])[H])C([H])([H])c2c([H])c(OC([H])([H])C([H])([H])OC([H])([H])C([H])([H])OC([H])([H])C([H])([H])N([H])C(=O)C([H])(N([H])C(=O)N3C([H])([H])C([H])([H])C([H])([H])C([H])(n4nc(-c5c([H])c([H])c(Oc6c([H])c([H])c(F)c([H])c6F)c([H])c5[H])c(C(=O)N([H])[H])c4N([H])[H])C3([H])[H])C([H])([H])[H])c([H])c([H])c2C1([H])[H]

>  <smiles>  (87) 
[H]c1c([H])c([H])c2c(c1[H])C([H])([H])C([H])([H])C([H])([H])C2([H])N([H])C(=O)C1([H])N(C(=O)C([H])(N([H])C(=O)C([H])(N([H])C([H])([H])[H])C([H])([H])[H])C(C([H])([H])[H])(C([H])([H])[H])C([H])([H])[H])C([H])([H])c2c([H])c(OC([H])([H])C([H])([H])OC([H])([H])C([H])([H])OC([H])([H])C([H])([H])N([H])C(=O)C([H])(N([H])C(=O)N3C([H])([H])C([H])([H])C([H])([H])C([H])(n4nc(-c5c([H])c([H])c(Oc6c([H])c([H])c(F)c([H])c6F)c([H])c5[H])c(C(=O)N([H])[H])c4N([H])[H])C3([H])[H])C([H])([H])[H])c([H])c([H])c2C1([H])[H]

$$$$
89:0:0
     RDKit          3D

 98105  0  0  1  0  0  0  0  0999 V2000
  -29.5170  -19.5080   21.2230 C   0  0  0  0  0  0  0  0  0  0  0  0
  -30.2450  -20.0280   20.2240 N   0  0  0  0  0  0  0  0  0  0  0  0
  -29.5770  -19.9570   22.3690 O   0  0  0  0  0  0  0  0  0  0  0  0
  -30.1150  -19.6700   19.2890 H   0  0  0  0  0  0  0  0  0  0  0  0
  -31.1880  -21.1200   20.4010 C   0  0  0  0  0  2  0  0  0  0  0  0
  -31.7650  -21.5870   19.0630 C   0  0  0  0  0  2  0  0  0  0  0  0
  -32.6270  -22.6710   19.3530 O   0  0  0  0  0  0  0  0  0  0  0  0
  -32.9910  -23.4120   18.2020 C   0  0  0  0  0  2  0  0  0  0  0  0
  -33.5990  -24.7370   18.6690 C   0  0  0  0  0  2  0  0  0  0  0  0
  -33.1080  -25.7770   17.8390 O   0  0  0  0  0  0  0  0  0  0  0  0
  -28.2590  -28.3650   22.3580 C   0  0  0  0  0  0  0  0  0  0  0  0
  -31.8030  -26.1180   18.0690 C   0  0  0  0  0  0  0  0  0  0  0  0
  -27.3840  -27.5030   20.2060 C   0  0  0  0  0  3  0  0  0  0  0  0
  -29.1400  -26.9470   18.4450 C   0  0  0  0  0  0  0  0  0  0  0  0
  -29.7690  -28.4020   20.3800 C   0  0  0  0  0  2  0  0  0  0  0  0
  -30.1480  -27.4240   19.2930 C   0  0  0  0  0  0  0  0  0  0  0  0
  -31.4820  -27.0100   19.1110 C   0  0  0  0  0  3  0  0  0  0  0  0
  -30.7830  -25.6280   17.2300 C   0  0  0  0  0  3  0  0  0  0  0  0
  -29.4490  -26.0370   17.4180 C   0  0  0  0  0  3  0  0  0  0  0  0
  -27.7400  -27.4580   18.6970 C   0  0  0  0  0  2  0  0  0  0  0  0
  -28.4850  -28.0830   21.0430 N   0  0  0  0  0  0  0  0  0  0  0  0
  -27.1410  -28.1930   22.8650 O   0  0  0  0  0  0  0  0  0  0  0  0
  -26.9610  -26.0850   20.6510 C   0  0  0  0  0  0  0  0  0  0  0  0
  -25.8510  -25.5900   20.0810 N   0  0  0  0  0  0  0  0  0  0  0  0
  -27.6340  -25.4480   21.4680 O   0  0  0  0  0  0  0  0  0  0  0  0
  -25.3510  -26.1770   19.4280 H   0  0  0  0  0  0  0  0  0  0  0  0
  -23.2120  -23.3390   19.0780 C   0  0  0  0  0  0  0  0  0  0  0  0
  -25.2830  -24.2630   20.3170 C   0  0  0  0  0  3  0  0  0  0  0  0
  -26.0870  -23.1750   19.5710 C   0  0  0  0  0  2  0  0  0  0  0  0
  -25.5260  -22.8550   18.1800 C   0  0  0  0  0  2  0  0  0  0  0  0
  -24.0770  -22.3740   18.2850 C   0  0  0  0  0  2  0  0  0  0  0  0
  -23.7810  -24.2360   20.0210 C   0  0  0  0  0  0  0  0  0  0  0  0
  -22.9350  -25.1360   20.7050 C   0  0  0  0  0  3  0  0  0  0  0  0
  -21.5470  -25.1480   20.4650 C   0  0  0  0  0  3  0  0  0  0  0  0
  -20.9870  -24.2470   19.5440 C   0  0  0  0  0  3  0  0  0  0  0  0
  -21.8170  -23.3430   18.8570 C   0  0  0  0  0  3  0  0  0  0  0  0
  -29.3810  -28.9410   23.2780 C   0  0  0  0  0  3  0  0  0  0  0  0
  -29.9760  -27.8720   24.2740 C   0  0  1  0  0  0  0  0  0  0  0  0
  -28.8990  -27.0460   25.0120 C   0  0  0  0  0  1  0  0  0  0  0  0
  -30.9000  -26.8840   23.5250 C   0  0  0  0  0  1  0  0  0  0  0  0
  -30.8500  -28.5770   25.3390 C   0  0  0  0  0  1  0  0  0  0  0  0
  -28.8110  -30.0780   24.0100 N   0  0  0  0  0  0  0  0  0  0  0  0
  -29.0580  -31.3640   23.7270 C   0  0  0  0  0  0  0  0  0  0  0  0
  -29.8620  -31.7180   22.8600 O   0  0  0  0  0  0  0  0  0  0  0  0
  -28.1010  -29.8620   24.6950 H   0  0  0  0  0  0  0  0  0  0  0  0
  -27.1560  -33.0100   23.6910 C   0  0  0  0  0  1  0  0  0  0  0  0
  -28.2960  -32.4270   24.5430 C   0  0  0  0  0  3  0  0  0  0  0  0
  -30.1140  -33.0970   26.0550 C   0  0  0  0  0  1  0  0  0  0  0  0
  -29.1620  -33.5240   25.0320 N   0  0  0  0  0  0  0  0  0  0  0  0
  -28.6010  -34.2800   25.4160 H   0  0  0  0  0  0  0  0  0  0  0  0
  -28.6210  -18.3010   20.9090 C   0  0  0  0  0  3  0  0  0  0  0  0
  -30.1530  -16.3540   20.5750 C   0  0  0  0  0  0  0  0  0  0  0  0
  -29.3140  -17.2830   20.1050 N   0  0  0  0  0  0  0  0  0  0  0  0
  -30.4860  -16.2860   21.7590 O   0  0  0  0  0  0  0  0  0  0  0  0
  -29.1040  -17.2600   19.1170 H   0  0  0  0  0  0  0  0  0  0  0  0
  -32.1520  -15.6340   19.1610 C   0  0  0  0  0  1  0  0  0  0  0  0
  -30.7020  -15.3250   19.5780 C   0  0  0  0  0  3  0  0  0  0  0  0
  -31.2660  -12.8830   19.9900 C   0  0  0  0  0  0  0  0  0  0  0  0
  -31.2860  -10.4730   20.5780 C   0  0  0  0  0  2  0  0  0  0  0  0
  -30.4380   -9.6370   19.5970 C   0  0  0  0  0  2  0  0  0  0  0  0
  -28.9410   -9.6670   19.9670 C   0  0  0  0  0  2  0  0  0  0  0  0
  -28.4260  -11.1040   20.2460 C   0  0  0  0  0  3  0  0  0  0  0  0
  -29.3700  -11.8050   21.2420 C   0  0  0  0  0  2  0  0  0  0  0  0
  -30.7240  -11.8300   20.6480 N   0  0  0  0  0  0  0  0  0  0  0  0
  -32.2740  -12.7990   19.2750 O   0  0  0  0  0  0  0  0  0  0  0  0
  -30.6070  -14.0230   20.2230 N   0  0  0  0  0  0  0  0  0  0  0  0
  -29.8270  -13.9360   20.8650 H   0  0  0  0  0  0  0  0  0  0  0  0
  -26.1710  -12.1650   20.9190 C   0  0  0  0  0  0  0  0  0  0  0  0
  -24.9820  -11.6090   21.3150 C   0  0  0  0  0  0  0  0  0  0  0  0
  -25.1920  -10.1980   21.3220 C   0  0  0  0  0  0  0  0  0  0  0  0
  -27.0450  -11.1020   20.7270 N   0  0  0  0  0  0  0  0  0  0  0  0
  -26.4530   -9.9150   21.0210 N   0  0  0  0  0  0  0  0  0  0  0  0
  -24.2510   -9.0940   21.5570 C   0  0  0  0  0  0  0  0  0  0  0  0
  -24.2010   -8.4270   22.8000 C   0  0  0  0  0  3  0  0  0  0  0  0
  -23.2810   -7.3780   23.0090 C   0  0  0  0  0  3  0  0  0  0  0  0
  -22.4020   -6.9900   21.9730 C   0  0  0  0  0  0  0  0  0  0  0  0
  -22.4700   -7.6410   20.7290 C   0  0  0  0  0  3  0  0  0  0  0  0
  -23.3860   -8.6850   20.5210 C   0  0  0  0  0  3  0  0  0  0  0  0
  -21.4930   -5.9660   22.0720 O   0  0  0  0  0  0  0  0  0  0  0  0
  -20.6340   -5.8730   23.1350 C   0  0  0  0  0  0  0  0  0  0  0  0
  -19.6910   -6.8860   23.4170 C   0  0  0  0  0  3  0  0  0  0  0  0
  -18.7810   -6.7220   24.4820 C   0  0  0  0  0  3  0  0  0  0  0  0
  -18.8000   -5.5400   25.2490 C   0  0  0  0  0  0  0  0  0  0  0  0
  -19.7310   -4.5280   24.9640 C   0  0  0  0  0  3  0  0  0  0  0  0
  -20.6470   -4.6940   23.9070 C   0  0  0  0  0  0  0  0  0  0  0  0
  -21.5320   -3.7070   23.6220 F   0  0  0  0  0  0  0  0  0  0  0  0
  -17.9220   -5.3780   26.2670 F   0  0  0  0  0  0  0  0  0  0  0  0
  -23.6970  -12.3410   21.5760 C   0  0  0  0  0  0  0  0  0  0  0  0
  -22.8740  -11.8300   22.4840 N   0  0  0  0  0  0  0  0  0  0  0  0
  -23.4280  -13.3990   21.0100 O   0  0  0  0  0  0  0  0  0  0  0  0
  -22.0120  -12.3170   22.6940 H   0  0  0  0  0  0  0  0  0  0  0  0
  -23.0860  -10.9770   22.9790 H   0  0  0  0  0  0  0  0  0  0  0  0
  -26.5750  -13.4770   20.7100 N   0  0  0  0  0  0  0  0  0  0  0  0
  -25.9040  -14.2350   20.6560 H   0  0  0  0  0  0  0  0  0  0  0  0
  -27.4840  -13.7110   20.3300 H   0  0  0  0  0  0  0  0  0  0  0  0
  -27.2830  -18.6880   20.2470 C   0  0  0  0  0  2  0  0  0  0  0  0
  -26.3380  -17.6320   20.3290 O   0  0  0  0  0  0  0  0  0  0  0  0
  -25.7470  -17.7320   19.5880 H   0  0  0  0  0  0  0  0  0  0  0  0
  1  3  2  0
  2  5  1  0
  2  1  1  0
  4  2  1  0
  6  7  1  0
  6  5  1  0
  8  9  1  0
  8  7  1  0
 10 12  1  0
 10  9  1  0
 11 22  2  0
 12 17  1  0
 13 23  1  0
 13 21  1  0
 14 20  1  0
 14 16  1  0
 15 21  1  0
 16 15  1  0
 17 16  2  0
 18 19  1  0
 18 12  2  0
 19 14  2  0
 20 13  1  0
 21 11  1  0
 23 25  2  0
 24 23  1  0
 26 24  1  0
 27 32  1  0
 28 24  1  0
 29 28  1  0
 30 31  1  0
 30 29  1  0
 31 27  1  0
 32 28  1  0
 32 33  2  0
 34 33  1  0
 35 34  2  0
 36 27  2  0
 36 35  1  0
 37 11  1  0
 37 42  1  0
 37 38  1  0
 38 39  1  1
 38 41  1  0
 40 38  1  0
 42 45  1  0
 43 42  1  0
 43 47  1  0
 44 43  2  0
 47 46  1  0
 47 49  1  0
 49 50  1  0
 49 48  1  0
 51 96  1  0
 51  1  1  0
 52 54  2  0
 53 52  1  0
 53 51  1  0
 55 53  1  0
 57 56  1  0
 57 66  1  0
 57 52  1  0
 58 66  1  0
 58 64  1  0
 59 64  1  0
 60 61  1  0
 60 59  1  0
 62 61  1  0
 62 71  1  0
 62 63  1  0
 64 63  1  0
 65 58  2  0
 66 67  1  0
 68 69  2  0
 69 70  1  0
 69 88  1  0
 70 73  1  0
 71 68  1  0
 71 72  1  0
 72 70  2  0
 73 74  1  0
 74 75  2  0
 76 79  1  0
 76 75  1  0
 77 76  2  0
 78 77  1  0
 78 73  2  0
 79 80  1  0
 80 81  2  0
 80 85  1  0
 81 82  1  0
 82 83  2  0
 83 87  1  0
 84 83  1  0
 85 84  2  0
 86 85  1  0
 88 89  1  0
 89 91  1  0
 89 92  1  0
 90 88  2  0
 93 68  1  0
 94 93  1  0
 95 93  1  0
 96 97  1  0
 98 97  1  0
M  ISO  4   9 101  10 101  58 100  66 100
M  END
>  <TORSDO>  (88) 
F 26

>  <SCORE>  (88) 
-4.186

>  <name>  (88) 
89

>  <ligand_id>  (88) 
89

>  <original_smiles>  (88) 
[H]OC([H])([H])C([H])(C(=O)N([H])C([H])([H])C([H])([H])OC([H])([H])C([H])([H])Oc1c([H])c([H])c2c(c1[H])C([H])([H])N(C(=O)C([H])(N([H])C(=O)C([H])(N([H])C([H])([H])[H])C([H])([H])[H])C(C([H])([H])[H])(C([H])([H])[H])C([H])([H])[H])C([H])(C(=O)N([H])C1([H])c3c([H])c([H])c([H])c([H])c3C([H])([H])C([H])([H])C1([H])[H])C2([H])[H])N([H])C(=O)C([H])(N([H])C(=O)N1C([H])([H])C([H])([H])C([H])([H])C([H])(n2nc(-c3c([H])c([H])c(Oc4c([H])c([H])c(F)c([H])c4F)c([H])c3[H])c(C(=O)N([H])[H])c2N([H])[H])C1([H])[H])C([H])([H])[H]

>  <smiles>  (88) 
[H]OC([H])([H])C([H])(C(=O)N([H])C([H])([H])C([H])([H])OC([H])([H])C([H])([H])Oc1c([H])c([H])c2c(c1[H])C([H])([H])N(C(=O)C([H])(N([H])C(=O)C([H])(N([H])C([H])([H])[H])C([H])([H])[H])C(C([H])([H])[H])(C([H])([H])[H])C([H])([H])[H])C([H])(C(=O)N([H])C1([H])c3c([H])c([H])c([H])c([H])c3C([H])([H])C([H])([H])C1([H])[H])C2([H])[H])N([H])C(=O)C([H])(N([H])C(=O)N1C([H])([H])C([H])([H])C([H])([H])C([H])(n2nc(-c3c([H])c([H])c(Oc4c([H])c([H])c(F)c([H])c4F)c([H])c3[H])c(C(=O)N([H])[H])c2N([H])[H])C1([H])[H])C([H])([H])[H]

$$$$
90:0:0
     RDKit          3D

 99106  0  0  1  0  0  0  0  0999 V2000
  -24.9430  -23.4650   18.8650 C   0  0  0  0  0  2  0  0  0  0  0  0
  -24.2430  -22.8800   20.0290 N   0  0  0  0  0  4  0  0  0  0  0  0
  -24.5180  -21.9140   20.1160 H   0  0  0  0  0  0  0  0  0  0  0  0
  -23.2500  -22.8950   19.8470 H   0  0  0  0  0  0  0  0  0  0  0  0
  -24.4860  -23.5620   21.3260 C   0  0  0  0  0  2  0  0  0  0  0  0
  -25.9560  -23.5010   21.7980 C   0  0  0  0  0  2  0  0  0  0  0  0
  -26.6420  -24.6480   21.3180 O   0  0  0  0  0  0  0  0  0  0  0  0
  -28.0610  -24.5690   21.4310 C   0  0  0  0  0  2  0  0  0  0  0  0
  -28.6680  -25.9830   21.5040 C   0  0  0  0  0  2  0  0  0  0  0  0
  -28.4750  -26.7220   20.2970 O   0  0  0  0  0  0  0  0  0  0  0  0
  -24.7090  -31.8710   23.4430 C   0  0  0  0  0  0  0  0  0  0  0  0
  -27.3350  -27.4820   20.3060 C   0  0  0  0  0  0  0  0  0  0  0  0
  -23.5010  -30.5120   21.7630 C   0  0  0  0  0  3  0  0  0  0  0  0
  -24.9530  -28.9840   20.3240 C   0  0  0  0  0  0  0  0  0  0  0  0
  -26.0280  -30.8530   21.5940 C   0  0  0  0  0  2  0  0  0  0  0  0
  -26.1060  -29.4920   20.9370 C   0  0  0  0  0  0  0  0  0  0  0  0
  -27.3020  -28.7450   20.9340 C   0  0  0  0  0  3  0  0  0  0  0  0
  -26.1790  -26.9910   19.6740 C   0  0  0  0  0  3  0  0  0  0  0  0
  -24.9790  -27.7280   19.6920 C   0  0  0  0  0  3  0  0  0  0  0  0
  -23.7160  -29.8530   20.3730 C   0  0  0  0  0  2  0  0  0  0  0  0
  -24.7640  -31.0900   22.3280 N   0  0  0  0  0  0  0  0  0  0  0  0
  -23.6250  -32.1490   23.9750 O   0  0  0  0  0  0  0  0  0  0  0  0
  -22.8290  -29.4820   22.6990 C   0  0  0  0  0  0  0  0  0  0  0  0
  -21.5070  -29.3040   22.5390 N   0  0  0  0  0  0  0  0  0  0  0  0
  -23.4930  -28.8490   23.5240 O   0  0  0  0  0  0  0  0  0  0  0  0
  -21.0340  -29.8690   21.8490 H   0  0  0  0  0  0  0  0  0  0  0  0
  -18.1200  -28.1160   22.9360 C   0  0  0  0  0  0  0  0  0  0  0  0
  -20.6700  -28.3610   23.2780 C   0  0  0  0  0  3  0  0  0  0  0  0
  -20.7830  -26.9350   22.6890 C   0  0  0  0  0  2  0  0  0  0  0  0
  -19.7070  -26.6280   21.6440 C   0  0  0  0  0  2  0  0  0  0  0  0
  -18.3100  -26.7710   22.2530 C   0  0  0  0  0  2  0  0  0  0  0  0
  -19.2290  -28.8690   23.4030 C   0  0  0  0  0  0  0  0  0  0  0  0
  -19.0010  -30.1290   23.9980 C   0  0  0  0  0  3  0  0  0  0  0  0
  -17.6940  -30.6350   24.1320 C   0  0  0  0  0  3  0  0  0  0  0  0
  -16.5980  -29.8780   23.6830 C   0  0  0  0  0  3  0  0  0  0  0  0
  -16.8120  -28.6200   23.0910 C   0  0  0  0  0  3  0  0  0  0  0  0
  -25.9970  -32.4720   24.0880 C   0  0  0  0  0  3  0  0  0  0  0  0
  -25.7240  -33.8830   24.3930 N   0  0  0  0  0  0  0  0  0  0  0  0
  -26.1060  -34.9130   23.6280 C   0  0  0  0  0  0  0  0  0  0  0  0
  -26.7980  -34.7740   22.6150 O   0  0  0  0  0  0  0  0  0  0  0  0
  -25.1190  -34.0680   25.1790 H   0  0  0  0  0  0  0  0  0  0  0  0
  -24.4380  -36.7450   23.2030 C   0  0  0  0  0  1  0  0  0  0  0  0
  -25.6470  -36.3210   24.0520 C   0  0  0  0  0  3  0  0  0  0  0  0
  -27.7850  -37.1580   24.9200 C   0  0  0  0  0  1  0  0  0  0  0  0
  -26.7110  -37.3440   23.9480 N   0  0  0  0  0  0  0  0  0  0  0  0
  -26.3290  -38.2780   24.0710 H   0  0  0  0  0  0  0  0  0  0  0  0
  -26.4620  -31.7010   25.3840 C   0  0  1  0  0  0  0  0  0  0  0  0
  -25.3360  -31.4950   26.4240 C   0  0  0  0  0  1  0  0  0  0  0  0
  -27.0200  -30.3080   25.0130 C   0  0  0  0  0  1  0  0  0  0  0  0
  -27.6130  -32.4730   26.0720 C   0  0  0  0  0  1  0  0  0  0  0  0
  -24.7650  -22.6310   17.5790 C   0  0  0  0  0  2  0  0  0  0  0  0
  -26.0280  -22.6600   16.7080 C   0  0  0  0  0  2  0  0  0  0  0  0
  -27.0070  -21.8920   17.3960 O   0  0  0  0  0  0  0  0  0  0  0  0
  -28.3100  -22.4600   17.3880 C   0  0  0  0  0  2  0  0  0  0  0  0
  -29.2520  -21.5090   18.1350 C   0  0  0  0  0  2  0  0  0  0  0  0
  -28.7800  -21.3450   19.4720 O   0  0  0  0  0  0  0  0  0  0  0  0
  -29.4840  -20.3620   20.2250 C   0  0  0  0  0  2  0  0  0  0  0  0
  -29.1510  -18.9180   19.7880 C   0  0  0  0  0  2  0  0  0  0  0  0
  -29.4000  -17.9520   20.8080 O   0  0  0  0  0  0  0  0  0  0  0  0
  -30.7790  -17.7280   21.0750 C   0  0  0  0  0  2  0  0  0  0  0  0
  -30.9330  -16.5860   22.0980 C   0  0  0  0  0  2  0  0  0  0  0  0
  -30.8780  -14.5270   20.7010 C   0  0  0  0  0  0  0  0  0  0  0  0
  -30.4940  -12.5650   19.2630 C   0  0  0  0  0  2  0  0  0  0  0  0
  -29.5620  -12.9320   18.0930 C   0  0  0  0  0  2  0  0  0  0  0  0
  -28.0820  -12.8080   18.5050 C   0  0  0  0  0  2  0  0  0  0  0  0
  -27.7720  -13.5070   19.8560 C   0  0  0  0  0  3  0  0  0  0  0  0
  -28.8080  -13.1030   20.9270 C   0  0  0  0  0  2  0  0  0  0  0  0
  -30.1500  -13.4210   20.4070 N   0  0  0  0  0  0  0  0  0  0  0  0
  -31.9430  -14.8090   20.1470 O   0  0  0  0  0  0  0  0  0  0  0  0
  -30.3480  -15.3280   21.6310 N   0  0  0  0  0  0  0  0  0  0  0  0
  -29.4690  -15.0450   22.0360 H   0  0  0  0  0  0  0  0  0  0  0  0
  -25.3520  -14.1120   20.4940 C   0  0  0  0  0  0  0  0  0  0  0  0
  -24.2750  -13.3370   20.8360 C   0  0  0  0  0  0  0  0  0  0  0  0
  -24.7410  -11.9870   20.8180 C   0  0  0  0  0  0  0  0  0  0  0  0
  -26.4060  -13.2340   20.2950 N   0  0  0  0  0  0  0  0  0  0  0  0
  -26.0370  -11.9500   20.5410 N   0  0  0  0  0  0  0  0  0  0  0  0
  -24.0130  -10.7230   20.9920 C   0  0  0  0  0  0  0  0  0  0  0  0
  -24.4220   -9.7630   21.9450 C   0  0  0  0  0  3  0  0  0  0  0  0
  -23.6980   -8.5620   22.1070 C   0  0  0  0  0  3  0  0  0  0  0  0
  -22.5520   -8.3120   21.3150 C   0  0  0  0  0  0  0  0  0  0  0  0
  -22.1640   -9.2600   20.3510 C   0  0  0  0  0  3  0  0  0  0  0  0
  -22.8880  -10.4520   20.1880 C   0  0  0  0  0  3  0  0  0  0  0  0
  -21.8030   -7.1630   21.3850 O   0  0  0  0  0  0  0  0  0  0  0  0
  -21.7070   -6.4340   22.5430 C   0  0  0  0  0  0  0  0  0  0  0  0
  -21.2190   -7.0000   23.7400 C   0  0  0  0  0  3  0  0  0  0  0  0
  -21.0700   -6.1980   24.8900 C   0  0  0  0  0  3  0  0  0  0  0  0
  -21.3990   -4.8300   24.8410 C   0  0  0  0  0  0  0  0  0  0  0  0
  -21.8810   -4.2640   23.6480 C   0  0  0  0  0  3  0  0  0  0  0  0
  -22.0310   -5.0630   22.5010 C   0  0  0  0  0  0  0  0  0  0  0  0
  -22.4750   -4.5070   21.3480 F   0  0  0  0  0  0  0  0  0  0  0  0
  -21.2490   -4.0580   25.9420 F   0  0  0  0  0  0  0  0  0  0  0  0
  -22.8700  -13.8090   21.0740 C   0  0  0  0  0  0  0  0  0  0  0  0
  -22.1250  -13.1170   21.9290 N   0  0  0  0  0  0  0  0  0  0  0  0
  -22.4390  -14.8280   20.5360 O   0  0  0  0  0  0  0  0  0  0  0  0
  -22.4870  -12.2940   22.3890 H   0  0  0  0  0  0  0  0  0  0  0  0
  -21.1800  -13.4120   22.1260 H   0  0  0  0  0  0  0  0  0  0  0  0
  -25.5190  -15.4830   20.3200 N   0  0  0  0  0  0  0  0  0  0  0  0
  -24.7550  -16.1420   20.4260 H   0  0  0  0  0  0  0  0  0  0  0  0
  -26.3860  -15.9210   20.0330 H   0  0  0  0  0  0  0  0  0  0  0  0
  1  2  1  0
  2  3  1  0
  2  5  1  0
  4  2  1  0
  5  6  1  0
  7  8  1  0
  7  6  1  0
  8  9  1  0
 10 12  1  0
 10  9  1  0
 11 22  2  0
 12 17  1  0
 13 21  1  0
 13 23  1  0
 14 20  1  0
 14 16  1  0
 15 21  1  0
 16 15  1  0
 17 16  2  0
 18 19  1  0
 18 12  2  0
 19 14  2  0
 20 13  1  0
 21 11  1  0
 23 25  2  0
 24 23  1  0
 26 24  1  0
 27 36  2  0
 27 32  1  0
 28 24  1  0
 28 32  1  0
 29 28  1  0
 30 31  1  0
 30 29  1  0
 31 27  1  0
 32 33  2  0
 33 34  1  0
 35 34  2  0
 36 35  1  0
 37 11  1  0
 37 38  1  0
 37 47  1  0
 38 41  1  0
 39 43  1  0
 39 38  1  0
 40 39  2  0
 43 42  1  0
 45 43  1  0
 45 46  1  0
 45 44  1  0
 47 50  1  1
 47 48  1  0
 49 47  1  0
 51  1  1  0
 52 53  1  0
 52 51  1  0
 54 53  1  0
 54 55  1  0
 55 56  1  0
 56 57  1  0
 58 57  1  0
 58 59  1  0
 59 60  1  0
 60 61  1  0
 62 70  1  0
 63 68  1  0
 64 65  1  0
 64 63  1  0
 66 65  1  0
 66 75  1  0
 66 67  1  0
 68 62  1  0
 68 67  1  0
 69 62  2  0
 70 71  1  0
 70 61  1  0
 72 73  2  0
 73 92  1  0
 74 73  1  0
 74 77  1  0
 75 72  1  0
 75 76  1  0
 76 74  2  0
 77 78  1  0
 78 79  2  0
 80 83  1  0
 80 79  1  0
 81 80  2  0
 82 81  1  0
 82 77  2  0
 83 84  1  0
 84 85  1  0
 85 86  2  0
 87 86  1  0
 87 91  1  0
 88 87  2  0
 89 84  2  0
 89 88  1  0
 90 89  1  0
 92 93  1  0
 93 96  1  0
 93 95  1  0
 94 92  2  0
 97 98  1  0
 97 72  1  0
 99 97  1  0
M  ISO  4   9 101  10 101  62 100  70 100
M  END
>  <TORSDO>  (89) 
F 33

>  <SCORE>  (89) 
-9.775

>  <name>  (89) 
90

>  <ligand_id>  (89) 
90

>  <original_smiles>  (89) 
[H]c1c([H])c([H])c2c(c1[H])C([H])([H])C([H])([H])C([H])([H])C2([H])N([H])C(=O)C1([H])N(C(=O)C([H])(N([H])C(=O)C([H])(N([H])C([H])([H])[H])C([H])([H])[H])C(C([H])([H])[H])(C([H])([H])[H])C([H])([H])[H])C([H])([H])c2c([H])c(OC([H])([H])C([H])([H])OC([H])([H])C([H])([H])[N+]([H])([H])C([H])([H])C([H])([H])C([H])([H])OC([H])([H])C([H])([H])OC([H])([H])C([H])([H])OC([H])([H])C([H])([H])N([H])C(=O)N3C([H])([H])C([H])([H])C([H])([H])C([H])(n4nc(-c5c([H])c([H])c(Oc6c([H])c([H])c(F)c([H])c6F)c([H])c5[H])c(C(=O)N([H])[H])c4N([H])[H])C3([H])[H])c([H])c([H])c2C1([H])[H]

>  <smiles>  (89) 
[H]c1c([H])c([H])c2c(c1[H])C([H])([H])C([H])([H])C([H])([H])C2([H])N([H])C(=O)C1([H])N(C(=O)C([H])(N([H])C(=O)C([H])(N([H])C([H])([H])[H])C([H])([H])[H])C(C([H])([H])[H])(C([H])([H])[H])C([H])([H])[H])C([H])([H])c2c([H])c(OC([H])([H])C([H])([H])OC([H])([H])C([H])([H])[N+]([H])([H])C([H])([H])C([H])([H])C([H])([H])OC([H])([H])C([H])([H])OC([H])([H])C([H])([H])OC([H])([H])C([H])([H])N([H])C(=O)N3C([H])([H])C([H])([H])C([H])([H])C([H])(n4nc(-c5c([H])c([H])c(Oc6c([H])c([H])c(F)c([H])c6F)c([H])c5[H])c(C(=O)N([H])[H])c4N([H])[H])C3([H])[H])c([H])c([H])c2C1([H])[H]

$$$$
91:0:0
     RDKit          3D

 95102  0  0  1  0  0  0  0  0999 V2000
  -26.1460  -21.8820   20.4950 N   0  0  0  0  0  4  0  0  0  0  0  0
  -25.6530  -22.6200   20.9750 H   0  0  0  0  0  0  0  0  0  0  0  0
  -26.6020  -21.3330   21.2080 H   0  0  0  0  0  0  0  0  0  0  0  0
  -25.1760  -21.0140   19.7860 C   0  0  0  0  0  2  0  0  0  0  0  0
  -25.8010  -19.6400   19.4640 C   0  0  0  0  0  2  0  0  0  0  0  0
  -27.0120  -19.8530   18.7310 O   0  0  0  0  0  0  0  0  0  0  0  0
  -27.9410  -18.7760   18.8080 C   0  0  0  0  0  2  0  0  0  0  0  0
  -29.1980  -19.0580   17.9720 C   0  0  0  0  0  2  0  0  0  0  0  0
  -30.2090  -18.1900   18.4560 O   0  0  0  0  0  0  0  0  0  0  0  0
  -31.5220  -18.5100   18.0180 C   0  0  0  0  0  2  0  0  0  0  0  0
  -32.4760  -18.0580   19.1310 C   0  0  0  0  0  2  0  0  0  0  0  0
  -32.5370  -15.5890   19.0100 C   0  0  0  0  0  0  0  0  0  0  0  0
  -32.3550  -13.1360   19.0090 C   0  0  0  0  0  2  0  0  0  0  0  0
  -31.4060  -12.6050   17.9200 C   0  0  0  0  0  2  0  0  0  0  0  0
  -29.9400  -12.6200   18.3930 C   0  0  0  0  0  2  0  0  0  0  0  0
  -29.5270  -13.9670   19.0450 C   0  0  0  0  0  3  0  0  0  0  0  0
  -30.5800  -14.4090   20.0840 C   0  0  0  0  0  2  0  0  0  0  0  0
  -31.8990  -14.4650   19.4250 N   0  0  0  0  0  0  0  0  0  0  0  0
  -33.4930  -15.5890   18.2280 O   0  0  0  0  0  0  0  0  0  0  0  0
  -32.0890  -16.7180   19.5550 N   0  0  0  0  0  0  0  0  0  0  0  0
  -31.2860  -16.6510   20.1610 H   0  0  0  0  0  0  0  0  0  0  0  0
  -27.3380  -14.9040   20.0380 C   0  0  0  0  0  0  0  0  0  0  0  0
  -26.1860  -14.2890   20.4570 C   0  0  0  0  0  0  0  0  0  0  0  0
  -26.3950  -12.8890   20.2680 C   0  0  0  0  0  0  0  0  0  0  0  0
  -28.1870  -13.8850   19.6330 N   0  0  0  0  0  0  0  0  0  0  0  0
  -27.6250  -12.6630   19.8220 N   0  0  0  0  0  0  0  0  0  0  0  0
  -25.4780  -11.7530   20.4320 C   0  0  0  0  0  0  0  0  0  0  0  0
  -25.7350  -10.7150   21.3570 C   0  0  0  0  0  3  0  0  0  0  0  0
  -24.8240   -9.6460   21.5050 C   0  0  0  0  0  3  0  0  0  0  0  0
  -23.6430   -9.6060   20.7290 C   0  0  0  0  0  0  0  0  0  0  0  0
  -23.4060  -10.6280   19.7900 C   0  0  0  0  0  3  0  0  0  0  0  0
  -24.3150  -11.6870   19.6400 C   0  0  0  0  0  3  0  0  0  0  0  0
  -22.7140   -8.5940   20.7920 O   0  0  0  0  0  0  0  0  0  0  0  0
  -22.4100   -7.9670   21.9740 C   0  0  0  0  0  0  0  0  0  0  0  0
  -21.9000   -8.6760   23.0830 C   0  0  0  0  0  3  0  0  0  0  0  0
  -21.5340   -7.9820   24.2560 C   0  0  0  0  0  3  0  0  0  0  0  0
  -21.6670   -6.5830   24.3170 C   0  0  0  0  0  0  0  0  0  0  0  0
  -22.1660   -5.8730   23.2120 C   0  0  0  0  0  3  0  0  0  0  0  0
  -22.5330   -6.5630   22.0410 C   0  0  0  0  0  0  0  0  0  0  0  0
  -22.9950   -5.8720   20.9730 F   0  0  0  0  0  0  0  0  0  0  0  0
  -21.3070   -5.9170   25.4410 F   0  0  0  0  0  0  0  0  0  0  0  0
  -24.9240  -14.9690   20.9090 C   0  0  0  0  0  0  0  0  0  0  0  0
  -24.1590  -14.3260   21.7840 N   0  0  0  0  0  0  0  0  0  0  0  0
  -24.6330  -16.1010   20.5240 O   0  0  0  0  0  0  0  0  0  0  0  0
  -24.4040  -13.4080   22.1230 H   0  0  0  0  0  0  0  0  0  0  0  0
  -23.3120  -14.7610   22.1210 H   0  0  0  0  0  0  0  0  0  0  0  0
  -27.7260  -16.2380   19.9490 N   0  0  0  0  0  0  0  0  0  0  0  0
  -27.1050  -17.0070   20.1750 H   0  0  0  0  0  0  0  0  0  0  0  0
  -28.6080  -16.5380   19.5500 H   0  0  0  0  0  0  0  0  0  0  0  0
  -27.1920  -22.4900   19.6360 C   0  0  0  0  0  2  0  0  0  0  0  0
  -28.5470  -22.4840   20.3630 C   0  0  0  0  0  2  0  0  0  0  0  0
  -28.6940  -23.5910   21.2520 O   0  0  0  0  0  0  0  0  0  0  0  0
  -28.4440  -24.8600   20.6630 C   0  0  0  0  0  2  0  0  0  0  0  0
  -29.3400  -25.9360   21.3120 C   0  0  0  0  0  2  0  0  0  0  0  0
  -29.3150  -27.2030   20.6370 O   0  0  0  0  0  0  0  0  0  0  0  0
  -24.8880  -31.9600   23.5110 C   0  0  0  0  0  0  0  0  0  0  0  0
  -28.0870  -27.8150   20.5940 C   0  0  0  0  0  0  0  0  0  0  0  0
  -23.9040  -30.4400   21.8250 C   0  0  0  0  0  3  0  0  0  0  0  0
  -25.5640  -29.0660   20.4750 C   0  0  0  0  0  0  0  0  0  0  0  0
  -26.3780  -31.0620   21.7320 C   0  0  0  0  0  2  0  0  0  0  0  0
  -26.6310  -29.7070   21.1140 C   0  0  0  0  0  0  0  0  0  0  0  0
  -27.8980  -29.0850   21.1810 C   0  0  0  0  0  3  0  0  0  0  0  0
  -27.0090  -27.1990   19.9260 C   0  0  0  0  0  3  0  0  0  0  0  0
  -25.7440  -27.8050   19.8830 C   0  0  0  0  0  3  0  0  0  0  0  0
  -24.2400  -29.7920   20.4550 C   0  0  0  0  0  2  0  0  0  0  0  0
  -25.0690  -31.1740   22.4140 N   0  0  0  0  0  0  0  0  0  0  0  0
  -23.7650  -32.1150   24.0070 O   0  0  0  0  0  0  0  0  0  0  0  0
  -23.3260  -29.3550   22.7610 C   0  0  0  0  0  0  0  0  0  0  0  0
  -22.0790  -28.9330   22.4860 N   0  0  0  0  0  0  0  0  0  0  0  0
  -23.9960  -28.8990   23.6900 O   0  0  0  0  0  0  0  0  0  0  0  0
  -21.5940  -29.3650   21.7110 H   0  0  0  0  0  0  0  0  0  0  0  0
  -18.9480  -27.1450   22.5930 C   0  0  0  0  0  0  0  0  0  0  0  0
  -21.3440  -27.8970   23.2120 C   0  0  0  0  0  3  0  0  0  0  0  0
  -21.7880  -26.4850   22.7710 C   0  0  0  0  0  2  0  0  0  0  0  0
  -20.9460  -25.9280   21.6200 C   0  0  0  0  0  2  0  0  0  0  0  0
  -19.4720  -25.8350   22.0260 C   0  0  0  0  0  2  0  0  0  0  0  0
  -19.8280  -28.1250   23.1280 C   0  0  0  0  0  0  0  0  0  0  0  0
  -19.2960  -29.3470   23.5930 C   0  0  0  0  0  3  0  0  0  0  0  0
  -17.9100  -29.5940   23.5380 C   0  0  0  0  0  3  0  0  0  0  0  0
  -17.0420  -28.6120   23.0250 C   0  0  0  0  0  3  0  0  0  0  0  0
  -17.5610  -27.3920   22.5560 C   0  0  0  0  0  3  0  0  0  0  0  0
  -26.0780  -32.7220   24.1790 C   0  0  0  0  0  3  0  0  0  0  0  0
  -26.5300  -32.0880   25.5520 C   0  0  1  0  0  0  0  0  0  0  0  0
  -25.3590  -31.8070   26.5190 C   0  0  0  0  0  1  0  0  0  0  0  0
  -27.2830  -30.7560   25.3220 C   0  0  0  0  0  1  0  0  0  0  0  0
  -27.5230  -33.0370   26.2620 C   0  0  0  0  0  1  0  0  0  0  0  0
  -25.6640  -34.1200   24.3600 N   0  0  0  0  0  0  0  0  0  0  0  0
  -25.9760  -35.1190   23.5230 C   0  0  0  0  0  0  0  0  0  0  0  0
  -26.7150  -34.9710   22.5470 O   0  0  0  0  0  0  0  0  0  0  0  0
  -25.0150  -34.3040   25.1110 H   0  0  0  0  0  0  0  0  0  0  0  0
  -24.1480  -36.7360   22.9090 C   0  0  0  0  0  1  0  0  0  0  0  0
  -25.3710  -36.5070   23.8140 C   0  0  0  0  0  3  0  0  0  0  0  0
  -27.4000  -37.6160   24.6410 C   0  0  0  0  0  1  0  0  0  0  0  0
  -26.3330  -37.6180   23.6430 N   0  0  0  0  0  0  0  0  0  0  0  0
  -25.8580  -38.5160   23.6870 H   0  0  0  0  0  0  0  0  0  0  0  0
  1  2  1  0
  1  3  1  0
  4  1  1  0
  5  4  1  0
  6  7  1  0
  6  5  1  0
  8  9  1  0
  8  7  1  0
 10  9  1  0
 10 11  1  0
 11 20  1  0
 12 18  1  0
 12 20  1  0
 13 18  1  0
 14 15  1  0
 14 13  1  0
 16 15  1  0
 16 25  1  0
 16 17  1  0
 18 17  1  0
 19 12  2  0
 20 21  1  0
 22 23  2  0
 23 42  1  0
 24 27  1  0
 24 23  1  0
 25 26  1  0
 25 22  1  0
 26 24  2  0
 27 28  1  0
 28 29  2  0
 30 33  1  0
 30 29  1  0
 31 30  2  0
 32 31  1  0
 32 27  2  0
 33 34  1  0
 34 39  2  0
 34 35  1  0
 35 36  2  0
 36 37  1  0
 37 41  1  0
 38 37  2  0
 39 38  1  0
 40 39  1  0
 42 43  1  0
 43 46  1  0
 43 45  1  0
 44 42  2  0
 47 22  1  0
 47 48  1  0
 49 47  1  0
 50 51  1  0
 50  1  1  0
 51 52  1  0
 53 52  1  0
 53 54  1  0
 55 54  1  0
 56 67  2  0
 57 55  1  0
 57 62  1  0
 58 66  1  0
 58 68  1  0
 59 61  1  0
 60 66  1  0
 61 62  2  0
 61 60  1  0
 63 57  2  0
 64 63  1  0
 64 59  2  0
 65 59  1  0
 65 58  1  0
 66 56  1  0
 68 70  2  0
 69 68  1  0
 71 69  1  0
 72 77  1  0
 73 69  1  0
 74 73  1  0
 75 76  1  0
 75 74  1  0
 76 72  1  0
 77 73  1  0
 77 78  2  0
 79 78  1  0
 80 79  2  0
 81 72  2  0
 81 80  1  0
 82 56  1  0
 82 87  1  0
 82 83  1  0
 83 86  1  1
 83 84  1  0
 85 83  1  0
 87 90  1  0
 88 92  1  0
 88 87  1  0
 89 88  2  0
 92 91  1  0
 94 95  1  0
 94 92  1  0
 94 93  1  0
M  ISO  4  12 100  20 100  54 101  55 101
M  END
>  <TORSDO>  (90) 
F 29

>  <SCORE>  (90) 
-5.245

>  <name>  (90) 
91

>  <ligand_id>  (90) 
91

>  <original_smiles>  (90) 
[H]c1c([H])c([H])c2c(c1[H])C([H])([H])C([H])([H])C([H])([H])C2([H])N([H])C(=O)C1([H])N(C(=O)C([H])(N([H])C(=O)C([H])(N([H])C([H])([H])[H])C([H])([H])[H])C(C([H])([H])[H])(C([H])([H])[H])C([H])([H])[H])C([H])([H])c2c([H])c(OC([H])([H])C([H])([H])OC([H])([H])C([H])([H])[N+]([H])([H])C([H])([H])C([H])([H])OC([H])([H])C([H])([H])OC([H])([H])C([H])([H])N([H])C(=O)N3C([H])([H])C([H])([H])C([H])([H])C([H])(n4nc(-c5c([H])c([H])c(Oc6c([H])c([H])c(F)c([H])c6F)c([H])c5[H])c(C(=O)N([H])[H])c4N([H])[H])C3([H])[H])c([H])c([H])c2C1([H])[H]

>  <smiles>  (90) 
[H]c1c([H])c([H])c2c(c1[H])C([H])([H])C([H])([H])C([H])([H])C2([H])N([H])C(=O)C1([H])N(C(=O)C([H])(N([H])C(=O)C([H])(N([H])C([H])([H])[H])C([H])([H])[H])C(C([H])([H])[H])(C([H])([H])[H])C([H])([H])[H])C([H])([H])c2c([H])c(OC([H])([H])C([H])([H])OC([H])([H])C([H])([H])[N+]([H])([H])C([H])([H])C([H])([H])OC([H])([H])C([H])([H])OC([H])([H])C([H])([H])N([H])C(=O)N3C([H])([H])C([H])([H])C([H])([H])C([H])(n4nc(-c5c([H])c([H])c(Oc6c([H])c([H])c(F)c([H])c6F)c([H])c5[H])c(C(=O)N([H])[H])c4N([H])[H])C3([H])[H])c([H])c([H])c2C1([H])[H]

$$$$
92:0:0
     RDKit          3D

 95102  0  0  1  0  0  0  0  0999 V2000
  -29.3610  -22.2080   20.3610 C   0  0  0  0  0  0  0  0  0  0  0  0
  -29.4190  -20.8870   20.0450 N   0  0  0  0  0  0  0  0  0  0  0  0
  -29.9180  -22.6780   21.3530 O   0  0  0  0  0  0  0  0  0  0  0  0
  -28.9170  -20.6270   19.2080 H   0  0  0  0  0  0  0  0  0  0  0  0
  -28.6210  -22.9970   19.3680 C   0  0  0  0  0  3  0  0  0  0  0  0
  -28.1920  -24.2870   19.4890 C   0  0  0  0  0  3  0  0  0  0  0  0
  -28.2950  -25.2840   20.6530 C   0  0  0  0  0  2  0  0  0  0  0  0
  -28.3770  -26.6760   20.2420 O   0  0  0  0  0  0  0  0  0  0  0  0
  -24.5370  -31.9290   23.2130 C   0  0  0  0  0  0  0  0  0  0  0  0
  -27.2090  -27.4230   20.2240 C   0  0  0  0  0  0  0  0  0  0  0  0
  -23.3450  -30.5050   21.5800 C   0  0  0  0  0  3  0  0  0  0  0  0
  -24.8130  -28.9450   20.1880 C   0  0  0  0  0  0  0  0  0  0  0  0
  -25.8740  -30.8600   21.3940 C   0  0  0  0  0  2  0  0  0  0  0  0
  -25.9680  -29.4780   20.7740 C   0  0  0  0  0  0  0  0  0  0  0  0
  -27.1700  -28.7270   20.7790 C   0  0  0  0  0  3  0  0  0  0  0  0
  -26.0360  -26.9110   19.6320 C   0  0  0  0  0  3  0  0  0  0  0  0
  -24.8440  -27.6630   19.6100 C   0  0  0  0  0  3  0  0  0  0  0  0
  -23.5670  -29.8020   20.2130 C   0  0  0  0  0  2  0  0  0  0  0  0
  -24.6040  -31.1150   22.1200 N   0  0  0  0  0  0  0  0  0  0  0  0
  -23.4520  -32.2060   23.7430 O   0  0  0  0  0  0  0  0  0  0  0  0
  -22.6850  -29.4990   22.5510 C   0  0  0  0  0  0  0  0  0  0  0  0
  -21.3690  -29.2830   22.3900 N   0  0  0  0  0  0  0  0  0  0  0  0
  -23.3580  -28.9110   23.4010 O   0  0  0  0  0  0  0  0  0  0  0  0
  -20.8840  -29.8120   21.6800 H   0  0  0  0  0  0  0  0  0  0  0  0
  -18.0220  -27.9800   22.7930 C   0  0  0  0  0  0  0  0  0  0  0  0
  -20.5530  -28.3450   23.1620 C   0  0  0  0  0  3  0  0  0  0  0  0
  -20.7330  -26.8960   22.6500 C   0  0  0  0  0  2  0  0  0  0  0  0
  -19.6890  -26.4930   21.6030 C   0  0  0  0  0  2  0  0  0  0  0  0
  -18.2750  -26.6130   22.1800 C   0  0  0  0  0  2  0  0  0  0  0  0
  -19.0920  -28.8000   23.2400 C   0  0  0  0  0  0  0  0  0  0  0  0
  -18.8020  -30.0750   23.7680 C   0  0  0  0  0  3  0  0  0  0  0  0
  -17.4750  -30.5350   23.8550 C   0  0  0  0  0  3  0  0  0  0  0  0
  -16.4180  -29.7150   23.4230 C   0  0  0  0  0  3  0  0  0  0  0  0
  -16.6920  -28.4380   22.8990 C   0  0  0  0  0  3  0  0  0  0  0  0
  -25.8200  -32.5690   23.8330 C   0  0  0  0  0  3  0  0  0  0  0  0
  -25.5030  -33.9650   24.1650 N   0  0  0  0  0  0  0  0  0  0  0  0
  -25.8220  -35.0190   23.4020 C   0  0  0  0  0  0  0  0  0  0  0  0
  -26.4880  -34.9190   22.3660 O   0  0  0  0  0  0  0  0  0  0  0  0
  -24.9170  -34.1160   24.9730 H   0  0  0  0  0  0  0  0  0  0  0  0
  -24.0830  -36.7990   23.0460 C   0  0  0  0  0  1  0  0  0  0  0  0
  -25.3270  -36.4040   23.8600 C   0  0  0  0  0  3  0  0  0  0  0  0
  -27.4470  -37.3090   24.7030 C   0  0  0  0  0  1  0  0  0  0  0  0
  -26.3520  -37.4630   23.7480 N   0  0  0  0  0  0  0  0  0  0  0  0
  -25.9380  -38.3810   23.8880 H   0  0  0  0  0  0  0  0  0  0  0  0
  -26.3450  -31.8010   25.1080 C   0  0  1  0  0  0  0  0  0  0  0  0
  -25.2520  -31.5380   26.1680 C   0  0  0  0  0  1  0  0  0  0  0  0
  -26.9540  -30.4360   24.7100 C   0  0  0  0  0  1  0  0  0  0  0  0
  -27.4790  -32.6110   25.7780 C   0  0  0  0  0  1  0  0  0  0  0  0
  -30.3010  -19.8940   22.1960 C   0  0  0  0  0  1  0  0  0  0  0  0
  -30.2310  -19.7910   20.6550 C   0  0  0  0  0  3  0  0  0  0  0  0
  -29.7740  -18.3510   20.1700 C   0  0  0  0  0  3  0  0  0  0  0  0
  -31.0110  -14.6720   20.2710 C   0  0  0  0  0  0  0  0  0  0  0  0
  -30.6740  -12.4710   19.2080 C   0  0  0  0  0  2  0  0  0  0  0  0
  -29.7080  -12.6190   18.0120 C   0  0  0  0  0  2  0  0  0  0  0  0
  -28.2450  -12.4850   18.4810 C   0  0  0  0  0  2  0  0  0  0  0  0
  -27.9240  -13.3670   19.7170 C   0  0  0  0  0  3  0  0  0  0  0  0
  -29.0090  -13.2270   20.8110 C   0  0  0  0  0  2  0  0  0  0  0  0
  -30.3090  -13.5070   20.1870 N   0  0  0  0  0  0  0  0  0  0  0  0
  -32.2010  -14.7560   19.9440 O   0  0  0  0  0  0  0  0  0  0  0  0
  -30.7670  -17.1970   20.3960 C   0  0  0  0  0  0  0  0  0  0  0  0
  -30.2660  -15.9170   20.4280 N   0  0  0  0  0  0  0  0  0  0  0  0
  -32.0870  -17.4730   20.4920 N   0  0  0  0  0  4  0  0  0  0  0  0
  -29.2610  -15.9310   20.5230 H   0  0  0  0  0  0  0  0  0  0  0  0
  -32.4550  -18.4130   20.4410 H   0  0  0  0  0  0  0  0  0  0  0  0
  -32.7590  -16.7120   20.4980 H   0  0  0  0  0  0  0  0  0  0  0  0
  -25.5630  -13.9900   20.5190 C   0  0  0  0  0  0  0  0  0  0  0  0
  -24.4930  -13.2260   20.8990 C   0  0  0  0  0  0  0  0  0  0  0  0
  -24.9290  -11.8690   20.8230 C   0  0  0  0  0  0  0  0  0  0  0  0
  -26.5860  -13.0990   20.2370 N   0  0  0  0  0  0  0  0  0  0  0  0
  -26.2110  -11.8160   20.4810 N   0  0  0  0  0  0  0  0  0  0  0  0
  -24.1850  -10.6140   21.0000 C   0  0  0  0  0  0  0  0  0  0  0  0
  -24.5910   -9.6430   21.9430 C   0  0  0  0  0  3  0  0  0  0  0  0
  -23.8480   -8.4530   22.1070 C   0  0  0  0  0  3  0  0  0  0  0  0
  -22.6880   -8.2290   21.3290 C   0  0  0  0  0  0  0  0  0  0  0  0
  -22.3010   -9.1900   20.3780 C   0  0  0  0  0  3  0  0  0  0  0  0
  -23.0440  -10.3700   20.2110 C   0  0  0  0  0  3  0  0  0  0  0  0
  -21.9180   -7.0920   21.4030 O   0  0  0  0  0  0  0  0  0  0  0  0
  -21.7980   -6.3800   22.5700 C   0  0  0  0  0  0  0  0  0  0  0  0
  -21.2680   -6.9560   23.7440 C   0  0  0  0  0  3  0  0  0  0  0  0
  -21.0970   -6.1690   24.9010 C   0  0  0  0  0  3  0  0  0  0  0  0
  -21.4470   -4.8060   24.8830 C   0  0  0  0  0  0  0  0  0  0  0  0
  -21.9710   -4.2280   23.7130 C   0  0  0  0  0  3  0  0  0  0  0  0
  -22.1430   -5.0140   22.5580 C   0  0  0  0  0  0  0  0  0  0  0  0
  -22.6290   -4.4460   21.4280 F   0  0  0  0  0  0  0  0  0  0  0  0
  -21.2760   -4.0470   25.9900 F   0  0  0  0  0  0  0  0  0  0  0  0
  -23.1110  -13.7210   21.2170 C   0  0  0  0  0  0  0  0  0  0  0  0
  -22.3930  -13.0200   22.0860 N   0  0  0  0  0  0  0  0  0  0  0  0
  -22.6800  -14.7660   20.7310 O   0  0  0  0  0  0  0  0  0  0  0  0
  -22.7530  -12.1760   22.5060 H   0  0  0  0  0  0  0  0  0  0  0  0
  -21.4670  -13.3360   22.3370 H   0  0  0  0  0  0  0  0  0  0  0  0
  -25.7410  -15.3640   20.3740 N   0  0  0  0  0  0  0  0  0  0  0  0
  -24.9710  -16.0080   20.5290 H   0  0  0  0  0  0  0  0  0  0  0  0
  -26.5720  -15.8300   20.0330 H   0  0  0  0  0  0  0  0  0  0  0  0
  -28.5260  -18.0540   20.7670 O   0  0  0  0  0  0  0  0  0  0  0  0
  -28.2730  -18.8390   21.2420 H   0  0  0  0  0  0  0  0  0  0  0  0
  1  3  2  0
  2  1  1  0
  2 50  1  0
  4  2  1  0
  5  6  2  0
  5  1  1  0
  6  7  1  0
  8  7  1  0
  9 20  2  0
 10  8  1  0
 10 15  1  0
 11 19  1  0
 11 21  1  0
 12 18  1  0
 12 14  1  0
 13 19  1  0
 14 15  2  0
 14 13  1  0
 16 10  2  0
 17 16  1  0
 17 12  2  0
 18 11  1  0
 19  9  1  0
 21 23  2  0
 22 21  1  0
 24 22  1  0
 25 34  2  0
 25 30  1  0
 26 22  1  0
 26 30  1  0
 27 26  1  0
 28 29  1  0
 28 27  1  0
 29 25  1  0
 30 31  2  0
 31 32  1  0
 33 32  2  0
 34 33  1  0
 35  9  1  0
 35 36  1  0
 35 45  1  0
 36 39  1  0
 37 41  1  0
 37 36  1  0
 38 37  2  0
 41 40  1  0
 43 41  1  0
 43 44  1  0
 43 42  1  0
 45 48  1  1
 45 46  1  0
 47 45  1  0
 50 49  1  0
 51 60  1  0
 51 50  1  0
 51 94  1  0
 52 61  1  0
 53 58  1  0
 54 55  1  0
 54 53  1  0
 56 55  1  0
 56 69  1  0
 56 57  1  0
 58 52  1  0
 58 57  1  0
 59 52  2  0
 60 61  1  0
 60 62  2  0
 61 63  1  0
 62 65  1  0
 64 62  1  0
 66 67  2  0
 67 86  1  0
 68 67  1  0
 68 71  1  0
 69 70  1  0
 69 66  1  0
 70 68  2  0
 71 72  1  0
 72 73  2  0
 74 77  1  0
 74 73  1  0
 75 74  2  0
 76 75  1  0
 76 71  2  0
 77 78  1  0
 78 79  1  0
 79 80  2  0
 81 80  1  0
 81 85  1  0
 82 81  2  0
 83 78  2  0
 83 82  1  0
 84 83  1  0
 86 87  1  0
 87 90  1  0
 87 89  1  0
 88 86  2  0
 91 66  1  0
 91 92  1  0
 93 91  1  0
 94 95  1  0
M  ISO  4   7 101   8 101  52 100  61 100
M  END
>  <TORSDO>  (91) 
F 21

>  <SCORE>  (91) 
-13.472

>  <name>  (91) 
92

>  <ligand_id>  (91) 
92

>  <original_smiles>  (91) 
[H]OC([H])(C(N([H])C(=O)N1C([H])([H])C([H])([H])C([H])([H])C([H])(n2nc(-c3c([H])c([H])c(Oc4c([H])c([H])c(F)c([H])c4F)c([H])c3[H])c(C(=O)N([H])[H])c2N([H])[H])C1([H])[H])=[N+]([H])[H])C([H])(N([H])C(=O)C([H])=C([H])C([H])([H])Oc1c([H])c([H])c2c(c1[H])C([H])([H])N(C(=O)C([H])(N([H])C(=O)C([H])(N([H])C([H])([H])[H])C([H])([H])[H])C(C([H])([H])[H])(C([H])([H])[H])C([H])([H])[H])C([H])(C(=O)N([H])C1([H])c3c([H])c([H])c([H])c([H])c3C([H])([H])C([H])([H])C1([H])[H])C2([H])[H])C([H])([H])[H]

>  <smiles>  (91) 
[H]OC([H])(C(N([H])C(=O)N1C([H])([H])C([H])([H])C([H])([H])C([H])(n2nc(-c3c([H])c([H])c(Oc4c([H])c([H])c(F)c([H])c4F)c([H])c3[H])c(C(=O)N([H])[H])c2N([H])[H])C1([H])[H])=[N+]([H])[H])C([H])(N([H])C(=O)C([H])=C([H])C([H])([H])Oc1c([H])c([H])c2c(c1[H])C([H])([H])N(C(=O)C([H])(N([H])C(=O)C([H])(N([H])C([H])([H])[H])C([H])([H])[H])C(C([H])([H])[H])(C([H])([H])[H])C([H])([H])[H])C([H])(C(=O)N([H])C1([H])c3c([H])c([H])c([H])c([H])c3C([H])([H])C([H])([H])C1([H])[H])C2([H])[H])C([H])([H])[H]

$$$$
