0:0:0
     RDKit          3D

 90 97  0  0  1  0  0  0  0  0999 V2000
  -29.6520  -22.3320   21.4210 N   0  0  0  0  0  4  0  0  0  0  0  0
  -29.1790  -21.9790   20.6030 H   0  0  0  0  0  0  0  0  0  0  0  0
  -29.0520  -22.1700   22.2160 H   0  0  0  0  0  0  0  0  0  0  0  0
  -29.8530  -23.7980   21.3020 C   0  0  0  0  0  2  0  0  0  0  0  0
  -28.5210  -24.5720   21.2670 C   0  0  0  0  0  2  0  0  0  0  0  0
  -28.6840  -26.1040   21.3700 C   0  0  0  0  0  2  0  0  0  0  0  0
  -28.3800  -26.7340   20.1240 O   0  0  0  0  0  0  0  0  0  0  0  0
  -24.5790  -31.8910   23.2330 C   0  0  0  0  0  0  0  0  0  0  0  0
  -27.2260  -27.4720   20.1450 C   0  0  0  0  0  0  0  0  0  0  0  0
  -23.3670  -30.4880   21.5940 C   0  0  0  0  0  3  0  0  0  0  0  0
  -24.8220  -28.9470   20.1700 C   0  0  0  0  0  0  0  0  0  0  0  0
  -25.8870  -30.8530   21.3860 C   0  0  0  0  0  2  0  0  0  0  0  0
  -25.9780  -29.4810   20.7530 C   0  0  0  0  0  0  0  0  0  0  0  0
  -27.1850  -28.7520   20.7410 C   0  0  0  0  0  3  0  0  0  0  0  0
  -26.0590  -26.9420   19.5570 C   0  0  0  0  0  3  0  0  0  0  0  0
  -24.8560  -27.6750   19.5700 C   0  0  0  0  0  3  0  0  0  0  0  0
  -23.5770  -29.8040   20.2150 C   0  0  0  0  0  2  0  0  0  0  0  0
  -24.6300  -31.0910   22.1310 N   0  0  0  0  0  0  0  0  0  0  0  0
  -23.5000  -32.1670   23.7740 O   0  0  0  0  0  0  0  0  0  0  0  0
  -22.7180  -29.4700   22.5570 C   0  0  0  0  0  0  0  0  0  0  0  0
  -21.3930  -29.2930   22.4330 N   0  0  0  0  0  0  0  0  0  0  0  0
  -23.4010  -28.8400   23.3690 O   0  0  0  0  0  0  0  0  0  0  0  0
  -20.9050  -29.8570   21.7510 H   0  0  0  0  0  0  0  0  0  0  0  0
  -18.0170  -28.1080   22.9280 C   0  0  0  0  0  0  0  0  0  0  0  0
  -20.5740  -28.3580   23.2010 C   0  0  0  0  0  3  0  0  0  0  0  0
  -20.6720  -26.9270   22.6260 C   0  0  0  0  0  2  0  0  0  0  0  0
  -19.5720  -26.6060   21.6100 C   0  0  0  0  0  2  0  0  0  0  0  0
  -18.1910  -26.7570   22.2540 C   0  0  0  0  0  2  0  0  0  0  0  0
  -19.1360  -28.8660   23.3580 C   0  0  0  0  0  0  0  0  0  0  0  0
  -18.9240  -30.1300   23.9500 C   0  0  0  0  0  3  0  0  0  0  0  0
  -17.6220  -30.6390   24.1100 C   0  0  0  0  0  3  0  0  0  0  0  0
  -16.5140  -29.8790   23.6960 C   0  0  0  0  0  3  0  0  0  0  0  0
  -16.7120  -28.6130   23.1140 C   0  0  0  0  0  3  0  0  0  0  0  0
  -25.8690  -32.5180   23.8480 C   0  0  0  0  0  3  0  0  0  0  0  0
  -25.5660  -33.9170   24.1770 N   0  0  0  0  0  0  0  0  0  0  0  0
  -25.9060  -34.9660   23.4180 C   0  0  0  0  0  0  0  0  0  0  0  0
  -26.5800  -34.8590   22.3890 O   0  0  0  0  0  0  0  0  0  0  0  0
  -24.9640  -34.0750   24.9710 H   0  0  0  0  0  0  0  0  0  0  0  0
  -24.1870  -36.7660   23.0500 C   0  0  0  0  0  1  0  0  0  0  0  0
  -25.4200  -36.3570   23.8710 C   0  0  0  0  0  3  0  0  0  0  0  0
  -27.5530  -37.2290   24.7190 C   0  0  0  0  0  1  0  0  0  0  0  0
  -26.4570  -37.4050   23.7690 N   0  0  0  0  0  0  0  0  0  0  0  0
  -26.0560  -38.3260   23.9200 H   0  0  0  0  0  0  0  0  0  0  0  0
  -26.3920  -31.7440   25.1190 C   0  0  1  0  0  0  0  0  0  0  0  0
  -25.3010  -31.5090   26.1890 C   0  0  0  0  0  1  0  0  0  0  0  0
  -26.9680  -30.3650   24.7150 C   0  0  0  0  0  1  0  0  0  0  0  0
  -27.5490  -32.5290   25.7780 C   0  0  0  0  0  1  0  0  0  0  0  0
  -30.9110  -21.5660   21.6070 C   0  0  0  0  0  2  0  0  0  0  0  0
  -30.6870  -20.1460   22.1700 C   0  0  0  0  0  2  0  0  0  0  0  0
  -30.4320  -19.2130   21.1220 O   0  0  0  0  0  0  0  0  0  0  0  0
  -30.4120  -17.8600   21.5800 C   0  0  0  0  0  2  0  0  0  0  0  0
  -30.1460  -16.9270   20.3880 C   0  0  0  0  0  2  0  0  0  0  0  0
  -30.6940  -14.5000   20.3530 C   0  0  0  0  0  0  0  0  0  0  0  0
  -30.3710  -12.3600   19.1890 C   0  0  0  0  0  2  0  0  0  0  0  0
  -29.4110  -12.6070   18.0080 C   0  0  0  0  0  2  0  0  0  0  0  0
  -27.9420  -12.4750   18.4580 C   0  0  0  0  0  2  0  0  0  0  0  0
  -27.6320  -13.2880   19.7440 C   0  0  0  0  0  3  0  0  0  0  0  0
  -28.7050  -13.0340   20.8280 C   0  0  0  0  0  2  0  0  0  0  0  0
  -30.0260  -13.3240   20.2440 N   0  0  0  0  0  0  0  0  0  0  0  0
  -31.8210  -14.6870   19.8870 O   0  0  0  0  0  0  0  0  0  0  0  0
  -29.9490  -15.5280   20.7830 N   0  0  0  0  0  0  0  0  0  0  0  0
  -29.0450  -15.2850   21.1620 H   0  0  0  0  0  0  0  0  0  0  0  0
  -25.2400  -13.8960   20.4730 C   0  0  0  0  0  0  0  0  0  0  0  0
  -24.1750  -13.1230   20.8540 C   0  0  0  0  0  0  0  0  0  0  0  0
  -24.6370  -11.7720   20.8240 C   0  0  0  0  0  0  0  0  0  0  0  0
  -26.2840  -13.0140   20.2360 N   0  0  0  0  0  0  0  0  0  0  0  0
  -25.9240  -11.7330   20.5020 N   0  0  0  0  0  0  0  0  0  0  0  0
  -23.9130  -10.5100   21.0240 C   0  0  0  0  0  0  0  0  0  0  0  0
  -24.3650   -9.5390   21.9450 C   0  0  0  0  0  3  0  0  0  0  0  0
  -23.6430   -8.3410   22.1350 C   0  0  0  0  0  3  0  0  0  0  0  0
  -22.4550   -8.1050   21.4030 C   0  0  0  0  0  0  0  0  0  0  0  0
  -22.0200   -9.0640   20.4720 C   0  0  0  0  0  3  0  0  0  0  0  0
  -22.7420  -10.2540   20.2820 C   0  0  0  0  0  3  0  0  0  0  0  0
  -21.7030   -6.9600   21.5040 O   0  0  0  0  0  0  0  0  0  0  0  0
  -21.6880   -6.2060   22.6500 C   0  0  0  0  0  0  0  0  0  0  0  0
  -21.3120   -6.7510   23.8970 C   0  0  0  0  0  3  0  0  0  0  0  0
  -21.2470   -5.9240   25.0360 C   0  0  0  0  0  3  0  0  0  0  0  0
  -21.5460   -4.5530   24.9290 C   0  0  0  0  0  0  0  0  0  0  0  0
  -21.9140   -4.0060   23.6860 C   0  0  0  0  0  3  0  0  0  0  0  0
  -21.9830   -4.8310   22.5490 C   0  0  0  0  0  0  0  0  0  0  0  0
  -22.3190   -4.2960   21.3510 F   0  0  0  0  0  0  0  0  0  0  0  0
  -21.4730   -3.7550   26.0190 F   0  0  0  0  0  0  0  0  0  0  0  0
  -22.7810  -13.5990   21.1410 C   0  0  0  0  0  0  0  0  0  0  0  0
  -22.0630  -12.9070   22.0170 N   0  0  0  0  0  0  0  0  0  0  0  0
  -22.3370  -14.6210   20.6190 O   0  0  0  0  0  0  0  0  0  0  0  0
  -22.4330  -12.0760   22.4570 H   0  0  0  0  0  0  0  0  0  0  0  0
  -21.1290  -13.2120   22.2540 H   0  0  0  0  0  0  0  0  0  0  0  0
  -25.4030  -15.2660   20.2900 N   0  0  0  0  0  0  0  0  0  0  0  0
  -24.6360  -15.9210   20.3970 H   0  0  0  0  0  0  0  0  0  0  0  0
  -26.2500  -15.6990   19.9410 H   0  0  0  0  0  0  0  0  0  0  0  0
  1 48  1  0
  1  3  1  0
  2  1  1  0
  4  1  1  0
  5  4  1  0
  5  6  1  0
  7  9  1  0
  7  6  1  0
  8 19  2  0
  9 14  1  0
 10 18  1  0
 10 20  1  0
 11 17  1  0
 11 13  1  0
 12 18  1  0
 13 12  1  0
 14 13  2  0
 15 16  1  0
 15  9  2  0
 16 11  2  0
 17 10  1  0
 18  8  1  0
 20 22  2  0
 21 20  1  0
 23 21  1  0
 24 33  2  0
 24 29  1  0
 25 21  1  0
 25 29  1  0
 26 25  1  0
 27 28  1  0
 27 26  1  0
 28 24  1  0
 29 30  2  0
 30 31  1  0
 32 31  2  0
 33 32  1  0
 34  8  1  0
 34 35  1  0
 34 44  1  0
 35 38  1  0
 36 40  1  0
 36 35  1  0
 37 36  2  0
 40 39  1  0
 42 40  1  0
 42 43  1  0
 42 41  1  0
 44 47  1  1
 44 45  1  0
 46 44  1  0
 48 49  1  0
 50 51  1  0
 50 49  1  0
 52 61  1  0
 52 51  1  0
 53 61  1  0
 54 59  1  0
 55 56  1  0
 55 54  1  0
 57 56  1  0
 57 66  1  0
 57 58  1  0
 59 53  1  0
 59 58  1  0
 60 53  2  0
 61 62  1  0
 63 64  2  0
 64 83  1  0
 65 64  1  0
 65 68  1  0
 66 63  1  0
 66 67  1  0
 67 65  2  0
 68 69  1  0
 69 70  2  0
 71 74  1  0
 71 70  1  0
 72 71  2  0
 73 72  1  0
 73 68  2  0
 74 75  1  0
 75 76  1  0
 76 77  2  0
 78 77  1  0
 78 82  1  0
 79 78  2  0
 80 75  2  0
 80 79  1  0
 81 80  1  0
 83 84  1  0
 84 87  1  0
 84 86  1  0
 85 83  2  0
 88 89  1  0
 88 63  1  0
 90 88  1  0
M  ISO  4   6 101   7 101  53 100  61 100
M  END
>  <TORSDO>  (1) 
F 24

>  <SCORE>  (1) 
-12.343

>  <name>  (1) 
0

>  <ligand_id>  (1) 
0

>  <original_smiles>  (1) 
[H]c1c([H])c([H])c2c(c1[H])C([H])([H])C([H])([H])C([H])([H])C2([H])N([H])C(=O)C1([H])N(C(=O)C([H])(N([H])C(=O)C([H])(N([H])C([H])([H])[H])C([H])([H])[H])C(C([H])([H])[H])(C([H])([H])[H])C([H])([H])[H])C([H])([H])c2c([H])c(OC([H])([H])C([H])([H])C([H])([H])[N+]([H])([H])C([H])([H])C([H])([H])OC([H])([H])C([H])([H])N([H])C(=O)N3C([H])([H])C([H])([H])C([H])([H])C([H])(n4nc(-c5c([H])c([H])c(Oc6c([H])c([H])c(F)c([H])c6F)c([H])c5[H])c(C(=O)N([H])[H])c4N([H])[H])C3([H])[H])c([H])c([H])c2C1([H])[H]

>  <smiles>  (1) 
[H]c1c([H])c([H])c2c(c1[H])C([H])([H])C([H])([H])C([H])([H])C2([H])N([H])C(=O)C1([H])N(C(=O)C([H])(N([H])C(=O)C([H])(N([H])C([H])([H])[H])C([H])([H])[H])C(C([H])([H])[H])(C([H])([H])[H])C([H])([H])[H])C([H])([H])c2c([H])c(OC([H])([H])C([H])([H])C([H])([H])[N+]([H])([H])C([H])([H])C([H])([H])OC([H])([H])C([H])([H])N([H])C(=O)N3C([H])([H])C([H])([H])C([H])([H])C([H])(n4nc(-c5c([H])c([H])c(Oc6c([H])c([H])c(F)c([H])c6F)c([H])c5[H])c(C(=O)N([H])[H])c4N([H])[H])C3([H])[H])c([H])c([H])c2C1([H])[H]

$$$$
1:0:0
     RDKit          3D

 99108  0  0  1  0  0  0  0  0999 V2000
  -24.6190  -17.7580   20.0050 C   0  0  0  0  0  3  0  0  0  0  0  0
  -25.9250  -17.4080   20.3950 C   0  0  0  0  0  3  0  0  0  0  0  0
  -24.4200  -18.7410   19.0190 C   0  0  0  0  0  3  0  0  0  0  0  0
  -27.0390  -18.0330   19.7920 C   0  0  0  0  0  0  0  0  0  0  0  0
  -25.5230  -19.3950   18.4350 C   0  0  0  0  0  0  0  0  0  0  0  0
  -26.8380  -19.0520   18.8330 C   0  0  0  0  0  0  0  0  0  0  0  0
  -28.4500  -17.6220   20.1280 C   0  0  0  0  0  0  0  0  0  0  0  0
  -29.1300  -19.4390   18.6840 C   0  0  0  0  0  0  0  0  0  0  0  0
  -25.2820  -20.4720   17.3890 C   0  0  0  0  0  1  0  0  0  0  0  0
  -27.9240  -19.7610   18.3120 N   0  0  0  0  0  0  0  0  0  0  0  0
  -29.4490  -18.3110   19.5120 N   0  0  0  0  0  0  0  0  0  0  0  0
  -28.6470  -16.6910   20.9190 O   0  0  0  0  0  0  0  0  0  0  0  0
  -30.2720  -20.3920   18.2810 C   0  0  0  0  0  2  0  0  0  0  0  0
  -29.7700  -21.7780   18.0250 N   0  0  0  0  0  4  0  0  0  0  0  0
  -28.8280  -21.7920   18.3890 H   0  0  0  0  0  0  0  0  0  0  0  0
  -29.7020  -21.8990   17.0270 H   0  0  0  0  0  0  0  0  0  0  0  0
  -30.5750  -22.8800   18.6230 C   0  0  0  0  0  2  0  0  0  0  0  0
  -30.1890  -24.3190   18.1660 C   0  0  0  0  0  2  0  0  0  0  0  0
  -29.1460  -25.0630   19.0310 C   0  0  0  0  0  2  0  0  0  0  0  0
  -29.3830  -26.4850   19.0160 O   0  0  0  0  0  0  0  0  0  0  0  0
  -25.9140  -29.8420   24.2650 C   0  0  0  0  0  0  0  0  0  0  0  0
  -28.3110  -27.2720   19.3820 C   0  0  0  0  0  0  0  0  0  0  0  0
  -24.7060  -29.6510   22.1160 C   0  0  0  0  0  3  0  0  0  0  0  0
  -26.1030  -28.8790   20.1240 C   0  0  0  0  0  0  0  0  0  0  0  0
  -27.2630  -29.7220   22.1700 C   0  0  0  0  0  2  0  0  0  0  0  0
  -27.2590  -28.8700   20.9160 C   0  0  0  0  0  0  0  0  0  0  0  0
  -28.3710  -28.0790   20.5430 C   0  0  0  0  0  3  0  0  0  0  0  0
  -27.1450  -27.3080   18.5870 C   0  0  0  0  0  3  0  0  0  0  0  0
  -26.0430  -28.1010   18.9540 C   0  0  0  0  0  3  0  0  0  0  0  0
  -24.9560  -29.7520   20.5860 C   0  0  0  0  0  2  0  0  0  0  0  0
  -25.9760  -29.7180   22.9080 N   0  0  0  0  0  0  0  0  0  0  0  0
  -24.8260  -29.9380   24.8500 O   0  0  0  0  0  0  0  0  0  0  0  0
  -23.8770  -28.3770   22.3970 C   0  0  0  0  0  0  0  0  0  0  0  0
  -22.5710  -28.4310   22.0900 N   0  0  0  0  0  0  0  0  0  0  0  0
  -24.4130  -27.3630   22.8560 O   0  0  0  0  0  0  0  0  0  0  0  0
  -22.2060  -29.3020   21.7270 H   0  0  0  0  0  0  0  0  0  0  0  0
  -19.1380  -27.4840   21.4850 C   0  0  0  0  0  0  0  0  0  0  0  0
  -21.6070  -27.3400   22.2350 C   0  0  0  0  0  3  0  0  0  0  0  0
  -21.7800  -26.2900   21.1150 C   0  0  0  0  0  2  0  0  0  0  0  0
  -20.8790  -26.5460   19.9030 C   0  0  0  0  0  2  0  0  0  0  0  0
  -19.4060  -26.5410   20.3230 C   0  0  0  0  0  2  0  0  0  0  0  0
  -20.1750  -27.8720   22.3730 C   0  0  0  0  0  0  0  0  0  0  0  0
  -19.8810  -28.7780   23.4140 C   0  0  0  0  0  3  0  0  0  0  0  0
  -18.5820  -29.2980   23.5730 C   0  0  0  0  0  3  0  0  0  0  0  0
  -17.5540  -28.8990   22.7010 C   0  0  0  0  0  3  0  0  0  0  0  0
  -17.8330  -27.9900   21.6640 C   0  0  0  0  0  3  0  0  0  0  0  0
  -27.2020  -29.8940   25.1420 C   0  0  0  0  0  3  0  0  0  0  0  0
  -27.0710  -31.0340   26.0570 N   0  0  0  0  0  0  0  0  0  0  0  0
  -27.7330  -32.1920   25.9290 C   0  0  0  0  0  0  0  0  0  0  0  0
  -28.5820  -32.3860   25.0550 O   0  0  0  0  0  0  0  0  0  0  0  0
  -26.3580  -30.9640   26.7680 H   0  0  0  0  0  0  0  0  0  0  0  0
  -26.5210  -34.3710   26.2380 C   0  0  0  0  0  1  0  0  0  0  0  0
  -27.3970  -33.3150   26.9300 C   0  0  0  0  0  3  0  0  0  0  0  0
  -29.3370  -33.0840   28.4160 C   0  0  0  0  0  1  0  0  0  0  0  0
  -28.5910  -33.9600   27.5180 N   0  0  0  0  0  0  0  0  0  0  0  0
  -28.3290  -34.7960   28.0330 H   0  0  0  0  0  0  0  0  0  0  0  0
  -27.4650  -28.5620   25.9450 C   0  0  1  0  0  0  0  0  0  0  0  0
  -26.2500  -28.0890   26.7770 C   0  0  0  0  0  1  0  0  0  0  0  0
  -27.8540  -27.4170   24.9820 C   0  0  0  0  0  1  0  0  0  0  0  0
  -28.6600  -28.7540   26.9100 C   0  0  0  0  0  1  0  0  0  0  0  0
  -30.8510  -17.8790   19.7750 C   0  0  0  0  0  2  0  0  0  0  0  0
  -31.2350  -16.4750   19.2200 C   0  0  0  0  0  2  0  0  0  0  0  0
  -31.0490  -15.3660   20.1210 O   0  0  0  0  0  0  0  0  0  0  0  0
  -31.8820  -14.2730   20.0310 C   0  0  0  0  0  0  0  0  0  0  0  0
  -31.7270  -11.7900   19.9480 C   0  0  0  0  0  2  0  0  0  0  0  0
  -30.8550  -11.4010   18.7350 C   0  0  0  0  0  2  0  0  0  0  0  0
  -29.3640  -11.3800   19.1250 C   0  0  0  0  0  2  0  0  0  0  0  0
  -28.9180  -12.6640   19.8730 C   0  0  0  0  0  3  0  0  0  0  0  0
  -29.9000  -13.0190   21.0100 C   0  0  0  0  0  2  0  0  0  0  0  0
  -31.2480  -13.0880   20.4370 N   0  0  0  0  0  0  0  0  0  0  0  0
  -33.0040  -14.3230   19.5240 O   0  0  0  0  0  0  0  0  0  0  0  0
  -26.6290  -13.5450   20.6300 C   0  0  0  0  0  0  0  0  0  0  0  0
  -25.4820  -12.9130   21.0230 C   0  0  0  0  0  0  0  0  0  0  0  0
  -25.7640  -11.5140   20.9440 C   0  0  0  0  0  0  0  0  0  0  0  0
  -27.5500  -12.5470   20.3660 N   0  0  0  0  0  0  0  0  0  0  0  0
  -27.0320  -11.3150   20.6060 N   0  0  0  0  0  0  0  0  0  0  0  0
  -24.8830  -10.3530   21.1100 C   0  0  0  0  0  0  0  0  0  0  0  0
  -25.1890   -9.3190   22.0210 C   0  0  0  0  0  3  0  0  0  0  0  0
  -24.3190   -8.2190   22.1770 C   0  0  0  0  0  3  0  0  0  0  0  0
  -23.1260   -8.1460   21.4180 C   0  0  0  0  0  0  0  0  0  0  0  0
  -22.8370   -9.1670   20.4950 C   0  0  0  0  0  3  0  0  0  0  0  0
  -23.7070  -10.2580   20.3390 C   0  0  0  0  0  3  0  0  0  0  0  0
  -22.2340   -7.1040   21.4830 O   0  0  0  0  0  0  0  0  0  0  0  0
  -22.0790   -6.3590   22.6240 C   0  0  0  0  0  0  0  0  0  0  0  0
  -21.6260   -6.9340   23.8320 C   0  0  0  0  0  3  0  0  0  0  0  0
  -21.4170   -6.1200   24.9630 C   0  0  0  0  0  3  0  0  0  0  0  0
  -21.6490   -4.7330   24.8850 C   0  0  0  0  0  0  0  0  0  0  0  0
  -22.0930   -4.1590   23.6820 C   0  0  0  0  0  3  0  0  0  0  0  0
  -22.3050   -4.9700   22.5540 C   0  0  0  0  0  0  0  0  0  0  0  0
  -22.7140   -4.4110   21.3890 F   0  0  0  0  0  0  0  0  0  0  0  0
  -21.4390   -3.9480   25.9680 F   0  0  0  0  0  0  0  0  0  0  0  0
  -24.1680  -13.5600   21.3480 C   0  0  0  0  0  0  0  0  0  0  0  0
  -23.3800  -12.9410   22.2200 N   0  0  0  0  0  0  0  0  0  0  0  0
  -23.8520  -14.6460   20.8670 O   0  0  0  0  0  0  0  0  0  0  0  0
  -23.6460  -12.0570   22.6290 H   0  0  0  0  0  0  0  0  0  0  0  0
  -22.4950  -13.3510   22.4790 H   0  0  0  0  0  0  0  0  0  0  0  0
  -26.9650  -14.8770   20.4410 N   0  0  0  0  0  0  0  0  0  0  0  0
  -26.3100  -15.6350   20.5940 H   0  0  0  0  0  0  0  0  0  0  0  0
  -27.8620  -15.1830   20.0900 H   0  0  0  0  0  0  0  0  0  0  0  0
  1  2  1  0
  3  1  2  0
  4  7  1  0
  4  2  2  0
  5  6  2  0
  5  3  1  0
  6  4  1  0
  7 12  2  0
  8 11  1  0
  9  5  1  0
 10  8  2  0
 10  6  1  0
 11 61  1  0
 11  7  1  0
 13  8  1  0
 14 13  1  0
 14 15  1  0
 14 17  1  0
 16 14  1  0
 18 17  1  0
 18 19  1  0
 20 19  1  0
 20 22  1  0
 21 32  2  0
 22 27  1  0
 23 33  1  0
 23 31  1  0
 24 30  1  0
 24 26  1  0
 25 31  1  0
 26 25  1  0
 27 26  2  0
 28 29  1  0
 28 22  2  0
 29 24  2  0
 30 23  1  0
 31 21  1  0
 33 35  2  0
 34 33  1  0
 36 34  1  0
 37 46  2  0
 37 42  1  0
 38 34  1  0
 38 42  1  0
 39 38  1  0
 40 41  1  0
 40 39  1  0
 41 37  1  0
 42 43  2  0
 43 44  1  0
 45 44  2  0
 46 45  1  0
 47 21  1  0
 47 57  1  0
 47 48  1  0
 48 51  1  0
 49 48  1  0
 49 53  1  0
 50 49  2  0
 53 52  1  0
 53 55  1  0
 55 56  1  0
 55 54  1  0
 57 58  1  1
 57 60  1  0
 59 57  1  0
 62 61  1  0
 62 63  1  0
 64 63  1  0
 64 70  1  0
 65 70  1  0
 66 67  1  0
 66 65  1  0
 68 67  1  0
 68 75  1  0
 68 69  1  0
 70 69  1  0
 71 64  2  0
 72 73  2  0
 73 92  1  0
 74 73  1  0
 74 77  1  0
 75 76  1  0
 75 72  1  0
 76 74  2  0
 77 78  1  0
 78 79  2  0
 80 83  1  0
 80 79  1  0
 81 80  2  0
 82 81  1  0
 82 77  2  0
 83 84  1  0
 84 85  1  0
 85 86  2  0
 87 86  1  0
 87 91  1  0
 88 87  2  0
 89 84  2  0
 89 88  1  0
 90 89  1  0
 92 93  1  0
 93 96  1  0
 93 95  1  0
 94 92  2  0
 97 98  1  0
 97 72  1  0
 99 97  1  0
M  ISO  4  19 101  20 101  63 100  64 100
M  END
>  <TORSDO>  (2) 
F 24

>  <SCORE>  (2) 
-7.157

>  <name>  (2) 
1

>  <ligand_id>  (2) 
1

>  <original_smiles>  (2) 
[H]c1c([H])c([H])c2c(c1[H])C([H])([H])C([H])([H])C([H])([H])C2([H])N([H])C(=O)C1([H])N(C(=O)C([H])(N([H])C(=O)C([H])(N([H])C([H])([H])[H])C([H])([H])[H])C(C([H])([H])[H])(C([H])([H])[H])C([H])([H])[H])C([H])([H])c2c([H])c(OC([H])([H])C([H])([H])C([H])([H])[N+]([H])([H])C([H])([H])c3nc4c(C([H])([H])[H])c([H])c([H])c([H])c4c(=O)n3C([H])([H])C([H])([H])OC(=O)N3C([H])([H])C([H])([H])C([H])([H])C([H])(n4nc(-c5c([H])c([H])c(Oc6c([H])c([H])c(F)c([H])c6F)c([H])c5[H])c(C(=O)N([H])[H])c4N([H])[H])C3([H])[H])c([H])c([H])c2C1([H])[H]

>  <smiles>  (2) 
[H]c1c([H])c([H])c2c(c1[H])C([H])([H])C([H])([H])C([H])([H])C2([H])N([H])C(=O)C1([H])N(C(=O)C([H])(N([H])C(=O)C([H])(N([H])C([H])([H])[H])C([H])([H])[H])C(C([H])([H])[H])(C([H])([H])[H])C([H])([H])[H])C([H])([H])c2c([H])c(OC([H])([H])C([H])([H])C([H])([H])[N+]([H])([H])C([H])([H])c3nc4c(C([H])([H])[H])c([H])c([H])c([H])c4c(=O)n3C([H])([H])C([H])([H])OC(=O)N3C([H])([H])C([H])([H])C([H])([H])C([H])(n4nc(-c5c([H])c([H])c(Oc6c([H])c([H])c(F)c([H])c6F)c([H])c5[H])c(C(=O)N([H])[H])c4N([H])[H])C3([H])[H])c([H])c([H])c2C1([H])[H]

$$$$
2:0:0
     RDKit          3D

 85 92  0  0  1  0  0  0  0  0999 V2000
  -28.9750  -23.3500   20.3750 C   0  0  0  0  0  3  0  0  0  0  0  0
  -27.9560  -24.6690   20.0940 C   0  0  0  0  0  2  0  0  0  0  0  0
  -28.2430  -26.1940   20.2680 O   0  0  0  0  0  0  0  0  0  0  0  0
  -24.6460  -31.9030   23.2490 C   0  0  0  0  0  0  0  0  0  0  0  0
  -27.1910  -27.1810   20.2040 C   0  0  0  0  0  0  0  0  0  0  0  0
  -23.4340  -30.5130   21.6150 C   0  0  0  0  0  3  0  0  0  0  0  0
  -24.8680  -28.9340   20.1830 C   0  0  0  0  0  0  0  0  0  0  0  0
  -25.9880  -30.7680   21.4390 C   0  0  0  0  0  2  0  0  0  0  0  0
  -26.0530  -29.3760   20.7850 C   0  0  0  0  0  0  0  0  0  0  0  0
  -27.2150  -28.5160   20.7770 C   0  0  0  0  0  3  0  0  0  0  0  0
  -25.9780  -26.8410   19.5630 C   0  0  0  0  0  3  0  0  0  0  0  0
  -24.8440  -27.6790   19.5560 C   0  0  0  0  0  3  0  0  0  0  0  0
  -23.6450  -29.8350   20.2360 C   0  0  0  0  0  2  0  0  0  0  0  0
  -24.7100  -31.0840   22.1560 N   0  0  0  0  0  0  0  0  0  0  0  0
  -23.5640  -32.1920   23.7810 O   0  0  0  0  0  0  0  0  0  0  0  0
  -22.7550  -29.5090   22.5790 C   0  0  0  0  0  0  0  0  0  0  0  0
  -21.4280  -29.3310   22.4470 N   0  0  0  0  0  0  0  0  0  0  0  0
  -23.4240  -28.8910   23.4120 O   0  0  0  0  0  0  0  0  0  0  0  0
  -20.9440  -29.8820   21.7500 H   0  0  0  0  0  0  0  0  0  0  0  0
  -18.0530  -28.1000   22.9220 C   0  0  0  0  0  0  0  0  0  0  0  0
  -20.6050  -28.3960   23.2190 C   0  0  0  0  0  3  0  0  0  0  0  0
  -20.7310  -26.9570   22.6670 C   0  0  0  0  0  2  0  0  0  0  0  0
  -19.6460  -26.6080   21.6430 C   0  0  0  0  0  2  0  0  0  0  0  0
  -18.2540  -26.7450   22.2660 C   0  0  0  0  0  2  0  0  0  0  0  0
  -19.1570  -28.8830   23.3550 C   0  0  0  0  0  0  0  0  0  0  0  0
  -18.9160  -30.1490   23.9300 C   0  0  0  0  0  3  0  0  0  0  0  0
  -17.6020  -30.6350   24.0740 C   0  0  0  0  0  3  0  0  0  0  0  0
  -16.5120  -29.8520   23.6570 C   0  0  0  0  0  3  0  0  0  0  0  0
  -16.7390  -28.5860   23.0860 C   0  0  0  0  0  3  0  0  0  0  0  0
  -25.9300  -32.5330   23.8710 C   0  0  0  0  0  3  0  0  0  0  0  0
  -25.6240  -33.9320   24.2110 N   0  0  0  0  0  0  0  0  0  0  0  0
  -25.9330  -34.9890   23.4490 C   0  0  0  0  0  0  0  0  0  0  0  0
  -26.5730  -34.8900   22.3990 O   0  0  0  0  0  0  0  0  0  0  0  0
  -25.0510  -34.0820   25.0280 H   0  0  0  0  0  0  0  0  0  0  0  0
  -24.1800  -36.7740   23.1690 C   0  0  0  0  0  1  0  0  0  0  0  0
  -25.4590  -36.3760   23.9250 C   0  0  0  0  0  3  0  0  0  0  0  0
  -27.6210  -37.2770   24.6630 C   0  0  0  0  0  1  0  0  0  0  0  0
  -26.4790  -37.4360   23.7660 N   0  0  0  0  0  0  0  0  0  0  0  0
  -26.0740  -38.3530   23.9260 H   0  0  0  0  0  0  0  0  0  0  0  0
  -26.4450  -31.7590   25.1470 C   0  0  1  0  0  0  0  0  0  0  0  0
  -25.3510  -31.5270   26.2170 C   0  0  0  0  0  1  0  0  0  0  0  0
  -27.0210  -30.3790   24.7590 C   0  0  0  0  0  1  0  0  0  0  0  0
  -27.6000  -32.5480   25.8070 C   0  0  0  0  0  1  0  0  0  0  0  0
  -28.5630  -21.7150   20.2260 C   0  0  0  0  0  3  0  0  0  0  0  0
  -29.5050  -20.5030   20.4320 O   0  0  0  0  0  0  0  0  0  0  0  0
  -29.0950  -19.0100   20.3560 C   0  0  0  0  0  3  0  0  0  0  0  0
  -30.1530  -17.7000   20.4880 C   0  0  0  0  0  3  0  0  0  0  0  0
  -30.5250  -14.9830   20.3480 C   0  0  0  0  0  0  0  0  0  0  0  0
  -30.3970  -12.6420   19.3880 C   0  0  0  0  0  2  0  0  0  0  0  0
  -29.4560  -12.6070   18.1620 C   0  0  0  0  0  2  0  0  0  0  0  0
  -27.9970  -12.3890   18.6060 C   0  0  0  0  0  2  0  0  0  0  0  0
  -27.5960  -13.3050   19.7910 C   0  0  0  0  0  3  0  0  0  0  0  0
  -28.6590  -13.3150   20.9100 C   0  0  0  0  0  2  0  0  0  0  0  0
  -29.9240  -13.7280   20.2910 N   0  0  0  0  0  0  0  0  0  0  0  0
  -31.7260  -15.0500   20.0670 O   0  0  0  0  0  0  0  0  0  0  0  0
  -29.7590  -16.1680   20.5090 N   0  0  0  0  0  0  0  0  0  0  0  0
  -28.7780  -15.9930   20.6750 H   0  0  0  0  0  0  0  0  0  0  0  0
  -25.2170  -13.8670   20.5460 C   0  0  0  0  0  0  0  0  0  0  0  0
  -24.1590  -13.0830   20.9170 C   0  0  0  0  0  0  0  0  0  0  0  0
  -24.6330  -11.7350   20.8800 C   0  0  0  0  0  0  0  0  0  0  0  0
  -26.2640  -12.9960   20.2970 N   0  0  0  0  0  0  0  0  0  0  0  0
  -25.9220  -11.7080   20.5640 N   0  0  0  0  0  0  0  0  0  0  0  0
  -23.9140  -10.4680   21.0660 C   0  0  0  0  0  0  0  0  0  0  0  0
  -24.3590   -9.4960   21.9900 C   0  0  0  0  0  3  0  0  0  0  0  0
  -23.6390   -8.2940   22.1660 C   0  0  0  0  0  3  0  0  0  0  0  0
  -22.4600   -8.0560   21.4200 C   0  0  0  0  0  0  0  0  0  0  0  0
  -22.0350   -9.0170   20.4850 C   0  0  0  0  0  3  0  0  0  0  0  0
  -22.7550  -10.2100   20.3070 C   0  0  0  0  0  3  0  0  0  0  0  0
  -21.7110   -6.9070   21.5050 O   0  0  0  0  0  0  0  0  0  0  0  0
  -21.6790   -6.1530   22.6510 C   0  0  0  0  0  0  0  0  0  0  0  0
  -21.2580   -6.6910   23.8860 C   0  0  0  0  0  3  0  0  0  0  0  0
  -21.1760   -5.8630   25.0230 C   0  0  0  0  0  3  0  0  0  0  0  0
  -21.5020   -4.4980   24.9260 C   0  0  0  0  0  0  0  0  0  0  0  0
  -21.9170   -3.9590   23.6950 C   0  0  0  0  0  3  0  0  0  0  0  0
  -22.0020   -4.7840   22.5600 C   0  0  0  0  0  0  0  0  0  0  0  0
  -22.3810   -4.2550   21.3720 F   0  0  0  0  0  0  0  0  0  0  0  0
  -21.4160   -3.6990   26.0150 F   0  0  0  0  0  0  0  0  0  0  0  0
  -22.7600  -13.5500   21.1950 C   0  0  0  0  0  0  0  0  0  0  0  0
  -22.0430  -12.8520   22.0670 N   0  0  0  0  0  0  0  0  0  0  0  0
  -22.3130  -14.5720   20.6730 O   0  0  0  0  0  0  0  0  0  0  0  0
  -22.4180  -12.0250   22.5070 H   0  0  0  0  0  0  0  0  0  0  0  0
  -21.1060  -13.1500   22.2990 H   0  0  0  0  0  0  0  0  0  0  0  0
  -25.3700  -15.2390   20.3690 N   0  0  0  0  0  0  0  0  0  0  0  0
  -24.5960  -15.8850   20.4750 H   0  0  0  0  0  0  0  0  0  0  0  0
  -26.2030  -15.6800   20.0020 H   0  0  0  0  0  0  0  0  0  0  0  0
  2  3  1  0
  2  1  1  0
  4 15  2  0
  5  3  1  0
  5 10  1  0
  6 14  1  0
  6 16  1  0
  7 13  1  0
  7  9  1  0
  8 14  1  0
  9  8  1  0
 10  9  2  0
 11  5  2  0
 12 11  1  0
 12  7  2  0
 13  6  1  0
 14  4  1  0
 16 18  2  0
 17 16  1  0
 19 17  1  0
 20 29  2  0
 20 25  1  0
 21 17  1  0
 21 25  1  0
 22 21  1  0
 23 24  1  0
 23 22  1  0
 24 20  1  0
 25 26  2  0
 26 27  1  0
 28 27  2  0
 29 28  1  0
 30  4  1  0
 30 31  1  0
 30 40  1  0
 31 34  1  0
 32 36  1  0
 32 31  1  0
 33 32  2  0
 36 35  1  0
 38 36  1  0
 38 39  1  0
 38 37  1  0
 40 43  1  1
 40 41  1  0
 42 40  1  0
 44  1  2  0
 44 45  1  0
 46 45  1  0
 46 47  2  0
 47 56  1  0
 48 56  1  0
 49 54  1  0
 50 51  1  0
 50 49  1  0
 52 51  1  0
 52 61  1  0
 52 53  1  0
 54 48  1  0
 54 53  1  0
 55 48  2  0
 56 57  1  0
 58 59  2  0
 59 78  1  0
 60 59  1  0
 60 63  1  0
 61 58  1  0
 61 62  1  0
 62 60  2  0
 63 64  1  0
 64 65  2  0
 66 69  1  0
 66 65  1  0
 67 66  2  0
 68 67  1  0
 68 63  2  0
 69 70  1  0
 70 71  1  0
 71 72  2  0
 73 72  1  0
 73 77  1  0
 74 73  2  0
 75 70  2  0
 75 74  1  0
 76 75  1  0
 78 79  1  0
 79 82  1  0
 79 81  1  0
 80 78  2  0
 83 84  1  0
 83 58  1  0
 85 83  1  0
M  ISO  4   2 101   3 101  48 100  56 100
M  END
>  <TORSDO>  (3) 
F 21

>  <SCORE>  (3) 
-13.192

>  <name>  (3) 
2

>  <ligand_id>  (3) 
2

>  <original_smiles>  (3) 
[H]c1c([H])c([H])c2c(c1[H])C([H])([H])C([H])([H])C([H])([H])C2([H])N([H])C(=O)C1([H])N(C(=O)C([H])(N([H])C(=O)C([H])(N([H])C([H])([H])[H])C([H])([H])[H])C(C([H])([H])[H])(C([H])([H])[H])C([H])([H])[H])C([H])([H])c2c([H])c(OC([H])([H])C([H])([H])C([H])([H])OC([H])([H])C([H])([H])N([H])C(=O)N3C([H])([H])C([H])([H])C([H])([H])C([H])(n4nc(-c5c([H])c([H])c(Oc6c([H])c([H])c(F)c([H])c6F)c([H])c5[H])c(C(=O)N([H])[H])c4N([H])[H])C3([H])[H])c([H])c([H])c2C1([H])[H]

>  <smiles>  (3) 
[H]c1c([H])c([H])c2c(c1[H])C([H])([H])C([H])([H])C([H])([H])C2([H])N([H])C(=O)C1([H])N(C(=O)C([H])(N([H])C(=O)C([H])(N([H])C([H])([H])[H])C([H])([H])[H])C(C([H])([H])[H])(C([H])([H])[H])C([H])([H])[H])C([H])([H])c2c([H])c(OC([H])([H])C([H])([H])C([H])([H])OC([H])([H])C([H])([H])N([H])C(=O)N3C([H])([H])C([H])([H])C([H])([H])C([H])(n4nc(-c5c([H])c([H])c(Oc6c([H])c([H])c(F)c([H])c6F)c([H])c5[H])c(C(=O)N([H])[H])c4N([H])[H])C3([H])[H])c([H])c([H])c2C1([H])[H]

$$$$
3:0:0
     RDKit          3D

 99106  0  0  1  0  0  0  0  0999 V2000
  -33.4640  -21.7260   12.6520 C   0  0  0  0  0  0  0  0  0  0  0  0
  -32.8990  -20.8010   11.8700 N   0  0  0  0  0  0  0  0  0  0  0  0
  -34.1390  -21.4390   13.6460 O   0  0  0  0  0  0  0  0  0  0  0  0
  -32.3290  -21.1370   11.1040 H   0  0  0  0  0  0  0  0  0  0  0  0
  -33.2300  -23.1840   12.2580 C   0  0  0  0  0  2  0  0  0  0  0  0
  -31.9290  -24.8800   13.5070 C   0  0  0  0  0  0  0  0  0  0  0  0
  -32.9250  -23.9930   13.4300 N   0  0  0  0  0  0  0  0  0  0  0  0
  -31.1000  -25.0410   12.6060 O   0  0  0  0  0  0  0  0  0  0  0  0
  -33.5780  -23.9470   14.2000 H   0  0  0  0  0  0  0  0  0  0  0  0
  -31.8160  -25.6710   14.8070 C   0  0  0  0  0  2  0  0  0  0  0  0
  -32.9730  -25.4180   15.5920 O   0  0  0  0  0  0  0  0  0  0  0  0
  -37.3620  -28.5310   20.2150 C   0  0  0  0  0  0  0  0  0  0  0  0
  -33.6950  -26.5330   15.9220 C   0  0  0  0  0  0  0  0  0  0  0  0
  -36.5270  -29.9780   18.3900 C   0  0  0  0  0  3  0  0  0  0  0  0
  -35.2810  -28.7820   16.5180 C   0  0  0  0  0  0  0  0  0  0  0  0
  -36.7350  -27.4510   18.0640 C   0  0  0  0  0  2  0  0  0  0  0  0
  -35.5670  -27.5440   17.1070 C   0  0  0  0  0  0  0  0  0  0  0  0
  -34.7780  -26.4160   16.8110 C   0  0  0  0  0  3  0  0  0  0  0  0
  -33.4040  -27.7840   15.3400 C   0  0  0  0  0  3  0  0  0  0  0  0
  -34.1900  -28.9140   15.6380 C   0  0  0  0  0  3  0  0  0  0  0  0
  -36.1960  -29.9320   16.8740 C   0  0  0  0  0  2  0  0  0  0  0  0
  -36.8700  -28.6300   18.9490 N   0  0  0  0  0  0  0  0  0  0  0  0
  -37.5730  -29.5410   20.8980 O   0  0  0  0  0  0  0  0  0  0  0  0
  -35.3520  -30.6620   19.1230 C   0  0  0  0  0  0  0  0  0  0  0  0
  -35.1440  -31.9570   18.8380 N   0  0  0  0  0  0  0  0  0  0  0  0
  -34.6370  -30.0250   19.9040 O   0  0  0  0  0  0  0  0  0  0  0  0
  -35.7780  -32.4030   18.1890 H   0  0  0  0  0  0  0  0  0  0  0  0
  -33.8220  -35.3190   18.8760 C   0  0  0  0  0  0  0  0  0  0  0  0
  -34.0770  -32.7980   19.3810 C   0  0  0  0  0  3  0  0  0  0  0  0
  -32.7630  -32.6110   18.5910 C   0  0  0  0  0  2  0  0  0  0  0  0
  -32.5900  -33.6250   17.4560 C   0  0  0  0  0  2  0  0  0  0  0  0
  -32.6080  -35.0570   18.0010 C   0  0  0  0  0  2  0  0  0  0  0  0
  -34.5200  -34.2570   19.5090 C   0  0  0  0  0  0  0  0  0  0  0  0
  -35.6650  -34.5560   20.2780 C   0  0  0  0  0  3  0  0  0  0  0  0
  -36.1160  -35.8820   20.4170 C   0  0  0  0  0  3  0  0  0  0  0  0
  -35.4100  -36.9310   19.8040 C   0  0  0  0  0  3  0  0  0  0  0  0
  -34.2640  -36.6490   19.0430 C   0  0  0  0  0  3  0  0  0  0  0  0
  -37.7030  -27.1490   20.8570 C   0  0  0  0  0  3  0  0  0  0  0  0
  -36.6150  -26.6480   21.8870 C   0  0  1  0  0  0  0  0  0  0  0  0
  -36.8900  -27.0900   23.3440 C   0  0  0  0  0  1  0  0  0  0  0  0
  -35.2140  -27.1690   21.4920 C   0  0  0  0  0  1  0  0  0  0  0  0
  -36.5340  -25.1040   21.8580 C   0  0  0  0  0  1  0  0  0  0  0  0
  -39.0140  -27.2760   21.5060 N   0  0  0  0  0  0  0  0  0  0  0  0
  -40.0000  -26.3750   21.4080 C   0  0  0  0  0  0  0  0  0  0  0  0
  -39.8700  -25.3020   20.8120 O   0  0  0  0  0  0  0  0  0  0  0  0
  -39.2100  -28.1550   21.9650 H   0  0  0  0  0  0  0  0  0  0  0  0
  -42.4300  -26.8700   20.9990 C   0  0  0  0  0  1  0  0  0  0  0  0
  -41.3440  -26.7180   22.0760 C   0  0  0  0  0  3  0  0  0  0  0  0
  -40.9380  -25.7140   24.2790 C   0  0  0  0  0  1  0  0  0  0  0  0
  -41.7720  -25.7200   23.0810 N   0  0  0  0  0  0  0  0  0  0  0  0
  -42.7350  -25.8840   23.3640 H   0  0  0  0  0  0  0  0  0  0  0  0
  -33.0750  -19.3540   11.9380 C   0  0  0  0  0  3  0  0  0  0  0  0
  -34.4810  -18.9150   11.4970 C   0  0  0  0  0  0  0  0  0  0  0  0
  -34.8650  -19.2640   10.2740 N   0  0  0  0  0  0  0  0  0  0  0  0
  -35.2130  -18.2770   12.2520 O   0  0  0  0  0  0  0  0  0  0  0  0
  -34.2520  -19.8620    9.7270 H   0  0  0  0  0  0  0  0  0  0  0  0
  -35.7620  -18.9900    9.9020 H   0  0  0  0  0  0  0  0  0  0  0  0
  -31.9110  -18.5980   11.2500 C   0  0  0  0  0  2  0  0  0  0  0  0
  -31.1100  -17.7350   12.2270 C   0  0  0  0  0  2  0  0  0  0  0  0
  -31.2950  -18.1090   13.6990 C   0  0  0  0  0  2  0  0  0  0  0  0
  -32.0210  -17.0940   14.6100 C   0  0  0  0  0  2  0  0  0  0  0  0
  -32.9260  -18.3140   16.5880 C   0  0  0  0  0  0  0  0  0  0  0  0
  -34.1290  -18.4850   18.7440 C   0  0  0  0  0  2  0  0  0  0  0  0
  -35.5270  -17.8440   18.6560 C   0  0  0  0  0  2  0  0  0  0  0  0
  -35.4800  -16.3190   18.8760 C   0  0  0  0  0  2  0  0  0  0  0  0
  -34.3860  -15.6330   18.0200 C   0  0  0  0  0  3  0  0  0  0  0  0
  -33.0470  -16.3870   18.2020 C   0  0  0  0  0  2  0  0  0  0  0  0
  -33.2320  -17.8000   17.8090 N   0  0  0  0  0  0  0  0  0  0  0  0
  -33.4150  -19.3440   16.1210 O   0  0  0  0  0  0  0  0  0  0  0  0
  -31.9610  -17.6230   15.9710 N   0  0  0  0  0  0  0  0  0  0  0  0
  -31.4580  -17.0230   16.6060 H   0  0  0  0  0  0  0  0  0  0  0  0
  -35.1830  -13.1810   18.1790 C   0  0  0  0  0  0  0  0  0  0  0  0
  -34.6010  -12.0660   18.7180 C   0  0  0  0  0  0  0  0  0  0  0  0
  -33.3320  -12.4860   19.2230 C   0  0  0  0  0  0  0  0  0  0  0  0
  -34.2670  -14.2110   18.3510 N   0  0  0  0  0  0  0  0  0  0  0  0
  -33.1310  -13.7690   18.9480 N   0  0  0  0  0  0  0  0  0  0  0  0
  -32.3220  -11.7560   20.0000 C   0  0  0  0  0  0  0  0  0  0  0  0
  -31.1360  -11.2750   19.4010 C   0  0  0  0  0  3  0  0  0  0  0  0
  -30.1870  -10.5610   20.1640 C   0  0  0  0  0  3  0  0  0  0  0  0
  -30.4180  -10.3180   21.5390 C   0  0  0  0  0  0  0  0  0  0  0  0
  -31.5890  -10.8180   22.1360 C   0  0  0  0  0  3  0  0  0  0  0  0
  -32.5310  -11.5330   21.3740 C   0  0  0  0  0  3  0  0  0  0  0  0
  -29.5440   -9.6530   22.3630 O   0  0  0  0  0  0  0  0  0  0  0  0
  -29.4400   -8.2850   22.3480 C   0  0  0  0  0  0  0  0  0  0  0  0
  -30.2320   -7.4680   23.1860 C   0  0  0  0  0  3  0  0  0  0  0  0
  -30.0450   -6.0710   23.1850 C   0  0  0  0  0  3  0  0  0  0  0  0
  -29.0630   -5.4910   22.3590 C   0  0  0  0  0  0  0  0  0  0  0  0
  -28.2730   -6.3030   21.5280 C   0  0  0  0  0  3  0  0  0  0  0  0
  -28.4600   -7.6970   21.5250 C   0  0  0  0  0  0  0  0  0  0  0  0
  -27.6830   -8.4770   20.7370 F   0  0  0  0  0  0  0  0  0  0  0  0
  -28.8760   -4.1510   22.3670 F   0  0  0  0  0  0  0  0  0  0  0  0
  -35.2170  -10.7030   18.8430 C   0  0  0  0  0  0  0  0  0  0  0  0
  -34.5230   -9.6730   18.3730 N   0  0  0  0  0  0  0  0  0  0  0  0
  -36.3420  -10.5470   19.3180 O   0  0  0  0  0  0  0  0  0  0  0  0
  -33.6070   -9.8010   17.9690 H   0  0  0  0  0  0  0  0  0  0  0  0
  -34.9170   -8.7440   18.4120 H   0  0  0  0  0  0  0  0  0  0  0  0
  -36.4170  -13.4080   17.5760 N   0  0  0  0  0  0  0  0  0  0  0  0
  -37.1270  -12.6880   17.4990 H   0  0  0  0  0  0  0  0  0  0  0  0
  -36.7510  -14.3230   17.3010 H   0  0  0  0  0  0  0  0  0  0  0  0
  1  3  2  0
  2 52  1  0
  2  1  1  0
  4  2  1  0
  5  1  1  0
  5  7  1  0
  6 10  1  0
  7  6  1  0
  7  9  1  0
  8  6  2  0
 10 11  1  0
 11 13  1  0
 12 23  2  0
 13 18  1  0
 14 22  1  0
 14 24  1  0
 15 21  1  0
 15 17  1  0
 16 22  1  0
 17 16  1  0
 18 17  2  0
 19 20  1  0
 19 13  2  0
 20 15  2  0
 21 14  1  0
 22 12  1  0
 24 26  2  0
 25 24  1  0
 27 25  1  0
 28 37  2  0
 28 33  1  0
 29 25  1  0
 29 33  1  0
 30 29  1  0
 31 32  1  0
 31 30  1  0
 32 28  1  0
 33 34  2  0
 34 35  1  0
 36 35  2  0
 37 36  1  0
 38 12  1  0
 38 43  1  0
 38 39  1  0
 39 40  1  1
 41 39  1  0
 42 39  1  0
 43 46  1  0
 44 43  1  0
 44 48  1  0
 45 44  2  0
 48 47  1  0
 48 50  1  0
 50 51  1  0
 50 49  1  0
 52 58  1  0
 53 52  1  0
 53 55  2  0
 54 53  1  0
 56 54  1  0
 57 54  1  0
 58 59  1  0
 59 60  1  0
 60 61  1  0
 61 70  1  0
 62 68  1  0
 64 63  1  0
 64 65  1  0
 66 67  1  0
 66 75  1  0
 66 65  1  0
 68 67  1  0
 68 63  1  0
 69 62  2  0
 70 62  1  0
 70 71  1  0
 72 75  1  0
 72 73  2  0
 73 92  1  0
 73 74  1  0
 74 77  1  0
 75 76  1  0
 76 74  2  0
 77 82  1  0
 78 77  2  0
 78 79  1  0
 79 80  2  0
 80 81  1  0
 80 83  1  0
 82 81  2  0
 84 83  1  0
 84 85  1  0
 86 85  2  0
 87 91  1  0
 87 86  1  0
 88 87  2  0
 89 88  1  0
 89 84  2  0
 90 89  1  0
 92 94  2  0
 93 96  1  0
 93 92  1  0
 95 93  1  0
 97 72  1  0
 98 97  1  0
 99 97  1  0
M  ISO  4  10 101  11 101  62 100  70 100
M  END
>  <TORSDO>  (4) 
F 25

>  <SCORE>  (4) 
-4.368

>  <name>  (4) 
3

>  <ligand_id>  (4) 
3

>  <original_smiles>  (4) 
[H]c1c([H])c([H])c2c(c1[H])C([H])([H])C([H])([H])C([H])([H])C2([H])N([H])C(=O)C1([H])N(C(=O)C([H])(N([H])C(=O)C([H])(N([H])C([H])([H])[H])C([H])([H])[H])C(C([H])([H])[H])(C([H])([H])[H])C([H])([H])[H])C([H])([H])c2c([H])c(OC([H])([H])C(=O)N([H])C([H])([H])C(=O)N([H])C([H])(C(=O)N([H])[H])C([H])([H])C([H])([H])C([H])([H])C([H])([H])N([H])C(=O)N3C([H])([H])C([H])([H])C([H])([H])C([H])(n4nc(-c5c([H])c([H])c(Oc6c([H])c([H])c(F)c([H])c6F)c([H])c5[H])c(C(=O)N([H])[H])c4N([H])[H])C3([H])[H])c([H])c([H])c2C1([H])[H]

>  <smiles>  (4) 
[H]c1c([H])c([H])c2c(c1[H])C([H])([H])C([H])([H])C([H])([H])C2([H])N([H])C(=O)C1([H])N(C(=O)C([H])(N([H])C(=O)C([H])(N([H])C([H])([H])[H])C([H])([H])[H])C(C([H])([H])[H])(C([H])([H])[H])C([H])([H])[H])C([H])([H])c2c([H])c(OC([H])([H])C(=O)N([H])C([H])([H])C(=O)N([H])C([H])(C(=O)N([H])[H])C([H])([H])C([H])([H])C([H])([H])C([H])([H])N([H])C(=O)N3C([H])([H])C([H])([H])C([H])([H])C([H])(n4nc(-c5c([H])c([H])c(Oc6c([H])c([H])c(F)c([H])c6F)c([H])c5[H])c(C(=O)N([H])[H])c4N([H])[H])C3([H])[H])c([H])c([H])c2C1([H])[H]

$$$$
4:0:0
     RDKit          3D

 98105  0  0  1  0  0  0  0  0999 V2000
  -29.5110  -19.0510   19.9570 N   0  0  1  0  0  4  0  0  0  0  0  0
  -29.5620  -19.2260   18.9650 H   0  0  0  0  0  0  0  0  0  0  0  0
  -28.1120  -18.6350   20.2150 C   0  0  0  0  0  3  0  0  0  0  0  0
  -27.1500  -18.7070   19.2690 C   0  0  0  0  0  0  0  0  0  0  0  0
  -27.4130  -19.2170   17.8500 C   0  0  0  0  0  1  0  0  0  0  0  0
  -25.8050  -18.2730   19.6530 C   0  0  0  0  0  0  0  0  0  0  0  0
  -24.8620  -18.6370   18.7930 N   0  0  0  0  0  0  0  0  0  0  0  0
  -25.5120  -17.6350   20.6620 O   0  0  0  0  0  0  0  0  0  0  0  0
  -25.1100  -19.1720   17.9760 H   0  0  0  0  0  0  0  0  0  0  0  0
  -23.8950  -18.3980   18.9630 H   0  0  0  0  0  0  0  0  0  0  0  0
  -29.7950  -20.4840   20.5560 C   0  0  0  0  0  3  0  0  0  0  0  0
  -28.8230  -21.8070   20.2250 C   0  0  0  0  0  3  0  0  0  0  0  0
  -29.0960  -23.3760   20.7330 C   0  0  0  0  0  3  0  0  0  0  0  0
  -28.1450  -24.6780   20.3070 C   0  0  0  0  0  3  0  0  0  0  0  0
  -28.3940  -26.1650   20.6290 O   0  0  0  0  0  0  0  0  0  0  0  0
  -24.7740  -31.9360   23.3570 C   0  0  0  0  0  0  0  0  0  0  0  0
  -27.3430  -27.1340   20.5060 C   0  0  0  0  0  0  0  0  0  0  0  0
  -23.5860  -30.5260   21.7190 C   0  0  0  0  0  3  0  0  0  0  0  0
  -25.0390  -28.8920   20.3730 C   0  0  0  0  0  0  0  0  0  0  0  0
  -26.1460  -30.7460   21.6130 C   0  0  0  0  0  2  0  0  0  0  0  0
  -26.2090  -29.3400   20.9990 C   0  0  0  0  0  0  0  0  0  0  0  0
  -27.3630  -28.4770   21.0480 C   0  0  0  0  0  3  0  0  0  0  0  0
  -26.1490  -26.7750   19.8420 C   0  0  0  0  0  3  0  0  0  0  0  0
  -25.0200  -27.6180   19.7830 C   0  0  0  0  0  3  0  0  0  0  0  0
  -23.8270  -29.8070   20.3650 C   0  0  0  0  0  2  0  0  0  0  0  0
  -24.8550  -31.0910   22.2840 N   0  0  0  0  0  0  0  0  0  0  0  0
  -23.6820  -32.2570   23.8480 O   0  0  0  0  0  0  0  0  0  0  0  0
  -22.8620  -29.5560   22.6860 C   0  0  0  0  0  0  0  0  0  0  0  0
  -21.5350  -29.4090   22.5260 N   0  0  0  0  0  0  0  0  0  0  0  0
  -23.4980  -28.9370   23.5430 O   0  0  0  0  0  0  0  0  0  0  0  0
  -21.0820  -29.9580   21.8090 H   0  0  0  0  0  0  0  0  0  0  0  0
  -18.1120  -28.3220   22.9870 C   0  0  0  0  0  0  0  0  0  0  0  0
  -20.6730  -28.5100   23.2980 C   0  0  0  0  0  3  0  0  0  0  0  0
  -20.7410  -27.0670   22.7490 C   0  0  0  0  0  2  0  0  0  0  0  0
  -19.6480  -26.7600   21.7200 C   0  0  0  0  0  2  0  0  0  0  0  0
  -18.2600  -26.9570   22.3360 C   0  0  0  0  0  2  0  0  0  0  0  0
  -19.2470  -29.0580   23.4240 C   0  0  0  0  0  0  0  0  0  0  0  0
  -19.0550  -30.3340   23.9960 C   0  0  0  0  0  3  0  0  0  0  0  0
  -17.7630  -30.8770   24.1290 C   0  0  0  0  0  3  0  0  0  0  0  0
  -16.6440  -30.1390   23.7080 C   0  0  0  0  0  3  0  0  0  0  0  0
  -16.8190  -28.8620   23.1440 C   0  0  0  0  0  3  0  0  0  0  0  0
  -26.0500  -32.5570   24.0030 C   0  0  0  0  0  3  0  0  0  0  0  0
  -26.5530  -31.7640   25.2720 C   0  0  1  0  0  0  0  0  0  0  0  0
  -25.4440  -31.4940   26.3160 C   0  0  0  0  0  1  0  0  0  0  0  0
  -27.1550  -30.4000   24.8630 C   0  0  0  0  0  1  0  0  0  0  0  0
  -27.6840  -32.5550   25.9700 C   0  0  0  0  0  1  0  0  0  0  0  0
  -25.7370  -33.9490   24.3590 N   0  0  0  0  0  0  0  0  0  0  0  0
  -26.0400  -35.0170   23.6070 C   0  0  0  0  0  0  0  0  0  0  0  0
  -26.6800  -34.9330   22.5560 O   0  0  0  0  0  0  0  0  0  0  0  0
  -25.1650  -34.0880   25.1790 H   0  0  0  0  0  0  0  0  0  0  0  0
  -24.2700  -36.7890   23.3600 C   0  0  0  0  0  1  0  0  0  0  0  0
  -25.5590  -36.3950   24.1000 C   0  0  0  0  0  3  0  0  0  0  0  0
  -27.7130  -37.3160   24.8360 C   0  0  0  0  0  1  0  0  0  0  0  0
  -26.5690  -37.4650   23.9410 N   0  0  0  0  0  0  0  0  0  0  0  0
  -26.1540  -38.3790   24.1060 H   0  0  0  0  0  0  0  0  0  0  0  0
  -30.5300  -17.8470   20.1110 C   0  0  0  0  0  3  0  0  0  0  0  0
  -31.5210  -18.1330   21.2520 C   0  0  0  0  0  0  0  0  0  0  0  0
  -32.7850  -18.4090   20.9470 N   0  0  0  0  0  0  0  0  0  0  0  0
  -31.1500  -18.1030   22.4240 O   0  0  0  0  0  0  0  0  0  0  0  0
  -33.1070  -18.4000   19.9890 H   0  0  0  0  0  0  0  0  0  0  0  0
  -33.4480  -18.6120   21.6810 H   0  0  0  0  0  0  0  0  0  0  0  0
  -29.9860  -16.2750   20.2880 C   0  0  0  0  0  2  0  0  0  0  0  0
  -30.8640  -14.9090   20.0170 C   0  0  0  0  0  0  0  0  0  0  0  0
  -30.7570  -12.5470   19.1210 C   0  0  0  0  0  2  0  0  0  0  0  0
  -29.7630  -12.5040   17.9360 C   0  0  0  0  0  2  0  0  0  0  0  0
  -28.3210  -12.2860   18.4340 C   0  0  0  0  0  2  0  0  0  0  0  0
  -27.9610  -13.2130   19.6240 C   0  0  0  0  0  3  0  0  0  0  0  0
  -29.0670  -13.2350   20.6970 C   0  0  0  0  0  2  0  0  0  0  0  0
  -30.3210  -13.6310   20.0430 N   0  0  0  0  0  0  0  0  0  0  0  0
  -32.0290  -15.0170   19.6200 O   0  0  0  0  0  0  0  0  0  0  0  0
  -25.6250  -13.7660   20.5190 C   0  0  0  0  0  0  0  0  0  0  0  0
  -24.5820  -12.9780   20.9250 C   0  0  0  0  0  0  0  0  0  0  0  0
  -25.0460  -11.6310   20.8270 C   0  0  0  0  0  0  0  0  0  0  0  0
  -26.6530  -12.8980   20.1900 N   0  0  0  0  0  0  0  0  0  0  0  0
  -26.3160  -11.6070   20.4400 N   0  0  0  0  0  0  0  0  0  0  0  0
  -24.3320  -10.3610   21.0230 C   0  0  0  0  0  0  0  0  0  0  0  0
  -24.7610   -9.4090   21.9740 C   0  0  0  0  0  3  0  0  0  0  0  0
  -24.0450   -8.2070   22.1580 C   0  0  0  0  0  3  0  0  0  0  0  0
  -22.8860   -7.9470   21.3880 C   0  0  0  0  0  0  0  0  0  0  0  0
  -22.4780   -8.8870   20.4250 C   0  0  0  0  0  3  0  0  0  0  0  0
  -23.1950  -10.0810   20.2400 C   0  0  0  0  0  3  0  0  0  0  0  0
  -22.1430   -6.7950   21.4790 O   0  0  0  0  0  0  0  0  0  0  0  0
  -22.0030   -6.1220   22.6660 C   0  0  0  0  0  0  0  0  0  0  0  0
  -21.3810   -6.7120   23.7880 C   0  0  0  0  0  3  0  0  0  0  0  0
  -21.1920   -5.9620   24.9650 C   0  0  0  0  0  3  0  0  0  0  0  0
  -21.6190   -4.6210   25.0200 C   0  0  0  0  0  0  0  0  0  0  0  0
  -22.2340   -4.0300   23.9040 C   0  0  0  0  0  3  0  0  0  0  0  0
  -22.4230   -4.7780   22.7280 C   0  0  0  0  0  0  0  0  0  0  0  0
  -22.9980   -4.1980   21.6470 F   0  0  0  0  0  0  0  0  0  0  0  0
  -21.4340   -3.8960   26.1480 F   0  0  0  0  0  0  0  0  0  0  0  0
  -23.2020  -13.4460   21.2890 C   0  0  0  0  0  0  0  0  0  0  0  0
  -22.5340  -12.7330   22.1890 N   0  0  0  0  0  0  0  0  0  0  0  0
  -22.7280  -14.4740   20.8110 O   0  0  0  0  0  0  0  0  0  0  0  0
  -22.9330  -11.8980   22.5930 H   0  0  0  0  0  0  0  0  0  0  0  0
  -21.6120  -13.0260   22.4790 H   0  0  0  0  0  0  0  0  0  0  0  0
  -25.7790  -15.1410   20.3800 N   0  0  0  0  0  0  0  0  0  0  0  0
  -25.0300  -15.7880   20.5960 H   0  0  0  0  0  0  0  0  0  0  0  0
  -26.6090  -15.5930   20.0240 H   0  0  0  0  0  0  0  0  0  0  0  0
  1 56  1  0
  1  3  1  0
  1 11  1  0
  1  2  1  6
  4  6  1  0
  4  3  2  0
  5  4  1  0
  6  8  2  0
  7 10  1  0
  7  6  1  0
  9  7  1  0
 12 11  2  0
 12 13  1  0
 14 15  1  0
 14 13  2  0
 16 27  2  0
 17 15  1  0
 17 22  1  0
 18 26  1  0
 18 28  1  0
 19 21  1  0
 20 26  1  0
 21 22  2  0
 21 20  1  0
 23 17  2  0
 24 23  1  0
 24 19  2  0
 25 19  1  0
 25 18  1  0
 26 16  1  0
 28 30  2  0
 29 28  1  0
 31 29  1  0
 32 41  2  0
 32 37  1  0
 33 29  1  0
 33 37  1  0
 34 33  1  0
 35 36  1  0
 35 34  1  0
 36 32  1  0
 37 38  2  0
 38 39  1  0
 40 39  2  0
 41 40  1  0
 42 16  1  0
 42 47  1  0
 42 43  1  0
 43 46  1  1
 43 44  1  0
 45 43  1  0
 47 50  1  0
 48 52  1  0
 48 47  1  0
 49 48  2  0
 52 51  1  0
 54 52  1  0
 54 55  1  0
 54 53  1  0
 56 62  1  0
 56 57  1  0
 57 59  2  0
 58 57  1  0
 58 61  1  0
 60 58  1  0
 63 69  1  0
 63 62  1  0
 64 69  1  0
 65 66  1  0
 65 64  1  0
 67 66  1  0
 67 74  1  0
 67 68  1  0
 69 68  1  0
 70 63  2  0
 71 72  2  0
 72 91  1  0
 73 72  1  0
 73 76  1  0
 74 75  1  0
 74 71  1  0
 75 73  2  0
 76 77  1  0
 77 78  2  0
 79 82  1  0
 79 78  1  0
 80 79  2  0
 81 80  1  0
 81 76  2  0
 82 83  1  0
 83 88  2  0
 83 84  1  0
 84 85  2  0
 85 86  1  0
 86 90  1  0
 87 86  2  0
 88 87  1  0
 89 88  1  0
 91 92  1  0
 92 95  1  0
 92 94  1  0
 93 91  2  0
 96 71  1  0
 96 97  1  0
 98 96  1  0
M  ISO  4  14 101  15 101  62 100  63 100
M  END
>  <TORSDO>  (5) 
F 25

>  <SCORE>  (5) 
-10.896

>  <name>  (5) 
4

>  <ligand_id>  (5) 
4

>  <original_smiles>  (5) 
[H]C(=C(C(=O)N([H])[H])C([H])([H])[H])[N+]([H])(C([H])([H])C([H])([H])C([H])([H])C([H])([H])Oc1c([H])c([H])c2c(c1[H])C([H])([H])N(C(=O)C([H])(N([H])C(=O)C([H])(N([H])C([H])([H])[H])C([H])([H])[H])C(C([H])([H])[H])(C([H])([H])[H])C([H])([H])[H])C([H])(C(=O)N([H])C1([H])c3c([H])c([H])c([H])c([H])c3C([H])([H])C([H])([H])C1([H])[H])C2([H])[H])C([H])(C(=O)N([H])[H])C([H])([H])C(=O)N1C([H])([H])C([H])([H])C([H])([H])C([H])(n2nc(-c3c([H])c([H])c(Oc4c([H])c([H])c(F)c([H])c4F)c([H])c3[H])c(C(=O)N([H])[H])c2N([H])[H])C1([H])[H]

>  <smiles>  (5) 
[H]C(=C(C(=O)N([H])[H])C([H])([H])[H])[N+]([H])(C([H])([H])C([H])([H])C([H])([H])C([H])([H])Oc1c([H])c([H])c2c(c1[H])C([H])([H])N(C(=O)C([H])(N([H])C(=O)C([H])(N([H])C([H])([H])[H])C([H])([H])[H])C(C([H])([H])[H])(C([H])([H])[H])C([H])([H])[H])C([H])(C(=O)N([H])C1([H])c3c([H])c([H])c([H])c([H])c3C([H])([H])C([H])([H])C1([H])[H])C2([H])[H])C([H])(C(=O)N([H])[H])C([H])([H])C(=O)N1C([H])([H])C([H])([H])C([H])([H])C([H])(n2nc(-c3c([H])c([H])c(Oc4c([H])c([H])c(F)c([H])c4F)c([H])c3[H])c(C(=O)N([H])[H])c2N([H])[H])C1([H])[H]

$$$$
5:0:0
     RDKit          3D

 90 98  0  0  1  0  0  0  0  0999 V2000
  -29.3230  -20.2170   19.3590 C   0  0  0  0  0  2  0  0  0  0  0  0
  -30.5050  -17.8880   19.0550 C   0  0  0  0  0  0  0  0  0  0  0  0
  -29.8320  -18.0980   20.9270 C   0  0  0  0  0  0  0  0  0  0  0  0
  -30.7560  -17.0220   20.3050 C   0  0  0  0  0  3  0  0  0  0  0  0
  -29.8920  -18.8970   19.7920 N   0  0  0  0  0  0  0  0  0  0  0  0
  -30.7390  -17.8020   17.8650 O   0  0  0  0  0  0  0  0  0  0  0  0
  -29.2590  -18.2610   21.9870 O   0  0  0  0  0  0  0  0  0  0  0  0
  -30.9150  -14.5240   19.8510 C   0  0  0  0  0  0  0  0  0  0  0  0
  -30.5350  -12.3010   18.8220 C   0  0  0  0  0  2  0  0  0  0  0  0
  -29.4950  -12.4450   17.6910 C   0  0  0  0  0  2  0  0  0  0  0  0
  -28.0610  -12.3300   18.2470 C   0  0  0  0  0  2  0  0  0  0  0  0
  -27.8310  -13.2130   19.5030 C   0  0  0  0  0  3  0  0  0  0  0  0
  -28.9780  -13.0450   20.5250 C   0  0  0  0  0  2  0  0  0  0  0  0
  -30.2390  -13.3380   19.8280 N   0  0  0  0  0  0  0  0  0  0  0  0
  -32.0440  -14.6400   19.3660 O   0  0  0  0  0  0  0  0  0  0  0  0
  -30.2280  -15.6180   20.2670 N   0  0  0  0  0  0  0  0  0  0  0  0
  -29.2880  -15.4820   20.6020 H   0  0  0  0  0  0  0  0  0  0  0  0
  -25.5560  -13.8770   20.4940 C   0  0  0  0  0  0  0  0  0  0  0  0
  -24.4920  -13.1340   20.9260 C   0  0  0  0  0  0  0  0  0  0  0  0
  -24.8770  -11.7670   20.7700 C   0  0  0  0  0  0  0  0  0  0  0  0
  -26.5240  -12.9660   20.1050 N   0  0  0  0  0  0  0  0  0  0  0  0
  -26.1260  -11.6880   20.3310 N   0  0  0  0  0  0  0  0  0  0  0  0
  -24.1070  -10.5300   20.9570 C   0  0  0  0  0  0  0  0  0  0  0  0
  -24.5470   -9.5100   21.8300 C   0  0  0  0  0  3  0  0  0  0  0  0
  -23.7800   -8.3390   22.0060 C   0  0  0  0  0  3  0  0  0  0  0  0
  -22.5570   -8.1800   21.3120 C   0  0  0  0  0  0  0  0  0  0  0  0
  -22.1350   -9.1880   20.4290 C   0  0  0  0  0  3  0  0  0  0  0  0
  -22.9010  -10.3510   20.2490 C   0  0  0  0  0  3  0  0  0  0  0  0
  -21.7590   -7.0650   21.4040 O   0  0  0  0  0  0  0  0  0  0  0  0
  -21.7080   -6.3070   22.5460 C   0  0  0  0  0  0  0  0  0  0  0  0
  -21.2900   -6.8490   23.7810 C   0  0  0  0  0  3  0  0  0  0  0  0
  -21.1870   -6.0180   24.9150 C   0  0  0  0  0  3  0  0  0  0  0  0
  -21.4910   -4.6460   24.8140 C   0  0  0  0  0  0  0  0  0  0  0  0
  -21.9010   -4.1050   23.5830 C   0  0  0  0  0  3  0  0  0  0  0  0
  -22.0070   -4.9330   22.4520 C   0  0  0  0  0  0  0  0  0  0  0  0
  -22.3830   -4.4030   21.2630 F   0  0  0  0  0  0  0  0  0  0  0  0
  -21.3840   -3.8460   25.9000 F   0  0  0  0  0  0  0  0  0  0  0  0
  -23.1540  -13.6580   21.3640 C   0  0  0  0  0  0  0  0  0  0  0  0
  -22.4790  -12.9460   22.2590 N   0  0  0  0  0  0  0  0  0  0  0  0
  -22.7220  -14.7320   20.9470 O   0  0  0  0  0  0  0  0  0  0  0  0
  -22.8450  -12.0760   22.6180 H   0  0  0  0  0  0  0  0  0  0  0  0
  -21.5850  -13.2770   22.5940 H   0  0  0  0  0  0  0  0  0  0  0  0
  -25.7720  -15.2480   20.3770 N   0  0  0  0  0  0  0  0  0  0  0  0
  -25.0420  -15.9210   20.5840 H   0  0  0  0  0  0  0  0  0  0  0  0
  -26.5760  -15.6640   19.9270 H   0  0  0  0  0  0  0  0  0  0  0  0
  -29.2700  -21.4340   20.3680 C   0  0  0  0  0  2  0  0  0  0  0  0
  -29.0190  -22.7080   19.6980 O   0  0  0  0  0  0  0  0  0  0  0  0
  -28.7270  -23.8870   20.5130 C   0  0  0  0  0  2  0  0  0  0  0  0
  -28.7430  -25.2490   19.7070 C   0  0  0  0  0  2  0  0  0  0  0  0
  -28.5340  -26.5110   20.4290 O   0  0  0  0  0  0  0  0  0  0  0  0
  -24.5800  -31.8130   23.2240 C   0  0  0  0  0  0  0  0  0  0  0  0
  -27.3590  -27.2600   20.3350 C   0  0  0  0  0  0  0  0  0  0  0  0
  -23.4480  -30.3700   21.5700 C   0  0  0  0  0  3  0  0  0  0  0  0
  -24.9620  -28.8090   20.2280 C   0  0  0  0  0  0  0  0  0  0  0  0
  -25.9850  -30.7240   21.4630 C   0  0  0  0  0  2  0  0  0  0  0  0
  -26.1000  -29.3350   20.8480 C   0  0  0  0  0  0  0  0  0  0  0  0
  -27.2970  -28.5700   20.8940 C   0  0  0  0  0  3  0  0  0  0  0  0
  -26.1880  -26.7640   19.7170 C   0  0  0  0  0  3  0  0  0  0  0  0
  -25.0040  -27.5250   19.6600 C   0  0  0  0  0  3  0  0  0  0  0  0
  -23.7150  -29.6660   20.2130 C   0  0  0  0  0  2  0  0  0  0  0  0
  -24.6870  -30.9870   22.1430 N   0  0  0  0  0  0  0  0  0  0  0  0
  -23.4780  -32.0870   23.7170 O   0  0  0  0  0  0  0  0  0  0  0  0
  -22.7660  -29.3640   22.5280 C   0  0  0  0  0  0  0  0  0  0  0  0
  -21.4420  -29.1890   22.3750 N   0  0  0  0  0  0  0  0  0  0  0  0
  -23.4250  -28.7450   23.3650 O   0  0  0  0  0  0  0  0  0  0  0  0
  -20.9700  -29.7410   21.6710 H   0  0  0  0  0  0  0  0  0  0  0  0
  -18.0510  -28.0270   22.8350 C   0  0  0  0  0  0  0  0  0  0  0  0
  -20.6060  -28.2600   23.1370 C   0  0  0  0  0  3  0  0  0  0  0  0
  -20.7020  -26.8270   22.5650 C   0  0  0  0  0  2  0  0  0  0  0  0
  -19.6090  -26.5130   21.5380 C   0  0  0  0  0  2  0  0  0  0  0  0
  -18.2220  -26.6740   22.1650 C   0  0  0  0  0  2  0  0  0  0  0  0
  -19.1710  -28.7790   23.2780 C   0  0  0  0  0  0  0  0  0  0  0  0
  -18.9580  -30.0450   23.8640 C   0  0  0  0  0  3  0  0  0  0  0  0
  -17.6560  -30.5600   24.0120 C   0  0  0  0  0  3  0  0  0  0  0  0
  -16.5490  -29.8060   23.5860 C   0  0  0  0  0  3  0  0  0  0  0  0
  -16.7480  -28.5410   23.0040 C   0  0  0  0  0  3  0  0  0  0  0  0
  -25.8350  -32.4720   23.8770 C   0  0  0  0  0  3  0  0  0  0  0  0
  -25.4940  -33.8670   24.1870 N   0  0  0  0  0  0  0  0  0  0  0  0
  -25.8140  -34.9170   23.4190 C   0  0  0  0  0  0  0  0  0  0  0  0
  -26.4970  -34.8140   22.3950 O   0  0  0  0  0  0  0  0  0  0  0  0
  -24.8870  -34.0200   24.9790 H   0  0  0  0  0  0  0  0  0  0  0  0
  -24.0480  -36.6660   23.0300 C   0  0  0  0  0  1  0  0  0  0  0  0
  -25.2930  -36.3010   23.8530 C   0  0  0  0  0  3  0  0  0  0  0  0
  -27.3970  -37.2510   24.6900 C   0  0  0  0  0  1  0  0  0  0  0  0
  -26.3030  -37.3740   23.7300 N   0  0  0  0  0  0  0  0  0  0  0  0
  -25.8750  -38.2880   23.8540 H   0  0  0  0  0  0  0  0  0  0  0  0
  -26.3260  -31.7200   25.1750 C   0  0  1  0  0  0  0  0  0  0  0  0
  -25.2050  -31.4660   26.2090 C   0  0  0  0  0  1  0  0  0  0  0  0
  -26.9510  -30.3530   24.8120 C   0  0  0  0  0  1  0  0  0  0  0  0
  -27.4380  -32.5440   25.8690 C   0  0  0  0  0  1  0  0  0  0  0  0
  1  5  1  0
  1 46  1  0
  2  5  1  0
  2  4  1  0
  3  7  2  0
  4 16  1  0
  4  3  1  0
  5  3  1  0
  6  2  2  0
  8 16  1  0
  9 14  1  0
 10 11  1  0
 10  9  1  0
 12 11  1  0
 12 21  1  0
 12 13  1  0
 14  8  1  0
 14 13  1  0
 15  8  2  0
 16 17  1  0
 18 19  2  0
 19 38  1  0
 20 19  1  0
 20 23  1  0
 21 22  1  0
 21 18  1  0
 22 20  2  0
 23 24  1  0
 24 25  2  0
 26 29  1  0
 26 25  1  0
 27 26  2  0
 28 27  1  0
 28 23  2  0
 29 30  1  0
 30 31  1  0
 31 32  2  0
 33 32  1  0
 33 37  1  0
 34 33  2  0
 35 30  2  0
 35 34  1  0
 36 35  1  0
 38 39  1  0
 39 42  1  0
 39 41  1  0
 40 38  2  0
 43 18  1  0
 43 44  1  0
 45 43  1  0
 47 46  1  0
 47 48  1  0
 49 50  1  0
 49 48  1  0
 51 62  2  0
 52 50  1  0
 52 57  1  0
 53 61  1  0
 53 63  1  0
 54 56  1  0
 55 61  1  0
 56 57  2  0
 56 55  1  0
 58 52  2  0
 59 58  1  0
 59 54  2  0
 60 54  1  0
 60 53  1  0
 61 51  1  0
 63 65  2  0
 64 63  1  0
 66 64  1  0
 67 76  2  0
 67 72  1  0
 68 64  1  0
 68 72  1  0
 69 68  1  0
 70 71  1  0
 70 69  1  0
 71 67  1  0
 72 73  2  0
 73 74  1  0
 75 74  2  0
 76 75  1  0
 77 51  1  0
 77 78  1  0
 77 87  1  0
 78 81  1  0
 79 83  1  0
 79 78  1  0
 80 79  2  0
 83 82  1  0
 85 83  1  0
 85 86  1  0
 85 84  1  0
 87 90  1  1
 87 88  1  0
 89 87  1  0
M  ISO  4   8 100  16 100  49 101  50 101
M  END
>  <TORSDO>  (6) 
F 21

>  <SCORE>  (6) 
-12.298

>  <name>  (6) 
5

>  <ligand_id>  (6) 
5

>  <original_smiles>  (6) 
[H]c1c([H])c([H])c2c(c1[H])C([H])([H])C([H])([H])C([H])([H])C2([H])N([H])C(=O)C1([H])N(C(=O)C([H])(N([H])C(=O)C([H])(N([H])C([H])([H])[H])C([H])([H])[H])C(C([H])([H])[H])(C([H])([H])[H])C([H])([H])[H])C([H])([H])c2c([H])c(OC([H])([H])C([H])([H])OC([H])([H])C([H])([H])N3C(=O)C([H])(N([H])C(=O)N4C([H])([H])C([H])([H])C([H])([H])C([H])(n5nc(-c6c([H])c([H])c(Oc7c([H])c([H])c(F)c([H])c7F)c([H])c6[H])c(C(=O)N([H])[H])c5N([H])[H])C4([H])[H])C3=O)c([H])c([H])c2C1([H])[H]

>  <smiles>  (6) 
[H]c1c([H])c([H])c2c(c1[H])C([H])([H])C([H])([H])C([H])([H])C2([H])N([H])C(=O)C1([H])N(C(=O)C([H])(N([H])C(=O)C([H])(N([H])C([H])([H])[H])C([H])([H])[H])C(C([H])([H])[H])(C([H])([H])[H])C([H])([H])[H])C([H])([H])c2c([H])c(OC([H])([H])C([H])([H])OC([H])([H])C([H])([H])N3C(=O)C([H])(N([H])C(=O)N4C([H])([H])C([H])([H])C([H])([H])C([H])(n5nc(-c6c([H])c([H])c(Oc7c([H])c([H])c(F)c([H])c7F)c([H])c6[H])c(C(=O)N([H])[H])c5N([H])[H])C4([H])[H])C3=O)c([H])c([H])c2C1([H])[H]

$$$$
6:0:0
     RDKit          3D

 96103  0  0  1  0  0  0  0  0999 V2000
  -30.7300  -19.4930   22.6670 C   0  0  0  0  0  0  0  0  0  0  0  0
  -31.4120  -21.2260   24.2280 C   0  0  0  0  0  1  0  0  0  0  0  0
  -29.9820  -19.1510   21.6140 N   0  0  0  0  0  0  0  0  0  0  0  0
  -30.7910  -20.8240   22.9570 N   0  0  0  0  0  0  0  0  0  0  0  0
  -31.2770  -18.6320   23.3640 O   0  0  0  0  0  0  0  0  0  0  0  0
  -29.6020  -19.8990   21.0560 H   0  0  0  0  0  0  0  0  0  0  0  0
  -30.1020  -21.9340   22.2550 C   0  0  0  0  0  2  0  0  0  0  0  0
  -30.9760  -23.2120   22.1220 C   0  0  0  0  0  2  0  0  0  0  0  0
  -30.1830  -24.4850   21.7350 C   0  0  0  0  0  2  0  0  0  0  0  0
  -31.0390  -25.7740   21.7810 C   0  0  0  0  0  2  0  0  0  0  0  0
  -30.2480  -27.0970   21.6530 C   0  0  0  0  0  2  0  0  0  0  0  0
  -29.5480  -27.1430   20.4130 O   0  0  0  0  0  0  0  0  0  0  0  0
  -24.9860  -31.7750   23.4040 C   0  0  0  0  0  0  0  0  0  0  0  0
  -28.3470  -27.8170   20.3870 C   0  0  0  0  0  0  0  0  0  0  0  0
  -24.0780  -30.3490   21.5960 C   0  0  0  0  0  3  0  0  0  0  0  0
  -25.8060  -29.0510   20.2400 C   0  0  0  0  0  0  0  0  0  0  0  0
  -26.5550  -30.9820   21.6410 C   0  0  0  0  0  2  0  0  0  0  0  0
  -26.8430  -29.6620   20.9580 C   0  0  0  0  0  0  0  0  0  0  0  0
  -28.1130  -29.0510   21.0390 C   0  0  0  0  0  3  0  0  0  0  0  0
  -27.3010  -27.2250   19.6500 C   0  0  0  0  0  3  0  0  0  0  0  0
  -26.0290  -27.8280   19.5820 C   0  0  0  0  0  3  0  0  0  0  0  0
  -24.4750  -29.7680   20.2110 C   0  0  0  0  0  2  0  0  0  0  0  0
  -25.2170  -31.0480   22.2740 N   0  0  0  0  0  0  0  0  0  0  0  0
  -23.8420  -31.9040   23.8590 O   0  0  0  0  0  0  0  0  0  0  0  0
  -23.4620  -29.2170   22.4470 C   0  0  0  0  0  0  0  0  0  0  0  0
  -22.1680  -28.9350   22.2210 N   0  0  0  0  0  0  0  0  0  0  0  0
  -24.1470  -28.5950   23.2650 O   0  0  0  0  0  0  0  0  0  0  0  0
  -21.6760  -29.4920   21.5370 H   0  0  0  0  0  0  0  0  0  0  0  0
  -18.8810  -27.4530   22.4330 C   0  0  0  0  0  0  0  0  0  0  0  0
  -21.3900  -27.8840   22.8750 C   0  0  0  0  0  3  0  0  0  0  0  0
  -21.6390  -26.5110   22.2100 C   0  0  0  0  0  2  0  0  0  0  0  0
  -20.6230  -26.1800   21.1120 C   0  0  0  0  0  2  0  0  0  0  0  0
  -19.2010  -26.1730   21.6800 C   0  0  0  0  0  2  0  0  0  0  0  0
  -19.9090  -28.2640   22.9800 C   0  0  0  0  0  0  0  0  0  0  0  0
  -19.5590  -29.4620   23.6400 C   0  0  0  0  0  3  0  0  0  0  0  0
  -18.2110  -29.8510   23.7610 C   0  0  0  0  0  3  0  0  0  0  0  0
  -17.1960  -29.0370   23.2310 C   0  0  0  0  0  3  0  0  0  0  0  0
  -17.5310  -27.8390   22.5730 C   0  0  0  0  0  3  0  0  0  0  0  0
  -26.1430  -32.4970   24.1630 C   0  0  0  0  0  3  0  0  0  0  0  0
  -25.7250  -33.8870   24.3880 N   0  0  0  0  0  0  0  0  0  0  0  0
  -26.0910  -34.9230   23.6240 C   0  0  0  0  0  0  0  0  0  0  0  0
  -26.8860  -34.8170   22.6850 O   0  0  0  0  0  0  0  0  0  0  0  0
  -25.0320  -34.0390   25.1070 H   0  0  0  0  0  0  0  0  0  0  0  0
  -24.3240  -36.5920   22.9830 C   0  0  0  0  0  1  0  0  0  0  0  0
  -25.4790  -36.2980   23.9520 C   0  0  0  0  0  3  0  0  0  0  0  0
  -27.4510  -37.3410   24.9780 C   0  0  0  0  0  1  0  0  0  0  0  0
  -26.4610  -37.4050   23.9080 N   0  0  0  0  0  0  0  0  0  0  0  0
  -25.9900  -38.3040   23.9640 H   0  0  0  0  0  0  0  0  0  0  0  0
  -26.5240  -31.7980   25.5260 C   0  0  1  0  0  0  0  0  0  0  0  0
  -25.3140  -31.5470   26.4550 C   0  0  0  0  0  1  0  0  0  0  0  0
  -27.2120  -30.4370   25.2680 C   0  0  0  0  0  1  0  0  0  0  0  0
  -27.5450  -32.6700   26.2950 C   0  0  0  0  0  1  0  0  0  0  0  0
  -29.5410  -17.7820   21.2950 C   0  0  0  0  0  3  0  0  0  0  0  0
  -31.3740  -14.4910   21.0930 C   0  0  0  0  0  0  0  0  0  0  0  0
  -31.4150  -12.0470   20.7410 C   0  0  0  0  0  2  0  0  0  0  0  0
  -30.7340  -11.7200   19.3960 C   0  0  0  0  0  2  0  0  0  0  0  0
  -29.2100  -11.5690   19.5740 C   0  0  0  0  0  2  0  0  0  0  0  0
  -28.5830  -12.7420   20.3760 C   0  0  0  0  0  3  0  0  0  0  0  0
  -29.3940  -13.0250   21.6630 C   0  0  0  0  0  2  0  0  0  0  0  0
  -30.7970  -13.2710   21.2770 N   0  0  0  0  0  0  0  0  0  0  0  0
  -32.5430  -14.6080   20.7100 O   0  0  0  0  0  0  0  0  0  0  0  0
  -30.7120  -16.8310   20.9350 C   0  0  0  0  0  0  0  0  0  0  0  0
  -30.5460  -15.5370   21.2820 N   0  0  0  0  0  0  0  0  0  0  0  0
  -31.7040  -17.2830   20.3510 O   0  0  0  0  0  0  0  0  0  0  0  0
  -29.6520  -15.3050   21.6820 H   0  0  0  0  0  0  0  0  0  0  0  0
  -26.1140  -13.3900   20.7230 C   0  0  0  0  0  0  0  0  0  0  0  0
  -24.9960  -12.6420   20.9720 C   0  0  0  0  0  0  0  0  0  0  0  0
  -25.4400  -11.2870   21.0480 C   0  0  0  0  0  0  0  0  0  0  0  0
  -27.1710  -12.4950   20.6690 N   0  0  0  0  0  0  0  0  0  0  0  0
  -26.7600  -11.2250   20.9180 N   0  0  0  0  0  0  0  0  0  0  0  0
  -24.6790  -10.0380   21.1790 C   0  0  0  0  0  0  0  0  0  0  0  0
  -25.0220   -9.0620   22.1400 C   0  0  0  0  0  3  0  0  0  0  0  0
  -24.2640   -7.8780   22.2580 C   0  0  0  0  0  3  0  0  0  0  0  0
  -23.1480   -7.6610   21.4160 C   0  0  0  0  0  0  0  0  0  0  0  0
  -22.8240   -8.6260   20.4460 C   0  0  0  0  0  3  0  0  0  0  0  0
  -23.5830   -9.8020   20.3240 C   0  0  0  0  0  3  0  0  0  0  0  0
  -22.3700   -6.5300   21.4420 O   0  0  0  0  0  0  0  0  0  0  0  0
  -22.1740   -5.8180   22.5980 C   0  0  0  0  0  0  0  0  0  0  0  0
  -21.6620   -6.4200   23.7670 C   0  0  0  0  0  3  0  0  0  0  0  0
  -21.4120   -5.6360   24.9110 C   0  0  0  0  0  3  0  0  0  0  0  0
  -21.6620   -4.2500   24.8850 C   0  0  0  0  0  0  0  0  0  0  0  0
  -22.1670   -3.6480   23.7190 C   0  0  0  0  0  3  0  0  0  0  0  0
  -22.4200   -4.4300   22.5790 C   0  0  0  0  0  0  0  0  0  0  0  0
  -22.8850   -3.8410   21.4510 F   0  0  0  0  0  0  0  0  0  0  0  0
  -21.4150   -3.4950   25.9820 F   0  0  0  0  0  0  0  0  0  0  0  0
  -23.5820  -13.1410   21.0370 C   0  0  0  0  0  0  0  0  0  0  0  0
  -22.7410  -12.5010   21.8410 N   0  0  0  0  0  0  0  0  0  0  0  0
  -23.2260  -14.1380   20.4090 O   0  0  0  0  0  0  0  0  0  0  0  0
  -23.0370  -11.6970   22.3760 H   0  0  0  0  0  0  0  0  0  0  0  0
  -21.7860  -12.8200   21.9250 H   0  0  0  0  0  0  0  0  0  0  0  0
  -26.3140  -14.7490   20.5150 N   0  0  0  0  0  0  0  0  0  0  0  0
  -25.5410  -15.4050   20.4940 H   0  0  0  0  0  0  0  0  0  0  0  0
  -27.1970  -15.1700   20.2600 H   0  0  0  0  0  0  0  0  0  0  0  0
  -27.2840  -18.7830   20.6340 C   0  0  0  0  0  1  0  0  0  0  0  0
  -28.9390  -18.2200   18.8110 C   0  0  0  0  0  1  0  0  0  0  0  0
  -28.4250  -17.8390   20.2150 C   0  0  0  0  0  3  0  0  0  0  0  0
  1  4  1  0
  1  5  2  0
  3  1  1  0
  4  2  1  0
  6  3  1  0
  7  4  1  0
  8  7  1  0
  9 10  1  0
  9  8  1  0
 11 10  1  0
 12 11  1  0
 13 24  2  0
 14 12  1  0
 14 19  1  0
 15 23  1  0
 15 25  1  0
 16 18  1  0
 17 23  1  0
 18 19  2  0
 18 17  1  0
 20 14  2  0
 21 20  1  0
 21 16  2  0
 22 16  1  0
 22 15  1  0
 23 13  1  0
 25 27  2  0
 26 25  1  0
 28 26  1  0
 29 38  2  0
 29 34  1  0
 30 26  1  0
 30 34  1  0
 31 30  1  0
 32 33  1  0
 32 31  1  0
 33 29  1  0
 34 35  2  0
 35 36  1  0
 37 36  2  0
 38 37  1  0
 39 13  1  0
 39 40  1  0
 39 49  1  0
 40 43  1  0
 41 45  1  0
 41 40  1  0
 42 41  2  0
 45 44  1  0
 47 45  1  0
 47 48  1  0
 47 46  1  0
 49 52  1  1
 49 50  1  0
 51 49  1  0
 53 96  1  0
 53  3  1  0
 54 60  1  0
 54 63  1  0
 55 60  1  0
 56 57  1  0
 56 55  1  0
 58 57  1  0
 58 69  1  0
 58 59  1  0
 60 59  1  0
 61 54  2  0
 62 63  1  0
 62 53  1  0
 63 65  1  0
 64 62  2  0
 66 67  2  0
 67 86  1  0
 67 68  1  0
 68 71  1  0
 69 66  1  0
 69 70  1  0
 70 68  2  0
 71 72  1  0
 72 73  2  0
 74 77  1  0
 74 73  1  0
 75 74  2  0
 76 75  1  0
 76 71  2  0
 77 78  1  0
 78 79  1  0
 79 80  2  0
 81 80  1  0
 81 85  1  0
 82 81  2  0
 83 78  2  0
 83 82  1  0
 84 83  1  0
 86 87  1  0
 87 90  1  0
 87 89  1  0
 88 86  2  0
 91 66  1  0
 92 91  1  0
 93 91  1  0
 95 96  1  0
 96 94  1  0
M  ISO  4  11 101  12 101  54 100  63 100
M  END
>  <TORSDO>  (7) 
F 23

>  <SCORE>  (7) 
-9.674

>  <name>  (7) 
6

>  <ligand_id>  (7) 
6

>  <original_smiles>  (7) 
[H]c1c([H])c([H])c2c(c1[H])C([H])([H])C([H])([H])C([H])([H])C2([H])N([H])C(=O)C1([H])N(C(=O)C([H])(N([H])C(=O)C([H])(N([H])C([H])([H])[H])C([H])([H])[H])C(C([H])([H])[H])(C([H])([H])[H])C([H])([H])[H])C([H])([H])c2c([H])c(OC([H])([H])C([H])([H])C([H])([H])C([H])([H])C([H])([H])N(C(=O)N([H])C([H])(C(=O)N([H])C(=O)N3C([H])([H])C([H])([H])C([H])([H])C([H])(n4nc(-c5c([H])c([H])c(Oc6c([H])c([H])c(F)c([H])c6F)c([H])c5[H])c(C(=O)N([H])[H])c4N([H])[H])C3([H])[H])C([H])(C([H])([H])[H])C([H])([H])[H])C([H])([H])[H])c([H])c([H])c2C1([H])[H]

>  <smiles>  (7) 
[H]c1c([H])c([H])c2c(c1[H])C([H])([H])C([H])([H])C([H])([H])C2([H])N([H])C(=O)C1([H])N(C(=O)C([H])(N([H])C(=O)C([H])(N([H])C([H])([H])[H])C([H])([H])[H])C(C([H])([H])[H])(C([H])([H])[H])C([H])([H])[H])C([H])([H])c2c([H])c(OC([H])([H])C([H])([H])C([H])([H])C([H])([H])C([H])([H])N(C(=O)N([H])C([H])(C(=O)N([H])C(=O)N3C([H])([H])C([H])([H])C([H])([H])C([H])(n4nc(-c5c([H])c([H])c(Oc6c([H])c([H])c(F)c([H])c6F)c([H])c5[H])c(C(=O)N([H])[H])c4N([H])[H])C3([H])[H])C([H])(C([H])([H])[H])C([H])([H])[H])C([H])([H])[H])c([H])c([H])c2C1([H])[H]

$$$$
7:0:0
     RDKit          3D

 92 99  0  0  1  0  0  0  0  0999 V2000
  -28.6880  -21.1240   21.2800 C   0  0  0  0  0  3  0  0  0  0  0  0
  -27.7460  -22.0720   21.1130 C   0  0  0  0  0  3  0  0  0  0  0  0
  -28.5460  -19.8230   20.6510 C   0  0  0  0  0  0  0  0  0  0  0  0
  -29.6980  -19.1430   20.6460 N   0  0  0  0  0  0  0  0  0  0  0  0
  -27.5170  -19.3890   20.1310 O   0  0  0  0  0  0  0  0  0  0  0  0
  -30.4890  -19.5330   21.1410 H   0  0  0  0  0  0  0  0  0  0  0  0
  -30.6330  -18.3400   18.5310 C   0  0  0  0  0  1  0  0  0  0  0  0
  -29.9440  -17.9480   19.8470 C   0  0  0  0  0  3  0  0  0  0  0  0
  -31.0510  -14.6000   20.2540 C   0  0  0  0  0  0  0  0  0  0  0  0
  -30.6110  -12.4520   19.1500 C   0  0  0  0  0  2  0  0  0  0  0  0
  -29.6800  -12.7150   17.9500 C   0  0  0  0  0  2  0  0  0  0  0  0
  -28.2170  -12.5700   18.4120 C   0  0  0  0  0  2  0  0  0  0  0  0
  -27.9020  -13.4200   19.6710 C   0  0  0  0  0  3  0  0  0  0  0  0
  -28.9770  -13.2720   20.7790 C   0  0  0  0  0  2  0  0  0  0  0  0
  -30.3010  -13.4720   20.1610 N   0  0  0  0  0  0  0  0  0  0  0  0
  -32.2040  -14.6720   19.8180 O   0  0  0  0  0  0  0  0  0  0  0  0
  -30.8260  -16.9470   20.5890 C   0  0  0  0  0  0  0  0  0  0  0  0
  -30.3630  -15.6920   20.6160 N   0  0  0  0  0  0  0  0  0  0  0  0
  -31.9140  -17.3090   21.0560 O   0  0  0  0  0  0  0  0  0  0  0  0
  -29.3650  -15.5810   20.5870 H   0  0  0  0  0  0  0  0  0  0  0  0
  -25.5360  -14.0420   20.4680 C   0  0  0  0  0  0  0  0  0  0  0  0
  -24.4700  -13.2790   20.8480 C   0  0  0  0  0  0  0  0  0  0  0  0
  -24.9020  -11.9210   20.7680 C   0  0  0  0  0  0  0  0  0  0  0  0
  -26.5600  -13.1510   20.1800 N   0  0  0  0  0  0  0  0  0  0  0  0
  -26.1830  -11.8680   20.4160 N   0  0  0  0  0  0  0  0  0  0  0  0
  -24.1570  -10.6690   20.9450 C   0  0  0  0  0  0  0  0  0  0  0  0
  -24.5750   -9.6850   21.8670 C   0  0  0  0  0  3  0  0  0  0  0  0
  -23.8310   -8.4960   22.0320 C   0  0  0  0  0  3  0  0  0  0  0  0
  -22.6520   -8.2870   21.2760 C   0  0  0  0  0  0  0  0  0  0  0  0
  -22.2530   -9.2610   20.3430 C   0  0  0  0  0  3  0  0  0  0  0  0
  -22.9990  -10.4410   20.1770 C   0  0  0  0  0  3  0  0  0  0  0  0
  -21.8770   -7.1550   21.3560 O   0  0  0  0  0  0  0  0  0  0  0  0
  -21.7990   -6.4150   22.5100 C   0  0  0  0  0  0  0  0  0  0  0  0
  -21.3240   -6.9680   23.7200 C   0  0  0  0  0  3  0  0  0  0  0  0
  -21.1920   -6.1540   24.8630 C   0  0  0  0  0  3  0  0  0  0  0  0
  -21.5230   -4.7860   24.7970 C   0  0  0  0  0  0  0  0  0  0  0  0
  -21.9900   -4.2330   23.5900 C   0  0  0  0  0  3  0  0  0  0  0  0
  -22.1240   -5.0450   22.4500 C   0  0  0  0  0  0  0  0  0  0  0  0
  -22.5550   -4.5010   21.2870 F   0  0  0  0  0  0  0  0  0  0  0  0
  -21.3900   -4.0010   25.8900 F   0  0  0  0  0  0  0  0  0  0  0  0
  -23.0880  -13.7770   21.1720 C   0  0  0  0  0  0  0  0  0  0  0  0
  -22.3700  -13.0780   22.0430 N   0  0  0  0  0  0  0  0  0  0  0  0
  -22.6580  -14.8210   20.6880 O   0  0  0  0  0  0  0  0  0  0  0  0
  -22.7260  -12.2290   22.4580 H   0  0  0  0  0  0  0  0  0  0  0  0
  -21.4470  -13.4020   22.2960 H   0  0  0  0  0  0  0  0  0  0  0  0
  -25.7170  -15.4150   20.3260 N   0  0  0  0  0  0  0  0  0  0  0  0
  -24.9550  -16.0640   20.4900 H   0  0  0  0  0  0  0  0  0  0  0  0
  -26.5340  -15.8650   19.9390 H   0  0  0  0  0  0  0  0  0  0  0  0
  -27.8340  -23.4750   21.6860 C   0  0  0  0  0  2  0  0  0  0  0  0
  -28.4570  -24.4740   20.6840 C   0  0  0  0  0  2  0  0  0  0  0  0
  -28.5630  -25.9060   21.2440 C   0  0  0  0  0  2  0  0  0  0  0  0
  -28.5490  -26.8780   20.1950 O   0  0  0  0  0  0  0  0  0  0  0  0
  -24.6120  -31.9280   23.2630 C   0  0  0  0  0  0  0  0  0  0  0  0
  -27.3840  -27.5990   20.1570 C   0  0  0  0  0  0  0  0  0  0  0  0
  -23.4590  -30.5290   21.5840 C   0  0  0  0  0  3  0  0  0  0  0  0
  -24.9620  -29.0430   20.1510 C   0  0  0  0  0  0  0  0  0  0  0  0
  -25.9760  -30.9420   21.4230 C   0  0  0  0  0  2  0  0  0  0  0  0
  -26.0970  -29.5810   20.7710 C   0  0  0  0  0  0  0  0  0  0  0  0
  -27.3130  -28.8650   20.7700 C   0  0  0  0  0  3  0  0  0  0  0  0
  -26.2410  -27.0690   19.5220 C   0  0  0  0  0  3  0  0  0  0  0  0
  -25.0290  -27.7900   19.5150 C   0  0  0  0  0  3  0  0  0  0  0  0
  -23.6990  -29.8710   20.1950 C   0  0  0  0  0  2  0  0  0  0  0  0
  -24.7020  -31.1470   22.1510 N   0  0  0  0  0  0  0  0  0  0  0  0
  -23.5180  -32.1740   23.7870 O   0  0  0  0  0  0  0  0  0  0  0  0
  -22.8170  -29.4780   22.5200 C   0  0  0  0  0  0  0  0  0  0  0  0
  -21.4940  -29.2950   22.3850 N   0  0  0  0  0  0  0  0  0  0  0  0
  -23.5030  -28.8400   23.3210 O   0  0  0  0  0  0  0  0  0  0  0  0
  -21.0020  -29.8800   21.7250 H   0  0  0  0  0  0  0  0  0  0  0  0
  -18.1210  -28.0790   22.8560 C   0  0  0  0  0  0  0  0  0  0  0  0
  -20.6790  -28.3300   23.1270 C   0  0  0  0  0  3  0  0  0  0  0  0
  -20.7780  -26.9220   22.5030 C   0  0  0  0  0  2  0  0  0  0  0  0
  -19.6780  -26.6420   21.4770 C   0  0  0  0  0  2  0  0  0  0  0  0
  -18.2990  -26.7560   22.1300 C   0  0  0  0  0  2  0  0  0  0  0  0
  -19.2390  -28.8310   23.3060 C   0  0  0  0  0  0  0  0  0  0  0  0
  -19.0210  -30.0760   23.9340 C   0  0  0  0  0  3  0  0  0  0  0  0
  -17.7150  -30.5690   24.1200 C   0  0  0  0  0  3  0  0  0  0  0  0
  -16.6110  -29.8120   23.6900 C   0  0  0  0  0  3  0  0  0  0  0  0
  -16.8160  -28.5680   23.0670 C   0  0  0  0  0  3  0  0  0  0  0  0
  -25.8740  -32.5750   23.9160 C   0  0  0  0  0  3  0  0  0  0  0  0
  -25.5500  -33.9760   24.2150 N   0  0  0  0  0  0  0  0  0  0  0  0
  -25.8960  -35.0170   23.4450 C   0  0  0  0  0  0  0  0  0  0  0  0
  -26.5990  -34.9000   22.4370 O   0  0  0  0  0  0  0  0  0  0  0  0
  -24.9400  -34.1400   25.0030 H   0  0  0  0  0  0  0  0  0  0  0  0
  -24.1790  -36.7980   22.9920 C   0  0  0  0  0  1  0  0  0  0  0  0
  -25.3840  -36.4090   23.8630 C   0  0  0  0  0  3  0  0  0  0  0  0
  -27.4760  -37.3130   24.7760 C   0  0  0  0  0  1  0  0  0  0  0  0
  -26.4190  -37.4620   23.7810 N   0  0  0  0  0  0  0  0  0  0  0  0
  -26.0030  -38.3830   23.8970 H   0  0  0  0  0  0  0  0  0  0  0  0
  -26.3560  -31.8250   25.2180 C   0  0  1  0  0  0  0  0  0  0  0  0
  -25.2340  -31.5860   26.2550 C   0  0  0  0  0  1  0  0  0  0  0  0
  -26.9620  -30.4510   24.8470 C   0  0  0  0  0  1  0  0  0  0  0  0
  -27.4770  -32.6390   25.9080 C   0  0  0  0  0  1  0  0  0  0  0  0
  2  1  2  0
  2 49  1  0
  3  1  1  0
  4  3  1  0
  4  6  1  0
  5  3  2  0
  8  7  1  0
  8 17  1  0
  8  4  1  0
  9 18  1  0
 10 15  1  0
 11 12  1  0
 11 10  1  0
 13 12  1  0
 13 24  1  0
 13 14  1  0
 15  9  1  0
 15 14  1  0
 16  9  2  0
 17 18  1  0
 17 19  2  0
 20 18  1  0
 21 22  2  0
 22 41  1  0
 23 22  1  0
 23 26  1  0
 24 25  1  0
 24 21  1  0
 25 23  2  0
 26 27  1  0
 27 28  2  0
 29 32  1  0
 29 28  1  0
 30 29  2  0
 31 30  1  0
 31 26  2  0
 32 33  1  0
 33 34  1  0
 34 35  2  0
 36 35  1  0
 36 40  1  0
 37 36  2  0
 38 33  2  0
 38 37  1  0
 39 38  1  0
 41 42  1  0
 42 45  1  0
 42 44  1  0
 43 41  2  0
 46 21  1  0
 46 47  1  0
 48 46  1  0
 50 51  1  0
 50 49  1  0
 52 51  1  0
 53 64  2  0
 54 52  1  0
 54 59  1  0
 55 63  1  0
 55 65  1  0
 56 62  1  0
 56 58  1  0
 57 63  1  0
 58 57  1  0
 59 58  2  0
 60 54  2  0
 61 60  1  0
 61 56  2  0
 62 55  1  0
 63 53  1  0
 65 67  2  0
 66 65  1  0
 68 66  1  0
 69 78  2  0
 69 74  1  0
 70 66  1  0
 70 74  1  0
 71 70  1  0
 72 73  1  0
 72 71  1  0
 73 69  1  0
 74 75  2  0
 75 76  1  0
 77 76  2  0
 78 77  1  0
 79 53  1  0
 79 80  1  0
 79 89  1  0
 80 83  1  0
 81 85  1  0
 81 80  1  0
 82 81  2  0
 85 84  1  0
 87 85  1  0
 87 88  1  0
 87 86  1  0
 89 92  1  1
 89 90  1  0
 91 89  1  0
M  ISO  4   9 100  18 100  51 101  52 101
M  END
>  <TORSDO>  (8) 
F 21

>  <SCORE>  (8) 
-13.508

>  <name>  (8) 
7

>  <ligand_id>  (8) 
7

>  <original_smiles>  (8) 
[H]C(C(=O)N([H])C([H])(C(=O)N([H])C(=O)N1C([H])([H])C([H])([H])C([H])([H])C([H])(n2nc(-c3c([H])c([H])c(Oc4c([H])c([H])c(F)c([H])c4F)c([H])c3[H])c(C(=O)N([H])[H])c2N([H])[H])C1([H])[H])C([H])([H])[H])=C([H])C([H])([H])C([H])([H])C([H])([H])Oc1c([H])c([H])c2c(c1[H])C([H])([H])N(C(=O)C([H])(N([H])C(=O)C([H])(N([H])C([H])([H])[H])C([H])([H])[H])C(C([H])([H])[H])(C([H])([H])[H])C([H])([H])[H])C([H])(C(=O)N([H])C1([H])c3c([H])c([H])c([H])c([H])c3C([H])([H])C([H])([H])C1([H])[H])C2([H])[H]

>  <smiles>  (8) 
[H]C(C(=O)N([H])C([H])(C(=O)N([H])C(=O)N1C([H])([H])C([H])([H])C([H])([H])C([H])(n2nc(-c3c([H])c([H])c(Oc4c([H])c([H])c(F)c([H])c4F)c([H])c3[H])c(C(=O)N([H])[H])c2N([H])[H])C1([H])[H])C([H])([H])[H])=C([H])C([H])([H])C([H])([H])C([H])([H])Oc1c([H])c([H])c2c(c1[H])C([H])([H])N(C(=O)C([H])(N([H])C(=O)C([H])(N([H])C([H])([H])[H])C([H])([H])[H])C(C([H])([H])[H])(C([H])([H])[H])C([H])([H])[H])C([H])(C(=O)N([H])C1([H])c3c([H])c([H])c([H])c([H])c3C([H])([H])C([H])([H])C1([H])[H])C2([H])[H]

$$$$
8:0:0
     RDKit          3D

 95102  0  0  1  0  0  0  0  0999 V2000
  -29.4080  -21.8970   20.5300 C   0  0  0  0  0  0  0  0  0  0  0  0
  -29.3550  -23.1150   19.9430 N   0  0  0  0  0  0  0  0  0  0  0  0
  -29.7210  -21.7210   21.7080 O   0  0  0  0  0  0  0  0  0  0  0  0
  -29.0550  -23.0840   18.9770 H   0  0  0  0  0  0  0  0  0  0  0  0
  -27.5030  -20.4430   19.5300 C   0  0  0  0  0  1  0  0  0  0  0  0
  -29.0200  -20.6800   19.6410 C   0  0  0  0  0  0  0  0  0  0  0  0
  -29.5240  -18.2200   20.3040 C   0  0  0  0  0  0  0  0  0  0  0  0
  -29.8110  -19.4290   19.7680 N   0  0  0  0  0  4  0  0  0  0  0  0
  -28.5400  -18.0040   21.0130 O   0  0  0  0  0  0  0  0  0  0  0  0
  -30.6760  -19.4550   19.2470 H   0  0  0  0  0  0  0  0  0  0  0  0
  -30.6570  -17.0000   18.3740 C   0  0  0  0  0  1  0  0  0  0  0  0
  -30.4620  -17.0430   19.9130 C   0  0  0  0  0  3  0  0  0  0  0  0
  -30.7340  -14.5700   20.3080 C   0  0  0  0  0  0  0  0  0  0  0  0
  -30.4150  -12.3730   19.2610 C   0  0  0  0  0  2  0  0  0  0  0  0
  -29.4860  -12.5600   18.0450 C   0  0  0  0  0  2  0  0  0  0  0  0
  -28.0090  -12.4360   18.4670 C   0  0  0  0  0  2  0  0  0  0  0  0
  -27.6660  -13.2920   19.7180 C   0  0  0  0  0  3  0  0  0  0  0  0
  -28.7240  -13.1250   20.8340 C   0  0  0  0  0  2  0  0  0  0  0  0
  -30.0400  -13.4020   20.2440 N   0  0  0  0  0  0  0  0  0  0  0  0
  -31.9240  -14.6420   19.9970 O   0  0  0  0  0  0  0  0  0  0  0  0
  -30.0020  -15.7070   20.3890 N   0  0  0  0  0  0  0  0  0  0  0  0
  -29.0300  -15.6410   20.6480 H   0  0  0  0  0  0  0  0  0  0  0  0
  -25.2640  -13.8970   20.4150 C   0  0  0  0  0  0  0  0  0  0  0  0
  -24.1980  -13.1270   20.7970 C   0  0  0  0  0  0  0  0  0  0  0  0
  -24.6650  -11.7770   20.7900 C   0  0  0  0  0  0  0  0  0  0  0  0
  -26.3140  -13.0160   20.2030 N   0  0  0  0  0  0  0  0  0  0  0  0
  -25.9570  -11.7380   20.4870 N   0  0  0  0  0  0  0  0  0  0  0  0
  -23.9390  -10.5160   20.9980 C   0  0  0  0  0  0  0  0  0  0  0  0
  -24.3770   -9.5590   21.9410 C   0  0  0  0  0  3  0  0  0  0  0  0
  -23.6540   -8.3630   22.1320 C   0  0  0  0  0  3  0  0  0  0  0  0
  -22.4790   -8.1130   21.3810 C   0  0  0  0  0  0  0  0  0  0  0  0
  -22.0630   -9.0570   20.4270 C   0  0  0  0  0  3  0  0  0  0  0  0
  -22.7860  -10.2470   20.2350 C   0  0  0  0  0  3  0  0  0  0  0  0
  -21.7250   -6.9690   21.4870 O   0  0  0  0  0  0  0  0  0  0  0  0
  -21.6860   -6.2360   22.6460 C   0  0  0  0  0  0  0  0  0  0  0  0
  -21.2680   -6.7990   23.8720 C   0  0  0  0  0  3  0  0  0  0  0  0
  -21.1770   -5.9910   25.0230 C   0  0  0  0  0  3  0  0  0  0  0  0
  -21.4910   -4.6200   24.9490 C   0  0  0  0  0  0  0  0  0  0  0  0
  -21.9010   -4.0570   23.7290 C   0  0  0  0  0  3  0  0  0  0  0  0
  -21.9970   -4.8630   22.5800 C   0  0  0  0  0  0  0  0  0  0  0  0
  -22.3710   -4.3100   21.4020 F   0  0  0  0  0  0  0  0  0  0  0  0
  -21.3970   -3.8420   26.0530 F   0  0  0  0  0  0  0  0  0  0  0  0
  -22.7980  -13.6030   21.0570 C   0  0  0  0  0  0  0  0  0  0  0  0
  -22.0720  -12.9200   21.9350 N   0  0  0  0  0  0  0  0  0  0  0  0
  -22.3590  -14.6210   20.5210 O   0  0  0  0  0  0  0  0  0  0  0  0
  -22.4370  -12.0990   22.3920 H   0  0  0  0  0  0  0  0  0  0  0  0
  -21.1330  -13.2210   22.1530 H   0  0  0  0  0  0  0  0  0  0  0  0
  -25.4240  -15.2640   20.2150 N   0  0  0  0  0  0  0  0  0  0  0  0
  -24.6520  -15.9160   20.3060 H   0  0  0  0  0  0  0  0  0  0  0  0
  -26.2730  -15.7060   19.8900 H   0  0  0  0  0  0  0  0  0  0  0  0
  -30.5410  -24.6230   21.6370 C   0  0  0  0  0  1  0  0  0  0  0  0
  -29.5820  -24.5050   20.4330 C   0  0  0  0  0  3  0  0  0  0  0  0
  -28.2660  -25.3020   20.6400 C   0  0  0  0  0  0  0  0  0  0  0  0
  -27.2680  -24.7990   21.1710 O   0  0  0  0  0  0  0  0  0  0  0  0
  -28.3470  -26.6150   20.1810 O   0  0  0  0  0  0  0  0  0  0  0  0
  -24.5750  -31.8730   23.2240 C   0  0  0  0  0  0  0  0  0  0  0  0
  -27.2110  -27.4090   20.1520 C   0  0  0  0  0  0  0  0  0  0  0  0
  -23.3720  -30.4750   21.5780 C   0  0  0  0  0  3  0  0  0  0  0  0
  -24.8240  -28.9440   20.1470 C   0  0  0  0  0  0  0  0  0  0  0  0
  -25.8990  -30.8270   21.3870 C   0  0  0  0  0  2  0  0  0  0  0  0
  -25.9840  -29.4540   20.7460 C   0  0  0  0  0  0  0  0  0  0  0  0
  -27.1810  -28.6940   20.7500 C   0  0  0  0  0  3  0  0  0  0  0  0
  -26.0360  -26.9340   19.5240 C   0  0  0  0  0  3  0  0  0  0  0  0
  -24.8460  -27.6820   19.5310 C   0  0  0  0  0  3  0  0  0  0  0  0
  -23.5830  -29.8040   20.1960 C   0  0  0  0  0  2  0  0  0  0  0  0
  -24.6330  -31.0740   22.1200 N   0  0  0  0  0  0  0  0  0  0  0  0
  -23.4930  -32.1430   23.7650 O   0  0  0  0  0  0  0  0  0  0  0  0
  -22.7160  -29.4500   22.5360 C   0  0  0  0  0  0  0  0  0  0  0  0
  -21.3900  -29.2750   22.4160 N   0  0  0  0  0  0  0  0  0  0  0  0
  -23.4000  -28.8160   23.3440 O   0  0  0  0  0  0  0  0  0  0  0  0
  -20.8970  -29.8390   21.7370 H   0  0  0  0  0  0  0  0  0  0  0  0
  -18.0140  -28.0960   22.9260 C   0  0  0  0  0  0  0  0  0  0  0  0
  -20.5730  -28.3360   23.1840 C   0  0  0  0  0  3  0  0  0  0  0  0
  -20.6650  -26.9090   22.5940 C   0  0  0  0  0  2  0  0  0  0  0  0
  -19.5550  -26.6000   21.5850 C   0  0  0  0  0  2  0  0  0  0  0  0
  -18.1780  -26.7500   22.2380 C   0  0  0  0  0  2  0  0  0  0  0  0
  -19.1400  -28.8470   23.3550 C   0  0  0  0  0  0  0  0  0  0  0  0
  -18.9320  -30.1080   23.9560 C   0  0  0  0  0  3  0  0  0  0  0  0
  -17.6320  -30.6170   24.1350 C   0  0  0  0  0  3  0  0  0  0  0  0
  -16.5200  -29.8620   23.7230 C   0  0  0  0  0  3  0  0  0  0  0  0
  -16.7110  -28.6030   23.1250 C   0  0  0  0  0  3  0  0  0  0  0  0
  -25.8610  -32.5020   23.8460 C   0  0  0  0  0  3  0  0  0  0  0  0
  -25.5570  -33.9020   24.1740 N   0  0  0  0  0  0  0  0  0  0  0  0
  -25.8940  -34.9520   23.4150 C   0  0  0  0  0  0  0  0  0  0  0  0
  -26.5690  -34.8470   22.3870 O   0  0  0  0  0  0  0  0  0  0  0  0
  -24.9700  -34.0590   24.9800 H   0  0  0  0  0  0  0  0  0  0  0  0
  -24.1800  -36.7540   23.0370 C   0  0  0  0  0  1  0  0  0  0  0  0
  -25.4060  -36.3410   23.8670 C   0  0  0  0  0  3  0  0  0  0  0  0
  -27.5310  -37.2160   24.7310 C   0  0  0  0  0  1  0  0  0  0  0  0
  -26.4440  -37.3910   23.7720 N   0  0  0  0  0  0  0  0  0  0  0  0
  -26.0400  -38.3120   23.9180 H   0  0  0  0  0  0  0  0  0  0  0  0
  -26.3780  -31.7310   25.1230 C   0  0  1  0  0  0  0  0  0  0  0  0
  -25.2850  -31.4930   26.1910 C   0  0  0  0  0  1  0  0  0  0  0  0
  -26.9610  -30.3520   24.7300 C   0  0  0  0  0  1  0  0  0  0  0  0
  -27.5290  -32.5230   25.7860 C   0  0  0  0  0  1  0  0  0  0  0  0
  1  3  2  0
  2 52  1  0
  2  1  1  0
  4  2  1  0
  5  6  1  0
  6  8  2  0
  6  1  1  0
  7  9  2  0
  8  7  1  0
 10  8  1  0
 12 11  1  0
 12  7  1  0
 12 21  1  0
 13 21  1  0
 14 19  1  0
 15 16  1  0
 15 14  1  0
 17 16  1  0
 17 26  1  0
 17 18  1  0
 19 13  1  0
 19 18  1  0
 20 13  2  0
 21 22  1  0
 23 24  2  0
 24 43  1  0
 25 24  1  0
 25 28  1  0
 26 23  1  0
 26 27  1  0
 27 25  2  0
 28 29  1  0
 29 30  2  0
 31 34  1  0
 31 30  1  0
 32 31  2  0
 33 32  1  0
 33 28  2  0
 34 35  1  0
 35 36  1  0
 36 37  2  0
 38 37  1  0
 38 42  1  0
 39 38  2  0
 40 35  2  0
 40 39  1  0
 41 40  1  0
 43 44  1  0
 44 47  1  0
 44 46  1  0
 45 43  2  0
 48 49  1  0
 48 23  1  0
 50 48  1  0
 52 53  1  0
 52 51  1  0
 53 54  2  0
 55 53  1  0
 56 67  2  0
 57 55  1  0
 57 62  1  0
 58 66  1  0
 58 68  1  0
 59 65  1  0
 59 61  1  0
 60 66  1  0
 61 62  2  0
 61 60  1  0
 63 64  1  0
 63 57  2  0
 64 59  2  0
 65 58  1  0
 66 56  1  0
 68 70  2  0
 69 68  1  0
 71 69  1  0
 72 81  2  0
 72 77  1  0
 73 69  1  0
 73 77  1  0
 74 73  1  0
 75 76  1  0
 75 74  1  0
 76 72  1  0
 77 78  2  0
 78 79  1  0
 80 79  2  0
 81 80  1  0
 82 56  1  0
 82 83  1  0
 82 92  1  0
 83 86  1  0
 84 88  1  0
 84 83  1  0
 85 84  2  0
 88 87  1  0
 90 88  1  0
 90 91  1  0
 90 89  1  0
 92 95  1  1
 92 93  1  0
 94 92  1  0
M  ISO  4  13 100  21 100  53 101  55 101
M  END
>  <TORSDO>  (9) 
F 21

>  <SCORE>  (9) 
-13.361

>  <name>  (9) 
8

>  <ligand_id>  (9) 
8

>  <original_smiles>  (9) 
[H]c1c([H])c([H])c2c(c1[H])C([H])([H])C([H])([H])C([H])([H])C2([H])N([H])C(=O)C1([H])N(C(=O)C([H])(N([H])C(=O)C([H])(N([H])C([H])([H])[H])C([H])([H])[H])C(C([H])([H])[H])(C([H])([H])[H])C([H])([H])[H])C([H])([H])c2c([H])c(OC(=O)C([H])(N([H])C(=O)C([H])(N([H])C(=O)C([H])(N([H])C(=O)N3C([H])([H])C([H])([H])C([H])([H])C([H])(n4nc(-c5c([H])c([H])c(Oc6c([H])c([H])c(F)c([H])c6F)c([H])c5[H])c(C(=O)N([H])[H])c4N([H])[H])C3([H])[H])C([H])([H])[H])C([H])([H])[H])C([H])([H])[H])c([H])c([H])c2C1([H])[H]

>  <smiles>  (9) 
[H]c1c([H])c([H])c2c(c1[H])C([H])([H])C([H])([H])C([H])([H])C2([H])N([H])C(=O)C1([H])N(C(=O)C([H])(N([H])C(=O)C([H])(N([H])C([H])([H])[H])C([H])([H])[H])C(C([H])([H])[H])(C([H])([H])[H])C([H])([H])[H])C([H])([H])c2c([H])c(OC(=O)C([H])(N([H])C(=O)C([H])(N([H])C(=O)C([H])(N([H])C(=O)N3C([H])([H])C([H])([H])C([H])([H])C([H])(n4nc(-c5c([H])c([H])c(Oc6c([H])c([H])c(F)c([H])c6F)c([H])c5[H])c(C(=O)N([H])[H])c4N([H])[H])C3([H])[H])C([H])([H])[H])C([H])([H])[H])C([H])([H])[H])c([H])c([H])c2C1([H])[H]

$$$$
9:0:0
     RDKit          3D

100107  0  0  1  0  0  0  0  0999 V2000
  -26.4000  -20.9440   18.8830 C   0  0  0  0  0  0  0  0  0  0  0  0
  -26.1550  -19.7290   19.3860 N   0  0  0  0  0  0  0  0  0  0  0  0
  -26.6830  -21.1700   17.7020 O   0  0  0  0  0  0  0  0  0  0  0  0
  -25.9040  -19.7020   20.3670 H   0  0  0  0  0  0  0  0  0  0  0  0
  -26.4160  -22.0800   19.9380 C   0  0  0  0  0  0  0  0  0  0  0  0
  -27.3640  -22.9940   19.7200 N   0  0  0  0  0  0  0  0  0  0  0  0
  -25.6620  -22.0690   20.9150 O   0  0  0  0  0  0  0  0  0  0  0  0
  -27.8960  -22.8670   18.8680 H   0  0  0  0  0  0  0  0  0  0  0  0
  -27.8020  -24.0070   20.6720 C   0  0  0  0  0  2  0  0  0  0  0  0
  -29.0610  -24.7210   20.1520 C   0  0  0  0  0  2  0  0  0  0  0  0
  -28.7830  -25.7710   19.0610 C   0  0  0  0  0  2  0  0  0  0  0  0
  -28.5400  -27.0260   19.6820 O   0  0  0  0  0  0  0  0  0  0  0  0
  -24.6170  -31.8310   23.0680 C   0  0  0  0  0  0  0  0  0  0  0  0
  -27.2870  -27.5970   19.7490 C   0  0  0  0  0  0  0  0  0  0  0  0
  -23.3910  -30.4530   21.4160 C   0  0  0  0  0  3  0  0  0  0  0  0
  -24.8360  -28.9960   19.9010 C   0  0  0  0  0  0  0  0  0  0  0  0
  -25.8940  -30.8920   21.1510 C   0  0  0  0  0  2  0  0  0  0  0  0
  -25.9930  -29.5460   20.4670 C   0  0  0  0  0  0  0  0  0  0  0  0
  -27.2130  -28.8450   20.3970 C   0  0  0  0  0  3  0  0  0  0  0  0
  -26.1080  -27.0400   19.2000 C   0  0  0  0  0  3  0  0  0  0  0  0
  -24.8860  -27.7370   19.2760 C   0  0  0  0  0  3  0  0  0  0  0  0
  -23.5730  -29.8190   20.0080 C   0  0  0  0  0  2  0  0  0  0  0  0
  -24.6520  -31.0730   21.9370 N   0  0  0  0  0  0  0  0  0  0  0  0
  -23.5480  -32.0570   23.6540 O   0  0  0  0  0  0  0  0  0  0  0  0
  -22.7990  -29.3850   22.3620 C   0  0  0  0  0  0  0  0  0  0  0  0
  -21.4740  -29.1830   22.2780 N   0  0  0  0  0  0  0  0  0  0  0  0
  -23.5270  -28.7440   23.1240 O   0  0  0  0  0  0  0  0  0  0  0  0
  -20.9460  -29.7540   21.6330 H   0  0  0  0  0  0  0  0  0  0  0  0
  -18.1410  -27.9180   22.8540 C   0  0  0  0  0  0  0  0  0  0  0  0
  -20.7040  -28.2020   23.0400 C   0  0  0  0  0  3  0  0  0  0  0  0
  -20.8060  -26.7970   22.4010 C   0  0  0  0  0  2  0  0  0  0  0  0
  -19.6710  -26.5000   21.4170 C   0  0  0  0  0  2  0  0  0  0  0  0
  -18.3120  -26.5990   22.1170 C   0  0  0  0  0  2  0  0  0  0  0  0
  -19.2660  -28.6790   23.2710 C   0  0  0  0  0  0  0  0  0  0  0  0
  -19.0530  -29.9200   23.9130 C   0  0  0  0  0  3  0  0  0  0  0  0
  -17.7490  -30.3920   24.1480 C   0  0  0  0  0  3  0  0  0  0  0  0
  -16.6400  -29.6280   23.7450 C   0  0  0  0  0  3  0  0  0  0  0  0
  -16.8380  -28.3920   23.1020 C   0  0  0  0  0  3  0  0  0  0  0  0
  -25.9090  -32.4690   23.6700 C   0  0  0  0  0  3  0  0  0  0  0  0
  -26.5040  -31.6490   24.8790 C   0  0  1  0  0  0  0  0  0  0  0  0
  -25.4700  -31.3280   25.9830 C   0  0  0  0  0  1  0  0  0  0  0  0
  -27.1030  -30.3110   24.3850 C   0  0  0  0  0  1  0  0  0  0  0  0
  -27.6570  -32.4440   25.5340 C   0  0  0  0  0  1  0  0  0  0  0  0
  -25.5760  -33.8380   24.0810 N   0  0  0  0  0  0  0  0  0  0  0  0
  -25.8490  -34.9370   23.3650 C   0  0  0  0  0  0  0  0  0  0  0  0
  -26.4840  -34.9070   22.3060 O   0  0  0  0  0  0  0  0  0  0  0  0
  -25.0080  -33.9360   24.9110 H   0  0  0  0  0  0  0  0  0  0  0  0
  -24.0540  -36.6860   23.1650 C   0  0  0  0  0  1  0  0  0  0  0  0
  -25.3390  -36.2850   23.9100 C   0  0  0  0  0  3  0  0  0  0  0  0
  -27.4750  -37.1970   24.7040 C   0  0  0  0  0  1  0  0  0  0  0  0
  -26.3330  -37.3760   23.8110 N   0  0  0  0  0  0  0  0  0  0  0  0
  -25.9020  -38.2720   24.0210 H   0  0  0  0  0  0  0  0  0  0  0  0
  -26.3650  -18.4680   18.6880 C   0  0  0  0  0  2  0  0  0  0  0  0
  -27.8680  -18.1640   18.5050 C   0  0  0  0  0  2  0  0  0  0  0  0
  -28.6360  -17.9360   19.8240 C   0  0  0  0  0  2  0  0  0  0  0  0
  -30.1490  -17.7400   19.5970 C   0  0  0  0  0  2  0  0  0  0  0  0
  -30.9240  -17.1040   20.7790 C   0  0  0  0  0  3  0  0  0  0  0  0
  -31.2880  -14.6630   20.3670 C   0  0  0  0  0  0  0  0  0  0  0  0
  -31.0230  -12.4090   19.4130 C   0  0  0  0  0  2  0  0  0  0  0  0
  -30.1300  -12.5100   18.1600 C   0  0  0  0  0  2  0  0  0  0  0  0
  -28.6350  -12.4340   18.5360 C   0  0  0  0  0  2  0  0  0  0  0  0
  -28.2630  -13.3920   19.7020 C   0  0  0  0  0  3  0  0  0  0  0  0
  -29.2660  -13.2450   20.8660 C   0  0  0  0  0  2  0  0  0  0  0  0
  -30.6210  -13.4820   20.3350 N   0  0  0  0  0  0  0  0  0  0  0  0
  -32.3940  -14.8320   19.8430 O   0  0  0  0  0  0  0  0  0  0  0  0
  -30.6000  -15.6810   20.8960 N   0  0  0  0  0  0  0  0  0  0  0  0
  -29.7340  -15.4690   21.3670 H   0  0  0  0  0  0  0  0  0  0  0  0
  -25.8820  -14.1100   20.3760 C   0  0  0  0  0  0  0  0  0  0  0  0
  -24.7730  -13.3900   20.7240 C   0  0  0  0  0  0  0  0  0  0  0  0
  -25.1680  -12.0180   20.6870 C   0  0  0  0  0  0  0  0  0  0  0  0
  -26.8880  -13.1820   20.1520 N   0  0  0  0  0  0  0  0  0  0  0  0
  -26.4580  -11.9170   20.3940 N   0  0  0  0  0  0  0  0  0  0  0  0
  -24.3800  -10.7930   20.8570 C   0  0  0  0  0  0  0  0  0  0  0  0
  -24.7340   -9.8110   21.8100 C   0  0  0  0  0  3  0  0  0  0  0  0
  -23.9460   -8.6510   21.9690 C   0  0  0  0  0  3  0  0  0  0  0  0
  -22.7900   -8.4630   21.1750 C   0  0  0  0  0  0  0  0  0  0  0  0
  -22.4540   -9.4330   20.2160 C   0  0  0  0  0  3  0  0  0  0  0  0
  -23.2420  -10.5840   20.0540 C   0  0  0  0  0  3  0  0  0  0  0  0
  -21.9780   -7.3550   21.2420 O   0  0  0  0  0  0  0  0  0  0  0  0
  -21.8290   -6.6420   22.4060 C   0  0  0  0  0  0  0  0  0  0  0  0
  -21.3720   -7.2470   23.5980 C   0  0  0  0  0  3  0  0  0  0  0  0
  -21.1630   -6.4620   24.7490 C   0  0  0  0  0  3  0  0  0  0  0  0
  -21.4050   -5.0760   24.7110 C   0  0  0  0  0  0  0  0  0  0  0  0
  -21.8570   -4.4720   23.5240 C   0  0  0  0  0  3  0  0  0  0  0  0
  -22.0660   -5.2540   22.3740 C   0  0  0  0  0  0  0  0  0  0  0  0
  -22.4800   -4.6640   21.2280 F   0  0  0  0  0  0  0  0  0  0  0  0
  -21.1980   -4.3210   25.8150 F   0  0  0  0  0  0  0  0  0  0  0  0
  -23.3970  -13.9350   20.9810 C   0  0  0  0  0  0  0  0  0  0  0  0
  -22.6280  -13.2780   21.8430 N   0  0  0  0  0  0  0  0  0  0  0  0
  -23.0120  -14.9760   20.4510 O   0  0  0  0  0  0  0  0  0  0  0  0
  -22.9500  -12.4370   22.2970 H   0  0  0  0  0  0  0  0  0  0  0  0
  -21.7030  -13.6240   22.0520 H   0  0  0  0  0  0  0  0  0  0  0  0
  -26.1120  -15.4700   20.2110 N   0  0  0  0  0  0  0  0  0  0  0  0
  -25.3750  -16.1540   20.3260 H   0  0  0  0  0  0  0  0  0  0  0  0
  -26.9860  -15.8720   19.9030 H   0  0  0  0  0  0  0  0  0  0  0  0
  -30.7430  -17.8100   22.1290 C   0  0  0  0  0  0  0  0  0  0  0  0
  -31.2290  -19.0380   22.2560 N   0  0  0  0  0  0  0  0  0  0  0  0
  -30.1590  -17.2560   23.0580 O   0  0  0  0  0  0  0  0  0  0  0  0
  -31.7080  -19.4870   21.4880 H   0  0  0  0  0  0  0  0  0  0  0  0
  -31.1180  -19.5420   23.1250 H   0  0  0  0  0  0  0  0  0  0  0  0
  1  2  1  0
  1  5  1  0
  2  4  1  0
  3  1  2  0
  5  7  2  0
  6  5  1  0
  6  9  1  0
  8  6  1  0
 10  9  1  0
 11 12  1  0
 11 10  1  0
 12 14  1  0
 13 24  2  0
 14 19  1  0
 15 23  1  0
 15 25  1  0
 16 22  1  0
 16 18  1  0
 17 23  1  0
 18 17  1  0
 19 18  2  0
 20 21  1  0
 20 14  2  0
 21 16  2  0
 22 15  1  0
 23 13  1  0
 25 27  2  0
 26 25  1  0
 28 26  1  0
 29 38  2  0
 29 34  1  0
 30 26  1  0
 30 34  1  0
 31 30  1  0
 32 33  1  0
 32 31  1  0
 33 29  1  0
 34 35  2  0
 35 36  1  0
 37 36  2  0
 38 37  1  0
 39 13  1  0
 39 44  1  0
 39 40  1  0
 40 43  1  1
 40 41  1  0
 42 40  1  0
 44 47  1  0
 45 49  1  0
 45 44  1  0
 46 45  2  0
 49 48  1  0
 51 49  1  0
 51 52  1  0
 51 50  1  0
 53  2  1  0
 54 53  1  0
 54 55  1  0
 56 55  1  0
 57 56  1  0
 57 66  1  0
 57 96  1  0
 58 66  1  0
 59 64  1  0
 60 61  1  0
 60 59  1  0
 62 61  1  0
 62 71  1  0
 62 63  1  0
 64 58  1  0
 64 63  1  0
 65 58  2  0
 66 67  1  0
 68 69  2  0
 69 88  1  0
 70 69  1  0
 70 73  1  0
 71 68  1  0
 71 72  1  0
 72 70  2  0
 73 74  1  0
 74 75  2  0
 76 79  1  0
 76 75  1  0
 77 76  2  0
 78 77  1  0
 78 73  2  0
 79 80  1  0
 80 81  1  0
 81 82  2  0
 83 82  1  0
 83 87  1  0
 84 83  2  0
 85 80  2  0
 85 84  1  0
 86 85  1  0
 88 89  1  0
 89 92  1  0
 89 91  1  0
 90 88  2  0
 93 94  1  0
 93 68  1  0
 95 93  1  0
 96 97  1  0
 96 98  2  0
 97100  1  0
 99 97  1  0
M  ISO  4  11 101  12 101  58 100  66 100
M  END
>  <TORSDO>  (10) 
F 26

>  <SCORE>  (10) 
-9.776

>  <name>  (10) 
9

>  <ligand_id>  (10) 
9

>  <original_smiles>  (10) 
[H]c1c([H])c([H])c2c(c1[H])C([H])([H])C([H])([H])C([H])([H])C2([H])N([H])C(=O)C1([H])N(C(=O)C([H])(N([H])C(=O)C([H])(N([H])C([H])([H])[H])C([H])([H])[H])C(C([H])([H])[H])(C([H])([H])[H])C([H])([H])[H])C([H])([H])c2c([H])c(OC([H])([H])C([H])([H])C([H])([H])N([H])C(=O)C(=O)N([H])C([H])([H])C([H])([H])C([H])([H])C([H])([H])C([H])(C(=O)N([H])[H])N([H])C(=O)N3C([H])([H])C([H])([H])C([H])([H])C([H])(n4nc(-c5c([H])c([H])c(Oc6c([H])c([H])c(F)c([H])c6F)c([H])c5[H])c(C(=O)N([H])[H])c4N([H])[H])C3([H])[H])c([H])c([H])c2C1([H])[H]

>  <smiles>  (10) 
[H]c1c([H])c([H])c2c(c1[H])C([H])([H])C([H])([H])C([H])([H])C2([H])N([H])C(=O)C1([H])N(C(=O)C([H])(N([H])C(=O)C([H])(N([H])C([H])([H])[H])C([H])([H])[H])C(C([H])([H])[H])(C([H])([H])[H])C([H])([H])[H])C([H])([H])c2c([H])c(OC([H])([H])C([H])([H])C([H])([H])N([H])C(=O)C(=O)N([H])C([H])([H])C([H])([H])C([H])([H])C([H])([H])C([H])(C(=O)N([H])[H])N([H])C(=O)N3C([H])([H])C([H])([H])C([H])([H])C([H])(n4nc(-c5c([H])c([H])c(Oc6c([H])c([H])c(F)c([H])c6F)c([H])c5[H])c(C(=O)N([H])[H])c4N([H])[H])C3([H])[H])c([H])c([H])c2C1([H])[H]

$$$$
10:0:0
     RDKit          3D

 89 96  0  0  1  0  0  0  0  0999 V2000
  -29.1290  -19.8420   20.4030 C   0  0  0  0  0  0  0  0  0  0  0  0
  -29.0930  -21.2510   19.9180 N   0  0  0  0  0  0  0  0  0  0  0  0
  -28.5030  -19.6410   21.4440 O   0  0  0  0  0  0  0  0  0  0  0  0
  -29.5610  -21.3290   19.0230 H   0  0  0  0  0  0  0  0  0  0  0  0
  -28.7070  -22.7760   20.5230 C   0  0  0  0  0  2  0  0  0  0  0  0
  -28.1280  -24.3490   19.8220 C   0  0  0  0  0  2  0  0  0  0  0  0
  -28.1790  -25.9520   20.2640 O   0  0  0  0  0  0  0  0  0  0  0  0
  -24.5810  -31.9000   23.2140 C   0  0  0  0  0  0  0  0  0  0  0  0
  -27.1650  -27.0490   20.1590 C   0  0  0  0  0  0  0  0  0  0  0  0
  -23.3980  -30.5140   21.5590 C   0  0  0  0  0  3  0  0  0  0  0  0
  -24.8590  -28.9280   20.1200 C   0  0  0  0  0  0  0  0  0  0  0  0
  -25.9640  -30.7330   21.4250 C   0  0  0  0  0  2  0  0  0  0  0  0
  -26.0410  -29.3300   20.7540 C   0  0  0  0  0  0  0  0  0  0  0  0
  -27.1840  -28.4090   20.7520 C   0  0  0  0  0  3  0  0  0  0  0  0
  -25.9560  -26.8090   19.4680 C   0  0  0  0  0  3  0  0  0  0  0  0
  -24.8420  -27.6910   19.4570 C   0  0  0  0  0  3  0  0  0  0  0  0
  -23.6350  -29.8450   20.1760 C   0  0  0  0  0  2  0  0  0  0  0  0
  -24.6700  -31.0770   22.1190 N   0  0  0  0  0  0  0  0  0  0  0  0
  -23.4890  -32.1820   23.7340 O   0  0  0  0  0  0  0  0  0  0  0  0
  -22.7050  -29.5080   22.5140 C   0  0  0  0  0  0  0  0  0  0  0  0
  -21.3770  -29.3340   22.3790 N   0  0  0  0  0  0  0  0  0  0  0  0
  -23.3690  -28.8850   23.3450 O   0  0  0  0  0  0  0  0  0  0  0  0
  -20.8940  -29.8880   21.6860 H   0  0  0  0  0  0  0  0  0  0  0  0
  -18.0010  -28.0920   22.8580 C   0  0  0  0  0  0  0  0  0  0  0  0
  -20.5570  -28.3830   23.1390 C   0  0  0  0  0  3  0  0  0  0  0  0
  -20.6770  -26.9560   22.5570 C   0  0  0  0  0  2  0  0  0  0  0  0
  -19.5840  -26.6280   21.5340 C   0  0  0  0  0  2  0  0  0  0  0  0
  -18.1970  -26.7510   22.1700 C   0  0  0  0  0  2  0  0  0  0  0  0
  -19.1090  -28.8650   23.2980 C   0  0  0  0  0  0  0  0  0  0  0  0
  -18.8700  -30.1170   23.9050 C   0  0  0  0  0  3  0  0  0  0  0  0
  -17.5570  -30.5980   24.0720 C   0  0  0  0  0  3  0  0  0  0  0  0
  -16.4650  -29.8230   23.6450 C   0  0  0  0  0  3  0  0  0  0  0  0
  -16.6870  -28.5720   23.0440 C   0  0  0  0  0  3  0  0  0  0  0  0
  -25.8470  -32.5440   23.8570 C   0  0  0  0  0  3  0  0  0  0  0  0
  -26.3230  -31.7990   25.1660 C   0  0  1  0  0  0  0  0  0  0  0  0
  -25.2000  -31.5960   26.2110 C   0  0  0  0  0  1  0  0  0  0  0  0
  -26.9040  -30.4060   24.8310 C   0  0  0  0  0  1  0  0  0  0  0  0
  -27.4630  -32.6000   25.8390 C   0  0  0  0  0  1  0  0  0  0  0  0
  -25.5360  -33.9520   24.1620 N   0  0  0  0  0  0  0  0  0  0  0  0
  -25.8930  -34.9990   23.4060 C   0  0  0  0  0  0  0  0  0  0  0  0
  -26.5810  -34.8810   22.3880 O   0  0  0  0  0  0  0  0  0  0  0  0
  -24.9270  -34.1170   24.9490 H   0  0  0  0  0  0  0  0  0  0  0  0
  -24.1960  -36.8180   23.0100 C   0  0  0  0  0  1  0  0  0  0  0  0
  -25.4160  -36.3990   23.8470 C   0  0  0  0  0  3  0  0  0  0  0  0
  -27.5380  -37.2730   24.7230 C   0  0  0  0  0  1  0  0  0  0  0  0
  -26.4640  -37.4390   23.7480 N   0  0  0  0  0  0  0  0  0  0  0  0
  -26.0650  -38.3660   23.8700 H   0  0  0  0  0  0  0  0  0  0  0  0
  -29.9600  -18.3950   19.8110 C   0  0  0  0  0  3  0  0  0  0  0  0
  -30.4580  -15.4500   19.8890 C   0  0  0  0  0  0  0  0  0  0  0  0
  -30.3550  -13.0210   18.9630 C   0  0  0  0  0  2  0  0  0  0  0  0
  -29.3670  -12.8510   17.7830 C   0  0  0  0  0  2  0  0  0  0  0  0
  -27.9480  -12.5670   18.3020 C   0  0  0  0  0  2  0  0  0  0  0  0
  -27.5690  -13.4960   19.4810 C   0  0  0  0  0  3  0  0  0  0  0  0
  -28.6840  -13.6230   20.5440 C   0  0  0  0  0  2  0  0  0  0  0  0
  -29.8730  -14.1470   19.8540 N   0  0  0  0  0  0  0  0  0  0  0  0
  -31.6460  -15.4180   19.5400 O   0  0  0  0  0  0  0  0  0  0  0  0
  -29.7480  -16.7460   20.1160 N   0  0  0  0  0  0  0  0  0  0  0  0
  -28.8090  -16.5760   20.4450 H   0  0  0  0  0  0  0  0  0  0  0  0
  -25.2450  -14.0250   20.3820 C   0  0  0  0  0  0  0  0  0  0  0  0
  -24.2110  -13.2360   20.7990 C   0  0  0  0  0  0  0  0  0  0  0  0
  -24.6820  -11.8890   20.7170 C   0  0  0  0  0  0  0  0  0  0  0  0
  -26.2770  -13.1600   20.0620 N   0  0  0  0  0  0  0  0  0  0  0  0
  -25.9540  -11.8680   20.3310 N   0  0  0  0  0  0  0  0  0  0  0  0
  -23.9720  -10.6200   20.9250 C   0  0  0  0  0  0  0  0  0  0  0  0
  -24.4370   -9.6530   21.8440 C   0  0  0  0  0  3  0  0  0  0  0  0
  -23.7230   -8.4520   22.0420 C   0  0  0  0  0  3  0  0  0  0  0  0
  -22.5290   -8.2070   21.3230 C   0  0  0  0  0  0  0  0  0  0  0  0
  -22.0830   -9.1630   20.3930 C   0  0  0  0  0  3  0  0  0  0  0  0
  -22.7980  -10.3550   20.1920 C   0  0  0  0  0  3  0  0  0  0  0  0
  -21.7840   -7.0580   21.4320 O   0  0  0  0  0  0  0  0  0  0  0  0
  -21.7550   -6.3270   22.5920 C   0  0  0  0  0  0  0  0  0  0  0  0
  -21.2990   -6.8780   23.8090 C   0  0  0  0  0  3  0  0  0  0  0  0
  -21.2200   -6.0700   24.9620 C   0  0  0  0  0  3  0  0  0  0  0  0
  -21.5870   -4.7130   24.8980 C   0  0  0  0  0  0  0  0  0  0  0  0
  -22.0350   -4.1610   23.6850 C   0  0  0  0  0  3  0  0  0  0  0  0
  -22.1150   -4.9660   22.5350 C   0  0  0  0  0  0  0  0  0  0  0  0
  -22.5280   -4.4230   21.3640 F   0  0  0  0  0  0  0  0  0  0  0  0
  -21.5030   -3.9350   26.0030 F   0  0  0  0  0  0  0  0  0  0  0  0
  -22.8300  -13.7010   21.1530 C   0  0  0  0  0  0  0  0  0  0  0  0
  -22.1510  -12.9850   22.0420 N   0  0  0  0  0  0  0  0  0  0  0  0
  -22.3640  -14.7360   20.6770 O   0  0  0  0  0  0  0  0  0  0  0  0
  -22.5430  -12.1480   22.4470 H   0  0  0  0  0  0  0  0  0  0  0  0
  -21.2260  -13.2780   22.3220 H   0  0  0  0  0  0  0  0  0  0  0  0
  -25.3890  -15.4000   20.2180 N   0  0  0  0  0  0  0  0  0  0  0  0
  -24.6220  -16.0430   20.3800 H   0  0  0  0  0  0  0  0  0  0  0  0
  -26.2010  -15.8480   19.8140 H   0  0  0  0  0  0  0  0  0  0  0  0
  -31.8640  -18.6960   21.5400 C   0  0  0  0  0  1  0  0  0  0  0  0
  -32.0780  -19.8620   19.3010 C   0  0  0  0  0  1  0  0  0  0  0  0
  -31.4850  -18.6510   20.0470 C   0  0  0  0  0  3  0  0  0  0  0  0
  1  3  2  0
  2  1  1  0
  2  5  1  0
  4  2  1  0
  6  7  1  0
  6  5  1  0
  8 19  2  0
  9  7  1  0
  9 14  1  0
 10 18  1  0
 10 20  1  0
 11 17  1  0
 11 13  1  0
 12 18  1  0
 13 12  1  0
 14 13  2  0
 15  9  2  0
 16 15  1  0
 16 11  2  0
 17 10  1  0
 18  8  1  0
 20 22  2  0
 21 20  1  0
 23 21  1  0
 24 33  2  0
 24 29  1  0
 25 21  1  0
 25 29  1  0
 26 25  1  0
 27 28  1  0
 27 26  1  0
 28 24  1  0
 29 30  2  0
 30 31  1  0
 32 31  2  0
 33 32  1  0
 34  8  1  0
 34 39  1  0
 34 35  1  0
 35 38  1  1
 35 36  1  0
 37 35  1  0
 39 42  1  0
 40 44  1  0
 40 39  1  0
 41 40  2  0
 44 43  1  0
 46 44  1  0
 46 47  1  0
 46 45  1  0
 48 89  1  0
 48 57  1  0
 48  1  1  0
 49 57  1  0
 50 55  1  0
 51 52  1  0
 51 50  1  0
 53 52  1  0
 53 62  1  0
 53 54  1  0
 55 49  1  0
 55 54  1  0
 56 49  2  0
 57 58  1  0
 59 60  2  0
 60 79  1  0
 61 60  1  0
 61 64  1  0
 62 63  1  0
 62 59  1  0
 63 61  2  0
 64 65  1  0
 65 66  2  0
 67 70  1  0
 67 66  1  0
 68 67  2  0
 69 68  1  0
 69 64  2  0
 70 71  1  0
 71 72  1  0
 72 73  2  0
 74 73  1  0
 74 78  1  0
 75 74  2  0
 76 71  2  0
 76 75  1  0
 77 76  1  0
 79 80  1  0
 80 83  1  0
 80 82  1  0
 81 79  2  0
 84 85  1  0
 84 59  1  0
 86 84  1  0
 88 89  1  0
 89 87  1  0
M  ISO  4   6 101   7 101  49 100  57 100
M  END
>  <TORSDO>  (11) 
F 20

>  <SCORE>  (11) 
-15.647

>  <name>  (11) 
10

>  <ligand_id>  (11) 
10

>  <original_smiles>  (11) 
[H]c1c([H])c([H])c2c(c1[H])C([H])([H])C([H])([H])C([H])([H])C2([H])N([H])C(=O)C1([H])N(C(=O)C([H])(N([H])C(=O)C([H])(N([H])C([H])([H])[H])C([H])([H])[H])C(C([H])([H])[H])(C([H])([H])[H])C([H])([H])[H])C([H])([H])c2c([H])c(OC([H])([H])C([H])([H])N([H])C(=O)C([H])(N([H])C(=O)N3C([H])([H])C([H])([H])C([H])([H])C([H])(n4nc(-c5c([H])c([H])c(Oc6c([H])c([H])c(F)c([H])c6F)c([H])c5[H])c(C(=O)N([H])[H])c4N([H])[H])C3([H])[H])C([H])(C([H])([H])[H])C([H])([H])[H])c([H])c([H])c2C1([H])[H]

>  <smiles>  (11) 
[H]c1c([H])c([H])c2c(c1[H])C([H])([H])C([H])([H])C([H])([H])C2([H])N([H])C(=O)C1([H])N(C(=O)C([H])(N([H])C(=O)C([H])(N([H])C([H])([H])[H])C([H])([H])[H])C(C([H])([H])[H])(C([H])([H])[H])C([H])([H])[H])C([H])([H])c2c([H])c(OC([H])([H])C([H])([H])N([H])C(=O)C([H])(N([H])C(=O)N3C([H])([H])C([H])([H])C([H])([H])C([H])(n4nc(-c5c([H])c([H])c(Oc6c([H])c([H])c(F)c([H])c6F)c([H])c5[H])c(C(=O)N([H])[H])c4N([H])[H])C3([H])[H])C([H])(C([H])([H])[H])C([H])([H])[H])c([H])c([H])c2C1([H])[H]

$$$$
11:0:0
     RDKit          3D

106113  0  0  1  0  0  0  0  0999 V2000
  -29.6770  -21.6130   21.2220 C   0  0  0  0  0  0  0  0  0  0  0  0
  -30.1850  -20.5040   20.6710 N   0  0  0  0  0  0  0  0  0  0  0  0
  -29.8710  -21.9080   22.4040 O   0  0  0  0  0  0  0  0  0  0  0  0
  -29.9580  -20.3400   19.6990 H   0  0  0  0  0  0  0  0  0  0  0  0
  -28.8010  -22.5010   20.3080 C   0  0  0  0  0  3  0  0  0  0  0  0
  -29.3570  -24.9350   20.1520 C   0  0  0  0  0  0  0  0  0  0  0  0
  -28.8040  -23.8890   20.7800 N   0  0  0  0  0  0  0  0  0  0  0  0
  -29.9110  -24.8350   19.0530 O   0  0  0  0  0  0  0  0  0  0  0  0
  -28.4070  -24.0450   21.6950 H   0  0  0  0  0  0  0  0  0  0  0  0
  -29.2740  -26.2900   20.8690 C   0  0  0  0  0  2  0  0  0  0  0  0
  -29.1300  -27.3590   19.9260 O   0  0  0  0  0  0  0  0  0  0  0  0
  -24.6310  -31.8060   23.1560 C   0  0  0  0  0  0  0  0  0  0  0  0
  -27.8870  -27.9360   19.9320 C   0  0  0  0  0  0  0  0  0  0  0  0
  -23.6540  -30.3820   21.3810 C   0  0  0  0  0  3  0  0  0  0  0  0
  -25.3300  -29.1190   19.9320 C   0  0  0  0  0  0  0  0  0  0  0  0
  -26.1190  -31.0550   21.3070 C   0  0  0  0  0  2  0  0  0  0  0  0
  -26.3910  -29.7460   20.5970 C   0  0  0  0  0  0  0  0  0  0  0  0
  -27.6730  -29.1600   20.5990 C   0  0  0  0  0  3  0  0  0  0  0  0
  -26.8150  -27.3080   19.2670 C   0  0  0  0  0  3  0  0  0  0  0  0
  -25.5350  -27.8960   19.2650 C   0  0  0  0  0  3  0  0  0  0  0  0
  -23.9900  -29.8170   19.9730 C   0  0  0  0  0  2  0  0  0  0  0  0
  -24.8160  -31.0930   22.0090 N   0  0  0  0  0  0  0  0  0  0  0  0
  -23.5080  -31.9130   23.6670 O   0  0  0  0  0  0  0  0  0  0  0  0
  -23.0970  -29.2330   22.2510 C   0  0  0  0  0  0  0  0  0  0  0  0
  -21.8020  -28.9260   22.0790 N   0  0  0  0  0  0  0  0  0  0  0  0
  -23.8290  -28.6220   23.0350 O   0  0  0  0  0  0  0  0  0  0  0  0
  -21.2690  -29.4780   21.4210 H   0  0  0  0  0  0  0  0  0  0  0  0
  -18.5570  -27.3770   22.4100 C   0  0  0  0  0  0  0  0  0  0  0  0
  -21.0720  -27.8570   22.7590 C   0  0  0  0  0  3  0  0  0  0  0  0
  -21.3240  -26.4920   22.0790 C   0  0  0  0  0  2  0  0  0  0  0  0
  -20.2760  -26.1440   21.0170 C   0  0  0  0  0  2  0  0  0  0  0  0
  -18.8760  -26.1060   21.6380 C   0  0  0  0  0  2  0  0  0  0  0  0
  -19.5890  -28.2070   22.9210 C   0  0  0  0  0  0  0  0  0  0  0  0
  -19.2390  -29.3960   23.5960 C   0  0  0  0  0  3  0  0  0  0  0  0
  -17.8900  -29.7570   23.7690 C   0  0  0  0  0  3  0  0  0  0  0  0
  -16.8720  -28.9210   23.2770 C   0  0  0  0  0  3  0  0  0  0  0  0
  -17.2070  -27.7340   22.6030 C   0  0  0  0  0  3  0  0  0  0  0  0
  -25.8130  -32.5390   23.8650 C   0  0  0  0  0  3  0  0  0  0  0  0
  -26.2780  -31.8290   25.1950 C   0  0  1  0  0  0  0  0  0  0  0  0
  -25.1220  -31.5390   26.1800 C   0  0  0  0  0  1  0  0  0  0  0  0
  -26.9770  -30.4860   24.8780 C   0  0  0  0  0  1  0  0  0  0  0  0
  -27.3160  -32.7100   25.9270 C   0  0  0  0  0  1  0  0  0  0  0  0
  -25.3850  -33.9170   24.1330 N   0  0  0  0  0  0  0  0  0  0  0  0
  -25.7010  -34.9730   23.3720 C   0  0  0  0  0  0  0  0  0  0  0  0
  -26.4530  -34.8960   22.3960 O   0  0  0  0  0  0  0  0  0  0  0  0
  -24.7260  -34.0470   24.8860 H   0  0  0  0  0  0  0  0  0  0  0  0
  -23.8740  -36.6160   22.8420 C   0  0  0  0  0  1  0  0  0  0  0  0
  -25.0800  -36.3310   23.7500 C   0  0  0  0  0  3  0  0  0  0  0  0
  -27.0810  -37.3940   24.6950 C   0  0  0  0  0  1  0  0  0  0  0  0
  -26.0350  -37.4590   23.6780 N   0  0  0  0  0  0  0  0  0  0  0  0
  -25.5510  -38.3480   23.7780 H   0  0  0  0  0  0  0  0  0  0  0  0
  -26.4890  -22.3390   21.5190 C   0  0  0  0  0  1  0  0  0  0  0  0
  -26.6060  -22.4200   18.9990 C   0  0  0  0  0  1  0  0  0  0  0  0
  -27.3350  -21.9740   20.2810 C   0  0  0  0  0  3  0  0  0  0  0  0
  -31.0640  -19.5200   21.3080 C   0  0  0  0  0  3  0  0  0  0  0  0
  -32.2180  -19.1890   20.3230 C   0  0  0  0  0  2  0  0  0  0  0  0
  -33.0480  -20.4070   19.8790 C   0  0  0  0  0  2  0  0  0  0  0  0
  -34.2290  -20.0030   18.9770 C   0  0  0  0  0  2  0  0  0  0  0  0
  -34.9870  -21.1990   18.3670 C   0  0  0  0  0  2  0  0  0  0  0  0
  -35.7310  -21.9790   19.3700 N   0  0  0  0  0  4  0  0  0  0  0  0
  -35.1120  -22.4150   20.0290 H   0  0  0  0  0  0  0  0  0  0  0  0
  -36.2540  -22.7040   18.9130 H   0  0  0  0  0  0  0  0  0  0  0  0
  -36.3800  -21.3960   19.8680 H   0  0  0  0  0  0  0  0  0  0  0  0
  -30.2210  -18.2830   21.7750 C   0  0  0  0  0  3  0  0  0  0  0  0
  -30.0540  -18.2820   23.2380 N   0  0  0  0  0  4  0  0  0  0  0  0
  -30.9370  -18.1610   23.7000 H   0  0  0  0  0  0  0  0  0  0  0  0
  -29.4390  -17.5400   23.5220 H   0  0  0  0  0  0  0  0  0  0  0  0
  -29.6570  -19.1530   23.5420 H   0  0  0  0  0  0  0  0  0  0  0  0
  -30.1570  -15.9570   20.7200 C   0  0  0  0  0  3  0  0  0  0  0  0
  -30.8250  -16.9550   21.3330 C   0  0  0  0  0  3  0  0  0  0  0  0
  -30.8930  -14.8290   20.1650 C   0  0  0  0  0  0  0  0  0  0  0  0
  -30.6170  -12.6110   19.1300 C   0  0  0  0  0  2  0  0  0  0  0  0
  -29.6400  -12.7230   17.9420 C   0  0  0  0  0  2  0  0  0  0  0  0
  -28.1860  -12.5430   18.4240 C   0  0  0  0  0  2  0  0  0  0  0  0
  -27.8460  -13.4450   19.6410 C   0  0  0  0  0  3  0  0  0  0  0  0
  -28.9380  -13.3240   20.7310 C   0  0  0  0  0  2  0  0  0  0  0  0
  -30.2360  -13.6390   20.1100 N   0  0  0  0  0  0  0  0  0  0  0  0
  -31.9940  -14.9900   19.6270 O   0  0  0  0  0  0  0  0  0  0  0  0
  -25.4960  -14.0260   20.5150 C   0  0  0  0  0  0  0  0  0  0  0  0
  -24.4430  -13.2370   20.8930 C   0  0  0  0  0  0  0  0  0  0  0  0
  -24.8880  -11.8890   20.7500 C   0  0  0  0  0  0  0  0  0  0  0  0
  -26.5190  -13.1530   20.1730 N   0  0  0  0  0  0  0  0  0  0  0  0
  -26.1590  -11.8600   20.3690 N   0  0  0  0  0  0  0  0  0  0  0  0
  -24.1630  -10.6200   20.9000 C   0  0  0  0  0  0  0  0  0  0  0  0
  -24.6340   -9.5950   21.7480 C   0  0  0  0  0  3  0  0  0  0  0  0
  -23.9100   -8.3910   21.8860 C   0  0  0  0  0  3  0  0  0  0  0  0
  -22.6990   -8.2060   21.1800 C   0  0  0  0  0  0  0  0  0  0  0  0
  -22.2460   -9.2210   20.3180 C   0  0  0  0  0  3  0  0  0  0  0  0
  -22.9710  -10.4160   20.1750 C   0  0  0  0  0  3  0  0  0  0  0  0
  -21.9410   -7.0630   21.2360 O   0  0  0  0  0  0  0  0  0  0  0  0
  -21.9400   -6.2520   22.3420 C   0  0  0  0  0  0  0  0  0  0  0  0
  -21.5680   -6.7310   23.6180 C   0  0  0  0  0  3  0  0  0  0  0  0
  -21.5160   -5.8450   24.7140 C   0  0  0  0  0  3  0  0  0  0  0  0
  -21.8240   -4.4840   24.5360 C   0  0  0  0  0  0  0  0  0  0  0  0
  -22.1880   -4.0050   23.2650 C   0  0  0  0  0  3  0  0  0  0  0  0
  -22.2430   -4.8860   22.1710 C   0  0  0  0  0  0  0  0  0  0  0  0
  -22.5750   -4.4150   20.9450 F   0  0  0  0  0  0  0  0  0  0  0  0
  -21.7670   -3.6310   25.5850 F   0  0  0  0  0  0  0  0  0  0  0  0
  -23.0660  -13.7030   21.2740 C   0  0  0  0  0  0  0  0  0  0  0  0
  -22.3870  -12.9640   22.1450 N   0  0  0  0  0  0  0  0  0  0  0  0
  -22.6030  -14.7540   20.8340 O   0  0  0  0  0  0  0  0  0  0  0  0
  -22.7750  -12.1110   22.5230 H   0  0  0  0  0  0  0  0  0  0  0  0
  -21.4650  -13.2530   22.4360 H   0  0  0  0  0  0  0  0  0  0  0  0
  -25.6640  -15.4030   20.4140 N   0  0  0  0  0  0  0  0  0  0  0  0
  -24.9090  -16.0560   20.5940 H   0  0  0  0  0  0  0  0  0  0  0  0
  -26.4980  -15.8530   20.0550 H   0  0  0  0  0  0  0  0  0  0  0  0
  1  3  2  0
  2  1  1  0
  2 55  1  0
  4  2  1  0
  5 54  1  0
  5  7  1  0
  5  1  1  0
  6  7  1  0
  6 10  1  0
  7  9  1  0
  8  6  2  0
 11 13  1  0
 11 10  1  0
 12 23  2  0
 13 18  1  0
 14 22  1  0
 14 24  1  0
 15 21  1  0
 15 17  1  0
 16 22  1  0
 17 18  2  0
 17 16  1  0
 19 13  2  0
 20 19  1  0
 20 15  2  0
 21 14  1  0
 22 12  1  0
 24 26  2  0
 25 24  1  0
 27 25  1  0
 28 37  2  0
 28 33  1  0
 29 25  1  0
 29 33  1  0
 30 29  1  0
 31 32  1  0
 31 30  1  0
 32 28  1  0
 33 34  2  0
 34 35  1  0
 36 35  2  0
 37 36  1  0
 38 12  1  0
 38 43  1  0
 38 39  1  0
 39 42  1  1
 39 40  1  0
 41 39  1  0
 43 46  1  0
 44 48  1  0
 44 43  1  0
 45 44  2  0
 48 47  1  0
 50 48  1  0
 50 51  1  0
 50 49  1  0
 53 54  1  0
 54 52  1  0
 55 56  1  0
 55 64  1  0
 57 56  1  0
 58 57  1  0
 59 58  1  0
 59 60  1  0
 60 63  1  0
 60 61  1  0
 62 60  1  0
 64 70  1  0
 64 65  1  0
 65 67  1  0
 65 68  1  0
 65 66  1  0
 69 70  2  0
 71 69  1  0
 72 77  1  0
 73 74  1  0
 73 72  1  0
 75 74  1  0
 75 82  1  0
 75 76  1  0
 77 71  1  0
 77 76  1  0
 78 71  2  0
 79 80  2  0
 80 99  1  0
 81 80  1  0
 81 84  1  0
 82 83  1  0
 82 79  1  0
 83 81  2  0
 84 85  1  0
 85 86  2  0
 87 90  1  0
 87 86  1  0
 88 87  2  0
 89 88  1  0
 89 84  2  0
 90 91  1  0
 91 92  1  0
 92 93  2  0
 94 93  1  0
 94 98  1  0
 95 94  2  0
 96 91  2  0
 96 95  1  0
 97 96  1  0
 99100  1  0
100103  1  0
100102  1  0
101 99  2  0
104 79  1  0
104105  1  0
106104  1  0
M  ISO  4  10 101  11 101  69 100  71 100
M  END
>  <TORSDO>  (12) 
F 29

>  <SCORE>  (12) 
-9.164

>  <name>  (12) 
11

>  <ligand_id>  (12) 
11

>  <original_smiles>  (12) 
[H]C(C(=O)N1C([H])([H])C([H])([H])C([H])([H])C([H])(n2nc(-c3c([H])c([H])c(Oc4c([H])c([H])c(F)c([H])c4F)c([H])c3[H])c(C(=O)N([H])[H])c2N([H])[H])C1([H])[H])=C([H])C([H])(C([H])(N([H])C(=O)C([H])(N([H])C(=O)C([H])([H])Oc1c([H])c([H])c2c(c1[H])C([H])([H])N(C(=O)C([H])(N([H])C(=O)C([H])(N([H])C([H])([H])[H])C([H])([H])[H])C(C([H])([H])[H])(C([H])([H])[H])C([H])([H])[H])C([H])(C(=O)N([H])C1([H])c3c([H])c([H])c([H])c([H])c3C([H])([H])C([H])([H])C1([H])[H])C2([H])[H])C([H])(C([H])([H])[H])C([H])([H])[H])C([H])([H])C([H])([H])C([H])([H])C([H])([H])[N+]([H])([H])[H])[N+]([H])([H])[H]

>  <smiles>  (12) 
[H]C(C(=O)N1C([H])([H])C([H])([H])C([H])([H])C([H])(n2nc(-c3c([H])c([H])c(Oc4c([H])c([H])c(F)c([H])c4F)c([H])c3[H])c(C(=O)N([H])[H])c2N([H])[H])C1([H])[H])=C([H])C([H])(C([H])(N([H])C(=O)C([H])(N([H])C(=O)C([H])([H])Oc1c([H])c([H])c2c(c1[H])C([H])([H])N(C(=O)C([H])(N([H])C(=O)C([H])(N([H])C([H])([H])[H])C([H])([H])[H])C(C([H])([H])[H])(C([H])([H])[H])C([H])([H])[H])C([H])(C(=O)N([H])C1([H])c3c([H])c([H])c([H])c([H])c3C([H])([H])C([H])([H])C1([H])[H])C2([H])[H])C([H])(C([H])([H])[H])C([H])([H])[H])C([H])([H])C([H])([H])C([H])([H])C([H])([H])[N+]([H])([H])[H])[N+]([H])([H])[H]

$$$$
12:0:0
     RDKit          3D

100107  0  0  1  0  0  0  0  0999 V2000
  -29.9220  -20.7780   19.8260 C   0  0  0  0  0  0  0  0  0  0  0  0
  -29.9830  -18.2490   20.4650 C   0  0  0  0  0  0  0  0  0  0  0  0
  -29.6370  -19.3250   19.7160 N   0  0  0  0  0  4  0  0  0  0  0  0
  -30.5740  -18.3240   21.5420 O   0  0  0  0  0  0  0  0  0  0  0  0
  -29.1290  -19.0880   18.8770 H   0  0  0  0  0  0  0  0  0  0  0  0
  -30.0800  -16.6890   18.4020 C   0  0  0  0  0  1  0  0  0  0  0  0
  -29.6180  -16.8660   19.8670 C   0  0  0  0  0  0  0  0  0  0  0  0
  -30.6710  -14.6220   20.5750 C   0  0  0  0  0  0  0  0  0  0  0  0
  -30.4970  -12.3910   19.5620 C   0  0  0  0  0  2  0  0  0  0  0  0
  -29.5970  -12.5650   18.3170 C   0  0  0  0  0  2  0  0  0  0  0  0
  -28.1020  -12.4310   18.6790 C   0  0  0  0  0  2  0  0  0  0  0  0
  -27.7110  -13.2690   19.9270 C   0  0  0  0  0  3  0  0  0  0  0  0
  -28.7350  -13.0990   21.0760 C   0  0  0  0  0  2  0  0  0  0  0  0
  -30.0780  -13.3960   20.5510 N   0  0  0  0  0  0  0  0  0  0  0  0
  -31.8390  -14.8110   20.2140 O   0  0  0  0  0  0  0  0  0  0  0  0
  -29.7810  -15.6340   20.6930 N   0  0  0  0  0  4  0  0  0  0  0  0
  -28.9370  -15.3560   21.1730 H   0  0  0  0  0  0  0  0  0  0  0  0
  -25.2980  -13.8820   20.5740 C   0  0  0  0  0  0  0  0  0  0  0  0
  -24.2180  -13.1130   20.9180 C   0  0  0  0  0  0  0  0  0  0  0  0
  -24.6770  -11.7600   20.9010 C   0  0  0  0  0  0  0  0  0  0  0  0
  -26.3450  -12.9960   20.3700 N   0  0  0  0  0  0  0  0  0  0  0  0
  -25.9750  -11.7150   20.6260 N   0  0  0  0  0  0  0  0  0  0  0  0
  -23.9410  -10.5040   21.0800 C   0  0  0  0  0  0  0  0  0  0  0  0
  -24.3490   -9.5390   22.0280 C   0  0  0  0  0  3  0  0  0  0  0  0
  -23.6180   -8.3430   22.1940 C   0  0  0  0  0  3  0  0  0  0  0  0
  -22.4640   -8.1040   21.4130 C   0  0  0  0  0  0  0  0  0  0  0  0
  -22.0750   -9.0550   20.4530 C   0  0  0  0  0  3  0  0  0  0  0  0
  -22.8050  -10.2430   20.2850 C   0  0  0  0  0  3  0  0  0  0  0  0
  -21.7070   -6.9610   21.4860 O   0  0  0  0  0  0  0  0  0  0  0  0
  -21.6270   -6.2210   22.6380 C   0  0  0  0  0  0  0  0  0  0  0  0
  -21.1590   -6.7780   23.8470 C   0  0  0  0  0  3  0  0  0  0  0  0
  -21.0270   -5.9660   24.9910 C   0  0  0  0  0  3  0  0  0  0  0  0
  -21.3490   -4.5960   24.9240 C   0  0  0  0  0  0  0  0  0  0  0  0
  -21.8090   -4.0380   23.7190 C   0  0  0  0  0  3  0  0  0  0  0  0
  -21.9430   -4.8490   22.5770 C   0  0  0  0  0  0  0  0  0  0  0  0
  -22.3650   -4.3020   21.4110 F   0  0  0  0  0  0  0  0  0  0  0  0
  -21.2160   -3.8130   26.0210 F   0  0  0  0  0  0  0  0  0  0  0  0
  -22.8160  -13.5950   21.1490 C   0  0  0  0  0  0  0  0  0  0  0  0
  -22.0620  -12.9060   22.0000 N   0  0  0  0  0  0  0  0  0  0  0  0
  -22.3930  -14.6190   20.6150 O   0  0  0  0  0  0  0  0  0  0  0  0
  -22.4160  -12.0810   22.4610 H   0  0  0  0  0  0  0  0  0  0  0  0
  -21.1180  -13.2100   22.1930 H   0  0  0  0  0  0  0  0  0  0  0  0
  -25.4600  -15.2520   20.3970 N   0  0  0  0  0  0  0  0  0  0  0  0
  -24.6730  -15.8870   20.4740 H   0  0  0  0  0  0  0  0  0  0  0  0
  -26.3000  -15.7020   20.0550 H   0  0  0  0  0  0  0  0  0  0  0  0
  -28.8020  -21.7280   20.3170 C   0  0  0  0  0  0  0  0  0  0  0  0
  -28.9550  -23.0260   19.9810 N   0  0  0  0  0  0  0  0  0  0  0  0
  -27.8560  -21.3100   20.9890 O   0  0  0  0  0  0  0  0  0  0  0  0
  -29.7580  -23.2190   19.3950 H   0  0  0  0  0  0  0  0  0  0  0  0
  -28.1970  -24.2060   20.4340 C   0  0  0  0  0  2  0  0  0  0  0  0
  -28.5960  -25.4830   19.6250 C   0  0  0  0  0  2  0  0  0  0  0  0
  -28.4300  -26.7550   20.2800 O   0  0  0  0  0  0  0  0  0  0  0  0
  -24.5480  -31.9040   23.2670 C   0  0  0  0  0  0  0  0  0  0  0  0
  -27.2410  -27.4600   20.2160 C   0  0  0  0  0  0  0  0  0  0  0  0
  -23.3620  -30.4990   21.6170 C   0  0  0  0  0  3  0  0  0  0  0  0
  -24.8310  -28.9640   20.2000 C   0  0  0  0  0  0  0  0  0  0  0  0
  -25.8880  -30.8630   21.4400 C   0  0  0  0  0  2  0  0  0  0  0  0
  -25.9820  -29.4920   20.8000 C   0  0  0  0  0  0  0  0  0  0  0  0
  -27.1860  -28.7470   20.8030 C   0  0  0  0  0  3  0  0  0  0  0  0
  -26.0710  -26.9460   19.6140 C   0  0  0  0  0  3  0  0  0  0  0  0
  -24.8740  -27.6890   19.6090 C   0  0  0  0  0  3  0  0  0  0  0  0
  -23.5790  -29.8230   20.2380 C   0  0  0  0  0  2  0  0  0  0  0  0
  -24.6170  -31.1040   22.1660 N   0  0  0  0  0  0  0  0  0  0  0  0
  -23.4610  -32.1740   23.7970 O   0  0  0  0  0  0  0  0  0  0  0  0
  -22.7120  -29.4720   22.5710 C   0  0  0  0  0  0  0  0  0  0  0  0
  -21.3880  -29.2890   22.4360 N   0  0  0  0  0  0  0  0  0  0  0  0
  -23.3940  -28.8430   23.3860 O   0  0  0  0  0  0  0  0  0  0  0  0
  -20.9050  -29.8340   21.7370 H   0  0  0  0  0  0  0  0  0  0  0  0
  -18.0110  -28.1140   22.9290 C   0  0  0  0  0  0  0  0  0  0  0  0
  -20.5700  -28.3510   23.2010 C   0  0  0  0  0  3  0  0  0  0  0  0
  -20.6670  -26.9290   22.6070 C   0  0  0  0  0  2  0  0  0  0  0  0
  -19.5590  -26.6220   21.5950 C   0  0  0  0  0  2  0  0  0  0  0  0
  -18.1780  -26.7690   22.2400 C   0  0  0  0  0  2  0  0  0  0  0  0
  -19.1350  -28.8620   23.3660 C   0  0  0  0  0  0  0  0  0  0  0  0
  -18.9290  -30.1220   23.9680 C   0  0  0  0  0  3  0  0  0  0  0  0
  -17.6290  -30.6310   24.1440 C   0  0  0  0  0  3  0  0  0  0  0  0
  -16.5180  -29.8790   23.7250 C   0  0  0  0  0  3  0  0  0  0  0  0
  -16.7100  -28.6230   23.1200 C   0  0  0  0  0  3  0  0  0  0  0  0
  -25.8270  -32.5390   23.8970 C   0  0  0  0  0  3  0  0  0  0  0  0
  -26.3220  -31.7800   25.1880 C   0  0  1  0  0  0  0  0  0  0  0  0
  -25.2090  -31.5580   26.2390 C   0  0  0  0  0  1  0  0  0  0  0  0
  -26.9100  -30.3980   24.8180 C   0  0  0  0  0  1  0  0  0  0  0  0
  -27.4610  -32.5830   25.8590 C   0  0  0  0  0  1  0  0  0  0  0  0
  -25.5180  -33.9410   24.2050 N   0  0  0  0  0  0  0  0  0  0  0  0
  -25.8700  -34.9830   23.4420 C   0  0  0  0  0  0  0  0  0  0  0  0
  -26.5640  -34.8650   22.4290 O   0  0  0  0  0  0  0  0  0  0  0  0
  -24.9100  -34.1090   24.9930 H   0  0  0  0  0  0  0  0  0  0  0  0
  -24.1590  -36.7710   23.0220 C   0  0  0  0  0  1  0  0  0  0  0  0
  -25.3770  -36.3760   23.8710 C   0  0  0  0  0  3  0  0  0  0  0  0
  -27.4880  -37.2610   24.7560 C   0  0  0  0  0  1  0  0  0  0  0  0
  -26.4180  -37.4240   23.7760 N   0  0  0  0  0  0  0  0  0  0  0  0
  -26.0120  -38.3490   23.8950 H   0  0  0  0  0  0  0  0  0  0  0  0
  -31.3220  -21.1430   20.3710 C   0  0  0  0  0  2  0  0  0  0  0  0
  -32.4720  -20.7870   19.4090 C   0  0  0  0  0  2  0  0  0  0  0  0
  -33.8390  -21.2530   19.9400 C   0  0  0  0  0  2  0  0  0  0  0  0
  -34.9670  -21.2040   18.8870 C   0  0  0  0  0  2  0  0  0  0  0  0
  -36.2750  -21.5760   19.4620 N   0  0  0  0  0  4  0  0  0  0  0  0
  -36.2420  -22.5010   19.8540 H   0  0  0  0  0  0  0  0  0  0  0  0
  -36.9890  -21.5630   18.7540 H   0  0  0  0  0  0  0  0  0  0  0  0
  -36.5450  -20.9310   20.1830 H   0  0  0  0  0  0  0  0  0  0  0  0
  1 46  1  0
  1 93  1  0
  2  4  2  0
  3  1  2  0
  3  2  1  0
  5  3  1  0
  6  7  1  0
  7  2  1  0
  7 16  2  3
  8 16  1  0
  9 14  1  0
 10 11  1  0
 10  9  1  0
 12 11  1  0
 12 21  1  0
 12 13  1  0
 14  8  1  0
 14 13  1  0
 15  8  2  0
 16 17  1  0
 18 19  2  0
 19 38  1  0
 20 19  1  0
 20 23  1  0
 21 18  1  0
 21 22  1  0
 22 20  2  0
 23 24  1  0
 24 25  2  0
 26 29  1  0
 26 25  1  0
 27 26  2  0
 28 27  1  0
 28 23  2  0
 29 30  1  0
 30 31  1  0
 31 32  2  0
 33 32  1  0
 33 37  1  0
 34 33  2  0
 35 30  2  0
 35 34  1  0
 36 35  1  0
 38 39  1  0
 39 42  1  0
 39 41  1  0
 40 38  2  0
 43 44  1  0
 43 18  1  0
 45 43  1  0
 46 48  2  0
 47 46  1  0
 47 50  1  0
 49 47  1  0
 51 52  1  0
 51 50  1  0
 53 64  2  0
 54 52  1  0
 54 59  1  0
 55 63  1  0
 55 65  1  0
 56 62  1  0
 56 58  1  0
 57 63  1  0
 58 59  2  0
 58 57  1  0
 60 54  2  0
 61 60  1  0
 61 56  2  0
 62 55  1  0
 63 53  1  0
 65 67  2  0
 66 65  1  0
 68 66  1  0
 69 78  2  0
 69 74  1  0
 70 66  1  0
 70 74  1  0
 71 70  1  0
 72 73  1  0
 72 71  1  0
 73 69  1  0
 74 75  2  0
 75 76  1  0
 77 76  2  0
 78 77  1  0
 79 53  1  0
 79 84  1  0
 79 80  1  0
 80 83  1  1
 80 81  1  0
 82 80  1  0
 84 87  1  0
 85 89  1  0
 85 84  1  0
 86 85  2  0
 89 88  1  0
 91 89  1  0
 91 92  1  0
 91 90  1  0
 94 95  1  0
 94 93  1  0
 96 97  1  0
 96 95  1  0
 97 98  1  0
 97100  1  0
 99 97  1  0
M  ISO  4   8 100  16 100  51 101  52 101
M  END
>  <TORSDO>  (13) 
F 26

>  <SCORE>  (13) 
-11.953

>  <name>  (13) 
12

>  <ligand_id>  (13) 
12

>  <original_smiles>  (13) 
[H]c1c([H])c([H])c2c(c1[H])C([H])([H])C([H])([H])C([H])([H])C2([H])N([H])C(=O)C1([H])N(C(=O)C([H])(N([H])C(=O)C([H])(N([H])C([H])([H])[H])C([H])([H])[H])C(C([H])([H])[H])(C([H])([H])[H])C([H])([H])[H])C([H])([H])c2c([H])c(OC([H])([H])C([H])([H])N([H])C(=O)C([H])(N([H])C(=O)C([H])(N([H])C(=O)N3C([H])([H])C([H])([H])C([H])([H])C([H])(n4nc(-c5c([H])c([H])c(Oc6c([H])c([H])c(F)c([H])c6F)c([H])c5[H])c(C(=O)N([H])[H])c4N([H])[H])C3([H])[H])C([H])([H])[H])C([H])([H])C([H])([H])C([H])([H])C([H])([H])[N+]([H])([H])[H])c([H])c([H])c2C1([H])[H]

>  <smiles>  (13) 
[H]c1c([H])c([H])c2c(c1[H])C([H])([H])C([H])([H])C([H])([H])C2([H])N([H])C(=O)C1([H])N(C(=O)C([H])(N([H])C(=O)C([H])(N([H])C([H])([H])[H])C([H])([H])[H])C(C([H])([H])[H])(C([H])([H])[H])C([H])([H])[H])C([H])([H])c2c([H])c(OC([H])([H])C([H])([H])N([H])C(=O)C([H])(N([H])C(=O)C([H])(N([H])C(=O)N3C([H])([H])C([H])([H])C([H])([H])C([H])(n4nc(-c5c([H])c([H])c(Oc6c([H])c([H])c(F)c([H])c6F)c([H])c5[H])c(C(=O)N([H])[H])c4N([H])[H])C3([H])[H])C([H])([H])[H])C([H])([H])C([H])([H])C([H])([H])C([H])([H])[N+]([H])([H])[H])c([H])c([H])c2C1([H])[H]

$$$$
13:0:0
     RDKit          3D

 96103  0  0  1  0  0  0  0  0999 V2000
  -39.3830  -26.4300   13.0130 C   0  0  0  0  0  0  0  0  0  0  0  0
  -38.9050  -27.4610   13.7160 N   0  0  0  0  0  0  0  0  0  0  0  0
  -40.5510  -26.3580   12.6240 O   0  0  0  0  0  0  0  0  0  0  0  0
  -37.9310  -27.4160   13.9850 H   0  0  0  0  0  0  0  0  0  0  0  0
  -38.9270  -23.8960   13.0460 C   0  0  0  0  0  1  0  0  0  0  0  0
  -38.3870  -25.3000   12.7210 C   0  0  0  0  0  3  0  0  0  0  0  0
  -37.6650  -26.4720   10.6630 C   0  0  0  0  0  0  0  0  0  0  0  0
  -37.9160  -25.3520   11.3390 N   0  0  0  0  0  0  0  0  0  0  0  0
  -37.8550  -27.5940   11.1450 O   0  0  0  0  0  0  0  0  0  0  0  0
  -37.7910  -24.4610   10.8740 H   0  0  0  0  0  0  0  0  0  0  0  0
  -37.5340  -27.5580    8.4120 C   0  0  0  0  0  1  0  0  0  0  0  0
  -37.0940  -26.3360    9.2480 C   0  0  0  0  0  3  0  0  0  0  0  0
  -34.7970  -27.1600    9.9940 C   0  0  0  0  0  0  0  0  0  0  0  0
  -32.6530  -27.2300   11.2020 C   0  0  0  0  0  2  0  0  0  0  0  0
  -32.7960  -26.4190   12.5050 C   0  0  0  0  0  2  0  0  0  0  0  0
  -32.5120  -24.9210   12.2620 C   0  0  0  0  0  2  0  0  0  0  0  0
  -33.2830  -24.3530   11.0400 C   0  0  0  0  0  3  0  0  0  0  0  0
  -33.1200  -25.2870    9.8200 C   0  0  0  0  0  2  0  0  0  0  0  0
  -33.5630  -26.6380   10.2150 N   0  0  0  0  0  0  0  0  0  0  0  0
  -35.1450  -28.2880   10.3490 O   0  0  0  0  0  0  0  0  0  0  0  0
  -35.6530  -26.2860    9.4660 N   0  0  0  0  0  0  0  0  0  0  0  0
  -35.2740  -25.3670    9.2760 H   0  0  0  0  0  0  0  0  0  0  0  0
  -33.2140  -21.7980   11.3750 C   0  0  0  0  0  0  0  0  0  0  0  0
  -32.5010  -20.8140   10.7470 C   0  0  0  0  0  0  0  0  0  0  0  0
  -31.7340  -21.4670    9.7340 C   0  0  0  0  0  0  0  0  0  0  0  0
  -32.8750  -22.9820   10.7370 N   0  0  0  0  0  0  0  0  0  0  0  0
  -32.0140  -22.7630    9.7110 N   0  0  0  0  0  0  0  0  0  0  0  0
  -30.7090  -20.9410    8.8260 C   0  0  0  0  0  0  0  0  0  0  0  0
  -31.0520  -20.1690    7.6950 C   0  0  0  0  0  3  0  0  0  0  0  0
  -30.0470  -19.6600    6.8440 C   0  0  0  0  0  3  0  0  0  0  0  0
  -28.6840  -19.9180    7.1230 C   0  0  0  0  0  0  0  0  0  0  0  0
  -28.3500  -20.7060    8.2400 C   0  0  0  0  0  3  0  0  0  0  0  0
  -29.3520  -21.2150    9.0810 C   0  0  0  0  0  3  0  0  0  0  0  0
  -27.6420  -19.4850    6.3410 O   0  0  0  0  0  0  0  0  0  0  0  0
  -26.7440  -18.5500    6.7910 C   0  0  0  0  0  0  0  0  0  0  0  0
  -25.4200  -18.8960    7.1420 C   0  0  0  0  0  3  0  0  0  0  0  0
  -24.5100  -17.8920    7.5280 C   0  0  0  0  0  3  0  0  0  0  0  0
  -24.9170  -16.5450    7.5580 C   0  0  0  0  0  0  0  0  0  0  0  0
  -26.2330  -16.1990    7.2050 C   0  0  0  0  0  3  0  0  0  0  0  0
  -27.1430  -17.1990    6.8190 C   0  0  0  0  0  0  0  0  0  0  0  0
  -28.4030  -16.8570    6.4570 F   0  0  0  0  0  0  0  0  0  0  0  0
  -24.0410  -15.5790    7.9230 F   0  0  0  0  0  0  0  0  0  0  0  0
  -32.4690  -19.3580   11.1160 C   0  0  0  0  0  0  0  0  0  0  0  0
  -33.0630  -18.5040   10.2880 N   0  0  0  0  0  0  0  0  0  0  0  0
  -31.9600  -18.9750   12.1690 O   0  0  0  0  0  0  0  0  0  0  0  0
  -33.5010  -18.8240    9.4370 H   0  0  0  0  0  0  0  0  0  0  0  0
  -33.0830  -17.5200   10.5130 H   0  0  0  0  0  0  0  0  0  0  0  0
  -34.1070  -21.7850   12.4410 N   0  0  0  0  0  0  0  0  0  0  0  0
  -34.3600  -20.9290   12.9190 H   0  0  0  0  0  0  0  0  0  0  0  0
  -34.7550  -22.5450   12.6360 H   0  0  0  0  0  0  0  0  0  0  0  0
  -39.6440  -28.6480   14.1360 C   0  0  0  0  0  2  0  0  0  0  0  0
  -38.7200  -29.7180   14.7460 C   0  0  0  0  0  2  0  0  0  0  0  0
  -38.0990  -30.4880   13.7190 O   0  0  0  0  0  0  0  0  0  0  0  0
  -38.4960  -31.8560   13.7640 C   0  0  0  0  0  2  0  0  0  0  0  0
  -38.0380  -32.6070   12.4930 C   0  0  0  0  0  2  0  0  0  0  0  0
  -38.9600  -32.4910   11.4030 O   0  0  0  0  0  0  0  0  0  0  0  0
  -37.6260  -34.3000    4.6520 C   0  0  0  0  0  0  0  0  0  0  0  0
  -38.3680  -32.1600   10.2110 C   0  0  0  0  0  0  0  0  0  0  0  0
  -36.2780  -32.4390    5.5690 C   0  0  0  0  0  3  0  0  0  0  0  0
  -37.0690  -31.4950    7.8030 C   0  0  0  0  0  0  0  0  0  0  0  0
  -38.6310  -32.9070    6.4540 C   0  0  0  0  0  2  0  0  0  0  0  0
  -38.1720  -32.3600    7.7870 C   0  0  0  0  0  0  0  0  0  0  0  0
  -38.8240  -32.7020    8.9920 C   0  0  0  0  0  3  0  0  0  0  0  0
  -37.2810  -31.2650   10.2110 C   0  0  0  0  0  3  0  0  0  0  0  0
  -36.6130  -30.9480    9.0130 C   0  0  0  0  0  3  0  0  0  0  0  0
  -36.4240  -31.1840    6.4710 C   0  0  0  0  0  2  0  0  0  0  0  0
  -37.5210  -33.2780    5.5450 N   0  0  0  0  0  0  0  0  0  0  0  0
  -36.7300  -34.5270    3.8280 O   0  0  0  0  0  0  0  0  0  0  0  0
  -35.0200  -33.2210    6.0110 C   0  0  0  0  0  0  0  0  0  0  0  0
  -33.8470  -32.7950    5.5170 N   0  0  0  0  0  0  0  0  0  0  0  0
  -35.1090  -34.1650    6.8010 O   0  0  0  0  0  0  0  0  0  0  0  0
  -33.8590  -32.0200    4.8690 H   0  0  0  0  0  0  0  0  0  0  0  0
  -30.4790  -33.1840    4.2610 C   0  0  0  0  0  0  0  0  0  0  0  0
  -32.5300  -33.3520    5.8260 C   0  0  0  0  0  3  0  0  0  0  0  0
  -31.7450  -32.4320    6.7860 C   0  0  0  0  0  2  0  0  0  0  0  0
  -30.8220  -31.4450    6.0640 C   0  0  0  0  0  2  0  0  0  0  0  0
  -29.8080  -32.1940    5.1960 C   0  0  0  0  0  2  0  0  0  0  0  0
  -31.7630  -33.7160    4.5500 C   0  0  0  0  0  0  0  0  0  0  0  0
  -32.3580  -34.6080    3.6300 C   0  0  0  0  0  3  0  0  0  0  0  0
  -31.6910  -34.9720    2.4460 C   0  0  0  0  0  3  0  0  0  0  0  0
  -30.4100  -34.4600    2.1760 C   0  0  0  0  0  3  0  0  0  0  0  0
  -29.8060  -33.5730    3.0850 C   0  0  0  0  0  3  0  0  0  0  0  0
  -38.8870  -35.2190    4.6060 C   0  0  0  0  0  3  0  0  0  0  0  0
  -38.5390  -36.7580    4.6410 C   0  0  1  0  0  0  0  0  0  0  0  0
  -38.2330  -37.3560    3.2480 C   0  0  0  0  0  1  0  0  0  0  0  0
  -37.3130  -37.0190    5.5480 C   0  0  0  0  0  1  0  0  0  0  0  0
  -39.7180  -37.5500    5.2550 C   0  0  0  0  0  1  0  0  0  0  0  0
  -39.6360  -34.8820    3.3890 N   0  0  0  0  0  0  0  0  0  0  0  0
  -40.8890  -34.4110    3.3740 C   0  0  0  0  0  0  0  0  0  0  0  0
  -41.5700  -34.2820    4.3960 O   0  0  0  0  0  0  0  0  0  0  0  0
  -39.1240  -34.9130    2.5200 H   0  0  0  0  0  0  0  0  0  0  0  0
  -41.3930  -32.4940    1.8270 C   0  0  0  0  0  1  0  0  0  0  0  0
  -41.4830  -34.0180    2.0090 C   0  0  0  0  0  3  0  0  0  0  0  0
  -43.0160  -35.9040    1.6680 C   0  0  0  0  0  1  0  0  0  0  0  0
  -42.8830  -34.4590    1.8280 N   0  0  0  0  0  0  0  0  0  0  0  0
  -43.3000  -34.0130    1.0170 H   0  0  0  0  0  0  0  0  0  0  0  0
  1  2  1  0
  2  4  1  0
  2 51  1  0
  3  1  2  0
  6  1  1  0
  6  5  1  0
  7  9  2  0
  7  8  1  0
  8  6  1  0
 10  8  1  0
 12 11  1  0
 12 21  1  0
 12  7  1  0
 13 19  1  0
 13 20  2  0
 14 15  1  0
 16 15  1  0
 17 18  1  0
 17 16  1  0
 18 19  1  0
 19 14  1  0
 21 13  1  0
 22 21  1  0
 23 48  1  0
 24 43  1  0
 24 23  2  0
 25 24  1  0
 26 17  1  0
 26 23  1  0
 27 25  2  0
 27 26  1  0
 28 33  1  0
 28 25  1  0
 29 28  2  0
 30 31  2  0
 30 29  1  0
 31 32  1  0
 32 33  2  0
 34 35  1  0
 34 31  1  0
 35 40  2  0
 35 36  1  0
 36 37  2  0
 37 38  1  0
 38 42  1  0
 39 38  2  0
 40 39  1  0
 41 40  1  0
 43 45  2  0
 44 47  1  0
 44 43  1  0
 46 44  1  0
 48 50  1  0
 48 49  1  0
 51 52  1  0
 53 54  1  0
 53 52  1  0
 55 54  1  0
 56 55  1  0
 57 67  1  0
 58 56  1  0
 59 69  1  0
 59 66  1  0
 60 65  1  0
 61 62  1  0
 62 60  2  0
 62 63  1  0
 63 58  2  0
 64 58  1  0
 65 64  2  0
 66 60  1  0
 67 59  1  0
 67 61  1  0
 68 57  2  0
 69 71  2  0
 70 69  1  0
 72 70  1  0
 73 78  1  0
 73 77  1  0
 74 70  1  0
 74 75  1  0
 76 75  1  0
 77 76  1  0
 78 74  1  0
 79 78  2  0
 80 79  1  0
 81 80  2  0
 81 82  1  0
 82 73  2  0
 83 84  1  0
 83 57  1  0
 84 87  1  1
 84 86  1  0
 85 84  1  0
 88 83  1  0
 89 88  1  0
 89 90  2  0
 91 88  1  0
 93 92  1  0
 93 89  1  0
 94 95  1  0
 95 93  1  0
 96 95  1  0
M  ISO  4  13 100  21 100  55 101  56 101
M  END
>  <TORSDO>  (14) 
F 24

>  <SCORE>  (14) 
-2.459

>  <name>  (14) 
13

>  <ligand_id>  (14) 
13

>  <original_smiles>  (14) 
[H]c1c([H])c([H])c2c(c1[H])C([H])([H])C([H])([H])C([H])([H])C2([H])N([H])C(=O)C1([H])N(C(=O)C([H])(N([H])C(=O)C([H])(N([H])C([H])([H])[H])C([H])([H])[H])C(C([H])([H])[H])(C([H])([H])[H])C([H])([H])[H])C([H])([H])c2c([H])c(OC([H])([H])C([H])([H])OC([H])([H])C([H])([H])N([H])C(=O)C([H])(N([H])C(=O)C([H])(N([H])C(=O)N3C([H])([H])C([H])([H])C([H])([H])C([H])(n4nc(-c5c([H])c([H])c(Oc6c([H])c([H])c(F)c([H])c6F)c([H])c5[H])c(C(=O)N([H])[H])c4N([H])[H])C3([H])[H])C([H])([H])[H])C([H])([H])[H])c([H])c([H])c2C1([H])[H]

>  <smiles>  (14) 
[H]c1c([H])c([H])c2c(c1[H])C([H])([H])C([H])([H])C([H])([H])C2([H])N([H])C(=O)C1([H])N(C(=O)C([H])(N([H])C(=O)C([H])(N([H])C([H])([H])[H])C([H])([H])[H])C(C([H])([H])[H])(C([H])([H])[H])C([H])([H])[H])C([H])([H])c2c([H])c(OC([H])([H])C([H])([H])OC([H])([H])C([H])([H])N([H])C(=O)C([H])(N([H])C(=O)C([H])(N([H])C(=O)N3C([H])([H])C([H])([H])C([H])([H])C([H])(n4nc(-c5c([H])c([H])c(Oc6c([H])c([H])c(F)c([H])c6F)c([H])c5[H])c(C(=O)N([H])[H])c4N([H])[H])C3([H])[H])C([H])([H])[H])C([H])([H])[H])c([H])c([H])c2C1([H])[H]

$$$$
14:0:0
     RDKit          3D

 99106  0  0  1  0  0  0  0  0999 V2000
  -33.4640  -21.7260   12.6520 C   0  0  0  0  0  0  0  0  0  0  0  0
  -32.8990  -20.8010   11.8700 N   0  0  0  0  0  0  0  0  0  0  0  0
  -34.1390  -21.4390   13.6460 O   0  0  0  0  0  0  0  0  0  0  0  0
  -32.3290  -21.1370   11.1040 H   0  0  0  0  0  0  0  0  0  0  0  0
  -33.2300  -23.1840   12.2580 C   0  0  0  0  0  2  0  0  0  0  0  0
  -31.9290  -24.8800   13.5070 C   0  0  0  0  0  0  0  0  0  0  0  0
  -32.9250  -23.9930   13.4300 N   0  0  0  0  0  0  0  0  0  0  0  0
  -31.1000  -25.0410   12.6060 O   0  0  0  0  0  0  0  0  0  0  0  0
  -33.5780  -23.9470   14.2000 H   0  0  0  0  0  0  0  0  0  0  0  0
  -31.8160  -25.6710   14.8070 C   0  0  0  0  0  2  0  0  0  0  0  0
  -32.9730  -25.4180   15.5920 O   0  0  0  0  0  0  0  0  0  0  0  0
  -37.3620  -28.5310   20.2150 C   0  0  0  0  0  0  0  0  0  0  0  0
  -33.6950  -26.5330   15.9220 C   0  0  0  0  0  0  0  0  0  0  0  0
  -36.5270  -29.9780   18.3900 C   0  0  0  0  0  3  0  0  0  0  0  0
  -35.2810  -28.7820   16.5180 C   0  0  0  0  0  0  0  0  0  0  0  0
  -36.7350  -27.4510   18.0640 C   0  0  0  0  0  2  0  0  0  0  0  0
  -35.5670  -27.5440   17.1070 C   0  0  0  0  0  0  0  0  0  0  0  0
  -34.7780  -26.4160   16.8110 C   0  0  0  0  0  3  0  0  0  0  0  0
  -33.4040  -27.7840   15.3400 C   0  0  0  0  0  3  0  0  0  0  0  0
  -34.1900  -28.9140   15.6380 C   0  0  0  0  0  3  0  0  0  0  0  0
  -36.1960  -29.9320   16.8740 C   0  0  0  0  0  2  0  0  0  0  0  0
  -36.8700  -28.6300   18.9490 N   0  0  0  0  0  0  0  0  0  0  0  0
  -37.5730  -29.5410   20.8980 O   0  0  0  0  0  0  0  0  0  0  0  0
  -35.3520  -30.6620   19.1230 C   0  0  0  0  0  0  0  0  0  0  0  0
  -35.1440  -31.9570   18.8380 N   0  0  0  0  0  0  0  0  0  0  0  0
  -34.6370  -30.0250   19.9040 O   0  0  0  0  0  0  0  0  0  0  0  0
  -35.7780  -32.4030   18.1890 H   0  0  0  0  0  0  0  0  0  0  0  0
  -33.8220  -35.3190   18.8760 C   0  0  0  0  0  0  0  0  0  0  0  0
  -34.0770  -32.7980   19.3810 C   0  0  0  0  0  3  0  0  0  0  0  0
  -32.7630  -32.6110   18.5910 C   0  0  0  0  0  2  0  0  0  0  0  0
  -32.5900  -33.6250   17.4560 C   0  0  0  0  0  2  0  0  0  0  0  0
  -32.6080  -35.0570   18.0010 C   0  0  0  0  0  2  0  0  0  0  0  0
  -34.5200  -34.2570   19.5090 C   0  0  0  0  0  0  0  0  0  0  0  0
  -35.6650  -34.5560   20.2780 C   0  0  0  0  0  3  0  0  0  0  0  0
  -36.1160  -35.8820   20.4170 C   0  0  0  0  0  3  0  0  0  0  0  0
  -35.4100  -36.9310   19.8040 C   0  0  0  0  0  3  0  0  0  0  0  0
  -34.2640  -36.6490   19.0430 C   0  0  0  0  0  3  0  0  0  0  0  0
  -37.7030  -27.1490   20.8570 C   0  0  0  0  0  3  0  0  0  0  0  0
  -36.6150  -26.6480   21.8870 C   0  0  1  0  0  0  0  0  0  0  0  0
  -36.8900  -27.0900   23.3440 C   0  0  0  0  0  1  0  0  0  0  0  0
  -35.2140  -27.1690   21.4920 C   0  0  0  0  0  1  0  0  0  0  0  0
  -36.5340  -25.1040   21.8580 C   0  0  0  0  0  1  0  0  0  0  0  0
  -39.0140  -27.2760   21.5060 N   0  0  0  0  0  0  0  0  0  0  0  0
  -40.0000  -26.3750   21.4080 C   0  0  0  0  0  0  0  0  0  0  0  0
  -39.8700  -25.3020   20.8120 O   0  0  0  0  0  0  0  0  0  0  0  0
  -39.2100  -28.1550   21.9650 H   0  0  0  0  0  0  0  0  0  0  0  0
  -42.4300  -26.8700   20.9990 C   0  0  0  0  0  1  0  0  0  0  0  0
  -41.3440  -26.7180   22.0760 C   0  0  0  0  0  3  0  0  0  0  0  0
  -40.9380  -25.7140   24.2790 C   0  0  0  0  0  1  0  0  0  0  0  0
  -41.7720  -25.7200   23.0810 N   0  0  0  0  0  0  0  0  0  0  0  0
  -42.7350  -25.8840   23.3640 H   0  0  0  0  0  0  0  0  0  0  0  0
  -33.0750  -19.3540   11.9380 C   0  0  0  0  0  3  0  0  0  0  0  0
  -34.4810  -18.9150   11.4970 C   0  0  0  0  0  0  0  0  0  0  0  0
  -34.8650  -19.2640   10.2740 N   0  0  0  0  0  0  0  0  0  0  0  0
  -35.2130  -18.2770   12.2520 O   0  0  0  0  0  0  0  0  0  0  0  0
  -34.2520  -19.8620    9.7270 H   0  0  0  0  0  0  0  0  0  0  0  0
  -35.7620  -18.9900    9.9020 H   0  0  0  0  0  0  0  0  0  0  0  0
  -31.9110  -18.5980   11.2500 C   0  0  0  0  0  2  0  0  0  0  0  0
  -31.1100  -17.7350   12.2270 C   0  0  0  0  0  2  0  0  0  0  0  0
  -31.2950  -18.1090   13.6990 C   0  0  0  0  0  2  0  0  0  0  0  0
  -32.0210  -17.0940   14.6100 C   0  0  0  0  0  2  0  0  0  0  0  0
  -32.9260  -18.3140   16.5880 C   0  0  0  0  0  0  0  0  0  0  0  0
  -34.1290  -18.4850   18.7440 C   0  0  0  0  0  2  0  0  0  0  0  0
  -35.5270  -17.8440   18.6560 C   0  0  0  0  0  2  0  0  0  0  0  0
  -35.4800  -16.3190   18.8760 C   0  0  0  0  0  2  0  0  0  0  0  0
  -34.3860  -15.6330   18.0200 C   0  0  0  0  0  3  0  0  0  0  0  0
  -33.0470  -16.3870   18.2020 C   0  0  0  0  0  2  0  0  0  0  0  0
  -33.2320  -17.8000   17.8090 N   0  0  0  0  0  0  0  0  0  0  0  0
  -33.4150  -19.3440   16.1210 O   0  0  0  0  0  0  0  0  0  0  0  0
  -31.9610  -17.6230   15.9710 N   0  0  0  0  0  0  0  0  0  0  0  0
  -31.4580  -17.0230   16.6060 H   0  0  0  0  0  0  0  0  0  0  0  0
  -35.1830  -13.1810   18.1790 C   0  0  0  0  0  0  0  0  0  0  0  0
  -34.6010  -12.0660   18.7180 C   0  0  0  0  0  0  0  0  0  0  0  0
  -33.3320  -12.4860   19.2230 C   0  0  0  0  0  0  0  0  0  0  0  0
  -34.2670  -14.2110   18.3510 N   0  0  0  0  0  0  0  0  0  0  0  0
  -33.1310  -13.7690   18.9480 N   0  0  0  0  0  0  0  0  0  0  0  0
  -32.3220  -11.7560   20.0000 C   0  0  0  0  0  0  0  0  0  0  0  0
  -31.1360  -11.2750   19.4010 C   0  0  0  0  0  3  0  0  0  0  0  0
  -30.1870  -10.5610   20.1640 C   0  0  0  0  0  3  0  0  0  0  0  0
  -30.4180  -10.3180   21.5390 C   0  0  0  0  0  0  0  0  0  0  0  0
  -31.5890  -10.8180   22.1360 C   0  0  0  0  0  3  0  0  0  0  0  0
  -32.5310  -11.5330   21.3740 C   0  0  0  0  0  3  0  0  0  0  0  0
  -29.5440   -9.6530   22.3630 O   0  0  0  0  0  0  0  0  0  0  0  0
  -29.4400   -8.2850   22.3480 C   0  0  0  0  0  0  0  0  0  0  0  0
  -30.2320   -7.4680   23.1860 C   0  0  0  0  0  3  0  0  0  0  0  0
  -30.0450   -6.0710   23.1850 C   0  0  0  0  0  3  0  0  0  0  0  0
  -29.0630   -5.4910   22.3590 C   0  0  0  0  0  0  0  0  0  0  0  0
  -28.2730   -6.3030   21.5280 C   0  0  0  0  0  3  0  0  0  0  0  0
  -28.4600   -7.6970   21.5250 C   0  0  0  0  0  0  0  0  0  0  0  0
  -27.6830   -8.4770   20.7370 F   0  0  0  0  0  0  0  0  0  0  0  0
  -28.8760   -4.1510   22.3670 F   0  0  0  0  0  0  0  0  0  0  0  0
  -35.2170  -10.7030   18.8430 C   0  0  0  0  0  0  0  0  0  0  0  0
  -34.5230   -9.6730   18.3730 N   0  0  0  0  0  0  0  0  0  0  0  0
  -36.3420  -10.5470   19.3180 O   0  0  0  0  0  0  0  0  0  0  0  0
  -33.6070   -9.8010   17.9690 H   0  0  0  0  0  0  0  0  0  0  0  0
  -34.9170   -8.7440   18.4120 H   0  0  0  0  0  0  0  0  0  0  0  0
  -36.4170  -13.4080   17.5760 N   0  0  0  0  0  0  0  0  0  0  0  0
  -37.1270  -12.6880   17.4990 H   0  0  0  0  0  0  0  0  0  0  0  0
  -36.7510  -14.3230   17.3010 H   0  0  0  0  0  0  0  0  0  0  0  0
  1  3  2  0
  2 52  1  0
  2  1  1  0
  4  2  1  0
  5  1  1  0
  5  7  1  0
  6 10  1  0
  7  6  1  0
  7  9  1  0
  8  6  2  0
 10 11  1  0
 11 13  1  0
 12 23  2  0
 13 18  1  0
 14 22  1  0
 14 24  1  0
 15 21  1  0
 15 17  1  0
 16 22  1  0
 17 16  1  0
 18 17  2  0
 19 20  1  0
 19 13  2  0
 20 15  2  0
 21 14  1  0
 22 12  1  0
 24 26  2  0
 25 24  1  0
 27 25  1  0
 28 37  2  0
 28 33  1  0
 29 25  1  0
 29 33  1  0
 30 29  1  0
 31 32  1  0
 31 30  1  0
 32 28  1  0
 33 34  2  0
 34 35  1  0
 36 35  2  0
 37 36  1  0
 38 12  1  0
 38 43  1  0
 38 39  1  0
 39 40  1  1
 41 39  1  0
 42 39  1  0
 43 46  1  0
 44 43  1  0
 44 48  1  0
 45 44  2  0
 48 47  1  0
 48 50  1  0
 50 51  1  0
 50 49  1  0
 52 58  1  0
 53 52  1  0
 53 55  2  0
 54 53  1  0
 56 54  1  0
 57 54  1  0
 58 59  1  0
 59 60  1  0
 60 61  1  0
 61 70  1  0
 62 68  1  0
 64 63  1  0
 64 65  1  0
 66 67  1  0
 66 75  1  0
 66 65  1  0
 68 67  1  0
 68 63  1  0
 69 62  2  0
 70 62  1  0
 70 71  1  0
 72 75  1  0
 72 73  2  0
 73 92  1  0
 73 74  1  0
 74 77  1  0
 75 76  1  0
 76 74  2  0
 77 82  1  0
 78 77  2  0
 78 79  1  0
 79 80  2  0
 80 81  1  0
 80 83  1  0
 82 81  2  0
 84 83  1  0
 84 85  1  0
 86 85  2  0
 87 91  1  0
 87 86  1  0
 88 87  2  0
 89 88  1  0
 89 84  2  0
 90 89  1  0
 92 94  2  0
 93 96  1  0
 93 92  1  0
 95 93  1  0
 97 72  1  0
 98 97  1  0
 99 97  1  0
M  ISO  4  10 101  11 101  62 100  70 100
M  END
>  <TORSDO>  (15) 
F 25

>  <SCORE>  (15) 
-4.368

>  <name>  (15) 
14

>  <ligand_id>  (15) 
14

>  <original_smiles>  (15) 
[H]c1c([H])c([H])c2c(c1[H])C([H])([H])C([H])([H])C([H])([H])C2([H])N([H])C(=O)C1([H])N(C(=O)C([H])(N([H])C(=O)C([H])(N([H])C([H])([H])[H])C([H])([H])[H])C(C([H])([H])[H])(C([H])([H])[H])C([H])([H])[H])C([H])([H])c2c([H])c(OC([H])([H])C(=O)N([H])C([H])([H])C(=O)N([H])C([H])(C(=O)N([H])[H])C([H])([H])C([H])([H])C([H])([H])C([H])([H])N([H])C(=O)N3C([H])([H])C([H])([H])C([H])([H])C([H])(n4nc(-c5c([H])c([H])c(Oc6c([H])c([H])c(F)c([H])c6F)c([H])c5[H])c(C(=O)N([H])[H])c4N([H])[H])C3([H])[H])c([H])c([H])c2C1([H])[H]

>  <smiles>  (15) 
[H]c1c([H])c([H])c2c(c1[H])C([H])([H])C([H])([H])C([H])([H])C2([H])N([H])C(=O)C1([H])N(C(=O)C([H])(N([H])C(=O)C([H])(N([H])C([H])([H])[H])C([H])([H])[H])C(C([H])([H])[H])(C([H])([H])[H])C([H])([H])[H])C([H])([H])c2c([H])c(OC([H])([H])C(=O)N([H])C([H])([H])C(=O)N([H])C([H])(C(=O)N([H])[H])C([H])([H])C([H])([H])C([H])([H])C([H])([H])N([H])C(=O)N3C([H])([H])C([H])([H])C([H])([H])C([H])(n4nc(-c5c([H])c([H])c(Oc6c([H])c([H])c(F)c([H])c6F)c([H])c5[H])c(C(=O)N([H])[H])c4N([H])[H])C3([H])[H])c([H])c([H])c2C1([H])[H]

$$$$
15:0:0
     RDKit          3D

 99106  0  0  1  0  0  0  0  0999 V2000
  -29.1250  -20.2840   21.7760 C   0  0  0  0  0  0  0  0  0  0  0  0
  -30.2260  -19.7510   21.2300 N   0  0  0  0  0  0  0  0  0  0  0  0
  -28.7570  -20.0180   22.9220 O   0  0  0  0  0  0  0  0  0  0  0  0
  -30.4570  -20.0280   20.2880 H   0  0  0  0  0  0  0  0  0  0  0  0
  -28.3260  -21.2660   20.9130 C   0  0  0  0  0  2  0  0  0  0  0  0
  -29.2760  -22.2450   20.2460 C   0  0  0  0  0  3  0  0  0  0  0  0
  -29.3210  -22.4310   18.9870 N   0  0  0  0  0  0  0  0  0  0  0  0
  -30.3330  -23.3420   18.4770 C   0  0  0  0  0  2  0  0  0  0  0  0
  -29.6860  -24.3720   17.5410 C   0  0  0  0  0  2  0  0  0  0  0  0
  -30.4540  -25.7060   17.5130 C   0  0  0  0  0  2  0  0  0  0  0  0
  -29.7080  -26.7060   16.8240 O   0  0  0  0  0  0  0  0  0  0  0  0
  -25.7140  -27.7320   22.6220 C   0  0  0  0  0  0  0  0  0  0  0  0
  -28.4630  -26.9370   17.3480 C   0  0  0  0  0  0  0  0  0  0  0  0
  -24.4820  -27.3870   20.5030 C   0  0  0  0  0  3  0  0  0  0  0  0
  -25.8940  -27.4520   18.3800 C   0  0  0  0  0  0  0  0  0  0  0  0
  -26.8310  -28.3960   20.4990 C   0  0  0  0  0  2  0  0  0  0  0  0
  -27.0300  -27.7720   19.1350 C   0  0  0  0  0  0  0  0  0  0  0  0
  -28.3190  -27.5160   18.6250 C   0  0  0  0  0  3  0  0  0  0  0  0
  -27.3170  -26.6230   16.5920 C   0  0  0  0  0  3  0  0  0  0  0  0
  -26.0300  -26.8700   17.1060 C   0  0  0  0  0  3  0  0  0  0  0  0
  -24.5510  -27.7670   18.9990 C   0  0  0  0  0  2  0  0  0  0  0  0
  -25.7000  -27.8170   21.2610 N   0  0  0  0  0  0  0  0  0  0  0  0
  -24.7170  -27.3430   23.2480 O   0  0  0  0  0  0  0  0  0  0  0  0
  -24.1960  -25.8730   20.6150 C   0  0  0  0  0  0  0  0  0  0  0  0
  -23.0130  -25.4520   20.1380 N   0  0  0  0  0  0  0  0  0  0  0  0
  -25.0340  -25.1040   21.0940 O   0  0  0  0  0  0  0  0  0  0  0  0
  -22.3790  -26.1470   19.7700 H   0  0  0  0  0  0  0  0  0  0  0  0
  -20.3720  -23.3080   18.9250 C   0  0  0  0  0  0  0  0  0  0  0  0
  -22.5430  -24.0690   20.1040 C   0  0  0  0  0  3  0  0  0  0  0  0
  -23.2940  -23.2520   19.0270 C   0  0  0  0  0  2  0  0  0  0  0  0
  -22.5720  -23.2300   17.6750 C   0  0  0  0  0  2  0  0  0  0  0  0
  -21.1710  -22.6290   17.8240 C   0  0  0  0  0  2  0  0  0  0  0  0
  -21.0160  -23.9980   19.9860 C   0  0  0  0  0  0  0  0  0  0  0  0
  -20.2270  -24.6410   20.9630 C   0  0  0  0  0  3  0  0  0  0  0  0
  -18.8220  -24.6020   20.8930 C   0  0  0  0  0  3  0  0  0  0  0  0
  -18.1890  -23.9050   19.8500 C   0  0  0  0  0  3  0  0  0  0  0  0
  -18.9650  -23.2560   18.8720 C   0  0  0  0  0  3  0  0  0  0  0  0
  -26.9680  -28.1400   23.4560 C   0  0  0  0  0  3  0  0  0  0  0  0
  -26.5140  -29.0340   24.5270 N   0  0  0  0  0  0  0  0  0  0  0  0
  -26.6600  -30.3660   24.5180 C   0  0  0  0  0  0  0  0  0  0  0  0
  -27.2620  -30.9670   23.6230 O   0  0  0  0  0  0  0  0  0  0  0  0
  -25.9640  -28.6160   25.2630 H   0  0  0  0  0  0  0  0  0  0  0  0
  -24.7170  -31.7970   25.2270 C   0  0  0  0  0  1  0  0  0  0  0  0
  -26.0370  -31.1550   25.6850 C   0  0  0  0  0  3  0  0  0  0  0  0
  -28.0830  -31.6500   26.9470 C   0  0  0  0  0  1  0  0  0  0  0  0
  -26.9320  -32.1970   26.2340 N   0  0  0  0  0  0  0  0  0  0  0  0
  -26.4260  -32.8090   26.8710 H   0  0  0  0  0  0  0  0  0  0  0  0
  -27.7480  -26.9040   24.0530 C   0  0  1  0  0  0  0  0  0  0  0  0
  -26.8470  -25.9220   24.8370 C   0  0  0  0  0  1  0  0  0  0  0  0
  -28.4480  -26.1080   22.9270 C   0  0  0  0  0  1  0  0  0  0  0  0
  -28.8610  -27.3970   25.0060 C   0  0  0  0  0  1  0  0  0  0  0  0
  -31.2310  -18.9540   21.9290 C   0  0  0  0  0  3  0  0  0  0  0  0
  -32.0390  -19.8590   22.8800 C   0  0  0  0  0  0  0  0  0  0  0  0
  -32.0270  -19.5580   24.1720 N   0  0  0  0  0  0  0  0  0  0  0  0
  -32.6850  -20.8180   22.4580 O   0  0  0  0  0  0  0  0  0  0  0  0
  -31.4940  -18.7670   24.5060 H   0  0  0  0  0  0  0  0  0  0  0  0
  -32.5450  -20.1180   24.8320 H   0  0  0  0  0  0  0  0  0  0  0  0
  -32.1920  -18.3750   20.8690 C   0  0  0  0  0  2  0  0  0  0  0  0
  -31.6920  -17.0720   20.2210 C   0  0  0  0  0  2  0  0  0  0  0  0
  -32.6590  -16.5620   19.1400 C   0  0  0  0  0  2  0  0  0  0  0  0
  -33.2270  -15.1620   19.4080 C   0  0  0  0  0  2  0  0  0  0  0  0
  -32.1570  -13.0130   18.7410 C   0  0  0  0  0  0  0  0  0  0  0  0
  -31.8630  -10.5960   19.0940 C   0  0  0  0  0  2  0  0  0  0  0  0
  -30.7520   -9.9440   18.2600 C   0  0  0  0  0  2  0  0  0  0  0  0
  -29.3990  -10.0630   18.9810 C   0  0  0  0  0  2  0  0  0  0  0  0
  -29.0960  -11.5160   19.4260 C   0  0  0  0  0  3  0  0  0  0  0  0
  -30.2940  -12.1330   20.1810 C   0  0  0  0  0  2  0  0  0  0  0  0
  -31.5080  -11.9960   19.3550 N   0  0  0  0  0  0  0  0  0  0  0  0
  -32.8660  -12.8730   17.7400 O   0  0  0  0  0  0  0  0  0  0  0  0
  -32.2000  -14.1260   19.4830 N   0  0  0  0  0  0  0  0  0  0  0  0
  -31.6260  -14.1150   20.3140 H   0  0  0  0  0  0  0  0  0  0  0  0
  -27.3790  -12.6100   21.0050 C   0  0  0  0  0  0  0  0  0  0  0  0
  -26.1610  -12.1880   21.4660 C   0  0  0  0  0  0  0  0  0  0  0  0
  -25.9600  -10.8870   20.9140 C   0  0  0  0  0  0  0  0  0  0  0  0
  -27.8680  -11.5790   20.2180 N   0  0  0  0  0  0  0  0  0  0  0  0
  -27.0230  -10.5150   20.2120 N   0  0  0  0  0  0  0  0  0  0  0  0
  -24.7930   -9.9950   20.9670 C   0  0  0  0  0  0  0  0  0  0  0  0
  -24.8320   -8.7690   21.6660 C   0  0  0  0  0  3  0  0  0  0  0  0
  -23.6930   -7.9380   21.7180 C   0  0  0  0  0  3  0  0  0  0  0  0
  -22.4980   -8.3300   21.0710 C   0  0  0  0  0  0  0  0  0  0  0  0
  -22.4720   -9.5420   20.3570 C   0  0  0  0  0  3  0  0  0  0  0  0
  -23.6080  -10.3650   20.3020 C   0  0  0  0  0  3  0  0  0  0  0  0
  -21.3500   -7.5750   21.0460 O   0  0  0  0  0  0  0  0  0  0  0  0
  -20.9600   -6.8240   22.1240 C   0  0  0  0  0  0  0  0  0  0  0  0
  -20.6410   -7.4120   23.3670 C   0  0  0  0  0  3  0  0  0  0  0  0
  -20.1780   -6.6090   24.4280 C   0  0  0  0  0  3  0  0  0  0  0  0
  -20.0230   -5.2220   24.2470 C   0  0  0  0  0  0  0  0  0  0  0  0
  -20.3350   -4.6350   23.0080 C   0  0  0  0  0  3  0  0  0  0  0  0
  -20.7980   -5.4340   21.9490 C   0  0  0  0  0  0  0  0  0  0  0  0
  -21.0770   -4.8660   20.7510 F   0  0  0  0  0  0  0  0  0  0  0  0
  -19.5700   -4.4510   25.2640 F   0  0  0  0  0  0  0  0  0  0  0  0
  -25.1920  -12.9840   22.2930 C   0  0  0  0  0  0  0  0  0  0  0  0
  -24.4320  -12.3180   23.1560 N   0  0  0  0  0  0  0  0  0  0  0  0
  -25.1380  -14.2110   22.2130 O   0  0  0  0  0  0  0  0  0  0  0  0
  -24.4900  -11.3130   23.2370 H   0  0  0  0  0  0  0  0  0  0  0  0
  -23.7830  -12.8200   23.7450 H   0  0  0  0  0  0  0  0  0  0  0  0
  -28.1020  -13.7890   21.1710 N   0  0  0  0  0  0  0  0  0  0  0  0
  -27.7410  -14.5790   21.6920 H   0  0  0  0  0  0  0  0  0  0  0  0
  -28.9930  -13.9780   20.7290 H   0  0  0  0  0  0  0  0  0  0  0  0
  1  3  2  0
  2  1  1  0
  2 52  1  0
  4  2  1  0
  5  1  1  0
  6  5  1  0
  7  6  2  0
  8  7  1  0
  9  8  1  0
 10  9  1  0
 11 13  1  0
 11 10  1  0
 12 23  2  0
 13 18  1  0
 14 24  1  0
 14 22  1  0
 15 21  1  0
 15 17  1  0
 16 22  1  0
 17 16  1  0
 18 17  2  0
 19 20  1  0
 19 13  2  0
 20 15  2  0
 21 14  1  0
 22 12  1  0
 24 26  2  0
 25 24  1  0
 27 25  1  0
 28 33  1  0
 29 25  1  0
 30 29  1  0
 31 32  1  0
 31 30  1  0
 32 28  1  0
 33 29  1  0
 33 34  2  0
 35 34  1  0
 36 35  2  0
 37 28  2  0
 37 36  1  0
 38 12  1  0
 38 48  1  0
 38 39  1  0
 39 42  1  0
 40 39  1  0
 40 44  1  0
 41 40  2  0
 44 43  1  0
 44 46  1  0
 46 47  1  0
 46 45  1  0
 48 49  1  1
 48 51  1  0
 50 48  1  0
 52 58  1  0
 52 53  1  0
 53 54  1  0
 54 56  1  0
 54 57  1  0
 55 53  2  0
 59 58  1  0
 60 61  1  0
 60 59  1  0
 61 70  1  0
 62 68  1  0
 62 70  1  0
 63 68  1  0
 64 65  1  0
 64 63  1  0
 66 65  1  0
 66 67  1  0
 66 75  1  0
 68 67  1  0
 69 62  2  0
 70 71  1  0
 72 97  1  0
 72 73  2  0
 73 92  1  0
 74 77  1  0
 74 73  1  0
 75 72  1  0
 76 75  1  0
 76 74  2  0
 77 78  1  0
 78 79  2  0
 80 79  1  0
 81 80  2  0
 82 81  1  0
 82 77  2  0
 83 80  1  0
 83 84  1  0
 84 85  1  0
 85 86  2  0
 87 86  1  0
 87 91  1  0
 88 87  2  0
 89 84  2  0
 89 88  1  0
 90 89  1  0
 92 93  1  0
 93 95  1  0
 93 96  1  0
 94 92  2  0
 97 98  1  0
 99 97  1  0
M  ISO  4  10 101  11 101  62 100  70 100
M  END
>  <TORSDO>  (16) 
F 27

>  <SCORE>  (16) 
1.365

>  <name>  (16) 
15

>  <ligand_id>  (16) 
15

>  <original_smiles>  (16) 
[H]C(=NC([H])([H])C([H])([H])C([H])([H])Oc1c([H])c([H])c2c(c1[H])C([H])([H])N(C(=O)C([H])(N([H])C(=O)C([H])(N([H])C([H])([H])[H])C([H])([H])[H])C(C([H])([H])[H])(C([H])([H])[H])C([H])([H])[H])C([H])(C(=O)N([H])C1([H])c3c([H])c([H])c([H])c([H])c3C([H])([H])C([H])([H])C1([H])[H])C2([H])[H])C([H])([H])C(=O)N([H])C([H])(C(=O)N([H])[H])C([H])([H])C([H])([H])C([H])([H])C([H])([H])N([H])C(=O)N1C([H])([H])C([H])([H])C([H])([H])C([H])(n2nc(-c3c([H])c([H])c(Oc4c([H])c([H])c(F)c([H])c4F)c([H])c3[H])c(C(=O)N([H])[H])c2N([H])[H])C1([H])[H]

>  <smiles>  (16) 
[H]C(=NC([H])([H])C([H])([H])C([H])([H])Oc1c([H])c([H])c2c(c1[H])C([H])([H])N(C(=O)C([H])(N([H])C(=O)C([H])(N([H])C([H])([H])[H])C([H])([H])[H])C(C([H])([H])[H])(C([H])([H])[H])C([H])([H])[H])C([H])(C(=O)N([H])C1([H])c3c([H])c([H])c([H])c([H])c3C([H])([H])C([H])([H])C1([H])[H])C2([H])[H])C([H])([H])C(=O)N([H])C([H])(C(=O)N([H])[H])C([H])([H])C([H])([H])C([H])([H])C([H])([H])N([H])C(=O)N1C([H])([H])C([H])([H])C([H])([H])C([H])(n2nc(-c3c([H])c([H])c(Oc4c([H])c([H])c(F)c([H])c4F)c([H])c3[H])c(C(=O)N([H])[H])c2N([H])[H])C1([H])[H]

$$$$
16:0:0
     RDKit          3D

101109  0  0  1  0  0  0  0  0999 V2000
  -31.0530  -20.8910   18.1720 C   0  0  0  0  0  2  0  0  0  0  0  0
  -29.9080  -20.5500   19.1290 C   0  0  0  0  0  2  0  0  0  0  0  0
  -31.7200  -22.1400   18.7620 C   0  0  0  0  0  2  0  0  0  0  0  0
  -29.9240  -21.6950   20.1520 C   0  0  0  0  0  3  0  0  0  0  0  0
  -31.3740  -22.1060   20.1950 N   0  0  0  0  0  0  0  0  0  0  0  0
  -28.9830  -22.9150   19.7540 C   0  0  0  0  0  0  0  0  0  0  0  0
  -27.9730  -22.7950   18.8510 N   0  0  0  0  0  0  0  0  0  0  0  0
  -29.2420  -24.0130   20.2510 O   0  0  0  0  0  0  0  0  0  0  0  0
  -27.8110  -21.8620   18.4940 H   0  0  0  0  0  0  0  0  0  0  0  0
  -27.2420  -23.9000   18.1500 C   0  0  0  0  0  2  0  0  0  0  0  0
  -25.9780  -24.4900   18.8780 C   0  0  0  0  0  2  0  0  0  0  0  0
  -24.8300  -24.8330   18.0380 O   0  0  0  0  0  0  0  0  0  0  0  0
  -21.9680  -25.7530   11.5410 C   0  0  0  0  0  0  0  0  0  0  0  0
  -24.9350  -25.4930   16.8150 C   0  0  0  0  0  0  0  0  0  0  0  0
  -24.2320  -26.6960   11.8670 C   0  0  0  0  0  3  0  0  0  0  0  0
  -25.0630  -26.7960   14.2830 C   0  0  0  0  0  0  0  0  0  0  0  0
  -22.6220  -26.4630   13.8460 C   0  0  0  0  0  2  0  0  0  0  0  0
  -23.8380  -26.3020   14.7460 C   0  0  0  0  0  0  0  0  0  0  0  0
  -23.7710  -25.6630   16.0130 C   0  0  0  0  0  3  0  0  0  0  0  0
  -26.1540  -26.0100   16.3200 C   0  0  0  0  0  3  0  0  0  0  0  0
  -26.2190  -26.6580   15.0690 C   0  0  0  0  0  3  0  0  0  0  0  0
  -25.0710  -27.4640   12.9240 C   0  0  0  0  0  2  0  0  0  0  0  0
  -22.9000  -26.2620   12.3990 N   0  0  0  0  0  0  0  0  0  0  0  0
  -22.1900  -25.6760   10.3240 O   0  0  0  0  0  0  0  0  0  0  0  0
  -25.0810  -25.5260   11.3150 C   0  0  0  0  0  0  0  0  0  0  0  0
  -25.7760  -25.7650   10.1900 N   0  0  0  0  0  0  0  0  0  0  0  0
  -25.1270  -24.4450   11.9080 O   0  0  0  0  0  0  0  0  0  0  0  0
  -25.6760  -26.6730    9.7580 H   0  0  0  0  0  0  0  0  0  0  0  0
  -27.8270  -25.2910    7.2530 C   0  0  0  0  0  0  0  0  0  0  0  0
  -26.6720  -24.8260    9.5190 C   0  0  0  0  0  3  0  0  0  0  0  0
  -28.0900  -24.8720   10.1340 C   0  0  0  0  0  2  0  0  0  0  0  0
  -29.0310  -25.8390    9.4100 C   0  0  0  0  0  2  0  0  0  0  0  0
  -29.1750  -25.4490    7.9360 C   0  0  0  0  0  2  0  0  0  0  0  0
  -26.6500  -25.0140    7.9970 C   0  0  0  0  0  0  0  0  0  0  0  0
  -25.4180  -24.9130    7.3150 C   0  0  0  0  0  3  0  0  0  0  0  0
  -25.3510  -25.0820    5.9190 C   0  0  0  0  0  3  0  0  0  0  0  0
  -26.5230  -25.3390    5.1860 C   0  0  0  0  0  3  0  0  0  0  0  0
  -27.7580  -25.4370    5.8520 C   0  0  0  0  0  3  0  0  0  0  0  0
  -20.5740  -25.2620   12.0420 C   0  0  0  0  0  3  0  0  0  0  0  0
  -20.4630  -23.6890   12.1380 C   0  0  1  0  0  0  0  0  0  0  0  0
  -20.2500  -22.9970   10.7720 C   0  0  0  0  0  1  0  0  0  0  0  0
  -21.7350  -23.0910   12.7790 C   0  0  0  0  0  1  0  0  0  0  0  0
  -19.2800  -23.3020   13.0580 C   0  0  0  0  0  1  0  0  0  0  0  0
  -19.5570  -25.7930   11.1240 N   0  0  0  0  0  0  0  0  0  0  0  0
  -18.9120  -26.9550   11.2950 C   0  0  0  0  0  0  0  0  0  0  0  0
  -19.0620  -27.6630   12.2940 O   0  0  0  0  0  0  0  0  0  0  0  0
  -19.4140  -25.2880   10.2610 H   0  0  0  0  0  0  0  0  0  0  0  0
  -18.4670  -28.6990    9.5420 C   0  0  0  0  0  1  0  0  0  0  0  0
  -17.9450  -27.4010   10.1800 C   0  0  0  0  0  3  0  0  0  0  0  0
  -15.8300  -26.3450   10.8370 C   0  0  0  0  0  1  0  0  0  0  0  0
  -16.5560  -27.5980   10.6490 N   0  0  0  0  0  0  0  0  0  0  0  0
  -16.0320  -28.1720    9.9930 H   0  0  0  0  0  0  0  0  0  0  0  0
  -32.4890  -21.4720   20.9930 C   0  0  0  0  0  3  0  0  0  0  0  0
  -33.8860  -21.1460   20.3070 C   0  0  0  0  0  2  0  0  0  0  0  0
  -34.6900  -19.1780   18.7850 C   0  0  0  0  0  0  0  0  0  0  0  0
  -35.8350  -18.4530   16.7040 C   0  0  0  0  0  2  0  0  0  0  0  0
  -36.4780  -19.7090   16.0720 C   0  0  0  0  0  2  0  0  0  0  0  0
  -35.4650  -20.4860   15.2030 C   0  0  0  0  0  2  0  0  0  0  0  0
  -34.1060  -20.7010   15.9210 C   0  0  0  0  0  3  0  0  0  0  0  0
  -33.6100  -19.3630   16.5170 C   0  0  0  0  0  2  0  0  0  0  0  0
  -34.6430  -18.8890   17.4510 N   0  0  0  0  0  0  0  0  0  0  0  0
  -35.5590  -18.7110   19.5300 O   0  0  0  0  0  0  0  0  0  0  0  0
  -33.8440  -20.1740   19.1660 N   0  0  0  0  0  0  0  0  0  0  0  0
  -33.1940  -20.4110   18.4350 H   0  0  0  0  0  0  0  0  0  0  0  0
  -32.7450  -22.6450   14.9290 C   0  0  0  0  0  0  0  0  0  0  0  0
  -31.8260  -22.6900   13.9150 C   0  0  0  0  0  0  0  0  0  0  0  0
  -31.7010  -21.3490   13.4340 C   0  0  0  0  0  0  0  0  0  0  0  0
  -33.1180  -21.3140   15.0400 N   0  0  0  0  0  0  0  0  0  0  0  0
  -32.4440  -20.5280   14.1640 N   0  0  0  0  0  0  0  0  0  0  0  0
  -30.9650  -20.8060   12.2840 C   0  0  0  0  0  0  0  0  0  0  0  0
  -29.7870  -20.0460   12.4550 C   0  0  0  0  0  3  0  0  0  0  0  0
  -29.0870  -19.5500   11.3350 C   0  0  0  0  0  3  0  0  0  0  0  0
  -29.5600  -19.8130   10.0270 C   0  0  0  0  0  0  0  0  0  0  0  0
  -30.7460  -20.5510    9.8630 C   0  0  0  0  0  3  0  0  0  0  0  0
  -31.4450  -21.0400   10.9800 C   0  0  0  0  0  3  0  0  0  0  0  0
  -28.9590  -19.3510    8.8810 O   0  0  0  0  0  0  0  0  0  0  0  0
  -27.6800  -19.7180    8.5450 C   0  0  0  0  0  0  0  0  0  0  0  0
  -27.3040  -21.0710    8.4060 C   0  0  0  0  0  3  0  0  0  0  0  0
  -25.9990  -21.4000    7.9870 C   0  0  0  0  0  3  0  0  0  0  0  0
  -25.0720  -20.3800    7.7000 C   0  0  0  0  0  0  0  0  0  0  0  0
  -25.4470  -19.0320    7.8340 C   0  0  0  0  0  3  0  0  0  0  0  0
  -26.7470  -18.7030    8.2530 C   0  0  0  0  0  0  0  0  0  0  0  0
  -27.1090  -17.4020    8.3590 F   0  0  0  0  0  0  0  0  0  0  0  0
  -23.8210  -20.6950    7.2910 F   0  0  0  0  0  0  0  0  0  0  0  0
  -31.1820  -23.9210   13.3430 C   0  0  0  0  0  0  0  0  0  0  0  0
  -29.8600  -23.9250   13.2210 N   0  0  0  0  0  0  0  0  0  0  0  0
  -31.8540  -24.9100   13.0480 O   0  0  0  0  0  0  0  0  0  0  0  0
  -29.3070  -23.1240   13.4880 H   0  0  0  0  0  0  0  0  0  0  0  0
  -29.3930  -24.7440   12.8560 H   0  0  0  0  0  0  0  0  0  0  0  0
  -33.3320  -23.6200   15.7360 N   0  0  0  0  0  0  0  0  0  0  0  0
  -33.1690  -24.5310   15.3160 H   0  0  0  0  0  0  0  0  0  0  0  0
  -34.3300  -23.4450   15.7680 H   0  0  0  0  0  0  0  0  0  0  0  0
  -31.7300  -20.2800   21.6990 C   0  0  0  0  0  3  0  0  0  0  0  0
  -32.1330  -19.0050   21.0810 N   0  0  0  0  0  4  0  0  0  0  0  0
  -33.0180  -18.6690   21.4260 H   0  0  0  0  0  0  0  0  0  0  0  0
  -32.1830  -19.1620   20.0850 H   0  0  0  0  0  0  0  0  0  0  0  0
  -31.4410  -18.3010   21.2590 H   0  0  0  0  0  0  0  0  0  0  0  0
  -30.9560  -18.9570   23.7870 C   0  0  0  0  0  1  0  0  0  0  0  0
  -31.7470  -20.1750   23.2570 C   0  0  0  0  0  3  0  0  0  0  0  0
  -29.8280  -21.8630   23.7320 C   0  0  0  0  0  1  0  0  0  0  0  0
  -31.2880  -21.4580   23.9930 C   0  0  0  0  0  2  0  0  0  0  0  0
  1  3  1  0
  1  2  1  0
  2  4  1  0
  3  5  1  0
  4  6  1  0
  4  5  1  0
  5 53  1  0
  6  8  2  0
  7  6  1  0
  9  7  1  0
 10  7  1  0
 10 11  1  0
 12 11  1  0
 13 23  1  0
 14 12  1  0
 15 25  1  0
 15 23  1  0
 15 22  1  0
 16 18  2  0
 16 21  1  0
 17 18  1  0
 18 19  1  0
 19 14  2  0
 20 14  1  0
 21 20  2  0
 22 16  1  0
 23 17  1  0
 24 13  2  0
 25 27  2  0
 26 25  1  0
 28 26  1  0
 29 33  1  0
 29 34  1  0
 30 31  1  0
 30 26  1  0
 32 31  1  0
 33 32  1  0
 34 30  1  0
 35 34  2  0
 36 35  1  0
 37 38  1  0
 37 36  2  0
 38 29  2  0
 39 13  1  0
 39 40  1  0
 40 42  1  1
 40 43  1  0
 41 40  1  0
 44 45  1  0
 44 39  1  0
 45 46  2  0
 47 44  1  0
 49 48  1  0
 49 51  1  0
 49 45  1  0
 51 50  1  0
 52 51  1  0
 53 54  1  0
 53 93  1  0
 55 63  1  0
 55 62  2  0
 56 61  1  0
 57 56  1  0
 58 59  1  0
 58 57  1  0
 59 68  1  0
 59 60  1  0
 60 61  1  0
 61 55  1  0
 63 54  1  0
 64 63  1  0
 65 68  1  0
 65 90  1  0
 66 65  2  0
 67 66  1  0
 67 69  2  0
 69 68  1  0
 70 71  1  0
 70 67  1  0
 72 71  2  0
 73 72  1  0
 74 73  2  0
 74 75  1  0
 75 70  2  0
 76 73  1  0
 77 76  1  0
 78 77  1  0
 79 78  2  0
 80 81  2  0
 80 79  1  0
 81 82  1  0
 82 83  1  0
 82 77  2  0
 84 80  1  0
 85 66  1  0
 86 85  1  0
 86 88  1  0
 87 85  2  0
 89 86  1  0
 90 92  1  0
 91 90  1  0
 93 94  1  0
 93 99  1  0
 94 97  1  0
 94 95  1  0
 96 94  1  0
 99 98  1  0
 99101  1  0
100101  1  0
M  ISO  4  11 101  12 101  55 100  63 100
M  END
>  <TORSDO>  (17) 
F 25

>  <SCORE>  (17) 
-4.702

>  <name>  (17) 
16

>  <ligand_id>  (17) 
16

>  <original_smiles>  (17) 
[H]c1c([H])c([H])c2c(c1[H])C([H])([H])C([H])([H])C([H])([H])C2([H])N([H])C(=O)C1([H])N(C(=O)C([H])(N([H])C(=O)C([H])(N([H])C([H])([H])[H])C([H])([H])[H])C(C([H])([H])[H])(C([H])([H])[H])C([H])([H])[H])C([H])([H])c2c([H])c(OC([H])([H])C([H])([H])N([H])C(=O)C3([H])N(C([H])(C([H])([H])N([H])C(=O)N4C([H])([H])C([H])([H])C([H])([H])C([H])(n5nc(-c6c([H])c([H])c(Oc7c([H])c([H])c(F)c([H])c7F)c([H])c6[H])c(C(=O)N([H])[H])c5N([H])[H])C4([H])[H])C([H])(C([H])(C([H])([H])[H])C([H])([H])C([H])([H])[H])[N+]([H])([H])[H])C([H])([H])C([H])([H])C3([H])[H])c([H])c([H])c2C1([H])[H]

>  <smiles>  (17) 
[H]c1c([H])c([H])c2c(c1[H])C([H])([H])C([H])([H])C([H])([H])C2([H])N([H])C(=O)C1([H])N(C(=O)C([H])(N([H])C(=O)C([H])(N([H])C([H])([H])[H])C([H])([H])[H])C(C([H])([H])[H])(C([H])([H])[H])C([H])([H])[H])C([H])([H])c2c([H])c(OC([H])([H])C([H])([H])N([H])C(=O)C3([H])N(C([H])(C([H])([H])N([H])C(=O)N4C([H])([H])C([H])([H])C([H])([H])C([H])(n5nc(-c6c([H])c([H])c(Oc7c([H])c([H])c(F)c([H])c7F)c([H])c6[H])c(C(=O)N([H])[H])c5N([H])[H])C4([H])[H])C([H])(C([H])(C([H])([H])[H])C([H])([H])C([H])([H])[H])[N+]([H])([H])[H])C([H])([H])C([H])([H])C3([H])[H])c([H])c([H])c2C1([H])[H]

$$$$
17:0:0
     RDKit          3D

109116  0  0  1  0  0  0  0  0999 V2000
  -30.4180  -18.8120   25.4450 C   0  0  0  0  0  2  0  0  0  0  0  0
  -29.0950  -19.3200   25.0200 N   0  0  0  0  0  4  0  0  0  0  0  0
  -28.8170  -18.8820   24.1510 H   0  0  0  0  0  0  0  0  0  0  0  0
  -28.4030  -19.1110   25.7210 H   0  0  0  0  0  0  0  0  0  0  0  0
  -29.0830  -20.7660   24.7130 C   0  0  0  0  0  2  0  0  0  0  0  0
  -29.7940  -20.9890   23.3810 C   0  0  0  0  0  0  0  0  0  0  0  0
  -30.2680  -22.2100   23.0970 N   0  0  0  0  0  0  0  0  0  0  0  0
  -29.9250  -20.0320   22.6180 O   0  0  0  0  0  0  0  0  0  0  0  0
  -30.1400  -22.9600   23.7650 H   0  0  0  0  0  0  0  0  0  0  0  0
  -30.9730  -22.5200   21.8540 C   0  0  0  0  0  2  0  0  0  0  0  0
  -30.7330  -23.9570   21.3650 C   0  0  0  0  0  2  0  0  0  0  0  0
  -31.8180  -24.8070   21.7380 O   0  0  0  0  0  0  0  0  0  0  0  0
  -31.5650  -26.1600   21.3640 C   0  0  0  0  0  2  0  0  0  0  0  0
  -32.6890  -27.1400   21.7780 C   0  0  0  0  0  2  0  0  0  0  0  0
  -32.4430  -28.4980   21.3830 O   0  0  0  0  0  0  0  0  0  0  0  0
  -27.8920  -30.8610   26.3190 C   0  0  0  0  0  0  0  0  0  0  0  0
  -31.1830  -28.9560   21.6760 C   0  0  0  0  0  0  0  0  0  0  0  0
  -26.9020  -30.2060   24.1470 C   0  0  0  0  0  3  0  0  0  0  0  0
  -28.5610  -29.8170   22.2470 C   0  0  0  0  0  0  0  0  0  0  0  0
  -29.3110  -31.0620   24.2830 C   0  0  0  0  0  2  0  0  0  0  0  0
  -29.6220  -30.1920   23.0840 C   0  0  0  0  0  0  0  0  0  0  0  0
  -30.9370  -29.7590   22.8070 C   0  0  0  0  0  3  0  0  0  0  0  0
  -30.1160  -28.6220   20.8160 C   0  0  0  0  0  3  0  0  0  0  0  0
  -28.8020  -29.0290   21.1090 C   0  0  0  0  0  3  0  0  0  0  0  0
  -27.1830  -30.3110   22.6230 C   0  0  0  0  0  2  0  0  0  0  0  0
  -28.0520  -30.6960   24.9750 N   0  0  0  0  0  0  0  0  0  0  0  0
  -26.8000  -30.6480   26.8640 O   0  0  0  0  0  0  0  0  0  0  0  0
  -26.4890  -28.7530   24.4750 C   0  0  0  0  0  0  0  0  0  0  0  0
  -25.3650  -28.3060   23.8930 N   0  0  0  0  0  0  0  0  0  0  0  0
  -27.1820  -28.0490   25.2140 O   0  0  0  0  0  0  0  0  0  0  0  0
  -24.8460  -28.9500   23.3140 H   0  0  0  0  0  0  0  0  0  0  0  0
  -22.8800  -26.0460   22.5630 C   0  0  0  0  0  0  0  0  0  0  0  0
  -24.8010  -26.9640   24.0290 C   0  0  0  0  0  3  0  0  0  0  0  0
  -25.6950  -25.9110   23.3380 C   0  0  0  0  0  2  0  0  0  0  0  0
  -25.2830  -25.6230   21.8900 C   0  0  0  0  0  2  0  0  0  0  0  0
  -23.8380  -25.1200   21.8340 C   0  0  0  0  0  2  0  0  0  0  0  0
  -23.3350  -26.9220   23.5830 C   0  0  0  0  0  0  0  0  0  0  0  0
  -22.4090  -27.7880   24.2040 C   0  0  0  0  0  3  0  0  0  0  0  0
  -21.0530  -27.7860   23.8260 C   0  0  0  0  0  3  0  0  0  0  0  0
  -20.6060  -26.9040   22.8270 C   0  0  0  0  0  3  0  0  0  0  0  0
  -21.5160  -26.0350   22.2020 C   0  0  0  0  0  3  0  0  0  0  0  0
  -29.0630  -31.3440   27.2290 C   0  0  0  0  0  3  0  0  0  0  0  0
  -28.7720  -32.7280   27.6270 N   0  0  0  0  0  0  0  0  0  0  0  0
  -29.2660  -33.8130   27.0170 C   0  0  0  0  0  0  0  0  0  0  0  0
  -30.0830  -33.7490   26.0940 O   0  0  0  0  0  0  0  0  0  0  0  0
  -28.0690  -32.8560   28.3410 H   0  0  0  0  0  0  0  0  0  0  0  0
  -27.6680  -35.7030   26.5760 C   0  0  0  0  0  1  0  0  0  0  0  0
  -28.7760  -35.1880   27.5080 C   0  0  0  0  0  3  0  0  0  0  0  0
  -30.8670  -35.8610   28.6050 C   0  0  0  0  0  1  0  0  0  0  0  0
  -29.8550  -36.1960   27.6070 N   0  0  0  0  0  0  0  0  0  0  0  0
  -29.4720  -37.1100   27.8370 H   0  0  0  0  0  0  0  0  0  0  0  0
  -29.2820  -30.4330   28.4970 C   0  0  1  0  0  0  0  0  0  0  0  0
  -27.9870  -30.1560   29.2960 C   0  0  0  0  0  1  0  0  0  0  0  0
  -29.8880  -29.0700   28.0890 C   0  0  0  0  0  1  0  0  0  0  0  0
  -30.3010  -31.0990   29.4500 C   0  0  0  0  0  1  0  0  0  0  0  0
  -30.6430  -17.3120   25.1460 C   0  0  0  0  0  2  0  0  0  0  0  0
  -30.2210  -16.8050   23.7450 C   0  0  0  0  0  2  0  0  0  0  0  0
  -30.5600  -17.7660   22.5860 C   0  0  0  0  0  2  0  0  0  0  0  0
  -30.9340  -17.0850   21.2460 C   0  0  0  0  0  3  0  0  0  0  0  0
  -31.1020  -14.7420   20.4490 C   0  0  0  0  0  0  0  0  0  0  0  0
  -30.9700  -12.4500   19.5610 C   0  0  0  0  0  2  0  0  0  0  0  0
  -30.0010  -12.4000   18.3650 C   0  0  0  0  0  2  0  0  0  0  0  0
  -28.5550  -12.1750   18.8430 C   0  0  0  0  0  2  0  0  0  0  0  0
  -28.1490  -13.1460   19.9820 C   0  0  0  0  0  3  0  0  0  0  0  0
  -29.2240  -13.1840   21.0880 C   0  0  0  0  0  2  0  0  0  0  0  0
  -30.5150  -13.5190   20.4620 N   0  0  0  0  0  0  0  0  0  0  0  0
  -32.1330  -14.9910   19.8160 O   0  0  0  0  0  0  0  0  0  0  0  0
  -30.4750  -15.6950   21.1520 N   0  0  0  0  0  0  0  0  0  0  0  0
  -29.6150  -15.4410   21.6140 H   0  0  0  0  0  0  0  0  0  0  0  0
  -25.7980  -13.6640   20.8970 C   0  0  0  0  0  0  0  0  0  0  0  0
  -24.7620  -12.8480   21.2660 C   0  0  0  0  0  0  0  0  0  0  0  0
  -25.2280  -11.5110   21.0790 C   0  0  0  0  0  0  0  0  0  0  0  0
  -26.8300  -12.8190   20.5190 N   0  0  0  0  0  0  0  0  0  0  0  0
  -26.4940  -11.5140   20.6830 N   0  0  0  0  0  0  0  0  0  0  0  0
  -24.5280  -10.2260   21.2020 C   0  0  0  0  0  0  0  0  0  0  0  0
  -24.9960   -9.2080   22.0620 C   0  0  0  0  0  3  0  0  0  0  0  0
  -24.2940   -7.9890   22.1760 C   0  0  0  0  0  3  0  0  0  0  0  0
  -23.1110   -7.7790   21.4280 C   0  0  0  0  0  0  0  0  0  0  0  0
  -22.6630   -8.7860   20.5550 C   0  0  0  0  0  3  0  0  0  0  0  0
  -23.3650   -9.9970   20.4400 C   0  0  0  0  0  3  0  0  0  0  0  0
  -22.3790   -6.6170   21.4540 O   0  0  0  0  0  0  0  0  0  0  0  0
  -22.2040   -5.9020   22.6120 C   0  0  0  0  0  0  0  0  0  0  0  0
  -21.6390   -6.4830   23.7690 C   0  0  0  0  0  3  0  0  0  0  0  0
  -21.4140   -5.6960   24.9150 C   0  0  0  0  0  3  0  0  0  0  0  0
  -21.7450   -4.3270   24.9050 C   0  0  0  0  0  0  0  0  0  0  0  0
  -22.3030   -3.7460   23.7530 C   0  0  0  0  0  3  0  0  0  0  0  0
  -22.5300   -4.5310   22.6090 C   0  0  0  0  0  0  0  0  0  0  0  0
  -23.0490   -3.9610   21.4940 F   0  0  0  0  0  0  0  0  0  0  0  0
  -21.5210   -3.5660   26.0020 F   0  0  0  0  0  0  0  0  0  0  0  0
  -23.3830  -13.2790   21.6770 C   0  0  0  0  0  0  0  0  0  0  0  0
  -22.7440  -12.5260   22.5640 N   0  0  0  0  0  0  0  0  0  0  0  0
  -22.8840  -14.3180   21.2470 O   0  0  0  0  0  0  0  0  0  0  0  0
  -23.1610  -11.6830   22.9310 H   0  0  0  0  0  0  0  0  0  0  0  0
  -21.8230  -12.7940   22.8800 H   0  0  0  0  0  0  0  0  0  0  0  0
  -25.9470  -15.0450   20.8350 N   0  0  0  0  0  0  0  0  0  0  0  0
  -25.1950  -15.6880   21.0540 H   0  0  0  0  0  0  0  0  0  0  0  0
  -26.7810  -15.5090   20.4910 H   0  0  0  0  0  0  0  0  0  0  0  0
  -30.5690  -17.9190   19.9740 C   0  0  0  0  0  3  0  0  0  0  0  0
  -31.4890  -19.1240   19.7200 C   0  0  0  0  0  0  0  0  0  0  0  0
  -32.6810  -18.8910   19.1870 N   0  0  0  0  0  0  0  0  0  0  0  0
  -31.1260  -20.2670   20.0020 O   0  0  0  0  0  0  0  0  0  0  0  0
  -32.9600  -17.9460   18.9570 H   0  0  0  0  0  0  0  0  0  0  0  0
  -33.3190  -19.6520   19.0060 H   0  0  0  0  0  0  0  0  0  0  0  0
  -28.1230  -17.6960   19.5350 C   0  0  0  0  0  0  0  0  0  0  0  0
  -29.1820  -18.3700   19.9860 N   0  0  0  0  0  0  0  0  0  0  0  0
  -28.1980  -16.5400   19.1170 O   0  0  0  0  0  0  0  0  0  0  0  0
  -29.0610  -19.3300   20.2770 H   0  0  0  0  0  0  0  0  0  0  0  0
  -25.7360  -17.9890   19.1740 C   0  0  0  0  0  2  0  0  0  0  0  0
  -26.9150  -18.4950   19.5790 C   0  0  0  0  0  3  0  0  0  0  0  0
  2  1  1  0
  2  4  1  0
  3  2  1  0
  5  2  1  0
  6  5  1  0
  7  6  1  0
  7  9  1  0
  8  6  2  0
 10  7  1  0
 11 12  1  0
 11 10  1  0
 13 12  1  0
 13 14  1  0
 15 17  1  0
 15 14  1  0
 16 27  2  0
 17 22  1  0
 18 28  1  0
 18 26  1  0
 19 25  1  0
 19 21  1  0
 20 26  1  0
 21 20  1  0
 22 21  2  0
 23 24  1  0
 23 17  2  0
 24 19  2  0
 25 18  1  0
 26 16  1  0
 28 30  2  0
 29 28  1  0
 31 29  1  0
 32 37  1  0
 33 29  1  0
 34 33  1  0
 35 34  1  0
 36 35  1  0
 36 32  1  0
 37 33  1  0
 37 38  2  0
 39 38  1  0
 40 39  2  0
 41 32  2  0
 41 40  1  0
 42 16  1  0
 42 43  1  0
 42 52  1  0
 43 46  1  0
 44 48  1  0
 44 43  1  0
 45 44  2  0
 48 47  1  0
 48 50  1  0
 50 51  1  0
 50 49  1  0
 52 53  1  1
 52 55  1  0
 54 52  1  0
 56  1  1  0
 57 56  1  0
 58 57  1  0
 59 58  1  0
 60 66  1  0
 60 68  1  0
 61 66  1  0
 62 63  1  0
 62 61  1  0
 64 63  1  0
 64 73  1  0
 64 65  1  0
 66 65  1  0
 67 60  2  0
 68 59  1  0
 68 69  1  0
 70 71  2  0
 71 90  1  0
 72 75  1  0
 72 71  1  0
 73 74  1  0
 73 70  1  0
 74 72  2  0
 75 76  1  0
 76 77  2  0
 78 81  1  0
 78 77  1  0
 79 78  2  0
 80 79  1  0
 80 75  2  0
 81 82  1  0
 82 83  1  0
 83 84  2  0
 85 84  1  0
 85 89  1  0
 86 85  2  0
 87 82  2  0
 87 86  1  0
 88 87  1  0
 90 91  1  0
 91 94  1  0
 91 93  1  0
 92 90  2  0
 95 70  1  0
 95 96  1  0
 97 95  1  0
 98 99  1  0
 98105  1  0
 98 59  1  0
 99101  2  0
100 99  1  0
102100  1  0
103100  1  0
104109  1  0
104105  1  0
105107  1  0
106104  2  0
108109  2  0
M  ISO  4  14 101  15 101  60 100  68 100
M  END
>  <TORSDO>  (18) 
F 32

>  <SCORE>  (18) 
3.335

>  <name>  (18) 
17

>  <ligand_id>  (18) 
17

>  <original_smiles>  (18) 
[H]C([H])=C([H])C(=O)N([H])C([H])(C(=O)N([H])[H])C([H])(N([H])C(=O)N1C([H])([H])C([H])([H])C([H])([H])C([H])(n2nc(-c3c([H])c([H])c(Oc4c([H])c([H])c(F)c([H])c4F)c([H])c3[H])c(C(=O)N([H])[H])c2N([H])[H])C1([H])[H])C([H])([H])C([H])([H])C([H])([H])C([H])([H])[N+]([H])([H])C([H])([H])C(=O)N([H])C([H])([H])C([H])([H])OC([H])([H])C([H])([H])Oc1c([H])c([H])c2c(c1[H])C([H])([H])N(C(=O)C([H])(N([H])C(=O)C([H])(N([H])C([H])([H])[H])C([H])([H])[H])C(C([H])([H])[H])(C([H])([H])[H])C([H])([H])[H])C([H])(C(=O)N([H])C1([H])c3c([H])c([H])c([H])c([H])c3C([H])([H])C([H])([H])C1([H])[H])C2([H])[H]

>  <smiles>  (18) 
[H]C([H])=C([H])C(=O)N([H])C([H])(C(=O)N([H])[H])C([H])(N([H])C(=O)N1C([H])([H])C([H])([H])C([H])([H])C([H])(n2nc(-c3c([H])c([H])c(Oc4c([H])c([H])c(F)c([H])c4F)c([H])c3[H])c(C(=O)N([H])[H])c2N([H])[H])C1([H])[H])C([H])([H])C([H])([H])C([H])([H])C([H])([H])[N+]([H])([H])C([H])([H])C(=O)N([H])C([H])([H])C([H])([H])OC([H])([H])C([H])([H])Oc1c([H])c([H])c2c(c1[H])C([H])([H])N(C(=O)C([H])(N([H])C(=O)C([H])(N([H])C([H])([H])[H])C([H])([H])[H])C(C([H])([H])[H])(C([H])([H])[H])C([H])([H])[H])C([H])(C(=O)N([H])C1([H])c3c([H])c([H])c([H])c([H])c3C([H])([H])C([H])([H])C1([H])[H])C2([H])[H]

$$$$
18:0:0
     RDKit          3D

 97104  0  0  1  0  0  0  0  0999 V2000
  -29.3840  -20.8830   19.7100 C   0  0  0  0  0  0  0  0  0  0  0  0
  -29.4660  -22.2230   19.7060 N   0  0  0  0  0  0  0  0  0  0  0  0
  -28.3280  -20.2950   19.4530 O   0  0  0  0  0  0  0  0  0  0  0  0
  -30.3620  -22.6410   19.9130 H   0  0  0  0  0  0  0  0  0  0  0  0
  -28.3440  -23.1440   19.4630 C   0  0  0  0  0  2  0  0  0  0  0  0
  -28.8300  -24.5900   19.2530 C   0  0  0  0  0  0  0  0  0  0  0  0
  -29.5100  -24.8840   18.2630 O   0  0  0  0  0  0  0  0  0  0  0  0
  -28.4900  -25.6450   20.3200 C   0  0  0  0  0  2  0  0  0  0  0  0
  -28.5740  -26.9920   19.8020 O   0  0  0  0  0  0  0  0  0  0  0  0
  -24.5870  -31.7920   23.2350 C   0  0  0  0  0  0  0  0  0  0  0  0
  -27.3880  -27.6900   19.8450 C   0  0  0  0  0  0  0  0  0  0  0  0
  -23.4170  -30.3970   21.5610 C   0  0  0  0  0  3  0  0  0  0  0  0
  -24.9120  -29.0440   20.0060 C   0  0  0  0  0  0  0  0  0  0  0  0
  -25.9030  -30.9420   21.2930 C   0  0  0  0  0  2  0  0  0  0  0  0
  -26.0580  -29.6130   20.5790 C   0  0  0  0  0  0  0  0  0  0  0  0
  -27.3040  -28.9470   20.4890 C   0  0  0  0  0  3  0  0  0  0  0  0
  -26.2270  -27.1520   19.2460 C   0  0  0  0  0  3  0  0  0  0  0  0
  -24.9920  -27.8150   19.3340 C   0  0  0  0  0  3  0  0  0  0  0  0
  -23.6180  -29.8120   20.1400 C   0  0  0  0  0  2  0  0  0  0  0  0
  -24.6550  -31.0560   22.0900 N   0  0  0  0  0  0  0  0  0  0  0  0
  -23.5110  -31.9630   23.8230 O   0  0  0  0  0  0  0  0  0  0  0  0
  -22.8740  -29.2810   22.4830 C   0  0  0  0  0  0  0  0  0  0  0  0
  -21.5990  -28.9090   22.2850 N   0  0  0  0  0  0  0  0  0  0  0  0
  -23.5960  -28.7610   23.3380 O   0  0  0  0  0  0  0  0  0  0  0  0
  -21.0720  -29.3910   21.5710 H   0  0  0  0  0  0  0  0  0  0  0  0
  -18.4650  -27.1250   22.4870 C   0  0  0  0  0  0  0  0  0  0  0  0
  -20.8860  -27.8580   23.0110 C   0  0  0  0  0  3  0  0  0  0  0  0
  -21.3080  -26.4550   22.5170 C   0  0  0  0  0  2  0  0  0  0  0  0
  -20.4010  -25.9070   21.4110 C   0  0  0  0  0  2  0  0  0  0  0  0
  -18.9540  -25.8130   21.9000 C   0  0  0  0  0  2  0  0  0  0  0  0
  -19.3720  -28.0930   22.9940 C   0  0  0  0  0  0  0  0  0  0  0  0
  -18.8640  -29.3110   23.4970 C   0  0  0  0  0  3  0  0  0  0  0  0
  -17.4800  -29.5670   23.5020 C   0  0  0  0  0  3  0  0  0  0  0  0
  -16.5860  -28.5990   23.0150 C   0  0  0  0  0  3  0  0  0  0  0  0
  -17.0770  -27.3810   22.5120 C   0  0  0  0  0  3  0  0  0  0  0  0
  -25.8480  -32.4800   23.8420 C   0  0  0  0  0  3  0  0  0  0  0  0
  -26.4200  -31.7230   25.1040 C   0  0  1  0  0  0  0  0  0  0  0  0
  -25.3510  -31.4060   26.1760 C   0  0  0  0  0  1  0  0  0  0  0  0
  -27.0810  -30.3890   24.6860 C   0  0  0  0  0  1  0  0  0  0  0  0
  -27.5260  -32.5770   25.7700 C   0  0  0  0  0  1  0  0  0  0  0  0
  -25.4780  -33.8600   24.1830 N   0  0  0  0  0  0  0  0  0  0  0  0
  -25.7790  -34.9330   23.4410 C   0  0  0  0  0  0  0  0  0  0  0  0
  -26.4660  -34.8700   22.4190 O   0  0  0  0  0  0  0  0  0  0  0  0
  -24.8680  -33.9810   24.9790 H   0  0  0  0  0  0  0  0  0  0  0  0
  -23.9870  -36.6590   23.0750 C   0  0  0  0  0  1  0  0  0  0  0  0
  -25.2270  -36.2940   23.9060 C   0  0  0  0  0  3  0  0  0  0  0  0
  -27.3100  -37.2490   24.7880 C   0  0  0  0  0  1  0  0  0  0  0  0
  -26.2190  -37.3880   23.8280 N   0  0  0  0  0  0  0  0  0  0  0  0
  -25.7740  -38.2900   23.9830 H   0  0  0  0  0  0  0  0  0  0  0  0
  -30.6570  -20.0770   20.0870 C   0  0  0  0  0  3  0  0  0  0  0  0
  -30.9230  -17.5600   19.8740 C   0  0  0  0  0  0  0  0  0  0  0  0
  -30.3510  -18.6680   20.3610 N   0  0  0  0  0  0  0  0  0  0  0  0
  -31.7470  -17.5650   18.9580 O   0  0  0  0  0  0  0  0  0  0  0  0
  -29.6780  -18.5320   21.0990 H   0  0  0  0  0  0  0  0  0  0  0  0
  -30.1660  -16.6600   22.0540 C   0  0  0  0  0  1  0  0  0  0  0  0
  -30.5510  -16.2530   20.6070 C   0  0  0  0  0  3  0  0  0  0  0  0
  -31.9780  -14.3750   19.7760 C   0  0  0  0  0  0  0  0  0  0  0  0
  -31.5260  -12.0690   18.9860 C   0  0  0  0  0  2  0  0  0  0  0  0
  -30.5220  -12.0530   17.8170 C   0  0  0  0  0  2  0  0  0  0  0  0
  -29.0710  -12.0480   18.3300 C   0  0  0  0  0  2  0  0  0  0  0  0
  -28.8230  -13.1290   19.4100 C   0  0  0  0  0  3  0  0  0  0  0  0
  -29.9250  -13.0640   20.4890 C   0  0  0  0  0  2  0  0  0  0  0  0
  -31.2330  -13.2350   19.8390 N   0  0  0  0  0  0  0  0  0  0  0  0
  -32.9860  -14.4660   19.0690 O   0  0  0  0  0  0  0  0  0  0  0  0
  -31.7070  -15.3480   20.6640 N   0  0  0  0  0  0  0  0  0  0  0  0
  -32.5350  -15.9120   20.8070 H   0  0  0  0  0  0  0  0  0  0  0  0
  -26.6070  -14.0180   20.3780 C   0  0  0  0  0  0  0  0  0  0  0  0
  -25.4760  -13.3740   20.8070 C   0  0  0  0  0  0  0  0  0  0  0  0
  -25.7340  -11.9790   20.6540 C   0  0  0  0  0  0  0  0  0  0  0  0
  -27.4900  -13.0150   19.9990 N   0  0  0  0  0  0  0  0  0  0  0  0
  -26.9720  -11.7830   20.2190 N   0  0  0  0  0  0  0  0  0  0  0  0
  -24.8560  -10.8180   20.8380 C   0  0  0  0  0  0  0  0  0  0  0  0
  -25.1630   -9.7960   21.7630 C   0  0  0  0  0  3  0  0  0  0  0  0
  -24.2950   -8.6970   21.9330 C   0  0  0  0  0  3  0  0  0  0  0  0
  -23.0990   -8.6160   21.1810 C   0  0  0  0  0  0  0  0  0  0  0  0
  -22.8090   -9.6240   20.2420 C   0  0  0  0  0  3  0  0  0  0  0  0
  -23.6780  -10.7130   20.0700 C   0  0  0  0  0  3  0  0  0  0  0  0
  -22.2070   -7.5750   21.2640 O   0  0  0  0  0  0  0  0  0  0  0  0
  -21.9690   -6.9230   22.4470 C   0  0  0  0  0  0  0  0  0  0  0  0
  -21.5010   -7.6040   23.5930 C   0  0  0  0  0  3  0  0  0  0  0  0
  -21.1990   -6.8820   24.7650 C   0  0  0  0  0  3  0  0  0  0  0  0
  -21.3580   -5.4840   24.7940 C   0  0  0  0  0  0  0  0  0  0  0  0
  -21.8190   -4.8060   23.6530 C   0  0  0  0  0  3  0  0  0  0  0  0
  -22.1210   -5.5220   22.4830 C   0  0  0  0  0  0  0  0  0  0  0  0
  -22.5440   -4.8600   21.3800 F   0  0  0  0  0  0  0  0  0  0  0  0
  -21.0620   -4.7910   25.9200 F   0  0  0  0  0  0  0  0  0  0  0  0
  -24.1900  -14.0190   21.2390 C   0  0  0  0  0  0  0  0  0  0  0  0
  -23.4700  -13.3910   22.1600 N   0  0  0  0  0  0  0  0  0  0  0  0
  -23.8410  -15.1100   20.7940 O   0  0  0  0  0  0  0  0  0  0  0  0
  -23.7660  -12.5060   22.5450 H   0  0  0  0  0  0  0  0  0  0  0  0
  -22.6100  -13.8030   22.4890 H   0  0  0  0  0  0  0  0  0  0  0  0
  -26.9460  -15.3630   20.2620 N   0  0  0  0  0  0  0  0  0  0  0  0
  -26.2760  -16.0980   20.4620 H   0  0  0  0  0  0  0  0  0  0  0  0
  -27.7790  -15.7020   19.8050 H   0  0  0  0  0  0  0  0  0  0  0  0
  -30.5360  -20.2410   22.6900 C   0  0  0  0  0  1  0  0  0  0  0  0
  -32.7720  -20.3030   21.5400 C   0  0  0  0  0  1  0  0  0  0  0  0
  -31.2790  -20.6580   21.3980 C   0  0  0  0  0  3  0  0  0  0  0  0
  2  1  1  0
  2  4  1  0
  3  1  2  0
  5  2  1  0
  6  5  1  0
  6  8  1  0
  7  6  2  0
  9 11  1  0
  9  8  1  0
 10 21  2  0
 11 16  1  0
 12 20  1  0
 12 22  1  0
 13 19  1  0
 13 15  1  0
 14 20  1  0
 15 14  1  0
 16 15  2  0
 17 18  1  0
 17 11  2  0
 18 13  2  0
 19 12  1  0
 20 10  1  0
 22 24  2  0
 23 22  1  0
 25 23  1  0
 26 35  2  0
 26 31  1  0
 27 23  1  0
 28 27  1  0
 29 30  1  0
 29 28  1  0
 30 26  1  0
 31 27  1  0
 31 32  2  0
 32 33  1  0
 34 33  2  0
 35 34  1  0
 36 10  1  0
 36 41  1  0
 36 37  1  0
 37 40  1  1
 37 38  1  0
 39 37  1  0
 41 44  1  0
 42 46  1  0
 42 41  1  0
 43 42  2  0
 46 45  1  0
 48 46  1  0
 48 49  1  0
 48 47  1  0
 50  1  1  0
 50 52  1  0
 50 97  1  0
 51 52  1  0
 51 56  1  0
 52 54  1  0
 53 51  2  0
 56 65  1  0
 56 55  1  0
 57 63  1  0
 57 65  1  0
 58 63  1  0
 59 60  1  0
 59 58  1  0
 61 60  1  0
 61 70  1  0
 61 62  1  0
 63 62  1  0
 64 57  2  0
 65 66  1  0
 67 68  2  0
 68 87  1  0
 69 68  1  0
 69 72  1  0
 70 71  1  0
 70 67  1  0
 71 69  2  0
 72 73  1  0
 73 74  2  0
 75 78  1  0
 75 74  1  0
 76 75  2  0
 77 76  1  0
 77 72  2  0
 78 79  1  0
 79 84  2  0
 79 80  1  0
 80 81  2  0
 81 82  1  0
 82 86  1  0
 83 82  2  0
 84 83  1  0
 85 84  1  0
 87 88  1  0
 88 91  1  0
 88 90  1  0
 89 87  2  0
 92 67  1  0
 92 93  1  0
 94 92  1  0
 97 96  1  0
 97 95  1  0
M  ISO  4   8 101   9 101  57 100  65 100
M  END
>  <TORSDO>  (19) 
F 23

>  <SCORE>  (19) 
-11.274

>  <name>  (19) 
18

>  <ligand_id>  (19) 
18

>  <original_smiles>  (19) 
[H]c1c([H])c([H])c2c(c1[H])C([H])([H])C([H])([H])C([H])([H])C2([H])N([H])C(=O)C1([H])N(C(=O)C([H])(N([H])C(=O)C([H])(N([H])C([H])([H])[H])C([H])([H])[H])C(C([H])([H])[H])(C([H])([H])[H])C([H])([H])[H])C([H])([H])c2c([H])c(OC([H])([H])C(=O)C([H])([H])N([H])C(=O)C([H])(N([H])C(=O)C([H])(N([H])C(=O)N3C([H])([H])C([H])([H])C([H])([H])C([H])(n4nc(-c5c([H])c([H])c(Oc6c([H])c([H])c(F)c([H])c6F)c([H])c5[H])c(C(=O)N([H])[H])c4N([H])[H])C3([H])[H])C([H])([H])[H])C([H])(C([H])([H])[H])C([H])([H])[H])c([H])c([H])c2C1([H])[H]

>  <smiles>  (19) 
[H]c1c([H])c([H])c2c(c1[H])C([H])([H])C([H])([H])C([H])([H])C2([H])N([H])C(=O)C1([H])N(C(=O)C([H])(N([H])C(=O)C([H])(N([H])C([H])([H])[H])C([H])([H])[H])C(C([H])([H])[H])(C([H])([H])[H])C([H])([H])[H])C([H])([H])c2c([H])c(OC([H])([H])C(=O)C([H])([H])N([H])C(=O)C([H])(N([H])C(=O)C([H])(N([H])C(=O)N3C([H])([H])C([H])([H])C([H])([H])C([H])(n4nc(-c5c([H])c([H])c(Oc6c([H])c([H])c(F)c([H])c6F)c([H])c5[H])c(C(=O)N([H])[H])c4N([H])[H])C3([H])[H])C([H])([H])[H])C([H])(C([H])([H])[H])C([H])([H])[H])c([H])c([H])c2C1([H])[H]

$$$$
19:0:0
     RDKit          3D

 92 99  0  0  1  0  0  0  0  0999 V2000
  -29.0940  -18.5920   20.2070 C   0  0  0  0  0  0  0  0  0  0  0  0
  -29.3350  -19.9520   20.2280 N   0  0  0  0  0  0  0  0  0  0  0  0
  -27.9490  -18.1640   20.0560 O   0  0  0  0  0  0  0  0  0  0  0  0
  -30.3060  -20.1920   20.3810 H   0  0  0  0  0  0  0  0  0  0  0  0
  -28.4170  -21.1430   19.9800 C   0  0  0  0  0  2  0  0  0  0  0  0
  -28.4400  -22.6130   20.6650 C   0  0  0  0  0  2  0  0  0  0  0  0
  -28.1770  -23.9560   19.8210 C   0  0  0  0  0  3  0  0  0  0  0  0
  -27.9370  -25.3080   20.6520 C   0  0  0  0  0  3  0  0  0  0  0  0
  -28.0690  -26.6570   20.0430 O   0  0  0  0  0  0  0  0  0  0  0  0
  -24.5950  -32.0540   23.3930 C   0  0  0  0  0  0  0  0  0  0  0  0
  -26.9740  -27.5270   20.1170 C   0  0  0  0  0  0  0  0  0  0  0  0
  -23.2920  -30.7230   21.7710 C   0  0  0  0  0  3  0  0  0  0  0  0
  -24.6470  -29.1770   20.2490 C   0  0  0  0  0  0  0  0  0  0  0  0
  -25.8270  -30.9980   21.4850 C   0  0  0  0  0  2  0  0  0  0  0  0
  -25.8510  -29.6350   20.8000 C   0  0  0  0  0  0  0  0  0  0  0  0
  -27.0220  -28.8230   20.7170 C   0  0  0  0  0  3  0  0  0  0  0  0
  -25.7500  -27.1150   19.5540 C   0  0  0  0  0  3  0  0  0  0  0  0
  -24.5970  -27.9240   19.6170 C   0  0  0  0  0  3  0  0  0  0  0  0
  -23.4320  -30.0750   20.3680 C   0  0  0  0  0  2  0  0  0  0  0  0
  -24.5930  -31.2740   22.2720 N   0  0  0  0  0  0  0  0  0  0  0  0
  -23.5410  -32.3380   23.9820 O   0  0  0  0  0  0  0  0  0  0  0  0
  -22.6510  -29.6950   22.7340 C   0  0  0  0  0  0  0  0  0  0  0  0
  -21.3290  -29.4920   22.6080 N   0  0  0  0  0  0  0  0  0  0  0  0
  -23.3420  -29.0840   23.5530 O   0  0  0  0  0  0  0  0  0  0  0  0
  -20.8270  -30.0410   21.9240 H   0  0  0  0  0  0  0  0  0  0  0  0
  -17.9910  -28.1670   23.0450 C   0  0  0  0  0  0  0  0  0  0  0  0
  -20.5270  -28.5410   23.3810 C   0  0  0  0  0  3  0  0  0  0  0  0
  -20.7070  -27.1000   22.8490 C   0  0  0  0  0  2  0  0  0  0  0  0
  -19.6510  -26.7040   21.8130 C   0  0  0  0  0  2  0  0  0  0  0  0
  -18.2450  -26.8070   22.4130 C   0  0  0  0  0  2  0  0  0  0  0  0
  -19.0650  -28.9850   23.4850 C   0  0  0  0  0  0  0  0  0  0  0  0
  -18.7760  -30.2540   24.0370 C   0  0  0  0  0  3  0  0  0  0  0  0
  -17.4470  -30.7020   24.1530 C   0  0  0  0  0  3  0  0  0  0  0  0
  -16.3880  -29.8810   23.7300 C   0  0  0  0  0  3  0  0  0  0  0  0
  -16.6610  -28.6150   23.1810 C   0  0  0  0  0  3  0  0  0  0  0  0
  -25.9160  -32.6460   23.9740 C   0  0  0  0  0  3  0  0  0  0  0  0
  -25.6580  -34.0500   24.3220 N   0  0  0  0  0  0  0  0  0  0  0  0
  -26.0050  -35.1000   23.5660 C   0  0  0  0  0  0  0  0  0  0  0  0
  -26.6450  -34.9850   22.5170 O   0  0  0  0  0  0  0  0  0  0  0  0
  -25.0850  -34.2140   25.1370 H   0  0  0  0  0  0  0  0  0  0  0  0
  -24.3280  -36.9530   23.2740 C   0  0  0  0  0  1  0  0  0  0  0  0
  -25.5750  -36.4980   24.0500 C   0  0  0  0  0  3  0  0  0  0  0  0
  -27.7530  -37.3090   24.8420 C   0  0  0  0  0  1  0  0  0  0  0  0
  -26.6380  -37.5190   23.9230 N   0  0  0  0  0  0  0  0  0  0  0  0
  -26.2650  -38.4500   24.0870 H   0  0  0  0  0  0  0  0  0  0  0  0
  -26.4530  -31.8530   25.2290 C   0  0  1  0  0  0  0  0  0  0  0  0
  -25.3880  -31.6380   26.3300 C   0  0  0  0  0  1  0  0  0  0  0  0
  -26.9870  -30.4630   24.8120 C   0  0  0  0  0  1  0  0  0  0  0  0
  -27.6420  -32.6120   25.8610 C   0  0  0  0  0  1  0  0  0  0  0  0
  -30.2690  -17.5250   20.3530 C   0  0  0  0  0  3  0  0  0  0  0  0
  -30.6520  -14.9510   20.3710 C   0  0  0  0  0  0  0  0  0  0  0  0
  -30.5340  -12.6000   19.5630 C   0  0  0  0  0  2  0  0  0  0  0  0
  -29.6220  -12.5390   18.3200 C   0  0  0  0  0  2  0  0  0  0  0  0
  -28.1520  -12.3480   18.7410 C   0  0  0  0  0  2  0  0  0  0  0  0
  -27.7190  -13.3280   19.8660 C   0  0  0  0  0  3  0  0  0  0  0  0
  -28.7580  -13.3810   21.0080 C   0  0  0  0  0  2  0  0  0  0  0  0
  -30.0550  -13.7150   20.4080 N   0  0  0  0  0  0  0  0  0  0  0  0
  -31.8260  -15.0640   20.0140 O   0  0  0  0  0  0  0  0  0  0  0  0
  -29.8720  -16.0700   20.5560 N   0  0  0  0  0  0  0  0  0  0  0  0
  -28.8980  -15.9160   20.7680 H   0  0  0  0  0  0  0  0  0  0  0  0
  -25.3360  -13.8960   20.6280 C   0  0  0  0  0  0  0  0  0  0  0  0
  -24.2740  -13.1110   20.9870 C   0  0  0  0  0  0  0  0  0  0  0  0
  -24.7400  -11.7620   20.9200 C   0  0  0  0  0  0  0  0  0  0  0  0
  -26.3800  -13.0260   20.3600 N   0  0  0  0  0  0  0  0  0  0  0  0
  -26.0280  -11.7360   20.6010 N   0  0  0  0  0  0  0  0  0  0  0  0
  -24.0200  -10.4930   21.0860 C   0  0  0  0  0  0  0  0  0  0  0  0
  -24.4440   -9.5180   22.0160 C   0  0  0  0  0  3  0  0  0  0  0  0
  -23.7210   -8.3150   22.1700 C   0  0  0  0  0  3  0  0  0  0  0  0
  -22.5620   -8.0780   21.3930 C   0  0  0  0  0  0  0  0  0  0  0  0
  -22.1590   -9.0410   20.4510 C   0  0  0  0  0  3  0  0  0  0  0  0
  -22.8820  -10.2360   20.2960 C   0  0  0  0  0  3  0  0  0  0  0  0
  -21.8130   -6.9270   21.4560 O   0  0  0  0  0  0  0  0  0  0  0  0
  -21.7150   -6.1950   22.6120 C   0  0  0  0  0  0  0  0  0  0  0  0
  -21.1890   -6.7470   23.8010 C   0  0  0  0  0  3  0  0  0  0  0  0
  -21.0410   -5.9380   24.9460 C   0  0  0  0  0  3  0  0  0  0  0  0
  -21.4090   -4.5800   24.9010 C   0  0  0  0  0  0  0  0  0  0  0  0
  -21.9260   -4.0290   23.7170 C   0  0  0  0  0  3  0  0  0  0  0  0
  -22.0760   -4.8340   22.5740 C   0  0  0  0  0  0  0  0  0  0  0  0
  -22.5560   -4.2920   21.4290 F   0  0  0  0  0  0  0  0  0  0  0  0
  -21.2590   -3.8020   26.0000 F   0  0  0  0  0  0  0  0  0  0  0  0
  -22.8770  -13.5780   21.2770 C   0  0  0  0  0  0  0  0  0  0  0  0
  -22.1590  -12.8670   22.1390 N   0  0  0  0  0  0  0  0  0  0  0  0
  -22.4300  -14.6090   20.7750 O   0  0  0  0  0  0  0  0  0  0  0  0
  -22.5350  -12.0350   22.5710 H   0  0  0  0  0  0  0  0  0  0  0  0
  -21.2220  -13.1610   22.3720 H   0  0  0  0  0  0  0  0  0  0  0  0
  -25.4930  -15.2720   20.4840 N   0  0  0  0  0  0  0  0  0  0  0  0
  -24.7220  -15.9150   20.6270 H   0  0  0  0  0  0  0  0  0  0  0  0
  -26.3380  -15.7380   20.1750 H   0  0  0  0  0  0  0  0  0  0  0  0
  -31.3760  -17.9070   21.3810 C   0  0  0  0  0  2  0  0  0  0  0  0
  -32.8920  -19.2720   19.7930 C   0  0  0  0  0  1  0  0  0  0  0  0
  -33.1730  -19.4400   22.2930 C   0  0  0  0  0  1  0  0  0  0  0  0
  -32.1670  -19.2230   21.1530 C   0  0  0  0  0  3  0  0  0  0  0  0
  1  2  1  0
  1 50  1  0
  2  4  1  0
  3  1  2  0
  5  2  1  0
  5  6  1  0
  7  8  2  0
  7  6  1  0
  9 11  1  0
  9  8  1  0
 10 21  2  0
 11 16  1  0
 12 20  1  0
 12 22  1  0
 13 19  1  0
 13 15  1  0
 14 20  1  0
 15 14  1  0
 16 15  2  0
 17 18  1  0
 17 11  2  0
 18 13  2  0
 19 12  1  0
 20 10  1  0
 22 24  2  0
 23 22  1  0
 25 23  1  0
 26 35  2  0
 26 31  1  0
 27 23  1  0
 27 31  1  0
 28 27  1  0
 29 30  1  0
 29 28  1  0
 30 26  1  0
 31 32  2  0
 32 33  1  0
 34 33  2  0
 35 34  1  0
 36 10  1  0
 36 37  1  0
 36 46  1  0
 37 40  1  0
 38 42  1  0
 38 37  1  0
 39 38  2  0
 42 41  1  0
 44 42  1  0
 44 45  1  0
 44 43  1  0
 46 49  1  1
 46 47  1  0
 48 46  1  0
 50 59  1  0
 50 89  1  0
 51 57  1  0
 51 59  1  0
 52 57  1  0
 53 54  1  0
 53 52  1  0
 55 54  1  0
 55 64  1  0
 55 56  1  0
 57 56  1  0
 58 51  2  0
 59 60  1  0
 61 62  2  0
 62 81  1  0
 63 62  1  0
 63 66  1  0
 64 65  1  0
 64 61  1  0
 65 63  2  0
 66 67  1  0
 67 68  2  0
 69 72  1  0
 69 68  1  0
 70 69  2  0
 71 70  1  0
 71 66  2  0
 72 73  1  0
 73 74  1  0
 74 75  2  0
 76 75  1  0
 76 80  1  0
 77 76  2  0
 78 73  2  0
 78 77  1  0
 79 78  1  0
 81 82  1  0
 82 85  1  0
 82 84  1  0
 83 81  2  0
 86 87  1  0
 86 61  1  0
 88 86  1  0
 90 92  1  0
 92 89  1  0
 92 91  1  0
M  ISO  4   8 101   9 101  51 100  59 100
M  END
>  <TORSDO>  (20) 
F 23

>  <SCORE>  (20) 
-12.562

>  <name>  (20) 
19

>  <ligand_id>  (20) 
19

>  <original_smiles>  (20) 
[H]c1c([H])c([H])c2c(c1[H])C([H])([H])C([H])([H])C([H])([H])C2([H])N([H])C(=O)C1([H])N(C(=O)C([H])(N([H])C(=O)C([H])(N([H])C([H])([H])[H])C([H])([H])[H])C(C([H])([H])[H])(C([H])([H])[H])C([H])([H])[H])C([H])([H])c2c([H])c(OC([H])([H])C([H])([H])C([H])([H])C([H])([H])N([H])C(=O)C([H])(N([H])C(=O)N3C([H])([H])C([H])([H])C([H])([H])C([H])(n4nc(-c5c([H])c([H])c(Oc6c([H])c([H])c(F)c([H])c6F)c([H])c5[H])c(C(=O)N([H])[H])c4N([H])[H])C3([H])[H])C([H])([H])C([H])(C([H])([H])[H])C([H])([H])[H])c([H])c([H])c2C1([H])[H]

>  <smiles>  (20) 
[H]c1c([H])c([H])c2c(c1[H])C([H])([H])C([H])([H])C([H])([H])C2([H])N([H])C(=O)C1([H])N(C(=O)C([H])(N([H])C(=O)C([H])(N([H])C([H])([H])[H])C([H])([H])[H])C(C([H])([H])[H])(C([H])([H])[H])C([H])([H])[H])C([H])([H])c2c([H])c(OC([H])([H])C([H])([H])C([H])([H])C([H])([H])N([H])C(=O)C([H])(N([H])C(=O)N3C([H])([H])C([H])([H])C([H])([H])C([H])(n4nc(-c5c([H])c([H])c(Oc6c([H])c([H])c(F)c([H])c6F)c([H])c5[H])c(C(=O)N([H])[H])c4N([H])[H])C3([H])[H])C([H])([H])C([H])(C([H])([H])[H])C([H])([H])[H])c([H])c([H])c2C1([H])[H]

$$$$
20:0:0
     RDKit          3D

 91100  0  0  1  0  0  0  0  0999 V2000
  -29.9190  -22.3790   20.0160 C   0  0  0  0  0  3  0  0  0  0  0  0
  -28.5840  -22.8460   20.0540 C   0  0  0  0  0  0  0  0  0  0  0  0
  -28.7590  -20.4050   20.1780 C   0  0  0  0  0  3  0  0  0  0  0  0
  -30.8900  -18.7660   20.1080 C   0  0  0  0  0  3  0  0  0  0  0  0
  -28.5700  -18.9480   20.2440 C   0  0  0  0  0  0  0  0  0  0  0  0
  -29.6690  -17.9960   20.2060 C   0  0  0  0  0  0  0  0  0  0  0  0
  -27.1510  -18.4230   20.3400 C   0  0  0  0  0  1  0  0  0  0  0  0
  -31.1130  -20.1260   20.0490 N   0  0  0  0  0  0  0  0  0  0  0  0
  -29.9580  -20.9350   20.0910 N   0  0  0  0  0  0  0  0  0  0  0  0
  -27.9240  -21.5280   20.1660 N   0  0  0  0  0  0  0  0  0  0  0  0
  -26.9140  -21.4450   20.1890 H   0  0  0  0  0  0  0  0  0  0  0  0
  -30.3900  -15.2050   20.0580 C   0  0  0  0  0  0  0  0  0  0  0  0
  -30.3150  -12.8060   19.1110 C   0  0  0  0  0  2  0  0  0  0  0  0
  -29.3280  -12.6840   17.9230 C   0  0  0  0  0  2  0  0  0  0  0  0
  -27.8950  -12.4210   18.4220 C   0  0  0  0  0  2  0  0  0  0  0  0
  -27.5150  -13.3420   19.6100 C   0  0  0  0  0  3  0  0  0  0  0  0
  -28.6210  -13.4100   20.6860 C   0  0  0  0  0  2  0  0  0  0  0  0
  -29.8360  -13.9030   20.0180 N   0  0  0  0  0  0  0  0  0  0  0  0
  -31.5860  -15.2650   19.7430 O   0  0  0  0  0  0  0  0  0  0  0  0
  -29.5720  -16.3990   20.2600 N   0  0  0  0  0  0  0  0  0  0  0  0
  -28.6350  -16.1020   20.4760 H   0  0  0  0  0  0  0  0  0  0  0  0
  -25.1810  -13.8900   20.4910 C   0  0  0  0  0  0  0  0  0  0  0  0
  -24.1370  -13.1070   20.8950 C   0  0  0  0  0  0  0  0  0  0  0  0
  -24.5950  -11.7570   20.7990 C   0  0  0  0  0  0  0  0  0  0  0  0
  -26.2090  -13.0200   20.1710 N   0  0  0  0  0  0  0  0  0  0  0  0
  -25.8690  -11.7280   20.4210 N   0  0  0  0  0  0  0  0  0  0  0  0
  -23.8720  -10.4920   20.9840 C   0  0  0  0  0  0  0  0  0  0  0  0
  -24.3150   -9.5150   21.9030 C   0  0  0  0  0  3  0  0  0  0  0  0
  -23.5900   -8.3160   22.0780 C   0  0  0  0  0  3  0  0  0  0  0  0
  -22.4080   -8.0860   21.3360 C   0  0  0  0  0  0  0  0  0  0  0  0
  -21.9840   -9.0510   20.4040 C   0  0  0  0  0  3  0  0  0  0  0  0
  -22.7100  -10.2410   20.2270 C   0  0  0  0  0  3  0  0  0  0  0  0
  -21.6540   -6.9410   21.4220 O   0  0  0  0  0  0  0  0  0  0  0  0
  -21.5770   -6.2140   22.5830 C   0  0  0  0  0  0  0  0  0  0  0  0
  -21.1060   -6.7830   23.7870 C   0  0  0  0  0  3  0  0  0  0  0  0
  -20.9780   -5.9820   24.9410 C   0  0  0  0  0  3  0  0  0  0  0  0
  -21.3120   -4.6150   24.8910 C   0  0  0  0  0  0  0  0  0  0  0  0
  -21.7760   -4.0470   23.6910 C   0  0  0  0  0  3  0  0  0  0  0  0
  -21.9060   -4.8440   22.5400 C   0  0  0  0  0  0  0  0  0  0  0  0
  -22.3330   -4.2870   21.3820 F   0  0  0  0  0  0  0  0  0  0  0  0
  -21.1820   -3.8450   25.9950 F   0  0  0  0  0  0  0  0  0  0  0  0
  -22.7560  -13.5790   21.2430 C   0  0  0  0  0  0  0  0  0  0  0  0
  -22.0660  -12.8640   22.1230 N   0  0  0  0  0  0  0  0  0  0  0  0
  -22.3000  -14.6200   20.7690 O   0  0  0  0  0  0  0  0  0  0  0  0
  -22.4470  -12.0220   22.5280 H   0  0  0  0  0  0  0  0  0  0  0  0
  -21.1400  -13.1620   22.3970 H   0  0  0  0  0  0  0  0  0  0  0  0
  -25.3350  -15.2650   20.3370 N   0  0  0  0  0  0  0  0  0  0  0  0
  -24.5440  -15.8890   20.4550 H   0  0  0  0  0  0  0  0  0  0  0  0
  -26.0940  -15.6840   19.8190 H   0  0  0  0  0  0  0  0  0  0  0  0
  -27.8510  -24.3940   19.8030 C   0  0  0  0  0  2  0  0  0  0  0  0
  -28.1990  -25.9380   20.1530 O   0  0  0  0  0  0  0  0  0  0  0  0
  -24.6200  -31.8170   23.1630 C   0  0  0  0  0  0  0  0  0  0  0  0
  -27.1970  -27.0270   20.0830 C   0  0  0  0  0  0  0  0  0  0  0  0
  -23.4300  -30.4410   21.5040 C   0  0  0  0  0  3  0  0  0  0  0  0
  -24.8870  -28.8710   20.0620 C   0  0  0  0  0  0  0  0  0  0  0  0
  -25.9940  -30.6710   21.3650 C   0  0  0  0  0  2  0  0  0  0  0  0
  -26.0700  -29.2760   20.6910 C   0  0  0  0  0  0  0  0  0  0  0  0
  -27.2210  -28.3730   20.6840 C   0  0  0  0  0  3  0  0  0  0  0  0
  -25.9850  -26.7710   19.3990 C   0  0  0  0  0  3  0  0  0  0  0  0
  -24.8670  -27.6370   19.3960 C   0  0  0  0  0  3  0  0  0  0  0  0
  -23.6630  -29.7800   20.1180 C   0  0  0  0  0  2  0  0  0  0  0  0
  -24.7020  -31.0010   22.0640 N   0  0  0  0  0  0  0  0  0  0  0  0
  -23.5290  -32.0980   23.6850 O   0  0  0  0  0  0  0  0  0  0  0  0
  -22.7390  -29.4290   22.4520 C   0  0  0  0  0  0  0  0  0  0  0  0
  -21.4070  -29.2790   22.3370 N   0  0  0  0  0  0  0  0  0  0  0  0
  -23.4080  -28.7790   23.2610 O   0  0  0  0  0  0  0  0  0  0  0  0
  -20.9220  -29.8540   21.6620 H   0  0  0  0  0  0  0  0  0  0  0  0
  -18.0130  -28.1170   22.8720 C   0  0  0  0  0  0  0  0  0  0  0  0
  -20.5810  -28.3350   23.0970 C   0  0  0  0  0  3  0  0  0  0  0  0
  -20.6480  -26.9170   22.4830 C   0  0  0  0  0  2  0  0  0  0  0  0
  -19.5230  -26.6390   21.4800 C   0  0  0  0  0  2  0  0  0  0  0  0
  -18.1550  -26.7860   22.1540 C   0  0  0  0  0  2  0  0  0  0  0  0
  -19.1510  -28.8510   23.3010 C   0  0  0  0  0  0  0  0  0  0  0  0
  -18.9600  -30.0970   23.9380 C   0  0  0  0  0  3  0  0  0  0  0  0
  -17.6650  -30.6090   24.1470 C   0  0  0  0  0  3  0  0  0  0  0  0
  -16.5440  -29.8710   23.7320 C   0  0  0  0  0  3  0  0  0  0  0  0
  -16.7170  -28.6270   23.1010 C   0  0  0  0  0  3  0  0  0  0  0  0
  -25.8900  -32.4520   23.8040 C   0  0  0  0  0  3  0  0  0  0  0  0
  -25.5710  -33.8470   24.1550 N   0  0  0  0  0  0  0  0  0  0  0  0
  -25.8860  -34.9150   23.4120 C   0  0  0  0  0  0  0  0  0  0  0  0
  -26.5410  -34.8310   22.3690 O   0  0  0  0  0  0  0  0  0  0  0  0
  -24.9890  -33.9850   24.9670 H   0  0  0  0  0  0  0  0  0  0  0  0
  -24.1370  -36.7040   23.1280 C   0  0  0  0  0  1  0  0  0  0  0  0
  -25.4030  -36.2960   23.8990 C   0  0  0  0  0  3  0  0  0  0  0  0
  -27.5480  -37.1960   24.6870 C   0  0  0  0  0  1  0  0  0  0  0  0
  -26.4240  -37.3590   23.7700 N   0  0  0  0  0  0  0  0  0  0  0  0
  -26.0130  -38.2760   23.9300 H   0  0  0  0  0  0  0  0  0  0  0  0
  -26.3930  -31.6710   25.0820 C   0  0  1  0  0  0  0  0  0  0  0  0
  -25.2900  -31.4270   26.1390 C   0  0  0  0  0  1  0  0  0  0  0  0
  -26.9800  -30.2940   24.6940 C   0  0  0  0  0  1  0  0  0  0  0  0
  -27.5380  -32.4610   25.7610 C   0  0  0  0  0  1  0  0  0  0  0  0
  1  2  2  0
  1  9  1  0
  2 10  1  0
  3  5  1  0
  4  6  1  0
  5  7  1  0
  6  5  2  0
  6 20  1  0
  8  9  1  0
  8  4  2  0
  9  3  1  0
 10  3  1  0
 10 11  1  0
 12 20  1  0
 13 18  1  0
 14 15  1  0
 14 13  1  0
 16 15  1  0
 16 25  1  0
 16 17  1  0
 18 12  1  0
 18 17  1  0
 19 12  2  0
 20 21  1  0
 22 23  2  0
 23 42  1  0
 24 23  1  0
 24 27  1  0
 25 26  1  0
 25 22  1  0
 26 24  2  0
 27 28  1  0
 28 29  2  0
 30 33  1  0
 30 29  1  0
 31 30  2  0
 32 31  1  0
 32 27  2  0
 33 34  1  0
 34 35  1  0
 35 36  2  0
 37 36  1  0
 37 41  1  0
 38 37  2  0
 39 34  2  0
 39 38  1  0
 40 39  1  0
 42 43  1  0
 43 46  1  0
 43 45  1  0
 44 42  2  0
 47 48  1  0
 47 22  1  0
 49 47  1  0
 50  2  1  0
 50 51  1  0
 52 63  2  0
 53 51  1  0
 53 58  1  0
 54 62  1  0
 54 64  1  0
 55 61  1  0
 55 57  1  0
 56 62  1  0
 57 56  1  0
 58 57  2  0
 59 53  2  0
 60 59  1  0
 60 55  2  0
 61 54  1  0
 62 52  1  0
 64 66  2  0
 65 64  1  0
 67 65  1  0
 68 77  2  0
 68 73  1  0
 69 65  1  0
 69 73  1  0
 70 69  1  0
 71 72  1  0
 71 70  1  0
 72 68  1  0
 73 74  2  0
 74 75  1  0
 76 75  2  0
 77 76  1  0
 78 52  1  0
 78 79  1  0
 78 88  1  0
 79 82  1  0
 80 84  1  0
 80 79  1  0
 81 80  2  0
 84 83  1  0
 86 84  1  0
 86 87  1  0
 86 85  1  0
 88 91  1  1
 88 89  1  0
 90 88  1  0
M  ISO  4  12 100  20 100  50 101  51 101
M  END
>  <TORSDO>  (21) 
F 17

>  <SCORE>  (21) 
-15.812

>  <name>  (21) 
20

>  <ligand_id>  (21) 
20

>  <original_smiles>  (21) 
[H]c1nn2c([H])c(C([H])([H])Oc3c([H])c([H])c4c(c3[H])C([H])([H])N(C(=O)C([H])(N([H])C(=O)C([H])(N([H])C([H])([H])[H])C([H])([H])[H])C(C([H])([H])[H])(C([H])([H])[H])C([H])([H])[H])C([H])(C(=O)N([H])C3([H])c5c([H])c([H])c([H])c([H])c5C([H])([H])C([H])([H])C3([H])[H])C4([H])[H])[n+]([H])c2c(C([H])([H])[H])c1N([H])C(=O)N1C([H])([H])C([H])([H])C([H])([H])C([H])(n2nc(-c3c([H])c([H])c(Oc4c([H])c([H])c(F)c([H])c4F)c([H])c3[H])c(C(=O)N([H])[H])c2N([H])[H])C1([H])[H]

>  <smiles>  (21) 
[H]c1nn2c([H])c(C([H])([H])Oc3c([H])c([H])c4c(c3[H])C([H])([H])N(C(=O)C([H])(N([H])C(=O)C([H])(N([H])C([H])([H])[H])C([H])([H])[H])C(C([H])([H])[H])(C([H])([H])[H])C([H])([H])[H])C([H])(C(=O)N([H])C3([H])c5c([H])c([H])c([H])c([H])c5C([H])([H])C([H])([H])C3([H])[H])C4([H])[H])[n+]([H])c2c(C([H])([H])[H])c1N([H])C(=O)N1C([H])([H])C([H])([H])C([H])([H])C([H])(n2nc(-c3c([H])c([H])c(Oc4c([H])c([H])c(F)c([H])c4F)c([H])c3[H])c(C(=O)N([H])[H])c2N([H])[H])C1([H])[H]

$$$$
21:0:0
     RDKit          3D

 94101  0  0  1  0  0  0  0  0999 V2000
  -30.0480  -19.2330   20.6050 C   0  0  0  0  0  3  0  0  0  0  0  0
  -29.3730  -21.9110   20.1470 C   0  0  0  0  0  0  0  0  0  0  0  0
  -29.1610  -20.5670   20.5820 N   0  0  0  0  0  0  0  0  0  0  0  0
  -30.2560  -22.0980   19.3100 O   0  0  0  0  0  0  0  0  0  0  0  0
  -28.3560  -20.4950   21.1930 H   0  0  0  0  0  0  0  0  0  0  0  0
  -28.6090  -23.2890   20.7070 C   0  0  0  0  0  2  0  0  0  0  0  0
  -28.4420  -24.7740   19.8970 C   0  0  0  0  0  2  0  0  0  0  0  0
  -28.3330  -26.2410   20.4460 O   0  0  0  0  0  0  0  0  0  0  0  0
  -24.5970  -31.9100   23.2840 C   0  0  0  0  0  0  0  0  0  0  0  0
  -27.2440  -27.1850   20.3130 C   0  0  0  0  0  0  0  0  0  0  0  0
  -23.4240  -30.4930   21.6390 C   0  0  0  0  0  3  0  0  0  0  0  0
  -24.8980  -28.9150   20.2390 C   0  0  0  0  0  0  0  0  0  0  0  0
  -25.9760  -30.7740   21.4970 C   0  0  0  0  0  2  0  0  0  0  0  0
  -26.0640  -29.3740   20.8610 C   0  0  0  0  0  0  0  0  0  0  0  0
  -27.2320  -28.5230   20.8840 C   0  0  0  0  0  3  0  0  0  0  0  0
  -26.0490  -26.8230   19.6510 C   0  0  0  0  0  3  0  0  0  0  0  0
  -24.9020  -27.6520   19.6230 C   0  0  0  0  0  3  0  0  0  0  0  0
  -23.6640  -29.8050   20.2690 C   0  0  0  0  0  2  0  0  0  0  0  0
  -24.6860  -31.0830   22.1950 N   0  0  0  0  0  0  0  0  0  0  0  0
  -23.5050  -32.1900   23.7970 O   0  0  0  0  0  0  0  0  0  0  0  0
  -22.7420  -29.4900   22.6050 C   0  0  0  0  0  0  0  0  0  0  0  0
  -21.4190  -29.3010   22.4580 N   0  0  0  0  0  0  0  0  0  0  0  0
  -23.4070  -28.8840   23.4500 O   0  0  0  0  0  0  0  0  0  0  0  0
  -20.9420  -29.8400   21.7480 H   0  0  0  0  0  0  0  0  0  0  0  0
  -18.0430  -28.0610   22.9010 C   0  0  0  0  0  0  0  0  0  0  0  0
  -20.5920  -28.3630   23.2230 C   0  0  0  0  0  3  0  0  0  0  0  0
  -20.7280  -26.9270   22.6670 C   0  0  0  0  0  2  0  0  0  0  0  0
  -19.6540  -26.5740   21.6340 C   0  0  0  0  0  2  0  0  0  0  0  0
  -18.2560  -26.7080   22.2460 C   0  0  0  0  0  2  0  0  0  0  0  0
  -19.1410  -28.8470   23.3460 C   0  0  0  0  0  0  0  0  0  0  0  0
  -18.8910  -30.1120   23.9190 C   0  0  0  0  0  3  0  0  0  0  0  0
  -17.5760  -30.5930   24.0550 C   0  0  0  0  0  3  0  0  0  0  0  0
  -16.4920  -29.8070   23.6260 C   0  0  0  0  0  3  0  0  0  0  0  0
  -16.7260  -28.5430   23.0560 C   0  0  0  0  0  3  0  0  0  0  0  0
  -25.8630  -32.5540   23.9250 C   0  0  0  0  0  3  0  0  0  0  0  0
  -25.5480  -33.9610   24.2230 N   0  0  0  0  0  0  0  0  0  0  0  0
  -25.8960  -35.0020   23.4550 C   0  0  0  0  0  0  0  0  0  0  0  0
  -26.5790  -34.8800   22.4350 O   0  0  0  0  0  0  0  0  0  0  0  0
  -24.9430  -34.1300   25.0130 H   0  0  0  0  0  0  0  0  0  0  0  0
  -24.1760  -36.7960   23.0480 C   0  0  0  0  0  1  0  0  0  0  0  0
  -25.4060  -36.4010   23.8820 C   0  0  0  0  0  3  0  0  0  0  0  0
  -27.5320  -37.2960   24.7300 C   0  0  0  0  0  1  0  0  0  0  0  0
  -26.4430  -37.4500   23.7660 N   0  0  0  0  0  0  0  0  0  0  0  0
  -26.0400  -38.3740   23.8860 H   0  0  0  0  0  0  0  0  0  0  0  0
  -26.3480  -31.8100   25.2300 C   0  0  1  0  0  0  0  0  0  0  0  0
  -25.2300  -31.5990   26.2780 C   0  0  0  0  0  1  0  0  0  0  0  0
  -26.9360  -30.4230   24.8820 C   0  0  0  0  0  1  0  0  0  0  0  0
  -27.4880  -32.6170   25.8990 C   0  0  0  0  0  1  0  0  0  0  0  0
  -31.3280  -20.1980   22.6520 C   0  0  0  0  0  1  0  0  0  0  0  0
  -30.5390  -19.0170   22.0560 C   0  0  0  0  0  2  0  0  0  0  0  0
  -29.6650  -17.7220   19.8990 C   0  0  0  0  0  3  0  0  0  0  0  0
  -30.5800  -15.0860   20.2350 C   0  0  0  0  0  0  0  0  0  0  0  0
  -30.4340  -12.7170   19.3150 C   0  0  0  0  0  2  0  0  0  0  0  0
  -29.4890  -12.6790   18.0900 C   0  0  0  0  0  2  0  0  0  0  0  0
  -28.0270  -12.4790   18.5280 C   0  0  0  0  0  2  0  0  0  0  0  0
  -27.6370  -13.3870   19.7270 C   0  0  0  0  0  3  0  0  0  0  0  0
  -28.7130  -13.4030   20.8370 C   0  0  0  0  0  2  0  0  0  0  0  0
  -29.9830  -13.8160   20.2220 N   0  0  0  0  0  0  0  0  0  0  0  0
  -31.7440  -15.1510   19.8240 O   0  0  0  0  0  0  0  0  0  0  0  0
  -29.8450  -16.2690   20.5380 N   0  0  0  0  0  0  0  0  0  0  0  0
  -28.9620  -16.0320   20.9700 H   0  0  0  0  0  0  0  0  0  0  0  0
  -25.2600  -13.9320   20.5070 C   0  0  0  0  0  0  0  0  0  0  0  0
  -24.2040  -13.1510   20.8770 C   0  0  0  0  0  0  0  0  0  0  0  0
  -24.6740  -11.8040   20.8320 C   0  0  0  0  0  0  0  0  0  0  0  0
  -26.3090  -13.0680   20.2440 N   0  0  0  0  0  0  0  0  0  0  0  0
  -25.9640  -11.7780   20.5040 N   0  0  0  0  0  0  0  0  0  0  0  0
  -23.9520  -10.5400   21.0190 C   0  0  0  0  0  0  0  0  0  0  0  0
  -24.3870   -9.5680   21.9460 C   0  0  0  0  0  3  0  0  0  0  0  0
  -23.6580   -8.3730   22.1250 C   0  0  0  0  0  3  0  0  0  0  0  0
  -22.4800   -8.1440   21.3790 C   0  0  0  0  0  0  0  0  0  0  0  0
  -22.0600   -9.1060   20.4430 C   0  0  0  0  0  3  0  0  0  0  0  0
  -22.7920  -10.2910   20.2610 C   0  0  0  0  0  3  0  0  0  0  0  0
  -21.7200   -7.0020   21.4680 O   0  0  0  0  0  0  0  0  0  0  0  0
  -21.6740   -6.2580   22.6190 C   0  0  0  0  0  0  0  0  0  0  0  0
  -21.2410   -6.8080   23.8450 C   0  0  0  0  0  3  0  0  0  0  0  0
  -21.1350   -5.9880   24.9870 C   0  0  0  0  0  3  0  0  0  0  0  0
  -21.4640   -4.6220   24.9050 C   0  0  0  0  0  0  0  0  0  0  0  0
  -21.8940   -4.0720   23.6860 C   0  0  0  0  0  3  0  0  0  0  0  0
  -21.9940   -4.8880   22.5450 C   0  0  0  0  0  0  0  0  0  0  0  0
  -22.3870   -4.3470   21.3670 F   0  0  0  0  0  0  0  0  0  0  0  0
  -21.3570   -3.8340   26.0030 F   0  0  0  0  0  0  0  0  0  0  0  0
  -22.8100  -13.6270   21.1680 C   0  0  0  0  0  0  0  0  0  0  0  0
  -22.0890  -12.9290   22.0400 N   0  0  0  0  0  0  0  0  0  0  0  0
  -22.3680  -14.6570   20.6620 O   0  0  0  0  0  0  0  0  0  0  0  0
  -22.4570  -12.0970   22.4740 H   0  0  0  0  0  0  0  0  0  0  0  0
  -21.1530  -13.2350   22.2760 H   0  0  0  0  0  0  0  0  0  0  0  0
  -25.3900  -15.3030   20.3540 N   0  0  0  0  0  0  0  0  0  0  0  0
  -24.6140  -15.9300   20.5270 H   0  0  0  0  0  0  0  0  0  0  0  0
  -26.2550  -15.8230   20.1960 H   0  0  0  0  0  0  0  0  0  0  0  0
  -28.1770  -17.7270   19.5510 C   0  0  0  0  0  0  0  0  0  0  0  0
  -27.7930  -18.1490   18.3540 N   0  0  0  0  0  0  0  0  0  0  0  0
  -27.3640  -17.3320   20.3780 O   0  0  0  0  0  0  0  0  0  0  0  0
  -28.4670  -18.5020   17.6890 H   0  0  0  0  0  0  0  0  0  0  0  0
  -26.8130  -18.1560   18.1100 H   0  0  0  0  0  0  0  0  0  0  0  0
  1 50  1  0
  2  3  1  0
  2  6  1  0
  3  1  1  0
  3  5  1  0
  4  2  2  0
  7  8  1  0
  7  6  1  0
  9 20  2  0
 10  8  1  0
 10 15  1  0
 11 19  1  0
 11 21  1  0
 12 18  1  0
 12 14  1  0
 13 19  1  0
 14 15  2  0
 14 13  1  0
 16 10  2  0
 17 16  1  0
 17 12  2  0
 18 11  1  0
 19  9  1  0
 21 23  2  0
 22 21  1  0
 24 22  1  0
 25 34  2  0
 25 30  1  0
 26 22  1  0
 26 30  1  0
 27 26  1  0
 28 29  1  0
 28 27  1  0
 29 25  1  0
 30 31  2  0
 31 32  1  0
 33 32  2  0
 34 33  1  0
 35  9  1  0
 35 36  1  0
 35 45  1  0
 36 39  1  0
 37 41  1  0
 37 36  1  0
 38 37  2  0
 41 40  1  0
 43 41  1  0
 43 44  1  0
 43 42  1  0
 45 48  1  1
 45 46  1  0
 47 45  1  0
 50 49  1  0
 51 90  1  0
 51 60  1  0
 51  1  1  0
 52 60  1  0
 53 58  1  0
 54 55  1  0
 54 53  1  0
 56 55  1  0
 56 65  1  0
 56 57  1  0
 58 52  1  0
 58 57  1  0
 59 52  2  0
 60 61  1  0
 62 63  2  0
 63 82  1  0
 64 63  1  0
 64 67  1  0
 65 66  1  0
 65 62  1  0
 66 64  2  0
 67 68  1  0
 68 69  2  0
 70 73  1  0
 70 69  1  0
 71 70  2  0
 72 71  1  0
 72 67  2  0
 73 74  1  0
 74 75  1  0
 75 76  2  0
 77 76  1  0
 77 81  1  0
 78 77  2  0
 79 74  2  0
 79 78  1  0
 80 79  1  0
 82 83  1  0
 83 86  1  0
 83 85  1  0
 84 82  2  0
 87 62  1  0
 87 88  1  0
 89 87  1  0
 90 92  2  0
 91 90  1  0
 93 91  1  0
 94 91  1  0
M  ISO  4   7 101   8 101  52 100  60 100
M  END
>  <TORSDO>  (22) 
F 22

>  <SCORE>  (22) 
-14.358

>  <name>  (22) 
21

>  <ligand_id>  (22) 
21

>  <original_smiles>  (22) 
[H]c1c([H])c([H])c2c(c1[H])C([H])([H])C([H])([H])C([H])([H])C2([H])N([H])C(=O)C1([H])N(C(=O)C([H])(N([H])C(=O)C([H])(N([H])C([H])([H])[H])C([H])([H])[H])C(C([H])([H])[H])(C([H])([H])[H])C([H])([H])[H])C([H])([H])c2c([H])c(OC([H])([H])C([H])([H])C(=O)N([H])C([H])(C([H])(C(=O)N([H])[H])N([H])C(=O)N3C([H])([H])C([H])([H])C([H])([H])C([H])(n4nc(-c5c([H])c([H])c(Oc6c([H])c([H])c(F)c([H])c6F)c([H])c5[H])c(C(=O)N([H])[H])c4N([H])[H])C3([H])[H])C([H])([H])C([H])([H])[H])c([H])c([H])c2C1([H])[H]

>  <smiles>  (22) 
[H]c1c([H])c([H])c2c(c1[H])C([H])([H])C([H])([H])C([H])([H])C2([H])N([H])C(=O)C1([H])N(C(=O)C([H])(N([H])C(=O)C([H])(N([H])C([H])([H])[H])C([H])([H])[H])C(C([H])([H])[H])(C([H])([H])[H])C([H])([H])[H])C([H])([H])c2c([H])c(OC([H])([H])C([H])([H])C(=O)N([H])C([H])(C([H])(C(=O)N([H])[H])N([H])C(=O)N3C([H])([H])C([H])([H])C([H])([H])C([H])(n4nc(-c5c([H])c([H])c(Oc6c([H])c([H])c(F)c([H])c6F)c([H])c5[H])c(C(=O)N([H])[H])c4N([H])[H])C3([H])[H])C([H])([H])C([H])([H])[H])c([H])c([H])c2C1([H])[H]

$$$$
22:0:0
     RDKit          3D

 93100  0  0  1  0  0  0  0  0999 V2000
  -28.9880  -21.6950   20.4300 C   0  0  0  0  0  0  0  0  0  0  0  0
  -28.0710  -21.6670   21.6500 C   0  0  0  0  0  1  0  0  0  0  0  0
  -29.5130  -20.6390   19.8890 N   0  0  0  0  0  0  0  0  0  0  0  0
  -29.2900  -23.0650   19.8930 C   0  0  0  0  0  3  0  0  0  0  0  0
  -28.6000  -24.2120   20.1500 C   0  0  0  0  0  3  0  0  0  0  0  0
  -28.9620  -25.6050   19.6070 C   0  0  0  0  0  2  0  0  0  0  0  0
  -28.6700  -26.7110   20.5020 O   0  0  0  0  0  0  0  0  0  0  0  0
  -24.6000  -31.8880   23.3000 C   0  0  0  0  0  0  0  0  0  0  0  0
  -27.4770  -27.4210   20.4110 C   0  0  0  0  0  0  0  0  0  0  0  0
  -23.5150  -30.4650   21.5960 C   0  0  0  0  0  3  0  0  0  0  0  0
  -25.0690  -28.9310   20.2740 C   0  0  0  0  0  0  0  0  0  0  0  0
  -26.0490  -30.8390   21.5580 C   0  0  0  0  0  2  0  0  0  0  0  0
  -26.1860  -29.4620   20.9290 C   0  0  0  0  0  0  0  0  0  0  0  0
  -27.3880  -28.7130   20.9940 C   0  0  0  0  0  3  0  0  0  0  0  0
  -26.3260  -26.9070   19.7680 C   0  0  0  0  0  3  0  0  0  0  0  0
  -25.1360  -27.6540   19.6940 C   0  0  0  0  0  3  0  0  0  0  0  0
  -23.8170  -29.7800   20.2370 C   0  0  0  0  0  2  0  0  0  0  0  0
  -24.7360  -31.0810   22.2100 N   0  0  0  0  0  0  0  0  0  0  0  0
  -23.4840  -32.1520   23.7690 O   0  0  0  0  0  0  0  0  0  0  0  0
  -22.8140  -29.4420   22.5210 C   0  0  0  0  0  0  0  0  0  0  0  0
  -21.4960  -29.2640   22.3310 N   0  0  0  0  0  0  0  0  0  0  0  0
  -23.4560  -28.8110   23.3660 O   0  0  0  0  0  0  0  0  0  0  0  0
  -21.0400  -29.8280   21.6280 H   0  0  0  0  0  0  0  0  0  0  0  0
  -18.0890  -28.1140   22.7000 C   0  0  0  0  0  0  0  0  0  0  0  0
  -20.6400  -28.3260   23.0570 C   0  0  0  0  0  3  0  0  0  0  0  0
  -20.7400  -26.9040   22.4580 C   0  0  0  0  0  2  0  0  0  0  0  0
  -19.6670  -26.6180   21.4030 C   0  0  0  0  0  2  0  0  0  0  0  0
  -18.2660  -26.7750   22.0040 C   0  0  0  0  0  2  0  0  0  0  0  0
  -19.2050  -28.8500   23.1790 C   0  0  0  0  0  0  0  0  0  0  0  0
  -18.9880  -30.1050   23.7860 C   0  0  0  0  0  3  0  0  0  0  0  0
  -17.6860  -30.6250   23.9190 C   0  0  0  0  0  3  0  0  0  0  0  0
  -16.5850  -29.8870   23.4570 C   0  0  0  0  0  3  0  0  0  0  0  0
  -16.7860  -28.6320   22.8530 C   0  0  0  0  0  3  0  0  0  0  0  0
  -25.8370  -32.5380   23.9950 C   0  0  0  0  0  3  0  0  0  0  0  0
  -25.5050  -33.9440   24.2640 N   0  0  0  0  0  0  0  0  0  0  0  0
  -25.8800  -34.9760   23.4940 C   0  0  0  0  0  0  0  0  0  0  0  0
  -26.6100  -34.8430   22.5090 O   0  0  0  0  0  0  0  0  0  0  0  0
  -24.8640  -34.1210   25.0240 H   0  0  0  0  0  0  0  0  0  0  0  0
  -24.1640  -36.7440   22.9910 C   0  0  0  0  0  1  0  0  0  0  0  0
  -25.3610  -36.3730   23.8800 C   0  0  0  0  0  3  0  0  0  0  0  0
  -27.4440  -37.3000   24.7940 C   0  0  0  0  0  1  0  0  0  0  0  0
  -26.3930  -37.4300   23.7870 N   0  0  0  0  0  0  0  0  0  0  0  0
  -25.9750  -38.3510   23.8840 H   0  0  0  0  0  0  0  0  0  0  0  0
  -26.2610  -31.8030   25.3250 C   0  0  1  0  0  0  0  0  0  0  0  0
  -25.0900  -31.5710   26.3090 C   0  0  0  0  0  1  0  0  0  0  0  0
  -26.8920  -30.4270   25.0110 C   0  0  0  0  0  1  0  0  0  0  0  0
  -27.3440  -32.6280   26.0580 C   0  0  0  0  0  1  0  0  0  0  0  0
  -29.2910  -19.2530   20.3790 C   0  0  0  0  0  3  0  0  0  0  0  0
  -28.0080  -18.6500   19.7600 C   0  0  0  0  0  0  0  0  0  0  0  0
  -27.1290  -18.0930   20.5810 N   0  0  0  0  0  0  0  0  0  0  0  0
  -27.8020  -18.7020   18.5480 O   0  0  0  0  0  0  0  0  0  0  0  0
  -27.2980  -18.0620   21.5770 H   0  0  0  0  0  0  0  0  0  0  0  0
  -26.2770  -17.6940   20.2160 H   0  0  0  0  0  0  0  0  0  0  0  0
  -30.4930  -18.2860   20.0610 C   0  0  0  0  0  2  0  0  0  0  0  0
  -30.7900  -17.1930   21.1540 C   0  0  0  0  0  2  0  0  0  0  0  0
  -31.1060  -14.7620   20.4100 C   0  0  0  0  0  0  0  0  0  0  0  0
  -30.8430  -12.5320   19.3630 C   0  0  0  0  0  2  0  0  0  0  0  0
  -29.9200  -12.6600   18.1330 C   0  0  0  0  0  2  0  0  0  0  0  0
  -28.4360  -12.5550   18.5430 C   0  0  0  0  0  2  0  0  0  0  0  0
  -28.0820  -13.4640   19.7490 C   0  0  0  0  0  3  0  0  0  0  0  0
  -29.1120  -13.2920   20.8850 C   0  0  0  0  0  2  0  0  0  0  0  0
  -30.4440  -13.5730   20.3240 N   0  0  0  0  0  0  0  0  0  0  0  0
  -32.2590  -14.9130   19.9970 O   0  0  0  0  0  0  0  0  0  0  0  0
  -30.3660  -15.8050   20.8510 N   0  0  0  0  0  0  0  0  0  0  0  0
  -29.4200  -15.5680   21.1120 H   0  0  0  0  0  0  0  0  0  0  0  0
  -25.7020  -14.1500   20.4450 C   0  0  0  0  0  0  0  0  0  0  0  0
  -24.6040  -13.4140   20.7990 C   0  0  0  0  0  0  0  0  0  0  0  0
  -25.0170  -12.0470   20.7600 C   0  0  0  0  0  0  0  0  0  0  0  0
  -26.7170  -13.2340   20.2150 N   0  0  0  0  0  0  0  0  0  0  0  0
  -26.3070  -11.9630   20.4620 N   0  0  0  0  0  0  0  0  0  0  0  0
  -24.2440  -10.8100   20.9320 C   0  0  0  0  0  0  0  0  0  0  0  0
  -24.6300   -9.8220   21.8650 C   0  0  0  0  0  3  0  0  0  0  0  0
  -23.8610   -8.6500   22.0250 C   0  0  0  0  0  3  0  0  0  0  0  0
  -22.6910   -8.4570   21.2510 C   0  0  0  0  0  0  0  0  0  0  0  0
  -22.3240   -9.4330   20.3080 C   0  0  0  0  0  3  0  0  0  0  0  0
  -23.0950  -10.5980   20.1460 C   0  0  0  0  0  3  0  0  0  0  0  0
  -21.8970   -7.3380   21.3210 O   0  0  0  0  0  0  0  0  0  0  0  0
  -21.7880   -6.6030   22.4740 C   0  0  0  0  0  0  0  0  0  0  0  0
  -21.3540   -7.1780   23.6870 C   0  0  0  0  0  3  0  0  0  0  0  0
  -21.1910   -6.3710   24.8300 C   0  0  0  0  0  3  0  0  0  0  0  0
  -21.4520   -4.9890   24.7600 C   0  0  0  0  0  0  0  0  0  0  0  0
  -21.8790   -4.4130   23.5520 C   0  0  0  0  0  3  0  0  0  0  0  0
  -22.0440   -5.2180   22.4100 C   0  0  0  0  0  0  0  0  0  0  0  0
  -22.4360   -4.6540   21.2420 F   0  0  0  0  0  0  0  0  0  0  0  0
  -21.2870   -4.2120   25.8570 F   0  0  0  0  0  0  0  0  0  0  0  0
  -23.2230  -13.9390   21.0660 C   0  0  0  0  0  0  0  0  0  0  0  0
  -22.4690  -13.2670   21.9290 N   0  0  0  0  0  0  0  0  0  0  0  0
  -22.8220  -14.9780   20.5430 O   0  0  0  0  0  0  0  0  0  0  0  0
  -22.8060  -12.4250   22.3730 H   0  0  0  0  0  0  0  0  0  0  0  0
  -21.5410  -13.5990   22.1510 H   0  0  0  0  0  0  0  0  0  0  0  0
  -25.9180  -15.5150   20.2800 N   0  0  0  0  0  0  0  0  0  0  0  0
  -25.1740  -16.1950   20.3920 H   0  0  0  0  0  0  0  0  0  0  0  0
  -26.7790  -15.9310   19.9510 H   0  0  0  0  0  0  0  0  0  0  0  0
  1  2  1  0
  3 48  1  0
  3  1  2  0
  4  5  2  0
  4  1  1  0
  6  5  1  0
  6  7  1  0
  8 19  2  0
  9  7  1  0
  9 14  1  0
 10 18  1  0
 10 20  1  0
 11 13  1  0
 12 18  1  0
 13 14  2  0
 13 12  1  0
 15  9  2  0
 16 15  1  0
 16 11  2  0
 17 11  1  0
 17 10  1  0
 18  8  1  0
 20 22  2  0
 21 20  1  0
 23 21  1  0
 24 33  2  0
 24 29  1  0
 25 21  1  0
 25 29  1  0
 26 25  1  0
 27 28  1  0
 27 26  1  0
 28 24  1  0
 29 30  2  0
 30 31  1  0
 32 31  2  0
 33 32  1  0
 34  8  1  0
 34 35  1  0
 34 44  1  0
 35 38  1  0
 36 40  1  0
 36 35  1  0
 37 36  2  0
 40 39  1  0
 42 40  1  0
 42 43  1  0
 42 41  1  0
 44 47  1  1
 44 45  1  0
 46 44  1  0
 48 54  1  0
 49 48  1  0
 49 50  1  0
 50 52  1  0
 51 49  2  0
 53 50  1  0
 54 55  1  0
 56 64  1  0
 57 62  1  0
 58 59  1  0
 58 57  1  0
 60 59  1  0
 60 69  1  0
 60 61  1  0
 62 56  1  0
 62 61  1  0
 63 56  2  0
 64 65  1  0
 64 55  1  0
 66 67  2  0
 67 86  1  0
 68 67  1  0
 68 71  1  0
 69 66  1  0
 69 70  1  0
 70 68  2  0
 71 72  1  0
 72 73  2  0
 74 77  1  0
 74 73  1  0
 75 74  2  0
 76 75  1  0
 76 71  2  0
 77 78  1  0
 78 79  1  0
 79 80  2  0
 81 80  1  0
 81 85  1  0
 82 81  2  0
 83 78  2  0
 83 82  1  0
 84 83  1  0
 86 87  1  0
 87 90  1  0
 87 89  1  0
 88 86  2  0
 91 92  1  0
 91 66  1  0
 93 91  1  0
M  ISO  4   6 101   7 101  56 100  64 100
M  END
>  <TORSDO>  (23) 
F 22

>  <SCORE>  (23) 
-12.954

>  <name>  (23) 
22

>  <ligand_id>  (23) 
22

>  <original_smiles>  (23) 
[H]C(C(=NC([H])(C(=O)N([H])[H])C([H])([H])C([H])([H])N([H])C(=O)N1C([H])([H])C([H])([H])C([H])([H])C([H])(n2nc(-c3c([H])c([H])c(Oc4c([H])c([H])c(F)c([H])c4F)c([H])c3[H])c(C(=O)N([H])[H])c2N([H])[H])C1([H])[H])C([H])([H])[H])=C([H])C([H])([H])Oc1c([H])c([H])c2c(c1[H])C([H])([H])N(C(=O)C([H])(N([H])C(=O)C([H])(N([H])C([H])([H])[H])C([H])([H])[H])C(C([H])([H])[H])(C([H])([H])[H])C([H])([H])[H])C([H])(C(=O)N([H])C1([H])c3c([H])c([H])c([H])c([H])c3C([H])([H])C([H])([H])C1([H])[H])C2([H])[H]

>  <smiles>  (23) 
[H]C(C(=NC([H])(C(=O)N([H])[H])C([H])([H])C([H])([H])N([H])C(=O)N1C([H])([H])C([H])([H])C([H])([H])C([H])(n2nc(-c3c([H])c([H])c(Oc4c([H])c([H])c(F)c([H])c4F)c([H])c3[H])c(C(=O)N([H])[H])c2N([H])[H])C1([H])[H])C([H])([H])[H])=C([H])C([H])([H])Oc1c([H])c([H])c2c(c1[H])C([H])([H])N(C(=O)C([H])(N([H])C(=O)C([H])(N([H])C([H])([H])[H])C([H])([H])[H])C(C([H])([H])[H])(C([H])([H])[H])C([H])([H])[H])C([H])(C(=O)N([H])C1([H])c3c([H])c([H])c([H])c([H])c3C([H])([H])C([H])([H])C1([H])[H])C2([H])[H]

$$$$
23:0:0
     RDKit          3D

 92 99  0  0  1  0  0  0  0  0999 V2000
  -29.5480  -20.7230   21.1150 C   0  0  0  0  0  2  0  0  0  0  0  0
  -29.9350  -18.2140   20.8790 C   0  0  0  0  0  0  0  0  0  0  0  0
  -29.3450  -19.3810   20.5290 N   0  0  0  0  0  0  0  0  0  0  0  0
  -30.7640  -18.1370   21.7890 O   0  0  0  0  0  0  0  0  0  0  0  0
  -28.6700  -19.3380   19.7790 H   0  0  0  0  0  0  0  0  0  0  0  0
  -29.4970  -16.9360   20.1020 C   0  0  0  0  0  0  0  0  0  0  0  0
  -30.5630  -14.6100   20.4540 C   0  0  0  0  0  0  0  0  0  0  0  0
  -30.4090  -12.4050   19.3730 C   0  0  0  0  0  2  0  0  0  0  0  0
  -29.4740  -12.5810   18.1540 C   0  0  0  0  0  2  0  0  0  0  0  0
  -27.9930  -12.4190   18.5610 C   0  0  0  0  0  2  0  0  0  0  0  0
  -27.6230  -13.2420   19.8240 C   0  0  0  0  0  3  0  0  0  0  0  0
  -28.6680  -13.0260   20.9430 C   0  0  0  0  0  2  0  0  0  0  0  0
  -29.9900  -13.3730   20.3960 N   0  0  0  0  0  0  0  0  0  0  0  0
  -31.6920  -14.8450   20.0140 O   0  0  0  0  0  0  0  0  0  0  0  0
  -29.6780  -15.5940   20.7220 N   0  0  0  0  0  4  0  0  0  0  0  0
  -28.8410  -15.2560   21.1690 H   0  0  0  0  0  0  0  0  0  0  0  0
  -25.2120  -13.8330   20.5080 C   0  0  0  0  0  0  0  0  0  0  0  0
  -24.1490  -13.0540   20.8790 C   0  0  0  0  0  0  0  0  0  0  0  0
  -24.6200  -11.7050   20.8530 C   0  0  0  0  0  0  0  0  0  0  0  0
  -26.2660  -12.9580   20.2850 N   0  0  0  0  0  0  0  0  0  0  0  0
  -25.9120  -11.6750   20.5480 N   0  0  0  0  0  0  0  0  0  0  0  0
  -23.9020  -10.4400   21.0460 C   0  0  0  0  0  0  0  0  0  0  0  0
  -24.3410   -9.4810   21.9860 C   0  0  0  0  0  3  0  0  0  0  0  0
  -23.6280   -8.2750   22.1630 C   0  0  0  0  0  3  0  0  0  0  0  0
  -22.4600   -8.0230   21.4020 C   0  0  0  0  0  0  0  0  0  0  0  0
  -22.0420   -8.9730   20.4540 C   0  0  0  0  0  3  0  0  0  0  0  0
  -22.7550  -10.1690   20.2740 C   0  0  0  0  0  3  0  0  0  0  0  0
  -21.7170   -6.8710   21.4910 O   0  0  0  0  0  0  0  0  0  0  0  0
  -21.6710   -6.1320   22.6450 C   0  0  0  0  0  0  0  0  0  0  0  0
  -21.2230   -6.6850   23.8650 C   0  0  0  0  0  3  0  0  0  0  0  0
  -21.1230   -5.8690   25.0110 C   0  0  0  0  0  3  0  0  0  0  0  0
  -21.4580   -4.5040   24.9380 C   0  0  0  0  0  0  0  0  0  0  0  0
  -21.8990   -3.9520   23.7240 C   0  0  0  0  0  3  0  0  0  0  0  0
  -22.0000   -4.7630   22.5800 C   0  0  0  0  0  0  0  0  0  0  0  0
  -22.4030   -4.2230   21.4040 F   0  0  0  0  0  0  0  0  0  0  0  0
  -21.3580   -3.7180   26.0360 F   0  0  0  0  0  0  0  0  0  0  0  0
  -22.7460  -13.5220   21.1420 C   0  0  0  0  0  0  0  0  0  0  0  0
  -22.0130  -12.8250   22.0060 N   0  0  0  0  0  0  0  0  0  0  0  0
  -22.3050  -14.5440   20.6170 O   0  0  0  0  0  0  0  0  0  0  0  0
  -22.3810  -12.0040   22.4640 H   0  0  0  0  0  0  0  0  0  0  0  0
  -21.0700  -13.1190   22.2130 H   0  0  0  0  0  0  0  0  0  0  0  0
  -25.3640  -15.2070   20.3250 N   0  0  0  0  0  0  0  0  0  0  0  0
  -24.5840  -15.8460   20.4170 H   0  0  0  0  0  0  0  0  0  0  0  0
  -26.1950  -15.6470   19.9510 H   0  0  0  0  0  0  0  0  0  0  0  0
  -29.7350  -16.9340   18.5690 C   0  0  0  0  0  2  0  0  0  0  0  0
  -31.1110  -16.8930   18.2360 O   0  0  0  0  0  0  0  0  0  0  0  0
  -31.4910  -16.1580   18.7260 H   0  0  0  0  0  0  0  0  0  0  0  0
  -28.8430  -21.8490   20.3040 C   0  0  0  0  0  2  0  0  0  0  0  0
  -29.0650  -23.1430   20.8780 O   0  0  0  0  0  0  0  0  0  0  0  0
  -28.5330  -24.2440   20.1200 C   0  0  0  0  0  2  0  0  0  0  0  0
  -28.5520  -25.5560   20.9540 C   0  0  0  0  0  2  0  0  0  0  0  0
  -28.4800  -26.7630   20.1740 O   0  0  0  0  0  0  0  0  0  0  0  0
  -24.5870  -31.9020   23.2510 C   0  0  0  0  0  0  0  0  0  0  0  0
  -27.2930  -27.4660   20.2150 C   0  0  0  0  0  0  0  0  0  0  0  0
  -23.4020  -30.4870   21.5990 C   0  0  0  0  0  3  0  0  0  0  0  0
  -24.8810  -28.9480   20.1950 C   0  0  0  0  0  0  0  0  0  0  0  0
  -25.9270  -30.8610   21.4220 C   0  0  0  0  0  2  0  0  0  0  0  0
  -26.0290  -29.4870   20.7900 C   0  0  0  0  0  0  0  0  0  0  0  0
  -27.2380  -28.7540   20.7920 C   0  0  0  0  0  3  0  0  0  0  0  0
  -26.1310  -26.9370   19.6190 C   0  0  0  0  0  3  0  0  0  0  0  0
  -24.9280  -27.6720   19.6050 C   0  0  0  0  0  3  0  0  0  0  0  0
  -23.6300  -29.7970   20.2260 C   0  0  0  0  0  2  0  0  0  0  0  0
  -24.6550  -31.1000   22.1490 N   0  0  0  0  0  0  0  0  0  0  0  0
  -23.4990  -32.1680   23.7840 O   0  0  0  0  0  0  0  0  0  0  0  0
  -22.7470  -29.4680   22.5590 C   0  0  0  0  0  0  0  0  0  0  0  0
  -21.4240  -29.2810   22.4220 N   0  0  0  0  0  0  0  0  0  0  0  0
  -23.4270  -28.8460   23.3790 O   0  0  0  0  0  0  0  0  0  0  0  0
  -20.9390  -29.8350   21.7300 H   0  0  0  0  0  0  0  0  0  0  0  0
  -18.0510  -28.0800   22.9010 C   0  0  0  0  0  0  0  0  0  0  0  0
  -20.6070  -28.3380   23.1860 C   0  0  0  0  0  3  0  0  0  0  0  0
  -20.7140  -26.9100   22.6040 C   0  0  0  0  0  2  0  0  0  0  0  0
  -19.6170  -26.5900   21.5840 C   0  0  0  0  0  2  0  0  0  0  0  0
  -18.2320  -26.7320   22.2200 C   0  0  0  0  0  2  0  0  0  0  0  0
  -19.1670  -28.8400   23.3390 C   0  0  0  0  0  0  0  0  0  0  0  0
  -18.9440  -30.1020   23.9310 C   0  0  0  0  0  3  0  0  0  0  0  0
  -17.6380  -30.6030   24.0900 C   0  0  0  0  0  3  0  0  0  0  0  0
  -16.5360  -29.8390   23.6660 C   0  0  0  0  0  3  0  0  0  0  0  0
  -16.7440  -28.5790   23.0770 C   0  0  0  0  0  3  0  0  0  0  0  0
  -25.8660  -32.5360   23.8830 C   0  0  0  0  0  3  0  0  0  0  0  0
  -25.5540  -33.9350   24.2050 N   0  0  0  0  0  0  0  0  0  0  0  0
  -25.8990  -34.9840   23.4470 C   0  0  0  0  0  0  0  0  0  0  0  0
  -26.5830  -34.8760   22.4260 O   0  0  0  0  0  0  0  0  0  0  0  0
  -24.9490  -34.0910   24.9970 H   0  0  0  0  0  0  0  0  0  0  0  0
  -24.1830  -36.7790   23.0480 C   0  0  0  0  0  1  0  0  0  0  0  0
  -25.4030  -36.3730   23.8910 C   0  0  0  0  0  3  0  0  0  0  0  0
  -27.5170  -37.2550   24.7720 C   0  0  0  0  0  1  0  0  0  0  0  0
  -26.4390  -37.4250   23.8010 N   0  0  0  0  0  0  0  0  0  0  0  0
  -26.0320  -38.3460   23.9350 H   0  0  0  0  0  0  0  0  0  0  0  0
  -26.3780  -31.7690   25.1630 C   0  0  1  0  0  0  0  0  0  0  0  0
  -25.2790  -31.5280   26.2240 C   0  0  0  0  0  1  0  0  0  0  0  0
  -26.9700  -30.3920   24.7770 C   0  0  0  0  0  1  0  0  0  0  0  0
  -27.5200  -32.5690   25.8300 C   0  0  0  0  0  1  0  0  0  0  0  0
  2  4  2  0
  3  2  1  0
  3  1  1  0
  5  3  1  0
  6 15  2  3
  6  2  1  0
  7 15  1  0
  8 13  1  0
  9 10  1  0
  9  8  1  0
 11 10  1  0
 11 20  1  0
 11 12  1  0
 13  7  1  0
 13 12  1  0
 14  7  2  0
 15 16  1  0
 17 18  2  0
 18 37  1  0
 19 18  1  0
 19 22  1  0
 20 17  1  0
 20 21  1  0
 21 19  2  0
 22 23  1  0
 23 24  2  0
 25 28  1  0
 25 24  1  0
 26 25  2  0
 27 26  1  0
 27 22  2  0
 28 29  1  0
 29 30  1  0
 30 31  2  0
 32 31  1  0
 32 36  1  0
 33 32  2  0
 34 29  2  0
 34 33  1  0
 35 34  1  0
 37 38  1  0
 38 41  1  0
 38 40  1  0
 39 37  2  0
 42 43  1  0
 42 17  1  0
 44 42  1  0
 45  6  1  0
 46 45  1  0
 46 47  1  0
 48 49  1  0
 48  1  1  0
 50 49  1  0
 50 51  1  0
 52 54  1  0
 52 51  1  0
 53 64  2  0
 54 59  1  0
 55 63  1  0
 55 65  1  0
 56 62  1  0
 56 58  1  0
 57 63  1  0
 58 59  2  0
 58 57  1  0
 60 54  2  0
 61 60  1  0
 61 56  2  0
 62 55  1  0
 63 53  1  0
 65 67  2  0
 66 65  1  0
 68 66  1  0
 69 78  2  0
 69 74  1  0
 70 66  1  0
 70 74  1  0
 71 70  1  0
 72 73  1  0
 72 71  1  0
 73 69  1  0
 74 75  2  0
 75 76  1  0
 77 76  2  0
 78 77  1  0
 79 53  1  0
 79 80  1  0
 79 89  1  0
 80 83  1  0
 81 85  1  0
 81 80  1  0
 82 81  2  0
 85 84  1  0
 87 85  1  0
 87 88  1  0
 87 86  1  0
 89 92  1  1
 89 90  1  0
 91 89  1  0
M  ISO  4   7 100  15 100  51 101  52 101
M  END
>  <TORSDO>  (24) 
F 24

>  <SCORE>  (24) 
-12.688

>  <name>  (24) 
23

>  <ligand_id>  (24) 
23

>  <original_smiles>  (24) 
[H]OC([H])([H])C([H])(C(=O)N([H])C([H])([H])C([H])([H])OC([H])([H])C([H])([H])Oc1c([H])c([H])c2c(c1[H])C([H])([H])N(C(=O)C([H])(N([H])C(=O)C([H])(N([H])C([H])([H])[H])C([H])([H])[H])C(C([H])([H])[H])(C([H])([H])[H])C([H])([H])[H])C([H])(C(=O)N([H])C1([H])c3c([H])c([H])c([H])c([H])c3C([H])([H])C([H])([H])C1([H])[H])C2([H])[H])N([H])C(=O)N1C([H])([H])C([H])([H])C([H])([H])C([H])(n2nc(-c3c([H])c([H])c(Oc4c([H])c([H])c(F)c([H])c4F)c([H])c3[H])c(C(=O)N([H])[H])c2N([H])[H])C1([H])[H]

>  <smiles>  (24) 
[H]OC([H])([H])C([H])(C(=O)N([H])C([H])([H])C([H])([H])OC([H])([H])C([H])([H])Oc1c([H])c([H])c2c(c1[H])C([H])([H])N(C(=O)C([H])(N([H])C(=O)C([H])(N([H])C([H])([H])[H])C([H])([H])[H])C(C([H])([H])[H])(C([H])([H])[H])C([H])([H])[H])C([H])(C(=O)N([H])C1([H])c3c([H])c([H])c([H])c([H])c3C([H])([H])C([H])([H])C1([H])[H])C2([H])[H])N([H])C(=O)N1C([H])([H])C([H])([H])C([H])([H])C([H])(n2nc(-c3c([H])c([H])c(Oc4c([H])c([H])c(F)c([H])c4F)c([H])c3[H])c(C(=O)N([H])[H])c2N([H])[H])C1([H])[H]

$$$$
24:0:0
     RDKit          3D

 96103  0  0  1  0  0  0  0  0999 V2000
  -29.9660  -21.2470   19.8850 C   0  0  0  0  0  0  0  0  0  0  0  0
  -29.4750  -22.3730   19.3370 N   0  0  0  0  0  0  0  0  0  0  0  0
  -31.0850  -21.1890   20.4010 O   0  0  0  0  0  0  0  0  0  0  0  0
  -28.5480  -22.3190   18.9320 H   0  0  0  0  0  0  0  0  0  0  0  0
  -29.0840  -19.9870   19.8310 C   0  0  0  0  0  2  0  0  0  0  0  0
  -29.2090  -17.6150   20.5930 C   0  0  0  0  0  0  0  0  0  0  0  0
  -29.7350  -18.8450   20.4830 N   0  0  0  0  0  0  0  0  0  0  0  0
  -28.1560  -17.3240   20.0170 O   0  0  0  0  0  0  0  0  0  0  0  0
  -30.6710  -19.0220   20.8260 H   0  0  0  0  0  0  0  0  0  0  0  0
  -29.9580  -16.6590   21.4280 C   0  0  0  0  0  0  0  0  0  0  0  0
  -30.8210  -16.9730   22.4340 C   0  0  0  0  0  3  0  0  0  0  0  0
  -31.5740  -15.9580   23.2820 C   0  0  0  0  0  1  0  0  0  0  0  0
  -30.2650  -14.5320   20.2660 C   0  0  0  0  0  0  0  0  0  0  0  0
  -29.9220  -12.5210   18.8700 C   0  0  0  0  0  2  0  0  0  0  0  0
  -28.8810  -12.8220   17.7720 C   0  0  0  0  0  2  0  0  0  0  0  0
  -27.4450  -12.6080   18.2960 C   0  0  0  0  0  2  0  0  0  0  0  0
  -27.1980  -13.3070   19.6590 C   0  0  0  0  0  3  0  0  0  0  0  0
  -28.3310  -12.9620   20.6490 C   0  0  0  0  0  2  0  0  0  0  0  0
  -29.6100  -13.3640   20.0330 N   0  0  0  0  0  0  0  0  0  0  0  0
  -31.2800  -14.8750   19.6520 O   0  0  0  0  0  0  0  0  0  0  0  0
  -29.6680  -15.3170   21.1740 N   0  0  0  0  0  4  0  0  0  0  0  0
  -28.7730  -14.9950   21.5130 H   0  0  0  0  0  0  0  0  0  0  0  0
  -24.8200  -13.8050   20.5180 C   0  0  0  0  0  0  0  0  0  0  0  0
  -23.8050  -12.9810   20.9250 C   0  0  0  0  0  0  0  0  0  0  0  0
  -24.3120  -11.6500   20.8270 C   0  0  0  0  0  0  0  0  0  0  0  0
  -25.8830  -12.9710   20.2030 N   0  0  0  0  0  0  0  0  0  0  0  0
  -25.5820  -11.6680   20.4420 N   0  0  0  0  0  0  0  0  0  0  0  0
  -23.6490  -10.3550   21.0250 C   0  0  0  0  0  0  0  0  0  0  0  0
  -24.1590   -9.3920   21.9240 C   0  0  0  0  0  3  0  0  0  0  0  0
  -23.4930   -8.1610   22.1090 C   0  0  0  0  0  3  0  0  0  0  0  0
  -22.3050   -7.8840   21.3920 C   0  0  0  0  0  0  0  0  0  0  0  0
  -21.8130   -8.8370   20.4830 C   0  0  0  0  0  3  0  0  0  0  0  0
  -22.4800  -10.0590   20.2970 C   0  0  0  0  0  3  0  0  0  0  0  0
  -21.6040   -6.7050   21.4870 O   0  0  0  0  0  0  0  0  0  0  0  0
  -21.6180   -5.9510   22.6330 C   0  0  0  0  0  0  0  0  0  0  0  0
  -21.2110   -6.4800   23.8780 C   0  0  0  0  0  3  0  0  0  0  0  0
  -21.1730   -5.6500   25.0160 C   0  0  0  0  0  3  0  0  0  0  0  0
  -21.5330   -4.2920   24.9110 C   0  0  0  0  0  0  0  0  0  0  0  0
  -21.9340   -3.7630   23.6720 C   0  0  0  0  0  3  0  0  0  0  0  0
  -21.9730   -4.5910   22.5350 C   0  0  0  0  0  0  0  0  0  0  0  0
  -22.3390   -4.0720   21.3380 F   0  0  0  0  0  0  0  0  0  0  0  0
  -21.4900   -3.4920   26.0020 F   0  0  0  0  0  0  0  0  0  0  0  0
  -22.4100  -13.3950   21.2970 C   0  0  0  0  0  0  0  0  0  0  0  0
  -21.7690  -12.6580   22.1980 N   0  0  0  0  0  0  0  0  0  0  0  0
  -21.8950  -14.4080   20.8240 O   0  0  0  0  0  0  0  0  0  0  0  0
  -22.1970  -11.8390   22.6040 H   0  0  0  0  0  0  0  0  0  0  0  0
  -20.8390  -12.9200   22.4890 H   0  0  0  0  0  0  0  0  0  0  0  0
  -24.9230  -15.1870   20.3750 N   0  0  0  0  0  0  0  0  0  0  0  0
  -24.1420  -15.8080   20.5530 H   0  0  0  0  0  0  0  0  0  0  0  0
  -25.7540  -15.6770   20.0560 H   0  0  0  0  0  0  0  0  0  0  0  0
  -31.1150  -18.2080   22.8740 O   0  0  0  0  0  0  0  0  0  0  0  0
  -30.4830  -18.8150   22.5110 H   0  0  0  0  0  0  0  0  0  0  0  0
  -30.2270  -23.6160   19.1110 C   0  0  0  0  0  2  0  0  0  0  0  0
  -29.7990  -24.8170   19.9880 C   0  0  0  0  0  2  0  0  0  0  0  0
  -28.4480  -25.4650   19.6200 C   0  0  0  0  0  2  0  0  0  0  0  0
  -28.3860  -26.7880   20.1700 O   0  0  0  0  0  0  0  0  0  0  0  0
  -24.5260  -31.9120   23.2370 C   0  0  0  0  0  0  0  0  0  0  0  0
  -27.1880  -27.4750   20.1500 C   0  0  0  0  0  0  0  0  0  0  0  0
  -23.3210  -30.5000   21.6040 C   0  0  0  0  0  3  0  0  0  0  0  0
  -24.7760  -28.9650   20.1770 C   0  0  0  0  0  0  0  0  0  0  0  0
  -25.8440  -30.8680   21.3980 C   0  0  0  0  0  2  0  0  0  0  0  0
  -25.9320  -29.4960   20.7600 C   0  0  0  0  0  0  0  0  0  0  0  0
  -27.1360  -28.7570   20.7460 C   0  0  0  0  0  3  0  0  0  0  0  0
  -26.0080  -26.9570   19.5630 C   0  0  0  0  0  3  0  0  0  0  0  0
  -24.8080  -27.6940   19.5790 C   0  0  0  0  0  3  0  0  0  0  0  0
  -23.5280  -29.8160   20.2260 C   0  0  0  0  0  2  0  0  0  0  0  0
  -24.5820  -31.1100   22.1380 N   0  0  0  0  0  0  0  0  0  0  0  0
  -23.4460  -32.1800   23.7830 O   0  0  0  0  0  0  0  0  0  0  0  0
  -22.6800  -29.4770   22.5700 C   0  0  0  0  0  0  0  0  0  0  0  0
  -21.3580  -29.2840   22.4440 N   0  0  0  0  0  0  0  0  0  0  0  0
  -23.3690  -28.8610   23.3860 O   0  0  0  0  0  0  0  0  0  0  0  0
  -20.8630  -29.8320   21.7550 H   0  0  0  0  0  0  0  0  0  0  0  0
  -17.9930  -28.0630   22.9450 C   0  0  0  0  0  0  0  0  0  0  0  0
  -20.5490  -28.3430   23.2190 C   0  0  0  0  0  3  0  0  0  0  0  0
  -20.6630  -26.9100   22.6490 C   0  0  0  0  0  2  0  0  0  0  0  0
  -19.5650  -26.5740   21.6360 C   0  0  0  0  0  2  0  0  0  0  0  0
  -18.1820  -26.7100   22.2770 C   0  0  0  0  0  2  0  0  0  0  0  0
  -19.1050  -28.8360   23.3720 C   0  0  0  0  0  0  0  0  0  0  0  0
  -18.8750  -30.1010   23.9540 C   0  0  0  0  0  3  0  0  0  0  0  0
  -17.5670  -30.5930   24.1140 C   0  0  0  0  0  3  0  0  0  0  0  0
  -16.4690  -29.8180   23.7040 C   0  0  0  0  0  3  0  0  0  0  0  0
  -16.6830  -28.5540   23.1260 C   0  0  0  0  0  3  0  0  0  0  0  0
  -25.8110  -32.5520   23.8510 C   0  0  0  0  0  3  0  0  0  0  0  0
  -25.5010  -33.9520   24.1660 N   0  0  0  0  0  0  0  0  0  0  0  0
  -25.8350  -34.9970   23.3970 C   0  0  0  0  0  0  0  0  0  0  0  0
  -26.5080  -34.8840   22.3690 O   0  0  0  0  0  0  0  0  0  0  0  0
  -24.9060  -34.1140   24.9660 H   0  0  0  0  0  0  0  0  0  0  0  0
  -24.1060  -36.7820   23.0160 C   0  0  0  0  0  1  0  0  0  0  0  0
  -25.3430  -36.3880   23.8380 C   0  0  0  0  0  3  0  0  0  0  0  0
  -27.4740  -37.2820   24.6710 C   0  0  0  0  0  1  0  0  0  0  0  0
  -26.3760  -37.4410   23.7200 N   0  0  0  0  0  0  0  0  0  0  0  0
  -25.9690  -38.3630   23.8580 H   0  0  0  0  0  0  0  0  0  0  0  0
  -26.3350  -31.7930   25.1320 C   0  0  1  0  0  0  0  0  0  0  0  0
  -25.2440  -31.5630   26.2050 C   0  0  0  0  0  1  0  0  0  0  0  0
  -26.9200  -30.4140   24.7490 C   0  0  0  0  0  1  0  0  0  0  0  0
  -27.4850  -32.5960   25.7820 C   0  0  0  0  0  1  0  0  0  0  0  0
  1  3  2  0
  2  1  1  0
  4  2  1  0
  5  1  1  0
  5  7  1  0
  6 10  1  0
  7  6  1  0
  7  9  1  0
  8  6  2  0
 10 11  1  0
 11 51  1  0
 11 12  1  0
 13 21  1  0
 14 19  1  0
 15 16  1  0
 15 14  1  0
 17 16  1  0
 17 26  1  0
 17 18  1  0
 19 13  1  0
 19 18  1  0
 20 13  2  0
 21 10  2  3
 21 22  1  0
 23 24  2  0
 24 43  1  0
 25 24  1  0
 25 28  1  0
 26 27  1  0
 26 23  1  0
 27 25  2  0
 28 29  1  0
 29 30  2  0
 31 34  1  0
 31 30  1  0
 32 31  2  0
 33 32  1  0
 33 28  2  0
 34 35  1  0
 35 36  1  0
 36 37  2  0
 38 37  1  0
 38 42  1  0
 39 38  2  0
 40 35  2  0
 40 39  1  0
 41 40  1  0
 43 44  1  0
 44 47  1  0
 44 46  1  0
 45 43  2  0
 48 23  1  0
 48 49  1  0
 50 48  1  0
 52 51  1  0
 53  2  1  0
 53 54  1  0
 55 54  1  0
 55 56  1  0
 57 68  2  0
 58 56  1  0
 58 63  1  0
 59 67  1  0
 59 69  1  0
 60 66  1  0
 60 62  1  0
 61 67  1  0
 62 61  1  0
 63 62  2  0
 64 65  1  0
 64 58  2  0
 65 60  2  0
 66 59  1  0
 67 57  1  0
 69 71  2  0
 70 69  1  0
 72 70  1  0
 73 82  2  0
 73 78  1  0
 74 70  1  0
 74 78  1  0
 75 74  1  0
 76 77  1  0
 76 75  1  0
 77 73  1  0
 78 79  2  0
 79 80  1  0
 81 80  2  0
 82 81  1  0
 83 57  1  0
 83 84  1  0
 83 93  1  0
 84 87  1  0
 85 89  1  0
 85 84  1  0
 86 85  2  0
 89 88  1  0
 91 89  1  0
 91 92  1  0
 91 90  1  0
 93 96  1  1
 93 94  1  0
 95 93  1  0
M  ISO  4  13 100  21 100  55 101  56 101
M  END
>  <TORSDO>  (25) 
F 23

>  <SCORE>  (25) 
-10.833

>  <name>  (25) 
24

>  <ligand_id>  (25) 
24

>  <original_smiles>  (25) 
[H]OC(=C(C(=O)N([H])C([H])([H])C(=O)N([H])C([H])([H])C([H])([H])C([H])([H])Oc1c([H])c([H])c2c(c1[H])C([H])([H])N(C(=O)C([H])(N([H])C(=O)C([H])(N([H])C([H])([H])[H])C([H])([H])[H])C(C([H])([H])[H])(C([H])([H])[H])C([H])([H])[H])C([H])(C(=O)N([H])C1([H])c3c([H])c([H])c([H])c([H])c3C([H])([H])C([H])([H])C1([H])[H])C2([H])[H])N([H])C(=O)N1C([H])([H])C([H])([H])C([H])([H])C([H])(n2nc(-c3c([H])c([H])c(Oc4c([H])c([H])c(F)c([H])c4F)c([H])c3[H])c(C(=O)N([H])[H])c2N([H])[H])C1([H])[H])C([H])([H])[H]

>  <smiles>  (25) 
[H]OC(=C(C(=O)N([H])C([H])([H])C(=O)N([H])C([H])([H])C([H])([H])C([H])([H])Oc1c([H])c([H])c2c(c1[H])C([H])([H])N(C(=O)C([H])(N([H])C(=O)C([H])(N([H])C([H])([H])[H])C([H])([H])[H])C(C([H])([H])[H])(C([H])([H])[H])C([H])([H])[H])C([H])(C(=O)N([H])C1([H])c3c([H])c([H])c([H])c([H])c3C([H])([H])C([H])([H])C1([H])[H])C2([H])[H])N([H])C(=O)N1C([H])([H])C([H])([H])C([H])([H])C([H])(n2nc(-c3c([H])c([H])c(Oc4c([H])c([H])c(F)c([H])c4F)c([H])c3[H])c(C(=O)N([H])[H])c2N([H])[H])C1([H])[H])C([H])([H])[H]

$$$$
25:0:0
     RDKit          3D

100107  0  0  1  0  0  0  0  0999 V2000
  -27.7140  -20.4480   19.5070 C   0  0  0  0  0  2  0  0  0  0  0  0
  -28.6170  -19.4340   18.8860 N   0  0  1  0  0  4  0  0  0  0  0  0
  -28.3300  -18.5180   19.2100 H   0  0  0  0  0  0  0  0  0  0  0  0
  -28.6830  -20.7130   16.6850 C   0  0  0  0  0  1  0  0  0  0  0  0
  -27.1970  -18.6680   16.9480 C   0  0  0  0  0  1  0  0  0  0  0  0
  -28.5030  -19.3540   17.3920 C   0  0  0  0  0  3  0  0  0  0  0  0
  -30.0260  -19.4830   19.3560 C   0  0  0  0  0  2  0  0  0  0  0  0
  -30.6020  -18.0720   19.4370 C   0  0  0  0  0  0  0  0  0  0  0  0
  -31.6940  -17.9020   20.1920 N   0  0  0  0  0  0  0  0  0  0  0  0
  -30.0570  -17.1550   18.8220 O   0  0  0  0  0  0  0  0  0  0  0  0
  -32.0510  -18.7050   20.6910 H   0  0  0  0  0  0  0  0  0  0  0  0
  -32.4700  -16.6730   20.3070 C   0  0  0  0  0  2  0  0  0  0  0  0
  -31.8640  -15.6750   21.3200 C   0  0  0  0  0  2  0  0  0  0  0  0
  -31.0080  -13.9320   19.7260 C   0  0  0  0  0  0  0  0  0  0  0  0
  -30.5100  -11.6740   18.8810 C   0  0  0  0  0  2  0  0  0  0  0  0
  -29.4920  -11.6590   17.7320 C   0  0  0  0  0  2  0  0  0  0  0  0
  -28.0590  -11.5940   18.2900 C   0  0  0  0  0  2  0  0  0  0  0  0
  -27.7980  -12.6720   19.3720 C   0  0  0  0  0  3  0  0  0  0  0  0
  -28.9220  -12.6910   20.4320 C   0  0  0  0  0  2  0  0  0  0  0  0
  -30.2230  -12.8280   19.7470 N   0  0  0  0  0  0  0  0  0  0  0  0
  -31.9120  -14.0950   18.9020 O   0  0  0  0  0  0  0  0  0  0  0  0
  -30.8700  -14.7380   20.7880 N   0  0  0  0  0  0  0  0  0  0  0  0
  -30.1040  -14.5090   21.4050 H   0  0  0  0  0  0  0  0  0  0  0  0
  -25.5410  -13.4490   20.3410 C   0  0  0  0  0  0  0  0  0  0  0  0
  -24.4570  -12.7550   20.8100 C   0  0  0  0  0  0  0  0  0  0  0  0
  -24.8020  -11.3720   20.7090 C   0  0  0  0  0  0  0  0  0  0  0  0
  -26.4830  -12.4950   19.9870 N   0  0  0  0  0  0  0  0  0  0  0  0
  -26.0440  -11.2390   20.2620 N   0  0  0  0  0  0  0  0  0  0  0  0
  -23.9990  -10.1660   20.9560 C   0  0  0  0  0  0  0  0  0  0  0  0
  -24.4060   -9.1870   21.8880 C   0  0  0  0  0  3  0  0  0  0  0  0
  -23.6070   -8.0450   22.1220 C   0  0  0  0  0  3  0  0  0  0  0  0
  -22.3880   -7.8760   21.4230 C   0  0  0  0  0  0  0  0  0  0  0  0
  -21.9990   -8.8450   20.4800 C   0  0  0  0  0  3  0  0  0  0  0  0
  -22.7970   -9.9760   20.2450 C   0  0  0  0  0  3  0  0  0  0  0  0
  -21.5620   -6.7880   21.5650 O   0  0  0  0  0  0  0  0  0  0  0  0
  -21.4820   -6.0950   22.7480 C   0  0  0  0  0  0  0  0  0  0  0  0
  -21.0870   -6.7180   23.9500 C   0  0  0  0  0  3  0  0  0  0  0  0
  -20.9520   -5.9530   25.1280 C   0  0  0  0  0  3  0  0  0  0  0  0
  -21.2010   -4.5690   25.1000 C   0  0  0  0  0  0  0  0  0  0  0  0
  -21.5880   -3.9450   23.9020 C   0  0  0  0  0  3  0  0  0  0  0  0
  -21.7260   -4.7070   22.7270 C   0  0  0  0  0  0  0  0  0  0  0  0
  -22.0800   -4.0980   21.5700 F   0  0  0  0  0  0  0  0  0  0  0  0
  -21.0640   -3.8320   26.2280 F   0  0  0  0  0  0  0  0  0  0  0  0
  -23.1390  -13.3350   21.2380 C   0  0  0  0  0  0  0  0  0  0  0  0
  -22.4580  -12.6830   22.1750 N   0  0  0  0  0  0  0  0  0  0  0  0
  -22.7280  -14.3960   20.7750 O   0  0  0  0  0  0  0  0  0  0  0  0
  -22.8030  -11.8210   22.5700 H   0  0  0  0  0  0  0  0  0  0  0  0
  -21.5780  -13.0540   22.5040 H   0  0  0  0  0  0  0  0  0  0  0  0
  -25.7970  -14.8060   20.1650 N   0  0  0  0  0  0  0  0  0  0  0  0
  -25.0970  -15.5170   20.3440 H   0  0  0  0  0  0  0  0  0  0  0  0
  -26.6420  -15.1720   19.7460 H   0  0  0  0  0  0  0  0  0  0  0  0
  -27.8470  -20.6420   21.0440 C   0  0  0  0  0  2  0  0  0  0  0  0
  -28.5160  -21.9590   21.5010 C   0  0  0  0  0  2  0  0  0  0  0  0
  -28.0600  -23.0200   20.6680 O   0  0  0  0  0  0  0  0  0  0  0  0
  -28.6890  -24.2700   20.9190 C   0  0  0  0  0  2  0  0  0  0  0  0
  -27.9600  -25.3630   20.1180 C   0  0  0  0  0  2  0  0  0  0  0  0
  -28.3120  -25.3430   18.7290 O   0  0  0  0  0  0  0  0  0  0  0  0
  -27.4120  -26.1290   17.9470 C   0  0  0  0  0  2  0  0  0  0  0  0
  -28.0270  -26.7820   16.6840 C   0  0  0  0  0  2  0  0  0  0  0  0
  -27.0810  -27.5980   15.9760 O   0  0  0  0  0  0  0  0  0  0  0  0
  -25.1090  -29.7790   22.4670 C   0  0  0  0  0  0  0  0  0  0  0  0
  -26.1320  -28.2040   16.7650 C   0  0  0  0  0  0  0  0  0  0  0  0
  -23.3240  -29.7020   20.7560 C   0  0  0  0  0  3  0  0  0  0  0  0
  -24.1140  -29.3700   18.3540 C   0  0  0  0  0  0  0  0  0  0  0  0
  -25.7610  -30.1020   20.0850 C   0  0  0  0  0  2  0  0  0  0  0  0
  -25.4510  -29.4170   18.7730 C   0  0  0  0  0  0  0  0  0  0  0  0
  -26.4680  -28.8300   17.9830 C   0  0  0  0  0  3  0  0  0  0  0  0
  -24.7850  -28.1710   16.3470 C   0  0  0  0  0  3  0  0  0  0  0  0
  -23.7730  -28.7350   17.1460 C   0  0  0  0  0  3  0  0  0  0  0  0
  -23.0870  -30.0190   19.2560 C   0  0  0  0  0  2  0  0  0  0  0  0
  -24.7640  -29.8410   21.1490 N   0  0  0  0  0  0  0  0  0  0  0  0
  -24.2510  -29.6510   23.3500 O   0  0  0  0  0  0  0  0  0  0  0  0
  -22.7330  -28.3070   21.0630 C   0  0  0  0  0  0  0  0  0  0  0  0
  -21.3930  -28.2010   21.0260 N   0  0  0  0  0  0  0  0  0  0  0  0
  -23.4700  -27.3450   21.2950 O   0  0  0  0  0  0  0  0  0  0  0  0
  -20.8550  -29.0340   20.8250 H   0  0  0  0  0  0  0  0  0  0  0  0
  -18.0630  -26.8050   20.8800 C   0  0  0  0  0  0  0  0  0  0  0  0
  -20.6180  -26.9820   21.2450 C   0  0  0  0  0  3  0  0  0  0  0  0
  -20.7540  -26.0140   20.0480 C   0  0  0  0  0  2  0  0  0  0  0  0
  -19.6480  -26.1870   19.0030 C   0  0  0  0  0  2  0  0  0  0  0  0
  -18.2710  -25.9570   19.6370 C   0  0  0  0  0  2  0  0  0  0  0  0
  -19.1680  -27.2990   21.6260 C   0  0  0  0  0  0  0  0  0  0  0  0
  -18.9230  -28.1090   22.7560 C   0  0  0  0  0  3  0  0  0  0  0  0
  -17.6080  -28.4270   23.1440 C   0  0  0  0  0  3  0  0  0  0  0  0
  -16.5170  -27.9190   22.4160 C   0  0  0  0  0  3  0  0  0  0  0  0
  -16.7470  -27.1080   21.2910 C   0  0  0  0  0  3  0  0  0  0  0  0
  -26.5960  -29.8910   22.9270 C   0  0  0  0  0  3  0  0  0  0  0  0
  -26.6240  -30.7370   24.1270 N   0  0  0  0  0  0  0  0  0  0  0  0
  -27.0670  -32.0010   24.1530 C   0  0  0  0  0  0  0  0  0  0  0  0
  -27.5650  -32.5580   23.1710 O   0  0  0  0  0  0  0  0  0  0  0  0
  -26.1840  -30.3630   24.9540 H   0  0  0  0  0  0  0  0  0  0  0  0
  -25.7640  -33.7570   25.3910 C   0  0  0  0  0  1  0  0  0  0  0  0
  -26.9380  -32.7690   25.4800 C   0  0  0  0  0  3  0  0  0  0  0  0
  -29.2700  -32.6070   26.2330 C   0  0  0  0  0  1  0  0  0  0  0  0
  -28.1690  -33.4950   25.8650 N   0  0  0  0  0  0  0  0  0  0  0  0
  -27.9880  -34.1160   26.6500 H   0  0  0  0  0  0  0  0  0  0  0  0
  -27.2630  -28.4900   23.2150 C   0  0  1  0  0  0  0  0  0  0  0  0
  -26.4410  -27.5930   24.1670 C   0  0  0  0  0  1  0  0  0  0  0  0
  -27.4780  -27.7080   21.8980 C   0  0  0  0  0  1  0  0  0  0  0  0
  -28.6650  -28.6960   23.8370 C   0  0  0  0  0  1  0  0  0  0  0  0
  1 52  1  0
  2  3  1  1
  2  7  1  0
  2  1  1  0
  4  6  1  0
  5  6  1  0
  6  2  1  0
  7  8  1  0
  8  9  1  0
  9 12  1  0
  9 11  1  0
 10  8  2  0
 12 13  1  0
 14 20  1  0
 14 22  1  0
 15 20  1  0
 16 17  1  0
 16 15  1  0
 18 17  1  0
 18 27  1  0
 18 19  1  0
 20 19  1  0
 21 14  2  0
 22 13  1  0
 22 23  1  0
 24 25  2  0
 25 44  1  0
 26 25  1  0
 26 29  1  0
 27 28  1  0
 27 24  1  0
 28 26  2  0
 29 30  1  0
 30 31  2  0
 32 35  1  0
 32 31  1  0
 33 32  2  0
 34 33  1  0
 34 29  2  0
 35 36  1  0
 36 37  1  0
 37 38  2  0
 39 38  1  0
 39 43  1  0
 40 39  2  0
 41 36  2  0
 41 40  1  0
 42 41  1  0
 44 45  1  0
 45 48  1  0
 45 47  1  0
 46 44  2  0
 49 24  1  0
 49 50  1  0
 51 49  1  0
 52 53  1  0
 54 55  1  0
 54 53  1  0
 56 55  1  0
 57 56  1  0
 58 57  1  0
 59 58  1  0
 60 59  1  0
 60 62  1  0
 61 72  2  0
 62 67  1  0
 63 73  1  0
 63 71  1  0
 64 66  1  0
 64 70  1  0
 65 71  1  0
 66 65  1  0
 67 66  2  0
 68 62  2  0
 68 69  1  0
 69 64  2  0
 70 63  1  0
 71 61  1  0
 73 75  2  0
 74 73  1  0
 76 74  1  0
 77 86  2  0
 77 82  1  0
 78 74  1  0
 78 82  1  0
 79 78  1  0
 80 81  1  0
 80 79  1  0
 81 77  1  0
 82 83  2  0
 83 84  1  0
 85 84  2  0
 86 85  1  0
 87 61  1  0
 87 97  1  0
 87 88  1  0
 88 89  1  0
 88 91  1  0
 89 93  1  0
 90 89  2  0
 93 92  1  0
 93 95  1  0
 95 94  1  0
 95 96  1  0
 97100  1  1
 97 98  1  0
 99 97  1  0
M  ISO  4  14 100  22 100  59 101  60 101
M  END
>  <TORSDO>  (26) 
F 30

>  <SCORE>  (26) 
-6.289

>  <name>  (26) 
25

>  <ligand_id>  (26) 
25

>  <original_smiles>  (26) 
[H]c1c([H])c([H])c2c(c1[H])C([H])([H])C([H])([H])C([H])([H])C2([H])N([H])C(=O)C1([H])N(C(=O)C([H])(N([H])C(=O)C([H])(N([H])C([H])([H])[H])C([H])([H])[H])C(C([H])([H])[H])(C([H])([H])[H])C([H])([H])[H])C([H])([H])c2c([H])c(OC([H])([H])C([H])([H])OC([H])([H])C([H])([H])OC([H])([H])C([H])([H])C([H])([H])[N+]([H])(C([H])([H])C(=O)N([H])C([H])([H])C([H])([H])N([H])C(=O)N3C([H])([H])C([H])([H])C([H])([H])C([H])(n4nc(-c5c([H])c([H])c(Oc6c([H])c([H])c(F)c([H])c6F)c([H])c5[H])c(C(=O)N([H])[H])c4N([H])[H])C3([H])[H])C([H])(C([H])([H])[H])C([H])([H])[H])c([H])c([H])c2C1([H])[H]

>  <smiles>  (26) 
[H]c1c([H])c([H])c2c(c1[H])C([H])([H])C([H])([H])C([H])([H])C2([H])N([H])C(=O)C1([H])N(C(=O)C([H])(N([H])C(=O)C([H])(N([H])C([H])([H])[H])C([H])([H])[H])C(C([H])([H])[H])(C([H])([H])[H])C([H])([H])[H])C([H])([H])c2c([H])c(OC([H])([H])C([H])([H])OC([H])([H])C([H])([H])OC([H])([H])C([H])([H])C([H])([H])[N+]([H])(C([H])([H])C(=O)N([H])C([H])([H])C([H])([H])N([H])C(=O)N3C([H])([H])C([H])([H])C([H])([H])C([H])(n4nc(-c5c([H])c([H])c(Oc6c([H])c([H])c(F)c([H])c6F)c([H])c5[H])c(C(=O)N([H])[H])c4N([H])[H])C3([H])[H])C([H])(C([H])([H])[H])C([H])([H])[H])c([H])c([H])c2C1([H])[H]

$$$$
26:0:0
     RDKit          3D

 94101  0  0  1  0  0  0  0  0999 V2000
  -28.2330  -21.6060   19.3910 C   0  0  0  0  0  2  0  0  0  0  0  0
  -27.2510  -20.4290   19.2140 C   0  0  0  0  0  2  0  0  0  0  0  0
  -27.8720  -19.0160   19.3020 C   0  0  0  0  0  2  0  0  0  0  0  0
  -28.7950  -18.7660   20.5000 C   0  0  0  0  0  0  0  0  0  0  0  0
  -29.6610  -17.7540   20.3810 N   0  0  0  0  0  0  0  0  0  0  0  0
  -28.7270  -19.4690   21.5110 O   0  0  0  0  0  0  0  0  0  0  0  0
  -29.6480  -17.2150   19.5260 H   0  0  0  0  0  0  0  0  0  0  0  0
  -30.6610  -17.3860   21.3780 C   0  0  0  0  0  2  0  0  0  0  0  0
  -31.6510  -16.3730   20.7920 C   0  0  0  0  0  2  0  0  0  0  0  0
  -31.4620  -14.0810   19.8550 C   0  0  0  0  0  0  0  0  0  0  0  0
  -30.9550  -11.8630   18.9060 C   0  0  0  0  0  2  0  0  0  0  0  0
  -29.9850  -11.9990   17.7180 C   0  0  0  0  0  2  0  0  0  0  0  0
  -28.5240  -12.0030   18.2090 C   0  0  0  0  0  2  0  0  0  0  0  0
  -28.2860  -13.0000   19.3740 C   0  0  0  0  0  3  0  0  0  0  0  0
  -29.3610  -12.8310   20.4710 C   0  0  0  0  0  2  0  0  0  0  0  0
  -30.6880  -12.9660   19.8400 N   0  0  0  0  0  0  0  0  0  0  0  0
  -32.4920  -14.2060   19.1850 O   0  0  0  0  0  0  0  0  0  0  0  0
  -31.0190  -15.0670   20.6400 N   0  0  0  0  0  0  0  0  0  0  0  0
  -30.1780  -14.8910   21.1710 H   0  0  0  0  0  0  0  0  0  0  0  0
  -25.9960  -13.8430   20.1980 C   0  0  0  0  0  0  0  0  0  0  0  0
  -24.8770  -13.1810   20.6230 C   0  0  0  0  0  0  0  0  0  0  0  0
  -25.1980  -11.7910   20.5730 C   0  0  0  0  0  0  0  0  0  0  0  0
  -26.9370  -12.8620   19.9190 N   0  0  0  0  0  0  0  0  0  0  0  0
  -26.4600  -11.6220   20.1990 N   0  0  0  0  0  0  0  0  0  0  0  0
  -24.3590  -10.6090   20.8070 C   0  0  0  0  0  0  0  0  0  0  0  0
  -24.7130   -9.6340   21.7650 C   0  0  0  0  0  3  0  0  0  0  0  0
  -23.8830   -8.5120   21.9840 C   0  0  0  0  0  3  0  0  0  0  0  0
  -22.6840   -8.3630   21.2490 C   0  0  0  0  0  0  0  0  0  0  0  0
  -22.3480   -9.3250   20.2810 C   0  0  0  0  0  3  0  0  0  0  0  0
  -23.1760  -10.4380   20.0600 C   0  0  0  0  0  3  0  0  0  0  0  0
  -21.8260   -7.2960   21.3800 O   0  0  0  0  0  0  0  0  0  0  0  0
  -21.6980   -6.6170   22.5650 C   0  0  0  0  0  0  0  0  0  0  0  0
  -21.3060   -7.2610   23.7570 C   0  0  0  0  0  3  0  0  0  0  0  0
  -21.1220   -6.5100   24.9370 C   0  0  0  0  0  3  0  0  0  0  0  0
  -21.3150   -5.1150   24.9210 C   0  0  0  0  0  0  0  0  0  0  0  0
  -21.6990   -4.4700   23.7310 C   0  0  0  0  0  3  0  0  0  0  0  0
  -21.8880   -5.2200   22.5570 C   0  0  0  0  0  0  0  0  0  0  0  0
  -22.2380   -4.5900   21.4090 F   0  0  0  0  0  0  0  0  0  0  0  0
  -21.1310   -4.3940   26.0510 F   0  0  0  0  0  0  0  0  0  0  0  0
  -23.5500  -13.7960   20.9660 C   0  0  0  0  0  0  0  0  0  0  0  0
  -22.8090  -13.1940   21.8900 N   0  0  0  0  0  0  0  0  0  0  0  0
  -23.1840  -14.8500   20.4450 O   0  0  0  0  0  0  0  0  0  0  0  0
  -23.1160  -12.3460   22.3420 H   0  0  0  0  0  0  0  0  0  0  0  0
  -21.9180  -13.5920   22.1560 H   0  0  0  0  0  0  0  0  0  0  0  0
  -26.2850  -15.1910   20.0130 N   0  0  0  0  0  0  0  0  0  0  0  0
  -25.5870  -15.9060   20.1800 H   0  0  0  0  0  0  0  0  0  0  0  0
  -27.1760  -15.5620   19.7070 H   0  0  0  0  0  0  0  0  0  0  0  0
  -27.6830  -22.9060   18.7740 C   0  0  0  0  0  2  0  0  0  0  0  0
  -28.5300  -24.0830   19.0620 N   0  0  0  0  0  4  0  0  0  0  0  0
  -29.5030  -23.8170   19.0440 H   0  0  0  0  0  0  0  0  0  0  0  0
  -28.3170  -24.4040   19.9940 H   0  0  0  0  0  0  0  0  0  0  0  0
  -28.3280  -25.2130   18.1260 C   0  0  0  0  0  2  0  0  0  0  0  0
  -28.7720  -26.5540   18.7420 C   0  0  0  0  0  2  0  0  0  0  0  0
  -28.2060  -26.7780   20.0380 O   0  0  0  0  0  0  0  0  0  0  0  0
  -24.6530  -31.9090   23.4550 C   0  0  0  0  0  0  0  0  0  0  0  0
  -27.0630  -27.5400   20.0940 C   0  0  0  0  0  0  0  0  0  0  0  0
  -23.3600  -30.6380   21.7720 C   0  0  0  0  0  3  0  0  0  0  0  0
  -24.7230  -29.1150   20.2500 C   0  0  0  0  0  0  0  0  0  0  0  0
  -25.8900  -30.9110   21.5340 C   0  0  0  0  0  2  0  0  0  0  0  0
  -25.9100  -29.5660   20.8380 C   0  0  0  0  0  0  0  0  0  0  0  0
  -27.0800  -28.7800   20.7710 C   0  0  0  0  0  3  0  0  0  0  0  0
  -25.8500  -27.0850   19.5330 C   0  0  0  0  0  3  0  0  0  0  0  0
  -24.6850  -27.8700   19.6030 C   0  0  0  0  0  3  0  0  0  0  0  0
  -23.5150  -30.0170   20.3600 C   0  0  0  0  0  2  0  0  0  0  0  0
  -24.6560  -31.1640   22.3140 N   0  0  0  0  0  0  0  0  0  0  0  0
  -23.5950  -32.1990   24.0290 O   0  0  0  0  0  0  0  0  0  0  0  0
  -22.6860  -29.5980   22.6950 C   0  0  0  0  0  0  0  0  0  0  0  0
  -21.3580  -29.4450   22.5530 N   0  0  0  0  0  0  0  0  0  0  0  0
  -23.3510  -28.9330   23.4920 O   0  0  0  0  0  0  0  0  0  0  0  0
  -20.8860  -30.0340   21.8810 H   0  0  0  0  0  0  0  0  0  0  0  0
  -17.9660  -28.2700   22.9450 C   0  0  0  0  0  0  0  0  0  0  0  0
  -20.5180  -28.4990   23.2850 C   0  0  0  0  0  3  0  0  0  0  0  0
  -20.6230  -27.0790   22.6810 C   0  0  0  0  0  2  0  0  0  0  0  0
  -19.5430  -26.7870   21.6360 C   0  0  0  0  0  2  0  0  0  0  0  0
  -18.1480  -26.9320   22.2490 C   0  0  0  0  0  2  0  0  0  0  0  0
  -19.0800  -29.0140   23.4170 C   0  0  0  0  0  0  0  0  0  0  0  0
  -18.8570  -30.2690   24.0240 C   0  0  0  0  0  3  0  0  0  0  0  0
  -17.5530  -30.7780   24.1680 C   0  0  0  0  0  3  0  0  0  0  0  0
  -16.4530  -30.0300   23.7130 C   0  0  0  0  0  3  0  0  0  0  0  0
  -16.6600  -28.7780   23.1070 C   0  0  0  0  0  3  0  0  0  0  0  0
  -25.9750  -32.4540   24.0810 C   0  0  0  0  0  3  0  0  0  0  0  0
  -26.4800  -31.6000   25.3070 C   0  0  1  0  0  0  0  0  0  0  0  0
  -25.3960  -31.3530   26.3810 C   0  0  0  0  0  1  0  0  0  0  0  0
  -26.9970  -30.2240   24.8290 C   0  0  0  0  0  1  0  0  0  0  0  0
  -27.6770  -32.3100   25.9850 C   0  0  0  0  0  1  0  0  0  0  0  0
  -25.7370  -33.8480   24.4780 N   0  0  0  0  0  0  0  0  0  0  0  0
  -26.1140  -34.9160   23.7630 C   0  0  0  0  0  0  0  0  0  0  0  0
  -26.7730  -34.8290   22.7240 O   0  0  0  0  0  0  0  0  0  0  0  0
  -25.1610  -33.9940   25.2950 H   0  0  0  0  0  0  0  0  0  0  0  0
  -24.4700  -36.8010   23.4960 C   0  0  0  0  0  1  0  0  0  0  0  0
  -25.6910  -36.3030   24.2840 C   0  0  0  0  0  3  0  0  0  0  0  0
  -27.8670  -37.0460   25.1470 C   0  0  0  0  0  1  0  0  0  0  0  0
  -26.7730  -37.3110   24.2170 N   0  0  0  0  0  0  0  0  0  0  0  0
  -26.4100  -38.2400   24.4130 H   0  0  0  0  0  0  0  0  0  0  0  0
  2  3  1  0
  2  1  1  0
  3  4  1  0
  4  6  2  0
  5  4  1  0
  5  8  1  0
  7  5  1  0
  9  8  1  0
 10 18  1  0
 11 16  1  0
 12 13  1  0
 12 11  1  0
 14 13  1  0
 14 23  1  0
 14 15  1  0
 16 10  1  0
 16 15  1  0
 17 10  2  0
 18  9  1  0
 18 19  1  0
 20 21  2  0
 21 40  1  0
 22 21  1  0
 22 25  1  0
 23 20  1  0
 23 24  1  0
 24 22  2  0
 25 26  1  0
 26 27  2  0
 28 31  1  0
 28 27  1  0
 29 28  2  0
 30 29  1  0
 30 25  2  0
 31 32  1  0
 32 33  1  0
 33 34  2  0
 35 34  1  0
 35 39  1  0
 36 35  2  0
 37 32  2  0
 37 36  1  0
 38 37  1  0
 40 41  1  0
 41 44  1  0
 41 43  1  0
 42 40  2  0
 45 46  1  0
 45 20  1  0
 47 45  1  0
 48 49  1  0
 48  1  1  0
 49 51  1  0
 50 49  1  0
 52 53  1  0
 52 49  1  0
 53 54  1  0
 54 56  1  0
 55 66  2  0
 56 61  1  0
 57 65  1  0
 57 67  1  0
 58 64  1  0
 58 60  1  0
 59 65  1  0
 60 59  1  0
 61 60  2  0
 62 63  1  0
 62 56  2  0
 63 58  2  0
 64 57  1  0
 65 55  1  0
 67 69  2  0
 68 67  1  0
 70 68  1  0
 71 80  2  0
 71 76  1  0
 72 68  1  0
 72 76  1  0
 73 72  1  0
 74 75  1  0
 74 73  1  0
 75 71  1  0
 76 77  2  0
 77 78  1  0
 79 78  2  0
 80 79  1  0
 81 55  1  0
 81 86  1  0
 81 82  1  0
 82 85  1  1
 82 83  1  0
 84 82  1  0
 86 89  1  0
 87 91  1  0
 87 86  1  0
 88 87  2  0
 91 90  1  0
 93 91  1  0
 93 94  1  0
 93 92  1  0
M  ISO  4  10 100  18 100  53 101  54 101
M  END
>  <TORSDO>  (27) 
F 25

>  <SCORE>  (27) 
-10.931

>  <name>  (27) 
26

>  <ligand_id>  (27) 
26

>  <original_smiles>  (27) 
[H]c1c([H])c([H])c2c(c1[H])C([H])([H])C([H])([H])C([H])([H])C2([H])N([H])C(=O)C1([H])N(C(=O)C([H])(N([H])C(=O)C([H])(N([H])C([H])([H])[H])C([H])([H])[H])C(C([H])([H])[H])(C([H])([H])[H])C([H])([H])[H])C([H])([H])c2c([H])c(OC([H])([H])C([H])([H])[N+]([H])([H])C([H])([H])C([H])([H])C([H])([H])C([H])([H])C(=O)N([H])C([H])([H])C([H])([H])N([H])C(=O)N3C([H])([H])C([H])([H])C([H])([H])C([H])(n4nc(-c5c([H])c([H])c(Oc6c([H])c([H])c(F)c([H])c6F)c([H])c5[H])c(C(=O)N([H])[H])c4N([H])[H])C3([H])[H])c([H])c([H])c2C1([H])[H]

>  <smiles>  (27) 
[H]c1c([H])c([H])c2c(c1[H])C([H])([H])C([H])([H])C([H])([H])C2([H])N([H])C(=O)C1([H])N(C(=O)C([H])(N([H])C(=O)C([H])(N([H])C([H])([H])[H])C([H])([H])[H])C(C([H])([H])[H])(C([H])([H])[H])C([H])([H])[H])C([H])([H])c2c([H])c(OC([H])([H])C([H])([H])[N+]([H])([H])C([H])([H])C([H])([H])C([H])([H])C([H])([H])C(=O)N([H])C([H])([H])C([H])([H])N([H])C(=O)N3C([H])([H])C([H])([H])C([H])([H])C([H])(n4nc(-c5c([H])c([H])c(Oc6c([H])c([H])c(F)c([H])c6F)c([H])c5[H])c(C(=O)N([H])[H])c4N([H])[H])C3([H])[H])c([H])c([H])c2C1([H])[H]

$$$$
27:0:0
     RDKit          3D

 98103  0  0  1  0  0  0  0  0999 V2000
  -25.8040  -18.4110   18.6310 C   0  0  0  0  0  0  0  0  0  0  0  0
  -25.8070  -19.6480   19.2190 N   0  0  0  0  0  0  0  0  0  0  0  0
  -26.7780  -18.0090   17.9990 O   0  0  0  0  0  0  0  0  0  0  0  0
  -25.0240  -19.7890   19.8410 H   0  0  0  0  0  0  0  0  0  0  0  0
  -26.3470  -20.9540   18.6930 C   0  0  0  0  0  2  0  0  0  0  0  0
  -27.5830  -21.7290   19.3240 C   0  0  0  0  0  2  0  0  0  0  0  0
  -27.3340  -23.1680   19.5280 O   0  0  0  0  0  0  0  0  0  0  0  0
  -28.4270  -24.1500   19.4620 C   0  0  0  0  0  2  0  0  0  0  0  0
  -28.5200  -25.2340   20.6270 C   0  0  0  0  0  2  0  0  0  0  0  0
  -28.6220  -26.6890   20.3950 O   0  0  0  0  0  0  0  0  0  0  0  0
  -24.5860  -31.9880   23.2660 C   0  0  0  0  0  0  0  0  0  0  0  0
  -27.4660  -27.4600   20.3940 C   0  0  0  0  0  0  0  0  0  0  0  0
  -23.4970  -30.4860   21.6410 C   0  0  0  0  0  3  0  0  0  0  0  0
  -25.0430  -28.9480   20.3210 C   0  0  0  0  0  0  0  0  0  0  0  0
  -26.0260  -30.8960   21.5340 C   0  0  0  0  0  2  0  0  0  0  0  0
  -26.1740  -29.5050   20.9330 C   0  0  0  0  0  0  0  0  0  0  0  0
  -27.3930  -28.7720   20.9570 C   0  0  0  0  0  3  0  0  0  0  0  0
  -26.3110  -26.9440   19.7760 C   0  0  0  0  0  3  0  0  0  0  0  0
  -25.1130  -27.6730   19.7390 C   0  0  0  0  0  3  0  0  0  0  0  0
  -23.7750  -29.7690   20.2990 C   0  0  0  0  0  2  0  0  0  0  0  0
  -24.7210  -31.1460   22.2020 N   0  0  0  0  0  0  0  0  0  0  0  0
  -23.4740  -32.2430   23.7510 O   0  0  0  0  0  0  0  0  0  0  0  0
  -22.8390  -29.4800   22.6140 C   0  0  0  0  0  0  0  0  0  0  0  0
  -21.5170  -29.2780   22.4700 N   0  0  0  0  0  0  0  0  0  0  0  0
  -23.5160  -28.8840   23.4550 O   0  0  0  0  0  0  0  0  0  0  0  0
  -21.0330  -29.8080   21.7570 H   0  0  0  0  0  0  0  0  0  0  0  0
  -18.1490  -28.0690   22.9570 C   0  0  0  0  0  0  0  0  0  0  0  0
  -20.7020  -28.3460   23.2440 C   0  0  0  0  0  3  0  0  0  0  0  0
  -20.8180  -26.9110   22.6810 C   0  0  0  0  0  2  0  0  0  0  0  0
  -19.7220  -26.5720   21.6650 C   0  0  0  0  0  2  0  0  0  0  0  0
  -18.3360  -26.7150   22.2980 C   0  0  0  0  0  2  0  0  0  0  0  0
  -19.2580  -28.8430   23.3860 C   0  0  0  0  0  0  0  0  0  0  0  0
  -19.0260  -30.1120   23.9620 C   0  0  0  0  0  3  0  0  0  0  0  0
  -17.7160  -30.6050   24.1140 C   0  0  0  0  0  3  0  0  0  0  0  0
  -16.6200  -29.8270   23.7000 C   0  0  0  0  0  3  0  0  0  0  0  0
  -16.8380  -28.5610   23.1260 C   0  0  0  0  0  3  0  0  0  0  0  0
  -25.8210  -32.6870   23.9110 C   0  0  0  0  0  3  0  0  0  0  0  0
  -26.2960  -31.9970   25.2470 C   0  0  1  0  0  0  0  0  0  0  0  0
  -25.1580  -31.7840   26.2710 C   0  0  0  0  0  1  0  0  0  0  0  0
  -26.9260  -30.6150   24.9530 C   0  0  0  0  0  1  0  0  0  0  0  0
  -27.4030  -32.8480   25.9070 C   0  0  0  0  0  1  0  0  0  0  0  0
  -25.4550  -34.0940   24.1580 N   0  0  0  0  0  0  0  0  0  0  0  0
  -25.7950  -35.1160   23.3610 C   0  0  0  0  0  0  0  0  0  0  0  0
  -26.5110  -34.9790   22.3640 O   0  0  0  0  0  0  0  0  0  0  0  0
  -24.8140  -34.2670   24.9130 H   0  0  0  0  0  0  0  0  0  0  0  0
  -24.0230  -36.8290   22.8590 C   0  0  0  0  0  1  0  0  0  0  0  0
  -25.2520  -36.5100   23.7270 C   0  0  0  0  0  3  0  0  0  0  0  0
  -27.3310  -37.5040   24.5680 C   0  0  0  0  0  1  0  0  0  0  0  0
  -26.2530  -37.5890   23.5840 N   0  0  0  0  0  0  0  0  0  0  0  0
  -25.8170  -38.4990   23.6700 H   0  0  0  0  0  0  0  0  0  0  0  0
  -24.4520  -17.5670   18.5870 C   0  0  0  0  0  3  0  0  0  0  0  0
  -23.6700  -15.0340   18.9150 C   0  0  0  0  0  0  0  0  0  0  0  0
  -24.5560  -16.0480   18.5860 N   0  0  0  0  0  0  0  0  0  0  0  0
  -22.4620  -15.2560   18.8080 O   0  0  0  0  0  0  0  0  0  0  0  0
  -25.5000  -15.7940   18.8410 H   0  0  0  0  0  0  0  0  0  0  0  0
  -23.2000  -12.4730   18.8730 C   0  0  0  0  0  1  0  0  0  0  0  0
  -24.1730  -13.5380   19.5040 C   0  0  0  0  0  2  0  0  0  0  0  0
  -28.3010  -13.6640   21.7390 C   0  0  0  0  0  0  0  0  0  0  0  0
  -30.0880  -13.2230   19.7490 C   0  0  0  0  0  3  0  0  0  0  0  0
  -29.4440  -13.3040   18.2330 C   0  0  0  0  0  3  0  0  0  0  0  0
  -27.8890  -13.0940   18.0610 C   0  0  0  0  0  2  0  0  0  0  0  0
  -27.5380  -13.4730   19.3850 C   0  0  0  0  0  3  0  0  0  0  0  0
  -28.2440  -12.2400   20.2080 C   0  0  0  0  0  2  0  0  0  0  0  0
  -29.1230  -12.9300   20.8980 N   0  0  0  0  0  0  0  0  0  0  0  0
  -29.0450  -14.7190   21.8470 O   0  0  0  0  0  0  0  0  0  0  0  0
  -26.6790  -13.1320   21.9060 N   0  0  0  0  0  2  0  0  0  0  0  0
  -26.2990  -13.3910   22.8040 H   0  0  0  0  0  0  0  0  0  0  0  0
  -25.1930  -14.6250   21.0690 C   0  0  0  0  0  2  0  0  0  0  0  0
  -24.2670  -13.5210   21.8310 C   0  0  0  0  0  3  0  0  0  0  0  0
  -24.6490  -12.0020   21.3740 C   0  0  0  0  0  3  0  0  0  0  0  0
  -26.2780  -13.5710   19.8540 N   0  0  0  0  0  2  0  0  0  0  0  0
  -25.7540  -11.9840   20.2930 N   0  0  0  0  0  2  0  0  0  0  0  0
  -23.8250  -10.6640   21.4640 C   0  0  0  0  0  0  0  0  0  0  0  0
  -24.3780   -9.5070   22.0670 C   0  0  0  0  0  3  0  0  0  0  0  0
  -23.6960   -8.2520   22.1320 C   0  0  0  0  0  3  0  0  0  0  0  0
  -22.4430   -8.0550   21.5160 C   0  0  0  0  0  0  0  0  0  0  0  0
  -21.8820   -9.1510   20.8580 C   0  0  0  0  0  3  0  0  0  0  0  0
  -22.5100  -10.4180   20.9280 C   0  0  0  0  0  3  0  0  0  0  0  0
  -21.7420   -6.8590   21.4880 O   0  0  0  0  0  0  0  0  0  0  0  0
  -21.7330   -5.9930   22.5540 C   0  0  0  0  0  0  0  0  0  0  0  0
  -21.3250   -6.3910   23.8480 C   0  0  0  0  0  3  0  0  0  0  0  0
  -21.2820   -5.4510   24.9000 C   0  0  0  0  0  3  0  0  0  0  0  0
  -21.6380   -4.1110   24.6630 C   0  0  0  0  0  0  0  0  0  0  0  0
  -22.0160   -3.7030   23.3770 C   0  0  0  0  0  3  0  0  0  0  0  0
  -22.0560   -4.6370   22.3220 C   0  0  0  0  0  0  0  0  0  0  0  0
  -22.3930   -4.2240   21.0790 F   0  0  0  0  0  0  0  0  0  0  0  0
  -21.6090   -3.2090   25.6780 F   0  0  0  0  0  0  0  0  0  0  0  0
  -22.7490  -13.7500   22.0950 C   0  0  0  0  0  0  0  0  0  0  0  0
  -22.0320  -12.8730   22.8080 N   0  0  0  0  0  0  0  0  0  0  0  0
  -22.1240  -14.6600   21.5560 O   0  0  0  0  0  0  0  0  0  0  0  0
  -22.4600  -12.1160   23.3140 H   0  0  0  0  0  0  0  0  0  0  0  0
  -21.0270  -13.0030   22.8540 H   0  0  0  0  0  0  0  0  0  0  0  0
  -25.3510  -15.9520   21.3030 N   0  0  0  0  0  0  0  0  0  0  0  0
  -24.7860  -16.4310   21.9950 H   0  0  0  0  0  0  0  0  0  0  0  0
  -26.2020  -16.4520   21.0670 H   0  0  0  0  0  0  0  0  0  0  0  0
  -23.4960  -17.3690   16.1670 C   0  0  0  0  0  1  0  0  0  0  0  0
  -22.1610  -18.6140   17.9800 C   0  0  0  0  0  1  0  0  0  0  0  0
  -23.5430  -18.1790   17.4700 C   0  0  0  0  0  3  0  0  0  0  0  0
  1  2  1  0
  2  4  1  0
  3  1  2  0
  5  2  1  0
  5  6  1  0
  6  7  1  0
  8  7  1  0
  8  9  1  0
 10  9  1  0
 11 22  2  0
 12 10  1  0
 12 17  1  0
 13 21  1  0
 13 23  1  0
 14 16  1  0
 15 21  1  0
 16 17  2  0
 16 15  1  0
 18 12  2  0
 19 18  1  0
 19 14  2  0
 20 14  1  0
 20 13  1  0
 21 11  1  0
 23 25  2  0
 24 23  1  0
 26 24  1  0
 27 36  2  0
 27 32  1  0
 28 24  1  0
 28 32  1  0
 29 28  1  0
 30 31  1  0
 30 29  1  0
 31 27  1  0
 32 33  2  0
 33 34  1  0
 35 34  2  0
 36 35  1  0
 37 11  1  0
 37 42  1  0
 37 38  1  0
 38 41  1  1
 38 39  1  0
 40 38  1  0
 42 45  1  0
 43 47  1  0
 43 42  1  0
 44 43  2  0
 47 46  1  0
 49 50  1  0
 49 47  1  0
 49 48  1  0
 51 98  1  0
 51  1  1  0
 52 57  1  0
 53 51  1  0
 53 55  1  0
 53 52  1  0
 54 52  2  0
 56 57  1  0
 58 65  2  0
 58 66  1  0
 59 64  1  0
 60 59  2  0
 61 60  1  0
 61 62  1  0
 62 71  1  0
 62 63  1  0
 63 64  1  0
 64 58  1  0
 66 67  1  0
 68 93  1  0
 69 68  1  0
 69 88  1  0
 70 72  1  0
 70 73  1  0
 70 69  1  0
 71 72  1  0
 73 74  1  0
 74 75  2  0
 76 75  1  0
 77 78  1  0
 77 76  2  0
 78 73  2  0
 79 76  1  0
 79 80  1  0
 80 81  1  0
 81 82  2  0
 83 82  1  0
 83 87  1  0
 84 83  2  0
 85 80  2  0
 85 84  1  0
 86 85  1  0
 88 89  1  0
 89 92  1  0
 89 91  1  0
 90 88  2  0
 93 94  1  0
 95 93  1  0
 96 98  1  0
 98 97  1  0
M  ISO  4   9 101  10 101  58 100  66 100
M  END
>  <TORSDO>  (28) 
F 25

>  <SCORE>  (28) 
15.561

>  <name>  (28) 
27

>  <ligand_id>  (28) 
27

>  <original_smiles>  (28) 
[H]c1c([H])c([H])c2c(c1[H])C([H])([H])C([H])([H])C([H])([H])C2([H])N([H])C(=O)C1([H])N(C(=O)C([H])(N([H])C(=O)C([H])(N([H])C([H])([H])[H])C([H])([H])[H])C(C([H])([H])[H])(C([H])([H])[H])C([H])([H])[H])C([H])([H])c2c([H])c(OC([H])([H])C([H])([H])OC([H])([H])C([H])([H])N([H])C(=O)C([H])(N([H])C(=O)C([H])(N([H])C(=O)N3C([H])([H])C([H])([H])C([H])([H])C([H])(n4nc(-c5c([H])c([H])c(Oc6c([H])c([H])c(F)c([H])c6F)c([H])c5[H])c(C(=O)N([H])[H])c4N([H])[H])C3([H])[H])C([H])([H])[H])C([H])(C([H])([H])[H])C([H])([H])[H])c([H])c([H])c2C1([H])[H]

>  <smiles>  (28) 
[H]c1c([H])c([H])c2c(c1[H])C([H])([H])C([H])([H])C([H])([H])C2([H])N([H])C(=O)C1([H])N(C(=O)C([H])(N([H])C(=O)C([H])(N([H])C([H])([H])[H])C([H])([H])[H])C(C([H])([H])[H])(C([H])([H])[H])C([H])([H])[H])C([H])([H])c2c([H])c(OC([H])([H])C([H])([H])OC([H])([H])C([H])([H])N([H])C(=O)C([H])(N([H])C(=O)C([H])(N([H])C(=O)N3C([H])([H])C([H])([H])C([H])([H])C([H])(n4nc(-c5c([H])c([H])c(Oc6c([H])c([H])c(F)c([H])c6F)c([H])c5[H])c(C(=O)N([H])[H])c4N([H])[H])C3([H])[H])C([H])([H])[H])C([H])(C([H])([H])[H])C([H])([H])[H])c([H])c([H])c2C1([H])[H]

$$$$
28:0:0
     RDKit          3D

 99106  0  0  1  0  0  0  0  0999 V2000
  -29.4800  -20.5760   19.7690 C   0  0  0  0  0  0  0  0  0  0  0  0
  -29.8900  -21.8560   19.9110 N   0  0  0  0  0  0  0  0  0  0  0  0
  -28.5810  -20.2640   18.9860 O   0  0  0  0  0  0  0  0  0  0  0  0
  -30.5970  -22.0510   20.6080 H   0  0  0  0  0  0  0  0  0  0  0  0
  -30.2060  -19.4650   20.5710 C   0  0  0  0  0  2  0  0  0  0  0  0
  -29.7540  -17.9790   20.2910 C   0  0  0  0  0  3  0  0  0  0  0  0
  -29.7480  -17.6700   18.8470 N   0  0  0  0  0  4  0  0  0  0  0  0
  -29.3410  -16.7680   18.6830 H   0  0  0  0  0  0  0  0  0  0  0  0
  -30.6790  -17.6730   18.4670 H   0  0  0  0  0  0  0  0  0  0  0  0
  -29.1900  -18.3600   18.3670 H   0  0  0  0  0  0  0  0  0  0  0  0
  -30.5590  -17.1090   22.5900 C   0  0  0  0  0  1  0  0  0  0  0  0
  -30.5600  -16.8770   21.0690 C   0  0  0  0  0  3  0  0  0  0  0  0
  -30.7520  -14.4640   20.2710 C   0  0  0  0  0  0  0  0  0  0  0  0
  -30.3970  -12.3110   19.1150 C   0  0  0  0  0  2  0  0  0  0  0  0
  -29.4260  -12.5180   17.9340 C   0  0  0  0  0  2  0  0  0  0  0  0
  -27.9620  -12.3970   18.4000 C   0  0  0  0  0  2  0  0  0  0  0  0
  -27.6640  -13.2390   19.6680 C   0  0  0  0  0  3  0  0  0  0  0  0
  -28.7440  -13.0120   20.7510 C   0  0  0  0  0  2  0  0  0  0  0  0
  -30.0560  -13.3000   20.1510 N   0  0  0  0  0  0  0  0  0  0  0  0
  -31.8680  -14.6310   19.7790 O   0  0  0  0  0  0  0  0  0  0  0  0
  -30.0700  -15.4980   20.8120 N   0  0  0  0  0  0  0  0  0  0  0  0
  -29.1520  -15.2710   21.1660 H   0  0  0  0  0  0  0  0  0  0  0  0
  -25.2940  -13.8830   20.4340 C   0  0  0  0  0  0  0  0  0  0  0  0
  -24.2240  -13.1240   20.8260 C   0  0  0  0  0  0  0  0  0  0  0  0
  -24.6630  -11.7670   20.7820 C   0  0  0  0  0  0  0  0  0  0  0  0
  -26.3190  -12.9850   20.1790 N   0  0  0  0  0  0  0  0  0  0  0  0
  -25.9440  -11.7090   20.4450 N   0  0  0  0  0  0  0  0  0  0  0  0
  -23.9210  -10.5160   20.9840 C   0  0  0  0  0  0  0  0  0  0  0  0
  -24.3550   -9.5400   21.9080 C   0  0  0  0  0  3  0  0  0  0  0  0
  -23.6160   -8.3520   22.0960 C   0  0  0  0  0  3  0  0  0  0  0  0
  -22.4280   -8.1320   21.3600 C   0  0  0  0  0  0  0  0  0  0  0  0
  -22.0140   -9.0950   20.4220 C   0  0  0  0  0  3  0  0  0  0  0  0
  -22.7540  -10.2740   20.2330 C   0  0  0  0  0  3  0  0  0  0  0  0
  -21.6590   -6.9990   21.4570 O   0  0  0  0  0  0  0  0  0  0  0  0
  -21.6100   -6.2610   22.6120 C   0  0  0  0  0  0  0  0  0  0  0  0
  -21.1910   -6.8220   23.8380 C   0  0  0  0  0  3  0  0  0  0  0  0
  -21.0890   -6.0100   24.9850 C   0  0  0  0  0  3  0  0  0  0  0  0
  -21.3950   -4.6390   24.9090 C   0  0  0  0  0  0  0  0  0  0  0  0
  -21.8060   -4.0760   23.6880 C   0  0  0  0  0  3  0  0  0  0  0  0
  -21.9110   -4.8850   22.5420 C   0  0  0  0  0  0  0  0  0  0  0  0
  -22.2880   -4.3340   21.3630 F   0  0  0  0  0  0  0  0  0  0  0  0
  -21.2890   -3.8580   26.0080 F   0  0  0  0  0  0  0  0  0  0  0  0
  -22.8400  -13.6230   21.1320 C   0  0  0  0  0  0  0  0  0  0  0  0
  -22.1230  -12.9320   22.0110 N   0  0  0  0  0  0  0  0  0  0  0  0
  -22.4050  -14.6560   20.6260 O   0  0  0  0  0  0  0  0  0  0  0  0
  -22.4870  -12.0960   22.4440 H   0  0  0  0  0  0  0  0  0  0  0  0
  -21.1950  -13.2460   22.2570 H   0  0  0  0  0  0  0  0  0  0  0  0
  -25.4730  -15.2510   20.2570 N   0  0  0  0  0  0  0  0  0  0  0  0
  -24.7100  -15.9080   20.3770 H   0  0  0  0  0  0  0  0  0  0  0  0
  -26.3040  -15.6790   19.8700 H   0  0  0  0  0  0  0  0  0  0  0  0
  -29.4370  -23.0330   19.1240 C   0  0  0  0  0  3  0  0  0  0  0  0
  -29.1850  -24.2960   20.0110 C   0  0  0  0  0  0  0  0  0  0  0  0
  -29.4030  -24.3010   21.2290 O   0  0  0  0  0  0  0  0  0  0  0  0
  -28.6590  -25.5770   19.3080 C   0  0  0  0  0  2  0  0  0  0  0  0
  -28.4250  -26.6740   20.2220 O   0  0  0  0  0  0  0  0  0  0  0  0
  -24.6020  -31.8910   23.2320 C   0  0  0  0  0  0  0  0  0  0  0  0
  -27.2410  -27.3940   20.1810 C   0  0  0  0  0  0  0  0  0  0  0  0
  -23.3970  -30.4820   21.5990 C   0  0  0  0  0  3  0  0  0  0  0  0
  -24.8480  -28.9290   20.1870 C   0  0  0  0  0  0  0  0  0  0  0  0
  -25.9290  -30.8210   21.4100 C   0  0  0  0  0  2  0  0  0  0  0  0
  -26.0080  -29.4450   20.7760 C   0  0  0  0  0  0  0  0  0  0  0  0
  -27.2020  -28.6830   20.7740 C   0  0  0  0  0  3  0  0  0  0  0  0
  -26.0480  -26.8940   19.6050 C   0  0  0  0  0  3  0  0  0  0  0  0
  -24.8640  -27.6530   19.6030 C   0  0  0  0  0  3  0  0  0  0  0  0
  -23.6090  -29.7950   20.2250 C   0  0  0  0  0  2  0  0  0  0  0  0
  -24.6620  -31.0800   22.1390 N   0  0  0  0  0  0  0  0  0  0  0  0
  -23.5200  -32.1720   23.7660 O   0  0  0  0  0  0  0  0  0  0  0  0
  -22.7380  -29.4700   22.5640 C   0  0  0  0  0  0  0  0  0  0  0  0
  -21.4140  -29.2860   22.4280 N   0  0  0  0  0  0  0  0  0  0  0  0
  -23.4150  -28.8510   23.3900 O   0  0  0  0  0  0  0  0  0  0  0  0
  -20.9300  -29.8360   21.7320 H   0  0  0  0  0  0  0  0  0  0  0  0
  -18.0360  -28.0940   22.9080 C   0  0  0  0  0  0  0  0  0  0  0  0
  -20.5910  -28.3570   23.2020 C   0  0  0  0  0  3  0  0  0  0  0  0
  -20.7010  -26.9190   22.6420 C   0  0  0  0  0  2  0  0  0  0  0  0
  -19.6090  -26.5850   21.6220 C   0  0  0  0  0  2  0  0  0  0  0  0
  -18.2200  -26.7380   22.2500 C   0  0  0  0  0  2  0  0  0  0  0  0
  -19.1510  -28.8620   23.3410 C   0  0  0  0  0  0  0  0  0  0  0  0
  -18.9260  -30.1320   23.9140 C   0  0  0  0  0  3  0  0  0  0  0  0
  -17.6200  -30.6360   24.0620 C   0  0  0  0  0  3  0  0  0  0  0  0
  -16.5200  -29.8650   23.6460 C   0  0  0  0  0  3  0  0  0  0  0  0
  -16.7290  -28.5970   23.0760 C   0  0  0  0  0  3  0  0  0  0  0  0
  -25.8880  -32.5230   23.8510 C   0  0  0  0  0  3  0  0  0  0  0  0
  -26.4110  -31.7480   25.1220 C   0  0  1  0  0  0  0  0  0  0  0  0
  -25.3230  -31.4990   26.1920 C   0  0  0  0  0  1  0  0  0  0  0  0
  -27.0000  -30.3750   24.7190 C   0  0  0  0  0  1  0  0  0  0  0  0
  -27.5610  -32.5430   25.7840 C   0  0  0  0  0  1  0  0  0  0  0  0
  -25.5770  -33.9190   24.1870 N   0  0  0  0  0  0  0  0  0  0  0  0
  -25.8960  -34.9740   23.4260 C   0  0  0  0  0  0  0  0  0  0  0  0
  -26.5550  -34.8750   22.3870 O   0  0  0  0  0  0  0  0  0  0  0  0
  -24.9910  -34.0700   24.9950 H   0  0  0  0  0  0  0  0  0  0  0  0
  -24.1540  -36.7570   23.0930 C   0  0  0  0  0  1  0  0  0  0  0  0
  -25.4070  -36.3600   23.8890 C   0  0  0  0  0  3  0  0  0  0  0  0
  -27.5450  -37.2570   24.6960 C   0  0  0  0  0  1  0  0  0  0  0  0
  -26.4330  -37.4190   23.7640 N   0  0  0  0  0  0  0  0  0  0  0  0
  -26.0240  -38.3370   23.9160 H   0  0  0  0  0  0  0  0  0  0  0  0
  -30.4110  -23.3240   17.9430 C   0  0  0  0  0  2  0  0  0  0  0  0
  -30.5140  -22.8830   15.4300 C   0  0  0  0  0  1  0  0  0  0  0  0
  -31.7440  -21.3520   16.9950 C   0  0  0  0  0  1  0  0  0  0  0  0
  -30.5060  -22.2480   16.8320 C   0  0  0  0  0  3  0  0  0  0  0  0
  1  2  1  0
  1  5  1  0
  2  4  1  0
  3  1  2  0
  6  5  1  0
  6 12  1  0
  7  6  1  0
  8  7  1  0
  9  7  1  0
 10  7  1  0
 12 11  1  0
 13 21  1  0
 14 19  1  0
 15 16  1  0
 15 14  1  0
 17 16  1  0
 17 26  1  0
 17 18  1  0
 19 13  1  0
 19 18  1  0
 20 13  2  0
 21 12  1  0
 21 22  1  0
 23 24  2  0
 24 43  1  0
 25 24  1  0
 25 28  1  0
 26 23  1  0
 26 27  1  0
 27 25  2  0
 28 29  1  0
 29 30  2  0
 31 34  1  0
 31 30  1  0
 32 31  2  0
 33 32  1  0
 33 28  2  0
 34 35  1  0
 35 36  1  0
 36 37  2  0
 38 37  1  0
 38 42  1  0
 39 38  2  0
 40 35  2  0
 40 39  1  0
 41 40  1  0
 43 44  1  0
 44 47  1  0
 44 46  1  0
 45 43  2  0
 48 49  1  0
 48 23  1  0
 50 48  1  0
 51 96  1  0
 51  2  1  0
 51 52  1  0
 52 53  2  0
 54 52  1  0
 54 55  1  0
 56 67  2  0
 57 55  1  0
 57 62  1  0
 58 66  1  0
 58 68  1  0
 59 65  1  0
 59 61  1  0
 60 66  1  0
 61 60  1  0
 62 61  2  0
 63 57  2  0
 64 63  1  0
 64 59  2  0
 65 58  1  0
 66 56  1  0
 68 70  2  0
 69 68  1  0
 71 69  1  0
 72 81  2  0
 72 77  1  0
 73 69  1  0
 73 77  1  0
 74 73  1  0
 75 76  1  0
 75 74  1  0
 76 72  1  0
 77 78  2  0
 78 79  1  0
 80 79  2  0
 81 80  1  0
 82 56  1  0
 82 87  1  0
 82 83  1  0
 83 86  1  1
 83 84  1  0
 85 83  1  0
 87 90  1  0
 88 92  1  0
 88 87  1  0
 89 88  2  0
 92 91  1  0
 94 92  1  0
 94 95  1  0
 94 93  1  0
 97 99  1  0
 99 98  1  0
 99 96  1  0
M  ISO  4  13 100  21 100  54 101  55 101
M  END
>  <TORSDO>  (29) 
F 25

>  <SCORE>  (29) 
-12.446

>  <name>  (29) 
28

>  <ligand_id>  (29) 
28

>  <original_smiles>  (29) 
[H]c1c([H])c([H])c2c(c1[H])C([H])([H])C([H])([H])C([H])([H])C2([H])N([H])C(=O)C1([H])N(C(=O)C([H])(N([H])C(=O)C([H])(N([H])C([H])([H])[H])C([H])([H])[H])C(C([H])([H])[H])(C([H])([H])[H])C([H])([H])[H])C([H])([H])c2c([H])c(OC([H])([H])C(=O)C([H])(N([H])C(=O)C([H])([H])C([H])(C([H])(N([H])C(=O)N3C([H])([H])C([H])([H])C([H])([H])C([H])(n4nc(-c5c([H])c([H])c(Oc6c([H])c([H])c(F)c([H])c6F)c([H])c5[H])c(C(=O)N([H])[H])c4N([H])[H])C3([H])[H])C([H])([H])[H])[N+]([H])([H])[H])C([H])([H])C([H])(C([H])([H])[H])C([H])([H])[H])c([H])c([H])c2C1([H])[H]

>  <smiles>  (29) 
[H]c1c([H])c([H])c2c(c1[H])C([H])([H])C([H])([H])C([H])([H])C2([H])N([H])C(=O)C1([H])N(C(=O)C([H])(N([H])C(=O)C([H])(N([H])C([H])([H])[H])C([H])([H])[H])C(C([H])([H])[H])(C([H])([H])[H])C([H])([H])[H])C([H])([H])c2c([H])c(OC([H])([H])C(=O)C([H])(N([H])C(=O)C([H])([H])C([H])(C([H])(N([H])C(=O)N3C([H])([H])C([H])([H])C([H])([H])C([H])(n4nc(-c5c([H])c([H])c(Oc6c([H])c([H])c(F)c([H])c6F)c([H])c5[H])c(C(=O)N([H])[H])c4N([H])[H])C3([H])[H])C([H])([H])[H])[N+]([H])([H])[H])C([H])([H])C([H])(C([H])([H])[H])C([H])([H])[H])c([H])c([H])c2C1([H])[H]

$$$$
29:0:0
     RDKit          3D

 91 98  0  0  1  0  0  0  0  0999 V2000
  -29.2610  -20.5070   21.2830 C   0  0  0  0  0  2  0  0  0  0  0  0
  -29.6880  -18.0590   20.9580 C   0  0  0  0  0  0  0  0  0  0  0  0
  -29.8440  -19.3460   20.6100 N   0  0  0  0  0  0  0  0  0  0  0  0
  -29.0190  -17.7070   21.9320 O   0  0  0  0  0  0  0  0  0  0  0  0
  -30.4050  -19.5290   19.7880 H   0  0  0  0  0  0  0  0  0  0  0  0
  -30.3870  -17.0130   20.0670 C   0  0  0  0  0  3  0  0  0  0  0  0
  -30.8050  -14.5540   20.1350 C   0  0  0  0  0  0  0  0  0  0  0  0
  -30.4470  -12.4270   18.9730 C   0  0  0  0  0  2  0  0  0  0  0  0
  -29.4640  -12.6990   17.8140 C   0  0  0  0  0  2  0  0  0  0  0  0
  -28.0070  -12.5530   18.2950 C   0  0  0  0  0  2  0  0  0  0  0  0
  -27.7250  -13.3380   19.6040 C   0  0  0  0  0  3  0  0  0  0  0  0
  -28.8250  -13.0850   20.6620 C   0  0  0  0  0  2  0  0  0  0  0  0
  -30.1270  -13.3800   20.0440 N   0  0  0  0  0  0  0  0  0  0  0  0
  -31.9540  -14.7000   19.7110 O   0  0  0  0  0  0  0  0  0  0  0  0
  -30.0500  -15.6250   20.4320 N   0  0  0  0  0  0  0  0  0  0  0  0
  -29.1270  -15.4710   20.8060 H   0  0  0  0  0  0  0  0  0  0  0  0
  -25.3500  -13.9350   20.3900 C   0  0  0  0  0  0  0  0  0  0  0  0
  -24.2970  -13.1560   20.7880 C   0  0  0  0  0  0  0  0  0  0  0  0
  -24.7640  -11.8060   20.7350 C   0  0  0  0  0  0  0  0  0  0  0  0
  -26.3910  -13.0580   20.1240 N   0  0  0  0  0  0  0  0  0  0  0  0
  -26.0440  -11.7740   20.3880 N   0  0  0  0  0  0  0  0  0  0  0  0
  -24.0510  -10.5390   20.9400 C   0  0  0  0  0  0  0  0  0  0  0  0
  -24.4940   -9.5870   21.8840 C   0  0  0  0  0  3  0  0  0  0  0  0
  -23.7820   -8.3840   22.0760 C   0  0  0  0  0  3  0  0  0  0  0  0
  -22.6130   -8.1250   21.3210 C   0  0  0  0  0  0  0  0  0  0  0  0
  -22.1900   -9.0660   20.3660 C   0  0  0  0  0  3  0  0  0  0  0  0
  -22.9030  -10.2610   20.1730 C   0  0  0  0  0  3  0  0  0  0  0  0
  -21.8700   -6.9730   21.4220 O   0  0  0  0  0  0  0  0  0  0  0  0
  -21.7950   -6.2660   22.5960 C   0  0  0  0  0  0  0  0  0  0  0  0
  -21.3040   -6.8470   23.7860 C   0  0  0  0  0  3  0  0  0  0  0  0
  -21.1780   -6.0640   24.9500 C   0  0  0  0  0  3  0  0  0  0  0  0
  -21.5330   -4.7020   24.9260 C   0  0  0  0  0  0  0  0  0  0  0  0
  -22.0160   -4.1210   23.7400 C   0  0  0  0  0  3  0  0  0  0  0  0
  -22.1440   -4.9010   22.5780 C   0  0  0  0  0  0  0  0  0  0  0  0
  -22.5900   -4.3310   21.4330 F   0  0  0  0  0  0  0  0  0  0  0  0
  -21.4040   -3.9470   26.0420 F   0  0  0  0  0  0  0  0  0  0  0  0
  -22.9080  -13.6250   21.1100 C   0  0  0  0  0  0  0  0  0  0  0  0
  -22.2100  -12.9160   21.9900 N   0  0  0  0  0  0  0  0  0  0  0  0
  -22.4500  -14.6540   20.6140 O   0  0  0  0  0  0  0  0  0  0  0  0
  -22.5950  -12.0840   22.4130 H   0  0  0  0  0  0  0  0  0  0  0  0
  -21.2790  -13.2110   22.2480 H   0  0  0  0  0  0  0  0  0  0  0  0
  -25.5030  -15.3060   20.2120 N   0  0  0  0  0  0  0  0  0  0  0  0
  -24.7350  -15.9550   20.3430 H   0  0  0  0  0  0  0  0  0  0  0  0
  -26.3400  -15.7540   19.8620 H   0  0  0  0  0  0  0  0  0  0  0  0
  -28.7230  -17.2850   18.0710 C   0  0  0  0  0  1  0  0  0  0  0  0
  -30.1870  -17.2390   18.5420 C   0  0  0  0  0  2  0  0  0  0  0  0
  -29.3610  -21.7820   20.4120 C   0  0  0  0  0  2  0  0  0  0  0  0
  -28.8210  -23.0430   21.1220 C   0  0  0  0  0  2  0  0  0  0  0  0
  -28.8910  -24.3390   20.2810 C   0  0  0  0  0  2  0  0  0  0  0  0
  -28.3950  -25.5750   21.0610 C   0  0  0  0  0  2  0  0  0  0  0  0
  -28.4910  -26.7820   20.2920 O   0  0  0  0  0  0  0  0  0  0  0  0
  -24.5710  -31.9360   23.2420 C   0  0  0  0  0  0  0  0  0  0  0  0
  -27.3290  -27.5150   20.2540 C   0  0  0  0  0  0  0  0  0  0  0  0
  -23.4170  -30.5160   21.5760 C   0  0  0  0  0  3  0  0  0  0  0  0
  -24.9210  -28.9860   20.1930 C   0  0  0  0  0  0  0  0  0  0  0  0
  -25.9410  -30.9020   21.4340 C   0  0  0  0  0  2  0  0  0  0  0  0
  -26.0570  -29.5300   20.8050 C   0  0  0  0  0  0  0  0  0  0  0  0
  -27.2680  -28.8030   20.8310 C   0  0  0  0  0  3  0  0  0  0  0  0
  -26.1810  -26.9810   19.6350 C   0  0  0  0  0  3  0  0  0  0  0  0
  -24.9780  -27.7110   19.6030 C   0  0  0  0  0  3  0  0  0  0  0  0
  -23.6650  -29.8300   20.2050 C   0  0  0  0  0  2  0  0  0  0  0  0
  -24.6590  -31.1330   22.1440 N   0  0  0  0  0  0  0  0  0  0  0  0
  -23.4750  -32.2000   23.7540 O   0  0  0  0  0  0  0  0  0  0  0  0
  -22.7530  -29.4940   22.5250 C   0  0  0  0  0  0  0  0  0  0  0  0
  -21.4350  -29.2950   22.3610 N   0  0  0  0  0  0  0  0  0  0  0  0
  -23.4200  -28.8810   23.3620 O   0  0  0  0  0  0  0  0  0  0  0  0
  -20.9580  -29.8440   21.6590 H   0  0  0  0  0  0  0  0  0  0  0  0
  -18.0560  -28.0860   22.7840 C   0  0  0  0  0  0  0  0  0  0  0  0
  -20.6060  -28.3530   23.1120 C   0  0  0  0  0  3  0  0  0  0  0  0
  -20.7270  -26.9240   22.5350 C   0  0  0  0  0  2  0  0  0  0  0  0
  -19.6490  -26.5970   21.4980 C   0  0  0  0  0  2  0  0  0  0  0  0
  -18.2520  -26.7370   22.1130 C   0  0  0  0  0  2  0  0  0  0  0  0
  -19.1630  -28.8520   23.2390 C   0  0  0  0  0  0  0  0  0  0  0  0
  -18.9270  -30.1120   23.8260 C   0  0  0  0  0  3  0  0  0  0  0  0
  -17.6180  -30.6100   23.9640 C   0  0  0  0  0  3  0  0  0  0  0  0
  -16.5250  -29.8420   23.5270 C   0  0  0  0  0  3  0  0  0  0  0  0
  -16.7450  -28.5820   22.9430 C   0  0  0  0  0  3  0  0  0  0  0  0
  -25.8360  -32.5790   23.8910 C   0  0  0  0  0  3  0  0  0  0  0  0
  -25.5100  -33.9760   24.2050 N   0  0  0  0  0  0  0  0  0  0  0  0
  -25.8540  -35.0270   23.4480 C   0  0  0  0  0  0  0  0  0  0  0  0
  -26.5490  -34.9210   22.4330 O   0  0  0  0  0  0  0  0  0  0  0  0
  -24.8970  -34.1320   24.9920 H   0  0  0  0  0  0  0  0  0  0  0  0
  -24.1260  -36.8060   23.0310 C   0  0  0  0  0  1  0  0  0  0  0  0
  -25.3430  -36.4130   23.8830 C   0  0  0  0  0  3  0  0  0  0  0  0
  -27.4430  -37.3170   24.7780 C   0  0  0  0  0  1  0  0  0  0  0  0
  -26.3710  -37.4720   23.7980 N   0  0  0  0  0  0  0  0  0  0  0  0
  -25.9560  -38.3900   23.9270 H   0  0  0  0  0  0  0  0  0  0  0  0
  -26.3310  -31.8170   25.1810 C   0  0  1  0  0  0  0  0  0  0  0  0
  -25.2140  -31.5670   26.2220 C   0  0  0  0  0  1  0  0  0  0  0  0
  -26.9420  -30.4480   24.8020 C   0  0  0  0  0  1  0  0  0  0  0  0
  -27.4520  -32.6290   25.8720 C   0  0  0  0  0  1  0  0  0  0  0  0
  2  4  2  0
  3  2  1  0
  3  1  1  0
  5  3  1  0
  6 46  1  0
  6 15  1  0
  6  2  1  0
  7 15  1  0
  8 13  1  0
  9 10  1  0
  9  8  1  0
 11 10  1  0
 11 20  1  0
 11 12  1  0
 13  7  1  0
 13 12  1  0
 14  7  2  0
 15 16  1  0
 17 18  2  0
 18 37  1  0
 19 18  1  0
 19 22  1  0
 20 21  1  0
 20 17  1  0
 21 19  2  0
 22 23  1  0
 23 24  2  0
 25 28  1  0
 25 24  1  0
 26 25  2  0
 27 26  1  0
 27 22  2  0
 28 29  1  0
 29 30  1  0
 30 31  2  0
 32 31  1  0
 32 36  1  0
 33 32  2  0
 34 29  2  0
 34 33  1  0
 35 34  1  0
 37 38  1  0
 38 41  1  0
 38 40  1  0
 39 37  2  0
 42 43  1  0
 42 17  1  0
 44 42  1  0
 45 46  1  0
 47 48  1  0
 47  1  1  0
 49 50  1  0
 49 48  1  0
 51 50  1  0
 52 63  2  0
 53 51  1  0
 53 58  1  0
 54 62  1  0
 54 64  1  0
 55 61  1  0
 55 57  1  0
 56 62  1  0
 57 58  2  0
 57 56  1  0
 59 53  2  0
 60 59  1  0
 60 55  2  0
 61 54  1  0
 62 52  1  0
 64 66  2  0
 65 64  1  0
 67 65  1  0
 68 77  2  0
 68 73  1  0
 69 65  1  0
 69 73  1  0
 70 69  1  0
 71 72  1  0
 71 70  1  0
 72 68  1  0
 73 74  2  0
 74 75  1  0
 76 75  2  0
 77 76  1  0
 78 52  1  0
 78 79  1  0
 78 88  1  0
 79 82  1  0
 80 84  1  0
 80 79  1  0
 81 80  2  0
 84 83  1  0
 86 84  1  0
 86 87  1  0
 86 85  1  0
 88 91  1  1
 88 89  1  0
 90 88  1  0
M  ISO  4   7 100  15 100  50 101  51 101
M  END
>  <TORSDO>  (30) 
F 23

>  <SCORE>  (30) 
-11.760

>  <name>  (30) 
29

>  <ligand_id>  (30) 
29

>  <original_smiles>  (30) 
[H]c1c([H])c([H])c2c(c1[H])C([H])([H])C([H])([H])C([H])([H])C2([H])N([H])C(=O)C1([H])N(C(=O)C([H])(N([H])C(=O)C([H])(N([H])C([H])([H])[H])C([H])([H])[H])C(C([H])([H])[H])(C([H])([H])[H])C([H])([H])[H])C([H])([H])c2c([H])c(OC([H])([H])C([H])([H])C([H])([H])C([H])([H])C([H])([H])N([H])C(=O)C([H])(N([H])C(=O)N3C([H])([H])C([H])([H])C([H])([H])C([H])(n4nc(-c5c([H])c([H])c(Oc6c([H])c([H])c(F)c([H])c6F)c([H])c5[H])c(C(=O)N([H])[H])c4N([H])[H])C3([H])[H])C([H])([H])C([H])([H])[H])c([H])c([H])c2C1([H])[H]

>  <smiles>  (30) 
[H]c1c([H])c([H])c2c(c1[H])C([H])([H])C([H])([H])C([H])([H])C2([H])N([H])C(=O)C1([H])N(C(=O)C([H])(N([H])C(=O)C([H])(N([H])C([H])([H])[H])C([H])([H])[H])C(C([H])([H])[H])(C([H])([H])[H])C([H])([H])[H])C([H])([H])c2c([H])c(OC([H])([H])C([H])([H])C([H])([H])C([H])([H])C([H])([H])N([H])C(=O)C([H])(N([H])C(=O)N3C([H])([H])C([H])([H])C([H])([H])C([H])(n4nc(-c5c([H])c([H])c(Oc6c([H])c([H])c(F)c([H])c6F)c([H])c5[H])c(C(=O)N([H])[H])c4N([H])[H])C3([H])[H])C([H])([H])C([H])([H])[H])c([H])c([H])c2C1([H])[H]

$$$$
30:0:0
     RDKit          3D

100107  0  0  1  0  0  0  0  0999 V2000
  -28.6670  -20.7050   19.3110 C   0  0  0  0  0  3  0  0  0  0  0  0
  -29.1420  -22.1590   19.1000 C   0  0  0  0  0  0  0  0  0  0  0  0
  -28.2820  -23.1480   19.3660 N   0  0  0  0  0  0  0  0  0  0  0  0
  -30.2840  -22.3640   18.6740 O   0  0  0  0  0  0  0  0  0  0  0  0
  -27.3720  -22.8890   19.7270 H   0  0  0  0  0  0  0  0  0  0  0  0
  -28.5090  -24.5730   19.1320 C   0  0  0  0  0  2  0  0  0  0  0  0
  -28.3120  -25.3710   20.4330 C   0  0  0  0  0  2  0  0  0  0  0  0
  -28.3730  -26.7770   20.2070 O   0  0  0  0  0  0  0  0  0  0  0  0
  -24.5150  -31.8720   23.2890 C   0  0  0  0  0  0  0  0  0  0  0  0
  -27.1790  -27.4610   20.2060 C   0  0  0  0  0  0  0  0  0  0  0  0
  -23.3170  -30.4840   21.6290 C   0  0  0  0  0  3  0  0  0  0  0  0
  -24.7780  -28.9500   20.2130 C   0  0  0  0  0  0  0  0  0  0  0  0
  -25.8420  -30.8460   21.4480 C   0  0  0  0  0  2  0  0  0  0  0  0
  -25.9300  -29.4770   20.8070 C   0  0  0  0  0  0  0  0  0  0  0  0
  -27.1350  -28.7410   20.7980 C   0  0  0  0  0  3  0  0  0  0  0  0
  -26.0060  -26.9350   19.6180 C   0  0  0  0  0  3  0  0  0  0  0  0
  -24.8090  -27.6770   19.6170 C   0  0  0  0  0  3  0  0  0  0  0  0
  -23.5340  -29.8070   20.2500 C   0  0  0  0  0  2  0  0  0  0  0  0
  -24.5760  -31.0800   22.1830 N   0  0  0  0  0  0  0  0  0  0  0  0
  -23.4290  -32.1440   23.8220 O   0  0  0  0  0  0  0  0  0  0  0  0
  -22.6550  -29.4600   22.5790 C   0  0  0  0  0  0  0  0  0  0  0  0
  -21.3330  -29.2750   22.4330 N   0  0  0  0  0  0  0  0  0  0  0  0
  -23.3290  -28.8310   23.4000 O   0  0  0  0  0  0  0  0  0  0  0  0
  -20.8530  -29.8280   21.7350 H   0  0  0  0  0  0  0  0  0  0  0  0
  -17.9510  -28.0970   22.8910 C   0  0  0  0  0  0  0  0  0  0  0  0
  -20.5070  -28.3380   23.1910 C   0  0  0  0  0  3  0  0  0  0  0  0
  -20.6110  -26.9110   22.6050 C   0  0  0  0  0  2  0  0  0  0  0  0
  -19.5170  -26.6010   21.5770 C   0  0  0  0  0  2  0  0  0  0  0  0
  -18.1290  -26.7500   22.2070 C   0  0  0  0  0  2  0  0  0  0  0  0
  -19.0700  -28.8480   23.3380 C   0  0  0  0  0  0  0  0  0  0  0  0
  -18.8530  -30.1100   23.9350 C   0  0  0  0  0  3  0  0  0  0  0  0
  -17.5510  -30.6200   24.0850 C   0  0  0  0  0  3  0  0  0  0  0  0
  -16.4460  -29.8640   23.6580 C   0  0  0  0  0  3  0  0  0  0  0  0
  -16.6470  -28.6040   23.0670 C   0  0  0  0  0  3  0  0  0  0  0  0
  -25.7970  -32.4940   23.9220 C   0  0  0  0  0  3  0  0  0  0  0  0
  -26.2860  -31.7290   25.2120 C   0  0  1  0  0  0  0  0  0  0  0  0
  -25.1720  -31.5040   26.2630 C   0  0  0  0  0  1  0  0  0  0  0  0
  -26.8620  -30.3450   24.8340 C   0  0  0  0  0  1  0  0  0  0  0  0
  -27.4380  -32.5140   25.8840 C   0  0  0  0  0  1  0  0  0  0  0  0
  -25.5010  -33.9000   24.2300 N   0  0  0  0  0  0  0  0  0  0  0  0
  -25.8650  -34.9370   23.4650 C   0  0  0  0  0  0  0  0  0  0  0  0
  -26.5580  -34.8120   22.4510 O   0  0  0  0  0  0  0  0  0  0  0  0
  -24.8840  -34.0730   25.0100 H   0  0  0  0  0  0  0  0  0  0  0  0
  -24.1840  -36.7570   23.0310 C   0  0  0  0  0  1  0  0  0  0  0  0
  -25.3840  -36.3360   23.8920 C   0  0  0  0  0  3  0  0  0  0  0  0
  -27.4960  -37.1960   24.8010 C   0  0  0  0  0  1  0  0  0  0  0  0
  -26.4380  -37.3710   23.8090 N   0  0  0  0  0  0  0  0  0  0  0  0
  -26.0430  -38.3000   23.9280 H   0  0  0  0  0  0  0  0  0  0  0  0
  -26.7150  -19.0690   18.8700 C   0  0  0  0  0  1  0  0  0  0  0  0
  -27.7640  -20.2670   16.9030 C   0  0  0  0  0  1  0  0  0  0  0  0
  -27.4360  -20.3510   18.4120 C   0  0  0  0  0  3  0  0  0  0  0  0
  -29.8120  -19.8360   18.9900 N   0  0  0  0  0  4  0  0  0  0  0  0
  -29.6350  -19.2520   18.1920 H   0  0  0  0  0  0  0  0  0  0  0  0
  -30.4960  -20.5300   18.6990 H   0  0  0  0  0  0  0  0  0  0  0  0
  -30.4890  -19.0880   20.0710 C   0  0  0  0  0  3  0  0  0  0  0  0
  -31.9680  -19.0350   19.6630 C   0  0  0  0  0  0  0  0  0  0  0  0
  -32.8940  -19.3400   20.5640 N   0  0  0  0  0  0  0  0  0  0  0  0
  -32.2830  -18.7390   18.5110 O   0  0  0  0  0  0  0  0  0  0  0  0
  -32.6510  -19.6070   21.5070 H   0  0  0  0  0  0  0  0  0  0  0  0
  -33.8690  -19.3270   20.2990 H   0  0  0  0  0  0  0  0  0  0  0  0
  -29.8990  -17.6560   20.2180 C   0  0  0  0  0  2  0  0  0  0  0  0
  -30.5140  -16.7660   21.3300 C   0  0  0  0  0  2  0  0  0  0  0  0
  -30.6880  -14.4120   20.5090 C   0  0  0  0  0  0  0  0  0  0  0  0
  -30.3250  -12.3350   19.2400 C   0  0  0  0  0  2  0  0  0  0  0  0
  -29.3740  -12.6180   18.0590 C   0  0  0  0  0  2  0  0  0  0  0  0
  -27.9040  -12.4820   18.4970 C   0  0  0  0  0  2  0  0  0  0  0  0
  -27.5930  -13.2640   19.8020 C   0  0  0  0  0  3  0  0  0  0  0  0
  -28.6530  -12.9710   20.8890 C   0  0  0  0  0  2  0  0  0  0  0  0
  -29.9830  -13.2660   20.3230 N   0  0  0  0  0  0  0  0  0  0  0  0
  -31.7810  -14.6260   19.9780 O   0  0  0  0  0  0  0  0  0  0  0  0
  -30.0650  -15.3730   21.2100 N   0  0  0  0  0  0  0  0  0  0  0  0
  -29.1690  -15.1310   21.6080 H   0  0  0  0  0  0  0  0  0  0  0  0
  -25.1920  -13.8710   20.5040 C   0  0  0  0  0  0  0  0  0  0  0  0
  -24.1230  -13.1000   20.8720 C   0  0  0  0  0  0  0  0  0  0  0  0
  -24.5840  -11.7490   20.8440 C   0  0  0  0  0  0  0  0  0  0  0  0
  -26.2380  -12.9900   20.2770 N   0  0  0  0  0  0  0  0  0  0  0  0
  -25.8740  -11.7080   20.5370 N   0  0  0  0  0  0  0  0  0  0  0  0
  -23.8560  -10.4880   21.0370 C   0  0  0  0  0  0  0  0  0  0  0  0
  -24.2780   -9.5310   21.9860 C   0  0  0  0  0  3  0  0  0  0  0  0
  -23.5530   -8.3320   22.1660 C   0  0  0  0  0  3  0  0  0  0  0  0
  -22.3930   -8.0820   21.3950 C   0  0  0  0  0  0  0  0  0  0  0  0
  -21.9900   -9.0280   20.4370 C   0  0  0  0  0  3  0  0  0  0  0  0
  -22.7150  -10.2170   20.2560 C   0  0  0  0  0  3  0  0  0  0  0  0
  -21.6440   -6.9350   21.4820 O   0  0  0  0  0  0  0  0  0  0  0  0
  -21.5690   -6.2100   22.6450 C   0  0  0  0  0  0  0  0  0  0  0  0
  -21.0830   -6.7720   23.8450 C   0  0  0  0  0  3  0  0  0  0  0  0
  -20.9580   -5.9720   24.9970 C   0  0  0  0  0  3  0  0  0  0  0  0
  -21.3090   -4.6090   24.9520 C   0  0  0  0  0  0  0  0  0  0  0  0
  -21.7870   -4.0470   23.7550 C   0  0  0  0  0  3  0  0  0  0  0  0
  -21.9150   -4.8440   22.6040 C   0  0  0  0  0  0  0  0  0  0  0  0
  -22.3570   -4.2920   21.4490 F   0  0  0  0  0  0  0  0  0  0  0  0
  -21.1810   -3.8380   26.0560 F   0  0  0  0  0  0  0  0  0  0  0  0
  -22.7270  -13.5790   21.1460 C   0  0  0  0  0  0  0  0  0  0  0  0
  -22.0000  -12.8800   22.0100 N   0  0  0  0  0  0  0  0  0  0  0  0
  -22.2900  -14.6080   20.6310 O   0  0  0  0  0  0  0  0  0  0  0  0
  -22.3680  -12.0500   22.4490 H   0  0  0  0  0  0  0  0  0  0  0  0
  -21.0610  -13.1810   22.2360 H   0  0  0  0  0  0  0  0  0  0  0  0
  -25.3540  -15.2410   20.3230 N   0  0  0  0  0  0  0  0  0  0  0  0
  -24.5800  -15.8900   20.4190 H   0  0  0  0  0  0  0  0  0  0  0  0
  -26.2030  -15.6800   19.9910 H   0  0  0  0  0  0  0  0  0  0  0  0
  1 51  1  0
  2  1  1  0
  2  3  1  0
  3  5  1  0
  4  2  2  0
  6  3  1  0
  6  7  1  0
  8  7  1  0
  9 20  2  0
 10  8  1  0
 10 15  1  0
 11 19  1  0
 11 21  1  0
 12 18  1  0
 12 14  1  0
 13 19  1  0
 14 13  1  0
 15 14  2  0
 16 10  2  0
 17 16  1  0
 17 12  2  0
 18 11  1  0
 19  9  1  0
 21 23  2  0
 22 21  1  0
 24 22  1  0
 25 34  2  0
 25 30  1  0
 26 22  1  0
 26 30  1  0
 27 26  1  0
 28 29  1  0
 28 27  1  0
 29 25  1  0
 30 31  2  0
 31 32  1  0
 33 32  2  0
 34 33  1  0
 35  9  1  0
 35 40  1  0
 35 36  1  0
 36 39  1  1
 36 37  1  0
 38 36  1  0
 40 43  1  0
 41 45  1  0
 41 40  1  0
 42 41  2  0
 45 44  1  0
 47 45  1  0
 47 48  1  0
 47 46  1  0
 50 51  1  0
 51 49  1  0
 52  1  1  0
 52 55  1  0
 53 52  1  0
 54 52  1  0
 55 61  1  0
 56 55  1  0
 56 57  1  0
 57 59  1  0
 58 56  2  0
 60 57  1  0
 61 62  1  0
 63 71  1  0
 64 69  1  0
 65 66  1  0
 65 64  1  0
 67 66  1  0
 67 76  1  0
 67 68  1  0
 69 63  1  0
 69 68  1  0
 70 63  2  0
 71 62  1  0
 71 72  1  0
 73 74  2  0
 74 93  1  0
 75 74  1  0
 75 78  1  0
 76 73  1  0
 76 77  1  0
 77 75  2  0
 78 79  1  0
 79 80  2  0
 81 84  1  0
 81 80  1  0
 82 81  2  0
 83 82  1  0
 83 78  2  0
 84 85  1  0
 85 86  1  0
 86 87  2  0
 88 87  1  0
 88 92  1  0
 89 88  2  0
 90 85  2  0
 90 89  1  0
 91 90  1  0
 93 94  1  0
 94 97  1  0
 94 96  1  0
 95 93  2  0
 98 99  1  0
 98 73  1  0
100 98  1  0
M  ISO  4   7 101   8 101  63 100  71 100
M  END
>  <TORSDO>  (31) 
F 25

>  <SCORE>  (31) 
-12.272

>  <name>  (31) 
30

>  <ligand_id>  (31) 
30

>  <original_smiles>  (31) 
[H]c1c([H])c([H])c2c(c1[H])C([H])([H])C([H])([H])C([H])([H])C2([H])N([H])C(=O)C1([H])N(C(=O)C([H])(N([H])C(=O)C([H])(N([H])C([H])([H])[H])C([H])([H])[H])C(C([H])([H])[H])(C([H])([H])[H])C([H])([H])[H])C([H])([H])c2c([H])c(OC([H])([H])C([H])([H])N([H])C(=O)C([H])(C([H])(C([H])([H])[H])C([H])([H])[H])[N+]([H])([H])C([H])(C(=O)N([H])[H])C([H])([H])C([H])([H])N([H])C(=O)N3C([H])([H])C([H])([H])C([H])([H])C([H])(n4nc(-c5c([H])c([H])c(Oc6c([H])c([H])c(F)c([H])c6F)c([H])c5[H])c(C(=O)N([H])[H])c4N([H])[H])C3([H])[H])c([H])c([H])c2C1([H])[H]

>  <smiles>  (31) 
[H]c1c([H])c([H])c2c(c1[H])C([H])([H])C([H])([H])C([H])([H])C2([H])N([H])C(=O)C1([H])N(C(=O)C([H])(N([H])C(=O)C([H])(N([H])C([H])([H])[H])C([H])([H])[H])C(C([H])([H])[H])(C([H])([H])[H])C([H])([H])[H])C([H])([H])c2c([H])c(OC([H])([H])C([H])([H])N([H])C(=O)C([H])(C([H])(C([H])([H])[H])C([H])([H])[H])[N+]([H])([H])C([H])(C(=O)N([H])[H])C([H])([H])C([H])([H])N([H])C(=O)N3C([H])([H])C([H])([H])C([H])([H])C([H])(n4nc(-c5c([H])c([H])c(Oc6c([H])c([H])c(F)c([H])c6F)c([H])c5[H])c(C(=O)N([H])[H])c4N([H])[H])C3([H])[H])c([H])c([H])c2C1([H])[H]

$$$$
31:0:0
     RDKit          3D

 98105  0  0  1  0  0  0  0  0999 V2000
  -27.8720  -22.7640   21.7340 C   0  0  0  0  0  0  0  0  0  0  0  0
  -29.0820  -22.2650   22.0200 N   0  0  0  0  0  0  0  0  0  0  0  0
  -27.0160  -22.9390   22.6060 O   0  0  0  0  0  0  0  0  0  0  0  0
  -29.7620  -22.1580   21.2790 H   0  0  0  0  0  0  0  0  0  0  0  0
  -29.5000  -21.8840   23.3700 C   0  0  0  0  0  2  0  0  0  0  0  0
  -30.9790  -21.4560   23.4120 C   0  0  0  0  0  2  0  0  0  0  0  0
  -31.2120  -20.1890   22.7950 O   0  0  0  0  0  0  0  0  0  0  0  0
  -30.9550  -19.0740   23.6500 C   0  0  0  0  0  2  0  0  0  0  0  0
  -31.5560  -17.7760   23.0820 C   0  0  0  0  0  2  0  0  0  0  0  0
  -30.7430  -17.2410   22.0450 O   0  0  0  0  0  0  0  0  0  0  0  0
  -31.2980  -17.4330   20.7510 C   0  0  0  0  0  2  0  0  0  0  0  0
  -30.3340  -16.8320   19.7260 C   0  0  0  0  0  2  0  0  0  0  0  0
  -30.7480  -14.3800   19.6300 C   0  0  0  0  0  0  0  0  0  0  0  0
  -30.4850  -12.0270   18.9660 C   0  0  0  0  0  2  0  0  0  0  0  0
  -29.4750  -11.9580   17.8020 C   0  0  0  0  0  2  0  0  0  0  0  0
  -28.0300  -11.8720   18.3350 C   0  0  0  0  0  2  0  0  0  0  0  0
  -27.7240  -12.9440   19.4170 C   0  0  0  0  0  3  0  0  0  0  0  0
  -28.8400  -12.9740   20.4860 C   0  0  0  0  0  2  0  0  0  0  0  0
  -30.1270  -13.1850   19.7960 N   0  0  0  0  0  0  0  0  0  0  0  0
  -31.8130  -14.5210   19.0240 O   0  0  0  0  0  0  0  0  0  0  0  0
  -30.0410  -15.4360   20.0380 N   0  0  0  0  0  0  0  0  0  0  0  0
  -29.1770  -15.2480   20.5250 H   0  0  0  0  0  0  0  0  0  0  0  0
  -25.4410  -13.6630   20.3720 C   0  0  0  0  0  0  0  0  0  0  0  0
  -24.3710  -12.9400   20.8240 C   0  0  0  0  0  0  0  0  0  0  0  0
  -24.7470  -11.5660   20.7110 C   0  0  0  0  0  0  0  0  0  0  0  0
  -26.4070  -12.7340   20.0180 N   0  0  0  0  0  0  0  0  0  0  0  0
  -25.9960  -11.4650   20.2740 N   0  0  0  0  0  0  0  0  0  0  0  0
  -23.9720  -10.3410   20.9380 C   0  0  0  0  0  0  0  0  0  0  0  0
  -24.4140   -9.3420   21.8340 C   0  0  0  0  0  3  0  0  0  0  0  0
  -23.6420   -8.1790   22.0480 C   0  0  0  0  0  3  0  0  0  0  0  0
  -22.4130   -8.0100   21.3670 C   0  0  0  0  0  0  0  0  0  0  0  0
  -21.9900   -8.9950   20.4590 C   0  0  0  0  0  3  0  0  0  0  0  0
  -22.7620  -10.1480   20.2430 C   0  0  0  0  0  3  0  0  0  0  0  0
  -21.6100   -6.9020   21.4940 O   0  0  0  0  0  0  0  0  0  0  0  0
  -21.5560   -6.1800   22.6600 C   0  0  0  0  0  0  0  0  0  0  0  0
  -21.1970   -6.7760   23.8880 C   0  0  0  0  0  3  0  0  0  0  0  0
  -21.0870   -5.9840   25.0490 C   0  0  0  0  0  3  0  0  0  0  0  0
  -21.3250   -4.5980   24.9820 C   0  0  0  0  0  0  0  0  0  0  0  0
  -21.6780   -4.0030   23.7580 C   0  0  0  0  0  3  0  0  0  0  0  0
  -21.7900   -4.7920   22.6000 C   0  0  0  0  0  0  0  0  0  0  0  0
  -22.1100   -4.2090   21.4180 F   0  0  0  0  0  0  0  0  0  0  0  0
  -21.2120   -3.8360   26.0940 F   0  0  0  0  0  0  0  0  0  0  0  0
  -23.0370  -13.4840   21.2490 C   0  0  0  0  0  0  0  0  0  0  0  0
  -22.3650  -12.8060   22.1740 N   0  0  0  0  0  0  0  0  0  0  0  0
  -22.6050  -14.5420   20.7970 O   0  0  0  0  0  0  0  0  0  0  0  0
  -22.7270  -11.9460   22.5580 H   0  0  0  0  0  0  0  0  0  0  0  0
  -21.4740  -13.1530   22.5020 H   0  0  0  0  0  0  0  0  0  0  0  0
  -25.6660  -15.0280   20.2150 N   0  0  0  0  0  0  0  0  0  0  0  0
  -24.9550  -15.7220   20.4160 H   0  0  0  0  0  0  0  0  0  0  0  0
  -26.5090  -15.4280   19.8220 H   0  0  0  0  0  0  0  0  0  0  0  0
  -27.5390  -23.1200   20.2750 C   0  0  0  0  0  3  0  0  0  0  0  0
  -26.0770  -23.2600   20.1370 N   0  0  0  0  0  4  0  0  0  0  0  0
  -25.7430  -23.7740   20.9330 H   0  0  0  0  0  0  0  0  0  0  0  0
  -25.6560  -22.3490   20.1820 H   0  0  0  0  0  0  0  0  0  0  0  0
  -25.8090  -23.7010   19.2770 H   0  0  0  0  0  0  0  0  0  0  0  0
  -28.3090  -24.3660   19.7500 C   0  0  0  0  0  2  0  0  0  0  0  0
  -27.9730  -25.7390   20.3800 C   0  0  0  0  0  2  0  0  0  0  0  0
  -27.8640  -26.7560   19.3710 O   0  0  0  0  0  0  0  0  0  0  0  0
  -24.4530  -31.7720   23.0760 C   0  0  0  0  0  0  0  0  0  0  0  0
  -26.7350  -27.5270   19.4960 C   0  0  0  0  0  0  0  0  0  0  0  0
  -23.0830  -30.4960   21.4580 C   0  0  0  0  0  3  0  0  0  0  0  0
  -24.3790  -29.0400   19.8120 C   0  0  0  0  0  0  0  0  0  0  0  0
  -25.5880  -30.8380   21.0680 C   0  0  0  0  0  2  0  0  0  0  0  0
  -25.5940  -29.5150   20.3310 C   0  0  0  0  0  0  0  0  0  0  0  0
  -26.7780  -28.7630   20.1700 C   0  0  0  0  0  3  0  0  0  0  0  0
  -25.5180  -27.0660   18.9630 C   0  0  0  0  0  3  0  0  0  0  0  0
  -24.3350  -27.8150   19.1250 C   0  0  0  0  0  3  0  0  0  0  0  0
  -23.1590  -29.9100   20.0230 C   0  0  0  0  0  2  0  0  0  0  0  0
  -24.3960  -31.0470   21.9250 N   0  0  0  0  0  0  0  0  0  0  0  0
  -23.4280  -32.0230   23.7260 O   0  0  0  0  0  0  0  0  0  0  0  0
  -22.5020  -29.4200   22.4030 C   0  0  0  0  0  0  0  0  0  0  0  0
  -21.1810  -29.1960   22.3150 N   0  0  0  0  0  0  0  0  0  0  0  0
  -23.2350  -28.7890   23.1700 O   0  0  0  0  0  0  0  0  0  0  0  0
  -20.6510  -29.7610   21.6660 H   0  0  0  0  0  0  0  0  0  0  0  0
  -17.8890  -27.7870   22.7970 C   0  0  0  0  0  0  0  0  0  0  0  0
  -20.4230  -28.2070   23.0820 C   0  0  0  0  0  3  0  0  0  0  0  0
  -20.6190  -26.7860   22.5040 C   0  0  0  0  0  2  0  0  0  0  0  0
  -19.5440  -26.3940   21.4850 C   0  0  0  0  0  2  0  0  0  0  0  0
  -18.1520  -26.4510   22.1230 C   0  0  0  0  0  2  0  0  0  0  0  0
  -18.9540  -28.6170   23.2330 C   0  0  0  0  0  0  0  0  0  0  0  0
  -18.6540  -29.8630   23.8210 C   0  0  0  0  0  3  0  0  0  0  0  0
  -17.3200  -30.2790   23.9860 C   0  0  0  0  0  3  0  0  0  0  0  0
  -16.2670  -29.4450   23.5690 C   0  0  0  0  0  3  0  0  0  0  0  0
  -16.5530  -28.2020   22.9780 C   0  0  0  0  0  3  0  0  0  0  0  0
  -25.8000  -32.3450   23.6170 C   0  0  0  0  0  3  0  0  0  0  0  0
  -25.5480  -33.7200   24.0650 N   0  0  0  0  0  0  0  0  0  0  0  0
  -25.8540  -34.8180   23.3600 C   0  0  0  0  0  0  0  0  0  0  0  0
  -26.4530  -34.7770   22.2820 O   0  0  0  0  0  0  0  0  0  0  0  0
  -25.0120  -33.8270   24.9150 H   0  0  0  0  0  0  0  0  0  0  0  0
  -24.1500  -36.6660   23.2360 C   0  0  0  0  0  1  0  0  0  0  0  0
  -25.4240  -36.1790   23.9430 C   0  0  0  0  0  3  0  0  0  0  0  0
  -27.6240  -36.9500   24.7130 C   0  0  0  0  0  1  0  0  0  0  0  0
  -26.4760  -37.2140   23.8510 N   0  0  0  0  0  0  0  0  0  0  0  0
  -26.1020  -38.1270   24.0920 H   0  0  0  0  0  0  0  0  0  0  0  0
  -26.4200  -31.4840   24.7840 C   0  0  1  0  0  0  0  0  0  0  0  0
  -25.4290  -31.1890   25.9340 C   0  0  0  0  0  1  0  0  0  0  0  0
  -26.9430  -30.1300   24.2480 C   0  0  0  0  0  1  0  0  0  0  0  0
  -27.6420  -32.2220   25.3820 C   0  0  0  0  0  1  0  0  0  0  0  0
  1  2  1  0
  1  3  2  0
  2  5  1  0
  4  2  1  0
  5  6  1  0
  7  6  1  0
  7  8  1  0
  9  8  1  0
 10  9  1  0
 11 10  1  0
 12 21  1  0
 12 11  1  0
 13 19  1  0
 13 21  1  0
 14 19  1  0
 15 16  1  0
 15 14  1  0
 17 16  1  0
 17 26  1  0
 17 18  1  0
 19 18  1  0
 20 13  2  0
 21 22  1  0
 23 24  2  0
 24 43  1  0
 25 24  1  0
 25 28  1  0
 26 27  1  0
 26 23  1  0
 27 25  2  0
 28 29  1  0
 29 30  2  0
 31 34  1  0
 31 30  1  0
 32 31  2  0
 33 32  1  0
 33 28  2  0
 34 35  1  0
 35 36  1  0
 36 37  2  0
 38 37  1  0
 38 42  1  0
 39 38  2  0
 40 35  2  0
 40 39  1  0
 41 40  1  0
 43 44  1  0
 44 47  1  0
 44 46  1  0
 45 43  2  0
 48 23  1  0
 48 49  1  0
 50 48  1  0
 51 56  1  0
 51  1  1  0
 52 54  1  0
 52 51  1  0
 52 53  1  0
 55 52  1  0
 56 57  1  0
 58 60  1  0
 58 57  1  0
 59 70  2  0
 60 65  1  0
 61 69  1  0
 61 71  1  0
 62 68  1  0
 62 64  1  0
 63 69  1  0
 64 63  1  0
 65 64  2  0
 66 67  1  0
 66 60  2  0
 67 62  2  0
 68 61  1  0
 69 59  1  0
 71 73  2  0
 72 71  1  0
 74 72  1  0
 75 84  2  0
 75 80  1  0
 76 72  1  0
 76 80  1  0
 77 76  1  0
 78 79  1  0
 78 77  1  0
 79 75  1  0
 80 81  2  0
 81 82  1  0
 83 82  2  0
 84 83  1  0
 85 59  1  0
 85 86  1  0
 85 95  1  0
 86 89  1  0
 87 91  1  0
 87 86  1  0
 88 87  2  0
 91 90  1  0
 93 91  1  0
 93 94  1  0
 93 92  1  0
 95 98  1  1
 95 96  1  0
 97 95  1  0
M  ISO  4  13 100  21 100  57 101  58 101
M  END
>  <TORSDO>  (32) 
F 28

>  <SCORE>  (32) 
-9.633

>  <name>  (32) 
31

>  <ligand_id>  (32) 
31

>  <original_smiles>  (32) 
[H]c1c([H])c([H])c2c(c1[H])C([H])([H])C([H])([H])C([H])([H])C2([H])N([H])C(=O)C1([H])N(C(=O)C([H])(N([H])C(=O)C([H])(N([H])C([H])([H])[H])C([H])([H])[H])C(C([H])([H])[H])(C([H])([H])[H])C([H])([H])[H])C([H])([H])c2c([H])c(OC([H])([H])C([H])([H])C([H])(C(=O)N([H])C([H])([H])C([H])([H])OC([H])([H])C([H])([H])OC([H])([H])C([H])([H])N([H])C(=O)N3C([H])([H])C([H])([H])C([H])([H])C([H])(n4nc(-c5c([H])c([H])c(Oc6c([H])c([H])c(F)c([H])c6F)c([H])c5[H])c(C(=O)N([H])[H])c4N([H])[H])C3([H])[H])[N+]([H])([H])[H])c([H])c([H])c2C1([H])[H]

>  <smiles>  (32) 
[H]c1c([H])c([H])c2c(c1[H])C([H])([H])C([H])([H])C([H])([H])C2([H])N([H])C(=O)C1([H])N(C(=O)C([H])(N([H])C(=O)C([H])(N([H])C([H])([H])[H])C([H])([H])[H])C(C([H])([H])[H])(C([H])([H])[H])C([H])([H])[H])C([H])([H])c2c([H])c(OC([H])([H])C([H])([H])C([H])(C(=O)N([H])C([H])([H])C([H])([H])OC([H])([H])C([H])([H])OC([H])([H])C([H])([H])N([H])C(=O)N3C([H])([H])C([H])([H])C([H])([H])C([H])(n4nc(-c5c([H])c([H])c(Oc6c([H])c([H])c(F)c([H])c6F)c([H])c5[H])c(C(=O)N([H])[H])c4N([H])[H])C3([H])[H])[N+]([H])([H])[H])c([H])c([H])c2C1([H])[H]

$$$$
32:0:0
     RDKit          3D

103110  0  0  1  0  0  0  0  0999 V2000
  -28.3740  -22.8230   22.1590 C   0  0  0  0  0  0  0  0  0  0  0  0
  -28.8800  -21.6670   21.7130 N   0  0  0  0  0  0  0  0  0  0  0  0
  -28.8800  -23.4630   23.0790 O   0  0  0  0  0  0  0  0  0  0  0  0
  -28.4400  -21.2640   20.8980 H   0  0  0  0  0  0  0  0  0  0  0  0
  -29.6990  -20.3540   23.5970 C   0  0  0  0  0  1  0  0  0  0  0  0
  -30.0400  -20.9220   22.2030 C   0  0  0  0  0  3  0  0  0  0  0  0
  -30.4310  -19.8700   21.1260 C   0  0  0  0  0  0  0  0  0  0  0  0
  -30.5300  -20.2020   19.9390 O   0  0  0  0  0  0  0  0  0  0  0  0
  -30.6160  -18.3890   21.5230 C   0  0  0  0  0  3  0  0  0  0  0  0
  -29.3410  -17.7450   21.1280 N   0  0  0  0  0  4  0  0  0  0  0  0
  -29.2270  -17.7510   20.1250 H   0  0  0  0  0  0  0  0  0  0  0  0
  -28.5750  -18.2810   21.4930 H   0  0  0  0  0  0  0  0  0  0  0  0
  -29.2490  -16.8180   21.4950 H   0  0  0  0  0  0  0  0  0  0  0  0
  -31.8660  -17.7320   20.8520 C   0  0  0  0  0  2  0  0  0  0  0  0
  -32.4380  -15.3790   20.1340 C   0  0  0  0  0  0  0  0  0  0  0  0
  -32.1550  -13.1340   19.1480 C   0  0  0  0  0  2  0  0  0  0  0  0
  -31.2860  -13.2170   17.8750 C   0  0  0  0  0  2  0  0  0  0  0  0
  -29.7760  -13.2100   18.2010 C   0  0  0  0  0  2  0  0  0  0  0  0
  -29.4110  -14.2190   19.3190 C   0  0  0  0  0  3  0  0  0  0  0  0
  -30.3580  -14.0160   20.5210 C   0  0  0  0  0  2  0  0  0  0  0  0
  -31.7490  -14.2110   20.0560 N   0  0  0  0  0  0  0  0  0  0  0  0
  -33.4860  -15.6140   19.5230 O   0  0  0  0  0  0  0  0  0  0  0  0
  -31.8220  -16.2680   20.9240 N   0  0  0  0  0  0  0  0  0  0  0  0
  -31.1090  -15.8440   21.4940 H   0  0  0  0  0  0  0  0  0  0  0  0
  -27.0300  -15.0900   19.7830 C   0  0  0  0  0  0  0  0  0  0  0  0
  -25.8810  -14.4430   20.1590 C   0  0  0  0  0  0  0  0  0  0  0  0
  -26.2290  -13.0660   20.2930 C   0  0  0  0  0  0  0  0  0  0  0  0
  -28.0070  -14.1070   19.7080 N   0  0  0  0  0  0  0  0  0  0  0  0
  -27.5250  -12.8950   20.0730 N   0  0  0  0  0  0  0  0  0  0  0  0
  -25.3970  -11.8880   20.5650 C   0  0  0  0  0  0  0  0  0  0  0  0
  -25.7020  -10.9990   21.6180 C   0  0  0  0  0  3  0  0  0  0  0  0
  -24.8810   -9.8780   21.8720 C   0  0  0  0  0  3  0  0  0  0  0  0
  -23.7390   -9.6440   21.0710 C   0  0  0  0  0  0  0  0  0  0  0  0
  -23.4520  -10.5170   20.0080 C   0  0  0  0  0  3  0  0  0  0  0  0
  -24.2750  -11.6270   19.7540 C   0  0  0  0  0  3  0  0  0  0  0  0
  -22.8960   -8.5700   21.2290 O   0  0  0  0  0  0  0  0  0  0  0  0
  -22.5380   -8.1110   22.4710 C   0  0  0  0  0  0  0  0  0  0  0  0
  -21.9360   -8.9530   23.4320 C   0  0  0  0  0  3  0  0  0  0  0  0
  -21.5200   -8.4230   24.6700 C   0  0  0  0  0  3  0  0  0  0  0  0
  -21.6970   -7.0530   24.9450 C   0  0  0  0  0  0  0  0  0  0  0  0
  -22.2930   -6.2130   23.9890 C   0  0  0  0  0  3  0  0  0  0  0  0
  -22.7090   -6.7420   22.7540 C   0  0  0  0  0  0  0  0  0  0  0  0
  -23.2620   -5.9240   21.8270 F   0  0  0  0  0  0  0  0  0  0  0  0
  -21.2900   -6.5430   26.1300 F   0  0  0  0  0  0  0  0  0  0  0  0
  -24.5110  -15.0480   20.2850 C   0  0  0  0  0  0  0  0  0  0  0  0
  -23.6660  -14.4860   21.1450 N   0  0  0  0  0  0  0  0  0  0  0  0
  -24.1980  -16.0520   19.6490 O   0  0  0  0  0  0  0  0  0  0  0  0
  -23.9280  -13.6730   21.6830 H   0  0  0  0  0  0  0  0  0  0  0  0
  -22.7410  -14.8750   21.2670 H   0  0  0  0  0  0  0  0  0  0  0  0
  -27.3350  -16.4160   19.4810 N   0  0  0  0  0  0  0  0  0  0  0  0
  -26.5180  -17.0070   19.3550 H   0  0  0  0  0  0  0  0  0  0  0  0
  -27.9600  -16.5160   18.6890 H   0  0  0  0  0  0  0  0  0  0  0  0
  -27.1340  -23.3280   21.3990 C   0  0  0  0  0  3  0  0  0  0  0  0
  -27.5180  -23.7330   20.0270 N   0  0  0  0  0  4  0  0  0  0  0  0
  -28.3610  -23.2290   19.8040 H   0  0  0  0  0  0  0  0  0  0  0  0
  -26.8050  -23.3670   19.4150 H   0  0  0  0  0  0  0  0  0  0  0  0
  -27.6810  -25.1540   19.6560 C   0  0  0  0  0  2  0  0  0  0  0  0
  -29.0340  -25.8000   20.0420 C   0  0  0  0  0  2  0  0  0  0  0  0
  -29.0880  -27.3240   19.7920 C   0  0  0  0  0  2  0  0  0  0  0  0
  -28.4030  -27.6900   18.5840 O   0  0  0  0  0  0  0  0  0  0  0  0
  -24.3000  -31.4880   22.9450 C   0  0  0  0  0  0  0  0  0  0  0  0
  -27.1780  -28.2750   18.7930 C   0  0  0  0  0  0  0  0  0  0  0  0
  -23.1260  -30.3100   21.1120 C   0  0  0  0  0  3  0  0  0  0  0  0
  -24.6170  -29.3450   19.2830 C   0  0  0  0  0  0  0  0  0  0  0  0
  -25.5480  -31.0700   20.8390 C   0  0  0  0  0  2  0  0  0  0  0  0
  -25.7410  -29.9020   19.9040 C   0  0  0  0  0  0  0  0  0  0  0  0
  -27.0220  -29.3700   19.6690 C   0  0  0  0  0  3  0  0  0  0  0  0
  -26.0450  -27.7590   18.1280 C   0  0  0  0  0  3  0  0  0  0  0  0
  -24.7610  -28.2670   18.3930 C   0  0  0  0  0  3  0  0  0  0  0  0
  -23.2800  -29.9730   19.6040 C   0  0  0  0  0  2  0  0  0  0  0  0
  -24.3440  -30.9600   21.6900 N   0  0  0  0  0  0  0  0  0  0  0  0
  -23.2520  -31.4800   23.6050 O   0  0  0  0  0  0  0  0  0  0  0  0
  -22.7090  -29.0250   21.8610 C   0  0  0  0  0  0  0  0  0  0  0  0
  -21.4360  -28.6300   21.7030 N   0  0  0  0  0  0  0  0  0  0  0  0
  -23.5270  -28.3920   22.5330 O   0  0  0  0  0  0  0  0  0  0  0  0
  -20.8260  -29.2140   21.1480 H   0  0  0  0  0  0  0  0  0  0  0  0
  -18.4000  -26.6770   21.8130 C   0  0  0  0  0  0  0  0  0  0  0  0
  -20.8290  -27.4310   22.2790 C   0  0  0  0  0  3  0  0  0  0  0  0
  -21.2680  -26.1620   21.5110 C   0  0  0  0  0  2  0  0  0  0  0  0
  -20.2920  -25.7500   20.4060 C   0  0  0  0  0  2  0  0  0  0  0  0
  -18.8910  -25.5060   20.9760 C   0  0  0  0  0  2  0  0  0  0  0  0
  -19.3110  -27.5860   22.4140 C   0  0  0  0  0  0  0  0  0  0  0  0
  -18.7990  -28.6730   23.1570 C   0  0  0  0  0  3  0  0  0  0  0  0
  -17.4110  -28.8530   23.3090 C   0  0  0  0  0  3  0  0  0  0  0  0
  -16.5180  -27.9410   22.7240 C   0  0  0  0  0  3  0  0  0  0  0  0
  -17.0120  -26.8560   21.9780 C   0  0  0  0  0  3  0  0  0  0  0  0
  -25.5540  -32.1480   23.5990 C   0  0  0  0  0  3  0  0  0  0  0  0
  -25.1530  -33.4750   24.0860 N   0  0  0  0  0  0  0  0  0  0  0  0
  -25.4130  -34.6270   23.4530 C   0  0  0  0  0  0  0  0  0  0  0  0
  -26.0920  -34.6890   22.4230 O   0  0  0  0  0  0  0  0  0  0  0  0
  -24.5570  -33.4980   24.9000 H   0  0  0  0  0  0  0  0  0  0  0  0
  -23.5600  -36.3140   23.2950 C   0  0  0  0  0  1  0  0  0  0  0  0
  -24.8300  -35.9160   24.0630 C   0  0  0  0  0  3  0  0  0  0  0  0
  -26.9030  -36.8460   24.9950 C   0  0  0  0  0  1  0  0  0  0  0  0
  -25.7850  -37.0450   24.0760 N   0  0  0  0  0  0  0  0  0  0  0  0
  -25.3150  -37.9090   24.3330 H   0  0  0  0  0  0  0  0  0  0  0  0
  -26.1750  -31.2890   24.7670 C   0  0  1  0  0  0  0  0  0  0  0  0
  -25.1410  -30.8580   25.8320 C   0  0  0  0  0  1  0  0  0  0  0  0
  -26.8400  -30.0090   24.2080 C   0  0  0  0  0  1  0  0  0  0  0  0
  -27.2850  -32.0960   25.4780 C   0  0  0  0  0  1  0  0  0  0  0  0
  -26.6680  -25.3870   23.0400 C   0  0  0  0  0  1  0  0  0  0  0  0
  -25.1950  -23.3920   23.0900 C   0  0  0  0  0  1  0  0  0  0  0  0
  -26.1130  -24.2330   22.1770 C   0  0  0  0  0  3  0  0  0  0  0  0
  1  3  2  0
  2  1  1  0
  2  6  1  0
  4  2  1  0
  6  5  1  0
  7  9  1  0
  7  6  1  0
  8  7  2  0
  9 14  1  0
 10 12  1  0
 10 13  1  0
 10  9  1  0
 11 10  1  0
 14 23  1  0
 15 23  1  0
 16 21  1  0
 17 18  1  0
 17 16  1  0
 19 18  1  0
 19 28  1  0
 19 20  1  0
 21 15  1  0
 21 20  1  0
 22 15  2  0
 23 24  1  0
 25 26  2  0
 26 45  1  0
 26 27  1  0
 27 30  1  0
 28 25  1  0
 28 29  1  0
 29 27  2  0
 30 31  1  0
 31 32  2  0
 33 36  1  0
 33 32  1  0
 34 33  2  0
 35 34  1  0
 35 30  2  0
 36 37  1  0
 37 42  2  0
 37 38  1  0
 38 39  2  0
 39 40  1  0
 40 44  1  0
 41 40  2  0
 42 41  1  0
 43 42  1  0
 45 46  1  0
 46 49  1  0
 46 48  1  0
 47 45  2  0
 50 25  1  0
 51 50  1  0
 52 50  1  0
 53  1  1  0
 53103  1  0
 54 53  1  0
 55 54  1  0
 56 54  1  0
 57 54  1  0
 57 58  1  0
 59 58  1  0
 60 62  1  0
 60 59  1  0
 61 72  2  0
 62 67  1  0
 63 71  1  0
 63 73  1  0
 64 70  1  0
 64 66  1  0
 65 71  1  0
 66 65  1  0
 67 66  2  0
 68 69  1  0
 68 62  2  0
 69 64  2  0
 70 63  1  0
 71 61  1  0
 73 75  2  0
 74 73  1  0
 76 74  1  0
 77 86  2  0
 77 82  1  0
 78 74  1  0
 78 82  1  0
 79 78  1  0
 80 81  1  0
 80 79  1  0
 81 77  1  0
 82 83  2  0
 83 84  1  0
 85 84  2  0
 86 85  1  0
 87 61  1  0
 87 88  1  0
 87 97  1  0
 88 91  1  0
 89 93  1  0
 89 88  1  0
 90 89  2  0
 93 92  1  0
 93 95  1  0
 95 96  1  0
 95 94  1  0
 97100  1  1
 97 98  1  0
 99 97  1  0
103101  1  0
103102  1  0
M  ISO  4  15 100  23 100  59 101  60 101
M  END
>  <TORSDO>  (33) 
F 27

>  <SCORE>  (33) 
-4.091

>  <name>  (33) 
32

>  <ligand_id>  (33) 
32

>  <original_smiles>  (33) 
[H]c1c([H])c([H])c2c(c1[H])C([H])([H])C([H])([H])C([H])([H])C2([H])N([H])C(=O)C1([H])N(C(=O)C([H])(N([H])C(=O)C([H])(N([H])C([H])([H])[H])C([H])([H])[H])C(C([H])([H])[H])(C([H])([H])[H])C([H])([H])[H])C([H])([H])c2c([H])c(OC([H])([H])C([H])([H])C([H])([H])[N+]([H])([H])C([H])(C(=O)N([H])C([H])(C(=O)C([H])(C([H])([H])N([H])C(=O)N3C([H])([H])C([H])([H])C([H])([H])C([H])(n4nc(-c5c([H])c([H])c(Oc6c([H])c([H])c(F)c([H])c6F)c([H])c5[H])c(C(=O)N([H])[H])c4N([H])[H])C3([H])[H])[N+]([H])([H])[H])C([H])([H])[H])C([H])(C([H])([H])[H])C([H])([H])[H])c([H])c([H])c2C1([H])[H]

>  <smiles>  (33) 
[H]c1c([H])c([H])c2c(c1[H])C([H])([H])C([H])([H])C([H])([H])C2([H])N([H])C(=O)C1([H])N(C(=O)C([H])(N([H])C(=O)C([H])(N([H])C([H])([H])[H])C([H])([H])[H])C(C([H])([H])[H])(C([H])([H])[H])C([H])([H])[H])C([H])([H])c2c([H])c(OC([H])([H])C([H])([H])C([H])([H])[N+]([H])([H])C([H])(C(=O)N([H])C([H])(C(=O)C([H])(C([H])([H])N([H])C(=O)N3C([H])([H])C([H])([H])C([H])([H])C([H])(n4nc(-c5c([H])c([H])c(Oc6c([H])c([H])c(F)c([H])c6F)c([H])c5[H])c(C(=O)N([H])[H])c4N([H])[H])C3([H])[H])[N+]([H])([H])[H])C([H])([H])[H])C([H])(C([H])([H])[H])C([H])([H])[H])c([H])c([H])c2C1([H])[H]

$$$$
33:0:0
     RDKit          3D

 96103  0  0  1  0  0  0  0  0999 V2000
  -30.8770  -19.0840   21.8700 C   0  0  0  0  0  1  0  0  0  0  0  0
  -29.7440  -19.0120   20.8160 C   0  0  0  0  0  3  0  0  0  0  0  0
  -29.5600  -20.4320   20.0950 N   0  0  0  0  0  4  0  0  0  0  0  0
  -30.4900  -20.7280   19.8350 H   0  0  0  0  0  0  0  0  0  0  0  0
  -29.0660  -20.2360   19.2410 H   0  0  0  0  0  0  0  0  0  0  0  0
  -28.8720  -21.7260   20.7300 C   0  0  0  0  0  2  0  0  0  0  0  0
  -28.9560  -23.2970   20.0730 C   0  0  0  0  0  3  0  0  0  0  0  0
  -28.2070  -24.6950   20.6940 C   0  0  0  0  0  3  0  0  0  0  0  0
  -28.3940  -26.2070   20.3180 O   0  0  0  0  0  0  0  0  0  0  0  0
  -24.6310  -31.8730   23.2160 C   0  0  0  0  0  0  0  0  0  0  0  0
  -27.3150  -27.1610   20.2820 C   0  0  0  0  0  0  0  0  0  0  0  0
  -23.4760  -30.4520   21.5690 C   0  0  0  0  0  3  0  0  0  0  0  0
  -24.9670  -28.8810   20.1860 C   0  0  0  0  0  0  0  0  0  0  0  0
  -26.0340  -30.7490   21.4420 C   0  0  0  0  0  2  0  0  0  0  0  0
  -26.1350  -29.3520   20.8000 C   0  0  0  0  0  0  0  0  0  0  0  0
  -27.3120  -28.5140   20.8200 C   0  0  0  0  0  3  0  0  0  0  0  0
  -26.1200  -26.7830   19.6350 C   0  0  0  0  0  3  0  0  0  0  0  0
  -24.9740  -27.6090   19.5920 C   0  0  0  0  0  3  0  0  0  0  0  0
  -23.7290  -29.7590   20.2050 C   0  0  0  0  0  2  0  0  0  0  0  0
  -24.7340  -31.0430   22.1340 N   0  0  0  0  0  0  0  0  0  0  0  0
  -23.5330  -32.1510   23.7250 O   0  0  0  0  0  0  0  0  0  0  0  0
  -22.7920  -29.4470   22.5310 C   0  0  0  0  0  0  0  0  0  0  0  0
  -21.4630  -29.2790   22.4020 N   0  0  0  0  0  0  0  0  0  0  0  0
  -23.4620  -28.8160   23.3540 O   0  0  0  0  0  0  0  0  0  0  0  0
  -20.9820  -29.8230   21.6990 H   0  0  0  0  0  0  0  0  0  0  0  0
  -18.0780  -28.1120   22.9190 C   0  0  0  0  0  0  0  0  0  0  0  0
  -20.6410  -28.3430   23.1730 C   0  0  0  0  0  3  0  0  0  0  0  0
  -20.7280  -26.9160   22.5810 C   0  0  0  0  0  2  0  0  0  0  0  0
  -19.6170  -26.6160   21.5730 C   0  0  0  0  0  2  0  0  0  0  0  0
  -18.2380  -26.7700   22.2230 C   0  0  0  0  0  2  0  0  0  0  0  0
  -19.2070  -28.8570   23.3500 C   0  0  0  0  0  0  0  0  0  0  0  0
  -19.0010  -30.1150   23.9570 C   0  0  0  0  0  3  0  0  0  0  0  0
  -17.7020  -30.6240   24.1430 C   0  0  0  0  0  3  0  0  0  0  0  0
  -16.5890  -29.8740   23.7310 C   0  0  0  0  0  3  0  0  0  0  0  0
  -16.7770  -28.6210   23.1220 C   0  0  0  0  0  3  0  0  0  0  0  0
  -25.8900  -32.5330   23.8600 C   0  0  0  0  0  3  0  0  0  0  0  0
  -25.5580  -33.9330   24.1680 N   0  0  0  0  0  0  0  0  0  0  0  0
  -25.9030  -34.9850   23.4120 C   0  0  0  0  0  0  0  0  0  0  0  0
  -26.5990  -34.8800   22.3990 O   0  0  0  0  0  0  0  0  0  0  0  0
  -24.9460  -34.0910   24.9540 H   0  0  0  0  0  0  0  0  0  0  0  0
  -24.1760  -36.7660   23.0140 C   0  0  0  0  0  1  0  0  0  0  0  0
  -25.3990  -36.3740   23.8550 C   0  0  0  0  0  3  0  0  0  0  0  0
  -27.5060  -37.2710   24.7360 C   0  0  0  0  0  1  0  0  0  0  0  0
  -26.4270  -37.4320   23.7650 N   0  0  0  0  0  0  0  0  0  0  0  0
  -26.0130  -38.3470   23.9070 H   0  0  0  0  0  0  0  0  0  0  0  0
  -26.3810  -31.7890   25.1610 C   0  0  1  0  0  0  0  0  0  0  0  0
  -25.2600  -31.5610   26.2040 C   0  0  0  0  0  1  0  0  0  0  0  0
  -26.9850  -30.4110   24.8030 C   0  0  0  0  0  1  0  0  0  0  0  0
  -27.5140  -32.6030   25.8290 C   0  0  0  0  0  1  0  0  0  0  0  0
  -29.9480  -17.5410   19.9780 C   0  0  0  0  0  0  0  0  0  0  0  0
  -30.9320  -14.9860   20.2690 C   0  0  0  0  0  0  0  0  0  0  0  0
  -30.7580  -12.6430   19.3430 C   0  0  0  0  0  2  0  0  0  0  0  0
  -29.8480  -12.6710   18.0930 C   0  0  0  0  0  2  0  0  0  0  0  0
  -28.3710  -12.5150   18.5010 C   0  0  0  0  0  2  0  0  0  0  0  0
  -27.9910  -13.4320   19.6990 C   0  0  0  0  0  3  0  0  0  0  0  0
  -29.0250  -13.3650   20.8430 C   0  0  0  0  0  2  0  0  0  0  0  0
  -30.3260  -13.7320   20.2690 N   0  0  0  0  0  0  0  0  0  0  0  0
  -32.0810  -15.0560   19.8200 O   0  0  0  0  0  0  0  0  0  0  0  0
  -30.2500  -16.1550   20.6690 N   0  0  0  0  0  4  0  0  0  0  0  0
  -29.4590  -15.8960   21.2410 H   0  0  0  0  0  0  0  0  0  0  0  0
  -25.6190  -14.0780   20.3970 C   0  0  0  0  0  0  0  0  0  0  0  0
  -24.5290  -13.3360   20.7660 C   0  0  0  0  0  0  0  0  0  0  0  0
  -24.9530  -11.9730   20.7400 C   0  0  0  0  0  0  0  0  0  0  0  0
  -26.6390  -13.1700   20.1730 N   0  0  0  0  0  0  0  0  0  0  0  0
  -26.2470  -11.8980   20.4440 N   0  0  0  0  0  0  0  0  0  0  0  0
  -24.1880  -10.7320   20.9230 C   0  0  0  0  0  0  0  0  0  0  0  0
  -24.5670   -9.7670   21.8820 C   0  0  0  0  0  3  0  0  0  0  0  0
  -23.8030   -8.5930   22.0550 C   0  0  0  0  0  3  0  0  0  0  0  0
  -22.6500   -8.3770   21.2640 C   0  0  0  0  0  0  0  0  0  0  0  0
  -22.2910   -9.3270   20.2930 C   0  0  0  0  0  3  0  0  0  0  0  0
  -23.0550  -10.4920   20.1180 C   0  0  0  0  0  3  0  0  0  0  0  0
  -21.8600   -7.2530   21.3470 O   0  0  0  0  0  0  0  0  0  0  0  0
  -21.7220   -6.5540   22.5180 C   0  0  0  0  0  0  0  0  0  0  0  0
  -21.2360   -7.1580   23.6970 C   0  0  0  0  0  3  0  0  0  0  0  0
  -21.0460   -6.3840   24.8590 C   0  0  0  0  0  3  0  0  0  0  0  0
  -21.3280   -5.0030   24.8430 C   0  0  0  0  0  0  0  0  0  0  0  0
  -21.8070   -4.4010   23.6660 C   0  0  0  0  0  3  0  0  0  0  0  0
  -21.9980   -5.1720   22.5070 C   0  0  0  0  0  0  0  0  0  0  0  0
  -22.4390   -4.5790   21.3720 F   0  0  0  0  0  0  0  0  0  0  0  0
  -21.1390   -4.2580   25.9560 F   0  0  0  0  0  0  0  0  0  0  0  0
  -23.1450  -13.8570   21.0220 C   0  0  0  0  0  0  0  0  0  0  0  0
  -22.4000  -13.1990   21.9050 N   0  0  0  0  0  0  0  0  0  0  0  0
  -22.7290  -14.8750   20.4700 O   0  0  0  0  0  0  0  0  0  0  0  0
  -22.7540  -12.3810   22.3730 H   0  0  0  0  0  0  0  0  0  0  0  0
  -21.4650  -13.5240   22.1170 H   0  0  0  0  0  0  0  0  0  0  0  0
  -25.8150  -15.4430   20.2160 N   0  0  0  0  0  0  0  0  0  0  0  0
  -25.0190  -16.0760   20.2290 H   0  0  0  0  0  0  0  0  0  0  0  0
  -26.6340  -15.8470   19.7820 H   0  0  0  0  0  0  0  0  0  0  0  0
  -30.3480  -17.5900   18.4830 C   0  0  0  0  0  0  0  0  0  0  0  0
  -31.6290  -17.7720   18.1100 N   0  0  0  0  0  0  0  0  0  0  0  0
  -29.4580  -17.4080   17.6470 O   0  0  0  0  0  0  0  0  0  0  0  0
  -32.3140  -17.7990   18.8550 H   0  0  0  0  0  0  0  0  0  0  0  0
  -33.5690  -18.4690   16.8040 C   0  0  0  0  0  1  0  0  0  0  0  0
  -32.2530  -16.4740   16.0730 C   0  0  0  0  0  1  0  0  0  0  0  0
  -31.3080  -18.8060   15.8360 C   0  0  0  0  0  1  0  0  0  0  0  0
  -32.1570  -17.8680   16.7310 C   0  0  1  0  0  0  0  0  0  0  0  0
  2  1  1  0
  3  6  1  0
  3  2  1  0
  4  3  1  0
  5  3  1  0
  7  8  2  0
  7  6  1  0
  9  8  1  0
 10 21  2  0
 11  9  1  0
 11 16  1  0
 12 20  1  0
 12 22  1  0
 13 19  1  0
 13 15  1  0
 14 20  1  0
 15 16  2  0
 15 14  1  0
 17 11  2  0
 18 17  1  0
 18 13  2  0
 19 12  1  0
 20 10  1  0
 22 24  2  0
 23 22  1  0
 25 23  1  0
 26 35  2  0
 26 31  1  0
 27 23  1  0
 27 31  1  0
 28 27  1  0
 29 30  1  0
 29 28  1  0
 30 26  1  0
 31 32  2  0
 32 33  1  0
 34 33  2  0
 35 34  1  0
 36 10  1  0
 36 37  1  0
 36 46  1  0
 37 40  1  0
 38 42  1  0
 38 37  1  0
 39 38  2  0
 42 41  1  0
 44 42  1  0
 44 45  1  0
 44 43  1  0
 46 49  1  1
 46 47  1  0
 48 46  1  0
 50 59  2  0
 50  2  1  0
 51 57  1  0
 51 59  1  0
 52 57  1  0
 53 54  1  0
 53 52  1  0
 55 54  1  0
 55 64  1  0
 55 56  1  0
 57 56  1  0
 58 51  2  0
 59 60  1  0
 61 62  2  0
 62 81  1  0
 63 62  1  0
 63 66  1  0
 64 61  1  0
 64 65  1  0
 65 63  2  0
 66 67  1  0
 67 68  2  0
 69 72  1  0
 69 68  1  0
 70 69  2  0
 71 70  1  0
 71 66  2  0
 72 73  1  0
 73 74  1  0
 74 75  2  0
 76 75  1  0
 76 80  1  0
 77 76  2  0
 78 73  2  0
 78 77  1  0
 79 78  1  0
 81 82  1  0
 82 85  1  0
 82 84  1  0
 83 81  2  0
 86 87  1  0
 86 61  1  0
 88 86  1  0
 89 50  1  0
 90 89  1  0
 90 92  1  0
 91 89  2  0
 96 94  1  6
 95 96  1  0
 96 93  1  0
 96 90  1  0
M  ISO  4   8 101   9 101  51 100  59 100
M  END
>  <TORSDO>  (34) 
F 23

>  <SCORE>  (34) 
-13.785

>  <name>  (34) 
33

>  <ligand_id>  (34) 
33

>  <original_smiles>  (34) 
[H]c1c([H])c([H])c2c(c1[H])C([H])([H])C([H])([H])C([H])([H])C2([H])N([H])C(=O)C1([H])N(C(=O)C([H])(N([H])C(=O)C([H])(N([H])C([H])([H])[H])C([H])([H])[H])C(C([H])([H])[H])(C([H])([H])[H])C([H])([H])[H])C([H])([H])c2c([H])c(OC([H])([H])C([H])([H])C([H])([H])[N+]([H])([H])C([H])(C([H])([H])[H])C([H])(C(=O)N([H])C(C([H])([H])[H])(C([H])([H])[H])C([H])([H])[H])N([H])C(=O)N3C([H])([H])C([H])([H])C([H])([H])C([H])(n4nc(-c5c([H])c([H])c(Oc6c([H])c([H])c(F)c([H])c6F)c([H])c5[H])c(C(=O)N([H])[H])c4N([H])[H])C3([H])[H])c([H])c([H])c2C1([H])[H]

>  <smiles>  (34) 
[H]c1c([H])c([H])c2c(c1[H])C([H])([H])C([H])([H])C([H])([H])C2([H])N([H])C(=O)C1([H])N(C(=O)C([H])(N([H])C(=O)C([H])(N([H])C([H])([H])[H])C([H])([H])[H])C(C([H])([H])[H])(C([H])([H])[H])C([H])([H])[H])C([H])([H])c2c([H])c(OC([H])([H])C([H])([H])C([H])([H])[N+]([H])([H])C([H])(C([H])([H])[H])C([H])(C(=O)N([H])C(C([H])([H])[H])(C([H])([H])[H])C([H])([H])[H])N([H])C(=O)N3C([H])([H])C([H])([H])C([H])([H])C([H])(n4nc(-c5c([H])c([H])c(Oc6c([H])c([H])c(F)c([H])c6F)c([H])c5[H])c(C(=O)N([H])[H])c4N([H])[H])C3([H])[H])c([H])c([H])c2C1([H])[H]

$$$$
34:0:0
     RDKit          3D

 97104  0  0  1  0  0  0  0  0999 V2000
  -27.2370  -20.2270   20.8570 C   0  0  0  0  0  1  0  0  0  0  0  0
  -28.1990  -20.1750   19.6510 C   0  0  0  0  0  3  0  0  0  0  0  0
  -28.9030  -21.5490   19.4510 C   0  0  0  0  0  0  0  0  0  0  0  0
  -28.1410  -22.6160   19.1240 N   0  0  0  0  0  0  0  0  0  0  0  0
  -30.1210  -21.6440   19.6190 O   0  0  0  0  0  0  0  0  0  0  0  0
  -27.1540  -22.4360   19.0010 H   0  0  0  0  0  0  0  0  0  0  0  0
  -28.5720  -24.0270   18.9700 C   0  0  0  0  0  2  0  0  0  0  0  0
  -27.3550  -24.9840   18.7960 C   0  0  0  0  0  2  0  0  0  0  0  0
  -27.5960  -26.4130   18.9250 O   0  0  0  0  0  0  0  0  0  0  0  0
  -24.4040  -31.4110   22.9380 C   0  0  0  0  0  0  0  0  0  0  0  0
  -26.4750  -27.2200   19.1080 C   0  0  0  0  0  0  0  0  0  0  0  0
  -22.9530  -30.2000   21.3480 C   0  0  0  0  0  3  0  0  0  0  0  0
  -24.1570  -28.7970   19.5920 C   0  0  0  0  0  0  0  0  0  0  0  0
  -25.4450  -30.5250   20.8470 C   0  0  0  0  0  2  0  0  0  0  0  0
  -25.4030  -29.2250   20.0660 C   0  0  0  0  0  0  0  0  0  0  0  0
  -26.5650  -28.4450   19.8190 C   0  0  0  0  0  3  0  0  0  0  0  0
  -25.2030  -26.8350   18.6170 C   0  0  0  0  0  3  0  0  0  0  0  0
  -24.0540  -27.6030   18.8630 C   0  0  0  0  0  3  0  0  0  0  0  0
  -22.9570  -29.6680   19.8920 C   0  0  0  0  0  2  0  0  0  0  0  0
  -24.2950  -30.7210   21.7660 N   0  0  0  0  0  0  0  0  0  0  0  0
  -23.4120  -31.6440   23.6420 O   0  0  0  0  0  0  0  0  0  0  0  0
  -22.4070  -29.0940   22.2820 C   0  0  0  0  0  0  0  0  0  0  0  0
  -21.0890  -28.8420   22.2090 N   0  0  0  0  0  0  0  0  0  0  0  0
  -23.1620  -28.4680   23.0290 O   0  0  0  0  0  0  0  0  0  0  0  0
  -20.5340  -29.4050   21.5800 H   0  0  0  0  0  0  0  0  0  0  0  0
  -17.8500  -27.3070   22.6710 C   0  0  0  0  0  0  0  0  0  0  0  0
  -20.3650  -27.8230   22.9680 C   0  0  0  0  0  3  0  0  0  0  0  0
  -20.6180  -26.4120   22.3880 C   0  0  0  0  0  2  0  0  0  0  0  0
  -19.5650  -25.9830   21.3620 C   0  0  0  0  0  2  0  0  0  0  0  0
  -18.1680  -25.9850   21.9920 C   0  0  0  0  0  2  0  0  0  0  0  0
  -18.8810  -28.1760   23.1140 C   0  0  0  0  0  0  0  0  0  0  0  0
  -18.5290  -29.4090   23.7070 C   0  0  0  0  0  3  0  0  0  0  0  0
  -17.1790  -29.7740   23.8620 C   0  0  0  0  0  3  0  0  0  0  0  0
  -16.1620  -28.9030   23.4330 C   0  0  0  0  0  3  0  0  0  0  0  0
  -16.4970  -27.6710   22.8440 C   0  0  0  0  0  3  0  0  0  0  0  0
  -25.7770  -31.9600   23.4350 C   0  0  0  0  0  3  0  0  0  0  0  0
  -26.4360  -31.0640   24.5540 C   0  0  1  0  0  0  0  0  0  0  0  0
  -25.4880  -30.7470   25.7340 C   0  0  0  0  0  1  0  0  0  0  0  0
  -26.9220  -29.7200   23.9630 C   0  0  0  0  0  1  0  0  0  0  0  0
  -27.6850  -31.7750   25.1260 C   0  0  0  0  0  1  0  0  0  0  0  0
  -25.5560  -33.3260   23.9270 N   0  0  0  0  0  0  0  0  0  0  0  0
  -25.8310  -34.4380   23.2320 C   0  0  0  0  0  0  0  0  0  0  0  0
  -26.3720  -34.4190   22.1230 O   0  0  0  0  0  0  0  0  0  0  0  0
  -25.0680  -33.4170   24.8050 H   0  0  0  0  0  0  0  0  0  0  0  0
  -24.1300  -36.2920   23.2520 C   0  0  0  0  0  1  0  0  0  0  0  0
  -25.4450  -35.7860   23.8690 C   0  0  0  0  0  3  0  0  0  0  0  0
  -27.6870  -36.5450   24.5200 C   0  0  0  0  0  1  0  0  0  0  0  0
  -26.4900  -36.8240   23.7310 N   0  0  0  0  0  0  0  0  0  0  0  0
  -26.1340  -37.7350   24.0060 H   0  0  0  0  0  0  0  0  0  0  0  0
  -28.9000  -17.7290   19.7120 C   0  0  0  0  0  0  0  0  0  0  0  0
  -29.1510  -19.0540   19.8260 N   0  0  0  0  0  0  0  0  0  0  0  0
  -27.8080  -17.3100   19.3200 O   0  0  0  0  0  0  0  0  0  0  0  0
  -30.0830  -19.3370   20.1040 H   0  0  0  0  0  0  0  0  0  0  0  0
  -30.0070  -16.7130   20.1250 C   0  0  0  0  0  3  0  0  0  0  0  0
  -30.0700  -14.3680   19.1340 C   0  0  0  0  0  0  0  0  0  0  0  0
  -29.5870  -12.1950   18.0470 C   0  0  0  0  0  2  0  0  0  0  0  0
  -28.4310  -12.3680   17.0390 C   0  0  0  0  0  2  0  0  0  0  0  0
  -27.0660  -12.2210   17.7390 C   0  0  0  0  0  2  0  0  0  0  0  0
  -26.9630  -13.0740   19.0310 C   0  0  0  0  0  3  0  0  0  0  0  0
  -28.2040  -12.8640   19.9260 C   0  0  0  0  0  2  0  0  0  0  0  0
  -29.3970  -13.1840   19.1200 N   0  0  0  0  0  0  0  0  0  0  0  0
  -31.0570  -14.5820   18.4220 O   0  0  0  0  0  0  0  0  0  0  0  0
  -29.5470  -15.3220   19.9280 N   0  0  0  0  0  0  0  0  0  0  0  0
  -28.6940  -15.0760   20.4020 H   0  0  0  0  0  0  0  0  0  0  0  0
  -24.7770  -13.6960   20.2400 C   0  0  0  0  0  0  0  0  0  0  0  0
  -23.7740  -12.9280   20.7670 C   0  0  0  0  0  0  0  0  0  0  0  0
  -24.1660  -11.5700   20.5630 C   0  0  0  0  0  0  0  0  0  0  0  0
  -25.7210  -12.8050   19.7520 N   0  0  0  0  0  0  0  0  0  0  0  0
  -25.3670  -11.5170   20.0010 N   0  0  0  0  0  0  0  0  0  0  0  0
  -23.4440  -10.3180   20.8180 C   0  0  0  0  0  0  0  0  0  0  0  0
  -23.9740   -9.3180   21.6630 C   0  0  0  0  0  3  0  0  0  0  0  0
  -23.2520   -8.1300   21.9070 C   0  0  0  0  0  3  0  0  0  0  0  0
  -21.9850   -7.9330   21.3080 C   0  0  0  0  0  0  0  0  0  0  0  0
  -21.4720   -8.9210   20.4500 C   0  0  0  0  0  3  0  0  0  0  0  0
  -22.1940  -10.1010   20.2030 C   0  0  0  0  0  3  0  0  0  0  0  0
  -21.2240   -6.8000   21.4670 O   0  0  0  0  0  0  0  0  0  0  0  0
  -21.2890   -6.0440   22.6110 C   0  0  0  0  0  0  0  0  0  0  0  0
  -21.0030   -6.5890   23.8810 C   0  0  0  0  0  3  0  0  0  0  0  0
  -21.0130   -5.7600   25.0210 C   0  0  0  0  0  3  0  0  0  0  0  0
  -21.3000   -4.3880   24.8920 C   0  0  0  0  0  0  0  0  0  0  0  0
  -21.5800   -3.8430   23.6260 C   0  0  0  0  0  3  0  0  0  0  0  0
  -21.5710   -4.6680   22.4890 C   0  0  0  0  0  0  0  0  0  0  0  0
  -21.8210   -4.1340   21.2690 F   0  0  0  0  0  0  0  0  0  0  0  0
  -21.3030   -3.5900   25.9850 F   0  0  0  0  0  0  0  0  0  0  0  0
  -22.4780  -13.4220   21.3450 C   0  0  0  0  0  0  0  0  0  0  0  0
  -21.9300  -12.7070   22.3210 N   0  0  0  0  0  0  0  0  0  0  0  0
  -21.9700  -14.4760   20.9650 O   0  0  0  0  0  0  0  0  0  0  0  0
  -22.3590  -11.8530   22.6460 H   0  0  0  0  0  0  0  0  0  0  0  0
  -21.0710  -13.0200   22.7510 H   0  0  0  0  0  0  0  0  0  0  0  0
  -24.9600  -15.0700   20.1170 N   0  0  0  0  0  0  0  0  0  0  0  0
  -24.2570  -15.7370   20.4190 H   0  0  0  0  0  0  0  0  0  0  0  0
  -25.7570  -15.5110   19.6730 H   0  0  0  0  0  0  0  0  0  0  0  0
  -30.3370  -16.9170   21.6370 C   0  0  0  0  0  2  0  0  0  0  0  0
  -31.6080  -14.7640   22.2760 C   0  0  0  0  0  1  0  0  0  0  0  0
  -32.8780  -16.7570   21.4040 C   0  0  0  0  0  1  0  0  0  0  0  0
  -31.8060  -16.8160   23.6610 C   0  0  0  0  0  1  0  0  0  0  0  0
  -31.6480  -16.3050   22.2140 C   0  0  1  0  0  0  0  0  0  0  0  0
  2 51  1  0
  2  1  1  0
  3  5  2  0
  3  2  1  0
  4  3  1  0
  6  4  1  0
  7  4  1  0
  8  9  1  0
  8  7  1  0
  9 11  1  0
 10 21  2  0
 11 16  1  0
 12 20  1  0
 12 22  1  0
 13 19  1  0
 13 15  1  0
 14 20  1  0
 15 14  1  0
 16 15  2  0
 17 18  1  0
 17 11  2  0
 18 13  2  0
 19 12  1  0
 20 10  1  0
 22 24  2  0
 23 22  1  0
 25 23  1  0
 26 35  2  0
 26 31  1  0
 27 23  1  0
 27 31  1  0
 28 27  1  0
 29 30  1  0
 29 28  1  0
 30 26  1  0
 31 32  2  0
 32 33  1  0
 34 33  2  0
 35 34  1  0
 36 10  1  0
 36 41  1  0
 36 37  1  0
 37 40  1  1
 37 38  1  0
 39 37  1  0
 41 44  1  0
 42 46  1  0
 42 41  1  0
 43 42  2  0
 46 45  1  0
 48 46  1  0
 48 49  1  0
 48 47  1  0
 50 51  1  0
 50 54  1  0
 51 53  1  0
 52 50  2  0
 54 93  1  0
 55 63  1  0
 56 61  1  0
 57 58  1  0
 57 56  1  0
 59 58  1  0
 59 68  1  0
 59 60  1  0
 61 55  1  0
 61 60  1  0
 62 55  2  0
 63 54  1  0
 63 64  1  0
 65 66  2  0
 66 85  1  0
 67 66  1  0
 67 70  1  0
 68 69  1  0
 68 65  1  0
 69 67  2  0
 70 71  1  0
 71 72  2  0
 73 76  1  0
 73 72  1  0
 74 73  2  0
 75 74  1  0
 75 70  2  0
 76 77  1  0
 77 78  1  0
 78 79  2  0
 80 79  1  0
 80 84  1  0
 81 80  2  0
 82 77  2  0
 82 81  1  0
 83 82  1  0
 85 86  1  0
 86 88  1  0
 86 89  1  0
 87 85  2  0
 90 65  1  0
 90 91  1  0
 92 90  1  0
 93 97  1  0
 97 95  1  6
 97 94  1  0
 97 96  1  0
M  ISO  4   8 101   9 101  55 100  63 100
M  END
>  <TORSDO>  (35) 
F 23

>  <SCORE>  (35) 
-2.728

>  <name>  (35) 
34

>  <ligand_id>  (35) 
34

>  <original_smiles>  (35) 
[H]c1c([H])c([H])c2c(c1[H])C([H])([H])C([H])([H])C([H])([H])C2([H])N([H])C(=O)C1([H])N(C(=O)C([H])(N([H])C(=O)C([H])(N([H])C([H])([H])[H])C([H])([H])[H])C(C([H])([H])[H])(C([H])([H])[H])C([H])([H])[H])C([H])([H])c2c([H])c(OC([H])([H])C([H])([H])N([H])C(=O)C([H])(N([H])C(=O)C([H])(N([H])C(=O)N3C([H])([H])C([H])([H])C([H])([H])C([H])(n4nc(-c5c([H])c([H])c(Oc6c([H])c([H])c(F)c([H])c6F)c([H])c5[H])c(C(=O)N([H])[H])c4N([H])[H])C3([H])[H])C([H])([H])C(C([H])([H])[H])(C([H])([H])[H])C([H])([H])[H])C([H])([H])[H])c([H])c([H])c2C1([H])[H]

>  <smiles>  (35) 
[H]c1c([H])c([H])c2c(c1[H])C([H])([H])C([H])([H])C([H])([H])C2([H])N([H])C(=O)C1([H])N(C(=O)C([H])(N([H])C(=O)C([H])(N([H])C([H])([H])[H])C([H])([H])[H])C(C([H])([H])[H])(C([H])([H])[H])C([H])([H])[H])C([H])([H])c2c([H])c(OC([H])([H])C([H])([H])N([H])C(=O)C([H])(N([H])C(=O)C([H])(N([H])C(=O)N3C([H])([H])C([H])([H])C([H])([H])C([H])(n4nc(-c5c([H])c([H])c(Oc6c([H])c([H])c(F)c([H])c6F)c([H])c5[H])c(C(=O)N([H])[H])c4N([H])[H])C3([H])[H])C([H])([H])C(C([H])([H])[H])(C([H])([H])[H])C([H])([H])[H])C([H])([H])[H])c([H])c([H])c2C1([H])[H]

$$$$
35:0:0
     RDKit          3D

 96103  0  0  1  0  0  0  0  0999 V2000
  -31.1820  -20.7690   19.7810 N   0  0  0  0  0  4  0  0  0  0  0  0
  -31.9110  -20.9830   20.4460 H   0  0  0  0  0  0  0  0  0  0  0  0
  -31.3690  -19.8350   19.4530 H   0  0  0  0  0  0  0  0  0  0  0  0
  -32.5680  -21.5430   17.8460 C   0  0  0  0  0  1  0  0  0  0  0  0
  -31.2590  -21.7170   18.6320 C   0  0  0  0  0  3  0  0  0  0  0  0
  -30.3420  -24.1060   18.5220 C   0  0  0  0  0  3  0  0  0  0  0  0
  -31.0950  -23.1550   19.1100 C   0  0  0  0  0  3  0  0  0  0  0  0
  -30.1180  -25.4830   19.1270 C   0  0  0  0  0  2  0  0  0  0  0  0
  -28.6590  -25.9510   18.9940 C   0  0  0  0  0  2  0  0  0  0  0  0
  -28.3970  -26.8510   20.0660 O   0  0  0  0  0  0  0  0  0  0  0  0
  -24.5840  -31.9050   23.2640 C   0  0  0  0  0  0  0  0  0  0  0  0
  -27.1850  -27.5000   20.1030 C   0  0  0  0  0  0  0  0  0  0  0  0
  -23.3460  -30.5100   21.6350 C   0  0  0  0  0  3  0  0  0  0  0  0
  -24.7720  -28.9690   20.1880 C   0  0  0  0  0  0  0  0  0  0  0  0
  -25.8650  -30.8650   21.4010 C   0  0  0  0  0  2  0  0  0  0  0  0
  -25.9340  -29.4930   20.7630 C   0  0  0  0  0  0  0  0  0  0  0  0
  -27.1350  -28.7590   20.7330 C   0  0  0  0  0  3  0  0  0  0  0  0
  -26.0000  -26.9700   19.5380 C   0  0  0  0  0  3  0  0  0  0  0  0
  -24.7950  -27.7010   19.5810 C   0  0  0  0  0  3  0  0  0  0  0  0
  -23.5300  -29.8280   20.2520 C   0  0  0  0  0  2  0  0  0  0  0  0
  -24.6180  -31.1070   22.1590 N   0  0  0  0  0  0  0  0  0  0  0  0
  -23.5120  -32.1790   23.8230 O   0  0  0  0  0  0  0  0  0  0  0  0
  -22.7080  -29.4910   22.6030 C   0  0  0  0  0  0  0  0  0  0  0  0
  -21.3880  -29.2810   22.4660 N   0  0  0  0  0  0  0  0  0  0  0  0
  -23.3960  -28.8880   23.4320 O   0  0  0  0  0  0  0  0  0  0  0  0
  -20.8940  -29.8240   21.7720 H   0  0  0  0  0  0  0  0  0  0  0  0
  -18.0420  -28.0000   22.9150 C   0  0  0  0  0  0  0  0  0  0  0  0
  -20.5840  -28.3400   23.2430 C   0  0  0  0  0  3  0  0  0  0  0  0
  -20.7410  -26.8970   22.7100 C   0  0  0  0  0  2  0  0  0  0  0  0
  -19.6750  -26.5140   21.6780 C   0  0  0  0  0  2  0  0  0  0  0  0
  -18.2760  -26.6370   22.2850 C   0  0  0  0  0  2  0  0  0  0  0  0
  -19.1270  -28.8040   23.3530 C   0  0  0  0  0  0  0  0  0  0  0  0
  -18.8580  -30.0770   23.9020 C   0  0  0  0  0  3  0  0  0  0  0  0
  -17.5370  -30.5460   24.0210 C   0  0  0  0  0  3  0  0  0  0  0  0
  -16.4650  -29.7380   23.6010 C   0  0  0  0  0  3  0  0  0  0  0  0
  -16.7190  -28.4670   23.0540 C   0  0  0  0  0  3  0  0  0  0  0  0
  -25.8840  -32.5280   23.8630 C   0  0  0  0  0  3  0  0  0  0  0  0
  -25.5880  -33.9260   24.2010 N   0  0  0  0  0  0  0  0  0  0  0  0
  -25.9200  -34.9780   23.4410 C   0  0  0  0  0  0  0  0  0  0  0  0
  -26.5840  -34.8740   22.4060 O   0  0  0  0  0  0  0  0  0  0  0  0
  -25.0010  -34.0820   25.0080 H   0  0  0  0  0  0  0  0  0  0  0  0
  -24.2070  -36.7850   23.0940 C   0  0  0  0  0  1  0  0  0  0  0  0
  -25.4450  -36.3680   23.9040 C   0  0  0  0  0  3  0  0  0  0  0  0
  -27.5880  -37.2310   24.7370 C   0  0  0  0  0  1  0  0  0  0  0  0
  -26.4850  -37.4130   23.7960 N   0  0  0  0  0  0  0  0  0  0  0  0
  -26.0870  -38.3360   23.9520 H   0  0  0  0  0  0  0  0  0  0  0  0
  -26.4230  -31.7500   25.1270 C   0  0  1  0  0  0  0  0  0  0  0  0
  -25.3490  -31.5110   26.2150 C   0  0  0  0  0  1  0  0  0  0  0  0
  -26.9980  -30.3750   24.7180 C   0  0  0  0  0  1  0  0  0  0  0  0
  -27.5880  -32.5380   25.7700 C   0  0  0  0  0  1  0  0  0  0  0  0
  -28.6730  -20.5140   19.6800 C   0  0  0  0  0  1  0  0  0  0  0  0
  -29.9210  -20.7320   20.5620 C   0  0  0  0  0  3  0  0  0  0  0  0
  -30.0450  -19.6360   21.6290 C   0  0  0  0  0  0  0  0  0  0  0  0
  -29.8690  -18.3670   21.2140 N   0  0  0  0  0  0  0  0  0  0  0  0
  -30.3350  -19.9310   22.7940 O   0  0  0  0  0  0  0  0  0  0  0  0
  -29.5730  -18.1960   20.2610 H   0  0  0  0  0  0  0  0  0  0  0  0
  -30.0380  -17.1630   22.0180 C   0  0  0  0  0  2  0  0  0  0  0  0
  -31.2400  -16.3250   21.5180 C   0  0  0  0  0  2  0  0  0  0  0  0
  -31.1760  -14.2300   20.1730 C   0  0  0  0  0  0  0  0  0  0  0  0
  -30.7210  -12.1990   18.8440 C   0  0  0  0  0  2  0  0  0  0  0  0
  -29.7250  -12.4340   17.6950 C   0  0  0  0  0  2  0  0  0  0  0  0
  -28.2600  -12.3590   18.1710 C   0  0  0  0  0  2  0  0  0  0  0  0
  -28.0160  -13.1870   19.4650 C   0  0  0  0  0  3  0  0  0  0  0  0
  -29.0960  -12.8450   20.5180 C   0  0  0  0  0  2  0  0  0  0  0  0
  -30.4230  -13.1230   19.9460 N   0  0  0  0  0  0  0  0  0  0  0  0
  -32.1500  -14.5390   19.4820 O   0  0  0  0  0  0  0  0  0  0  0  0
  -30.8050  -14.9610   21.2320 N   0  0  0  0  0  0  0  0  0  0  0  0
  -30.0930  -14.5720   21.8300 H   0  0  0  0  0  0  0  0  0  0  0  0
  -25.6530  -13.8970   20.2280 C   0  0  0  0  0  0  0  0  0  0  0  0
  -24.5650  -13.1620   20.6360 C   0  0  0  0  0  0  0  0  0  0  0  0
  -24.9840  -11.7950   20.6050 C   0  0  0  0  0  0  0  0  0  0  0  0
  -26.6630  -12.9700   19.9790 N   0  0  0  0  0  0  0  0  0  0  0  0
  -26.2650  -11.7090   20.2700 N   0  0  0  0  0  0  0  0  0  0  0  0
  -24.2240  -10.5580   20.8290 C   0  0  0  0  0  0  0  0  0  0  0  0
  -24.6190   -9.6180   21.8100 C   0  0  0  0  0  3  0  0  0  0  0  0
  -23.8670   -8.4390   22.0110 C   0  0  0  0  0  3  0  0  0  0  0  0
  -22.7060   -8.1950   21.2370 C   0  0  0  0  0  0  0  0  0  0  0  0
  -22.3410   -9.1170   20.2400 C   0  0  0  0  0  3  0  0  0  0  0  0
  -23.0900  -10.2850   20.0360 C   0  0  0  0  0  3  0  0  0  0  0  0
  -21.9320   -7.0670   21.3550 O   0  0  0  0  0  0  0  0  0  0  0  0
  -21.7870   -6.4140   22.5510 C   0  0  0  0  0  0  0  0  0  0  0  0
  -21.2810   -7.0590   23.7040 C   0  0  0  0  0  3  0  0  0  0  0  0
  -21.0830   -6.3270   24.8910 C   0  0  0  0  0  3  0  0  0  0  0  0
  -21.3800   -4.9540   24.9290 C   0  0  0  0  0  0  0  0  0  0  0  0
  -21.8830   -4.3080   23.7890 C   0  0  0  0  0  3  0  0  0  0  0  0
  -22.0810   -5.0350   22.6020 C   0  0  0  0  0  0  0  0  0  0  0  0
  -22.5390   -4.4040   21.4970 F   0  0  0  0  0  0  0  0  0  0  0  0
  -21.1830   -4.2510   26.0700 F   0  0  0  0  0  0  0  0  0  0  0  0
  -23.1890  -13.6770   20.9360 C   0  0  0  0  0  0  0  0  0  0  0  0
  -22.4670  -13.0190   21.8370 N   0  0  0  0  0  0  0  0  0  0  0  0
  -22.7670  -14.7080   20.4090 O   0  0  0  0  0  0  0  0  0  0  0  0
  -22.8090  -12.1790   22.2850 H   0  0  0  0  0  0  0  0  0  0  0  0
  -21.5470  -13.3620   22.0770 H   0  0  0  0  0  0  0  0  0  0  0  0
  -25.8720  -15.2520   20.0200 N   0  0  0  0  0  0  0  0  0  0  0  0
  -25.1940  -15.9800   20.2230 H   0  0  0  0  0  0  0  0  0  0  0  0
  -26.7440  -15.6240   19.6710 H   0  0  0  0  0  0  0  0  0  0  0  0
  1  2  1  0
  1 52  1  0
  3  1  1  0
  5  4  1  0
  5  7  1  0
  5  1  1  0
  6  7  2  0
  6  8  1  0
  9  8  1  0
  9 10  1  0
 10 12  1  0
 11 22  2  0
 12 17  1  0
 13 21  1  0
 13 23  1  0
 14 20  1  0
 14 16  1  0
 15 21  1  0
 16 15  1  0
 17 16  2  0
 18 19  1  0
 18 12  2  0
 19 14  2  0
 20 13  1  0
 21 11  1  0
 23 25  2  0
 24 23  1  0
 26 24  1  0
 27 36  2  0
 27 32  1  0
 28 24  1  0
 28 32  1  0
 29 28  1  0
 30 31  1  0
 30 29  1  0
 31 27  1  0
 32 33  2  0
 33 34  1  0
 35 34  2  0
 36 35  1  0
 37 11  1  0
 37 38  1  0
 37 47  1  0
 38 41  1  0
 39 43  1  0
 39 38  1  0
 40 39  2  0
 43 42  1  0
 45 43  1  0
 45 46  1  0
 45 44  1  0
 47 50  1  1
 47 48  1  0
 49 47  1  0
 52 51  1  0
 52 53  1  0
 53 55  2  0
 54 53  1  0
 54 57  1  0
 56 54  1  0
 58 57  1  0
 59 67  1  0
 60 65  1  0
 61 62  1  0
 61 60  1  0
 63 62  1  0
 63 72  1  0
 63 64  1  0
 65 59  1  0
 65 64  1  0
 66 59  2  0
 67 58  1  0
 67 68  1  0
 69 70  2  0
 70 89  1  0
 71 70  1  0
 71 74  1  0
 72 69  1  0
 72 73  1  0
 73 71  2  0
 74 75  1  0
 75 76  2  0
 77 80  1  0
 77 76  1  0
 78 77  2  0
 79 78  1  0
 79 74  2  0
 80 81  1  0
 81 86  2  0
 81 82  1  0
 82 83  2  0
 83 84  1  0
 84 88  1  0
 85 84  2  0
 86 85  1  0
 87 86  1  0
 89 90  1  0
 90 93  1  0
 90 92  1  0
 91 89  2  0
 94 95  1  0
 94 69  1  0
 96 94  1  0
M  ISO  4   9 101  10 101  59 100  67 100
M  END
>  <TORSDO>  (36) 
F 24

>  <SCORE>  (36) 
-11.802

>  <name>  (36) 
35

>  <ligand_id>  (36) 
35

>  <original_smiles>  (36) 
[H]C(=C([H])C([H])(C([H])([H])[H])[N+]([H])([H])C([H])(C(=O)N([H])C([H])([H])C([H])([H])N([H])C(=O)N1C([H])([H])C([H])([H])C([H])([H])C([H])(n2nc(-c3c([H])c([H])c(Oc4c([H])c([H])c(F)c([H])c4F)c([H])c3[H])c(C(=O)N([H])[H])c2N([H])[H])C1([H])[H])C([H])([H])[H])C([H])([H])C([H])([H])Oc1c([H])c([H])c2c(c1[H])C([H])([H])N(C(=O)C([H])(N([H])C(=O)C([H])(N([H])C([H])([H])[H])C([H])([H])[H])C(C([H])([H])[H])(C([H])([H])[H])C([H])([H])[H])C([H])(C(=O)N([H])C1([H])c3c([H])c([H])c([H])c([H])c3C([H])([H])C([H])([H])C1([H])[H])C2([H])[H]

>  <smiles>  (36) 
[H]C(=C([H])C([H])(C([H])([H])[H])[N+]([H])([H])C([H])(C(=O)N([H])C([H])([H])C([H])([H])N([H])C(=O)N1C([H])([H])C([H])([H])C([H])([H])C([H])(n2nc(-c3c([H])c([H])c(Oc4c([H])c([H])c(F)c([H])c4F)c([H])c3[H])c(C(=O)N([H])[H])c2N([H])[H])C1([H])[H])C([H])([H])[H])C([H])([H])C([H])([H])Oc1c([H])c([H])c2c(c1[H])C([H])([H])N(C(=O)C([H])(N([H])C(=O)C([H])(N([H])C([H])([H])[H])C([H])([H])[H])C(C([H])([H])[H])(C([H])([H])[H])C([H])([H])[H])C([H])(C(=O)N([H])C1([H])c3c([H])c([H])c([H])c([H])c3C([H])([H])C([H])([H])C1([H])[H])C2([H])[H]

$$$$
36:0:0
     RDKit          3D

 96104  0  0  1  0  0  0  0  0999 V2000
  -30.6050  -18.5160   19.2480 C   0  0  0  0  0  0  0  0  0  0  0  0
  -27.2260  -20.0000   17.9020 C   0  0  0  0  0  2  0  0  0  0  0  0
  -28.3940  -19.8950   16.9010 C   0  0  0  0  0  2  0  0  0  0  0  0
  -27.4690  -19.3080   19.2580 C   0  0  0  0  0  2  0  0  0  0  0  0
  -29.5380  -20.9130   17.1140 C   0  0  0  0  0  2  0  0  0  0  0  0
  -28.6560  -19.8800   20.0630 C   0  0  0  0  0  2  0  0  0  0  0  0
  -30.2550  -20.9100   18.4880 C   0  0  0  0  0  3  0  0  0  0  0  0
  -29.9160  -19.7120   19.3250 N   0  0  0  0  0  0  0  0  0  0  0  0
  -31.5240  -18.3580   18.4410 O   0  0  0  0  0  0  0  0  0  0  0  0
  -30.2940  -22.3240   19.1980 C   0  0  0  0  0  2  0  0  0  0  0  0
  -29.1610  -23.2020   18.9860 O   0  0  0  0  0  0  0  0  0  0  0  0
  -29.3750  -24.5900   19.3600 C   0  0  0  0  0  2  0  0  0  0  0  0
  -28.1290  -25.4940   19.0870 C   0  0  0  0  0  2  0  0  0  0  0  0
  -28.2520  -26.9070   19.4320 O   0  0  0  0  0  0  0  0  0  0  0  0
  -24.5760  -31.8640   23.0990 C   0  0  0  0  0  0  0  0  0  0  0  0
  -27.0790  -27.6550   19.5390 C   0  0  0  0  0  0  0  0  0  0  0  0
  -23.2850  -30.5320   21.4680 C   0  0  0  0  0  3  0  0  0  0  0  0
  -24.6610  -29.1360   19.8340 C   0  0  0  0  0  0  0  0  0  0  0  0
  -25.7860  -30.9620   21.1070 C   0  0  0  0  0  2  0  0  0  0  0  0
  -25.8550  -29.6360   20.3700 C   0  0  0  0  0  0  0  0  0  0  0  0
  -27.0630  -28.9050   20.2200 C   0  0  0  0  0  3  0  0  0  0  0  0
  -25.8580  -27.1960   18.9880 C   0  0  0  0  0  3  0  0  0  0  0  0
  -24.6630  -27.9180   19.1370 C   0  0  0  0  0  3  0  0  0  0  0  0
  -23.4050  -29.9550   20.0330 C   0  0  0  0  0  2  0  0  0  0  0  0
  -24.5710  -31.1330   21.9470 N   0  0  0  0  0  0  0  0  0  0  0  0
  -23.5320  -32.0680   23.7340 O   0  0  0  0  0  0  0  0  0  0  0  0
  -22.7350  -29.4310   22.4040 C   0  0  0  0  0  0  0  0  0  0  0  0
  -21.4180  -29.1750   22.3220 N   0  0  0  0  0  0  0  0  0  0  0  0
  -23.4870  -28.8120   23.1620 O   0  0  0  0  0  0  0  0  0  0  0  0
  -20.8670  -29.7320   21.6840 H   0  0  0  0  0  0  0  0  0  0  0  0
  -18.1490  -27.7330   22.8730 C   0  0  0  0  0  0  0  0  0  0  0  0
  -20.6910  -28.1580   23.0820 C   0  0  0  0  0  3  0  0  0  0  0  0
  -20.8740  -26.7580   22.4510 C   0  0  0  0  0  2  0  0  0  0  0  0
  -19.7670  -26.3940   21.4570 C   0  0  0  0  0  2  0  0  0  0  0  0
  -18.3980  -26.4220   22.1430 C   0  0  0  0  0  2  0  0  0  0  0  0
  -19.2270  -28.5540   23.2980 C   0  0  0  0  0  0  0  0  0  0  0  0
  -18.9410  -29.7790   23.9420 C   0  0  0  0  0  3  0  0  0  0  0  0
  -17.6120  -30.1820   24.1630 C   0  0  0  0  0  3  0  0  0  0  0  0
  -16.5500  -29.3570   23.7550 C   0  0  0  0  0  3  0  0  0  0  0  0
  -16.8200  -28.1340   23.1140 C   0  0  0  0  0  3  0  0  0  0  0  0
  -25.8870  -32.4960   23.6620 C   0  0  0  0  0  3  0  0  0  0  0  0
  -25.5860  -33.8850   24.0320 N   0  0  0  0  0  0  0  0  0  0  0  0
  -25.8940  -34.9560   23.2860 C   0  0  0  0  0  0  0  0  0  0  0  0
  -26.5330  -34.8770   22.2340 O   0  0  0  0  0  0  0  0  0  0  0  0
  -25.0190  -34.0220   24.8560 H   0  0  0  0  0  0  0  0  0  0  0  0
  -24.1650  -36.7590   23.0090 C   0  0  0  0  0  1  0  0  0  0  0  0
  -25.4170  -36.3320   23.7890 C   0  0  0  0  0  3  0  0  0  0  0  0
  -27.5550  -37.2000   24.6270 C   0  0  0  0  0  1  0  0  0  0  0  0
  -26.4500  -37.3850   23.6910 N   0  0  0  0  0  0  0  0  0  0  0  0
  -26.0460  -38.3040   23.8550 H   0  0  0  0  0  0  0  0  0  0  0  0
  -26.4810  -31.7060   24.8930 C   0  0  1  0  0  0  0  0  0  0  0  0
  -25.4470  -31.4330   26.0100 C   0  0  0  0  0  1  0  0  0  0  0  0
  -27.0600  -30.3450   24.4410 C   0  0  0  0  0  1  0  0  0  0  0  0
  -27.6530  -32.5040   25.5110 C   0  0  0  0  0  1  0  0  0  0  0  0
  -30.3010  -17.3240   20.2260 C   0  0  0  0  0  0  0  0  0  0  0  0
  -30.8820  -14.9530   19.2680 C   0  0  0  0  0  0  0  0  0  0  0  0
  -30.5080  -12.7700   18.1720 C   0  0  0  0  0  2  0  0  0  0  0  0
  -29.3710  -12.9400   17.1430 C   0  0  0  0  0  2  0  0  0  0  0  0
  -27.9880  -12.7700   17.8060 C   0  0  0  0  0  2  0  0  0  0  0  0
  -27.8360  -13.5880   19.1150 C   0  0  0  0  0  3  0  0  0  0  0  0
  -29.0640  -13.3880   20.0300 C   0  0  0  0  0  2  0  0  0  0  0  0
  -30.2600  -13.7420   19.2450 N   0  0  0  0  0  0  0  0  0  0  0  0
  -31.9940  -15.1410   18.7680 O   0  0  0  0  0  0  0  0  0  0  0  0
  -30.0790  -15.9620   19.6710 N   0  0  0  0  0  4  0  0  0  0  0  0
  -29.1370  -15.6410   19.8270 H   0  0  0  0  0  0  0  0  0  0  0  0
  -25.6250  -14.1590   20.3040 C   0  0  0  0  0  0  0  0  0  0  0  0
  -24.6150  -13.3730   20.7900 C   0  0  0  0  0  0  0  0  0  0  0  0
  -25.0250  -12.0230   20.5560 C   0  0  0  0  0  0  0  0  0  0  0  0
  -26.5830  -13.2900   19.8090 N   0  0  0  0  0  0  0  0  0  0  0  0
  -26.2380  -11.9940   20.0210 N   0  0  0  0  0  0  0  0  0  0  0  0
  -24.3090  -10.7570   20.7600 C   0  0  0  0  0  0  0  0  0  0  0  0
  -24.7670   -9.7900   21.6830 C   0  0  0  0  0  3  0  0  0  0  0  0
  -24.0520   -8.5870   21.8740 C   0  0  0  0  0  3  0  0  0  0  0  0
  -22.8650   -8.3440   21.1440 C   0  0  0  0  0  0  0  0  0  0  0  0
  -22.4240   -9.2990   20.2120 C   0  0  0  0  0  3  0  0  0  0  0  0
  -23.1410  -10.4920   20.0190 C   0  0  0  0  0  3  0  0  0  0  0  0
  -22.1190   -7.1940   21.2460 O   0  0  0  0  0  0  0  0  0  0  0  0
  -21.9550   -6.5480   22.4430 C   0  0  0  0  0  0  0  0  0  0  0  0
  -21.3120   -7.1600   23.5420 C   0  0  0  0  0  3  0  0  0  0  0  0
  -21.1070   -6.4330   24.7310 C   0  0  0  0  0  3  0  0  0  0  0  0
  -21.5320   -5.0940   24.8220 C   0  0  0  0  0  0  0  0  0  0  0  0
  -22.1660   -4.4820   23.7260 C   0  0  0  0  0  3  0  0  0  0  0  0
  -22.3750   -5.2060   22.5400 C   0  0  0  0  0  0  0  0  0  0  0  0
  -22.9690   -4.6060   21.4800 F   0  0  0  0  0  0  0  0  0  0  0  0
  -21.3280   -4.3920   25.9610 F   0  0  0  0  0  0  0  0  0  0  0  0
  -23.3010  -13.8410   21.3440 C   0  0  0  0  0  0  0  0  0  0  0  0
  -22.7160  -13.0820   22.2630 N   0  0  0  0  0  0  0  0  0  0  0  0
  -22.8050  -14.9140   20.9980 O   0  0  0  0  0  0  0  0  0  0  0  0
  -23.1310  -12.2150   22.5690 H   0  0  0  0  0  0  0  0  0  0  0  0
  -21.8410  -13.3750   22.6750 H   0  0  0  0  0  0  0  0  0  0  0  0
  -25.7960  -15.5370   20.2190 N   0  0  0  0  0  0  0  0  0  0  0  0
  -25.0710  -16.1830   20.5140 H   0  0  0  0  0  0  0  0  0  0  0  0
  -26.5570  -15.9890   19.7320 H   0  0  0  0  0  0  0  0  0  0  0  0
  -30.6330  -16.2460   22.5240 C   0  0  0  0  0  1  0  0  0  0  0  0
  -32.6570  -17.2120   21.3680 C   0  0  0  0  0  1  0  0  0  0  0  0
  -31.1320  -17.3240   21.5420 C   0  0  0  0  0  3  0  0  0  0  0  0
  1  8  1  0
  1 55  1  0
  2  4  1  0
  3  5  1  0
  3  2  1  0
  4  6  1  0
  5  7  1  0
  7 10  1  0
  7  8  1  0
  8  6  1  0
  9  1  2  0
 11 10  1  0
 11 12  1  0
 13 12  1  0
 13 14  1  0
 14 16  1  0
 15 26  2  0
 16 21  1  0
 17 25  1  0
 17 27  1  0
 18 24  1  0
 18 20  1  0
 19 25  1  0
 20 19  1  0
 21 20  2  0
 22 23  1  0
 22 16  2  0
 23 18  2  0
 24 17  1  0
 25 15  1  0
 27 29  2  0
 28 27  1  0
 30 28  1  0
 31 40  2  0
 31 36  1  0
 32 28  1  0
 32 36  1  0
 33 32  1  0
 34 35  1  0
 34 33  1  0
 35 31  1  0
 36 37  2  0
 37 38  1  0
 39 38  2  0
 40 39  1  0
 41 15  1  0
 41 42  1  0
 41 51  1  0
 42 45  1  0
 43 47  1  0
 43 42  1  0
 44 43  2  0
 47 46  1  0
 49 47  1  0
 49 50  1  0
 49 48  1  0
 51 54  1  1
 51 52  1  0
 53 51  1  0
 55 96  1  0
 56 64  1  0
 57 62  1  0
 58 59  1  0
 58 57  1  0
 60 59  1  0
 60 69  1  0
 60 61  1  0
 62 56  1  0
 62 61  1  0
 63 56  2  0
 64 65  1  0
 64 55  2  3
 66 67  2  0
 67 86  1  0
 68 71  1  0
 68 67  1  0
 69 70  1  0
 69 66  1  0
 70 68  2  0
 71 72  1  0
 72 73  2  0
 74 77  1  0
 74 73  1  0
 75 74  2  0
 76 75  1  0
 76 71  2  0
 77 78  1  0
 78 83  2  0
 78 79  1  0
 79 80  2  0
 80 81  1  0
 81 85  1  0
 82 81  2  0
 83 82  1  0
 84 83  1  0
 86 87  1  0
 87 89  1  0
 87 90  1  0
 88 86  2  0
 91 66  1  0
 91 92  1  0
 93 91  1  0
 95 96  1  0
 96 94  1  0
M  ISO  4  13 101  14 101  56 100  64 100
M  END
>  <TORSDO>  (37) 
F 22

>  <SCORE>  (37) 
-9.900

>  <name>  (37) 
36

>  <ligand_id>  (37) 
36

>  <original_smiles>  (37) 
[H]c1c([H])c([H])c2c(c1[H])C([H])([H])C([H])([H])C([H])([H])C2([H])N([H])C(=O)C1([H])N(C(=O)C([H])(N([H])C(=O)C([H])(N([H])C([H])([H])[H])C([H])([H])[H])C(C([H])([H])[H])(C([H])([H])[H])C([H])([H])[H])C([H])([H])c2c([H])c(OC([H])([H])C([H])([H])OC([H])([H])C3([H])N(C(=O)C([H])(N([H])C(=O)N4C([H])([H])C([H])([H])C([H])([H])C([H])(n5nc(-c6c([H])c([H])c(Oc7c([H])c([H])c(F)c([H])c7F)c([H])c6[H])c(C(=O)N([H])[H])c5N([H])[H])C4([H])[H])C([H])(C([H])([H])[H])C([H])([H])[H])C([H])([H])C([H])([H])C([H])([H])C([H])([H])C3([H])[H])c([H])c([H])c2C1([H])[H]

>  <smiles>  (37) 
[H]c1c([H])c([H])c2c(c1[H])C([H])([H])C([H])([H])C([H])([H])C2([H])N([H])C(=O)C1([H])N(C(=O)C([H])(N([H])C(=O)C([H])(N([H])C([H])([H])[H])C([H])([H])[H])C(C([H])([H])[H])(C([H])([H])[H])C([H])([H])[H])C([H])([H])c2c([H])c(OC([H])([H])C([H])([H])OC([H])([H])C3([H])N(C(=O)C([H])(N([H])C(=O)N4C([H])([H])C([H])([H])C([H])([H])C([H])(n5nc(-c6c([H])c([H])c(Oc7c([H])c([H])c(F)c([H])c7F)c([H])c6[H])c(C(=O)N([H])[H])c5N([H])[H])C4([H])[H])C([H])(C([H])([H])[H])C([H])([H])[H])C([H])([H])C([H])([H])C([H])([H])C([H])([H])C3([H])[H])c([H])c([H])c2C1([H])[H]

$$$$
37:0:0
     RDKit          3D

 93101  0  0  1  0  0  0  0  0999 V2000
  -28.7300  -20.4500   20.1960 C   0  0  0  0  0  0  0  0  0  0  0  0
  -29.1190  -21.8200   20.3500 N   0  0  0  0  0  0  0  0  0  0  0  0
  -27.5350  -20.2420   19.9840 O   0  0  0  0  0  0  0  0  0  0  0  0
  -30.0890  -21.9130   20.6260 H   0  0  0  0  0  0  0  0  0  0  0  0
  -30.5650  -15.0660   20.3180 C   0  0  0  0  0  0  0  0  0  0  0  0
  -30.4430  -12.7030   19.3820 C   0  0  0  0  0  2  0  0  0  0  0  0
  -29.5220  -12.6110   18.1450 C   0  0  0  0  0  2  0  0  0  0  0  0
  -28.0610  -12.3890   18.5740 C   0  0  0  0  0  2  0  0  0  0  0  0
  -27.6330  -13.3280   19.7330 C   0  0  0  0  0  3  0  0  0  0  0  0
  -28.6820  -13.3940   20.8610 C   0  0  0  0  0  2  0  0  0  0  0  0
  -29.9360  -13.8210   20.2320 N   0  0  0  0  0  0  0  0  0  0  0  0
  -31.7960  -15.0410   20.1810 O   0  0  0  0  0  0  0  0  0  0  0  0
  -30.1450  -16.9630   18.7570 C   0  0  0  0  0  2  0  0  0  0  0  0
  -29.5150  -17.5940   20.8860 C   0  0  0  0  0  2  0  0  0  0  0  0
  -29.7310  -18.4860   18.7140 C   0  0  0  0  0  3  0  0  0  0  0  0
  -29.7140  -19.0800   20.1440 C   0  0  0  0  0  3  0  0  0  0  0  0
  -29.8640  -16.3080   20.0560 N   0  0  0  0  0  0  0  0  0  0  0  0
  -25.2490  -13.8870   20.4580 C   0  0  0  0  0  0  0  0  0  0  0  0
  -24.1870  -13.1050   20.8200 C   0  0  0  0  0  0  0  0  0  0  0  0
  -24.6650  -11.7570   20.8060 C   0  0  0  0  0  0  0  0  0  0  0  0
  -26.3010  -13.0150   20.2320 N   0  0  0  0  0  0  0  0  0  0  0  0
  -25.9600  -11.7310   20.5110 N   0  0  0  0  0  0  0  0  0  0  0  0
  -23.9460  -10.4900   20.9960 C   0  0  0  0  0  0  0  0  0  0  0  0
  -24.3690   -9.5350   21.9460 C   0  0  0  0  0  3  0  0  0  0  0  0
  -23.6480   -8.3340   22.1240 C   0  0  0  0  0  3  0  0  0  0  0  0
  -22.4900   -8.0800   21.3510 C   0  0  0  0  0  0  0  0  0  0  0  0
  -22.0870   -9.0240   20.3900 C   0  0  0  0  0  3  0  0  0  0  0  0
  -22.8080  -10.2150   20.2110 C   0  0  0  0  0  3  0  0  0  0  0  0
  -21.7420   -6.9300   21.4380 O   0  0  0  0  0  0  0  0  0  0  0  0
  -21.6680   -6.2070   22.6010 C   0  0  0  0  0  0  0  0  0  0  0  0
  -21.1920   -6.7740   23.8030 C   0  0  0  0  0  3  0  0  0  0  0  0
  -21.0660   -5.9750   24.9580 C   0  0  0  0  0  3  0  0  0  0  0  0
  -21.4060   -4.6100   24.9100 C   0  0  0  0  0  0  0  0  0  0  0  0
  -21.8750   -4.0420   23.7130 C   0  0  0  0  0  3  0  0  0  0  0  0
  -22.0020   -4.8380   22.5600 C   0  0  0  0  0  0  0  0  0  0  0  0
  -22.4340   -4.2800   21.4030 F   0  0  0  0  0  0  0  0  0  0  0  0
  -21.2790   -3.8400   26.0160 F   0  0  0  0  0  0  0  0  0  0  0  0
  -22.7830  -13.5720   21.0660 C   0  0  0  0  0  0  0  0  0  0  0  0
  -22.0480  -12.8750   21.9260 N   0  0  0  0  0  0  0  0  0  0  0  0
  -22.3460  -14.5900   20.5330 O   0  0  0  0  0  0  0  0  0  0  0  0
  -22.4140  -12.0500   22.3780 H   0  0  0  0  0  0  0  0  0  0  0  0
  -21.1040  -13.1690   22.1340 H   0  0  0  0  0  0  0  0  0  0  0  0
  -25.4040  -15.2570   20.2730 N   0  0  0  0  0  0  0  0  0  0  0  0
  -24.6350  -15.9090   20.3800 H   0  0  0  0  0  0  0  0  0  0  0  0
  -26.2620  -15.7020   19.9710 H   0  0  0  0  0  0  0  0  0  0  0  0
  -30.6530  -19.3000   17.7910 C   0  0  0  0  0  0  0  0  0  0  0  0
  -30.1050  -19.8950   16.7380 N   0  0  0  0  0  0  0  0  0  0  0  0
  -31.8560  -19.4020   18.0220 O   0  0  0  0  0  0  0  0  0  0  0  0
  -29.1160  -19.8080   16.5520 H   0  0  0  0  0  0  0  0  0  0  0  0
  -30.6770  -20.4390   16.1060 H   0  0  0  0  0  0  0  0  0  0  0  0
  -28.5080  -23.2180   19.8460 C   0  0  0  0  0  2  0  0  0  0  0  0
  -28.2270  -24.6680   20.7070 C   0  0  0  0  0  2  0  0  0  0  0  0
  -28.3250  -26.1800   20.2640 O   0  0  0  0  0  0  0  0  0  0  0  0
  -24.6160  -31.8850   23.2400 C   0  0  0  0  0  0  0  0  0  0  0  0
  -27.2430  -27.1420   20.2730 C   0  0  0  0  0  0  0  0  0  0  0  0
  -23.4400  -30.4730   21.5960 C   0  0  0  0  0  3  0  0  0  0  0  0
  -24.9090  -28.8870   20.2020 C   0  0  0  0  0  0  0  0  0  0  0  0
  -25.9940  -30.7470   21.4540 C   0  0  0  0  0  2  0  0  0  0  0  0
  -26.0820  -29.3450   20.8150 C   0  0  0  0  0  0  0  0  0  0  0  0
  -27.2530  -28.4930   20.8220 C   0  0  0  0  0  3  0  0  0  0  0  0
  -26.0410  -26.7820   19.6340 C   0  0  0  0  0  3  0  0  0  0  0  0
  -24.9020  -27.6210   19.5940 C   0  0  0  0  0  3  0  0  0  0  0  0
  -23.6800  -29.7850   20.2260 C   0  0  0  0  0  2  0  0  0  0  0  0
  -24.7040  -31.0580   22.1510 N   0  0  0  0  0  0  0  0  0  0  0  0
  -23.5230  -32.1660   23.7560 O   0  0  0  0  0  0  0  0  0  0  0  0
  -22.7560  -29.4710   22.5600 C   0  0  0  0  0  0  0  0  0  0  0  0
  -21.4270  -29.3030   22.4300 N   0  0  0  0  0  0  0  0  0  0  0  0
  -23.4230  -28.8450   23.3870 O   0  0  0  0  0  0  0  0  0  0  0  0
  -20.9450  -29.8590   21.7380 H   0  0  0  0  0  0  0  0  0  0  0  0
  -18.0410  -28.1170   22.9370 C   0  0  0  0  0  0  0  0  0  0  0  0
  -20.6020  -28.3680   23.1990 C   0  0  0  0  0  3  0  0  0  0  0  0
  -20.6950  -26.9360   22.6200 C   0  0  0  0  0  2  0  0  0  0  0  0
  -19.5890  -26.6230   21.6060 C   0  0  0  0  0  2  0  0  0  0  0  0
  -18.2090  -26.7710   22.2530 C   0  0  0  0  0  2  0  0  0  0  0  0
  -19.1630  -28.8740   23.3660 C   0  0  0  0  0  0  0  0  0  0  0  0
  -18.9500  -30.1340   23.9680 C   0  0  0  0  0  3  0  0  0  0  0  0
  -17.6480  -30.6360   24.1420 C   0  0  0  0  0  3  0  0  0  0  0  0
  -16.5390  -29.8770   23.7270 C   0  0  0  0  0  3  0  0  0  0  0  0
  -16.7370  -28.6190   23.1310 C   0  0  0  0  0  3  0  0  0  0  0  0
  -25.8840  -32.5320   23.8780 C   0  0  0  0  0  3  0  0  0  0  0  0
  -26.3770  -31.7810   25.1760 C   0  0  1  0  0  0  0  0  0  0  0  0
  -25.2650  -31.5590   26.2290 C   0  0  0  0  0  1  0  0  0  0  0  0
  -26.9670  -30.3970   24.8200 C   0  0  0  0  0  1  0  0  0  0  0  0
  -27.5160  -32.5860   25.8460 C   0  0  0  0  0  1  0  0  0  0  0  0
  -25.5640  -33.9340   24.1890 N   0  0  0  0  0  0  0  0  0  0  0  0
  -25.9030  -34.9840   23.4300 C   0  0  0  0  0  0  0  0  0  0  0  0
  -26.5850  -34.8750   22.4090 O   0  0  0  0  0  0  0  0  0  0  0  0
  -24.9590  -34.0920   24.9820 H   0  0  0  0  0  0  0  0  0  0  0  0
  -24.1810  -36.7800   23.0460 C   0  0  0  0  0  1  0  0  0  0  0  0
  -25.4120  -36.3770   23.8750 C   0  0  0  0  0  3  0  0  0  0  0  0
  -27.5330  -37.2690   24.7320 C   0  0  0  0  0  1  0  0  0  0  0  0
  -26.4460  -37.4290   23.7700 N   0  0  0  0  0  0  0  0  0  0  0  0
  -26.0370  -38.3510   23.9040 H   0  0  0  0  0  0  0  0  0  0  0  0
  1  2  1  0
  2  4  1  0
  3  1  2  0
  6 11  1  0
  7  8  1  0
  7  6  1  0
  9  8  1  0
  9 21  1  0
  9 10  1  0
 11  5  1  0
 11 10  1  0
 12  5  2  0
 13 17  1  0
 15 46  1  0
 15 13  1  0
 15 16  1  0
 16  1  1  0
 16 14  1  0
 17  5  1  0
 17 14  1  0
 18 19  2  0
 19 38  1  0
 20 19  1  0
 20 23  1  0
 21 18  1  0
 21 22  1  0
 22 20  2  0
 23 24  1  0
 24 25  2  0
 26 29  1  0
 26 25  1  0
 27 26  2  0
 28 27  1  0
 28 23  2  0
 29 30  1  0
 30 31  1  0
 31 32  2  0
 33 32  1  0
 33 37  1  0
 34 33  2  0
 35 30  2  0
 35 34  1  0
 36 35  1  0
 38 39  1  0
 39 42  1  0
 39 41  1  0
 40 38  2  0
 43 44  1  0
 43 18  1  0
 45 43  1  0
 46 48  2  0
 47 46  1  0
 49 47  1  0
 50 47  1  0
 51  2  1  0
 51 52  1  0
 53 55  1  0
 53 52  1  0
 54 65  2  0
 55 60  1  0
 56 64  1  0
 56 66  1  0
 57 63  1  0
 57 59  1  0
 58 64  1  0
 59 60  2  0
 59 58  1  0
 61 55  2  0
 62 61  1  0
 62 57  2  0
 63 56  1  0
 64 54  1  0
 66 68  2  0
 67 66  1  0
 69 67  1  0
 70 79  2  0
 70 75  1  0
 71 67  1  0
 71 75  1  0
 72 71  1  0
 73 74  1  0
 73 72  1  0
 74 70  1  0
 75 76  2  0
 76 77  1  0
 78 77  2  0
 79 78  1  0
 80 54  1  0
 80 85  1  0
 80 81  1  0
 81 84  1  1
 81 82  1  0
 83 81  1  0
 85 88  1  0
 86 90  1  0
 86 85  1  0
 87 86  2  0
 90 89  1  0
 92 90  1  0
 92 93  1  0
 92 91  1  0
M  ISO  4   5 100  17 100  52 101  53 101
M  END
>  <TORSDO>  (38) 
F 19

>  <SCORE>  (38) 
-14.971

>  <name>  (38) 
37

>  <ligand_id>  (38) 
37

>  <original_smiles>  (38) 
[H]c1c([H])c([H])c2c(c1[H])C([H])([H])C([H])([H])C([H])([H])C2([H])N([H])C(=O)C1([H])N(C(=O)C([H])(N([H])C(=O)C([H])(N([H])C([H])([H])[H])C([H])([H])[H])C(C([H])([H])[H])(C([H])([H])[H])C([H])([H])[H])C([H])([H])c2c([H])c(OC([H])([H])C([H])([H])N([H])C(=O)C3([H])C([H])([H])N(C(=O)N4C([H])([H])C([H])([H])C([H])([H])C([H])(n5nc(-c6c([H])c([H])c(Oc7c([H])c([H])c(F)c([H])c7F)c([H])c6[H])c(C(=O)N([H])[H])c5N([H])[H])C4([H])[H])C([H])([H])C3([H])C(=O)N([H])[H])c([H])c([H])c2C1([H])[H]

>  <smiles>  (38) 
[H]c1c([H])c([H])c2c(c1[H])C([H])([H])C([H])([H])C([H])([H])C2([H])N([H])C(=O)C1([H])N(C(=O)C([H])(N([H])C(=O)C([H])(N([H])C([H])([H])[H])C([H])([H])[H])C(C([H])([H])[H])(C([H])([H])[H])C([H])([H])[H])C([H])([H])c2c([H])c(OC([H])([H])C([H])([H])N([H])C(=O)C3([H])C([H])([H])N(C(=O)N4C([H])([H])C([H])([H])C([H])([H])C([H])(n5nc(-c6c([H])c([H])c(Oc7c([H])c([H])c(F)c([H])c7F)c([H])c6[H])c(C(=O)N([H])[H])c5N([H])[H])C4([H])[H])C([H])([H])C3([H])C(=O)N([H])[H])c([H])c([H])c2C1([H])[H]

$$$$
38:0:0
     RDKit          3D

 91 98  0  0  1  0  0  0  0  0999 V2000
  -28.9150  -21.5770   20.9390 C   0  0  0  0  0  0  0  0  0  0  0  0
  -28.4310  -22.4100   21.8720 N   0  0  0  0  0  0  0  0  0  0  0  0
  -29.7750  -21.9250   20.1270 O   0  0  0  0  0  0  0  0  0  0  0  0
  -27.7280  -22.0400   22.4980 H   0  0  0  0  0  0  0  0  0  0  0  0
  -28.4010  -20.1290   20.9350 C   0  0  0  0  0  2  0  0  0  0  0  0
  -29.2860  -17.7200   20.9840 C   0  0  0  0  0  3  0  0  0  0  0  0
  -29.4800  -19.0540   20.8770 C   0  0  0  0  0  3  0  0  0  0  0  0
  -30.7750  -14.4910   20.2840 C   0  0  0  0  0  0  0  0  0  0  0  0
  -30.4540  -12.3150   19.1680 C   0  0  0  0  0  2  0  0  0  0  0  0
  -29.4960  -12.5120   17.9750 C   0  0  0  0  0  2  0  0  0  0  0  0
  -28.0260  -12.3880   18.4280 C   0  0  0  0  0  2  0  0  0  0  0  0
  -27.7120  -13.2290   19.6940 C   0  0  0  0  0  3  0  0  0  0  0  0
  -28.7870  -13.0240   20.7850 C   0  0  0  0  0  2  0  0  0  0  0  0
  -30.0980  -13.3150   20.1850 N   0  0  0  0  0  0  0  0  0  0  0  0
  -31.9090  -14.6260   19.8120 O   0  0  0  0  0  0  0  0  0  0  0  0
  -30.4230  -16.8110   20.8850 C   0  0  0  0  0  0  0  0  0  0  0  0
  -30.0420  -15.5240   20.7490 N   0  0  0  0  0  0  0  0  0  0  0  0
  -31.6020  -17.1870   20.9080 O   0  0  0  0  0  0  0  0  0  0  0  0
  -29.0720  -15.3200   20.9210 H   0  0  0  0  0  0  0  0  0  0  0  0
  -25.3360  -13.8380   20.4660 C   0  0  0  0  0  0  0  0  0  0  0  0
  -24.2730  -13.0660   20.8490 C   0  0  0  0  0  0  0  0  0  0  0  0
  -24.7270  -11.7130   20.7920 C   0  0  0  0  0  0  0  0  0  0  0  0
  -26.3700  -12.9530   20.2000 N   0  0  0  0  0  0  0  0  0  0  0  0
  -26.0080  -11.6700   20.4530 N   0  0  0  0  0  0  0  0  0  0  0  0
  -23.9990  -10.4510   20.9850 C   0  0  0  0  0  0  0  0  0  0  0  0
  -24.4230   -9.4900   21.9290 C   0  0  0  0  0  3  0  0  0  0  0  0
  -23.6940   -8.2940   22.1090 C   0  0  0  0  0  3  0  0  0  0  0  0
  -22.5300   -8.0510   21.3400 C   0  0  0  0  0  0  0  0  0  0  0  0
  -22.1250   -9.0010   20.3870 C   0  0  0  0  0  3  0  0  0  0  0  0
  -22.8550  -10.1880   20.2060 C   0  0  0  0  0  3  0  0  0  0  0  0
  -21.7750   -6.9070   21.4260 O   0  0  0  0  0  0  0  0  0  0  0  0
  -21.6820   -6.1930   22.5950 C   0  0  0  0  0  0  0  0  0  0  0  0
  -21.1940   -6.7740   23.7850 C   0  0  0  0  0  3  0  0  0  0  0  0
  -21.0470   -5.9870   24.9440 C   0  0  0  0  0  3  0  0  0  0  0  0
  -21.3820   -4.6190   24.9150 C   0  0  0  0  0  0  0  0  0  0  0  0
  -21.8630   -4.0380   23.7280 C   0  0  0  0  0  3  0  0  0  0  0  0
  -22.0100   -4.8220   22.5710 C   0  0  0  0  0  0  0  0  0  0  0  0
  -22.4550   -4.2540   21.4250 F   0  0  0  0  0  0  0  0  0  0  0  0
  -21.2350   -3.8610   26.0250 F   0  0  0  0  0  0  0  0  0  0  0  0
  -22.8850  -13.5480   21.1580 C   0  0  0  0  0  0  0  0  0  0  0  0
  -22.1790  -12.8430   22.0330 N   0  0  0  0  0  0  0  0  0  0  0  0
  -22.4430  -14.5850   20.6660 O   0  0  0  0  0  0  0  0  0  0  0  0
  -22.5560  -12.0020   22.4440 H   0  0  0  0  0  0  0  0  0  0  0  0
  -21.2510  -13.1440   22.2910 H   0  0  0  0  0  0  0  0  0  0  0  0
  -25.5010  -15.2110   20.3000 N   0  0  0  0  0  0  0  0  0  0  0  0
  -24.7260  -15.8550   20.4230 H   0  0  0  0  0  0  0  0  0  0  0  0
  -26.3190  -15.6480   19.8950 H   0  0  0  0  0  0  0  0  0  0  0  0
  -28.9830  -23.7230   22.2210 C   0  0  0  0  0  2  0  0  0  0  0  0
  -28.1820  -24.9320   21.6790 C   0  0  0  0  0  2  0  0  0  0  0  0
  -28.5820  -25.4120   20.2660 C   0  0  0  0  0  2  0  0  0  0  0  0
  -28.5440  -26.8400   20.1900 O   0  0  0  0  0  0  0  0  0  0  0  0
  -24.5920  -31.8920   23.2420 C   0  0  0  0  0  0  0  0  0  0  0  0
  -27.3310  -27.4910   20.1970 C   0  0  0  0  0  0  0  0  0  0  0  0
  -23.4210  -30.4790   21.5810 C   0  0  0  0  0  3  0  0  0  0  0  0
  -24.9100  -28.9540   20.1790 C   0  0  0  0  0  0  0  0  0  0  0  0
  -25.9420  -30.8680   21.4130 C   0  0  0  0  0  2  0  0  0  0  0  0
  -26.0510  -29.4980   20.7780 C   0  0  0  0  0  0  0  0  0  0  0  0
  -27.2640  -28.7760   20.7780 C   0  0  0  0  0  3  0  0  0  0  0  0
  -26.1670  -26.9470   19.6080 C   0  0  0  0  0  3  0  0  0  0  0  0
  -24.9620  -27.6760   19.5940 C   0  0  0  0  0  3  0  0  0  0  0  0
  -23.6580  -29.7980   20.2050 C   0  0  0  0  0  2  0  0  0  0  0  0
  -24.6690  -31.0930   22.1380 N   0  0  0  0  0  0  0  0  0  0  0  0
  -23.4990  -32.1540   23.7660 O   0  0  0  0  0  0  0  0  0  0  0  0
  -22.7660  -29.4520   22.5310 C   0  0  0  0  0  0  0  0  0  0  0  0
  -21.4410  -29.2760   22.3970 N   0  0  0  0  0  0  0  0  0  0  0  0
  -23.4460  -28.8160   23.3400 O   0  0  0  0  0  0  0  0  0  0  0  0
  -20.9540  -29.8380   21.7150 H   0  0  0  0  0  0  0  0  0  0  0  0
  -18.0580  -28.1180   22.9000 C   0  0  0  0  0  0  0  0  0  0  0  0
  -20.6200  -28.3320   23.1560 C   0  0  0  0  0  3  0  0  0  0  0  0
  -20.6990  -26.9120   22.5490 C   0  0  0  0  0  2  0  0  0  0  0  0
  -19.5840  -26.6270   21.5390 C   0  0  0  0  0  2  0  0  0  0  0  0
  -18.2090  -26.7790   22.1980 C   0  0  0  0  0  2  0  0  0  0  0  0
  -19.1900  -28.8540   23.3370 C   0  0  0  0  0  0  0  0  0  0  0  0
  -18.9960  -30.1090   23.9540 C   0  0  0  0  0  3  0  0  0  0  0  0
  -17.6990  -30.6260   24.1410 C   0  0  0  0  0  3  0  0  0  0  0  0
  -16.5820  -29.8850   23.7210 C   0  0  0  0  0  3  0  0  0  0  0  0
  -16.7620  -28.6320   23.1060 C   0  0  0  0  0  3  0  0  0  0  0  0
  -25.8620  -32.5340   23.8800 C   0  0  0  0  0  3  0  0  0  0  0  0
  -25.5410  -33.9320   24.1960 N   0  0  0  0  0  0  0  0  0  0  0  0
  -25.8840  -34.9810   23.4380 C   0  0  0  0  0  0  0  0  0  0  0  0
  -26.5760  -34.8750   22.4210 O   0  0  0  0  0  0  0  0  0  0  0  0
  -24.9270  -34.0870   24.9840 H   0  0  0  0  0  0  0  0  0  0  0  0
  -24.1570  -36.7640   23.0310 C   0  0  0  0  0  1  0  0  0  0  0  0
  -25.3790  -36.3690   23.8760 C   0  0  0  0  0  3  0  0  0  0  0  0
  -27.4880  -37.2670   24.7580 C   0  0  0  0  0  1  0  0  0  0  0  0
  -26.4110  -37.4250   23.7840 N   0  0  0  0  0  0  0  0  0  0  0  0
  -25.9980  -38.3440   23.9160 H   0  0  0  0  0  0  0  0  0  0  0  0
  -26.3640  -31.7700   25.1660 C   0  0  1  0  0  0  0  0  0  0  0  0
  -25.2550  -31.5250   26.2150 C   0  0  0  0  0  1  0  0  0  0  0  0
  -26.9630  -30.3970   24.7840 C   0  0  0  0  0  1  0  0  0  0  0  0
  -27.4970  -32.5740   25.8440 C   0  0  0  0  0  1  0  0  0  0  0  0
  1  2  1  0
  2 48  1  0
  2  4  1  0
  3  1  2  0
  5  1  1  0
  7  5  1  0
  7  6  2  0
  8 17  1  0
  9 14  1  0
 10 11  1  0
 10  9  1  0
 12 11  1  0
 12 23  1  0
 12 13  1  0
 14  8  1  0
 14 13  1  0
 15  8  2  0
 16 18  2  0
 16  6  1  0
 17 16  1  0
 17 19  1  0
 20 21  2  0
 21 40  1  0
 22 21  1  0
 22 25  1  0
 23 24  1  0
 23 20  1  0
 24 22  2  0
 25 26  1  0
 26 27  2  0
 28 31  1  0
 28 27  1  0
 29 28  2  0
 30 29  1  0
 30 25  2  0
 31 32  1  0
 32 33  1  0
 33 34  2  0
 35 34  1  0
 35 39  1  0
 36 35  2  0
 37 32  2  0
 37 36  1  0
 38 37  1  0
 40 41  1  0
 41 44  1  0
 41 43  1  0
 42 40  2  0
 45 46  1  0
 45 20  1  0
 47 45  1  0
 49 48  1  0
 50 49  1  0
 51 53  1  0
 51 50  1  0
 52 63  2  0
 53 58  1  0
 54 62  1  0
 54 64  1  0
 55 61  1  0
 55 57  1  0
 56 62  1  0
 57 56  1  0
 58 57  2  0
 59 53  2  0
 60 59  1  0
 60 55  2  0
 61 54  1  0
 62 52  1  0
 64 66  2  0
 65 64  1  0
 67 65  1  0
 68 77  2  0
 68 73  1  0
 69 65  1  0
 69 73  1  0
 70 69  1  0
 71 72  1  0
 71 70  1  0
 72 68  1  0
 73 74  2  0
 74 75  1  0
 76 75  2  0
 77 76  1  0
 78 52  1  0
 78 79  1  0
 78 88  1  0
 79 82  1  0
 80 84  1  0
 80 79  1  0
 81 80  2  0
 84 83  1  0
 86 84  1  0
 86 87  1  0
 86 85  1  0
 88 91  1  1
 88 89  1  0
 90 88  1  0
M  ISO  4   8 100  17 100  50 101  51 101
M  END
>  <TORSDO>  (39) 
F 21

>  <SCORE>  (39) 
-13.408

>  <name>  (39) 
38

>  <ligand_id>  (39) 
38

>  <original_smiles>  (39) 
[H]C(C(=O)N([H])C(=O)N1C([H])([H])C([H])([H])C([H])([H])C([H])(n2nc(-c3c([H])c([H])c(Oc4c([H])c([H])c(F)c([H])c4F)c([H])c3[H])c(C(=O)N([H])[H])c2N([H])[H])C1([H])[H])=C([H])C([H])([H])C(=O)N([H])C([H])([H])C([H])([H])C([H])([H])Oc1c([H])c([H])c2c(c1[H])C([H])([H])N(C(=O)C([H])(N([H])C(=O)C([H])(N([H])C([H])([H])[H])C([H])([H])[H])C(C([H])([H])[H])(C([H])([H])[H])C([H])([H])[H])C([H])(C(=O)N([H])C1([H])c3c([H])c([H])c([H])c([H])c3C([H])([H])C([H])([H])C1([H])[H])C2([H])[H]

>  <smiles>  (39) 
[H]C(C(=O)N([H])C(=O)N1C([H])([H])C([H])([H])C([H])([H])C([H])(n2nc(-c3c([H])c([H])c(Oc4c([H])c([H])c(F)c([H])c4F)c([H])c3[H])c(C(=O)N([H])[H])c2N([H])[H])C1([H])[H])=C([H])C([H])([H])C(=O)N([H])C([H])([H])C([H])([H])C([H])([H])Oc1c([H])c([H])c2c(c1[H])C([H])([H])N(C(=O)C([H])(N([H])C(=O)C([H])(N([H])C([H])([H])[H])C([H])([H])[H])C(C([H])([H])[H])(C([H])([H])[H])C([H])([H])[H])C([H])(C(=O)N([H])C1([H])c3c([H])c([H])c([H])c([H])c3C([H])([H])C([H])([H])C1([H])[H])C2([H])[H]

$$$$
39:0:0
     RDKit          3D

 95102  0  0  1  0  0  0  0  0999 V2000
  -32.1380  -20.3490   19.7170 C   0  0  0  0  0  2  0  0  0  0  0  0
  -33.1850  -19.3880   20.3110 C   0  0  0  0  0  2  0  0  0  0  0  0
  -31.8090  -17.3320   20.7230 C   0  0  0  0  0  0  0  0  0  0  0  0
  -32.6230  -18.3140   21.1310 N   0  0  0  0  0  0  0  0  0  0  0  0
  -31.3500  -17.2770   19.5800 O   0  0  0  0  0  0  0  0  0  0  0  0
  -32.8830  -18.3170   22.1090 H   0  0  0  0  0  0  0  0  0  0  0  0
  -31.4560  -16.2470   21.7700 C   0  0  0  0  0  3  0  0  0  0  0  0
  -31.3620  -14.2250   20.2190 C   0  0  0  0  0  0  0  0  0  0  0  0
  -30.8790  -12.2140   18.8730 C   0  0  0  0  0  2  0  0  0  0  0  0
  -29.9310  -12.5350   17.7030 C   0  0  0  0  0  2  0  0  0  0  0  0
  -28.4580  -12.4580   18.1480 C   0  0  0  0  0  2  0  0  0  0  0  0
  -28.1910  -13.2630   19.4470 C   0  0  0  0  0  3  0  0  0  0  0  0
  -29.2330  -12.9120   20.5290 C   0  0  0  0  0  2  0  0  0  0  0  0
  -30.5780  -13.1470   19.9680 N   0  0  0  0  0  0  0  0  0  0  0  0
  -32.4220  -14.4400   19.6210 O   0  0  0  0  0  0  0  0  0  0  0  0
  -30.9030  -15.0140   21.2000 N   0  0  0  0  0  0  0  0  0  0  0  0
  -30.0250  -14.7150   21.5940 H   0  0  0  0  0  0  0  0  0  0  0  0
  -25.8240  -13.9910   20.1500 C   0  0  0  0  0  0  0  0  0  0  0  0
  -24.7260  -13.2710   20.5440 C   0  0  0  0  0  0  0  0  0  0  0  0
  -25.1300  -11.9010   20.5400 C   0  0  0  0  0  0  0  0  0  0  0  0
  -26.8280  -13.0600   19.9320 N   0  0  0  0  0  0  0  0  0  0  0  0
  -26.4140  -11.8000   20.2250 N   0  0  0  0  0  0  0  0  0  0  0  0
  -24.3530  -10.6750   20.7630 C   0  0  0  0  0  0  0  0  0  0  0  0
  -24.7420   -9.7190   21.7270 C   0  0  0  0  0  3  0  0  0  0  0  0
  -23.9700   -8.5560   21.9350 C   0  0  0  0  0  3  0  0  0  0  0  0
  -22.7930   -8.3420   21.1780 C   0  0  0  0  0  0  0  0  0  0  0  0
  -22.4240   -9.2840   20.2020 C   0  0  0  0  0  3  0  0  0  0  0  0
  -23.1970  -10.4380   19.9930 C   0  0  0  0  0  3  0  0  0  0  0  0
  -21.9940   -7.2290   21.2940 O   0  0  0  0  0  0  0  0  0  0  0  0
  -21.8870   -6.5380   22.4740 C   0  0  0  0  0  0  0  0  0  0  0  0
  -21.4750   -7.1670   23.6700 C   0  0  0  0  0  3  0  0  0  0  0  0
  -21.3120   -6.4060   24.8450 C   0  0  0  0  0  3  0  0  0  0  0  0
  -21.5490   -5.0180   24.8250 C   0  0  0  0  0  0  0  0  0  0  0  0
  -21.9520   -4.3900   23.6350 C   0  0  0  0  0  3  0  0  0  0  0  0
  -22.1190   -5.1470   22.4620 C   0  0  0  0  0  0  0  0  0  0  0  0
  -22.4880   -4.5340   21.3130 F   0  0  0  0  0  0  0  0  0  0  0  0
  -21.3840   -4.2860   25.9520 F   0  0  0  0  0  0  0  0  0  0  0  0
  -23.3530  -13.8130   20.8150 C   0  0  0  0  0  0  0  0  0  0  0  0
  -22.6120  -13.1790   21.7170 N   0  0  0  0  0  0  0  0  0  0  0  0
  -22.9460  -14.8340   20.2640 O   0  0  0  0  0  0  0  0  0  0  0  0
  -22.9520  -12.3520   22.1850 H   0  0  0  0  0  0  0  0  0  0  0  0
  -21.6900  -13.5260   21.9440 H   0  0  0  0  0  0  0  0  0  0  0  0
  -26.0440  -15.3480   19.9410 N   0  0  0  0  0  0  0  0  0  0  0  0
  -25.3120  -16.0400   20.0550 H   0  0  0  0  0  0  0  0  0  0  0  0
  -26.9100  -15.7430   19.5980 H   0  0  0  0  0  0  0  0  0  0  0  0
  -31.1710  -17.7440   23.8650 C   0  0  0  0  0  1  0  0  0  0  0  0
  -29.1450  -17.2130   22.4340 C   0  0  0  0  0  1  0  0  0  0  0  0
  -30.5200  -16.7160   22.9220 C   0  0  0  0  0  3  0  0  0  0  0  0
  -30.9570  -20.9800   20.9480 S   0  0  0  0  0  0  0  0  0  0  0  0
  -29.6630  -21.5520   19.8050 C   0  0  0  0  0  2  0  0  0  0  0  0
  -28.4960  -22.2330   20.5310 C   0  0  0  0  0  2  0  0  0  0  0  0
  -29.0030  -23.3080   21.3130 O   0  0  0  0  0  0  0  0  0  0  0  0
  -28.2500  -24.5080   21.2210 C   0  0  0  0  0  2  0  0  0  0  0  0
  -28.6980  -25.3350   20.0030 C   0  0  0  0  0  2  0  0  0  0  0  0
  -28.6030  -26.7230   20.2880 O   0  0  0  0  0  0  0  0  0  0  0  0
  -24.6400  -31.7790   23.2580 C   0  0  0  0  0  0  0  0  0  0  0  0
  -27.3770  -27.3470   20.2740 C   0  0  0  0  0  0  0  0  0  0  0  0
  -23.4690  -30.3580   21.6020 C   0  0  0  0  0  3  0  0  0  0  0  0
  -24.9570  -28.8060   20.2320 C   0  0  0  0  0  0  0  0  0  0  0  0
  -25.9920  -30.7310   21.4500 C   0  0  0  0  0  2  0  0  0  0  0  0
  -26.0960  -29.3520   20.8340 C   0  0  0  0  0  0  0  0  0  0  0  0
  -27.3040  -28.6280   20.8540 C   0  0  0  0  0  3  0  0  0  0  0  0
  -26.2130  -26.7930   19.6860 C   0  0  0  0  0  3  0  0  0  0  0  0
  -25.0080  -27.5200   19.6630 C   0  0  0  0  0  3  0  0  0  0  0  0
  -23.7070  -29.6560   20.2360 C   0  0  0  0  0  2  0  0  0  0  0  0
  -24.7170  -30.9700   22.1630 N   0  0  0  0  0  0  0  0  0  0  0  0
  -23.5480  -32.0540   23.7740 O   0  0  0  0  0  0  0  0  0  0  0  0
  -22.8000  -29.3480   22.5580 C   0  0  0  0  0  0  0  0  0  0  0  0
  -21.4800  -29.1650   22.4020 N   0  0  0  0  0  0  0  0  0  0  0  0
  -23.4670  -28.7270   23.3900 O   0  0  0  0  0  0  0  0  0  0  0  0
  -21.0080  -29.7100   21.6940 H   0  0  0  0  0  0  0  0  0  0  0  0
  -18.0940  -27.9890   22.8340 C   0  0  0  0  0  0  0  0  0  0  0  0
  -20.6460  -28.2380   23.1640 C   0  0  0  0  0  3  0  0  0  0  0  0
  -20.7570  -26.8020   22.6040 C   0  0  0  0  0  2  0  0  0  0  0  0
  -19.6780  -26.4740   21.5680 C   0  0  0  0  0  2  0  0  0  0  0  0
  -18.2830  -26.6310   22.1760 C   0  0  0  0  0  2  0  0  0  0  0  0
  -19.2050  -28.7500   23.2830 C   0  0  0  0  0  0  0  0  0  0  0  0
  -18.9780  -30.0210   23.8540 C   0  0  0  0  0  3  0  0  0  0  0  0
  -17.6720  -30.5290   23.9850 C   0  0  0  0  0  3  0  0  0  0  0  0
  -16.5750  -29.7640   23.5540 C   0  0  0  0  0  3  0  0  0  0  0  0
  -16.7870  -28.4960   22.9820 C   0  0  0  0  0  3  0  0  0  0  0  0
  -25.9130  -32.4150   23.8990 C   0  0  0  0  0  3  0  0  0  0  0  0
  -26.4230  -31.6370   25.1730 C   0  0  1  0  0  0  0  0  0  0  0  0
  -25.3190  -31.3790   26.2250 C   0  0  0  0  0  1  0  0  0  0  0  0
  -27.0220  -30.2700   24.7710 C   0  0  0  0  0  1  0  0  0  0  0  0
  -27.5580  -32.4360   25.8550 C   0  0  0  0  0  1  0  0  0  0  0  0
  -25.5890  -33.8070   24.2330 N   0  0  0  0  0  0  0  0  0  0  0  0
  -25.9240  -34.8660   23.4830 C   0  0  0  0  0  0  0  0  0  0  0  0
  -26.6070  -34.7740   22.4600 O   0  0  0  0  0  0  0  0  0  0  0  0
  -24.9860  -33.9520   25.0290 H   0  0  0  0  0  0  0  0  0  0  0  0
  -24.1750  -36.6340   23.1220 C   0  0  0  0  0  1  0  0  0  0  0  0
  -25.4170  -36.2470   23.9400 C   0  0  0  0  0  3  0  0  0  0  0  0
  -27.5360  -37.1520   24.7850 C   0  0  0  0  0  1  0  0  0  0  0  0
  -26.4370  -37.3130   23.8350 N   0  0  0  0  0  0  0  0  0  0  0  0
  -26.0200  -38.2280   23.9850 H   0  0  0  0  0  0  0  0  0  0  0  0
  1  2  1  0
  1 49  1  0
  2  4  1  0
  3  4  1  0
  4  6  1  0
  5  3  2  0
  7  3  1  0
  7 48  1  0
  8 16  1  0
  9 14  1  0
 10 11  1  0
 10  9  1  0
 12 11  1  0
 12 21  1  0
 12 13  1  0
 14  8  1  0
 14 13  1  0
 15  8  2  0
 16 17  1  0
 16  7  1  0
 18 19  2  0
 19 38  1  0
 20 19  1  0
 20 23  1  0
 21 18  1  0
 21 22  1  0
 22 20  2  0
 23 24  1  0
 24 25  2  0
 26 29  1  0
 26 25  1  0
 27 26  2  0
 28 27  1  0
 28 23  2  0
 29 30  1  0
 30 31  1  0
 31 32  2  0
 33 32  1  0
 33 37  1  0
 34 33  2  0
 35 30  2  0
 35 34  1  0
 36 35  1  0
 38 39  1  0
 39 42  1  0
 39 41  1  0
 40 38  2  0
 43 44  1  0
 43 18  1  0
 45 43  1  0
 47 48  1  0
 48 46  1  0
 50 51  1  0
 50 49  1  0
 51 52  1  0
 53 52  1  0
 54 55  1  0
 54 53  1  0
 56 67  2  0
 57 55  1  0
 57 62  1  0
 58 66  1  0
 58 68  1  0
 59 65  1  0
 59 61  1  0
 60 66  1  0
 61 62  2  0
 61 60  1  0
 63 57  2  0
 64 63  1  0
 64 59  2  0
 65 58  1  0
 66 56  1  0
 68 70  2  0
 69 68  1  0
 71 69  1  0
 72 81  2  0
 72 77  1  0
 73 69  1  0
 73 77  1  0
 74 73  1  0
 75 76  1  0
 75 74  1  0
 76 72  1  0
 77 78  2  0
 78 79  1  0
 80 79  2  0
 81 80  1  0
 82 56  1  0
 82 87  1  0
 82 83  1  0
 83 86  1  1
 83 84  1  0
 85 83  1  0
 87 90  1  0
 88 92  1  0
 88 87  1  0
 89 88  2  0
 92 91  1  0
 94 92  1  0
 94 95  1  0
 94 93  1  0
M  ISO  4   8 100  16 100  54 101  55 101
M  END
>  <TORSDO>  (40) 
F 26

>  <SCORE>  (40) 
-8.506

>  <name>  (40) 
39

>  <ligand_id>  (40) 
39

>  <original_smiles>  (40) 
[H]c1c([H])c([H])c2c(c1[H])C([H])([H])C([H])([H])C([H])([H])C2([H])N([H])C(=O)C1([H])N(C(=O)C([H])(N([H])C(=O)C([H])(N([H])C([H])([H])[H])C([H])([H])[H])C(C([H])([H])[H])(C([H])([H])[H])C([H])([H])[H])C([H])([H])c2c([H])c(OC([H])([H])C([H])([H])OC([H])([H])C([H])([H])SC([H])([H])C([H])([H])N([H])C(=O)C([H])(N([H])C(=O)N3C([H])([H])C([H])([H])C([H])([H])C([H])(n4nc(-c5c([H])c([H])c(Oc6c([H])c([H])c(F)c([H])c6F)c([H])c5[H])c(C(=O)N([H])[H])c4N([H])[H])C3([H])[H])C([H])(C([H])([H])[H])C([H])([H])[H])c([H])c([H])c2C1([H])[H]

>  <smiles>  (40) 
[H]c1c([H])c([H])c2c(c1[H])C([H])([H])C([H])([H])C([H])([H])C2([H])N([H])C(=O)C1([H])N(C(=O)C([H])(N([H])C(=O)C([H])(N([H])C([H])([H])[H])C([H])([H])[H])C(C([H])([H])[H])(C([H])([H])[H])C([H])([H])[H])C([H])([H])c2c([H])c(OC([H])([H])C([H])([H])OC([H])([H])C([H])([H])SC([H])([H])C([H])([H])N([H])C(=O)C([H])(N([H])C(=O)N3C([H])([H])C([H])([H])C([H])([H])C([H])(n4nc(-c5c([H])c([H])c(Oc6c([H])c([H])c(F)c([H])c6F)c([H])c5[H])c(C(=O)N([H])[H])c4N([H])[H])C3([H])[H])C([H])(C([H])([H])[H])C([H])([H])[H])c([H])c([H])c2C1([H])[H]

$$$$
40:0:0
     RDKit          3D

 90 97  0  0  1  0  0  0  0  0999 V2000
  -28.7920  -21.0860   20.5250 C   0  0  0  0  0  0  0  0  0  0  0  0
  -29.5490  -19.9630   20.1850 N   0  0  0  0  0  0  0  0  0  0  0  0
  -27.8760  -20.9640   21.3390 O   0  0  0  0  0  0  0  0  0  0  0  0
  -30.2900  -20.1040   19.5090 H   0  0  0  0  0  0  0  0  0  0  0  0
  -29.0580  -22.4270   19.8690 C   0  0  0  0  0  3  0  0  0  0  0  0
  -28.3860  -23.6230   20.1510 C   0  0  0  0  0  3  0  0  0  0  0  0
  -28.4830  -25.0400   19.4100 C   0  0  0  0  0  2  0  0  0  0  0  0
  -28.3530  -26.3690   20.1170 O   0  0  0  0  0  0  0  0  0  0  0  0
  -24.6220  -31.8190   23.1370 C   0  0  0  0  0  0  0  0  0  0  0  0
  -27.2360  -27.2410   20.0310 C   0  0  0  0  0  0  0  0  0  0  0  0
  -23.4180  -30.4280   21.4920 C   0  0  0  0  0  3  0  0  0  0  0  0
  -24.8690  -28.8880   20.0410 C   0  0  0  0  0  0  0  0  0  0  0  0
  -25.9590  -30.7430   21.3030 C   0  0  0  0  0  2  0  0  0  0  0  0
  -26.0400  -29.3660   20.6400 C   0  0  0  0  0  0  0  0  0  0  0  0
  -27.2210  -28.5530   20.6260 C   0  0  0  0  0  3  0  0  0  0  0  0
  -26.0340  -26.8300   19.4120 C   0  0  0  0  0  3  0  0  0  0  0  0
  -24.8730  -27.6300   19.4170 C   0  0  0  0  0  3  0  0  0  0  0  0
  -23.6300  -29.7620   20.1050 C   0  0  0  0  0  2  0  0  0  0  0  0
  -24.6860  -31.0160   22.0340 N   0  0  0  0  0  0  0  0  0  0  0  0
  -23.5390  -32.0870   23.6790 O   0  0  0  0  0  0  0  0  0  0  0  0
  -22.7620  -29.4030   22.4500 C   0  0  0  0  0  0  0  0  0  0  0  0
  -21.4390  -29.2100   22.3180 N   0  0  0  0  0  0  0  0  0  0  0  0
  -23.4450  -28.7850   23.2710 O   0  0  0  0  0  0  0  0  0  0  0  0
  -20.9460  -29.7600   21.6290 H   0  0  0  0  0  0  0  0  0  0  0  0
  -18.0790  -27.9470   22.7900 C   0  0  0  0  0  0  0  0  0  0  0  0
  -20.6300  -28.2580   23.0840 C   0  0  0  0  0  3  0  0  0  0  0  0
  -20.7650  -26.8270   22.5150 C   0  0  0  0  0  2  0  0  0  0  0  0
  -19.6800  -26.4800   21.4900 C   0  0  0  0  0  2  0  0  0  0  0  0
  -18.2890  -26.6000   22.1200 C   0  0  0  0  0  2  0  0  0  0  0  0
  -19.1790  -28.7320   23.2290 C   0  0  0  0  0  0  0  0  0  0  0  0
  -18.9280  -29.9920   23.8160 C   0  0  0  0  0  3  0  0  0  0  0  0
  -17.6130  -30.4670   23.9690 C   0  0  0  0  0  3  0  0  0  0  0  0
  -16.5280  -29.6790   23.5460 C   0  0  0  0  0  3  0  0  0  0  0  0
  -16.7620  -28.4210   22.9620 C   0  0  0  0  0  3  0  0  0  0  0  0
  -25.9020  -32.4550   23.7600 C   0  0  0  0  0  3  0  0  0  0  0  0
  -26.4400  -31.6650   25.0170 C   0  0  1  0  0  0  0  0  0  0  0  0
  -25.3600  -31.3940   26.0900 C   0  0  0  0  0  1  0  0  0  0  0  0
  -27.0350  -30.3020   24.5950 C   0  0  0  0  0  1  0  0  0  0  0  0
  -27.5870  -32.4600   25.6840 C   0  0  0  0  0  1  0  0  0  0  0  0
  -25.5790  -33.8420   24.1250 N   0  0  0  0  0  0  0  0  0  0  0  0
  -25.8910  -34.9180   23.3880 C   0  0  0  0  0  0  0  0  0  0  0  0
  -26.5510  -34.8460   22.3480 O   0  0  0  0  0  0  0  0  0  0  0  0
  -24.9920  -33.9710   24.9350 H   0  0  0  0  0  0  0  0  0  0  0  0
  -24.1420  -36.7020   23.0940 C   0  0  0  0  0  1  0  0  0  0  0  0
  -25.3950  -36.2890   23.8840 C   0  0  0  0  0  3  0  0  0  0  0  0
  -27.5260  -37.1780   24.7190 C   0  0  0  0  0  1  0  0  0  0  0  0
  -26.4160  -37.3560   23.7880 N   0  0  0  0  0  0  0  0  0  0  0  0
  -26.0010  -38.2680   23.9580 H   0  0  0  0  0  0  0  0  0  0  0  0
  -29.5780  -18.4160   22.2000 C   0  0  0  0  0  1  0  0  0  0  0  0
  -29.4020  -18.4950   20.6670 C   0  0  0  0  0  3  0  0  0  0  0  0
  -30.7580  -14.8370   19.7990 C   0  0  0  0  0  0  0  0  0  0  0  0
  -30.4310  -12.5920   18.7370 C   0  0  0  0  0  2  0  0  0  0  0  0
  -29.3880  -12.7260   17.6060 C   0  0  0  0  0  2  0  0  0  0  0  0
  -27.9620  -12.5480   18.1610 C   0  0  0  0  0  2  0  0  0  0  0  0
  -27.7160  -13.3840   19.4460 C   0  0  0  0  0  3  0  0  0  0  0  0
  -28.8730  -13.2440   20.4600 C   0  0  0  0  0  2  0  0  0  0  0  0
  -30.1120  -13.6150   19.7650 N   0  0  0  0  0  0  0  0  0  0  0  0
  -31.9070  -14.8970   19.3520 O   0  0  0  0  0  0  0  0  0  0  0  0
  -30.3280  -17.3390   20.0260 C   0  0  0  0  0  0  0  0  0  0  0  0
  -30.0320  -15.9770   20.1670 N   0  0  0  0  0  0  0  0  0  0  0  0
  -31.3200  -17.7360   19.4080 O   0  0  0  0  0  0  0  0  0  0  0  0
  -29.1410  -15.7850   20.5920 H   0  0  0  0  0  0  0  0  0  0  0  0
  -25.4140  -13.9640   20.4120 C   0  0  0  0  0  0  0  0  0  0  0  0
  -24.3780  -13.1860   20.8520 C   0  0  0  0  0  0  0  0  0  0  0  0
  -24.8210  -11.8330   20.7320 C   0  0  0  0  0  0  0  0  0  0  0  0
  -26.4210  -13.0860   20.0480 N   0  0  0  0  0  0  0  0  0  0  0  0
  -26.0780  -11.7960   20.3040 N   0  0  0  0  0  0  0  0  0  0  0  0
  -24.1000  -10.5700   20.9430 C   0  0  0  0  0  0  0  0  0  0  0  0
  -24.5440   -9.6140   21.8820 C   0  0  0  0  0  3  0  0  0  0  0  0
  -23.8220   -8.4180   22.0810 C   0  0  0  0  0  3  0  0  0  0  0  0
  -22.6410   -8.1690   21.3410 C   0  0  0  0  0  0  0  0  0  0  0  0
  -22.2160   -9.1140   20.3900 C   0  0  0  0  0  3  0  0  0  0  0  0
  -22.9390  -10.3020   20.1890 C   0  0  0  0  0  3  0  0  0  0  0  0
  -21.8890   -7.0240   21.4490 O   0  0  0  0  0  0  0  0  0  0  0  0
  -21.7720   -6.3500   22.6380 C   0  0  0  0  0  0  0  0  0  0  0  0
  -21.2600   -6.9700   23.7990 C   0  0  0  0  0  3  0  0  0  0  0  0
  -21.0920   -6.2210   24.9810 C   0  0  0  0  0  3  0  0  0  0  0  0
  -21.4240   -4.8530   25.0020 C   0  0  0  0  0  0  0  0  0  0  0  0
  -21.9290   -4.2330   23.8450 C   0  0  0  0  0  3  0  0  0  0  0  0
  -22.0990   -4.9790   22.6660 C   0  0  0  0  0  0  0  0  0  0  0  0
  -22.5650   -4.3720   21.5480 F   0  0  0  0  0  0  0  0  0  0  0  0
  -21.2560   -4.1320   26.1340 F   0  0  0  0  0  0  0  0  0  0  0  0
  -23.0180  -13.6650   21.2640 C   0  0  0  0  0  0  0  0  0  0  0  0
  -22.3670  -12.9520   22.1790 N   0  0  0  0  0  0  0  0  0  0  0  0
  -22.5420  -14.7070   20.8120 O   0  0  0  0  0  0  0  0  0  0  0  0
  -22.7670  -12.1110   22.5650 H   0  0  0  0  0  0  0  0  0  0  0  0
  -21.4580  -13.2550   22.4970 H   0  0  0  0  0  0  0  0  0  0  0  0
  -25.5750  -15.3390   20.2650 N   0  0  0  0  0  0  0  0  0  0  0  0
  -24.8180  -15.9880   20.4530 H   0  0  0  0  0  0  0  0  0  0  0  0
  -26.3660  -15.7770   19.8140 H   0  0  0  0  0  0  0  0  0  0  0  0
  1  3  2  0
  2  1  1  0
  2 50  1  0
  4  2  1  0
  5  6  2  0
  5  1  1  0
  7  8  1  0
  7  6  1  0
  9 20  2  0
 10  8  1  0
 10 15  1  0
 11 19  1  0
 11 21  1  0
 12 18  1  0
 12 14  1  0
 13 19  1  0
 14 13  1  0
 15 14  2  0
 16 17  1  0
 16 10  2  0
 17 12  2  0
 18 11  1  0
 19  9  1  0
 21 23  2  0
 22 21  1  0
 24 22  1  0
 25 34  2  0
 25 30  1  0
 26 22  1  0
 26 30  1  0
 27 26  1  0
 28 29  1  0
 28 27  1  0
 29 25  1  0
 30 31  2  0
 31 32  1  0
 33 32  2  0
 34 33  1  0
 35  9  1  0
 35 40  1  0
 35 36  1  0
 36 39  1  1
 36 37  1  0
 38 36  1  0
 40 43  1  0
 41 45  1  0
 41 40  1  0
 42 41  2  0
 45 44  1  0
 47 45  1  0
 47 48  1  0
 47 46  1  0
 50 49  1  0
 51 60  1  0
 52 57  1  0
 53 54  1  0
 53 52  1  0
 55 54  1  0
 55 66  1  0
 55 56  1  0
 57 51  1  0
 57 56  1  0
 58 51  2  0
 59 60  1  0
 59 50  1  0
 60 62  1  0
 61 59  2  0
 63 64  2  0
 64 83  1  0
 65 64  1  0
 65 68  1  0
 66 67  1  0
 66 63  1  0
 67 65  2  0
 68 69  1  0
 69 70  2  0
 71 74  1  0
 71 70  1  0
 72 71  2  0
 73 72  1  0
 73 68  2  0
 74 75  1  0
 75 80  2  0
 75 76  1  0
 76 77  2  0
 77 78  1  0
 78 82  1  0
 79 78  2  0
 80 79  1  0
 81 80  1  0
 83 84  1  0
 84 87  1  0
 84 86  1  0
 85 83  2  0
 88 63  1  0
 88 89  1  0
 90 88  1  0
M  ISO  4   7 101   8 101  51 100  60 100
M  END
>  <TORSDO>  (41) 
F 19

>  <SCORE>  (41) 
-12.378

>  <name>  (41) 
40

>  <ligand_id>  (41) 
40

>  <original_smiles>  (41) 
[H]C(C(=O)N([H])C([H])(C(=O)N([H])C(=O)N1C([H])([H])C([H])([H])C([H])([H])C([H])(n2nc(-c3c([H])c([H])c(Oc4c([H])c([H])c(F)c([H])c4F)c([H])c3[H])c(C(=O)N([H])[H])c2N([H])[H])C1([H])[H])C([H])([H])[H])=C([H])C([H])([H])Oc1c([H])c([H])c2c(c1[H])C([H])([H])N(C(=O)C([H])(N([H])C(=O)C([H])(N([H])C([H])([H])[H])C([H])([H])[H])C(C([H])([H])[H])(C([H])([H])[H])C([H])([H])[H])C([H])(C(=O)N([H])C1([H])c3c([H])c([H])c([H])c([H])c3C([H])([H])C([H])([H])C1([H])[H])C2([H])[H]

>  <smiles>  (41) 
[H]C(C(=O)N([H])C([H])(C(=O)N([H])C(=O)N1C([H])([H])C([H])([H])C([H])([H])C([H])(n2nc(-c3c([H])c([H])c(Oc4c([H])c([H])c(F)c([H])c4F)c([H])c3[H])c(C(=O)N([H])[H])c2N([H])[H])C1([H])[H])C([H])([H])[H])=C([H])C([H])([H])Oc1c([H])c([H])c2c(c1[H])C([H])([H])N(C(=O)C([H])(N([H])C(=O)C([H])(N([H])C([H])([H])[H])C([H])([H])[H])C(C([H])([H])[H])(C([H])([H])[H])C([H])([H])[H])C([H])(C(=O)N([H])C1([H])c3c([H])c([H])c([H])c([H])c3C([H])([H])C([H])([H])C1([H])[H])C2([H])[H]

$$$$
41:0:0
     RDKit          3D

 90 97  0  0  1  0  0  0  0  0999 V2000
  -28.8660  -22.2020   21.0090 C   0  0  0  0  0  3  0  0  0  0  0  0
  -28.6090  -23.5300   21.0910 C   0  0  0  0  0  3  0  0  0  0  0  0
  -29.5880  -21.5050   22.0740 C   0  0  0  0  0  0  0  0  0  0  0  0
  -29.8190  -20.1890   21.8990 N   0  0  0  0  0  0  0  0  0  0  0  0
  -29.9370  -22.0380   23.1270 O   0  0  0  0  0  0  0  0  0  0  0  0
  -30.2370  -19.7320   22.6980 H   0  0  0  0  0  0  0  0  0  0  0  0
  -29.6610  -19.3500   20.7050 C   0  0  0  0  0  2  0  0  0  0  0  0
  -29.5060  -17.8430   21.0350 C   0  0  0  0  0  2  0  0  0  0  0  0
  -30.6930  -16.9380   20.6210 C   0  0  0  0  0  2  0  0  0  0  0  0
  -30.9840  -14.5160   20.0900 C   0  0  0  0  0  0  0  0  0  0  0  0
  -30.6130  -12.3590   18.9530 C   0  0  0  0  0  2  0  0  0  0  0  0
  -29.6370  -12.5590   17.7730 C   0  0  0  0  0  2  0  0  0  0  0  0
  -28.1730  -12.4490   18.2390 C   0  0  0  0  0  2  0  0  0  0  0  0
  -27.8830  -13.3190   19.4900 C   0  0  0  0  0  3  0  0  0  0  0  0
  -28.9590  -13.0960   20.5770 C   0  0  0  0  0  2  0  0  0  0  0  0
  -30.2830  -13.3580   19.9810 N   0  0  0  0  0  0  0  0  0  0  0  0
  -32.0720  -14.7090   19.5390 O   0  0  0  0  0  0  0  0  0  0  0  0
  -30.3420  -15.5150   20.7200 N   0  0  0  0  0  0  0  0  0  0  0  0
  -29.4520  -15.2830   21.1370 H   0  0  0  0  0  0  0  0  0  0  0  0
  -25.5210  -13.9810   20.2670 C   0  0  0  0  0  0  0  0  0  0  0  0
  -24.4490  -13.2290   20.6690 C   0  0  0  0  0  0  0  0  0  0  0  0
  -24.8830  -11.8670   20.6340 C   0  0  0  0  0  0  0  0  0  0  0  0
  -26.5400  -13.0760   20.0080 N   0  0  0  0  0  0  0  0  0  0  0  0
  -26.1600  -11.8020   20.2840 N   0  0  0  0  0  0  0  0  0  0  0  0
  -24.1430  -10.6190   20.8490 C   0  0  0  0  0  0  0  0  0  0  0  0
  -24.5510   -9.6720   21.8170 C   0  0  0  0  0  3  0  0  0  0  0  0
  -23.8070   -8.4900   22.0200 C   0  0  0  0  0  3  0  0  0  0  0  0
  -22.6430   -8.2470   21.2550 C   0  0  0  0  0  0  0  0  0  0  0  0
  -22.2550   -9.1790   20.2770 C   0  0  0  0  0  3  0  0  0  0  0  0
  -22.9990  -10.3520   20.0720 C   0  0  0  0  0  3  0  0  0  0  0  0
  -21.8720   -7.1130   21.3620 O   0  0  0  0  0  0  0  0  0  0  0  0
  -21.7490   -6.4380   22.5510 C   0  0  0  0  0  0  0  0  0  0  0  0
  -21.2450   -7.0620   23.7130 C   0  0  0  0  0  3  0  0  0  0  0  0
  -21.0680   -6.3120   24.8930 C   0  0  0  0  0  3  0  0  0  0  0  0
  -21.3890   -4.9400   24.9120 C   0  0  0  0  0  0  0  0  0  0  0  0
  -21.8880   -4.3180   23.7540 C   0  0  0  0  0  3  0  0  0  0  0  0
  -22.0660   -5.0660   22.5770 C   0  0  0  0  0  0  0  0  0  0  0  0
  -22.5260   -4.4560   21.4560 F   0  0  0  0  0  0  0  0  0  0  0  0
  -21.2140   -4.2170   26.0420 F   0  0  0  0  0  0  0  0  0  0  0  0
  -23.0680  -13.7320   20.9810 C   0  0  0  0  0  0  0  0  0  0  0  0
  -22.3580  -13.0550   21.8740 N   0  0  0  0  0  0  0  0  0  0  0  0
  -22.6250  -14.7580   20.4620 O   0  0  0  0  0  0  0  0  0  0  0  0
  -22.7290  -12.2210   22.3060 H   0  0  0  0  0  0  0  0  0  0  0  0
  -21.4340  -13.3730   22.1290 H   0  0  0  0  0  0  0  0  0  0  0  0
  -25.7100  -15.3470   20.0800 N   0  0  0  0  0  0  0  0  0  0  0  0
  -24.9740  -16.0310   20.2250 H   0  0  0  0  0  0  0  0  0  0  0  0
  -26.5620  -15.7650   19.7280 H   0  0  0  0  0  0  0  0  0  0  0  0
  -27.7580  -24.3020   20.0910 C   0  0  0  0  0  2  0  0  0  0  0  0
  -28.4270  -25.5210   19.4030 C   0  0  0  0  0  2  0  0  0  0  0  0
  -28.3090  -26.7720   20.1000 O   0  0  0  0  0  0  0  0  0  0  0  0
  -24.5490  -31.9130   23.2470 C   0  0  0  0  0  0  0  0  0  0  0  0
  -27.1200  -27.4820   20.0720 C   0  0  0  0  0  0  0  0  0  0  0  0
  -23.3050  -30.5310   21.6140 C   0  0  0  0  0  3  0  0  0  0  0  0
  -24.7250  -29.0010   20.1460 C   0  0  0  0  0  0  0  0  0  0  0  0
  -25.8280  -30.8750   21.3770 C   0  0  0  0  0  2  0  0  0  0  0  0
  -25.8930  -29.5080   20.7270 C   0  0  0  0  0  0  0  0  0  0  0  0
  -27.0840  -28.7500   20.7010 C   0  0  0  0  0  3  0  0  0  0  0  0
  -25.9350  -27.0020   19.4640 C   0  0  0  0  0  3  0  0  0  0  0  0
  -24.7400  -27.7460   19.5160 C   0  0  0  0  0  3  0  0  0  0  0  0
  -23.4860  -29.8630   20.2250 C   0  0  0  0  0  2  0  0  0  0  0  0
  -24.5800  -31.1210   22.1380 N   0  0  0  0  0  0  0  0  0  0  0  0
  -23.4790  -32.1840   23.8080 O   0  0  0  0  0  0  0  0  0  0  0  0
  -22.6710  -29.5020   22.5780 C   0  0  0  0  0  0  0  0  0  0  0  0
  -21.3530  -29.2780   22.4320 N   0  0  0  0  0  0  0  0  0  0  0  0
  -23.3570  -28.9070   23.4120 O   0  0  0  0  0  0  0  0  0  0  0  0
  -20.8640  -29.7990   21.7180 H   0  0  0  0  0  0  0  0  0  0  0  0
  -18.0100  -27.9860   22.8790 C   0  0  0  0  0  0  0  0  0  0  0  0
  -20.5500  -28.3340   23.2070 C   0  0  0  0  0  3  0  0  0  0  0  0
  -20.7090  -26.8940   22.6690 C   0  0  0  0  0  2  0  0  0  0  0  0
  -19.6480  -26.5290   21.6230 C   0  0  0  0  0  2  0  0  0  0  0  0
  -18.2490  -26.6300   22.2370 C   0  0  0  0  0  2  0  0  0  0  0  0
  -19.0920  -28.7940   23.3190 C   0  0  0  0  0  0  0  0  0  0  0  0
  -18.8170  -30.0630   23.8750 C   0  0  0  0  0  3  0  0  0  0  0  0
  -17.4920  -30.5240   23.9940 C   0  0  0  0  0  3  0  0  0  0  0  0
  -16.4250  -29.7130   23.5740 C   0  0  0  0  0  3  0  0  0  0  0  0
  -16.6840  -28.4460   23.0230 C   0  0  0  0  0  3  0  0  0  0  0  0
  -25.8490  -32.5320   23.8490 C   0  0  0  0  0  3  0  0  0  0  0  0
  -25.5580  -33.9340   24.1780 N   0  0  0  0  0  0  0  0  0  0  0  0
  -25.9030  -34.9800   23.4170 C   0  0  0  0  0  0  0  0  0  0  0  0
  -26.5700  -34.8660   22.3850 O   0  0  0  0  0  0  0  0  0  0  0  0
  -24.9640  -34.0970   24.9780 H   0  0  0  0  0  0  0  0  0  0  0  0
  -24.2050  -36.7980   23.0470 C   0  0  0  0  0  1  0  0  0  0  0  0
  -25.4320  -36.3760   23.8700 C   0  0  0  0  0  3  0  0  0  0  0  0
  -27.5730  -37.2260   24.7220 C   0  0  0  0  0  1  0  0  0  0  0  0
  -26.4820  -37.4130   23.7670 N   0  0  0  0  0  0  0  0  0  0  0  0
  -26.0900  -38.3400   23.9090 H   0  0  0  0  0  0  0  0  0  0  0  0
  -26.3750  -31.7580   25.1180 C   0  0  1  0  0  0  0  0  0  0  0  0
  -25.2950  -31.5240   26.1990 C   0  0  0  0  0  1  0  0  0  0  0  0
  -26.9470  -30.3780   24.7170 C   0  0  0  0  0  1  0  0  0  0  0  0
  -27.5410  -32.5430   25.7640 C   0  0  0  0  0  1  0  0  0  0  0  0
  1  2  2  0
  1  3  1  0
  3  5  2  0
  4  3  1  0
  4  6  1  0
  7  8  1  0
  7  4  1  0
  9 18  1  0
  9  8  1  0
 10 18  1  0
 11 16  1  0
 12 13  1  0
 12 11  1  0
 14 13  1  0
 14 23  1  0
 14 15  1  0
 16 10  1  0
 16 15  1  0
 17 10  2  0
 18 19  1  0
 20 21  2  0
 21 40  1  0
 22 21  1  0
 22 25  1  0
 23 20  1  0
 23 24  1  0
 24 22  2  0
 25 26  1  0
 26 27  2  0
 28 31  1  0
 28 27  1  0
 29 28  2  0
 30 29  1  0
 30 25  2  0
 31 32  1  0
 32 37  2  0
 32 33  1  0
 33 34  2  0
 34 35  1  0
 35 39  1  0
 36 35  2  0
 37 36  1  0
 38 37  1  0
 40 41  1  0
 41 44  1  0
 41 43  1  0
 42 40  2  0
 45 46  1  0
 45 20  1  0
 47 45  1  0
 48  2  1  0
 49 48  1  0
 49 50  1  0
 51 62  2  0
 52 50  1  0
 52 57  1  0
 53 61  1  0
 53 63  1  0
 54 60  1  0
 54 56  1  0
 55 61  1  0
 56 55  1  0
 57 56  2  0
 58 59  1  0
 58 52  2  0
 59 54  2  0
 60 53  1  0
 61 51  1  0
 63 65  2  0
 64 63  1  0
 66 64  1  0
 67 76  2  0
 67 72  1  0
 68 64  1  0
 68 72  1  0
 69 68  1  0
 70 71  1  0
 70 69  1  0
 71 67  1  0
 72 73  2  0
 73 74  1  0
 75 74  2  0
 76 75  1  0
 77 51  1  0
 77 78  1  0
 77 87  1  0
 78 81  1  0
 79 83  1  0
 79 78  1  0
 80 79  2  0
 83 82  1  0
 85 83  1  0
 85 86  1  0
 85 84  1  0
 87 90  1  1
 87 88  1  0
 89 87  1  0
M  ISO  4  10 100  18 100  49 101  50 101
M  END
>  <TORSDO>  (42) 
F 22

>  <SCORE>  (42) 
-12.979

>  <name>  (42) 
41

>  <ligand_id>  (42) 
41

>  <original_smiles>  (42) 
[H]C(C(=O)N([H])C([H])([H])C([H])([H])C([H])([H])N([H])C(=O)N1C([H])([H])C([H])([H])C([H])([H])C([H])(n2nc(-c3c([H])c([H])c(Oc4c([H])c([H])c(F)c([H])c4F)c([H])c3[H])c(C(=O)N([H])[H])c2N([H])[H])C1([H])[H])=C([H])C([H])([H])C([H])([H])Oc1c([H])c([H])c2c(c1[H])C([H])([H])N(C(=O)C([H])(N([H])C(=O)C([H])(N([H])C([H])([H])[H])C([H])([H])[H])C(C([H])([H])[H])(C([H])([H])[H])C([H])([H])[H])C([H])(C(=O)N([H])C1([H])c3c([H])c([H])c([H])c([H])c3C([H])([H])C([H])([H])C1([H])[H])C2([H])[H]

>  <smiles>  (42) 
[H]C(C(=O)N([H])C([H])([H])C([H])([H])C([H])([H])N([H])C(=O)N1C([H])([H])C([H])([H])C([H])([H])C([H])(n2nc(-c3c([H])c([H])c(Oc4c([H])c([H])c(F)c([H])c4F)c([H])c3[H])c(C(=O)N([H])[H])c2N([H])[H])C1([H])[H])=C([H])C([H])([H])C([H])([H])Oc1c([H])c([H])c2c(c1[H])C([H])([H])N(C(=O)C([H])(N([H])C(=O)C([H])(N([H])C([H])([H])[H])C([H])([H])[H])C(C([H])([H])[H])(C([H])([H])[H])C([H])([H])[H])C([H])(C(=O)N([H])C1([H])c3c([H])c([H])c([H])c([H])c3C([H])([H])C([H])([H])C1([H])[H])C2([H])[H]

$$$$
42:0:0
     RDKit          3D

 96103  0  0  1  0  0  0  0  0999 V2000
  -29.3470  -21.2680   21.0460 C   0  0  0  0  0  3  0  0  0  0  0  0
  -29.6910  -18.6510   20.7730 C   0  0  0  0  0  0  0  0  0  0  0  0
  -29.8300  -19.9740   20.3630 N   0  0  0  0  0  0  0  0  0  0  0  0
  -29.0680  -18.3960   21.8040 O   0  0  0  0  0  0  0  0  0  0  0  0
  -30.3740  -20.1060   19.5200 H   0  0  0  0  0  0  0  0  0  0  0  0
  -30.3580  -17.4160   20.0040 C   0  0  0  0  0  3  0  0  0  0  0  0
  -30.7700  -14.8360   20.2230 C   0  0  0  0  0  0  0  0  0  0  0  0
  -30.5170  -12.5910   19.1740 C   0  0  0  0  0  2  0  0  0  0  0  0
  -29.5590  -12.7050   17.9680 C   0  0  0  0  0  2  0  0  0  0  0  0
  -28.0950  -12.5320   18.4190 C   0  0  0  0  0  2  0  0  0  0  0  0
  -27.7470  -13.3850   19.6690 C   0  0  0  0  0  3  0  0  0  0  0  0
  -28.8300  -13.2800   20.7680 C   0  0  0  0  0  2  0  0  0  0  0  0
  -30.1190  -13.6250   20.1560 N   0  0  0  0  0  0  0  0  0  0  0  0
  -31.9480  -14.9220   19.8690 O   0  0  0  0  0  0  0  0  0  0  0  0
  -30.0240  -15.9820   20.4200 N   0  0  0  0  0  0  0  0  0  0  0  0
  -29.0770  -15.8440   20.7370 H   0  0  0  0  0  0  0  0  0  0  0  0
  -25.3620  -13.9530   20.4250 C   0  0  0  0  0  0  0  0  0  0  0  0
  -24.3050  -13.1700   20.8000 C   0  0  0  0  0  0  0  0  0  0  0  0
  -24.7770  -11.8210   20.7580 C   0  0  0  0  0  0  0  0  0  0  0  0
  -26.4100  -13.0830   20.1740 N   0  0  0  0  0  0  0  0  0  0  0  0
  -26.0670  -11.7950   20.4390 N   0  0  0  0  0  0  0  0  0  0  0  0
  -24.0630  -10.5530   20.9510 C   0  0  0  0  0  0  0  0  0  0  0  0
  -24.5000   -9.5920   21.8880 C   0  0  0  0  0  3  0  0  0  0  0  0
  -23.7840   -8.3880   22.0680 C   0  0  0  0  0  3  0  0  0  0  0  0
  -22.6140   -8.1380   21.3110 C   0  0  0  0  0  0  0  0  0  0  0  0
  -22.1960   -9.0890   20.3620 C   0  0  0  0  0  3  0  0  0  0  0  0
  -22.9130  -10.2820   20.1810 C   0  0  0  0  0  3  0  0  0  0  0  0
  -21.8700   -6.9870   21.4000 O   0  0  0  0  0  0  0  0  0  0  0  0
  -21.8100   -6.2560   22.5590 C   0  0  0  0  0  0  0  0  0  0  0  0
  -21.3320   -6.8090   23.7670 C   0  0  0  0  0  3  0  0  0  0  0  0
  -21.2220   -6.0040   24.9160 C   0  0  0  0  0  3  0  0  0  0  0  0
  -21.5810   -4.6430   24.8610 C   0  0  0  0  0  0  0  0  0  0  0  0
  -22.0530   -4.0890   23.6570 C   0  0  0  0  0  3  0  0  0  0  0  0
  -22.1630   -4.8920   22.5100 C   0  0  0  0  0  0  0  0  0  0  0  0
  -22.5970   -4.3470   21.3470 F   0  0  0  0  0  0  0  0  0  0  0  0
  -21.4700   -3.8660   25.9630 F   0  0  0  0  0  0  0  0  0  0  0  0
  -22.9060  -13.6350   21.0870 C   0  0  0  0  0  0  0  0  0  0  0  0
  -22.1910  -12.9290   21.9540 N   0  0  0  0  0  0  0  0  0  0  0  0
  -22.4570  -14.6600   20.5780 O   0  0  0  0  0  0  0  0  0  0  0  0
  -22.5660  -12.0970   22.3880 H   0  0  0  0  0  0  0  0  0  0  0  0
  -21.2540  -13.2240   22.1900 H   0  0  0  0  0  0  0  0  0  0  0  0
  -25.5120  -15.3260   20.2490 N   0  0  0  0  0  0  0  0  0  0  0  0
  -24.7400  -15.9710   20.3760 H   0  0  0  0  0  0  0  0  0  0  0  0
  -26.3480  -15.7740   19.8990 H   0  0  0  0  0  0  0  0  0  0  0  0
  -28.8060  -17.4200   17.9240 C   0  0  0  0  0  1  0  0  0  0  0  0
  -30.2410  -17.5400   18.4660 C   0  0  0  0  0  2  0  0  0  0  0  0
  -28.8770  -23.9000   20.5790 C   0  0  0  0  0  3  0  0  0  0  0  0
  -28.9470  -22.5610   20.1870 C   0  0  0  0  0  3  0  0  0  0  0  0
  -28.3930  -25.0890   19.7190 C   0  0  0  0  0  0  0  0  0  0  0  0
  -28.0820  -24.9110   18.5400 O   0  0  0  0  0  0  0  0  0  0  0  0
  -28.3030  -26.4230   20.3470 O   0  0  0  0  0  0  0  0  0  0  0  0
  -24.6110  -31.9620   23.2370 C   0  0  0  0  0  0  0  0  0  0  0  0
  -27.2220  -27.3370   20.2020 C   0  0  0  0  0  0  0  0  0  0  0  0
  -23.4110  -30.5590   21.6020 C   0  0  0  0  0  3  0  0  0  0  0  0
  -24.8640  -29.0020   20.1770 C   0  0  0  0  0  0  0  0  0  0  0  0
  -25.9570  -30.8510   21.4370 C   0  0  0  0  0  2  0  0  0  0  0  0
  -26.0330  -29.4680   20.7890 C   0  0  0  0  0  0  0  0  0  0  0  0
  -27.2070  -28.6470   20.7980 C   0  0  0  0  0  3  0  0  0  0  0  0
  -26.0250  -26.9470   19.5530 C   0  0  0  0  0  3  0  0  0  0  0  0
  -24.8690  -27.7490   19.5470 C   0  0  0  0  0  3  0  0  0  0  0  0
  -23.6330  -29.8900   20.2200 C   0  0  0  0  0  2  0  0  0  0  0  0
  -24.6780  -31.1420   22.1470 N   0  0  0  0  0  0  0  0  0  0  0  0
  -23.5260  -32.2460   23.7660 O   0  0  0  0  0  0  0  0  0  0  0  0
  -22.7410  -29.5460   22.5630 C   0  0  0  0  0  0  0  0  0  0  0  0
  -21.4170  -29.3600   22.4310 N   0  0  0  0  0  0  0  0  0  0  0  0
  -23.4160  -28.9310   23.3950 O   0  0  0  0  0  0  0  0  0  0  0  0
  -20.9230  -29.9130   21.7440 H   0  0  0  0  0  0  0  0  0  0  0  0
  -18.0440  -28.1460   22.9130 C   0  0  0  0  0  0  0  0  0  0  0  0
  -20.5980  -28.4270   23.2100 C   0  0  0  0  0  3  0  0  0  0  0  0
  -20.7160  -26.9880   22.6550 C   0  0  0  0  0  2  0  0  0  0  0  0
  -19.6290  -26.6450   21.6330 C   0  0  0  0  0  2  0  0  0  0  0  0
  -18.2370  -26.7890   22.2570 C   0  0  0  0  0  2  0  0  0  0  0  0
  -19.1530  -28.9210   23.3470 C   0  0  0  0  0  0  0  0  0  0  0  0
  -18.9180  -30.1890   23.9190 C   0  0  0  0  0  3  0  0  0  0  0  0
  -17.6070  -30.6830   24.0630 C   0  0  0  0  0  3  0  0  0  0  0  0
  -16.5130  -29.9050   23.6480 C   0  0  0  0  0  3  0  0  0  0  0  0
  -16.7320  -28.6390   23.0780 C   0  0  0  0  0  3  0  0  0  0  0  0
  -25.8930  -32.5990   23.8550 C   0  0  0  0  0  3  0  0  0  0  0  0
  -26.4110  -31.8350   25.1360 C   0  0  1  0  0  0  0  0  0  0  0  0
  -25.3190  -31.5970   26.2050 C   0  0  0  0  0  1  0  0  0  0  0  0
  -27.0030  -30.4590   24.7520 C   0  0  0  0  0  1  0  0  0  0  0  0
  -27.5540  -32.6360   25.8030 C   0  0  0  0  0  1  0  0  0  0  0  0
  -25.5830  -33.9990   24.1820 N   0  0  0  0  0  0  0  0  0  0  0  0
  -25.9040  -35.0500   23.4170 C   0  0  0  0  0  0  0  0  0  0  0  0
  -26.5650  -34.9470   22.3800 O   0  0  0  0  0  0  0  0  0  0  0  0
  -25.0040  -34.1550   24.9930 H   0  0  0  0  0  0  0  0  0  0  0  0
  -24.1710  -36.8430   23.0730 C   0  0  0  0  0  1  0  0  0  0  0  0
  -25.4170  -36.4390   23.8790 C   0  0  0  0  0  3  0  0  0  0  0  0
  -27.5470  -37.3360   24.7040 C   0  0  0  0  0  1  0  0  0  0  0  0
  -26.4440  -37.4940   23.7610 N   0  0  0  0  0  0  0  0  0  0  0  0
  -26.0320  -38.4110   23.9090 H   0  0  0  0  0  0  0  0  0  0  0  0
  -30.2880  -21.6840   22.2090 C   0  0  0  0  0  2  0  0  0  0  0  0
  -30.6990  -20.5800   23.0900 N   0  0  0  0  0  4  0  0  0  0  0  0
  -29.8910  -20.1200   23.4750 H   0  0  0  0  0  0  0  0  0  0  0  0
  -31.2580  -20.9340   23.8450 H   0  0  0  0  0  0  0  0  0  0  0  0
  -31.2420  -19.9090   22.5780 H   0  0  0  0  0  0  0  0  0  0  0  0
  1 48  1  0
  1 92  1  0
  2  4  2  0
  3  2  1  0
  3  1  1  0
  5  3  1  0
  6 46  1  0
  6 15  1  0
  6  2  1  0
  7 15  1  0
  8 13  1  0
  9 10  1  0
  9  8  1  0
 11 10  1  0
 11 20  1  0
 11 12  1  0
 13  7  1  0
 13 12  1  0
 14  7  2  0
 15 16  1  0
 17 18  2  0
 18 37  1  0
 19 18  1  0
 19 22  1  0
 20 17  1  0
 20 21  1  0
 21 19  2  0
 22 23  1  0
 23 24  2  0
 25 28  1  0
 25 24  1  0
 26 25  2  0
 27 26  1  0
 27 22  2  0
 28 29  1  0
 29 30  1  0
 30 31  2  0
 32 31  1  0
 32 36  1  0
 33 32  2  0
 34 29  2  0
 34 33  1  0
 35 34  1  0
 37 38  1  0
 38 41  1  0
 38 40  1  0
 39 37  2  0
 42 43  1  0
 42 17  1  0
 44 42  1  0
 45 46  1  0
 48 47  2  0
 49 51  1  0
 49 47  1  0
 50 49  2  0
 52 63  2  0
 53 51  1  0
 53 58  1  0
 54 62  1  0
 54 64  1  0
 55 61  1  0
 55 57  1  0
 56 62  1  0
 57 58  2  0
 57 56  1  0
 59 53  2  0
 60 59  1  0
 60 55  2  0
 61 54  1  0
 62 52  1  0
 64 66  2  0
 65 64  1  0
 67 65  1  0
 68 77  2  0
 68 73  1  0
 69 65  1  0
 69 73  1  0
 70 69  1  0
 71 72  1  0
 71 70  1  0
 72 68  1  0
 73 74  2  0
 74 75  1  0
 76 75  2  0
 77 76  1  0
 78 52  1  0
 78 83  1  0
 78 79  1  0
 79 82  1  1
 79 80  1  0
 81 79  1  0
 83 86  1  0
 84 88  1  0
 84 83  1  0
 85 84  2  0
 88 87  1  0
 90 88  1  0
 90 91  1  0
 90 89  1  0
 92 93  1  0
 93 94  1  0
 93 95  1  0
 96 93  1  0
M  ISO  4   7 100  15 100  49 101  51 101
M  END
>  <TORSDO>  (43) 
F 23

>  <SCORE>  (43) 
-12.298

>  <name>  (43) 
42

>  <ligand_id>  (43) 
42

>  <original_smiles>  (43) 
[H]C(C(=O)Oc1c([H])c([H])c2c(c1[H])C([H])([H])N(C(=O)C([H])(N([H])C(=O)C([H])(N([H])C([H])([H])[H])C([H])([H])[H])C(C([H])([H])[H])(C([H])([H])[H])C([H])([H])[H])C([H])(C(=O)N([H])C1([H])c3c([H])c([H])c([H])c([H])c3C([H])([H])C([H])([H])C1([H])[H])C2([H])[H])=C([H])C([H])(N([H])C(=O)C([H])(N([H])C(=O)N1C([H])([H])C([H])([H])C([H])([H])C([H])(n2nc(-c3c([H])c([H])c(Oc4c([H])c([H])c(F)c([H])c4F)c([H])c3[H])c(C(=O)N([H])[H])c2N([H])[H])C1([H])[H])C([H])([H])C([H])([H])[H])C([H])([H])[N+]([H])([H])[H]

>  <smiles>  (43) 
[H]C(C(=O)Oc1c([H])c([H])c2c(c1[H])C([H])([H])N(C(=O)C([H])(N([H])C(=O)C([H])(N([H])C([H])([H])[H])C([H])([H])[H])C(C([H])([H])[H])(C([H])([H])[H])C([H])([H])[H])C([H])(C(=O)N([H])C1([H])c3c([H])c([H])c([H])c([H])c3C([H])([H])C([H])([H])C1([H])[H])C2([H])[H])=C([H])C([H])(N([H])C(=O)C([H])(N([H])C(=O)N1C([H])([H])C([H])([H])C([H])([H])C([H])(n2nc(-c3c([H])c([H])c(Oc4c([H])c([H])c(F)c([H])c4F)c([H])c3[H])c(C(=O)N([H])[H])c2N([H])[H])C1([H])[H])C([H])([H])C([H])([H])[H])C([H])([H])[N+]([H])([H])[H]

$$$$
43:0:0
     RDKit          3D

102109  0  0  1  0  0  0  0  0999 V2000
  -30.1130  -20.9280   19.9990 C   0  0  0  0  0  3  0  0  0  0  0  0
  -30.2730  -20.1480   21.3210 C   0  0  0  0  0  0  0  0  0  0  0  0
  -31.3910  -19.4180   21.4510 N   0  0  0  0  0  0  0  0  0  0  0  0
  -29.3950  -20.1920   22.1860 O   0  0  0  0  0  0  0  0  0  0  0  0
  -32.0440  -19.4430   20.6760 H   0  0  0  0  0  0  0  0  0  0  0  0
  -31.7490  -18.5720   22.5900 C   0  0  0  0  0  2  0  0  0  0  0  0
  -31.6790  -17.0740   22.2370 C   0  0  0  0  0  2  0  0  0  0  0  0
  -30.3200  -16.6710   21.6350 C   0  0  0  0  0  2  0  0  0  0  0  0
  -30.5760  -14.5420   20.3790 C   0  0  0  0  0  0  0  0  0  0  0  0
  -30.1900  -12.5230   19.0220 C   0  0  0  0  0  2  0  0  0  0  0  0
  -29.1820  -12.8020   17.8910 C   0  0  0  0  0  2  0  0  0  0  0  0
  -27.7420  -12.6010   18.3910 C   0  0  0  0  0  2  0  0  0  0  0  0
  -27.4620  -13.3740   19.7060 C   0  0  0  0  0  3  0  0  0  0  0  0
  -28.5610  -13.0740   20.7480 C   0  0  0  0  0  2  0  0  0  0  0  0
  -29.8790  -13.3990   20.1570 N   0  0  0  0  0  0  0  0  0  0  0  0
  -31.5170  -14.9220   19.6720 O   0  0  0  0  0  0  0  0  0  0  0  0
  -30.1530  -15.2400   21.4360 N   0  0  0  0  0  0  0  0  0  0  0  0
  -29.4460  -14.7870   21.9980 H   0  0  0  0  0  0  0  0  0  0  0  0
  -25.0770  -13.9220   20.5150 C   0  0  0  0  0  0  0  0  0  0  0  0
  -24.0410  -13.1190   20.9130 C   0  0  0  0  0  0  0  0  0  0  0  0
  -24.5300  -11.7800   20.8370 C   0  0  0  0  0  0  0  0  0  0  0  0
  -26.1310  -13.0670   20.2270 N   0  0  0  0  0  0  0  0  0  0  0  0
  -25.8040  -11.7730   20.4740 N   0  0  0  0  0  0  0  0  0  0  0  0
  -23.8410  -10.5000   21.0320 C   0  0  0  0  0  0  0  0  0  0  0  0
  -24.3170   -9.5340   21.9480 C   0  0  0  0  0  3  0  0  0  0  0  0
  -23.6230   -8.3190   22.1290 C   0  0  0  0  0  3  0  0  0  0  0  0
  -22.4430   -8.0590   21.3930 C   0  0  0  0  0  0  0  0  0  0  0  0
  -21.9880   -9.0110   20.4640 C   0  0  0  0  0  3  0  0  0  0  0  0
  -22.6830  -10.2190   20.2820 C   0  0  0  0  0  3  0  0  0  0  0  0
  -21.7200   -6.8940   21.4830 O   0  0  0  0  0  0  0  0  0  0  0  0
  -21.6940   -6.1530   22.6360 C   0  0  0  0  0  0  0  0  0  0  0  0
  -21.2610   -6.6970   23.8660 C   0  0  0  0  0  3  0  0  0  0  0  0
  -21.1830   -5.8800   25.0110 C   0  0  0  0  0  3  0  0  0  0  0  0
  -21.5320   -4.5180   24.9270 C   0  0  0  0  0  0  0  0  0  0  0  0
  -21.9590   -3.9710   23.7040 C   0  0  0  0  0  3  0  0  0  0  0  0
  -22.0360   -4.7880   22.5610 C   0  0  0  0  0  0  0  0  0  0  0  0
  -22.4260   -4.2510   21.3790 F   0  0  0  0  0  0  0  0  0  0  0  0
  -21.4510   -3.7300   26.0250 F   0  0  0  0  0  0  0  0  0  0  0  0
  -22.6480  -13.5600   21.2630 C   0  0  0  0  0  0  0  0  0  0  0  0
  -21.9830  -12.8280   22.1500 N   0  0  0  0  0  0  0  0  0  0  0  0
  -22.1620  -14.5860   20.7870 O   0  0  0  0  0  0  0  0  0  0  0  0
  -22.3900  -11.9920   22.5430 H   0  0  0  0  0  0  0  0  0  0  0  0
  -21.0560  -13.1030   22.4420 H   0  0  0  0  0  0  0  0  0  0  0  0
  -25.2080  -15.2990   20.3660 N   0  0  0  0  0  0  0  0  0  0  0  0
  -24.4490  -15.9410   20.5660 H   0  0  0  0  0  0  0  0  0  0  0  0
  -26.0680  -15.7660   20.1070 H   0  0  0  0  0  0  0  0  0  0  0  0
  -30.2640  -23.2590   20.9460 C   0  0  0  0  0  0  0  0  0  0  0  0
  -29.7040  -22.3260   20.1670 N   0  0  0  0  0  0  0  0  0  0  0  0
  -31.2300  -23.0430   21.6800 O   0  0  0  0  0  0  0  0  0  0  0  0
  -28.9230  -22.6260   19.6060 H   0  0  0  0  0  0  0  0  0  0  0  0
  -29.6170  -24.5420   20.7570 C   0  0  0  0  0  3  0  0  0  0  0  0
  -30.0880  -25.6630   21.3440 C   0  0  0  0  0  3  0  0  0  0  0  0
  -29.4720  -27.0370   21.1630 C   0  0  0  0  0  2  0  0  0  0  0  0
  -28.6240  -27.0440   20.0170 O   0  0  0  0  0  0  0  0  0  0  0  0
  -24.6290  -31.9900   23.2570 C   0  0  0  0  0  0  0  0  0  0  0  0
  -27.4630  -27.7770   20.0760 C   0  0  0  0  0  0  0  0  0  0  0  0
  -23.4880  -30.6150   21.5410 C   0  0  0  0  0  3  0  0  0  0  0  0
  -25.0140  -29.1770   20.0880 C   0  0  0  0  0  0  0  0  0  0  0  0
  -26.0000  -31.0670   21.3980 C   0  0  0  0  0  2  0  0  0  0  0  0
  -26.1370  -29.7220   20.7220 C   0  0  0  0  0  0  0  0  0  0  0  0
  -27.3640  -29.0270   20.7250 C   0  0  0  0  0  3  0  0  0  0  0  0
  -26.3300  -27.2430   19.4300 C   0  0  0  0  0  3  0  0  0  0  0  0
  -25.1010  -27.9320   19.4390 C   0  0  0  0  0  3  0  0  0  0  0  0
  -23.7410  -29.9900   20.1420 C   0  0  0  0  0  2  0  0  0  0  0  0
  -24.7220  -31.2370   22.1240 N   0  0  0  0  0  0  0  0  0  0  0  0
  -23.5330  -32.2120   23.7880 O   0  0  0  0  0  0  0  0  0  0  0  0
  -22.8560  -29.5410   22.4520 C   0  0  0  0  0  0  0  0  0  0  0  0
  -21.5400  -29.3250   22.2950 N   0  0  0  0  0  0  0  0  0  0  0  0
  -23.5450  -28.9030   23.2530 O   0  0  0  0  0  0  0  0  0  0  0  0
  -21.0450  -29.8950   21.6220 H   0  0  0  0  0  0  0  0  0  0  0  0
  -18.1960  -28.0170   22.6760 C   0  0  0  0  0  0  0  0  0  0  0  0
  -20.7370  -28.3400   23.0160 C   0  0  0  0  0  3  0  0  0  0  0  0
  -20.8970  -26.9340   22.3920 C   0  0  0  0  0  2  0  0  0  0  0  0
  -19.8280  -26.6150   21.3440 C   0  0  0  0  0  2  0  0  0  0  0  0
  -18.4280  -26.6980   21.9600 C   0  0  0  0  0  2  0  0  0  0  0  0
  -19.2810  -28.7960   23.1580 C   0  0  0  0  0  0  0  0  0  0  0  0
  -19.0120  -30.0330   23.7830 C   0  0  0  0  0  3  0  0  0  0  0  0
  -17.6920  -30.4920   23.9350 C   0  0  0  0  0  3  0  0  0  0  0  0
  -16.6190  -29.7080   23.4710 C   0  0  0  0  0  3  0  0  0  0  0  0
  -16.8710  -28.4730   22.8480 C   0  0  0  0  0  3  0  0  0  0  0  0
  -25.8900  -32.6300   23.9200 C   0  0  0  0  0  3  0  0  0  0  0  0
  -26.3800  -31.8550   25.2020 C   0  0  1  0  0  0  0  0  0  0  0  0
  -25.2580  -31.5950   26.2350 C   0  0  0  0  0  1  0  0  0  0  0  0
  -26.9960  -30.4910   24.8150 C   0  0  0  0  0  1  0  0  0  0  0  0
  -27.4970  -32.6620   25.9060 C   0  0  0  0  0  1  0  0  0  0  0  0
  -25.5580  -34.0240   24.2450 N   0  0  0  0  0  0  0  0  0  0  0  0
  -25.8870  -35.0790   23.4870 C   0  0  0  0  0  0  0  0  0  0  0  0
  -26.5710  -34.9840   22.4650 O   0  0  0  0  0  0  0  0  0  0  0  0
  -24.9550  -34.1730   25.0410 H   0  0  0  0  0  0  0  0  0  0  0  0
  -24.1250  -36.8320   23.1150 C   0  0  0  0  0  1  0  0  0  0  0  0
  -25.3700  -36.4600   23.9340 C   0  0  0  0  0  3  0  0  0  0  0  0
  -27.4860  -37.3870   24.7680 C   0  0  0  0  0  1  0  0  0  0  0  0
  -26.3830  -37.5320   23.8210 N   0  0  0  0  0  0  0  0  0  0  0  0
  -25.9590  -38.4440   23.9650 H   0  0  0  0  0  0  0  0  0  0  0  0
  -29.1720  -20.2180   18.9910 C   0  0  0  0  0  2  0  0  0  0  0  0
  -27.6630  -20.5540   19.0920 C   0  0  0  0  0  2  0  0  0  0  0  0
  -26.8690  -20.1090   17.8460 C   0  0  0  0  0  2  0  0  0  0  0  0
  -25.4620  -20.7380   17.7520 C   0  0  0  0  0  2  0  0  0  0  0  0
  -24.7710  -20.3890   16.4980 N   0  0  0  0  0  4  0  0  0  0  0  0
  -25.2920  -20.7070   15.7000 H   0  0  0  0  0  0  0  0  0  0  0  0
  -23.8680  -20.8290   16.4680 H   0  0  0  0  0  0  0  0  0  0  0  0
  -24.6360  -19.3960   16.4220 H   0  0  0  0  0  0  0  0  0  0  0  0
  1 95  1  0
  1 48  1  0
  1  2  1  0
  2  3  1  0
  2  4  2  0
  3  6  1  0
  5  3  1  0
  7  6  1  0
  8  7  1  0
  9 17  1  0
 10 15  1  0
 11 12  1  0
 11 10  1  0
 13 12  1  0
 13 22  1  0
 13 14  1  0
 15  9  1  0
 15 14  1  0
 16  9  2  0
 17  8  1  0
 17 18  1  0
 19 20  2  0
 20 39  1  0
 21 20  1  0
 21 24  1  0
 22 23  1  0
 22 19  1  0
 23 21  2  0
 24 25  1  0
 25 26  2  0
 27 30  1  0
 27 26  1  0
 28 27  2  0
 29 28  1  0
 29 24  2  0
 30 31  1  0
 31 32  1  0
 32 33  2  0
 34 33  1  0
 34 38  1  0
 35 34  2  0
 36 31  2  0
 36 35  1  0
 37 36  1  0
 39 40  1  0
 40 43  1  0
 40 42  1  0
 41 39  2  0
 44 19  1  0
 44 45  1  0
 46 44  1  0
 47 49  2  0
 48 47  1  0
 50 48  1  0
 51 47  1  0
 51 52  2  0
 53 52  1  0
 54 56  1  0
 54 53  1  0
 55 66  2  0
 56 61  1  0
 57 65  1  0
 57 67  1  0
 58 64  1  0
 58 60  1  0
 59 65  1  0
 60 61  2  0
 60 59  1  0
 62 63  1  0
 62 56  2  0
 63 58  2  0
 64 57  1  0
 65 55  1  0
 67 69  2  0
 68 67  1  0
 70 68  1  0
 71 80  2  0
 71 76  1  0
 72 68  1  0
 72 76  1  0
 73 72  1  0
 74 75  1  0
 74 73  1  0
 75 71  1  0
 76 77  2  0
 77 78  1  0
 79 78  2  0
 80 79  1  0
 81 55  1  0
 81 86  1  0
 81 82  1  0
 82 85  1  1
 82 83  1  0
 84 82  1  0
 86 89  1  0
 87 91  1  0
 87 86  1  0
 88 87  2  0
 91 90  1  0
 93 91  1  0
 93 94  1  0
 93 92  1  0
 95 96  1  0
 97 96  1  0
 98 97  1  0
 99 98  1  0
100 99  1  0
101 99  1  0
102 99  1  0
M  ISO  4   9 100  17 100  53 101  54 101
M  END
>  <TORSDO>  (44) 
F 28

>  <SCORE>  (44) 
-10.341

>  <name>  (44) 
43

>  <ligand_id>  (44) 
43

>  <original_smiles>  (44) 
[H]C(C(=O)N([H])C([H])(C(=O)N([H])C([H])([H])C([H])([H])C([H])([H])N([H])C(=O)N1C([H])([H])C([H])([H])C([H])([H])C([H])(n2nc(-c3c([H])c([H])c(Oc4c([H])c([H])c(F)c([H])c4F)c([H])c3[H])c(C(=O)N([H])[H])c2N([H])[H])C1([H])[H])C([H])([H])C([H])([H])C([H])([H])C([H])([H])[N+]([H])([H])[H])=C([H])C([H])([H])Oc1c([H])c([H])c2c(c1[H])C([H])([H])N(C(=O)C([H])(N([H])C(=O)C([H])(N([H])C([H])([H])[H])C([H])([H])[H])C(C([H])([H])[H])(C([H])([H])[H])C([H])([H])[H])C([H])(C(=O)N([H])C1([H])c3c([H])c([H])c([H])c([H])c3C([H])([H])C([H])([H])C1([H])[H])C2([H])[H]

>  <smiles>  (44) 
[H]C(C(=O)N([H])C([H])(C(=O)N([H])C([H])([H])C([H])([H])C([H])([H])N([H])C(=O)N1C([H])([H])C([H])([H])C([H])([H])C([H])(n2nc(-c3c([H])c([H])c(Oc4c([H])c([H])c(F)c([H])c4F)c([H])c3[H])c(C(=O)N([H])[H])c2N([H])[H])C1([H])[H])C([H])([H])C([H])([H])C([H])([H])C([H])([H])[N+]([H])([H])[H])=C([H])C([H])([H])Oc1c([H])c([H])c2c(c1[H])C([H])([H])N(C(=O)C([H])(N([H])C(=O)C([H])(N([H])C([H])([H])[H])C([H])([H])[H])C(C([H])([H])[H])(C([H])([H])[H])C([H])([H])[H])C([H])(C(=O)N([H])C1([H])c3c([H])c([H])c([H])c([H])c3C([H])([H])C([H])([H])C1([H])[H])C2([H])[H]

$$$$
44:0:0
     RDKit          3D

 89 96  0  0  1  0  0  0  0  0999 V2000
  -29.5260  -21.2070   20.3740 N   0  0  1  0  0  4  0  0  0  0  0  0
  -30.0500  -21.1550   19.5120 H   0  0  0  0  0  0  0  0  0  0  0  0
  -32.0100  -21.5270   20.3450 C   0  0  0  0  0  1  0  0  0  0  0  0
  -30.8890  -20.7990   22.5550 C   0  0  0  0  0  1  0  0  0  0  0  0
  -30.7250  -21.5470   21.2050 C   0  0  0  0  0  3  0  0  0  0  0  0
  -29.1070  -19.5680   20.2740 C   0  0  0  0  0  2  0  0  0  0  0  0
  -30.4680  -15.3440   20.1030 C   0  0  0  0  0  0  0  0  0  0  0  0
  -30.3660  -12.9170   19.1560 C   0  0  0  0  0  2  0  0  0  0  0  0
  -29.4100  -12.7320   17.9520 C   0  0  0  0  0  2  0  0  0  0  0  0
  -27.9730  -12.4700   18.4310 C   0  0  0  0  0  2  0  0  0  0  0  0
  -27.5620  -13.3840   19.6160 C   0  0  0  0  0  3  0  0  0  0  0  0
  -28.6610  -13.5290   20.6890 C   0  0  0  0  0  2  0  0  0  0  0  0
  -29.8570  -14.0550   20.0120 N   0  0  0  0  0  0  0  0  0  0  0  0
  -31.6900  -15.2800   19.9080 O   0  0  0  0  0  0  0  0  0  0  0  0
  -30.0940  -18.1000   20.2130 C   0  0  0  0  0  0  0  0  0  0  0  0
  -29.7450  -16.6480   20.1990 N   0  0  0  0  0  0  0  0  0  0  0  0
  -31.2990  -18.3520   20.1650 O   0  0  0  0  0  0  0  0  0  0  0  0
  -28.7530  -16.4960   20.2190 H   0  0  0  0  0  0  0  0  0  0  0  0
  -25.2080  -13.8980   20.4610 C   0  0  0  0  0  0  0  0  0  0  0  0
  -24.1670  -13.1050   20.8540 C   0  0  0  0  0  0  0  0  0  0  0  0
  -24.6490  -11.7610   20.7970 C   0  0  0  0  0  0  0  0  0  0  0  0
  -26.2540  -13.0400   20.1740 N   0  0  0  0  0  0  0  0  0  0  0  0
  -25.9340  -11.7440   20.4460 N   0  0  0  0  0  0  0  0  0  0  0  0
  -23.9380  -10.4850   20.9960 C   0  0  0  0  0  0  0  0  0  0  0  0
  -24.3910   -9.5210   21.9210 C   0  0  0  0  0  3  0  0  0  0  0  0
  -23.6770   -8.3200   22.1130 C   0  0  0  0  0  3  0  0  0  0  0  0
  -22.4950   -8.0690   21.3760 C   0  0  0  0  0  0  0  0  0  0  0  0
  -22.0590   -9.0260   20.4420 C   0  0  0  0  0  3  0  0  0  0  0  0
  -22.7750  -10.2190   20.2490 C   0  0  0  0  0  3  0  0  0  0  0  0
  -21.7550   -6.9170   21.4700 O   0  0  0  0  0  0  0  0  0  0  0  0
  -21.7180   -6.1770   22.6250 C   0  0  0  0  0  0  0  0  0  0  0  0
  -21.2690   -6.7270   23.8450 C   0  0  0  0  0  3  0  0  0  0  0  0
  -21.1770   -5.9140   24.9930 C   0  0  0  0  0  3  0  0  0  0  0  0
  -21.5290   -4.5530   24.9220 C   0  0  0  0  0  0  0  0  0  0  0  0
  -21.9730   -4.0030   23.7060 C   0  0  0  0  0  3  0  0  0  0  0  0
  -22.0630   -4.8120   22.5610 C   0  0  0  0  0  0  0  0  0  0  0  0
  -22.4680   -4.2710   21.3860 F   0  0  0  0  0  0  0  0  0  0  0  0
  -21.4390   -3.7700   26.0220 F   0  0  0  0  0  0  0  0  0  0  0  0
  -22.7690  -13.5670   21.1560 C   0  0  0  0  0  0  0  0  0  0  0  0
  -22.0640  -12.8600   22.0300 N   0  0  0  0  0  0  0  0  0  0  0  0
  -22.3090  -14.5910   20.6560 O   0  0  0  0  0  0  0  0  0  0  0  0
  -22.4490  -12.0360   22.4660 H   0  0  0  0  0  0  0  0  0  0  0  0
  -21.1290  -13.1590   22.2660 H   0  0  0  0  0  0  0  0  0  0  0  0
  -25.3440  -15.2710   20.2820 N   0  0  0  0  0  0  0  0  0  0  0  0
  -24.5590  -15.9080   20.3850 H   0  0  0  0  0  0  0  0  0  0  0  0
  -26.1360  -15.6940   19.8140 H   0  0  0  0  0  0  0  0  0  0  0  0
  -28.6690  -22.6000   19.9170 C   0  0  0  0  0  2  0  0  0  0  0  0
  -28.3140  -24.2370   20.6540 C   0  0  0  0  0  2  0  0  0  0  0  0
  -28.2960  -25.8670   20.2400 O   0  0  0  0  0  0  0  0  0  0  0  0
  -24.6210  -31.8640   23.2030 C   0  0  0  0  0  0  0  0  0  0  0  0
  -27.2330  -26.9330   20.2720 C   0  0  0  0  0  0  0  0  0  0  0  0
  -23.4450  -30.4520   21.5710 C   0  0  0  0  0  3  0  0  0  0  0  0
  -24.9120  -28.8160   20.1910 C   0  0  0  0  0  0  0  0  0  0  0  0
  -26.0130  -30.6590   21.4390 C   0  0  0  0  0  2  0  0  0  0  0  0
  -26.0980  -29.2350   20.8060 C   0  0  0  0  0  0  0  0  0  0  0  0
  -27.2500  -28.3220   20.8130 C   0  0  0  0  0  3  0  0  0  0  0  0
  -26.0070  -26.6710   19.6120 C   0  0  0  0  0  3  0  0  0  0  0  0
  -24.8940  -27.5550   19.5720 C   0  0  0  0  0  3  0  0  0  0  0  0
  -23.6850  -29.7390   20.2100 C   0  0  0  0  0  2  0  0  0  0  0  0
  -24.7150  -31.0190   22.1260 N   0  0  0  0  0  0  0  0  0  0  0  0
  -23.5300  -32.1520   23.7190 O   0  0  0  0  0  0  0  0  0  0  0  0
  -22.7450  -29.4650   22.5430 C   0  0  0  0  0  0  0  0  0  0  0  0
  -21.4140  -29.3000   22.4150 N   0  0  0  0  0  0  0  0  0  0  0  0
  -23.4100  -28.8470   23.3760 O   0  0  0  0  0  0  0  0  0  0  0  0
  -20.9300  -29.8420   21.7120 H   0  0  0  0  0  0  0  0  0  0  0  0
  -18.0290  -28.1020   22.9380 C   0  0  0  0  0  0  0  0  0  0  0  0
  -20.5920  -28.3660   23.1880 C   0  0  0  0  0  3  0  0  0  0  0  0
  -20.6900  -26.9340   22.6150 C   0  0  0  0  0  2  0  0  0  0  0  0
  -19.5830  -26.6150   21.6050 C   0  0  0  0  0  2  0  0  0  0  0  0
  -18.2040  -26.7560   22.2550 C   0  0  0  0  0  2  0  0  0  0  0  0
  -19.1520  -28.8660   23.3600 C   0  0  0  0  0  0  0  0  0  0  0  0
  -18.9360  -30.1240   23.9650 C   0  0  0  0  0  3  0  0  0  0  0  0
  -17.6320  -30.6210   24.1470 C   0  0  0  0  0  3  0  0  0  0  0  0
  -16.5250  -29.8590   23.7370 C   0  0  0  0  0  3  0  0  0  0  0  0
  -16.7250  -28.6000   23.1410 C   0  0  0  0  0  3  0  0  0  0  0  0
  -25.8870  -32.5190   23.8350 C   0  0  0  0  0  3  0  0  0  0  0  0
  -26.3880  -31.7660   25.1300 C   0  0  1  0  0  0  0  0  0  0  0  0
  -25.2810  -31.5370   26.1860 C   0  0  0  0  0  1  0  0  0  0  0  0
  -26.9810  -30.3840   24.7750 C   0  0  0  0  0  1  0  0  0  0  0  0
  -27.5280  -32.5690   25.7980 C   0  0  0  0  0  1  0  0  0  0  0  0
  -25.5600  -33.9190   24.1580 N   0  0  0  0  0  0  0  0  0  0  0  0
  -25.8990  -34.9810   23.4120 C   0  0  0  0  0  0  0  0  0  0  0  0
  -26.5810  -34.8840   22.3890 O   0  0  0  0  0  0  0  0  0  0  0  0
  -24.9540  -34.0690   24.9510 H   0  0  0  0  0  0  0  0  0  0  0  0
  -24.1730  -36.7800   23.0470 C   0  0  0  0  0  1  0  0  0  0  0  0
  -25.4070  -36.3710   23.8700 C   0  0  0  0  0  3  0  0  0  0  0  0
  -27.5270  -37.2610   24.7330 C   0  0  0  0  0  1  0  0  0  0  0  0
  -26.4390  -37.4280   23.7730 N   0  0  0  0  0  0  0  0  0  0  0  0
  -26.0300  -38.3470   23.9170 H   0  0  0  0  0  0  0  0  0  0  0  0
  1  5  1  0
  1  2  1  6
  3  5  1  0
  5  4  1  0
  6  1  1  0
  7 16  1  0
  8 13  1  0
  9 10  1  0
  9  8  1  0
 11 10  1  0
 11 22  1  0
 11 12  1  0
 13  7  1  0
 13 12  1  0
 14  7  2  0
 15  6  1  0
 16 15  1  0
 16 18  1  0
 17 15  2  0
 19 20  2  0
 20 39  1  0
 21 20  1  0
 21 24  1  0
 22 23  1  0
 22 19  1  0
 23 21  2  0
 24 25  1  0
 25 26  2  0
 27 30  1  0
 27 26  1  0
 28 27  2  0
 29 28  1  0
 29 24  2  0
 30 31  1  0
 31 32  1  0
 32 33  2  0
 34 33  1  0
 34 38  1  0
 35 34  2  0
 36 31  2  0
 36 35  1  0
 37 36  1  0
 39 40  1  0
 40 43  1  0
 40 42  1  0
 41 39  2  0
 44 45  1  0
 44 19  1  0
 46 44  1  0
 47  1  1  0
 47 48  1  0
 49 51  1  0
 49 48  1  0
 50 61  2  0
 51 56  1  0
 52 60  1  0
 52 62  1  0
 53 59  1  0
 53 55  1  0
 54 60  1  0
 55 56  2  0
 55 54  1  0
 57 51  2  0
 58 57  1  0
 58 53  2  0
 59 52  1  0
 60 50  1  0
 62 64  2  0
 63 62  1  0
 65 63  1  0
 66 75  2  0
 66 71  1  0
 67 63  1  0
 67 71  1  0
 68 67  1  0
 69 70  1  0
 69 68  1  0
 70 66  1  0
 71 72  2  0
 72 73  1  0
 74 73  2  0
 75 74  1  0
 76 50  1  0
 76 81  1  0
 76 77  1  0
 77 80  1  1
 77 78  1  0
 79 77  1  0
 81 84  1  0
 82 86  1  0
 82 81  1  0
 83 82  2  0
 86 85  1  0
 88 86  1  0
 88 89  1  0
 88 87  1  0
M  ISO  4   7 100  16 100  48 101  49 101
M  END
>  <TORSDO>  (45) 
F 20

>  <SCORE>  (45) 
-16.540

>  <name>  (45) 
44

>  <ligand_id>  (45) 
44

>  <original_smiles>  (45) 
[H]c1c([H])c([H])c2c(c1[H])C([H])([H])C([H])([H])C([H])([H])C2([H])N([H])C(=O)C1([H])N(C(=O)C([H])(N([H])C(=O)C([H])(N([H])C([H])([H])[H])C([H])([H])[H])C(C([H])([H])[H])(C([H])([H])[H])C([H])([H])[H])C([H])([H])c2c([H])c(OC([H])([H])C([H])([H])[N+]([H])(C([H])([H])C(=O)N([H])C(=O)N3C([H])([H])C([H])([H])C([H])([H])C([H])(n4nc(-c5c([H])c([H])c(Oc6c([H])c([H])c(F)c([H])c6F)c([H])c5[H])c(C(=O)N([H])[H])c4N([H])[H])C3([H])[H])C([H])(C([H])([H])[H])C([H])([H])[H])c([H])c([H])c2C1([H])[H]

>  <smiles>  (45) 
[H]c1c([H])c([H])c2c(c1[H])C([H])([H])C([H])([H])C([H])([H])C2([H])N([H])C(=O)C1([H])N(C(=O)C([H])(N([H])C(=O)C([H])(N([H])C([H])([H])[H])C([H])([H])[H])C(C([H])([H])[H])(C([H])([H])[H])C([H])([H])[H])C([H])([H])c2c([H])c(OC([H])([H])C([H])([H])[N+]([H])(C([H])([H])C(=O)N([H])C(=O)N3C([H])([H])C([H])([H])C([H])([H])C([H])(n4nc(-c5c([H])c([H])c(Oc6c([H])c([H])c(F)c([H])c6F)c([H])c5[H])c(C(=O)N([H])[H])c4N([H])[H])C3([H])[H])C([H])(C([H])([H])[H])C([H])([H])[H])c([H])c([H])c2C1([H])[H]

$$$$
45:0:0
     RDKit          3D

 88 96  0  0  1  0  0  0  0  0999 V2000
  -30.5810  -19.2010   20.7390 C   0  0  0  0  0  2  0  0  0  0  0  0
  -28.5630  -18.9160   19.4600 C   0  0  0  0  0  2  0  0  0  0  0  0
  -30.0840  -20.7350   21.1300 C   0  0  0  0  0  2  0  0  0  0  0  0
  -28.1050  -20.4830   19.7770 C   0  0  0  0  0  2  0  0  0  0  0  0
  -29.4620  -18.0610   20.5000 C   0  0  0  0  0  3  0  0  0  0  0  0
  -29.1430  -21.5440   20.2000 N   0  0  1  0  0  4  0  0  0  0  0  0
  -29.7000  -21.7290   19.3740 H   0  0  0  0  0  0  0  0  0  0  0  0
  -30.4360  -15.2140   20.2770 C   0  0  0  0  0  0  0  0  0  0  0  0
  -30.4010  -12.7930   19.3720 C   0  0  0  0  0  2  0  0  0  0  0  0
  -29.4660  -12.6360   18.1460 C   0  0  0  0  0  2  0  0  0  0  0  0
  -28.0210  -12.3660   18.6090 C   0  0  0  0  0  2  0  0  0  0  0  0
  -27.5830  -13.3360   19.7360 C   0  0  0  0  0  3  0  0  0  0  0  0
  -28.6410  -13.4250   20.8590 C   0  0  0  0  0  2  0  0  0  0  0  0
  -29.8800  -13.9150   20.2280 N   0  0  0  0  0  0  0  0  0  0  0  0
  -31.6460  -15.2680   20.0270 O   0  0  0  0  0  0  0  0  0  0  0  0
  -29.6000  -16.4080   20.4150 N   0  0  0  0  0  0  0  0  0  0  0  0
  -28.6760  -16.0330   20.5670 H   0  0  0  0  0  0  0  0  0  0  0  0
  -25.1970  -13.9060   20.4680 C   0  0  0  0  0  0  0  0  0  0  0  0
  -24.1370  -13.1320   20.8400 C   0  0  0  0  0  0  0  0  0  0  0  0
  -24.6030  -11.7780   20.8170 C   0  0  0  0  0  0  0  0  0  0  0  0
  -26.2470  -13.0310   20.2370 N   0  0  0  0  0  0  0  0  0  0  0  0
  -25.8990  -11.7460   20.5160 N   0  0  0  0  0  0  0  0  0  0  0  0
  -23.8790  -10.5160   21.0110 C   0  0  0  0  0  0  0  0  0  0  0  0
  -24.3130   -9.5540   21.9510 C   0  0  0  0  0  3  0  0  0  0  0  0
  -23.5890   -8.3560   22.1340 C   0  0  0  0  0  3  0  0  0  0  0  0
  -22.4200   -8.1100   21.3790 C   0  0  0  0  0  0  0  0  0  0  0  0
  -22.0020   -9.0600   20.4300 C   0  0  0  0  0  3  0  0  0  0  0  0
  -22.7250  -10.2500   20.2450 C   0  0  0  0  0  3  0  0  0  0  0  0
  -21.6710   -6.9600   21.4690 O   0  0  0  0  0  0  0  0  0  0  0  0
  -21.6260   -6.2210   22.6240 C   0  0  0  0  0  0  0  0  0  0  0  0
  -21.1950   -6.7780   23.8480 C   0  0  0  0  0  3  0  0  0  0  0  0
  -21.0980   -5.9660   24.9950 C   0  0  0  0  0  3  0  0  0  0  0  0
  -21.4210   -4.5970   24.9200 C   0  0  0  0  0  0  0  0  0  0  0  0
  -21.8440   -4.0390   23.6990 C   0  0  0  0  0  3  0  0  0  0  0  0
  -21.9420   -4.8490   22.5550 C   0  0  0  0  0  0  0  0  0  0  0  0
  -22.3310   -4.3030   21.3780 F   0  0  0  0  0  0  0  0  0  0  0  0
  -21.3200   -3.8150   26.0190 F   0  0  0  0  0  0  0  0  0  0  0  0
  -22.7350  -13.6010   21.1050 C   0  0  0  0  0  0  0  0  0  0  0  0
  -22.0090  -12.9080   21.9680 N   0  0  0  0  0  0  0  0  0  0  0  0
  -22.2960  -14.6240   20.5750 O   0  0  0  0  0  0  0  0  0  0  0  0
  -22.3780  -12.0790   22.4140 H   0  0  0  0  0  0  0  0  0  0  0  0
  -21.0720  -13.2090   22.1940 H   0  0  0  0  0  0  0  0  0  0  0  0
  -25.3590  -15.2770   20.2760 N   0  0  0  0  0  0  0  0  0  0  0  0
  -24.5800  -15.9260   20.3700 H   0  0  0  0  0  0  0  0  0  0  0  0
  -26.1730  -15.6910   19.8440 H   0  0  0  0  0  0  0  0  0  0  0  0
  -28.6640  -23.0240   20.7570 C   0  0  0  0  0  2  0  0  0  0  0  0
  -28.2830  -24.5010   19.9140 C   0  0  0  0  0  2  0  0  0  0  0  0
  -28.2590  -26.0460   20.3910 O   0  0  0  0  0  0  0  0  0  0  0  0
  -24.6190  -31.8780   23.2640 C   0  0  0  0  0  0  0  0  0  0  0  0
  -27.2130  -27.0730   20.2620 C   0  0  0  0  0  0  0  0  0  0  0  0
  -23.4290  -30.4760   21.6160 C   0  0  0  0  0  3  0  0  0  0  0  0
  -24.8930  -28.8870   20.2020 C   0  0  0  0  0  0  0  0  0  0  0  0
  -26.0050  -30.7060   21.4950 C   0  0  0  0  0  2  0  0  0  0  0  0
  -26.0740  -29.3200   20.8150 C   0  0  0  0  0  0  0  0  0  0  0  0
  -27.2340  -28.4380   20.8090 C   0  0  0  0  0  3  0  0  0  0  0  0
  -25.9950  -26.7590   19.6240 C   0  0  0  0  0  3  0  0  0  0  0  0
  -24.8750  -27.6260   19.5830 C   0  0  0  0  0  3  0  0  0  0  0  0
  -23.6620  -29.7830   20.2450 C   0  0  0  0  0  2  0  0  0  0  0  0
  -24.7020  -31.0520   22.1710 N   0  0  0  0  0  0  0  0  0  0  0  0
  -23.5300  -32.1690   23.7820 O   0  0  0  0  0  0  0  0  0  0  0  0
  -22.7430  -29.4810   22.5840 C   0  0  0  0  0  0  0  0  0  0  0  0
  -21.4160  -29.3080   22.4490 N   0  0  0  0  0  0  0  0  0  0  0  0
  -23.4070  -28.8660   23.4220 O   0  0  0  0  0  0  0  0  0  0  0  0
  -20.9500  -29.8460   21.7320 H   0  0  0  0  0  0  0  0  0  0  0  0
  -18.0170  -28.1240   22.9470 C   0  0  0  0  0  0  0  0  0  0  0  0
  -20.5780  -28.3780   23.2130 C   0  0  0  0  0  3  0  0  0  0  0  0
  -20.6650  -26.9440   22.6390 C   0  0  0  0  0  2  0  0  0  0  0  0
  -19.5670  -26.6350   21.6170 C   0  0  0  0  0  2  0  0  0  0  0  0
  -18.1860  -26.7770   22.2640 C   0  0  0  0  0  2  0  0  0  0  0  0
  -19.1390  -28.8880   23.3720 C   0  0  0  0  0  0  0  0  0  0  0  0
  -18.9210  -30.1480   23.9660 C   0  0  0  0  0  3  0  0  0  0  0  0
  -17.6150  -30.6500   24.1330 C   0  0  0  0  0  3  0  0  0  0  0  0
  -16.5100  -29.8830   23.7240 C   0  0  0  0  0  3  0  0  0  0  0  0
  -16.7120  -28.6190   23.1420 C   0  0  0  0  0  3  0  0  0  0  0  0
  -25.8920  -32.5100   23.9040 C   0  0  0  0  0  3  0  0  0  0  0  0
  -25.5790  -33.9160   24.2150 N   0  0  0  0  0  0  0  0  0  0  0  0
  -25.9130  -34.9660   23.4500 C   0  0  0  0  0  0  0  0  0  0  0  0
  -26.5890  -34.8540   22.4240 O   0  0  0  0  0  0  0  0  0  0  0  0
  -24.9700  -34.0740   25.0030 H   0  0  0  0  0  0  0  0  0  0  0  0
  -24.1830  -36.7540   23.0740 C   0  0  0  0  0  1  0  0  0  0  0  0
  -25.4220  -36.3590   23.8930 C   0  0  0  0  0  3  0  0  0  0  0  0
  -27.5550  -37.2570   24.7170 C   0  0  0  0  0  1  0  0  0  0  0  0
  -26.4530  -37.4150   23.7710 N   0  0  0  0  0  0  0  0  0  0  0  0
  -26.0420  -38.3350   23.9120 H   0  0  0  0  0  0  0  0  0  0  0  0
  -26.3880  -31.7550   25.2050 C   0  0  1  0  0  0  0  0  0  0  0  0
  -25.2980  -31.5220   26.2760 C   0  0  0  0  0  1  0  0  0  0  0  0
  -26.9740  -30.3620   24.8700 C   0  0  0  0  0  1  0  0  0  0  0  0
  -27.5340  -32.5600   25.8620 C   0  0  0  0  0  1  0  0  0  0  0  0
  1  3  1  0
  2  4  1  0
  2  5  1  0
  4  6  1  0
  5 16  1  0
  5  1  1  0
  6 46  1  0
  6  3  1  0
  6  7  1  6
  8 16  1  0
  9 14  1  0
 10 11  1  0
 10  9  1  0
 12 11  1  0
 12 21  1  0
 12 13  1  0
 14  8  1  0
 14 13  1  0
 15  8  2  0
 16 17  1  0
 18 19  2  0
 19 38  1  0
 20 19  1  0
 20 23  1  0
 21 18  1  0
 21 22  1  0
 22 20  2  0
 23 24  1  0
 24 25  2  0
 26 29  1  0
 26 25  1  0
 27 26  2  0
 28 27  1  0
 28 23  2  0
 29 30  1  0
 30 31  1  0
 31 32  2  0
 33 32  1  0
 33 37  1  0
 34 33  2  0
 35 30  2  0
 35 34  1  0
 36 35  1  0
 38 39  1  0
 39 42  1  0
 39 41  1  0
 40 38  2  0
 43 44  1  0
 43 18  1  0
 45 43  1  0
 47 48  1  0
 47 46  1  0
 49 60  2  0
 50 48  1  0
 50 55  1  0
 51 59  1  0
 51 61  1  0
 52 58  1  0
 52 54  1  0
 53 59  1  0
 54 53  1  0
 55 54  2  0
 56 50  2  0
 57 56  1  0
 57 52  2  0
 58 51  1  0
 59 49  1  0
 61 63  2  0
 62 61  1  0
 64 62  1  0
 65 74  2  0
 65 70  1  0
 66 62  1  0
 66 70  1  0
 67 66  1  0
 68 69  1  0
 68 67  1  0
 69 65  1  0
 70 71  2  0
 71 72  1  0
 73 72  2  0
 74 73  1  0
 75 49  1  0
 75 76  1  0
 75 85  1  0
 76 79  1  0
 77 81  1  0
 77 76  1  0
 78 77  2  0
 81 80  1  0
 83 81  1  0
 83 84  1  0
 83 82  1  0
 85 88  1  1
 85 86  1  0
 87 85  1  0
M  ISO  4   8 100  16 100  47 101  48 101
M  END
>  <TORSDO>  (46) 
F 18

>  <SCORE>  (46) 
-15.423

>  <name>  (46) 
45

>  <ligand_id>  (46) 
45

>  <original_smiles>  (46) 
[H]c1c([H])c([H])c2c(c1[H])C([H])([H])C([H])([H])C([H])([H])C2([H])N([H])C(=O)C1([H])N(C(=O)C([H])(N([H])C(=O)C([H])(N([H])C([H])([H])[H])C([H])([H])[H])C(C([H])([H])[H])(C([H])([H])[H])C([H])([H])[H])C([H])([H])c2c([H])c(OC([H])([H])C([H])([H])[N+]3([H])C([H])([H])C([H])([H])C([H])(N([H])C(=O)N4C([H])([H])C([H])([H])C([H])([H])C([H])(n5nc(-c6c([H])c([H])c(Oc7c([H])c([H])c(F)c([H])c7F)c([H])c6[H])c(C(=O)N([H])[H])c5N([H])[H])C4([H])[H])C([H])([H])C3([H])[H])c([H])c([H])c2C1([H])[H]

>  <smiles>  (46) 
[H]c1c([H])c([H])c2c(c1[H])C([H])([H])C([H])([H])C([H])([H])C2([H])N([H])C(=O)C1([H])N(C(=O)C([H])(N([H])C(=O)C([H])(N([H])C([H])([H])[H])C([H])([H])[H])C(C([H])([H])[H])(C([H])([H])[H])C([H])([H])[H])C([H])([H])c2c([H])c(OC([H])([H])C([H])([H])[N+]3([H])C([H])([H])C([H])([H])C([H])(N([H])C(=O)N4C([H])([H])C([H])([H])C([H])([H])C([H])(n5nc(-c6c([H])c([H])c(Oc7c([H])c([H])c(F)c([H])c7F)c([H])c6[H])c(C(=O)N([H])[H])c5N([H])[H])C4([H])[H])C([H])([H])C3([H])[H])c([H])c([H])c2C1([H])[H]

$$$$
46:0:0
     RDKit          3D

 98105  0  0  1  0  0  0  0  0999 V2000
  -30.0610  -22.2330   21.1940 C   0  0  0  0  0  3  0  0  0  0  0  0
  -30.2470  -21.9380   19.7600 N   0  0  0  0  0  4  0  0  0  0  0  0
  -31.0770  -22.4160   19.4470 H   0  0  0  0  0  0  0  0  0  0  0  0
  -29.4730  -22.2970   19.2290 H   0  0  0  0  0  0  0  0  0  0  0  0
  -30.3240  -20.9560   19.5840 H   0  0  0  0  0  0  0  0  0  0  0  0
  -31.1290  -21.5140   22.0700 C   0  0  0  0  0  2  0  0  0  0  0  0
  -31.7170  -19.6780   23.7240 C   0  0  0  0  0  1  0  0  0  0  0  0
  -30.8110  -20.0670   22.5420 C   0  0  0  0  0  3  0  0  0  0  0  0
  -30.3320  -17.8840   21.4300 C   0  0  0  0  0  0  0  0  0  0  0  0
  -30.9730  -19.0640   21.4840 N   0  0  0  0  0  0  0  0  0  0  0  0
  -29.4320  -17.5680   22.2090 O   0  0  0  0  0  0  0  0  0  0  0  0
  -31.7440  -19.1800   20.8380 H   0  0  0  0  0  0  0  0  0  0  0  0
  -30.2680  -17.3210   18.9320 C   0  0  0  0  0  1  0  0  0  0  0  0
  -30.7700  -16.9140   20.3300 C   0  0  0  0  0  3  0  0  0  0  0  0
  -31.0430  -14.4580   20.1450 C   0  0  0  0  0  0  0  0  0  0  0  0
  -30.6080  -12.3650   18.9460 C   0  0  0  0  0  2  0  0  0  0  0  0
  -29.6500  -12.6810   17.7810 C   0  0  0  0  0  2  0  0  0  0  0  0
  -28.1850  -12.5760   18.2460 C   0  0  0  0  0  2  0  0  0  0  0  0
  -27.9130  -13.3600   19.5590 C   0  0  0  0  0  3  0  0  0  0  0  0
  -28.9950  -13.0620   20.6260 C   0  0  0  0  0  2  0  0  0  0  0  0
  -30.3150  -13.3190   20.0260 N   0  0  0  0  0  0  0  0  0  0  0  0
  -32.1630  -14.5930   19.6480 O   0  0  0  0  0  0  0  0  0  0  0  0
  -30.3870  -15.5250   20.6210 N   0  0  0  0  0  0  0  0  0  0  0  0
  -29.4970  -15.3860   21.0760 H   0  0  0  0  0  0  0  0  0  0  0  0
  -25.5340  -13.9920   20.3140 C   0  0  0  0  0  0  0  0  0  0  0  0
  -24.4640  -13.2300   20.7030 C   0  0  0  0  0  0  0  0  0  0  0  0
  -24.9120  -11.8730   20.6660 C   0  0  0  0  0  0  0  0  0  0  0  0
  -26.5660  -13.1010   20.0630 N   0  0  0  0  0  0  0  0  0  0  0  0
  -26.1960  -11.8220   20.3320 N   0  0  0  0  0  0  0  0  0  0  0  0
  -24.1770  -10.6190   20.8720 C   0  0  0  0  0  0  0  0  0  0  0  0
  -24.5910   -9.6730   21.8350 C   0  0  0  0  0  3  0  0  0  0  0  0
  -23.8580   -8.4820   22.0290 C   0  0  0  0  0  3  0  0  0  0  0  0
  -22.6970   -8.2290   21.2590 C   0  0  0  0  0  0  0  0  0  0  0  0
  -22.3030   -9.1650   20.2850 C   0  0  0  0  0  3  0  0  0  0  0  0
  -23.0370  -10.3470   20.0910 C   0  0  0  0  0  3  0  0  0  0  0  0
  -21.9360   -7.0890   21.3610 O   0  0  0  0  0  0  0  0  0  0  0  0
  -21.8160   -6.4060   22.5440 C   0  0  0  0  0  0  0  0  0  0  0  0
  -21.3290   -7.0250   23.7160 C   0  0  0  0  0  3  0  0  0  0  0  0
  -21.1580   -6.2680   24.8920 C   0  0  0  0  0  3  0  0  0  0  0  0
  -21.4650   -4.8940   24.8960 C   0  0  0  0  0  0  0  0  0  0  0  0
  -21.9440   -4.2750   23.7290 C   0  0  0  0  0  3  0  0  0  0  0  0
  -22.1190   -5.0300   22.5560 C   0  0  0  0  0  0  0  0  0  0  0  0
  -22.5610   -4.4230   21.4280 F   0  0  0  0  0  0  0  0  0  0  0  0
  -21.2920   -4.1650   26.0240 F   0  0  0  0  0  0  0  0  0  0  0  0
  -23.0770  -13.7210   21.0040 C   0  0  0  0  0  0  0  0  0  0  0  0
  -22.3660  -13.0380   21.8940 N   0  0  0  0  0  0  0  0  0  0  0  0
  -22.6350  -14.7450   20.4850 O   0  0  0  0  0  0  0  0  0  0  0  0
  -22.7360  -12.2090   22.3340 H   0  0  0  0  0  0  0  0  0  0  0  0
  -21.4370  -13.3490   22.1390 H   0  0  0  0  0  0  0  0  0  0  0  0
  -25.7090  -15.3610   20.1330 N   0  0  0  0  0  0  0  0  0  0  0  0
  -24.9580  -16.0270   20.2770 H   0  0  0  0  0  0  0  0  0  0  0  0
  -26.5670  -15.7950   19.8140 H   0  0  0  0  0  0  0  0  0  0  0  0
  -30.1030  -23.7750   21.3980 C   0  0  0  0  0  3  0  0  0  0  0  0
  -31.3700  -24.2470   20.9550 O   0  0  0  0  0  0  0  0  0  0  0  0
  -32.0170  -24.0550   21.6300 H   0  0  0  0  0  0  0  0  0  0  0  0
  -29.0060  -24.5560   20.6330 C   0  0  0  0  0  2  0  0  0  0  0  0
  -28.8420  -26.0240   21.0790 C   0  0  0  0  0  2  0  0  0  0  0  0
  -28.3770  -26.7600   19.9560 O   0  0  0  0  0  0  0  0  0  0  0  0
  -24.5830  -31.8620   23.2220 C   0  0  0  0  0  0  0  0  0  0  0  0
  -27.2010  -27.4490   20.1020 C   0  0  0  0  0  0  0  0  0  0  0  0
  -23.3570  -30.4680   21.5840 C   0  0  0  0  0  3  0  0  0  0  0  0
  -24.7990  -28.9250   20.1550 C   0  0  0  0  0  0  0  0  0  0  0  0
  -25.8800  -30.8260   21.3690 C   0  0  0  0  0  2  0  0  0  0  0  0
  -25.9600  -29.4530   20.7360 C   0  0  0  0  0  0  0  0  0  0  0  0
  -27.1660  -28.7170   20.7170 C   0  0  0  0  0  3  0  0  0  0  0  0
  -26.0310  -26.9240   19.5240 C   0  0  0  0  0  3  0  0  0  0  0  0
  -24.8270  -27.6540   19.5500 C   0  0  0  0  0  3  0  0  0  0  0  0
  -23.5560  -29.7860   20.2040 C   0  0  0  0  0  2  0  0  0  0  0  0
  -24.6240  -31.0640   22.1170 N   0  0  0  0  0  0  0  0  0  0  0  0
  -23.5080  -32.1370   23.7750 O   0  0  0  0  0  0  0  0  0  0  0  0
  -22.7130  -29.4450   22.5460 C   0  0  0  0  0  0  0  0  0  0  0  0
  -21.3900  -29.2640   22.4240 N   0  0  0  0  0  0  0  0  0  0  0  0
  -23.4000  -28.8170   23.3560 O   0  0  0  0  0  0  0  0  0  0  0  0
  -20.8960  -29.8240   21.7430 H   0  0  0  0  0  0  0  0  0  0  0  0
  -18.0160  -28.0790   22.9310 C   0  0  0  0  0  0  0  0  0  0  0  0
  -20.5760  -28.3270   23.1980 C   0  0  0  0  0  3  0  0  0  0  0  0
  -20.6720  -26.8960   22.6190 C   0  0  0  0  0  2  0  0  0  0  0  0
  -19.5660  -26.5790   21.6080 C   0  0  0  0  0  2  0  0  0  0  0  0
  -18.1870  -26.7280   22.2560 C   0  0  0  0  0  2  0  0  0  0  0  0
  -19.1390  -28.8370   23.3580 C   0  0  0  0  0  0  0  0  0  0  0  0
  -18.9270  -30.1030   23.9490 C   0  0  0  0  0  3  0  0  0  0  0  0
  -17.6260  -30.6090   24.1190 C   0  0  0  0  0  3  0  0  0  0  0  0
  -16.5170  -29.8470   23.7090 C   0  0  0  0  0  3  0  0  0  0  0  0
  -16.7140  -28.5850   23.1210 C   0  0  0  0  0  3  0  0  0  0  0  0
  -25.8790  -32.4850   23.8290 C   0  0  0  0  0  3  0  0  0  0  0  0
  -26.4100  -31.7050   25.0930 C   0  0  1  0  0  0  0  0  0  0  0  0
  -25.3290  -31.4650   26.1720 C   0  0  0  0  0  1  0  0  0  0  0  0
  -26.9810  -30.3280   24.6820 C   0  0  0  0  0  1  0  0  0  0  0  0
  -27.5680  -32.4920   25.7500 C   0  0  0  0  0  1  0  0  0  0  0  0
  -25.5840  -33.8830   24.1660 N   0  0  0  0  0  0  0  0  0  0  0  0
  -25.9240  -34.9340   23.4080 C   0  0  0  0  0  0  0  0  0  0  0  0
  -26.5930  -34.8300   22.3770 O   0  0  0  0  0  0  0  0  0  0  0  0
  -24.9910  -34.0390   24.9690 H   0  0  0  0  0  0  0  0  0  0  0  0
  -24.2140  -36.7410   23.0480 C   0  0  0  0  0  1  0  0  0  0  0  0
  -25.4450  -36.3240   23.8700 C   0  0  0  0  0  3  0  0  0  0  0  0
  -27.5780  -37.1860   24.7250 C   0  0  0  0  0  1  0  0  0  0  0  0
  -26.4880  -37.3670   23.7710 N   0  0  0  0  0  0  0  0  0  0  0  0
  -26.0880  -38.2890   23.9210 H   0  0  0  0  0  0  0  0  0  0  0  0
  1 53  1  0
  1  6  1  0
  2  1  1  0
  3  2  1  0
  4  2  1  0
  5  2  1  0
  6  8  1  0
  8  7  1  0
  9 10  1  0
  9 11  2  0
 10  8  1  0
 12 10  1  0
 14 13  1  0
 14 23  1  0
 14  9  1  0
 15 23  1  0
 16 21  1  0
 17 18  1  0
 17 16  1  0
 19 18  1  0
 19 28  1  0
 19 20  1  0
 21 15  1  0
 21 20  1  0
 22 15  2  0
 23 24  1  0
 25 26  2  0
 26 45  1  0
 27 26  1  0
 27 30  1  0
 28 25  1  0
 28 29  1  0
 29 27  2  0
 30 31  1  0
 31 32  2  0
 33 36  1  0
 33 32  1  0
 34 33  2  0
 35 34  1  0
 35 30  2  0
 36 37  1  0
 37 42  2  0
 37 38  1  0
 38 39  2  0
 39 40  1  0
 40 44  1  0
 41 40  2  0
 42 41  1  0
 43 42  1  0
 45 46  1  0
 46 49  1  0
 46 48  1  0
 47 45  2  0
 50 51  1  0
 50 25  1  0
 52 50  1  0
 53 56  1  0
 54 53  1  0
 54 55  1  0
 56 57  1  0
 58 60  1  0
 58 57  1  0
 59 70  2  0
 60 65  1  0
 61 69  1  0
 61 71  1  0
 62 68  1  0
 62 64  1  0
 63 69  1  0
 64 63  1  0
 65 64  2  0
 66 67  1  0
 66 60  2  0
 67 62  2  0
 68 61  1  0
 69 59  1  0
 71 73  2  0
 72 71  1  0
 74 72  1  0
 75 84  2  0
 75 80  1  0
 76 72  1  0
 76 80  1  0
 77 76  1  0
 78 79  1  0
 78 77  1  0
 79 75  1  0
 80 81  2  0
 81 82  1  0
 83 82  2  0
 84 83  1  0
 85 59  1  0
 85 90  1  0
 85 86  1  0
 86 89  1  1
 86 87  1  0
 88 86  1  0
 90 93  1  0
 91 95  1  0
 91 90  1  0
 92 91  2  0
 95 94  1  0
 97 95  1  0
 97 98  1  0
 97 96  1  0
M  ISO  4  15 100  23 100  57 101  58 101
M  END
>  <TORSDO>  (47) 
F 25

>  <SCORE>  (47) 
-11.959

>  <name>  (47) 
46

>  <ligand_id>  (47) 
46

>  <original_smiles>  (47) 
[H]OC([H])(C([H])([H])C([H])([H])Oc1c([H])c([H])c2c(c1[H])C([H])([H])N(C(=O)C([H])(N([H])C(=O)C([H])(N([H])C([H])([H])[H])C([H])([H])[H])C(C([H])([H])[H])(C([H])([H])[H])C([H])([H])[H])C([H])(C(=O)N([H])C1([H])c3c([H])c([H])c([H])c([H])c3C([H])([H])C([H])([H])C1([H])[H])C2([H])[H])C([H])(C([H])([H])C([H])(N([H])C(=O)C([H])(N([H])C(=O)N1C([H])([H])C([H])([H])C([H])([H])C([H])(n2nc(-c3c([H])c([H])c(Oc4c([H])c([H])c(F)c([H])c4F)c([H])c3[H])c(C(=O)N([H])[H])c2N([H])[H])C1([H])[H])C([H])([H])[H])C([H])([H])[H])[N+]([H])([H])[H]

>  <smiles>  (47) 
[H]OC([H])(C([H])([H])C([H])([H])Oc1c([H])c([H])c2c(c1[H])C([H])([H])N(C(=O)C([H])(N([H])C(=O)C([H])(N([H])C([H])([H])[H])C([H])([H])[H])C(C([H])([H])[H])(C([H])([H])[H])C([H])([H])[H])C([H])(C(=O)N([H])C1([H])c3c([H])c([H])c([H])c([H])c3C([H])([H])C([H])([H])C1([H])[H])C2([H])[H])C([H])(C([H])([H])C([H])(N([H])C(=O)C([H])(N([H])C(=O)N1C([H])([H])C([H])([H])C([H])([H])C([H])(n2nc(-c3c([H])c([H])c(Oc4c([H])c([H])c(F)c([H])c4F)c([H])c3[H])c(C(=O)N([H])[H])c2N([H])[H])C1([H])[H])C([H])([H])[H])C([H])([H])[H])[N+]([H])([H])[H]

$$$$
47:0:0
     RDKit          3D

 90 98  0  0  1  0  0  0  0  0999 V2000
  -30.4630  -20.3090   19.2740 C   0  0  0  0  0  2  0  0  0  0  0  0
  -30.5550  -19.7160   20.6920 C   0  0  0  0  0  3  0  0  0  0  0  0
  -30.0020  -20.8810   21.5640 C   0  0  0  0  0  3  0  0  0  0  0  0
  -29.4200  -21.9030   20.5610 C   0  0  0  0  0  3  0  0  0  0  0  0
  -29.0700  -20.5570   22.7500 C   0  0  0  0  0  1  0  0  0  0  0  0
  -30.2780  -21.7150   19.4450 O   0  0  0  0  0  0  0  0  0  0  0  0
  -29.8940  -18.3100   20.7780 C   0  0  0  0  0  0  0  0  0  0  0  0
  -28.6670  -18.2160   20.8850 O   0  0  0  0  0  0  0  0  0  0  0  0
  -30.3610  -16.0530   20.7230 C   0  0  0  0  0  3  0  0  0  0  0  0
  -30.8070  -17.2590   20.6500 N   0  0  0  0  0  0  0  0  0  0  0  0
  -31.1670  -14.8060   20.3340 C   0  0  0  0  0  0  0  0  0  0  0  0
  -30.8400  -12.6480   19.1950 C   0  0  0  0  0  2  0  0  0  0  0  0
  -29.9000  -12.8730   17.9880 C   0  0  0  0  0  2  0  0  0  0  0  0
  -28.4200  -12.7700   18.4100 C   0  0  0  0  0  2  0  0  0  0  0  0
  -28.1020  -13.6040   19.6790 C   0  0  0  0  0  3  0  0  0  0  0  0
  -29.1480  -13.3310   20.7830 C   0  0  0  0  0  2  0  0  0  0  0  0
  -30.4760  -13.6330   20.2270 N   0  0  0  0  0  0  0  0  0  0  0  0
  -32.3310  -14.9370   19.9310 O   0  0  0  0  0  0  0  0  0  0  0  0
  -25.7290  -14.2900   20.3950 C   0  0  0  0  0  0  0  0  0  0  0  0
  -24.6340  -13.5490   20.7550 C   0  0  0  0  0  0  0  0  0  0  0  0
  -25.0500  -12.1830   20.7070 C   0  0  0  0  0  0  0  0  0  0  0  0
  -26.7420  -13.3730   20.1530 N   0  0  0  0  0  0  0  0  0  0  0  0
  -26.3370  -12.1020   20.3980 N   0  0  0  0  0  0  0  0  0  0  0  0
  -24.2830  -10.9420   20.8800 C   0  0  0  0  0  0  0  0  0  0  0  0
  -24.6690   -9.9610   21.8200 C   0  0  0  0  0  3  0  0  0  0  0  0
  -23.9070   -8.7840   21.9780 C   0  0  0  0  0  3  0  0  0  0  0  0
  -22.7450   -8.5810   21.1960 C   0  0  0  0  0  0  0  0  0  0  0  0
  -22.3810   -9.5480   20.2440 C   0  0  0  0  0  3  0  0  0  0  0  0
  -23.1430  -10.7170   20.0840 C   0  0  0  0  0  3  0  0  0  0  0  0
  -21.9580   -7.4560   21.2630 O   0  0  0  0  0  0  0  0  0  0  0  0
  -21.8380   -6.7320   22.4220 C   0  0  0  0  0  0  0  0  0  0  0  0
  -21.3510   -7.3070   23.6150 C   0  0  0  0  0  3  0  0  0  0  0  0
  -21.1780   -6.5070   24.7630 C   0  0  0  0  0  3  0  0  0  0  0  0
  -21.4840   -5.1330   24.7170 C   0  0  0  0  0  0  0  0  0  0  0  0
  -21.9670   -4.5590   23.5280 C   0  0  0  0  0  3  0  0  0  0  0  0
  -22.1400   -5.3550   22.3830 C   0  0  0  0  0  0  0  0  0  0  0  0
  -22.5840   -4.7920   21.2340 F   0  0  0  0  0  0  0  0  0  0  0  0
  -21.3120   -4.3630   25.8170 F   0  0  0  0  0  0  0  0  0  0  0  0
  -23.2530  -14.0680   21.0320 C   0  0  0  0  0  0  0  0  0  0  0  0
  -22.5040  -13.3850   21.8920 N   0  0  0  0  0  0  0  0  0  0  0  0
  -22.8460  -15.1110   20.5210 O   0  0  0  0  0  0  0  0  0  0  0  0
  -22.8460  -12.5370   22.3200 H   0  0  0  0  0  0  0  0  0  0  0  0
  -21.5790  -13.7140   22.1250 H   0  0  0  0  0  0  0  0  0  0  0  0
  -25.9450  -15.6550   20.2370 N   0  0  0  0  0  0  0  0  0  0  0  0
  -25.2090  -16.3420   20.3650 H   0  0  0  0  0  0  0  0  0  0  0  0
  -26.8140  -16.0650   19.9200 H   0  0  0  0  0  0  0  0  0  0  0  0
  -29.4550  -23.3790   21.0460 C   0  0  0  0  0  2  0  0  0  0  0  0
  -28.9990  -24.4620   20.0260 C   0  0  0  0  0  2  0  0  0  0  0  0
  -28.9340  -25.8820   20.6540 C   0  0  0  0  0  2  0  0  0  0  0  0
  -28.7930  -26.9550   19.7060 O   0  0  0  0  0  0  0  0  0  0  0  0
  -24.7050  -31.7520   23.0580 C   0  0  0  0  0  0  0  0  0  0  0  0
  -27.5940  -27.6280   19.7630 C   0  0  0  0  0  0  0  0  0  0  0  0
  -23.5730  -30.3490   21.3630 C   0  0  0  0  0  3  0  0  0  0  0  0
  -25.1080  -28.9700   19.8590 C   0  0  0  0  0  0  0  0  0  0  0  0
  -26.0690  -30.8790   21.1630 C   0  0  0  0  0  2  0  0  0  0  0  0
  -26.2370  -29.5470   20.4570 C   0  0  0  0  0  0  0  0  0  0  0  0
  -27.4850  -28.8840   20.4040 C   0  0  0  0  0  3  0  0  0  0  0  0
  -26.4520  -27.0630   19.1610 C   0  0  0  0  0  3  0  0  0  0  0  0
  -25.2110  -27.7260   19.2090 C   0  0  0  0  0  3  0  0  0  0  0  0
  -23.8100  -29.7410   19.9550 C   0  0  0  0  0  2  0  0  0  0  0  0
  -24.7990  -31.0070   21.9190 N   0  0  0  0  0  0  0  0  0  0  0  0
  -23.6130  -31.9260   23.6190 O   0  0  0  0  0  0  0  0  0  0  0  0
  -22.9990  -29.2470   22.2810 C   0  0  0  0  0  0  0  0  0  0  0  0
  -21.6910  -28.9730   22.1420 N   0  0  0  0  0  0  0  0  0  0  0  0
  -23.7270  -28.6440   23.0740 O   0  0  0  0  0  0  0  0  0  0  0  0
  -21.1610  -29.5170   21.4750 H   0  0  0  0  0  0  0  0  0  0  0  0
  -18.4240  -27.4840   22.5540 C   0  0  0  0  0  0  0  0  0  0  0  0
  -20.9480  -27.9470   22.8720 C   0  0  0  0  0  3  0  0  0  0  0  0
  -21.1790  -26.5470   22.2560 C   0  0  0  0  0  2  0  0  0  0  0  0
  -20.1210  -26.1630   21.2180 C   0  0  0  0  0  2  0  0  0  0  0  0
  -18.7220  -26.1750   21.8420 C   0  0  0  0  0  2  0  0  0  0  0  0
  -19.4700  -28.3240   23.0220 C   0  0  0  0  0  0  0  0  0  0  0  0
  -19.1380  -29.5460   23.6430 C   0  0  0  0  0  3  0  0  0  0  0  0
  -17.7940  -29.9330   23.8030 C   0  0  0  0  0  3  0  0  0  0  0  0
  -16.7630  -29.0890   23.3530 C   0  0  0  0  0  3  0  0  0  0  0  0
  -17.0790  -27.8660   22.7340 C   0  0  0  0  0  3  0  0  0  0  0  0
  -25.9550  -32.4360   23.6950 C   0  0  0  0  0  3  0  0  0  0  0  0
  -25.5690  -33.8030   24.0650 N   0  0  0  0  0  0  0  0  0  0  0  0
  -25.8530  -34.8960   23.3440 C   0  0  0  0  0  0  0  0  0  0  0  0
  -26.5380  -34.8630   22.3180 O   0  0  0  0  0  0  0  0  0  0  0  0
  -24.9600  -33.9000   24.8640 H   0  0  0  0  0  0  0  0  0  0  0  0
  -24.0390  -36.6090   23.0200 C   0  0  0  0  0  1  0  0  0  0  0  0
  -25.2860  -36.2400   23.8410 C   0  0  0  0  0  3  0  0  0  0  0  0
  -27.3540  -37.2050   24.7470 C   0  0  0  0  0  1  0  0  0  0  0  0
  -26.2650  -37.3470   23.7850 N   0  0  0  0  0  0  0  0  0  0  0  0
  -25.8080  -38.2400   23.9530 H   0  0  0  0  0  0  0  0  0  0  0  0
  -26.5250  -31.6590   24.9460 C   0  0  1  0  0  0  0  0  0  0  0  0
  -25.4530  -31.3260   26.0100 C   0  0  0  0  0  1  0  0  0  0  0  0
  -27.1880  -30.3310   24.5140 C   0  0  0  0  0  1  0  0  0  0  0  0
  -27.6280  -32.5020   25.6270 C   0  0  0  0  0  1  0  0  0  0  0  0
  1  6  1  0
  1  2  1  0
  2  7  1  0
  2  3  1  0
  3  5  1  0
  4 47  1  0
  4  3  1  0
  6  4  1  0
  7  8  2  0
 10  9  2  0
 10  7  1  0
 11  9  1  0
 12 17  1  0
 13 14  1  0
 13 12  1  0
 15 14  1  0
 15 22  1  0
 15 16  1  0
 17 11  1  0
 17 16  1  0
 18 11  2  0
 19 20  2  0
 20 39  1  0
 21 20  1  0
 21 24  1  0
 22 19  1  0
 22 23  1  0
 23 21  2  0
 24 25  1  0
 25 26  2  0
 27 30  1  0
 27 26  1  0
 28 27  2  0
 29 28  1  0
 29 24  2  0
 30 31  1  0
 31 32  1  0
 32 33  2  0
 34 33  1  0
 34 38  1  0
 35 34  2  0
 36 31  2  0
 36 35  1  0
 37 36  1  0
 39 40  1  0
 40 43  1  0
 40 42  1  0
 41 39  2  0
 44 45  1  0
 44 19  1  0
 46 44  1  0
 48 49  1  0
 48 47  1  0
 50 52  1  0
 50 49  1  0
 51 62  2  0
 52 57  1  0
 53 61  1  0
 53 63  1  0
 54 60  1  0
 54 56  1  0
 55 61  1  0
 56 55  1  0
 57 56  2  0
 58 59  1  0
 58 52  2  0
 59 54  2  0
 60 53  1  0
 61 51  1  0
 63 65  2  0
 64 63  1  0
 66 64  1  0
 67 76  2  0
 67 72  1  0
 68 64  1  0
 68 72  1  0
 69 68  1  0
 70 71  1  0
 70 69  1  0
 71 67  1  0
 72 73  2  0
 73 74  1  0
 75 74  2  0
 76 75  1  0
 77 51  1  0
 77 78  1  0
 77 87  1  0
 78 81  1  0
 79 83  1  0
 79 78  1  0
 80 79  2  0
 83 82  1  0
 85 83  1  0
 85 86  1  0
 85 84  1  0
 87 90  1  1
 87 88  1  0
 89 87  1  0
M  ISO  4   9 100  11 100  49 101  50 101
M  END
>  <TORSDO>  (48) 
F 21

>  <SCORE>  (48) 
-10.998

>  <name>  (48) 
47

>  <ligand_id>  (48) 
47

>  <original_smiles>  (48) 
[H]C(=NC(=O)C1([H])C([H])([H])OC([H])(C([H])([H])C([H])([H])C([H])([H])Oc2c([H])c([H])c3c(c2[H])C([H])([H])N(C(=O)C([H])(N([H])C(=O)C([H])(N([H])C([H])([H])[H])C([H])([H])[H])C(C([H])([H])[H])(C([H])([H])[H])C([H])([H])[H])C([H])(C(=O)N([H])C2([H])c4c([H])c([H])c([H])c([H])c4C([H])([H])C([H])([H])C2([H])[H])C3([H])[H])C1([H])C([H])([H])[H])C(=O)N1C([H])([H])C([H])([H])C([H])([H])C([H])(n2nc(-c3c([H])c([H])c(Oc4c([H])c([H])c(F)c([H])c4F)c([H])c3[H])c(C(=O)N([H])[H])c2N([H])[H])C1([H])[H]

>  <smiles>  (48) 
[H]C(=NC(=O)C1([H])C([H])([H])OC([H])(C([H])([H])C([H])([H])C([H])([H])Oc2c([H])c([H])c3c(c2[H])C([H])([H])N(C(=O)C([H])(N([H])C(=O)C([H])(N([H])C([H])([H])[H])C([H])([H])[H])C(C([H])([H])[H])(C([H])([H])[H])C([H])([H])[H])C([H])(C(=O)N([H])C2([H])c4c([H])c([H])c([H])c([H])c4C([H])([H])C([H])([H])C2([H])[H])C3([H])[H])C1([H])C([H])([H])[H])C(=O)N1C([H])([H])C([H])([H])C([H])([H])C([H])(n2nc(-c3c([H])c([H])c(Oc4c([H])c([H])c(F)c([H])c4F)c([H])c3[H])c(C(=O)N([H])[H])c2N([H])[H])C1([H])[H]

$$$$
48:0:0
     RDKit          3D

 93100  0  0  1  0  0  0  0  0999 V2000
  -28.9610  -22.4180   20.6850 C   0  0  0  0  0  3  0  0  0  0  0  0
  -30.3700  -22.4880   21.1140 N   0  0  0  0  0  4  0  0  0  0  0  0
  -30.9930  -22.5060   20.3250 H   0  0  0  0  0  0  0  0  0  0  0  0
  -30.5940  -21.6920   21.6840 H   0  0  0  0  0  0  0  0  0  0  0  0
  -30.5380  -23.3090   21.6670 H   0  0  0  0  0  0  0  0  0  0  0  0
  -28.5250  -23.7890   19.9370 C   0  0  0  0  0  2  0  0  0  0  0  0
  -28.2390  -25.1230   20.7920 C   0  0  0  0  0  2  0  0  0  0  0  0
  -28.3500  -26.4830   20.1970 O   0  0  0  0  0  0  0  0  0  0  0  0
  -24.6080  -31.8820   23.2430 C   0  0  0  0  0  0  0  0  0  0  0  0
  -27.2280  -27.3220   20.2050 C   0  0  0  0  0  0  0  0  0  0  0  0
  -23.4080  -30.4790   21.6040 C   0  0  0  0  0  3  0  0  0  0  0  0
  -24.8620  -28.9240   20.1840 C   0  0  0  0  0  0  0  0  0  0  0  0
  -25.9460  -30.8050   21.4170 C   0  0  0  0  0  2  0  0  0  0  0  0
  -26.0300  -29.4230   20.7750 C   0  0  0  0  0  0  0  0  0  0  0  0
  -27.2190  -28.6350   20.7690 C   0  0  0  0  0  3  0  0  0  0  0  0
  -26.0400  -26.8680   19.5980 C   0  0  0  0  0  3  0  0  0  0  0  0
  -24.8680  -27.6520   19.5850 C   0  0  0  0  0  3  0  0  0  0  0  0
  -23.6250  -29.7990   20.2260 C   0  0  0  0  0  2  0  0  0  0  0  0
  -24.6730  -31.0730   22.1450 N   0  0  0  0  0  0  0  0  0  0  0  0
  -23.5240  -32.1570   23.7770 O   0  0  0  0  0  0  0  0  0  0  0  0
  -22.7470  -29.4640   22.5660 C   0  0  0  0  0  0  0  0  0  0  0  0
  -21.4210  -29.2850   22.4400 N   0  0  0  0  0  0  0  0  0  0  0  0
  -23.4260  -28.8380   23.3850 O   0  0  0  0  0  0  0  0  0  0  0  0
  -20.9320  -29.8400   21.7510 H   0  0  0  0  0  0  0  0  0  0  0  0
  -18.0460  -28.0830   22.9370 C   0  0  0  0  0  0  0  0  0  0  0  0
  -20.6030  -28.3470   23.2110 C   0  0  0  0  0  3  0  0  0  0  0  0
  -20.7080  -26.9150   22.6370 C   0  0  0  0  0  2  0  0  0  0  0  0
  -19.6080  -26.5890   21.6230 C   0  0  0  0  0  2  0  0  0  0  0  0
  -18.2250  -26.7340   22.2640 C   0  0  0  0  0  2  0  0  0  0  0  0
  -19.1620  -28.8480   23.3680 C   0  0  0  0  0  0  0  0  0  0  0  0
  -18.9400  -30.1120   23.9560 C   0  0  0  0  0  3  0  0  0  0  0  0
  -17.6340  -30.6120   24.1200 C   0  0  0  0  0  3  0  0  0  0  0  0
  -16.5310  -29.8440   23.7050 C   0  0  0  0  0  3  0  0  0  0  0  0
  -16.7380  -28.5820   23.1200 C   0  0  0  0  0  3  0  0  0  0  0  0
  -25.8890  -32.5170   23.8660 C   0  0  0  0  0  3  0  0  0  0  0  0
  -25.5780  -33.9160   24.1910 N   0  0  0  0  0  0  0  0  0  0  0  0
  -25.9100  -34.9680   23.4320 C   0  0  0  0  0  0  0  0  0  0  0  0
  -26.5820  -34.8630   22.4020 O   0  0  0  0  0  0  0  0  0  0  0  0
  -24.9790  -34.0720   24.9900 H   0  0  0  0  0  0  0  0  0  0  0  0
  -24.1820  -36.7610   23.0740 C   0  0  0  0  0  1  0  0  0  0  0  0
  -25.4230  -36.3580   23.8860 C   0  0  0  0  0  3  0  0  0  0  0  0
  -27.5590  -37.2450   24.7120 C   0  0  0  0  0  1  0  0  0  0  0  0
  -26.4560  -37.4100   23.7700 N   0  0  0  0  0  0  0  0  0  0  0  0
  -26.0490  -38.3310   23.9170 H   0  0  0  0  0  0  0  0  0  0  0  0
  -26.4030  -31.7510   25.1460 C   0  0  1  0  0  0  0  0  0  0  0  0
  -25.3080  -31.5180   26.2130 C   0  0  0  0  0  1  0  0  0  0  0  0
  -26.9860  -30.3720   24.7610 C   0  0  0  0  0  1  0  0  0  0  0  0
  -27.5540  -32.5470   25.8060 C   0  0  0  0  0  1  0  0  0  0  0  0
  -28.6780  -21.0070   19.9520 C   0  0  0  0  0  2  0  0  0  0  0  0
  -29.1720  -18.4530   20.3180 C   0  0  0  0  0  0  0  0  0  0  0  0
  -29.5400  -19.7810   20.2320 N   0  0  0  0  0  0  0  0  0  0  0  0
  -27.9940  -18.1250   20.4580 O   0  0  0  0  0  0  0  0  0  0  0  0
  -30.5340  -19.9090   20.0970 H   0  0  0  0  0  0  0  0  0  0  0  0
  -30.7940  -17.4160   18.6990 C   0  0  0  0  0  1  0  0  0  0  0  0
  -30.2560  -17.3010   20.1470 C   0  0  0  0  0  3  0  0  0  0  0  0
  -30.5920  -14.7090   20.2960 C   0  0  0  0  0  0  0  0  0  0  0  0
  -30.3520  -12.4510   19.2850 C   0  0  0  0  0  2  0  0  0  0  0  0
  -29.4060  -12.5490   18.0690 C   0  0  0  0  0  2  0  0  0  0  0  0
  -27.9390  -12.3890   18.5120 C   0  0  0  0  0  2  0  0  0  0  0  0
  -27.5810  -13.2700   19.7390 C   0  0  0  0  0  3  0  0  0  0  0  0
  -28.6490  -13.1710   20.8490 C   0  0  0  0  0  2  0  0  0  0  0  0
  -29.9420  -13.5010   20.2420 N   0  0  0  0  0  0  0  0  0  0  0  0
  -31.7910  -14.7760   20.0130 O   0  0  0  0  0  0  0  0  0  0  0  0
  -29.8360  -15.8590   20.4090 N   0  0  0  0  0  0  0  0  0  0  0  0
  -28.8550  -15.7360   20.6110 H   0  0  0  0  0  0  0  0  0  0  0  0
  -25.1980  -13.8580   20.4880 C   0  0  0  0  0  0  0  0  0  0  0  0
  -24.1370  -13.0820   20.8670 C   0  0  0  0  0  0  0  0  0  0  0  0
  -24.6030  -11.7320   20.8360 C   0  0  0  0  0  0  0  0  0  0  0  0
  -26.2420  -12.9810   20.2440 N   0  0  0  0  0  0  0  0  0  0  0  0
  -25.8920  -11.6970   20.5170 N   0  0  0  0  0  0  0  0  0  0  0  0
  -23.8820  -10.4680   21.0340 C   0  0  0  0  0  0  0  0  0  0  0  0
  -24.3300   -9.4970   21.9560 C   0  0  0  0  0  3  0  0  0  0  0  0
  -23.6080   -8.2990   22.1420 C   0  0  0  0  0  3  0  0  0  0  0  0
  -22.4220   -8.0620   21.4050 C   0  0  0  0  0  0  0  0  0  0  0  0
  -21.9940   -9.0210   20.4710 C   0  0  0  0  0  3  0  0  0  0  0  0
  -22.7160  -10.2120   20.2840 C   0  0  0  0  0  3  0  0  0  0  0  0
  -21.6700   -6.9170   21.5020 O   0  0  0  0  0  0  0  0  0  0  0  0
  -21.6500   -6.1630   22.6480 C   0  0  0  0  0  0  0  0  0  0  0  0
  -21.2590   -6.7070   23.8900 C   0  0  0  0  0  3  0  0  0  0  0  0
  -21.1840   -5.8800   25.0290 C   0  0  0  0  0  3  0  0  0  0  0  0
  -21.4910   -4.5100   24.9260 C   0  0  0  0  0  0  0  0  0  0  0  0
  -21.8760   -3.9650   23.6880 C   0  0  0  0  0  3  0  0  0  0  0  0
  -21.9510   -4.7890   22.5520 C   0  0  0  0  0  0  0  0  0  0  0  0
  -22.3020   -4.2550   21.3580 F   0  0  0  0  0  0  0  0  0  0  0  0
  -21.4120   -3.7140   26.0180 F   0  0  0  0  0  0  0  0  0  0  0  0
  -22.7400  -13.5560   21.1470 C   0  0  0  0  0  0  0  0  0  0  0  0
  -22.0190  -12.8610   22.0190 N   0  0  0  0  0  0  0  0  0  0  0  0
  -22.2980  -14.5800   20.6270 O   0  0  0  0  0  0  0  0  0  0  0  0
  -22.3900  -12.0330   22.4630 H   0  0  0  0  0  0  0  0  0  0  0  0
  -21.0820  -13.1600   22.2470 H   0  0  0  0  0  0  0  0  0  0  0  0
  -25.3560  -15.2290   20.3090 N   0  0  0  0  0  0  0  0  0  0  0  0
  -24.5880  -15.8800   20.4380 H   0  0  0  0  0  0  0  0  0  0  0  0
  -26.2020  -15.6830   19.9860 H   0  0  0  0  0  0  0  0  0  0  0  0
  1  6  1  0
  1  2  1  0
  2  5  1  0
  2  4  1  0
  3  2  1  0
  6  7  1  0
  8 10  1  0
  8  7  1  0
  9 20  2  0
 10 15  1  0
 11 19  1  0
 11 21  1  0
 12 18  1  0
 12 14  1  0
 13 19  1  0
 14 13  1  0
 15 14  2  0
 16 10  2  0
 17 16  1  0
 17 12  2  0
 18 11  1  0
 19  9  1  0
 21 23  2  0
 22 21  1  0
 24 22  1  0
 25 34  2  0
 25 30  1  0
 26 22  1  0
 26 30  1  0
 27 26  1  0
 28 29  1  0
 28 27  1  0
 29 25  1  0
 30 31  2  0
 31 32  1  0
 33 32  2  0
 34 33  1  0
 35  9  1  0
 35 36  1  0
 35 45  1  0
 36 39  1  0
 37 41  1  0
 37 36  1  0
 38 37  2  0
 41 40  1  0
 43 41  1  0
 43 44  1  0
 43 42  1  0
 45 48  1  1
 45 46  1  0
 47 45  1  0
 49 51  1  0
 49  1  1  0
 50 52  2  0
 51 50  1  0
 53 51  1  0
 55 54  1  0
 55 50  1  0
 55 64  1  0
 56 64  1  0
 57 62  1  0
 58 59  1  0
 58 57  1  0
 60 59  1  0
 60 69  1  0
 60 61  1  0
 62 56  1  0
 62 61  1  0
 63 56  2  0
 64 65  1  0
 66 67  2  0
 67 86  1  0
 68 67  1  0
 68 71  1  0
 69 66  1  0
 69 70  1  0
 70 68  2  0
 71 72  1  0
 72 73  2  0
 74 77  1  0
 74 73  1  0
 75 74  2  0
 76 75  1  0
 76 71  2  0
 77 78  1  0
 78 79  1  0
 79 80  2  0
 81 80  1  0
 81 85  1  0
 82 81  2  0
 83 78  2  0
 83 82  1  0
 84 83  1  0
 86 87  1  0
 87 90  1  0
 87 89  1  0
 88 86  2  0
 91 92  1  0
 91 66  1  0
 93 91  1  0
M  ISO  4   7 101   8 101  56 100  64 100
M  END
>  <TORSDO>  (49) 
F 22

>  <SCORE>  (49) 
-13.376

>  <name>  (49) 
48

>  <ligand_id>  (49) 
48

>  <original_smiles>  (49) 
[H]c1c([H])c([H])c2c(c1[H])C([H])([H])C([H])([H])C([H])([H])C2([H])N([H])C(=O)C1([H])N(C(=O)C([H])(N([H])C(=O)C([H])(N([H])C([H])([H])[H])C([H])([H])[H])C(C([H])([H])[H])(C([H])([H])[H])C([H])([H])[H])C([H])([H])c2c([H])c(OC([H])([H])C([H])([H])C([H])(C([H])([H])N([H])C(=O)C([H])(N([H])C(=O)N3C([H])([H])C([H])([H])C([H])([H])C([H])(n4nc(-c5c([H])c([H])c(Oc6c([H])c([H])c(F)c([H])c6F)c([H])c5[H])c(C(=O)N([H])[H])c4N([H])[H])C3([H])[H])C([H])([H])[H])[N+]([H])([H])[H])c([H])c([H])c2C1([H])[H]

>  <smiles>  (49) 
[H]c1c([H])c([H])c2c(c1[H])C([H])([H])C([H])([H])C([H])([H])C2([H])N([H])C(=O)C1([H])N(C(=O)C([H])(N([H])C(=O)C([H])(N([H])C([H])([H])[H])C([H])([H])[H])C(C([H])([H])[H])(C([H])([H])[H])C([H])([H])[H])C([H])([H])c2c([H])c(OC([H])([H])C([H])([H])C([H])(C([H])([H])N([H])C(=O)C([H])(N([H])C(=O)N3C([H])([H])C([H])([H])C([H])([H])C([H])(n4nc(-c5c([H])c([H])c(Oc6c([H])c([H])c(F)c([H])c6F)c([H])c5[H])c(C(=O)N([H])[H])c4N([H])[H])C3([H])[H])C([H])([H])[H])[N+]([H])([H])[H])c([H])c([H])c2C1([H])[H]

$$$$
49:0:0
     RDKit          3D

 95102  0  0  1  0  0  0  0  0999 V2000
  -28.8860  -21.8450   22.6500 C   0  0  0  0  0  0  0  0  0  0  0  0
  -30.2140  -21.9530   22.7910 N   0  0  0  0  0  0  0  0  0  0  0  0
  -28.3090  -20.7590   22.7380 O   0  0  0  0  0  0  0  0  0  0  0  0
  -30.6220  -22.8690   22.6830 H   0  0  0  0  0  0  0  0  0  0  0  0
  -28.2000  -23.1030   22.4030 C   0  0  0  0  0  3  0  0  0  0  0  0
  -28.7640  -24.1770   21.8100 C   0  0  0  0  0  3  0  0  0  0  0  0
  -28.0180  -25.4770   21.5610 C   0  0  0  0  0  2  0  0  0  0  0  0
  -28.8710  -26.7520   21.7360 C   0  0  0  0  0  2  0  0  0  0  0  0
  -29.5690  -27.2570   20.4500 C   0  0  0  0  0  2  0  0  0  0  0  0
  -28.6890  -27.3470   19.3240 O   0  0  0  0  0  0  0  0  0  0  0  0
  -24.7140  -31.8850   23.1410 C   0  0  0  0  0  0  0  0  0  0  0  0
  -27.5110  -28.0420   19.4790 C   0  0  0  0  0  0  0  0  0  0  0  0
  -23.5290  -30.6030   21.3820 C   0  0  0  0  0  3  0  0  0  0  0  0
  -25.0160  -29.3360   19.7470 C   0  0  0  0  0  0  0  0  0  0  0  0
  -26.0130  -31.1490   21.1530 C   0  0  0  0  0  2  0  0  0  0  0  0
  -26.1540  -29.8690   20.3620 C   0  0  0  0  0  0  0  0  0  0  0  0
  -27.4030  -29.2290   20.2370 C   0  0  0  0  0  3  0  0  0  0  0  0
  -26.3630  -27.5270   18.8420 C   0  0  0  0  0  3  0  0  0  0  0  0
  -25.1110  -28.1570   18.9840 C   0  0  0  0  0  3  0  0  0  0  0  0
  -23.7250  -30.0990   19.9260 C   0  0  0  0  0  2  0  0  0  0  0  0
  -24.7710  -31.2200   21.9540 N   0  0  0  0  0  0  0  0  0  0  0  0
  -23.6390  -32.0300   23.7390 O   0  0  0  0  0  0  0  0  0  0  0  0
  -22.9710  -29.4450   22.2390 C   0  0  0  0  0  0  0  0  0  0  0  0
  -21.6570  -29.2020   22.1370 N   0  0  0  0  0  0  0  0  0  0  0  0
  -23.7200  -28.7730   22.9540 O   0  0  0  0  0  0  0  0  0  0  0  0
  -21.1060  -29.8070   21.5420 H   0  0  0  0  0  0  0  0  0  0  0  0
  -18.3770  -27.7670   22.6040 C   0  0  0  0  0  0  0  0  0  0  0  0
  -20.9270  -28.1350   22.8180 C   0  0  0  0  0  3  0  0  0  0  0  0
  -21.0800  -26.7890   22.0740 C   0  0  0  0  0  2  0  0  0  0  0  0
  -19.9570  -26.5230   21.0660 C   0  0  0  0  0  2  0  0  0  0  0  0
  -18.5960  -26.5160   21.7690 C   0  0  0  0  0  2  0  0  0  0  0  0
  -19.4700  -28.5350   23.0840 C   0  0  0  0  0  0  0  0  0  0  0  0
  -19.2100  -29.7090   23.8250 C   0  0  0  0  0  3  0  0  0  0  0  0
  -17.8890  -30.1120   24.0930 C   0  0  0  0  0  3  0  0  0  0  0  0
  -16.8110  -29.3410   23.6280 C   0  0  0  0  0  3  0  0  0  0  0  0
  -17.0560  -28.1690   22.8890 C   0  0  0  0  0  3  0  0  0  0  0  0
  -25.9850  -32.5200   23.7900 C   0  0  0  0  0  3  0  0  0  0  0  0
  -25.6330  -33.8810   24.2160 N   0  0  0  0  0  0  0  0  0  0  0  0
  -25.9270  -34.9920   23.5280 C   0  0  0  0  0  0  0  0  0  0  0  0
  -26.5930  -34.9790   22.4890 O   0  0  0  0  0  0  0  0  0  0  0  0
  -25.0450  -33.9640   25.0320 H   0  0  0  0  0  0  0  0  0  0  0  0
  -24.1370  -36.7420   23.2930 C   0  0  0  0  0  1  0  0  0  0  0  0
  -25.3940  -36.3290   24.0750 C   0  0  0  0  0  3  0  0  0  0  0  0
  -27.5000  -37.2280   24.9600 C   0  0  0  0  0  1  0  0  0  0  0  0
  -26.3900  -37.4230   24.0320 N   0  0  0  0  0  0  0  0  0  0  0  0
  -25.9540  -38.3170   24.2390 H   0  0  0  0  0  0  0  0  0  0  0  0
  -26.5480  -31.6820   25.0040 C   0  0  1  0  0  0  0  0  0  0  0  0
  -25.4810  -31.3320   26.0680 C   0  0  0  0  0  1  0  0  0  0  0  0
  -27.1700  -30.3560   24.5070 C   0  0  0  0  0  1  0  0  0  0  0  0
  -27.6820  -32.4690   25.7050 C   0  0  0  0  0  1  0  0  0  0  0  0
  -31.1330  -20.8260   22.9360 C   0  0  0  0  0  2  0  0  0  0  0  0
  -31.4460  -20.1940   21.5770 C   0  0  0  0  0  0  0  0  0  0  0  0
  -31.8180  -18.9110   21.5830 N   0  0  0  0  0  0  0  0  0  0  0  0
  -31.3700  -20.8560   20.5400 O   0  0  0  0  0  0  0  0  0  0  0  0
  -31.8710  -18.4390   22.4760 H   0  0  0  0  0  0  0  0  0  0  0  0
  -32.1430  -18.1290   20.4010 C   0  0  0  0  0  2  0  0  0  0  0  0
  -30.9370  -17.2790   19.9590 C   0  0  0  0  0  2  0  0  0  0  0  0
  -31.5960  -14.9220   20.3010 C   0  0  0  0  0  0  0  0  0  0  0  0
  -31.2490  -12.7420   19.2420 C   0  0  0  0  0  2  0  0  0  0  0  0
  -30.3400  -12.9840   18.0200 C   0  0  0  0  0  2  0  0  0  0  0  0
  -28.8490  -12.9640   18.4140 C   0  0  0  0  0  2  0  0  0  0  0  0
  -28.5370  -13.8000   19.6890 C   0  0  0  0  0  3  0  0  0  0  0  0
  -29.5670  -13.5170   20.8080 C   0  0  0  0  0  2  0  0  0  0  0  0
  -30.9130  -13.7510   20.2560 N   0  0  0  0  0  0  0  0  0  0  0  0
  -32.7290  -15.0630   19.8400 O   0  0  0  0  0  0  0  0  0  0  0  0
  -30.8400  -15.9770   20.6230 N   0  0  0  0  0  0  0  0  0  0  0  0
  -29.9470  -15.7630   21.0440 H   0  0  0  0  0  0  0  0  0  0  0  0
  -26.1710  -14.5130   20.4140 C   0  0  0  0  0  0  0  0  0  0  0  0
  -25.0620  -13.7840   20.7530 C   0  0  0  0  0  0  0  0  0  0  0  0
  -25.4490  -12.4130   20.6720 C   0  0  0  0  0  0  0  0  0  0  0  0
  -27.1680  -13.5840   20.1520 N   0  0  0  0  0  0  0  0  0  0  0  0
  -26.7360  -12.3150   20.3610 N   0  0  0  0  0  0  0  0  0  0  0  0
  -24.6570  -11.1850   20.8160 C   0  0  0  0  0  0  0  0  0  0  0  0
  -25.0040  -10.1910   21.7570 C   0  0  0  0  0  3  0  0  0  0  0  0
  -24.2160   -9.0270   21.8960 C   0  0  0  0  0  3  0  0  0  0  0  0
  -23.0720   -8.8470   21.0860 C   0  0  0  0  0  0  0  0  0  0  0  0
  -22.7430   -9.8290   20.1350 C   0  0  0  0  0  3  0  0  0  0  0  0
  -23.5300  -10.9840   19.9970 C   0  0  0  0  0  3  0  0  0  0  0  0
  -22.2670   -7.7340   21.1250 O   0  0  0  0  0  0  0  0  0  0  0  0
  -22.0680   -7.0300   22.2860 C   0  0  0  0  0  0  0  0  0  0  0  0
  -21.5330   -7.6370   23.4440 C   0  0  0  0  0  3  0  0  0  0  0  0
  -21.2790   -6.8610   24.5920 C   0  0  0  0  0  3  0  0  0  0  0  0
  -21.5500   -5.4800   24.5820 C   0  0  0  0  0  0  0  0  0  0  0  0
  -22.0790   -4.8730   23.4300 C   0  0  0  0  0  3  0  0  0  0  0  0
  -22.3340   -5.6450   22.2840 C   0  0  0  0  0  0  0  0  0  0  0  0
  -22.8200   -5.0520   21.1670 F   0  0  0  0  0  0  0  0  0  0  0  0
  -21.3010   -4.7330   25.6820 F   0  0  0  0  0  0  0  0  0  0  0  0
  -23.6910  -14.3240   21.0380 C   0  0  0  0  0  0  0  0  0  0  0  0
  -22.9280  -13.6470   21.8860 N   0  0  0  0  0  0  0  0  0  0  0  0
  -23.3040  -15.3830   20.5390 O   0  0  0  0  0  0  0  0  0  0  0  0
  -23.2530  -12.7950   22.3200 H   0  0  0  0  0  0  0  0  0  0  0  0
  -22.0020  -13.9890   22.1090 H   0  0  0  0  0  0  0  0  0  0  0  0
  -26.4120  -15.8790   20.2920 N   0  0  0  0  0  0  0  0  0  0  0  0
  -25.6810  -16.5690   20.4410 H   0  0  0  0  0  0  0  0  0  0  0  0
  -27.2790  -16.2900   19.9730 H   0  0  0  0  0  0  0  0  0  0  0  0
  1  3  2  0
  1  2  1  0
  2 51  1  0
  4  2  1  0
  5  1  1  0
  6  5  2  0
  7  8  1  0
  7  6  1  0
  9  8  1  0
 10 12  1  0
 10  9  1  0
 11 22  2  0
 12 17  1  0
 13 21  1  0
 13 23  1  0
 14 20  1  0
 14 16  1  0
 15 21  1  0
 16 15  1  0
 17 16  2  0
 18 19  1  0
 18 12  2  0
 19 14  2  0
 20 13  1  0
 21 11  1  0
 23 25  2  0
 24 23  1  0
 26 24  1  0
 27 36  2  0
 27 32  1  0
 28 24  1  0
 28 32  1  0
 29 28  1  0
 30 31  1  0
 30 29  1  0
 31 27  1  0
 32 33  2  0
 33 34  1  0
 35 34  2  0
 36 35  1  0
 37 11  1  0
 37 38  1  0
 37 47  1  0
 38 41  1  0
 39 43  1  0
 39 38  1  0
 40 39  2  0
 43 42  1  0
 45 43  1  0
 45 46  1  0
 45 44  1  0
 47 50  1  1
 47 48  1  0
 49 47  1  0
 52 53  1  0
 52 51  1  0
 53 55  1  0
 54 52  2  0
 56 53  1  0
 57 56  1  0
 57 66  1  0
 58 66  1  0
 59 64  1  0
 60 61  1  0
 60 59  1  0
 62 61  1  0
 62 71  1  0
 62 63  1  0
 64 58  1  0
 64 63  1  0
 65 58  2  0
 66 67  1  0
 68 69  2  0
 69 88  1  0
 70 69  1  0
 70 73  1  0
 71 72  1  0
 71 68  1  0
 72 70  2  0
 73 74  1  0
 74 75  2  0
 76 79  1  0
 76 75  1  0
 77 76  2  0
 78 77  1  0
 78 73  2  0
 79 80  1  0
 80 81  1  0
 81 82  2  0
 83 82  1  0
 83 87  1  0
 84 83  2  0
 85 80  2  0
 85 84  1  0
 86 85  1  0
 88 89  1  0
 89 92  1  0
 89 91  1  0
 90 88  2  0
 93 68  1  0
 93 94  1  0
 95 93  1  0
M  ISO  4   9 101  10 101  58 100  66 100
M  END
>  <TORSDO>  (50) 
F 24

>  <SCORE>  (50) 
-8.485

>  <name>  (50) 
49

>  <ligand_id>  (50) 
49

>  <original_smiles>  (50) 
[H]C(C(=O)N([H])C([H])([H])C(=O)N([H])C([H])([H])C([H])([H])N([H])C(=O)N1C([H])([H])C([H])([H])C([H])([H])C([H])(n2nc(-c3c([H])c([H])c(Oc4c([H])c([H])c(F)c([H])c4F)c([H])c3[H])c(C(=O)N([H])[H])c2N([H])[H])C1([H])[H])=C([H])C([H])([H])C([H])([H])C([H])([H])Oc1c([H])c([H])c2c(c1[H])C([H])([H])N(C(=O)C([H])(N([H])C(=O)C([H])(N([H])C([H])([H])[H])C([H])([H])[H])C(C([H])([H])[H])(C([H])([H])[H])C([H])([H])[H])C([H])(C(=O)N([H])C1([H])c3c([H])c([H])c([H])c([H])c3C([H])([H])C([H])([H])C1([H])[H])C2([H])[H]

>  <smiles>  (50) 
[H]C(C(=O)N([H])C([H])([H])C(=O)N([H])C([H])([H])C([H])([H])N([H])C(=O)N1C([H])([H])C([H])([H])C([H])([H])C([H])(n2nc(-c3c([H])c([H])c(Oc4c([H])c([H])c(F)c([H])c4F)c([H])c3[H])c(C(=O)N([H])[H])c2N([H])[H])C1([H])[H])=C([H])C([H])([H])C([H])([H])C([H])([H])Oc1c([H])c([H])c2c(c1[H])C([H])([H])N(C(=O)C([H])(N([H])C(=O)C([H])(N([H])C([H])([H])[H])C([H])([H])[H])C(C([H])([H])[H])(C([H])([H])[H])C([H])([H])[H])C([H])(C(=O)N([H])C1([H])c3c([H])c([H])c([H])c([H])c3C([H])([H])C([H])([H])C1([H])[H])C2([H])[H]

$$$$
50:0:0
     RDKit          3D

 91 98  0  0  1  0  0  0  0  0999 V2000
  -29.1170  -19.0370   20.4030 C   0  0  0  0  0  0  0  0  0  0  0  0
  -29.4080  -20.4330   20.3100 N   0  0  0  0  0  0  0  0  0  0  0  0
  -27.9470  -18.7070   20.6080 O   0  0  0  0  0  0  0  0  0  0  0  0
  -30.3900  -20.6380   20.1750 H   0  0  0  0  0  0  0  0  0  0  0  0
  -28.4730  -21.7170   20.2730 C   0  0  0  0  0  2  0  0  0  0  0  0
  -28.9590  -23.3420   20.3290 C   0  0  0  0  0  3  0  0  0  0  0  0
  -27.9490  -24.6850   20.0940 C   0  0  0  0  0  3  0  0  0  0  0  0
  -28.2360  -26.2140   20.2730 O   0  0  0  0  0  0  0  0  0  0  0  0
  -24.6230  -31.9290   23.2580 C   0  0  0  0  0  0  0  0  0  0  0  0
  -27.1850  -27.2060   20.2150 C   0  0  0  0  0  0  0  0  0  0  0  0
  -23.4170  -30.5350   21.6220 C   0  0  0  0  0  3  0  0  0  0  0  0
  -24.8580  -28.9590   20.1930 C   0  0  0  0  0  0  0  0  0  0  0  0
  -25.9720  -30.7940   21.4520 C   0  0  0  0  0  2  0  0  0  0  0  0
  -26.0420  -29.4010   20.7990 C   0  0  0  0  0  0  0  0  0  0  0  0
  -27.2060  -28.5420   20.7920 C   0  0  0  0  0  3  0  0  0  0  0  0
  -25.9730  -26.8680   19.5740 C   0  0  0  0  0  3  0  0  0  0  0  0
  -24.8380  -27.7060   19.5660 C   0  0  0  0  0  3  0  0  0  0  0  0
  -23.6320  -29.8590   20.2430 C   0  0  0  0  0  2  0  0  0  0  0  0
  -24.6900  -31.1080   22.1660 N   0  0  0  0  0  0  0  0  0  0  0  0
  -23.5380  -32.2150   23.7890 O   0  0  0  0  0  0  0  0  0  0  0  0
  -22.7400  -29.5290   22.5870 C   0  0  0  0  0  0  0  0  0  0  0  0
  -21.4120  -29.3540   22.4570 N   0  0  0  0  0  0  0  0  0  0  0  0
  -23.4100  -28.9080   23.4140 O   0  0  0  0  0  0  0  0  0  0  0  0
  -20.9250  -29.9070   21.7660 H   0  0  0  0  0  0  0  0  0  0  0  0
  -18.0340  -28.1470   22.9620 C   0  0  0  0  0  0  0  0  0  0  0  0
  -20.5920  -28.4170   23.2300 C   0  0  0  0  0  3  0  0  0  0  0  0
  -20.6960  -26.9830   22.6610 C   0  0  0  0  0  2  0  0  0  0  0  0
  -19.5970  -26.6550   21.6460 C   0  0  0  0  0  2  0  0  0  0  0  0
  -18.2140  -26.7970   22.2880 C   0  0  0  0  0  2  0  0  0  0  0  0
  -19.1490  -28.9140   23.3900 C   0  0  0  0  0  0  0  0  0  0  0  0
  -18.9260  -30.1770   23.9810 C   0  0  0  0  0  3  0  0  0  0  0  0
  -17.6200  -30.6730   24.1470 C   0  0  0  0  0  3  0  0  0  0  0  0
  -16.5180  -29.9040   23.7340 C   0  0  0  0  0  3  0  0  0  0  0  0
  -16.7250  -28.6430   23.1470 C   0  0  0  0  0  3  0  0  0  0  0  0
  -25.9040  -32.5630   23.8820 C   0  0  0  0  0  3  0  0  0  0  0  0
  -25.5940  -33.9630   24.2120 N   0  0  0  0  0  0  0  0  0  0  0  0
  -25.9120  -35.0180   23.4480 C   0  0  0  0  0  0  0  0  0  0  0  0
  -26.5630  -34.9140   22.4060 O   0  0  0  0  0  0  0  0  0  0  0  0
  -25.0130  -34.1170   25.0230 H   0  0  0  0  0  0  0  0  0  0  0  0
  -24.1730  -36.8110   23.1330 C   0  0  0  0  0  1  0  0  0  0  0  0
  -25.4340  -36.4080   23.9140 C   0  0  0  0  0  3  0  0  0  0  0  0
  -27.5820  -37.3060   24.6970 C   0  0  0  0  0  1  0  0  0  0  0  0
  -26.4610  -37.4630   23.7730 N   0  0  0  0  0  0  0  0  0  0  0  0
  -26.0550  -38.3830   23.9210 H   0  0  0  0  0  0  0  0  0  0  0  0
  -26.4130  -31.7960   25.1640 C   0  0  1  0  0  0  0  0  0  0  0  0
  -25.3160  -31.5660   26.2310 C   0  0  0  0  0  1  0  0  0  0  0  0
  -26.9960  -30.4160   24.7860 C   0  0  0  0  0  1  0  0  0  0  0  0
  -27.5620  -32.5930   25.8270 C   0  0  0  0  0  1  0  0  0  0  0  0
  -30.2010  -17.7800   20.2360 C   0  0  0  0  0  3  0  0  0  0  0  0
  -30.5550  -15.0300   20.3210 C   0  0  0  0  0  0  0  0  0  0  0  0
  -30.3730  -12.7090   19.3220 C   0  0  0  0  0  2  0  0  0  0  0  0
  -29.4220  -12.7040   18.1050 C   0  0  0  0  0  2  0  0  0  0  0  0
  -27.9650  -12.4910   18.5570 C   0  0  0  0  0  2  0  0  0  0  0  0
  -27.5840  -13.3860   19.7670 C   0  0  0  0  0  3  0  0  0  0  0  0
  -28.6610  -13.3770   20.8720 C   0  0  0  0  0  2  0  0  0  0  0  0
  -29.9200  -13.7920   20.2400 N   0  0  0  0  0  0  0  0  0  0  0  0
  -31.7680  -15.0380   20.1060 O   0  0  0  0  0  0  0  0  0  0  0  0
  -29.8230  -16.2440   20.4130 N   0  0  0  0  0  0  0  0  0  0  0  0
  -28.8290  -16.1100   20.5190 H   0  0  0  0  0  0  0  0  0  0  0  0
  -25.2130  -13.9400   20.5550 C   0  0  0  0  0  0  0  0  0  0  0  0
  -24.1580  -13.1540   20.9300 C   0  0  0  0  0  0  0  0  0  0  0  0
  -24.6310  -11.8050   20.8770 C   0  0  0  0  0  0  0  0  0  0  0  0
  -26.2570  -13.0710   20.2870 N   0  0  0  0  0  0  0  0  0  0  0  0
  -25.9180  -11.7810   20.5500 N   0  0  0  0  0  0  0  0  0  0  0  0
  -23.9130  -10.5370   21.0610 C   0  0  0  0  0  0  0  0  0  0  0  0
  -24.3540   -9.5640   21.9850 C   0  0  0  0  0  3  0  0  0  0  0  0
  -23.6330   -8.3630   22.1580 C   0  0  0  0  0  3  0  0  0  0  0  0
  -22.4590   -8.1250   21.4060 C   0  0  0  0  0  0  0  0  0  0  0  0
  -22.0370   -9.0870   20.4710 C   0  0  0  0  0  3  0  0  0  0  0  0
  -22.7590  -10.2790   20.2950 C   0  0  0  0  0  3  0  0  0  0  0  0
  -21.7090   -6.9760   21.4890 O   0  0  0  0  0  0  0  0  0  0  0  0
  -21.6520   -6.2350   22.6420 C   0  0  0  0  0  0  0  0  0  0  0  0
  -21.1840   -6.7800   23.8580 C   0  0  0  0  0  3  0  0  0  0  0  0
  -21.0780   -5.9630   25.0010 C   0  0  0  0  0  3  0  0  0  0  0  0
  -21.4310   -4.6030   24.9300 C   0  0  0  0  0  0  0  0  0  0  0  0
  -21.8920   -4.0570   23.7190 C   0  0  0  0  0  3  0  0  0  0  0  0
  -21.9990   -4.8710   22.5780 C   0  0  0  0  0  0  0  0  0  0  0  0
  -22.4240   -4.3350   21.4090 F   0  0  0  0  0  0  0  0  0  0  0  0
  -21.3210   -3.8140   26.0250 F   0  0  0  0  0  0  0  0  0  0  0  0
  -22.7610  -13.6200   21.2220 C   0  0  0  0  0  0  0  0  0  0  0  0
  -22.0480  -12.9160   22.0930 N   0  0  0  0  0  0  0  0  0  0  0  0
  -22.3120  -14.6450   20.7130 O   0  0  0  0  0  0  0  0  0  0  0  0
  -22.4250  -12.0870   22.5300 H   0  0  0  0  0  0  0  0  0  0  0  0
  -21.1120  -13.2120   22.3290 H   0  0  0  0  0  0  0  0  0  0  0  0
  -25.3650  -15.3140   20.3880 N   0  0  0  0  0  0  0  0  0  0  0  0
  -24.5980  -15.9620   20.5260 H   0  0  0  0  0  0  0  0  0  0  0  0
  -26.2040  -15.7650   20.0470 H   0  0  0  0  0  0  0  0  0  0  0  0
  -32.4890  -17.9260   18.9440 C   0  0  0  0  0  1  0  0  0  0  0  0
  -30.9530  -17.9620   18.8720 C   0  0  0  0  0  3  0  0  0  0  0  0
  -30.4850  -17.0610   17.8750 O   0  0  0  0  0  0  0  0  0  0  0  0
  -30.9550  -17.2480   17.0690 H   0  0  0  0  0  0  0  0  0  0  0  0
  1  3  2  0
  2  1  1  0
  4  2  1  0
  5  2  1  0
  5  6  1  0
  7  8  1  0
  7  6  2  0
  9 20  2  0
 10  8  1  0
 10 15  1  0
 11 19  1  0
 11 21  1  0
 12 18  1  0
 12 14  1  0
 13 19  1  0
 14 13  1  0
 15 14  2  0
 16 10  2  0
 17 16  1  0
 17 12  2  0
 18 11  1  0
 19  9  1  0
 21 23  2  0
 22 21  1  0
 24 22  1  0
 25 34  2  0
 25 30  1  0
 26 22  1  0
 26 30  1  0
 27 26  1  0
 28 29  1  0
 28 27  1  0
 29 25  1  0
 30 31  2  0
 31 32  1  0
 33 32  2  0
 34 33  1  0
 35  9  1  0
 35 36  1  0
 35 45  1  0
 36 39  1  0
 37 41  1  0
 37 36  1  0
 38 37  2  0
 41 40  1  0
 43 41  1  0
 43 44  1  0
 43 42  1  0
 45 48  1  1
 45 46  1  0
 47 45  1  0
 49  1  1  0
 49 58  1  0
 50 58  1  0
 51 56  1  0
 52 53  1  0
 52 51  1  0
 54 53  1  0
 54 63  1  0
 54 55  1  0
 56 50  1  0
 56 55  1  0
 57 50  2  0
 58 59  1  0
 60 61  2  0
 61 80  1  0
 62 61  1  0
 62 65  1  0
 63 64  1  0
 63 60  1  0
 64 62  2  0
 65 66  1  0
 66 67  2  0
 68 71  1  0
 68 67  1  0
 69 68  2  0
 70 69  1  0
 70 65  2  0
 71 72  1  0
 72 73  1  0
 73 74  2  0
 75 74  1  0
 75 79  1  0
 76 75  2  0
 77 72  2  0
 77 76  1  0
 78 77  1  0
 80 81  1  0
 81 84  1  0
 81 83  1  0
 82 80  2  0
 85 86  1  0
 85 60  1  0
 87 85  1  0
 89 88  1  0
 89 49  1  0
 90 89  1  0
 91 90  1  0
M  ISO  4   7 101   8 101  50 100  58 100
M  END
>  <TORSDO>  (51) 
F 22

>  <SCORE>  (51) 
-14.559

>  <name>  (51) 
50

>  <ligand_id>  (51) 
50

>  <original_smiles>  (51) 
[H]OC([H])(C([H])([H])[H])C([H])(C(=O)N([H])C([H])([H])C([H])([H])C([H])([H])Oc1c([H])c([H])c2c(c1[H])C([H])([H])N(C(=O)C([H])(N([H])C(=O)C([H])(N([H])C([H])([H])[H])C([H])([H])[H])C(C([H])([H])[H])(C([H])([H])[H])C([H])([H])[H])C([H])(C(=O)N([H])C1([H])c3c([H])c([H])c([H])c([H])c3C([H])([H])C([H])([H])C1([H])[H])C2([H])[H])N([H])C(=O)N1C([H])([H])C([H])([H])C([H])([H])C([H])(n2nc(-c3c([H])c([H])c(Oc4c([H])c([H])c(F)c([H])c4F)c([H])c3[H])c(C(=O)N([H])[H])c2N([H])[H])C1([H])[H]

>  <smiles>  (51) 
[H]OC([H])(C([H])([H])[H])C([H])(C(=O)N([H])C([H])([H])C([H])([H])C([H])([H])Oc1c([H])c([H])c2c(c1[H])C([H])([H])N(C(=O)C([H])(N([H])C(=O)C([H])(N([H])C([H])([H])[H])C([H])([H])[H])C(C([H])([H])[H])(C([H])([H])[H])C([H])([H])[H])C([H])(C(=O)N([H])C1([H])c3c([H])c([H])c([H])c([H])c3C([H])([H])C([H])([H])C1([H])[H])C2([H])[H])N([H])C(=O)N1C([H])([H])C([H])([H])C([H])([H])C([H])(n2nc(-c3c([H])c([H])c(Oc4c([H])c([H])c(F)c([H])c4F)c([H])c3[H])c(C(=O)N([H])[H])c2N([H])[H])C1([H])[H]

$$$$
51:0:0
     RDKit          3D

 98105  0  0  1  0  0  0  0  0999 V2000
  -29.0930  -19.5280   20.1430 C   0  0  0  0  0  3  0  0  0  0  0  0
  -30.7050  -15.3330   20.8380 C   0  0  0  0  0  0  0  0  0  0  0  0
  -30.8430  -12.7860   20.4050 C   0  0  0  0  0  2  0  0  0  0  0  0
  -30.1250  -12.3650   19.0960 C   0  0  0  0  0  2  0  0  0  0  0  0
  -28.6270  -12.1230   19.3510 C   0  0  0  0  0  2  0  0  0  0  0  0
  -28.0040  -13.2390   20.2270 C   0  0  0  0  0  3  0  0  0  0  0  0
  -28.8590  -13.5940   21.4620 C   0  0  0  0  0  2  0  0  0  0  0  0
  -30.1730  -14.0210   20.9560 N   0  0  0  0  0  0  0  0  0  0  0  0
  -31.9430  -15.3590   20.7190 O   0  0  0  0  0  0  0  0  0  0  0  0
  -30.0950  -18.1040   20.1880 C   0  0  0  0  0  0  0  0  0  0  0  0
  -29.8440  -16.7040   20.6500 N   0  0  0  0  0  0  0  0  0  0  0  0
  -31.3270  -18.3650   19.7190 N   0  0  0  0  0  4  0  0  0  0  0  0
  -28.8710  -16.6120   20.8760 H   0  0  0  0  0  0  0  0  0  0  0  0
  -31.5840  -19.2980   19.4300 H   0  0  0  0  0  0  0  0  0  0  0  0
  -32.0480  -17.6590   19.6950 H   0  0  0  0  0  0  0  0  0  0  0  0
  -25.5740  -13.8640   20.6530 C   0  0  0  0  0  0  0  0  0  0  0  0
  -24.4640  -13.1220   20.9290 C   0  0  0  0  0  0  0  0  0  0  0  0
  -24.9010  -11.7630   20.9990 C   0  0  0  0  0  0  0  0  0  0  0  0
  -26.6210  -12.9640   20.5730 N   0  0  0  0  0  0  0  0  0  0  0  0
  -26.2190  -11.6960   20.8510 N   0  0  0  0  0  0  0  0  0  0  0  0
  -24.1290  -10.5210   21.1350 C   0  0  0  0  0  0  0  0  0  0  0  0
  -24.5040   -9.5220   22.0600 C   0  0  0  0  0  3  0  0  0  0  0  0
  -23.7370   -8.3440   22.1890 C   0  0  0  0  0  3  0  0  0  0  0  0
  -22.5790   -8.1600   21.3950 C   0  0  0  0  0  0  0  0  0  0  0  0
  -22.2240   -9.1490   20.4600 C   0  0  0  0  0  3  0  0  0  0  0  0
  -22.9900  -10.3180   20.3290 C   0  0  0  0  0  3  0  0  0  0  0  0
  -21.7870   -7.0390   21.4340 O   0  0  0  0  0  0  0  0  0  0  0  0
  -21.7250   -6.2430   22.5490 C   0  0  0  0  0  0  0  0  0  0  0  0
  -21.3210   -6.7470   23.8050 C   0  0  0  0  0  3  0  0  0  0  0  0
  -21.2020   -5.8760   24.9070 C   0  0  0  0  0  3  0  0  0  0  0  0
  -21.4800   -4.5040   24.7550 C   0  0  0  0  0  0  0  0  0  0  0  0
  -21.8760   -4.0000   23.5040 C   0  0  0  0  0  3  0  0  0  0  0  0
  -21.9940   -4.8680   22.4030 C   0  0  0  0  0  0  0  0  0  0  0  0
  -22.3560   -4.3720   21.1940 F   0  0  0  0  0  0  0  0  0  0  0  0
  -21.3590   -3.6670   25.8110 F   0  0  0  0  0  0  0  0  0  0  0  0
  -23.0550  -13.6310   20.9960 C   0  0  0  0  0  0  0  0  0  0  0  0
  -22.2180  -13.0090   21.8180 N   0  0  0  0  0  0  0  0  0  0  0  0
  -22.7050  -14.6220   20.3540 O   0  0  0  0  0  0  0  0  0  0  0  0
  -22.5140  -12.2080   22.3570 H   0  0  0  0  0  0  0  0  0  0  0  0
  -21.2650  -13.3370   21.9080 H   0  0  0  0  0  0  0  0  0  0  0  0
  -25.7860  -15.2190   20.4130 N   0  0  0  0  0  0  0  0  0  0  0  0
  -24.9340  -15.7530   20.2680 H   0  0  0  0  0  0  0  0  0  0  0  0
  -26.4620  -15.4040   19.6860 H   0  0  0  0  0  0  0  0  0  0  0  0
  -28.0970  -19.3240   19.0540 N   0  0  0  0  0  4  0  0  0  0  0  0
  -28.0140  -18.3530   18.8230 H   0  0  0  0  0  0  0  0  0  0  0  0
  -28.4160  -19.8030   18.2190 H   0  0  0  0  0  0  0  0  0  0  0  0
  -26.7370  -19.8800   19.2370 C   0  0  0  0  0  3  0  0  0  0  0  0
  -26.6470  -21.1800   18.4180 C   0  0  0  0  0  0  0  0  0  0  0  0
  -25.8710  -22.1550   18.8760 N   0  0  0  0  0  0  0  0  0  0  0  0
  -27.3000  -21.3060   17.3810 O   0  0  0  0  0  0  0  0  0  0  0  0
  -25.3270  -22.0230   19.7170 H   0  0  0  0  0  0  0  0  0  0  0  0
  -25.7940  -23.0290   18.3760 H   0  0  0  0  0  0  0  0  0  0  0  0
  -24.2110  -19.2150   18.9740 C   0  0  0  0  0  1  0  0  0  0  0  0
  -25.6890  -18.8420   18.7630 C   0  0  0  0  0  2  0  0  0  0  0  0
  -29.5710  -21.2490   20.0260 C   0  0  0  0  0  2  0  0  0  0  0  0
  -28.8820  -22.7850   20.6350 C   0  0  0  0  0  2  0  0  0  0  0  0
  -28.5370  -24.3720   19.9050 C   0  0  0  0  0  2  0  0  0  0  0  0
  -28.4780  -25.9110   20.4520 O   0  0  0  0  0  0  0  0  0  0  0  0
  -24.5410  -31.7210   23.0840 C   0  0  0  0  0  0  0  0  0  0  0  0
  -27.4290  -26.9420   20.2720 C   0  0  0  0  0  0  0  0  0  0  0  0
  -23.4870  -30.2590   21.4050 C   0  0  0  0  0  3  0  0  0  0  0  0
  -25.0650  -28.7060   20.0770 C   0  0  0  0  0  0  0  0  0  0  0  0
  -26.0440  -30.5820   21.3840 C   0  0  0  0  0  2  0  0  0  0  0  0
  -26.2000  -29.1720   20.7520 C   0  0  0  0  0  0  0  0  0  0  0  0
  -27.3760  -28.3080   20.8260 C   0  0  0  0  0  3  0  0  0  0  0  0
  -26.2700  -26.6220   19.5290 C   0  0  0  0  0  3  0  0  0  0  0  0
  -25.1260  -27.4540   19.4460 C   0  0  0  0  0  3  0  0  0  0  0  0
  -23.8090  -29.5720   20.0510 C   0  0  0  0  0  2  0  0  0  0  0  0
  -24.7080  -30.8820   22.0120 N   0  0  0  0  0  0  0  0  0  0  0  0
  -23.4170  -31.9740   23.5430 O   0  0  0  0  0  0  0  0  0  0  0  0
  -22.7840  -29.2490   22.3480 C   0  0  0  0  0  0  0  0  0  0  0  0
  -21.4530  -29.1000   22.2170 N   0  0  0  0  0  0  0  0  0  0  0  0
  -23.4420  -28.6010   23.1660 O   0  0  0  0  0  0  0  0  0  0  0  0
  -20.9750  -29.6770   21.5390 H   0  0  0  0  0  0  0  0  0  0  0  0
  -18.0430  -27.9960   22.7730 C   0  0  0  0  0  0  0  0  0  0  0  0
  -20.6170  -28.1570   22.9680 C   0  0  0  0  0  3  0  0  0  0  0  0
  -20.6480  -26.7530   22.3230 C   0  0  0  0  0  2  0  0  0  0  0  0
  -19.5070  -26.5220   21.3260 C   0  0  0  0  0  2  0  0  0  0  0  0
  -18.1520  -26.6800   22.0210 C   0  0  0  0  0  2  0  0  0  0  0  0
  -19.2010  -28.6970   23.2030 C   0  0  0  0  0  0  0  0  0  0  0  0
  -19.0440  -29.9310   23.8720 C   0  0  0  0  0  3  0  0  0  0  0  0
  -17.7650  -30.4630   24.1110 C   0  0  0  0  0  3  0  0  0  0  0  0
  -16.6210  -29.7570   23.6950 C   0  0  0  0  0  3  0  0  0  0  0  0
  -16.7620  -28.5260   23.0330 C   0  0  0  0  0  3  0  0  0  0  0  0
  -25.7520  -32.4210   23.7710 C   0  0  0  0  0  3  0  0  0  0  0  0
  -25.3810  -33.8230   24.0290 N   0  0  0  0  0  0  0  0  0  0  0  0
  -25.7160  -34.8620   23.2530 C   0  0  0  0  0  0  0  0  0  0  0  0
  -26.4390  -34.7450   22.2600 O   0  0  0  0  0  0  0  0  0  0  0  0
  -24.7390  -33.9830   24.7910 H   0  0  0  0  0  0  0  0  0  0  0  0
  -23.9470  -36.5910   22.7730 C   0  0  0  0  0  1  0  0  0  0  0  0
  -25.1700  -36.2510   23.6380 C   0  0  0  0  0  3  0  0  0  0  0  0
  -27.2400  -37.2470   24.5140 C   0  0  0  0  0  1  0  0  0  0  0  0
  -26.1730  -37.3340   23.5210 N   0  0  0  0  0  0  0  0  0  0  0  0
  -25.7310  -38.2450   23.6090 H   0  0  0  0  0  0  0  0  0  0  0  0
  -26.1880  -31.7200   25.1180 C   0  0  1  0  0  0  0  0  0  0  0  0
  -25.0290  -31.5110   26.1200 C   0  0  0  0  0  1  0  0  0  0  0  0
  -26.8190  -30.3360   24.8410 C   0  0  0  0  0  1  0  0  0  0  0  0
  -27.2790  -32.5650   25.8200 C   0  0  0  0  0  1  0  0  0  0  0  0
  1 55  1  0
  1 10  1  0
  2  8  1  0
  3  8  1  0
  4  5  1  0
  4  3  1  0
  6  5  1  0
  6 19  1  0
  6  7  1  0
  8  7  1  0
  9  2  2  0
 10 11  1  0
 11  2  1  0
 11 13  1  0
 12 10  2  0
 14 12  1  0
 15 12  1  0
 16 17  2  0
 17 36  1  0
 17 18  1  0
 18 21  1  0
 19 16  1  0
 19 20  1  0
 20 18  2  0
 21 22  1  0
 22 23  2  0
 24 27  1  0
 24 23  1  0
 25 24  2  0
 26 25  1  0
 26 21  2  0
 27 28  1  0
 28 29  1  0
 29 30  2  0
 31 30  1  0
 31 35  1  0
 32 31  2  0
 33 28  2  0
 33 32  1  0
 34 33  1  0
 36 37  1  0
 37 40  1  0
 37 39  1  0
 38 36  2  0
 41 16  1  0
 42 41  1  0
 43 41  1  0
 44 47  1  0
 44  1  1  0
 45 44  1  0
 46 44  1  0
 47 54  1  0
 48 49  1  0
 48 47  1  0
 49 51  1  0
 50 48  2  0
 52 49  1  0
 54 53  1  0
 55 56  1  0
 57 58  1  0
 57 56  1  0
 59 70  2  0
 60 58  1  0
 60 65  1  0
 61 69  1  0
 61 71  1  0
 62 64  1  0
 63 69  1  0
 64 65  2  0
 64 63  1  0
 66 60  2  0
 67 66  1  0
 67 62  2  0
 68 62  1  0
 68 61  1  0
 69 59  1  0
 71 73  2  0
 72 71  1  0
 74 72  1  0
 75 84  2  0
 75 80  1  0
 76 72  1  0
 76 80  1  0
 77 76  1  0
 78 79  1  0
 78 77  1  0
 79 75  1  0
 80 81  2  0
 81 82  1  0
 83 82  2  0
 84 83  1  0
 85 59  1  0
 85 86  1  0
 85 95  1  0
 86 89  1  0
 87 91  1  0
 87 86  1  0
 88 87  2  0
 91 90  1  0
 93 94  1  0
 93 91  1  0
 93 92  1  0
 95 98  1  1
 95 96  1  0
 97 95  1  0
M  ISO  4   2 100  11 100  57 101  58 101
M  END
>  <TORSDO>  (52) 
F 23

>  <SCORE>  (52) 
-12.021

>  <name>  (52) 
51

>  <ligand_id>  (52) 
51

>  <original_smiles>  (52) 
[H]c1c([H])c([H])c2c(c1[H])C([H])([H])C([H])([H])C([H])([H])C2([H])N([H])C(=O)C1([H])N(C(=O)C([H])(N([H])C(=O)C([H])(N([H])C([H])([H])[H])C([H])([H])[H])C(C([H])([H])[H])(C([H])([H])[H])C([H])([H])[H])C([H])([H])c2c([H])c(OC([H])([H])C([H])([H])C([H])([H])C([H])(C(N([H])C(=O)N3C([H])([H])C([H])([H])C([H])([H])C([H])(n4nc(-c5c([H])c([H])c(Oc6c([H])c([H])c(F)c([H])c6F)c([H])c5[H])c(C(=O)N([H])[H])c4N([H])[H])C3([H])[H])=[N+]([H])[H])[N+]([H])([H])C([H])(C(=O)N([H])[H])C([H])([H])C([H])([H])[H])c([H])c([H])c2C1([H])[H]

>  <smiles>  (52) 
[H]c1c([H])c([H])c2c(c1[H])C([H])([H])C([H])([H])C([H])([H])C2([H])N([H])C(=O)C1([H])N(C(=O)C([H])(N([H])C(=O)C([H])(N([H])C([H])([H])[H])C([H])([H])[H])C(C([H])([H])[H])(C([H])([H])[H])C([H])([H])[H])C([H])([H])c2c([H])c(OC([H])([H])C([H])([H])C([H])([H])C([H])(C(N([H])C(=O)N3C([H])([H])C([H])([H])C([H])([H])C([H])(n4nc(-c5c([H])c([H])c(Oc6c([H])c([H])c(F)c([H])c6F)c([H])c5[H])c(C(=O)N([H])[H])c4N([H])[H])C3([H])[H])=[N+]([H])[H])[N+]([H])([H])C([H])(C(=O)N([H])[H])C([H])([H])C([H])([H])[H])c([H])c([H])c2C1([H])[H]

$$$$
52:0:0
     RDKit          3D

102109  0  0  1  0  0  0  0  0999 V2000
  -31.8970  -17.2900   19.9730 C   0  0  0  0  0  0  0  0  0  0  0  0
  -31.8260  -18.6410   20.0120 N   0  0  0  0  0  0  0  0  0  0  0  0
  -32.4370  -16.6330   20.8660 O   0  0  0  0  0  0  0  0  0  0  0  0
  -31.3590  -19.0900   19.2350 H   0  0  0  0  0  0  0  0  0  0  0  0
  -32.2120  -19.5250   21.1290 C   0  0  0  0  0  2  0  0  0  0  0  0
  -33.2070  -20.6810   20.8030 C   0  0  0  0  0  2  0  0  0  0  0  0
  -32.7050  -21.8460   19.9050 C   0  0  0  0  0  2  0  0  0  0  0  0
  -33.6080  -22.9660   19.9900 O   0  0  0  0  0  0  0  0  0  0  0  0
  -33.4590  -23.9770   18.9790 C   0  0  0  0  0  2  0  0  0  0  0  0
  -33.6690  -25.4240   19.5050 C   0  0  0  0  0  2  0  0  0  0  0  0
  -35.0380  -25.7550   19.7620 O   0  0  0  0  0  0  0  0  0  0  0  0
  -35.4980  -32.4650   17.2620 C   0  0  0  0  0  0  0  0  0  0  0  0
  -35.6300  -26.6840   18.9340 C   0  0  0  0  0  0  0  0  0  0  0  0
  -36.8530  -30.7570   16.0920 C   0  0  0  0  0  3  0  0  0  0  0  0
  -37.0110  -28.4860   17.2480 C   0  0  0  0  0  0  0  0  0  0  0  0
  -36.2430  -30.4700   18.5590 C   0  0  0  0  0  2  0  0  0  0  0  0
  -36.2670  -28.9730   18.3310 C   0  0  0  0  0  0  0  0  0  0  0  0
  -35.5720  -28.0760   19.1780 C   0  0  0  0  0  3  0  0  0  0  0  0
  -36.3900  -26.2100   17.8480 C   0  0  0  0  0  3  0  0  0  0  0  0
  -37.0730  -27.1030   16.9980 C   0  0  0  0  0  3  0  0  0  0  0  0
  -37.7260  -29.5080   16.3910 C   0  0  0  0  0  2  0  0  0  0  0  0
  -36.1480  -31.2670   17.3130 N   0  0  0  0  0  0  0  0  0  0  0  0
  -35.5140  -33.1600   16.2360 O   0  0  0  0  0  0  0  0  0  0  0  0
  -35.8940  -30.4200   14.9270 C   0  0  0  0  0  0  0  0  0  0  0  0
  -36.4070  -30.4980   13.6880 N   0  0  0  0  0  0  0  0  0  0  0  0
  -34.7300  -30.0740   15.1470 O   0  0  0  0  0  0  0  0  0  0  0  0
  -37.3660  -30.7980   13.5900 H   0  0  0  0  0  0  0  0  0  0  0  0
  -36.7290  -30.4500   10.0890 C   0  0  0  0  0  0  0  0  0  0  0  0
  -35.7000  -30.1870   12.4450 C   0  0  0  0  0  3  0  0  0  0  0  0
  -35.7050  -28.6670   12.1650 C   0  0  0  0  0  2  0  0  0  0  0  0
  -36.8700  -28.2210   11.2770 C   0  0  0  0  0  2  0  0  0  0  0  0
  -36.8230  -28.9420    9.9280 C   0  0  0  0  0  2  0  0  0  0  0  0
  -36.2160  -31.0350   11.2780 C   0  0  0  0  0  0  0  0  0  0  0  0
  -36.1830  -32.4420   11.3890 C   0  0  0  0  0  3  0  0  0  0  0  0
  -36.6490  -33.2590   10.3430 C   0  0  0  0  0  3  0  0  0  0  0  0
  -37.1420  -32.6760    9.1630 C   0  0  0  0  0  3  0  0  0  0  0  0
  -37.1770  -31.2750    9.0360 C   0  0  0  0  0  3  0  0  0  0  0  0
  -34.7270  -33.0290   18.4960 C   0  0  0  0  0  3  0  0  0  0  0  0
  -35.1040  -34.4410   18.6450 N   0  0  0  0  0  0  0  0  0  0  0  0
  -35.9940  -34.9000   19.5340 C   0  0  0  0  0  0  0  0  0  0  0  0
  -36.5370  -34.1760   20.3740 O   0  0  0  0  0  0  0  0  0  0  0  0
  -34.7400  -35.0820   17.9550 H   0  0  0  0  0  0  0  0  0  0  0  0
  -37.7180  -36.5930   18.8400 C   0  0  0  0  0  1  0  0  0  0  0  0
  -36.3370  -36.4010   19.4860 C   0  0  0  0  0  3  0  0  0  0  0  0
  -34.9660  -37.2150   21.3530 C   0  0  0  0  0  1  0  0  0  0  0  0
  -36.3140  -37.0540   20.8130 N   0  0  0  0  0  0  0  0  0  0  0  0
  -36.7520  -37.9700   20.7720 H   0  0  0  0  0  0  0  0  0  0  0  0
  -33.1610  -32.8790   18.3730 C   0  0  1  0  0  0  0  0  0  0  0  0
  -32.5530  -33.6640   17.1870 C   0  0  0  0  0  1  0  0  0  0  0  0
  -32.7670  -31.3920   18.2070 C   0  0  0  0  0  1  0  0  0  0  0  0
  -32.4820  -33.3750   19.6710 C   0  0  0  0  0  1  0  0  0  0  0  0
  -31.2890  -16.5730   18.7280 C   0  0  0  0  0  3  0  0  0  0  0  0
  -28.7370  -16.8670   18.8220 C   0  0  0  0  0  0  0  0  0  0  0  0
  -26.3180  -16.7010   19.3420 C   0  0  0  0  0  2  0  0  0  0  0  0
  -26.1350  -16.3440   20.8330 C   0  0  0  0  0  2  0  0  0  0  0  0
  -26.2080  -14.8180   21.0520 C   0  0  0  0  0  2  0  0  0  0  0  0
  -27.4340  -14.1720   20.3530 C   0  0  0  0  0  3  0  0  0  0  0  0
  -27.5350  -14.6490   18.8880 C   0  0  0  0  0  2  0  0  0  0  0  0
  -27.5980  -16.1240   18.9020 N   0  0  0  0  0  0  0  0  0  0  0  0
  -28.7320  -18.1020   18.8000 O   0  0  0  0  0  0  0  0  0  0  0  0
  -29.8780  -16.1480   18.8530 N   0  0  0  0  0  0  0  0  0  0  0  0
  -29.7430  -15.1530   18.9290 H   0  0  0  0  0  0  0  0  0  0  0  0
  -28.4100  -11.7980   20.1720 C   0  0  0  0  0  0  0  0  0  0  0  0
  -27.8960  -10.5690   20.4800 C   0  0  0  0  0  0  0  0  0  0  0  0
  -26.5690  -10.8060   20.9500 C   0  0  0  0  0  0  0  0  0  0  0  0
  -27.4060  -12.7140   20.4460 N   0  0  0  0  0  0  0  0  0  0  0  0
  -26.2750  -12.0980   20.8680 N   0  0  0  0  0  0  0  0  0  0  0  0
  -25.5830   -9.8850   21.5300 C   0  0  0  0  0  0  0  0  0  0  0  0
  -24.3390   -9.6460   20.9020 C   0  0  0  0  0  3  0  0  0  0  0  0
  -23.4130   -8.7420   21.4690 C   0  0  0  0  0  3  0  0  0  0  0  0
  -23.7280   -8.0650   22.6710 C   0  0  0  0  0  0  0  0  0  0  0  0
  -24.9580   -8.3250   23.3030 C   0  0  0  0  0  3  0  0  0  0  0  0
  -25.8760   -9.2280   22.7410 C   0  0  0  0  0  3  0  0  0  0  0  0
  -22.8810   -7.1920   23.3080 O   0  0  0  0  0  0  0  0  0  0  0  0
  -22.4660   -6.0290   22.7100 C   0  0  0  0  0  0  0  0  0  0  0  0
  -23.3280   -5.2580   21.9000 C   0  0  0  0  0  3  0  0  0  0  0  0
  -22.8820   -4.0330   21.3640 C   0  0  0  0  0  3  0  0  0  0  0  0
  -21.5800   -3.5750   21.6410 C   0  0  0  0  0  0  0  0  0  0  0  0
  -20.7220   -4.3400   22.4520 C   0  0  0  0  0  3  0  0  0  0  0  0
  -21.1650   -5.5620   22.9860 C   0  0  0  0  0  0  0  0  0  0  0  0
  -20.3410   -6.2840   23.7830 F   0  0  0  0  0  0  0  0  0  0  0  0
  -21.1530   -2.3950   21.1320 F   0  0  0  0  0  0  0  0  0  0  0  0
  -28.6290   -9.2590   20.4420 C   0  0  0  0  0  0  0  0  0  0  0  0
  -27.9510   -8.1870   20.0450 N   0  0  0  0  0  0  0  0  0  0  0  0
  -29.8260   -9.1870   20.7190 O   0  0  0  0  0  0  0  0  0  0  0  0
  -26.9780   -8.2490   19.7890 H   0  0  0  0  0  0  0  0  0  0  0  0
  -28.4160   -7.2920   19.9940 H   0  0  0  0  0  0  0  0  0  0  0  0
  -29.6540  -12.2140   19.7080 N   0  0  0  0  0  0  0  0  0  0  0  0
  -30.4190  -11.5630   19.8410 H   0  0  0  0  0  0  0  0  0  0  0  0
  -29.9350  -13.1740   19.8570 H   0  0  0  0  0  0  0  0  0  0  0  0
  -32.1000  -15.2950   18.3530 C   0  0  0  0  0  2  0  0  0  0  0  0
  -33.0380  -13.2530   19.4080 C   0  0  0  0  0  0  0  0  0  0  0  0
  -32.2100  -14.3030   19.4290 N   0  0  0  0  0  0  0  0  0  0  0  0
  -33.6740  -12.9490   18.3960 O   0  0  0  0  0  0  0  0  0  0  0  0
  -31.7000  -14.4710   20.2870 H   0  0  0  0  0  0  0  0  0  0  0  0
  -34.6370  -12.5030   21.2090 C   0  0  0  0  0  1  0  0  0  0  0  0
  -32.2150  -12.7680   21.8150 C   0  0  0  0  0  1  0  0  0  0  0  0
  -33.1900  -12.3840   20.6770 C   0  0  1  0  0  0  0  0  0  0  0  0
  -32.9350  -11.0110   20.2130 N   0  0  0  0  0  4  0  0  0  0  0  0
  -33.4650  -10.8810   19.3680 H   0  0  0  0  0  0  0  0  0  0  0  0
  -31.9660  -10.8960   19.9790 H   0  0  0  0  0  0  0  0  0  0  0  0
  -33.2020  -10.3210   20.8910 H   0  0  0  0  0  0  0  0  0  0  0  0
  1  2  1  0
  1  3  2  0
  2  5  1  0
  4  2  1  0
  6  5  1  0
  7  8  1  0
  7  6  1  0
  9 10  1  0
  9  8  1  0
 10 11  1  0
 12 22  1  0
 13 18  1  0
 13 11  1  0
 14 24  1  0
 14 21  1  0
 14 22  1  0
 15 17  1  0
 17 16  1  0
 17 18  2  0
 19 13  2  0
 20 15  2  0
 20 19  1  0
 21 15  1  0
 22 16  1  0
 23 12  2  0
 24 26  2  0
 25 24  1  0
 27 25  1  0
 28 33  1  0
 29 25  1  0
 30 29  1  0
 31 30  1  0
 32 28  1  0
 32 31  1  0
 33 34  2  0
 33 29  1  0
 35 34  1  0
 36 35  2  0
 37 36  1  0
 37 28  2  0
 38 12  1  0
 38 39  1  0
 39 40  1  0
 40 41  2  0
 42 39  1  0
 44 43  1  0
 44 40  1  0
 44 46  1  0
 46 45  1  0
 47 46  1  0
 48 38  1  0
 48 51  1  1
 49 48  1  0
 50 48  1  0
 52 91  1  0
 52 61  1  0
 52  1  1  0
 53 61  1  0
 53 59  1  0
 54 55  1  0
 55 56  1  0
 57 58  1  0
 57 66  1  0
 57 56  1  0
 58 59  1  0
 59 54  1  0
 60 53  2  0
 61 62  1  0
 63 66  1  0
 63 64  2  0
 64 65  1  0
 65 68  1  0
 66 67  1  0
 67 65  2  0
 68 73  1  0
 69 70  1  0
 69 68  2  0
 70 71  2  0
 71 72  1  0
 71 74  1  0
 73 72  2  0
 75 80  1  0
 75 74  1  0
 76 75  2  0
 77 78  2  0
 77 76  1  0
 78 79  1  0
 79 80  2  0
 80 81  1  0
 82 78  1  0
 83 64  1  0
 83 85  2  0
 84 83  1  0
 86 84  1  0
 87 84  1  0
 88 89  1  0
 88 90  1  0
 88 63  1  0
 91 93  1  0
 92 93  1  0
 92 98  1  0
 93 95  1  0
 94 92  2  0
 98 96  1  1
 98 97  1  0
 99 98  1  0
 99102  1  0
100 99  1  0
101 99  1  0
M  ISO  4  10 101  11 101  53 100  61 100
M  END
>  <TORSDO>  (53) 
F 27

>  <SCORE>  (53) 
-4.901

>  <name>  (53) 
52

>  <ligand_id>  (53) 
52

>  <original_smiles>  (53) 
[H]c1c([H])c([H])c2c(c1[H])C([H])([H])C([H])([H])C([H])([H])C2([H])N([H])C(=O)C1([H])N(C(=O)C([H])(N([H])C(=O)C([H])(N([H])C([H])([H])[H])C([H])([H])[H])C(C([H])([H])[H])(C([H])([H])[H])C([H])([H])[H])C([H])([H])c2c([H])c(OC([H])([H])C([H])([H])OC([H])([H])C([H])([H])C([H])([H])N([H])C(=O)C([H])(N([H])C(=O)N3C([H])([H])C([H])([H])C([H])([H])C([H])(n4nc(-c5c([H])c([H])c(Oc6c([H])c([H])c(F)c([H])c6F)c([H])c5[H])c(C(=O)N([H])[H])c4N([H])[H])C3([H])[H])C([H])([H])N([H])C(=O)C(C([H])([H])[H])(C([H])([H])[H])[N+]([H])([H])[H])c([H])c([H])c2C1([H])[H]

>  <smiles>  (53) 
[H]c1c([H])c([H])c2c(c1[H])C([H])([H])C([H])([H])C([H])([H])C2([H])N([H])C(=O)C1([H])N(C(=O)C([H])(N([H])C(=O)C([H])(N([H])C([H])([H])[H])C([H])([H])[H])C(C([H])([H])[H])(C([H])([H])[H])C([H])([H])[H])C([H])([H])c2c([H])c(OC([H])([H])C([H])([H])OC([H])([H])C([H])([H])C([H])([H])N([H])C(=O)C([H])(N([H])C(=O)N3C([H])([H])C([H])([H])C([H])([H])C([H])(n4nc(-c5c([H])c([H])c(Oc6c([H])c([H])c(F)c([H])c6F)c([H])c5[H])c(C(=O)N([H])[H])c4N([H])[H])C3([H])[H])C([H])([H])N([H])C(=O)C(C([H])([H])[H])(C([H])([H])[H])[N+]([H])([H])[H])c([H])c([H])c2C1([H])[H]

$$$$
53:0:0
     RDKit          3D

 96104  0  0  1  0  0  0  0  0999 V2000
  -28.5520  -19.5110   19.4910 C   0  0  0  0  0  0  0  0  0  0  0  0
  -28.5130  -20.7390   18.9640 N   0  0  0  0  0  0  0  0  0  0  0  0
  -27.5280  -18.8480   19.6660 O   0  0  0  0  0  0  0  0  0  0  0  0
  -29.3850  -21.2430   18.8810 H   0  0  0  0  0  0  0  0  0  0  0  0
  -30.9920  -20.0660   20.1310 C   0  0  0  0  0  2  0  0  0  0  0  0
  -30.7870  -20.7580   21.4830 C   0  0  0  0  0  2  0  0  0  0  0  0
  -29.8050  -18.3480   22.3800 C   0  0  0  0  0  2  0  0  0  0  0  0
  -29.9300  -17.8200   20.9270 C   0  0  0  0  0  3  0  0  0  0  0  0
  -29.9480  -18.9480   19.8370 C   0  0  0  0  0  3  0  0  0  0  0  0
  -31.0670  -19.5810   22.8310 S   0  0  0  0  0  0  0  0  0  0  0  0
  -31.3170  -14.5400   19.8240 C   0  0  0  0  0  0  0  0  0  0  0  0
  -30.7870  -12.5370   18.4910 C   0  0  0  0  0  2  0  0  0  0  0  0
  -29.7600  -12.9300   17.4100 C   0  0  0  0  0  2  0  0  0  0  0  0
  -28.3210  -12.8380   17.9580 C   0  0  0  0  0  2  0  0  0  0  0  0
  -28.1560  -13.5640   19.3190 C   0  0  0  0  0  3  0  0  0  0  0  0
  -29.2780  -13.1440   20.2970 C   0  0  0  0  0  2  0  0  0  0  0  0
  -30.5690  -13.4210   19.6430 N   0  0  0  0  0  0  0  0  0  0  0  0
  -32.4200  -14.6920   19.2900 O   0  0  0  0  0  0  0  0  0  0  0  0
  -31.0510  -16.7750   20.7270 C   0  0  0  0  0  0  0  0  0  0  0  0
  -30.6500  -15.5180   20.4650 N   0  0  0  0  0  0  0  0  0  0  0  0
  -32.2350  -17.1280   20.7520 O   0  0  0  0  0  0  0  0  0  0  0  0
  -29.6910  -15.3000   20.6710 H   0  0  0  0  0  0  0  0  0  0  0  0
  -25.8460  -14.2640   20.2180 C   0  0  0  0  0  0  0  0  0  0  0  0
  -24.7790  -13.5300   20.6570 C   0  0  0  0  0  0  0  0  0  0  0  0
  -25.1750  -12.1620   20.5650 C   0  0  0  0  0  0  0  0  0  0  0  0
  -26.8310  -13.3430   19.8920 N   0  0  0  0  0  0  0  0  0  0  0  0
  -26.4340  -12.0730   20.1570 N   0  0  0  0  0  0  0  0  0  0  0  0
  -24.4130  -10.9280   20.7850 C   0  0  0  0  0  0  0  0  0  0  0  0
  -24.8100   -9.9780   21.7530 C   0  0  0  0  0  3  0  0  0  0  0  0
  -24.0530   -8.8050   21.9580 C   0  0  0  0  0  3  0  0  0  0  0  0
  -22.8840   -8.5730   21.1950 C   0  0  0  0  0  0  0  0  0  0  0  0
  -22.5060   -9.5090   20.2160 C   0  0  0  0  0  3  0  0  0  0  0  0
  -23.2640  -10.6740   20.0100 C   0  0  0  0  0  3  0  0  0  0  0  0
  -22.0980   -7.4520   21.3090 O   0  0  0  0  0  0  0  0  0  0  0  0
  -21.9480   -6.7960   22.5040 C   0  0  0  0  0  0  0  0  0  0  0  0
  -21.4630   -7.4510   23.6580 C   0  0  0  0  0  3  0  0  0  0  0  0
  -21.2580   -6.7230   24.8470 C   0  0  0  0  0  3  0  0  0  0  0  0
  -21.5290   -5.3420   24.8820 C   0  0  0  0  0  0  0  0  0  0  0  0
  -22.0040   -4.6860   23.7340 C   0  0  0  0  0  3  0  0  0  0  0  0
  -22.2110   -5.4120   22.5470 C   0  0  0  0  0  0  0  0  0  0  0  0
  -22.6510   -4.7720   21.4370 F   0  0  0  0  0  0  0  0  0  0  0  0
  -21.3240   -4.6410   26.0210 F   0  0  0  0  0  0  0  0  0  0  0  0
  -23.4280  -14.0610   21.0460 C   0  0  0  0  0  0  0  0  0  0  0  0
  -22.7750  -13.4200   22.0100 N   0  0  0  0  0  0  0  0  0  0  0  0
  -22.9670  -15.0760   20.5290 O   0  0  0  0  0  0  0  0  0  0  0  0
  -23.1610  -12.5970   22.4500 H   0  0  0  0  0  0  0  0  0  0  0  0
  -21.8750  -13.7590   22.3150 H   0  0  0  0  0  0  0  0  0  0  0  0
  -26.0550  -15.6290   20.0470 N   0  0  0  0  0  0  0  0  0  0  0  0
  -25.3030  -16.2950   20.1840 H   0  0  0  0  0  0  0  0  0  0  0  0
  -26.8400  -16.0250   19.5460 H   0  0  0  0  0  0  0  0  0  0  0  0
  -27.3200  -21.4780   18.5750 C   0  0  0  0  0  2  0  0  0  0  0  0
  -27.7180  -22.8770   18.0710 C   0  0  0  0  0  2  0  0  0  0  0  0
  -28.5130  -23.5210   19.0680 O   0  0  0  0  0  0  0  0  0  0  0  0
  -29.3410  -24.5790   18.5810 C   0  0  0  0  0  2  0  0  0  0  0  0
  -28.5940  -25.9050   18.3510 C   0  0  0  0  0  2  0  0  0  0  0  0
  -28.3500  -26.5820   19.5940 O   0  0  0  0  0  0  0  0  0  0  0  0
  -24.6620  -31.5870   23.0970 C   0  0  0  0  0  0  0  0  0  0  0  0
  -27.1740  -27.2890   19.7040 C   0  0  0  0  0  0  0  0  0  0  0  0
  -23.3990  -30.2780   21.4220 C   0  0  0  0  0  3  0  0  0  0  0  0
  -24.7940  -28.7960   19.8920 C   0  0  0  0  0  0  0  0  0  0  0  0
  -25.9240  -30.6160   21.1790 C   0  0  0  0  0  2  0  0  0  0  0  0
  -25.9740  -29.2790   20.4710 C   0  0  0  0  0  0  0  0  0  0  0  0
  -27.1690  -28.5260   20.3850 C   0  0  0  0  0  3  0  0  0  0  0  0
  -25.9630  -26.7940   19.1710 C   0  0  0  0  0  3  0  0  0  0  0  0
  -24.7790  -27.5470   19.2510 C   0  0  0  0  0  3  0  0  0  0  0  0
  -23.5650  -29.6680   20.0070 C   0  0  0  0  0  2  0  0  0  0  0  0
  -24.6820  -30.8400   21.9580 N   0  0  0  0  0  0  0  0  0  0  0  0
  -23.5980  -31.8410   23.6780 O   0  0  0  0  0  0  0  0  0  0  0  0
  -22.7620  -29.2160   22.3470 C   0  0  0  0  0  0  0  0  0  0  0  0
  -21.4380  -29.0350   22.2230 N   0  0  0  0  0  0  0  0  0  0  0  0
  -23.4570  -28.5610   23.1280 O   0  0  0  0  0  0  0  0  0  0  0  0
  -20.9390  -29.6160   21.5640 H   0  0  0  0  0  0  0  0  0  0  0  0
  -18.0790  -27.7870   22.6810 C   0  0  0  0  0  0  0  0  0  0  0  0
  -20.6330  -28.0680   22.9650 C   0  0  0  0  0  3  0  0  0  0  0  0
  -20.7540  -26.6540   22.3500 C   0  0  0  0  0  2  0  0  0  0  0  0
  -19.6590  -26.3460   21.3260 C   0  0  0  0  0  2  0  0  0  0  0  0
  -18.2730  -26.4590   21.9680 C   0  0  0  0  0  2  0  0  0  0  0  0
  -19.1880  -28.5490   23.1350 C   0  0  0  0  0  0  0  0  0  0  0  0
  -18.9530  -29.7930   23.7590 C   0  0  0  0  0  3  0  0  0  0  0  0
  -17.6430  -30.2750   23.9340 C   0  0  0  0  0  3  0  0  0  0  0  0
  -16.5490  -29.5090   23.4960 C   0  0  0  0  0  3  0  0  0  0  0  0
  -16.7670  -28.2670   22.8750 C   0  0  0  0  0  3  0  0  0  0  0  0
  -25.9690  -32.1770   23.7120 C   0  0  0  0  0  3  0  0  0  0  0  0
  -25.6910  -33.5680   24.0920 N   0  0  0  0  0  0  0  0  0  0  0  0
  -26.0330  -34.6390   23.3640 C   0  0  0  0  0  0  0  0  0  0  0  0
  -26.6870  -34.5600   22.3210 O   0  0  0  0  0  0  0  0  0  0  0  0
  -25.1190  -33.7080   24.9120 H   0  0  0  0  0  0  0  0  0  0  0  0
  -24.3380  -36.4750   23.0840 C   0  0  0  0  0  1  0  0  0  0  0  0
  -25.5740  -36.0180   23.8760 C   0  0  0  0  0  3  0  0  0  0  0  0
  -27.7270  -36.8310   24.7340 C   0  0  0  0  0  1  0  0  0  0  0  0
  -26.6270  -37.0540   23.7980 N   0  0  0  0  0  0  0  0  0  0  0  0
  -26.2390  -37.9750   23.9820 H   0  0  0  0  0  0  0  0  0  0  0  0
  -26.5020  -31.3560   24.9490 C   0  0  1  0  0  0  0  0  0  0  0  0
  -25.4290  -31.0960   26.0330 C   0  0  0  0  0  1  0  0  0  0  0  0
  -27.0570  -29.9870   24.4970 C   0  0  0  0  0  1  0  0  0  0  0  0
  -27.6740  -32.1150   25.6140 C   0  0  0  0  0  1  0  0  0  0  0  0
  1  3  2  0
  2  1  1  0
  4  2  1  0
  5  6  1  0
  6 10  1  0
  7 10  1  0
  8 19  1  0
  8  7  1  0
  9  1  1  0
  9  5  1  0
  9  8  1  0
 11 20  1  0
 12 17  1  0
 13 14  1  0
 13 12  1  0
 15 14  1  0
 15 26  1  0
 15 16  1  0
 17 11  1  0
 17 16  1  0
 18 11  2  0
 19 21  2  0
 20 22  1  0
 20 19  1  0
 23 24  2  0
 24 43  1  0
 25 24  1  0
 25 28  1  0
 26 27  1  0
 26 23  1  0
 27 25  2  0
 28 29  1  0
 29 30  2  0
 31 34  1  0
 31 30  1  0
 32 31  2  0
 33 32  1  0
 33 28  2  0
 34 35  1  0
 35 40  2  0
 35 36  1  0
 36 37  2  0
 37 38  1  0
 38 42  1  0
 39 38  2  0
 40 39  1  0
 41 40  1  0
 43 44  1  0
 44 47  1  0
 44 46  1  0
 45 43  2  0
 48 49  1  0
 48 23  1  0
 50 48  1  0
 51  2  1  0
 52 51  1  0
 52 53  1  0
 54 53  1  0
 55 54  1  0
 55 56  1  0
 56 58  1  0
 57 68  2  0
 58 63  1  0
 59 67  1  0
 59 69  1  0
 60 66  1  0
 60 62  1  0
 61 67  1  0
 62 61  1  0
 63 62  2  0
 64 65  1  0
 64 58  2  0
 65 60  2  0
 66 59  1  0
 67 57  1  0
 69 71  2  0
 70 69  1  0
 72 70  1  0
 73 82  2  0
 73 78  1  0
 74 70  1  0
 74 78  1  0
 75 74  1  0
 76 77  1  0
 76 75  1  0
 77 73  1  0
 78 79  2  0
 79 80  1  0
 81 80  2  0
 82 81  1  0
 83 57  1  0
 83 84  1  0
 83 93  1  0
 84 87  1  0
 85 89  1  0
 85 84  1  0
 86 85  2  0
 89 88  1  0
 91 89  1  0
 91 92  1  0
 91 90  1  0
 93 96  1  1
 93 94  1  0
 95 93  1  0
M  ISO  4  11 100  20 100  55 101  56 101
M  END
>  <TORSDO>  (54) 
F 22

>  <SCORE>  (54) 
-10.875

>  <name>  (54) 
53

>  <ligand_id>  (54) 
53

>  <original_smiles>  (54) 
[H]c1c([H])c([H])c2c(c1[H])C([H])([H])C([H])([H])C([H])([H])C2([H])N([H])C(=O)C1([H])N(C(=O)C([H])(N([H])C(=O)C([H])(N([H])C([H])([H])[H])C([H])([H])[H])C(C([H])([H])[H])(C([H])([H])[H])C([H])([H])[H])C([H])([H])c2c([H])c(OC([H])([H])C([H])([H])OC([H])([H])C([H])([H])N([H])C(=O)C3([H])C([H])([H])C([H])([H])SC([H])([H])C3([H])C(=O)N([H])C(=O)N3C([H])([H])C([H])([H])C([H])([H])C([H])(n4nc(-c5c([H])c([H])c(Oc6c([H])c([H])c(F)c([H])c6F)c([H])c5[H])c(C(=O)N([H])[H])c4N([H])[H])C3([H])[H])c([H])c([H])c2C1([H])[H]

>  <smiles>  (54) 
[H]c1c([H])c([H])c2c(c1[H])C([H])([H])C([H])([H])C([H])([H])C2([H])N([H])C(=O)C1([H])N(C(=O)C([H])(N([H])C(=O)C([H])(N([H])C([H])([H])[H])C([H])([H])[H])C(C([H])([H])[H])(C([H])([H])[H])C([H])([H])[H])C([H])([H])c2c([H])c(OC([H])([H])C([H])([H])OC([H])([H])C([H])([H])N([H])C(=O)C3([H])C([H])([H])C([H])([H])SC([H])([H])C3([H])C(=O)N([H])C(=O)N3C([H])([H])C([H])([H])C([H])([H])C([H])(n4nc(-c5c([H])c([H])c(Oc6c([H])c([H])c(F)c([H])c6F)c([H])c5[H])c(C(=O)N([H])[H])c4N([H])[H])C3([H])[H])c([H])c([H])c2C1([H])[H]

$$$$
54:0:0
     RDKit          3D

 92 99  0  0  1  0  0  0  0  0999 V2000
  -28.4490  -20.3840   20.7020 C   0  0  0  0  0  2  0  0  0  0  0  0
  -29.2540  -17.9640   20.7470 C   0  0  0  0  0  0  0  0  0  0  0  0
  -29.4080  -19.2880   20.9450 N   0  0  0  0  0  0  0  0  0  0  0  0
  -28.1980  -17.4860   20.3270 O   0  0  0  0  0  0  0  0  0  0  0  0
  -30.3110  -19.5650   21.3030 H   0  0  0  0  0  0  0  0  0  0  0  0
  -30.4490  -17.0250   21.0930 C   0  0  0  0  0  3  0  0  0  0  0  0
  -30.7000  -14.5090   20.4140 C   0  0  0  0  0  0  0  0  0  0  0  0
  -30.3450  -12.3390   19.2920 C   0  0  0  0  0  2  0  0  0  0  0  0
  -29.4120  -12.5380   18.0850 C   0  0  0  0  0  2  0  0  0  0  0  0
  -27.9360  -12.4190   18.5150 C   0  0  0  0  0  2  0  0  0  0  0  0
  -27.6050  -13.2640   19.7740 C   0  0  0  0  0  3  0  0  0  0  0  0
  -28.6640  -13.0730   20.8810 C   0  0  0  0  0  2  0  0  0  0  0  0
  -29.9800  -13.3560   20.2950 N   0  0  0  0  0  0  0  0  0  0  0  0
  -31.8490  -14.5770   19.9890 O   0  0  0  0  0  0  0  0  0  0  0  0
  -30.0360  -15.5990   20.8680 N   0  0  0  0  0  0  0  0  0  0  0  0
  -29.0550  -15.4460   21.0480 H   0  0  0  0  0  0  0  0  0  0  0  0
  -25.2110  -13.8770   20.4840 C   0  0  0  0  0  0  0  0  0  0  0  0
  -24.1400  -13.1110   20.8570 C   0  0  0  0  0  0  0  0  0  0  0  0
  -24.5960  -11.7570   20.8320 C   0  0  0  0  0  0  0  0  0  0  0  0
  -26.2540  -12.9920   20.2600 N   0  0  0  0  0  0  0  0  0  0  0  0
  -25.8880  -11.7120   20.5280 N   0  0  0  0  0  0  0  0  0  0  0  0
  -23.8630  -10.4990   21.0280 C   0  0  0  0  0  0  0  0  0  0  0  0
  -24.2960   -9.5300   21.9610 C   0  0  0  0  0  3  0  0  0  0  0  0
  -23.5630   -8.3360   22.1470 C   0  0  0  0  0  3  0  0  0  0  0  0
  -22.3850   -8.1020   21.3990 C   0  0  0  0  0  0  0  0  0  0  0  0
  -21.9700   -9.0590   20.4560 C   0  0  0  0  0  3  0  0  0  0  0  0
  -22.7020  -10.2440   20.2690 C   0  0  0  0  0  3  0  0  0  0  0  0
  -21.6270   -6.9590   21.4940 O   0  0  0  0  0  0  0  0  0  0  0  0
  -21.5910   -6.2140   22.6440 C   0  0  0  0  0  0  0  0  0  0  0  0
  -21.1890   -6.7670   23.8800 C   0  0  0  0  0  3  0  0  0  0  0  0
  -21.0960   -5.9470   25.0220 C   0  0  0  0  0  3  0  0  0  0  0  0
  -21.3970   -4.5750   24.9300 C   0  0  0  0  0  0  0  0  0  0  0  0
  -21.7900   -4.0200   23.6990 C   0  0  0  0  0  3  0  0  0  0  0  0
  -21.8850   -4.8370   22.5600 C   0  0  0  0  0  0  0  0  0  0  0  0
  -22.2440   -4.2940   21.3720 F   0  0  0  0  0  0  0  0  0  0  0  0
  -21.3010   -3.7850   26.0260 F   0  0  0  0  0  0  0  0  0  0  0  0
  -22.7440  -13.5950   21.1230 C   0  0  0  0  0  0  0  0  0  0  0  0
  -22.0120  -12.9120   21.9970 N   0  0  0  0  0  0  0  0  0  0  0  0
  -22.3080  -14.6150   20.5900 O   0  0  0  0  0  0  0  0  0  0  0  0
  -22.3750  -12.0910   22.4570 H   0  0  0  0  0  0  0  0  0  0  0  0
  -21.0730  -13.2210   22.2060 H   0  0  0  0  0  0  0  0  0  0  0  0
  -25.3800  -15.2480   20.3030 N   0  0  0  0  0  0  0  0  0  0  0  0
  -24.6190  -15.9080   20.4220 H   0  0  0  0  0  0  0  0  0  0  0  0
  -26.2510  -15.7010   20.0490 H   0  0  0  0  0  0  0  0  0  0  0  0
  -31.7260  -17.4750   20.3000 C   0  0  0  0  0  2  0  0  0  0  0  0
  -33.8170  -18.9500   20.1370 C   0  0  0  0  0  1  0  0  0  0  0  0
  -32.4420  -18.7550   20.7920 C   0  0  0  0  0  2  0  0  0  0  0  0
  -29.1440  -21.7170   20.2810 C   0  0  0  0  0  2  0  0  0  0  0  0
  -28.3570  -22.8740   20.6130 O   0  0  0  0  0  0  0  0  0  0  0  0
  -28.8460  -24.1300   20.0970 C   0  0  0  0  0  2  0  0  0  0  0  0
  -28.2070  -25.3370   20.8460 C   0  0  0  0  0  2  0  0  0  0  0  0
  -28.3810  -26.6400   20.2280 O   0  0  0  0  0  0  0  0  0  0  0  0
  -24.5970  -31.8990   23.2530 C   0  0  0  0  0  0  0  0  0  0  0  0
  -27.2440  -27.4280   20.2000 C   0  0  0  0  0  0  0  0  0  0  0  0
  -23.3990  -30.4940   21.6090 C   0  0  0  0  0  3  0  0  0  0  0  0
  -24.8590  -28.9550   20.1880 C   0  0  0  0  0  0  0  0  0  0  0  0
  -25.9290  -30.8450   21.4240 C   0  0  0  0  0  2  0  0  0  0  0  0
  -26.0180  -29.4740   20.7820 C   0  0  0  0  0  0  0  0  0  0  0  0
  -27.2170  -28.7190   20.7820 C   0  0  0  0  0  3  0  0  0  0  0  0
  -26.0720  -26.9370   19.5870 C   0  0  0  0  0  3  0  0  0  0  0  0
  -24.8820  -27.6880   19.5840 C   0  0  0  0  0  3  0  0  0  0  0  0
  -23.6150  -29.8140   20.2300 C   0  0  0  0  0  2  0  0  0  0  0  0
  -24.6600  -31.0960   22.1520 N   0  0  0  0  0  0  0  0  0  0  0  0
  -23.5130  -32.1720   23.7880 O   0  0  0  0  0  0  0  0  0  0  0  0
  -22.7430  -29.4760   22.5710 C   0  0  0  0  0  0  0  0  0  0  0  0
  -21.4210  -29.2910   22.4360 N   0  0  0  0  0  0  0  0  0  0  0  0
  -23.4240  -28.8520   23.3890 O   0  0  0  0  0  0  0  0  0  0  0  0
  -20.9310  -29.8440   21.7460 H   0  0  0  0  0  0  0  0  0  0  0  0
  -18.0470  -28.0890   22.9210 C   0  0  0  0  0  0  0  0  0  0  0  0
  -20.6030  -28.3550   23.2080 C   0  0  0  0  0  3  0  0  0  0  0  0
  -20.7140  -26.9220   22.6380 C   0  0  0  0  0  2  0  0  0  0  0  0
  -19.6190  -26.5910   21.6200 C   0  0  0  0  0  2  0  0  0  0  0  0
  -18.2320  -26.7370   22.2530 C   0  0  0  0  0  2  0  0  0  0  0  0
  -19.1620  -28.8540   23.3550 C   0  0  0  0  0  0  0  0  0  0  0  0
  -18.9360  -30.1210   23.9370 C   0  0  0  0  0  3  0  0  0  0  0  0
  -17.6270  -30.6200   24.0930 C   0  0  0  0  0  3  0  0  0  0  0  0
  -16.5280  -29.8500   23.6760 C   0  0  0  0  0  3  0  0  0  0  0  0
  -16.7390  -28.5880   23.0940 C   0  0  0  0  0  3  0  0  0  0  0  0
  -25.8800  -32.5330   23.8780 C   0  0  0  0  0  3  0  0  0  0  0  0
  -25.5700  -33.9330   24.1980 N   0  0  0  0  0  0  0  0  0  0  0  0
  -25.9080  -34.9810   23.4370 C   0  0  0  0  0  0  0  0  0  0  0  0
  -26.5860  -34.8730   22.4100 O   0  0  0  0  0  0  0  0  0  0  0  0
  -24.9700  -34.0940   24.9940 H   0  0  0  0  0  0  0  0  0  0  0  0
  -24.1850  -36.7750   23.0610 C   0  0  0  0  0  1  0  0  0  0  0  0
  -25.4190  -36.3720   23.8840 C   0  0  0  0  0  3  0  0  0  0  0  0
  -27.5470  -37.2560   24.7290 C   0  0  0  0  0  1  0  0  0  0  0  0
  -26.4520  -37.4240   23.7770 N   0  0  0  0  0  0  0  0  0  0  0  0
  -26.0450  -38.3450   23.9200 H   0  0  0  0  0  0  0  0  0  0  0  0
  -26.3930  -31.7670   25.1590 C   0  0  1  0  0  0  0  0  0  0  0  0
  -25.2990  -31.5340   26.2250 C   0  0  0  0  0  1  0  0  0  0  0  0
  -26.9780  -30.3870   24.7730 C   0  0  0  0  0  1  0  0  0  0  0  0
  -27.5420  -32.5650   25.8210 C   0  0  0  0  0  1  0  0  0  0  0  0
  1  3  1  0
  2  3  1  0
  2  6  1  0
  3  5  1  0
  4  2  2  0
  6 45  1  0
  7 15  1  0
  8 13  1  0
  9 10  1  0
  9  8  1  0
 11 10  1  0
 11 20  1  0
 11 12  1  0
 13  7  1  0
 13 12  1  0
 14  7  2  0
 15 16  1  0
 15  6  1  0
 17 18  2  0
 18 37  1  0
 19 18  1  0
 19 22  1  0
 20 17  1  0
 20 21  1  0
 21 19  2  0
 22 23  1  0
 23 24  2  0
 25 28  1  0
 25 24  1  0
 26 25  2  0
 27 26  1  0
 27 22  2  0
 28 29  1  0
 29 30  1  0
 30 31  2  0
 32 31  1  0
 32 36  1  0
 33 32  2  0
 34 29  2  0
 34 33  1  0
 35 34  1  0
 37 38  1  0
 38 41  1  0
 38 40  1  0
 39 37  2  0
 42 43  1  0
 42 17  1  0
 44 42  1  0
 45 47  1  0
 46 47  1  0
 48 49  1  0
 48  1  1  0
 50 49  1  0
 50 51  1  0
 52 51  1  0
 53 64  2  0
 54 52  1  0
 54 59  1  0
 55 63  1  0
 55 65  1  0
 56 62  1  0
 56 58  1  0
 57 63  1  0
 58 59  2  0
 58 57  1  0
 60 54  2  0
 61 60  1  0
 61 56  2  0
 62 55  1  0
 63 53  1  0
 65 67  2  0
 66 65  1  0
 68 66  1  0
 69 78  2  0
 69 74  1  0
 70 66  1  0
 70 74  1  0
 71 70  1  0
 72 73  1  0
 72 71  1  0
 73 69  1  0
 74 75  2  0
 75 76  1  0
 77 76  2  0
 78 77  1  0
 79 53  1  0
 79 80  1  0
 79 89  1  0
 80 83  1  0
 81 85  1  0
 81 80  1  0
 82 81  2  0
 85 84  1  0
 87 85  1  0
 87 88  1  0
 87 86  1  0
 89 92  1  1
 89 90  1  0
 91 89  1  0
M  ISO  4   7 100  15 100  51 101  52 101
M  END
>  <TORSDO>  (55) 
F 24

>  <SCORE>  (55) 
-12.850

>  <name>  (55) 
54

>  <ligand_id>  (55) 
54

>  <original_smiles>  (55) 
[H]c1c([H])c([H])c2c(c1[H])C([H])([H])C([H])([H])C([H])([H])C2([H])N([H])C(=O)C1([H])N(C(=O)C([H])(N([H])C(=O)C([H])(N([H])C([H])([H])[H])C([H])([H])[H])C(C([H])([H])[H])(C([H])([H])[H])C([H])([H])[H])C([H])([H])c2c([H])c(OC([H])([H])C([H])([H])OC([H])([H])C([H])([H])N([H])C(=O)C([H])(N([H])C(=O)N3C([H])([H])C([H])([H])C([H])([H])C([H])(n4nc(-c5c([H])c([H])c(Oc6c([H])c([H])c(F)c([H])c6F)c([H])c5[H])c(C(=O)N([H])[H])c4N([H])[H])C3([H])[H])C([H])([H])C([H])([H])C([H])([H])[H])c([H])c([H])c2C1([H])[H]

>  <smiles>  (55) 
[H]c1c([H])c([H])c2c(c1[H])C([H])([H])C([H])([H])C([H])([H])C2([H])N([H])C(=O)C1([H])N(C(=O)C([H])(N([H])C(=O)C([H])(N([H])C([H])([H])[H])C([H])([H])[H])C(C([H])([H])[H])(C([H])([H])[H])C([H])([H])[H])C([H])([H])c2c([H])c(OC([H])([H])C([H])([H])OC([H])([H])C([H])([H])N([H])C(=O)C([H])(N([H])C(=O)N3C([H])([H])C([H])([H])C([H])([H])C([H])(n4nc(-c5c([H])c([H])c(Oc6c([H])c([H])c(F)c([H])c6F)c([H])c5[H])c(C(=O)N([H])[H])c4N([H])[H])C3([H])[H])C([H])([H])C([H])([H])C([H])([H])[H])c([H])c([H])c2C1([H])[H]

$$$$
55:0:0
     RDKit          3D

 98 98  0  0  1  0  0  0  0  0999 V2000
  -18.6160  -26.4560   24.0570 C   0  0  0  0  0  2  0  0  0  0  0  0
  -17.6630  -27.6950   23.3060 C   0  0  0  0  0  1  0  0  0  0  0  0
  -19.6980  -25.4150   23.2380 C   0  0  0  0  0  2  0  0  0  0  0  0
  -18.6730  -28.5490   20.3890 C   0  0  0  0  0  1  0  0  0  0  0  0
  -20.7210  -25.7950   21.8940 C   0  0  0  0  0  1  0  0  0  0  0  0
  -20.1070  -27.4750   20.0810 N   0  0  0  0  0  0  0  0  0  0  0  0
  -19.6080  -26.7740   19.5540 H   0  0  0  0  0  0  0  0  0  0  0  0
  -22.4000  -24.2860   21.7260 C   0  0  0  0  0  2  0  0  0  0  0  0
  -24.1890  -23.4150   20.8210 C   0  0  0  0  0  1  0  0  0  0  0  0
  -27.3900  -21.9460   20.4240 C   0  0  0  0  0  2  0  0  0  0  0  0
  -25.8180  -22.2980   20.9200 N   0  0  0  0  0  2  0  0  0  0  0  0
  -27.5920  -22.5590   19.3760 O   0  0  0  0  0  1  0  0  0  0  0  0
  -25.6870  -21.7100   21.7340 H   0  0  0  0  0  0  0  0  0  0  0  0
  -29.1620  -20.9600   20.8700 C   0  0  0  0  0  1  0  0  0  0  0  0
  -32.6510  -20.4170   21.4320 C   0  0  0  0  0  0  0  0  0  0  0  0
  -35.4140  -20.8480   21.7750 C   0  0  0  0  0  2  0  0  0  0  0  0
  -35.8770  -22.2560   22.3100 C   0  0  0  0  0  2  0  0  0  0  0  0
  -35.6480  -23.3570   21.2620 C   0  0  0  0  0  2  0  0  0  0  0  0
  -34.3530  -23.0390   20.4950 C   0  0  0  0  0  3  0  0  0  0  0  0
  -34.3170  -21.6410   19.8990 C   0  0  0  0  0  2  0  0  0  0  0  0
  -34.0140  -20.8770   21.0620 N   0  0  0  0  0  0  0  0  0  0  0  0
  -32.9910  -19.5180   22.2740 O   0  0  0  0  0  0  0  0  0  0  0  0
  -31.1310  -20.9620   20.9290 N   0  0  0  0  0  2  0  0  0  0  0  0
  -31.3720  -21.7210   20.3000 H   0  0  0  0  0  0  0  0  0  0  0  0
  -32.7480  -24.4860   19.2660 C   0  0  0  0  0  0  0  0  0  0  0  0
  -32.8920  -25.2600   18.1570 C   0  0  0  0  0  0  0  0  0  0  0  0
  -34.2410  -25.0780   17.7180 C   0  0  0  0  0  0  0  0  0  0  0  0
  -33.9940  -23.9330   19.4600 N   0  0  0  0  0  0  0  0  0  0  0  0
  -34.8750  -24.2080   18.4820 N   0  0  0  0  0  0  0  0  0  0  0  0
  -34.9950  -25.7430   16.6630 C   0  0  0  0  0  0  0  0  0  0  0  0
  -35.6950  -25.0110   15.6810 C   0  0  0  0  0  3  0  0  0  0  0  0
  -36.4050  -25.6870   14.6670 C   0  0  0  0  0  3  0  0  0  0  0  0
  -36.4120  -27.1020   14.6340 C   0  0  0  0  0  0  0  0  0  0  0  0
  -35.7380  -27.8220   15.6340 C   0  0  0  0  0  3  0  0  0  0  0  0
  -35.0360  -27.1480   16.6450 C   0  0  0  0  0  3  0  0  0  0  0  0
  -37.0880  -27.8460   13.6990 O   0  0  0  0  0  0  0  0  0  0  0  0
  -37.4890  -27.3030   12.5070 C   0  0  0  0  0  0  0  0  0  0  0  0
  -36.5680  -26.7370   11.5970 C   0  0  0  0  0  3  0  0  0  0  0  0
  -37.0170  -26.2550   10.3520 C   0  0  0  0  0  3  0  0  0  0  0  0
  -38.3790  -26.3460   10.0110 C   0  0  0  0  0  0  0  0  0  0  0  0
  -39.2960  -26.9130   10.9140 C   0  0  0  0  0  3  0  0  0  0  0  0
  -38.8510  -27.3930   12.1580 C   0  0  0  0  0  0  0  0  0  0  0  0
  -39.7330  -27.9580   13.0170 F   0  0  0  0  0  0  0  0  0  0  0  0
  -38.8110  -25.8920    8.8120 F   0  0  0  0  0  0  0  0  0  0  0  0
  -31.8670  -26.2020   17.6160 C   0  0  0  0  0  0  0  0  0  0  0  0
  -31.8310  -26.3710   16.3010 N   0  0  0  0  0  0  0  0  0  0  0  0
  -31.0620  -26.7580   18.3620 O   0  0  0  0  0  0  0  0  0  0  0  0
  -32.4800  -25.8930   15.6940 H   0  0  0  0  0  0  0  0  0  0  0  0
  -31.1390  -26.9850   15.8930 H   0  0  0  0  0  0  0  0  0  0  0  0
  -31.6920  -24.2270   20.1390 N   0  0  0  0  0  0  0  0  0  0  0  0
  -30.8730  -24.8190   20.0440 H   0  0  0  0  0  0  0  0  0  0  0  0
  -31.9060  -24.0470   21.1110 H   0  0  0  0  0  0  0  0  0  0  0  0
  -29.0520  -18.9980   19.2470 C   0  0  0  0  0  1  0  0  0  0  0  0
  -29.5030  -18.5290   21.6970 C   0  0  0  0  0  1  0  0  0  0  0  0
  -28.8030  -19.4650   20.6860 C   0  0  0  0  0  3  0  0  0  0  0  0
  -21.2490  -27.9400   18.7860 C   0  0  0  0  0  2  0  0  0  0  0  0
  -23.1910  -27.8420   18.5520 C   0  0  0  0  0  2  0  0  0  0  0  0
  -24.7520  -28.4200   19.1710 O   0  0  0  0  0  0  0  0  0  0  0  0
  -23.9640  -27.6410   24.8030 C   0  0  0  0  0  0  0  0  0  0  0  0
  -25.2990  -29.6930   19.4960 C   0  0  0  0  0  3  0  0  0  0  0  0
  -22.6230  -27.7690   22.7680 C   0  0  0  0  0  3  0  0  0  0  0  0
  -23.2330  -29.6420   21.0810 C   0  0  0  0  0  3  0  0  0  0  0  0
  -24.4730  -29.4780   23.2050 C   0  0  0  0  0  2  0  0  0  0  0  0
  -24.4700  -29.6740   21.7090 C   0  0  0  0  0  3  0  0  0  0  0  0
  -25.5980  -29.8470   20.8840 C   0  0  0  0  0  2  0  0  0  0  0  0
  -24.2840  -30.4800   19.0430 C   0  0  0  0  0  2  0  0  0  0  0  0
  -23.1200  -30.2760   19.8160 C   0  0  0  0  0  2  0  0  0  0  0  0
  -22.1310  -28.9560   21.8370 C   0  0  0  0  0  2  0  0  0  0  0  0
  -23.6810  -28.3080   23.6580 N   0  0  0  0  0  0  0  0  0  0  0  0
  -23.3070  -26.6500   25.1540 O   0  0  0  0  0  0  0  0  0  0  0  0
  -23.2640  -26.4910   22.1330 C   0  0  0  0  0  0  0  0  0  0  0  0
  -22.7160  -25.8320   21.1390 N   0  0  1  0  0  4  0  0  0  0  0  0
  -24.2810  -25.9920   22.5860 O   0  0  0  0  0  0  0  0  0  0  0  0
  -21.7940  -26.0800   20.8140 H   0  0  0  0  0  0  0  0  0  0  0  0
  -22.3450  -24.8670   17.1370 C   0  0  0  0  0  2  0  0  0  0  0  0
  -23.5400  -24.8780   20.3150 C   0  0  2  0  0  0  0  0  0  0  0  0
  -25.1710  -25.8320   19.7150 C   0  0  0  0  0 15  0  0  0  0  0  0
  -25.1890  -26.5920   17.5700 C   0  0  0  0  0 15  0  0  0  0  0  0
  -23.6600  -25.8660   16.4010 C   0  0  0  0  0  1  0  0  0  0  0  0
  -22.3700  -24.3240   19.1300 C   0  0  0  0  0  2  0  0  0  0  0  0
  -20.8470  -24.3020   19.8460 C   0  0  0  0  0  2  0  0  0  0  0  0
  -19.5140  -24.6540   19.0330 C   0  0  0  0  0  3  0  0  0  0  0  0
  -19.4850  -25.0450   17.5020 C   0  0  0  0  0  3  0  0  0  0  0  0
  -20.7910  -25.1660   16.5520 C   0  0  0  0  0  2  0  0  0  0  0  0
  -25.1130  -28.1240   25.7190 C   0  0  0  0  0  3  0  0  0  0  0  0
  -24.6800  -27.8550   27.0920 N   0  0  0  0  0  0  0  0  0  0  0  0
  -24.4890  -28.8020   28.0180 C   0  0  0  0  0  0  0  0  0  0  0  0
  -24.7510  -29.9920   27.8250 O   0  0  0  0  0  0  0  0  0  0  0  0
  -24.3920  -26.9100   27.2990 H   0  0  0  0  0  0  0  0  0  0  0  0
  -22.4570  -28.7820   29.4990 C   0  0  0  0  0  1  0  0  0  0  0  0
  -23.9280  -28.3520   29.3780 C   0  0  0  0  0  3  0  0  0  0  0  0
  -26.0540  -28.3280   30.6030 C   0  0  0  0  0  1  0  0  0  0  0  0
  -24.6990  -28.8700   30.5290 N   0  0  0  0  0  0  0  0  0  0  0  0
  -24.2250  -28.6600   31.4030 H   0  0  0  0  0  0  0  0  0  0  0  0
  -26.4900  -27.4220   25.4060 C   0  0  1  0  0  0  0  0  0  0  0  0
  -26.3540  -25.9450   24.9720 C   0  0  0  0  0  1  0  0  0  0  0  0
  -27.2680  -28.1610   24.2930 C   0  0  0  0  0  1  0  0  0  0  0  0
  -27.3820  -27.4790   26.6660 C   0  0  0  0  0  1  0  0  0  0  0  0
  2  1  1  0
  3  1  1  0
  5  3  1  0
  6  4  1  0
  7  6  1  0
 10 11  1  0
 11 13  1  0
 12 10  1  0
 15 22  2  0
 16 17  1  0
 18 17  1  0
 19 28  1  0
 19 18  1  0
 20 19  1  0
 20 21  1  0
 21 15  1  0
 21 16  1  0
 23 15  1  0
 24 23  1  0
 25 28  1  0
 25 50  1  0
 26 25  2  0
 27 26  1  0
 27 29  2  0
 29 28  1  0
 30 27  1  0
 31 30  2  0
 32 31  1  0
 33 32  2  0
 33 34  1  0
 34 35  2  0
 35 30  1  0
 36 33  1  0
 37 36  1  0
 38 37  2  0
 39 38  1  0
 40 39  2  0
 40 41  1  0
 41 42  2  0
 42 37  1  0
 42 43  1  0
 44 40  1  0
 45 26  1  0
 45 47  2  0
 46 45  1  0
 48 46  1  0
 49 46  1  0
 50 52  1  0
 51 50  1  0
 53 55  1  0
 55 14  1  0
 55 54  1  0
 56  6  1  0
 57 56  1  0
 57 58  1  0
 59 70  2  0
 60 58  1  0
 60 65  1  0
 61 71  1  0
 61 69  1  0
 62 67  1  0
 62 64  1  0
 62 68  1  0
 63 69  1  0
 64 65  1  0
 64 63  1  0
 66 60  1  0
 66 67  1  0
 68 61  1  0
 69 59  1  0
 71 73  2  0
 72  8  1  0
 72 71  1  0
 72 74  1  6
 76  9  1  6
 76 72  1  0
 76  8  1  0
 79 75  1  0
 80 81  1  0
 80 76  1  0
 82 81  1  0
 83 82  2  0
 84 75  1  0
 84 83  1  0
 85 59  1  0
 85 86  1  0
 86 89  1  0
 86 87  1  0
 87 91  1  0
 88 87  2  0
 91 90  1  0
 91 93  1  0
 93 92  1  0
 93 94  1  0
 95 85  1  0
 95 98  1  1
 96 95  1  0
 97 95  1  0
M  ISO  4  15 100  23 100  57 101  58 101
M  END
>  <TORSDO>  (56) 
F 23

>  <SCORE>  (56) 
1.519

>  <name>  (56) 
55

>  <ligand_id>  (56) 
55

>  <original_smiles>  (56) 
[H]c1c([H])c([H])c2c(c1[H])C([H])([H])C([H])([H])C([H])([H])C2([H])N([H])C(=O)C1([H])N(C(=O)C([H])(N([H])C(=O)C([H])(N([H])C([H])([H])[H])C([H])([H])[H])C(C([H])([H])[H])(C([H])([H])[H])C([H])([H])[H])C([H])([H])c2c([H])c(OC([H])([H])C([H])([H])[N+]3([H])C([H])([H])C([H])([H])C([H])([H])C([H])([H])C3([H])C([H])([H])C([H])([H])N([H])C(=O)C([H])(N([H])C(=O)N3C([H])([H])C([H])([H])C([H])([H])C([H])(n4nc(-c5c([H])c([H])c(Oc6c([H])c([H])c(F)c([H])c6F)c([H])c5[H])c(C(=O)N([H])[H])c4N([H])[H])C3([H])[H])C([H])(C([H])([H])[H])C([H])([H])[H])c([H])c([H])c2C1([H])[H]

>  <smiles>  (56) 
[H]c1c([H])c([H])c2c(c1[H])C([H])([H])C([H])([H])C([H])([H])C2([H])N([H])C(=O)C1([H])N(C(=O)C([H])(N([H])C(=O)C([H])(N([H])C([H])([H])[H])C([H])([H])[H])C(C([H])([H])[H])(C([H])([H])[H])C([H])([H])[H])C([H])([H])c2c([H])c(OC([H])([H])C([H])([H])[N+]3([H])C([H])([H])C([H])([H])C([H])([H])C([H])([H])C3([H])C([H])([H])C([H])([H])N([H])C(=O)C([H])(N([H])C(=O)N3C([H])([H])C([H])([H])C([H])([H])C([H])(n4nc(-c5c([H])c([H])c(Oc6c([H])c([H])c(F)c([H])c6F)c([H])c5[H])c(C(=O)N([H])[H])c4N([H])[H])C3([H])[H])C([H])(C([H])([H])[H])C([H])([H])[H])c([H])c([H])c2C1([H])[H]

$$$$
56:0:0
     RDKit          3D

101108  0  0  1  0  0  0  0  0999 V2000
  -26.8530  -18.7050   19.8700 C   0  0  0  0  0  2  0  0  0  0  0  0
  -28.9620  -17.5260   20.4600 C   0  0  0  0  0  0  0  0  0  0  0  0
  -28.2220  -18.2620   19.6140 N   0  0  0  0  0  0  0  0  0  0  0  0
  -28.4630  -17.0320   21.4730 O   0  0  0  0  0  0  0  0  0  0  0  0
  -28.6540  -18.6110   18.7690 H   0  0  0  0  0  0  0  0  0  0  0  0
  -30.4470  -17.2460   20.0870 C   0  0  0  0  0  3  0  0  0  0  0  0
  -31.1250  -18.6040   19.7670 C   0  0  0  0  0  0  0  0  0  0  0  0
  -31.7230  -18.7420   18.5840 N   0  0  0  0  0  0  0  0  0  0  0  0
  -31.1370  -19.5370   20.5720 O   0  0  0  0  0  0  0  0  0  0  0  0
  -31.7280  -17.9920   17.9040 H   0  0  0  0  0  0  0  0  0  0  0  0
  -32.2100  -19.5990   18.3630 H   0  0  0  0  0  0  0  0  0  0  0  0
  -31.3540  -16.9300   22.5650 C   0  0  0  0  0  1  0  0  0  0  0  0
  -31.2680  -16.3910   21.1180 C   0  0  0  0  0  3  0  0  0  0  0  0
  -31.2730  -13.9760   20.4810 C   0  0  0  0  0  0  0  0  0  0  0  0
  -30.9550  -11.6140   19.8880 C   0  0  0  0  0  2  0  0  0  0  0  0
  -30.1100  -11.4640   18.6100 C   0  0  0  0  0  2  0  0  0  0  0  0
  -28.6090  -11.4610   18.9450 C   0  0  0  0  0  2  0  0  0  0  0  0
  -28.1970  -12.6350   19.8730 C   0  0  0  0  0  3  0  0  0  0  0  0
  -29.1530  -12.7420   21.0810 C   0  0  0  0  0  2  0  0  0  0  0  0
  -30.5390  -12.8400   20.5770 N   0  0  0  0  0  0  0  0  0  0  0  0
  -32.3170  -14.0690   19.8310 O   0  0  0  0  0  0  0  0  0  0  0  0
  -30.7810  -15.0090   21.1680 N   0  0  0  0  0  0  0  0  0  0  0  0
  -29.9340  -14.8380   21.6930 H   0  0  0  0  0  0  0  0  0  0  0  0
  -25.8650  -13.5070   20.5280 C   0  0  0  0  0  0  0  0  0  0  0  0
  -24.6970  -12.8590   20.8380 C   0  0  0  0  0  0  0  0  0  0  0  0
  -24.9950  -11.4650   20.7790 C   0  0  0  0  0  0  0  0  0  0  0  0
  -26.8030  -12.5150   20.2980 N   0  0  0  0  0  0  0  0  0  0  0  0
  -26.2790  -11.2780   20.5030 N   0  0  0  0  0  0  0  0  0  0  0  0
  -24.1180  -10.2940   20.9130 C   0  0  0  0  0  0  0  0  0  0  0  0
  -24.3610   -9.2950   21.8830 C   0  0  0  0  0  3  0  0  0  0  0  0
  -23.4940   -8.1880   22.0010 C   0  0  0  0  0  3  0  0  0  0  0  0
  -22.3710   -8.0730   21.1490 C   0  0  0  0  0  0  0  0  0  0  0  0
  -22.1460   -9.0580   20.1720 C   0  0  0  0  0  3  0  0  0  0  0  0
  -23.0110  -10.1570   20.0510 C   0  0  0  0  0  3  0  0  0  0  0  0
  -21.4870   -7.0200   21.1720 O   0  0  0  0  0  0  0  0  0  0  0  0
  -21.2270   -6.3300   22.3280 C   0  0  0  0  0  0  0  0  0  0  0  0
  -20.6770   -6.9620   23.4650 C   0  0  0  0  0  3  0  0  0  0  0  0
  -20.3640   -6.2010   24.6090 C   0  0  0  0  0  3  0  0  0  0  0  0
  -20.5840   -4.8100   24.6140 C   0  0  0  0  0  0  0  0  0  0  0  0
  -21.1250   -4.1790   23.4790 C   0  0  0  0  0  3  0  0  0  0  0  0
  -21.4460   -4.9380   22.3400 C   0  0  0  0  0  0  0  0  0  0  0  0
  -21.9490   -4.3230   21.2430 F   0  0  0  0  0  0  0  0  0  0  0  0
  -20.2730   -4.0790   25.7080 F   0  0  0  0  0  0  0  0  0  0  0  0
  -23.3620  -13.4970   21.0880 C   0  0  0  0  0  0  0  0  0  0  0  0
  -22.5420  -12.8870   21.9390 N   0  0  0  0  0  0  0  0  0  0  0  0
  -23.0560  -14.5680   20.5690 O   0  0  0  0  0  0  0  0  0  0  0  0
  -22.7960  -12.0160   22.3780 H   0  0  0  0  0  0  0  0  0  0  0  0
  -21.6490  -13.3050   22.1560 H   0  0  0  0  0  0  0  0  0  0  0  0
  -26.1990  -14.8490   20.4100 N   0  0  0  0  0  0  0  0  0  0  0  0
  -25.5240  -15.5880   20.5620 H   0  0  0  0  0  0  0  0  0  0  0  0
  -27.1400  -15.1900   20.2580 H   0  0  0  0  0  0  0  0  0  0  0  0
  -26.7100  -20.2080   19.6020 C   0  0  0  0  0  2  0  0  0  0  0  0
  -27.6010  -20.9160   20.4560 O   0  0  0  0  0  0  0  0  0  0  0  0
  -27.0370  -22.0950   21.0250 C   0  0  0  0  0  2  0  0  0  0  0  0
  -27.2060  -23.3090   20.0990 C   0  0  0  0  0  2  0  0  0  0  0  0
  -28.6030  -23.8070   20.1060 N   0  0  0  0  0  4  0  0  0  0  0  0
  -28.9400  -23.8950   21.0570 H   0  0  0  0  0  0  0  0  0  0  0  0
  -29.1650  -23.0820   19.6830 H   0  0  0  0  0  0  0  0  0  0  0  0
  -28.8010  -25.0720   19.3520 C   0  0  0  0  0  2  0  0  0  0  0  0
  -28.7090  -26.3380   20.2310 C   0  0  0  0  0  2  0  0  0  0  0  0
  -28.5720  -27.5100   19.4180 O   0  0  0  0  0  0  0  0  0  0  0  0
  -24.6910  -31.8740   23.4510 C   0  0  0  0  0  0  0  0  0  0  0  0
  -27.3760  -28.1590   19.5870 C   0  0  0  0  0  0  0  0  0  0  0  0
  -23.4570  -30.6540   21.6870 C   0  0  0  0  0  3  0  0  0  0  0  0
  -24.9040  -29.4520   19.9660 C   0  0  0  0  0  0  0  0  0  0  0  0
  -25.9300  -31.2260   21.3960 C   0  0  0  0  0  2  0  0  0  0  0  0
  -26.0610  -29.9770   20.5530 C   0  0  0  0  0  0  0  0  0  0  0  0
  -27.3050  -29.3420   20.3560 C   0  0  0  0  0  3  0  0  0  0  0  0
  -26.2050  -27.6400   18.9980 C   0  0  0  0  0  3  0  0  0  0  0  0
  -24.9690  -28.2840   19.1840 C   0  0  0  0  0  3  0  0  0  0  0  0
  -23.6140  -30.1960   20.2130 C   0  0  0  0  0  2  0  0  0  0  0  0
  -24.7130  -31.2540   22.2390 N   0  0  0  0  0  0  0  0  0  0  0  0
  -23.6350  -31.9920   24.0900 O   0  0  0  0  0  0  0  0  0  0  0  0
  -22.9300  -29.4630   22.5200 C   0  0  0  0  0  0  0  0  0  0  0  0
  -21.6300  -29.1540   22.3680 N   0  0  0  0  0  0  0  0  0  0  0  0
  -23.6860  -28.8240   23.2560 O   0  0  0  0  0  0  0  0  0  0  0  0
  -21.0760  -29.7290   21.7480 H   0  0  0  0  0  0  0  0  0  0  0  0
  -18.4800  -27.3980   22.5080 C   0  0  0  0  0  0  0  0  0  0  0  0
  -20.9310  -28.0420   23.0130 C   0  0  0  0  0  3  0  0  0  0  0  0
  -21.3160  -26.6960   22.3540 C   0  0  0  0  0  2  0  0  0  0  0  0
  -20.3580  -26.2860   21.2300 C   0  0  0  0  0  2  0  0  0  0  0  0
  -18.9270  -26.1570   21.7540 C   0  0  0  0  0  2  0  0  0  0  0  0
  -19.4210  -28.2960   23.0780 C   0  0  0  0  0  0  0  0  0  0  0  0
  -18.9520  -29.4660   23.7190 C   0  0  0  0  0  3  0  0  0  0  0  0
  -17.5740  -29.7410   23.7920 C   0  0  0  0  0  3  0  0  0  0  0  0
  -16.6450  -28.8400   23.2410 C   0  0  0  0  0  3  0  0  0  0  0  0
  -17.0990  -27.6690   22.6090 C   0  0  0  0  0  3  0  0  0  0  0  0
  -25.9790  -32.4860   24.0850 C   0  0  0  0  0  3  0  0  0  0  0  0
  -25.6750  -33.8780   24.4500 N   0  0  0  0  0  0  0  0  0  0  0  0
  -26.0600  -34.9520   23.7460 C   0  0  0  0  0  0  0  0  0  0  0  0
  -26.7770  -34.8750   22.7450 O   0  0  0  0  0  0  0  0  0  0  0  0
  -25.0420  -34.0120   25.2240 H   0  0  0  0  0  0  0  0  0  0  0  0
  -24.3730  -36.7810   23.3660 C   0  0  0  0  0  1  0  0  0  0  0  0
  -25.5630  -36.3300   24.2270 C   0  0  0  0  0  3  0  0  0  0  0  0
  -27.6610  -37.1510   25.2000 C   0  0  0  0  0  1  0  0  0  0  0  0
  -26.6120  -37.3700   24.2090 N   0  0  0  0  0  0  0  0  0  0  0  0
  -26.2140  -38.2910   24.3690 H   0  0  0  0  0  0  0  0  0  0  0  0
  -26.5020  -31.6810   25.3380 C   0  0  1  0  0  0  0  0  0  0  0  0
  -25.4080  -31.4070   26.3950 C   0  0  0  0  0  1  0  0  0  0  0  0
  -27.0890  -30.3190   24.8970 C   0  0  0  0  0  1  0  0  0  0  0  0
  -27.6500  -32.4610   26.0240 C   0  0  0  0  0  1  0  0  0  0  0  0
  2  4  2  0
  3  1  1  0
  3  2  1  0
  5  3  1  0
  6  7  1  0
  6  2  1  0
  6 13  1  0
  7  9  2  0
  8  7  1  0
 10  8  1  0
 11  8  1  0
 13 22  1  0
 13 12  1  0
 14 20  1  0
 14 22  1  0
 15 20  1  0
 16 17  1  0
 16 15  1  0
 18 17  1  0
 18 27  1  0
 18 19  1  0
 20 19  1  0
 21 14  2  0
 22 23  1  0
 24 25  2  0
 25 44  1  0
 26 25  1  0
 26 29  1  0
 27 28  1  0
 27 24  1  0
 28 26  2  0
 29 30  1  0
 30 31  2  0
 32 35  1  0
 32 31  1  0
 33 32  2  0
 34 33  1  0
 34 29  2  0
 35 36  1  0
 36 41  2  0
 36 37  1  0
 37 38  2  0
 38 39  1  0
 39 43  1  0
 40 39  2  0
 41 40  1  0
 42 41  1  0
 44 45  1  0
 45 48  1  0
 45 47  1  0
 46 44  2  0
 49 24  1  0
 49 50  1  0
 51 49  1  0
 52  1  1  0
 52 53  1  0
 53 54  1  0
 55 56  1  0
 55 54  1  0
 56 57  1  0
 58 56  1  0
 59 56  1  0
 59 60  1  0
 61 63  1  0
 61 60  1  0
 62 73  2  0
 63 68  1  0
 64 72  1  0
 64 74  1  0
 65 71  1  0
 65 67  1  0
 66 72  1  0
 67 66  1  0
 68 67  2  0
 69 70  1  0
 69 63  2  0
 70 65  2  0
 71 64  1  0
 72 62  1  0
 74 76  2  0
 75 74  1  0
 77 75  1  0
 78 87  2  0
 78 83  1  0
 79 75  1  0
 79 83  1  0
 80 79  1  0
 81 82  1  0
 81 80  1  0
 82 78  1  0
 83 84  2  0
 84 85  1  0
 86 85  2  0
 87 86  1  0
 88 62  1  0
 88 89  1  0
 88 98  1  0
 89 92  1  0
 90 94  1  0
 90 89  1  0
 91 90  2  0
 94 93  1  0
 96 94  1  0
 96 97  1  0
 96 95  1  0
 98101  1  1
 98 99  1  0
100 98  1  0
M  ISO  4  14 100  22 100  60 101  61 101
M  END
>  <TORSDO>  (57) 
F 27

>  <SCORE>  (57) 
-8.497

>  <name>  (57) 
56

>  <ligand_id>  (57) 
56

>  <original_smiles>  (57) 
[H]c1c([H])c([H])c2c(c1[H])C([H])([H])C([H])([H])C([H])([H])C2([H])N([H])C(=O)C1([H])N(C(=O)C([H])(N([H])C(=O)C([H])(N([H])C([H])([H])[H])C([H])([H])[H])C(C([H])([H])[H])(C([H])([H])[H])C([H])([H])[H])C([H])([H])c2c([H])c(OC([H])([H])C([H])([H])[N+]([H])([H])C([H])([H])C([H])([H])OC([H])([H])C([H])([H])N([H])C(=O)C([H])(C(=O)N([H])[H])C([H])(N([H])C(=O)N3C([H])([H])C([H])([H])C([H])([H])C([H])(n4nc(-c5c([H])c([H])c(Oc6c([H])c([H])c(F)c([H])c6F)c([H])c5[H])c(C(=O)N([H])[H])c4N([H])[H])C3([H])[H])C([H])([H])[H])c([H])c([H])c2C1([H])[H]

>  <smiles>  (57) 
[H]c1c([H])c([H])c2c(c1[H])C([H])([H])C([H])([H])C([H])([H])C2([H])N([H])C(=O)C1([H])N(C(=O)C([H])(N([H])C(=O)C([H])(N([H])C([H])([H])[H])C([H])([H])[H])C(C([H])([H])[H])(C([H])([H])[H])C([H])([H])[H])C([H])([H])c2c([H])c(OC([H])([H])C([H])([H])[N+]([H])([H])C([H])([H])C([H])([H])OC([H])([H])C([H])([H])N([H])C(=O)C([H])(C(=O)N([H])[H])C([H])(N([H])C(=O)N3C([H])([H])C([H])([H])C([H])([H])C([H])(n4nc(-c5c([H])c([H])c(Oc6c([H])c([H])c(F)c([H])c6F)c([H])c5[H])c(C(=O)N([H])[H])c4N([H])[H])C3([H])[H])C([H])([H])[H])c([H])c([H])c2C1([H])[H]

$$$$
57:0:0
     RDKit          3D

 87 94  0  0  1  0  0  0  0  0999 V2000
  -29.1770  -19.7480   20.0010 C   0  0  0  0  0  0  0  0  0  0  0  0
  -29.0550  -21.1280   20.5480 N   0  0  0  0  0  0  0  0  0  0  0  0
  -28.8260  -19.6230   18.8280 O   0  0  0  0  0  0  0  0  0  0  0  0
  -29.2990  -21.1410   21.5310 H   0  0  0  0  0  0  0  0  0  0  0  0
  -31.3310  -18.4880   20.7550 C   0  0  0  0  0  1  0  0  0  0  0  0
  -29.8120  -18.2540   20.6910 C   0  0  0  0  0  3  0  0  0  0  0  0
  -30.3810  -15.3300   20.2710 C   0  0  0  0  0  0  0  0  0  0  0  0
  -30.3620  -12.8880   19.3580 C   0  0  0  0  0  2  0  0  0  0  0  0
  -29.4350  -12.6640   18.1370 C   0  0  0  0  0  2  0  0  0  0  0  0
  -27.9910  -12.3830   18.5890 C   0  0  0  0  0  2  0  0  0  0  0  0
  -27.5400  -13.3440   19.7160 C   0  0  0  0  0  3  0  0  0  0  0  0
  -28.5940  -13.5020   20.8320 C   0  0  0  0  0  2  0  0  0  0  0  0
  -29.8090  -14.0260   20.1830 N   0  0  0  0  0  0  0  0  0  0  0  0
  -31.6100  -15.3100   20.1030 O   0  0  0  0  0  0  0  0  0  0  0  0
  -29.6170  -16.6090   20.3670 N   0  0  0  0  0  0  0  0  0  0  0  0
  -28.6310  -16.3970   20.3270 H   0  0  0  0  0  0  0  0  0  0  0  0
  -25.1710  -13.8920   20.4800 C   0  0  0  0  0  0  0  0  0  0  0  0
  -24.1140  -13.1110   20.8520 C   0  0  0  0  0  0  0  0  0  0  0  0
  -24.5880  -11.7630   20.8230 C   0  0  0  0  0  0  0  0  0  0  0  0
  -26.2170  -13.0210   20.2340 N   0  0  0  0  0  0  0  0  0  0  0  0
  -25.8790  -11.7340   20.5100 N   0  0  0  0  0  0  0  0  0  0  0  0
  -23.8660  -10.4970   21.0130 C   0  0  0  0  0  0  0  0  0  0  0  0
  -24.2950   -9.5360   21.9550 C   0  0  0  0  0  3  0  0  0  0  0  0
  -23.5690   -8.3380   22.1350 C   0  0  0  0  0  3  0  0  0  0  0  0
  -22.4020   -8.0930   21.3740 C   0  0  0  0  0  0  0  0  0  0  0  0
  -21.9940   -9.0430   20.4210 C   0  0  0  0  0  3  0  0  0  0  0  0
  -22.7190  -10.2320   20.2380 C   0  0  0  0  0  3  0  0  0  0  0  0
  -21.6490   -6.9460   21.4620 O   0  0  0  0  0  0  0  0  0  0  0  0
  -21.5880   -6.2150   22.6210 C   0  0  0  0  0  0  0  0  0  0  0  0
  -21.1350   -6.7770   23.8340 C   0  0  0  0  0  3  0  0  0  0  0  0
  -21.0210   -5.9710   24.9840 C   0  0  0  0  0  3  0  0  0  0  0  0
  -21.3480   -4.6040   24.9230 C   0  0  0  0  0  0  0  0  0  0  0  0
  -21.7950   -4.0410   23.7150 C   0  0  0  0  0  3  0  0  0  0  0  0
  -21.9100   -4.8440   22.5660 C   0  0  0  0  0  0  0  0  0  0  0  0
  -22.3200   -4.2910   21.3990 F   0  0  0  0  0  0  0  0  0  0  0  0
  -21.2320   -3.8280   26.0260 F   0  0  0  0  0  0  0  0  0  0  0  0
  -22.7150  -13.5820   21.1160 C   0  0  0  0  0  0  0  0  0  0  0  0
  -21.9850  -12.8830   21.9780 N   0  0  0  0  0  0  0  0  0  0  0  0
  -22.2770  -14.6070   20.5940 O   0  0  0  0  0  0  0  0  0  0  0  0
  -22.3540  -12.0560   22.4230 H   0  0  0  0  0  0  0  0  0  0  0  0
  -21.0450  -13.1810   22.1990 H   0  0  0  0  0  0  0  0  0  0  0  0
  -25.3230  -15.2640   20.2980 N   0  0  0  0  0  0  0  0  0  0  0  0
  -24.5460  -15.9070   20.4030 H   0  0  0  0  0  0  0  0  0  0  0  0
  -26.1520  -15.7050   19.9220 H   0  0  0  0  0  0  0  0  0  0  0  0
  -28.8450  -22.6990   19.9660 C   0  0  0  0  0  2  0  0  0  0  0  0
  -28.0870  -24.2320   20.5820 C   0  0  0  0  0  2  0  0  0  0  0  0
  -28.2550  -25.8650   20.3110 O   0  0  0  0  0  0  0  0  0  0  0  0
  -24.6380  -31.8680   23.2360 C   0  0  0  0  0  0  0  0  0  0  0  0
  -27.2220  -26.9480   20.3000 C   0  0  0  0  0  0  0  0  0  0  0  0
  -23.4570  -30.4490   21.6080 C   0  0  0  0  0  3  0  0  0  0  0  0
  -24.9170  -28.8260   20.2180 C   0  0  0  0  0  0  0  0  0  0  0  0
  -26.0250  -30.6630   21.4710 C   0  0  0  0  0  2  0  0  0  0  0  0
  -26.1030  -29.2430   20.8360 C   0  0  0  0  0  0  0  0  0  0  0  0
  -27.2520  -28.3280   20.8450 C   0  0  0  0  0  3  0  0  0  0  0  0
  -26.0020  -26.6820   19.6400 C   0  0  0  0  0  3  0  0  0  0  0  0
  -24.8920  -27.5660   19.5990 C   0  0  0  0  0  3  0  0  0  0  0  0
  -23.6970  -29.7470   20.2430 C   0  0  0  0  0  2  0  0  0  0  0  0
  -24.7280  -31.0220   22.1590 N   0  0  0  0  0  0  0  0  0  0  0  0
  -23.5440  -32.1600   23.7480 O   0  0  0  0  0  0  0  0  0  0  0  0
  -22.7590  -29.4640   22.5820 C   0  0  0  0  0  0  0  0  0  0  0  0
  -21.4290  -29.3000   22.4570 N   0  0  0  0  0  0  0  0  0  0  0  0
  -23.4230  -28.8460   23.4190 O   0  0  0  0  0  0  0  0  0  0  0  0
  -20.9470  -29.8490   21.7580 H   0  0  0  0  0  0  0  0  0  0  0  0
  -18.0450  -28.0940   22.9700 C   0  0  0  0  0  0  0  0  0  0  0  0
  -20.6050  -28.3690   23.2350 C   0  0  0  0  0  3  0  0  0  0  0  0
  -20.7100  -26.9320   22.6750 C   0  0  0  0  0  2  0  0  0  0  0  0
  -19.6100  -26.5970   21.6620 C   0  0  0  0  0  2  0  0  0  0  0  0
  -18.2270  -26.7410   22.3020 C   0  0  0  0  0  2  0  0  0  0  0  0
  -19.1610  -28.8650   23.3930 C   0  0  0  0  0  0  0  0  0  0  0  0
  -18.9340  -30.1290   23.9800 C   0  0  0  0  0  3  0  0  0  0  0  0
  -17.6270  -30.6230   24.1460 C   0  0  0  0  0  3  0  0  0  0  0  0
  -16.5270  -29.8510   23.7360 C   0  0  0  0  0  3  0  0  0  0  0  0
  -16.7360  -28.5880   23.1540 C   0  0  0  0  0  3  0  0  0  0  0  0
  -25.9030  -32.5220   23.8700 C   0  0  0  0  0  3  0  0  0  0  0  0
  -26.3990  -31.7780   25.1700 C   0  0  1  0  0  0  0  0  0  0  0  0
  -25.2910  -31.5630   26.2280 C   0  0  0  0  0  1  0  0  0  0  0  0
  -26.9880  -30.3920   24.8250 C   0  0  0  0  0  1  0  0  0  0  0  0
  -27.5400  -32.5860   25.8330 C   0  0  0  0  0  1  0  0  0  0  0  0
  -25.5790  -33.9250   24.1820 N   0  0  0  0  0  0  0  0  0  0  0  0
  -25.9180  -34.9790   23.4280 C   0  0  0  0  0  0  0  0  0  0  0  0
  -26.5980  -34.8730   22.4040 O   0  0  0  0  0  0  0  0  0  0  0  0
  -24.9750  -34.0820   24.9760 H   0  0  0  0  0  0  0  0  0  0  0  0
  -24.1960  -36.7800   23.0550 C   0  0  0  0  0  1  0  0  0  0  0  0
  -25.4290  -36.3720   23.8780 C   0  0  0  0  0  3  0  0  0  0  0  0
  -27.5550  -37.2630   24.7290 C   0  0  0  0  0  1  0  0  0  0  0  0
  -26.4640  -37.4250   23.7710 N   0  0  0  0  0  0  0  0  0  0  0  0
  -26.0560  -38.3460   23.9080 H   0  0  0  0  0  0  0  0  0  0  0  0
  1  2  1  0
  1  6  1  0
  2  4  1  0
  3  1  2  0
  6  5  1  0
  7 15  1  0
  8 13  1  0
  9 10  1  0
  9  8  1  0
 11 10  1  0
 11 20  1  0
 11 12  1  0
 13  7  1  0
 13 12  1  0
 14  7  2  0
 15  6  1  0
 16 15  1  0
 17 18  2  0
 18 37  1  0
 19 18  1  0
 19 22  1  0
 20 17  1  0
 20 21  1  0
 21 19  2  0
 22 23  1  0
 23 24  2  0
 25 28  1  0
 25 24  1  0
 26 25  2  0
 27 26  1  0
 27 22  2  0
 28 29  1  0
 29 30  1  0
 30 31  2  0
 32 31  1  0
 32 36  1  0
 33 32  2  0
 34 29  2  0
 34 33  1  0
 35 34  1  0
 37 38  1  0
 38 41  1  0
 38 40  1  0
 39 37  2  0
 42 43  1  0
 42 17  1  0
 44 42  1  0
 45  2  1  0
 45 46  1  0
 47 46  1  0
 48 59  2  0
 49 47  1  0
 49 54  1  0
 50 58  1  0
 50 60  1  0
 51 57  1  0
 51 53  1  0
 52 58  1  0
 53 54  2  0
 53 52  1  0
 55 49  2  0
 56 55  1  0
 56 51  2  0
 57 50  1  0
 58 48  1  0
 60 62  2  0
 61 60  1  0
 63 61  1  0
 64 73  2  0
 64 69  1  0
 65 61  1  0
 65 69  1  0
 66 65  1  0
 67 68  1  0
 67 66  1  0
 68 64  1  0
 69 70  2  0
 70 71  1  0
 72 71  2  0
 73 72  1  0
 74 48  1  0
 74 79  1  0
 74 75  1  0
 75 78  1  1
 75 76  1  0
 77 75  1  0
 79 82  1  0
 80 84  1  0
 80 79  1  0
 81 80  2  0
 84 83  1  0
 86 84  1  0
 86 87  1  0
 86 85  1  0
M  ISO  4   7 100  15 100  46 101  47 101
M  END
>  <TORSDO>  (58) 
F 19

>  <SCORE>  (58) 
-16.531

>  <name>  (58) 
57

>  <ligand_id>  (58) 
57

>  <original_smiles>  (58) 
[H]c1c([H])c([H])c2c(c1[H])C([H])([H])C([H])([H])C([H])([H])C2([H])N([H])C(=O)C1([H])N(C(=O)C([H])(N([H])C(=O)C([H])(N([H])C([H])([H])[H])C([H])([H])[H])C(C([H])([H])[H])(C([H])([H])[H])C([H])([H])[H])C([H])([H])c2c([H])c(OC([H])([H])C([H])([H])N([H])C(=O)C([H])(N([H])C(=O)N3C([H])([H])C([H])([H])C([H])([H])C([H])(n4nc(-c5c([H])c([H])c(Oc6c([H])c([H])c(F)c([H])c6F)c([H])c5[H])c(C(=O)N([H])[H])c4N([H])[H])C3([H])[H])C([H])([H])[H])c([H])c([H])c2C1([H])[H]

>  <smiles>  (58) 
[H]c1c([H])c([H])c2c(c1[H])C([H])([H])C([H])([H])C([H])([H])C2([H])N([H])C(=O)C1([H])N(C(=O)C([H])(N([H])C(=O)C([H])(N([H])C([H])([H])[H])C([H])([H])[H])C(C([H])([H])[H])(C([H])([H])[H])C([H])([H])[H])C([H])([H])c2c([H])c(OC([H])([H])C([H])([H])N([H])C(=O)C([H])(N([H])C(=O)N3C([H])([H])C([H])([H])C([H])([H])C([H])(n4nc(-c5c([H])c([H])c(Oc6c([H])c([H])c(F)c([H])c6F)c([H])c5[H])c(C(=O)N([H])[H])c4N([H])[H])C3([H])[H])C([H])([H])[H])c([H])c([H])c2C1([H])[H]

$$$$
58:0:0
     RDKit          3D

101108  0  0  1  0  0  0  0  0999 V2000
  -30.9480  -20.2890   22.3580 C   0  0  0  0  0  3  0  0  0  0  0  0
  -31.4130  -19.9930   23.7900 C   0  0  0  0  0  0  0  0  0  0  0  0
  -30.9260  -18.9180   24.4000 N   0  0  0  0  0  0  0  0  0  0  0  0
  -32.2230  -20.7320   24.3480 O   0  0  0  0  0  0  0  0  0  0  0  0
  -30.2370  -18.3390   23.9420 H   0  0  0  0  0  0  0  0  0  0  0  0
  -31.2320  -18.6750   25.3300 H   0  0  0  0  0  0  0  0  0  0  0  0
  -30.6150  -21.7310   22.2400 N   0  0  0  0  0  4  0  0  0  0  0  0
  -30.0860  -21.9360   23.0730 H   0  0  0  0  0  0  0  0  0  0  0  0
  -31.4740  -22.2550   22.3220 H   0  0  0  0  0  0  0  0  0  0  0  0
  -29.8460  -22.1370   21.0330 C   0  0  0  0  0  2  0  0  0  0  0  0
  -28.9930  -23.4010   21.2390 C   0  0  0  0  0  2  0  0  0  0  0  0
  -28.6120  -23.8720   19.9490 O   0  0  0  0  0  0  0  0  0  0  0  0
  -27.7330  -24.9880   19.9840 C   0  0  0  0  0  2  0  0  0  0  0  0
  -27.9700  -25.8480   18.7280 C   0  0  0  0  0  2  0  0  0  0  0  0
  -27.9550  -27.2320   19.0700 O   0  0  0  0  0  0  0  0  0  0  0  0
  -24.5600  -31.8560   23.2350 C   0  0  0  0  0  0  0  0  0  0  0  0
  -26.7660  -27.8950   19.2910 C   0  0  0  0  0  0  0  0  0  0  0  0
  -23.1650  -30.7620   21.5100 C   0  0  0  0  0  3  0  0  0  0  0  0
  -24.4300  -29.4270   19.7460 C   0  0  0  0  0  0  0  0  0  0  0  0
  -25.6780  -31.0860   21.1480 C   0  0  0  0  0  2  0  0  0  0  0  0
  -25.6520  -29.8310   20.2980 C   0  0  0  0  0  0  0  0  0  0  0  0
  -26.8190  -29.0780   20.0630 C   0  0  0  0  0  3  0  0  0  0  0  0
  -25.5200  -27.4880   18.7560 C   0  0  0  0  0  3  0  0  0  0  0  0
  -24.3580  -28.2510   18.9750 C   0  0  0  0  0  3  0  0  0  0  0  0
  -23.2290  -30.3000   20.0280 C   0  0  0  0  0  2  0  0  0  0  0  0
  -24.4910  -31.2380   22.0210 N   0  0  0  0  0  0  0  0  0  0  0  0
  -23.5390  -32.0670   23.9050 O   0  0  0  0  0  0  0  0  0  0  0  0
  -22.5550  -29.6190   22.3510 C   0  0  0  0  0  0  0  0  0  0  0  0
  -21.2250  -29.4610   22.2620 N   0  0  0  0  0  0  0  0  0  0  0  0
  -23.2710  -28.8820   23.0350 O   0  0  0  0  0  0  0  0  0  0  0  0
  -20.7080  -30.1000   21.6760 H   0  0  0  0  0  0  0  0  0  0  0  0
  -17.8750  -28.2030   22.7320 C   0  0  0  0  0  0  0  0  0  0  0  0
  -20.4410  -28.4350   22.9420 C   0  0  0  0  0  3  0  0  0  0  0  0
  -20.5220  -27.0860   22.1920 C   0  0  0  0  0  2  0  0  0  0  0  0
  -19.3840  -26.8860   21.1860 C   0  0  0  0  0  2  0  0  0  0  0  0
  -18.0260  -26.9470   21.8880 C   0  0  0  0  0  2  0  0  0  0  0  0
  -19.0080  -28.9090   23.2140 C   0  0  0  0  0  0  0  0  0  0  0  0
  -18.8120  -30.0890   23.9640 C   0  0  0  0  0  3  0  0  0  0  0  0
  -17.5150  -30.5650   24.2320 C   0  0  0  0  0  3  0  0  0  0  0  0
  -16.3970  -29.8550   23.7640 C   0  0  0  0  0  3  0  0  0  0  0  0
  -16.5770  -28.6750   23.0230 C   0  0  0  0  0  3  0  0  0  0  0  0
  -25.9200  -32.3410   23.8270 C   0  0  0  0  0  3  0  0  0  0  0  0
  -25.7140  -33.6990   24.3460 N   0  0  0  0  0  0  0  0  0  0  0  0
  -26.0750  -34.8170   23.7050 C   0  0  0  0  0  0  0  0  0  0  0  0
  -26.6890  -34.8090   22.6360 O   0  0  0  0  0  0  0  0  0  0  0  0
  -25.1630  -33.7870   25.1880 H   0  0  0  0  0  0  0  0  0  0  0  0
  -24.4430  -36.7300   23.6580 C   0  0  0  0  0  1  0  0  0  0  0  0
  -25.6870  -36.1580   24.3560 C   0  0  0  0  0  3  0  0  0  0  0  0
  -27.8970  -36.8110   25.2060 C   0  0  0  0  0  1  0  0  0  0  0  0
  -26.7770  -37.1570   24.3310 N   0  0  0  0  0  0  0  0  0  0  0  0
  -26.4310  -38.0720   24.6060 H   0  0  0  0  0  0  0  0  0  0  0  0
  -26.4840  -31.3890   24.9530 C   0  0  1  0  0  0  0  0  0  0  0  0
  -25.4560  -31.0790   26.0640 C   0  0  0  0  0  1  0  0  0  0  0  0
  -26.9540  -30.0430   24.3520 C   0  0  0  0  0  1  0  0  0  0  0  0
  -27.7250  -32.0360   25.6130 C   0  0  0  0  0  1  0  0  0  0  0  0
  -32.0250  -19.7980   21.3400 C   0  0  0  0  0  2  0  0  0  0  0  0
  -31.4170  -19.1230   20.1080 C   0  0  0  0  0  0  0  0  0  0  0  0
  -30.8600  -17.9110   20.2720 N   0  0  0  0  0  0  0  0  0  0  0  0
  -31.4220  -19.7170   19.0280 O   0  0  0  0  0  0  0  0  0  0  0  0
  -30.9610  -17.4800   21.1810 H   0  0  0  0  0  0  0  0  0  0  0  0
  -29.9540  -17.2520   19.3220 C   0  0  0  0  0  3  0  0  0  0  0  0
  -28.4930  -17.4330   19.7690 C   0  0  0  0  0  2  0  0  0  0  0  0
  -27.6700  -17.1450   18.6560 O   0  0  0  0  0  0  0  0  0  0  0  0
  -28.2050  -17.2560   17.8650 H   0  0  0  0  0  0  0  0  0  0  0  0
  -30.3010  -15.7860   18.9340 C   0  0  0  0  0  2  0  0  0  0  0  0
  -31.0420  -14.8440   19.9070 C   0  0  0  0  0  0  0  0  0  0  0  0
  -30.7940  -12.4790   19.4810 C   0  0  0  0  0  2  0  0  0  0  0  0
  -29.9210  -12.3860   18.2020 C   0  0  0  0  0  2  0  0  0  0  0  0
  -28.4140  -12.6710   18.4410 C   0  0  0  0  0  2  0  0  0  0  0  0
  -28.0880  -12.9380   19.9140 C   0  0  0  0  0  3  0  0  0  0  0  0
  -29.0770  -13.6860   20.8160 C   0  0  0  0  0  2  0  0  0  0  0  0
  -30.4170  -13.6920   20.2200 N   0  0  0  0  0  0  0  0  0  0  0  0
  -32.2610  -14.9590   19.9070 O   0  0  0  0  0  0  0  0  0  0  0  0
  -25.6850  -13.9510   20.4480 C   0  0  0  0  0  0  0  0  0  0  0  0
  -24.5520  -13.2510   20.7940 C   0  0  0  0  0  0  0  0  0  0  0  0
  -24.9320  -11.8810   20.7920 C   0  0  0  0  0  0  0  0  0  0  0  0
  -26.6810  -12.9800   20.2890 N   0  0  0  0  0  0  0  0  0  0  0  0
  -26.2030  -11.7520   20.5270 N   0  0  0  0  0  0  0  0  0  0  0  0
  -24.1870  -10.6440   20.9740 C   0  0  0  0  0  0  0  0  0  0  0  0
  -24.5720   -9.7070   21.9550 C   0  0  0  0  0  3  0  0  0  0  0  0
  -23.8480   -8.5080   22.1120 C   0  0  0  0  0  3  0  0  0  0  0  0
  -22.7270   -8.2500   21.2860 C   0  0  0  0  0  0  0  0  0  0  0  0
  -22.3740   -9.1770   20.2890 C   0  0  0  0  0  3  0  0  0  0  0  0
  -23.0990  -10.3670   20.1300 C   0  0  0  0  0  3  0  0  0  0  0  0
  -21.9730   -7.1100   21.3510 O   0  0  0  0  0  0  0  0  0  0  0  0
  -21.7880   -6.4440   22.5340 C   0  0  0  0  0  0  0  0  0  0  0  0
  -21.1910   -7.0610   23.6550 C   0  0  0  0  0  3  0  0  0  0  0  0
  -20.9580   -6.3140   24.8270 C   0  0  0  0  0  3  0  0  0  0  0  0
  -21.3160   -4.9530   24.8770 C   0  0  0  0  0  0  0  0  0  0  0  0
  -21.9070   -4.3380   23.7590 C   0  0  0  0  0  3  0  0  0  0  0  0
  -22.1410   -5.0810   22.5920 C   0  0  0  0  0  0  0  0  0  0  0  0
  -22.6950   -4.4790   21.5130 F   0  0  0  0  0  0  0  0  0  0  0  0
  -21.0780   -4.2350   26.0000 F   0  0  0  0  0  0  0  0  0  0  0  0
  -23.1680  -13.7810   21.0330 C   0  0  0  0  0  0  0  0  0  0  0  0
  -22.4010  -13.1130   21.8880 N   0  0  0  0  0  0  0  0  0  0  0  0
  -22.7710  -14.8110   20.4920 O   0  0  0  0  0  0  0  0  0  0  0  0
  -22.7330  -12.2820   22.3530 H   0  0  0  0  0  0  0  0  0  0  0  0
  -21.4650  -13.4440   22.0830 H   0  0  0  0  0  0  0  0  0  0  0  0
  -25.9110  -15.3090   20.2690 N   0  0  0  0  0  0  0  0  0  0  0  0
  -25.1720  -15.9910   20.3900 H   0  0  0  0  0  0  0  0  0  0  0  0
  -26.7990  -15.7680   20.0500 H   0  0  0  0  0  0  0  0  0  0  0  0
  1 56  1  0
  1  2  1  0
  2  4  2  0
  2  3  1  0
  3  6  1  0
  5  3  1  0
  7  9  1  0
  7  1  1  0
  7  8  1  0
 10 11  1  0
 10  7  1  0
 12 13  1  0
 12 11  1  0
 14 15  1  0
 14 13  1  0
 15 17  1  0
 16 27  2  0
 17 22  1  0
 18 26  1  0
 18 28  1  0
 19 25  1  0
 19 21  1  0
 20 26  1  0
 21 20  1  0
 22 21  2  0
 23 24  1  0
 23 17  2  0
 24 19  2  0
 25 18  1  0
 26 16  1  0
 28 30  2  0
 29 28  1  0
 31 29  1  0
 32 41  2  0
 32 37  1  0
 33 29  1  0
 33 37  1  0
 34 33  1  0
 35 36  1  0
 35 34  1  0
 36 32  1  0
 37 38  2  0
 38 39  1  0
 40 39  2  0
 41 40  1  0
 42 16  1  0
 42 43  1  0
 42 52  1  0
 43 46  1  0
 44 43  1  0
 44 48  1  0
 45 44  2  0
 48 47  1  0
 50 48  1  0
 50 51  1  0
 50 49  1  0
 52 55  1  1
 52 53  1  0
 54 52  1  0
 57 58  1  0
 57 56  1  0
 58 60  1  0
 59 57  2  0
 61 65  1  0
 61 62  1  0
 61 58  1  0
 63 62  1  0
 64 63  1  0
 65 66  1  0
 66 73  2  0
 66 72  1  0
 67 72  1  0
 68 69  1  0
 68 67  1  0
 70 69  1  0
 70 77  1  0
 70 71  1  0
 72 71  1  0
 74 75  2  0
 75 94  1  0
 76 75  1  0
 76 79  1  0
 77 74  1  0
 77 78  1  0
 78 76  2  0
 79 80  1  0
 80 81  2  0
 82 85  1  0
 82 81  1  0
 83 82  2  0
 84 83  1  0
 84 79  2  0
 85 86  1  0
 86 91  2  0
 86 87  1  0
 87 88  2  0
 88 89  1  0
 89 93  1  0
 90 89  2  0
 91 90  1  0
 92 91  1  0
 94 95  1  0
 95 98  1  0
 95 97  1  0
 96 94  2  0
 99100  1  0
 99 74  1  0
101 99  1  0
M  ISO  4  14 101  15 101  65 100  66 100
M  END
>  <TORSDO>  (59) 
F 29

>  <SCORE>  (59) 
-10.563

>  <name>  (59) 
58

>  <ligand_id>  (59) 
58

>  <original_smiles>  (59) 
[H]OC([H])([H])C([H])(N([H])C(=O)C([H])([H])C([H])(C(=O)N([H])[H])[N+]([H])([H])C([H])([H])C([H])([H])OC([H])([H])C([H])([H])Oc1c([H])c([H])c2c(c1[H])C([H])([H])N(C(=O)C([H])(N([H])C(=O)C([H])(N([H])C([H])([H])[H])C([H])([H])[H])C(C([H])([H])[H])(C([H])([H])[H])C([H])([H])[H])C([H])(C(=O)N([H])C1([H])c3c([H])c([H])c([H])c([H])c3C([H])([H])C([H])([H])C1([H])[H])C2([H])[H])C([H])([H])C(=O)N1C([H])([H])C([H])([H])C([H])([H])C([H])(n2nc(-c3c([H])c([H])c(Oc4c([H])c([H])c(F)c([H])c4F)c([H])c3[H])c(C(=O)N([H])[H])c2N([H])[H])C1([H])[H]

>  <smiles>  (59) 
[H]OC([H])([H])C([H])(N([H])C(=O)C([H])([H])C([H])(C(=O)N([H])[H])[N+]([H])([H])C([H])([H])C([H])([H])OC([H])([H])C([H])([H])Oc1c([H])c([H])c2c(c1[H])C([H])([H])N(C(=O)C([H])(N([H])C(=O)C([H])(N([H])C([H])([H])[H])C([H])([H])[H])C(C([H])([H])[H])(C([H])([H])[H])C([H])([H])[H])C([H])(C(=O)N([H])C1([H])c3c([H])c([H])c([H])c([H])c3C([H])([H])C([H])([H])C1([H])[H])C2([H])[H])C([H])([H])C(=O)N1C([H])([H])C([H])([H])C([H])([H])C([H])(n2nc(-c3c([H])c([H])c(Oc4c([H])c([H])c(F)c([H])c4F)c([H])c3[H])c(C(=O)N([H])[H])c2N([H])[H])C1([H])[H]

$$$$
59:0:0
     RDKit          3D

 99106  0  0  1  0  0  0  0  0999 V2000
  -29.0680  -22.9590   19.2640 C   0  0  0  0  0  0  0  0  0  0  0  0
  -28.6860  -21.7510   19.7270 N   0  0  0  0  0  0  0  0  0  0  0  0
  -30.1590  -23.1370   18.7240 O   0  0  0  0  0  0  0  0  0  0  0  0
  -27.7770  -21.6870   20.1700 H   0  0  0  0  0  0  0  0  0  0  0  0
  -29.2330  -20.4210   19.4020 C   0  0  0  0  0  3  0  0  0  0  0  0
  -28.0180  -19.5660   18.9930 C   0  0  0  0  0  0  0  0  0  0  0  0
  -28.1150  -18.7840   17.9260 N   0  0  0  0  0  0  0  0  0  0  0  0
  -26.9880  -19.6020   19.6650 O   0  0  0  0  0  0  0  0  0  0  0  0
  -28.9530  -18.7710   17.3660 H   0  0  0  0  0  0  0  0  0  0  0  0
  -27.3380  -18.1930   17.6650 H   0  0  0  0  0  0  0  0  0  0  0  0
  -30.0070  -19.7840   20.5930 C   0  0  0  0  0  2  0  0  0  0  0  0
  -30.3590  -18.2750   20.4060 C   0  0  0  0  0  2  0  0  0  0  0  0
  -30.9260  -17.6090   21.6730 C   0  0  0  0  0  2  0  0  0  0  0  0
  -31.6870  -16.2890   21.4220 C   0  0  0  0  0  2  0  0  0  0  0  0
  -31.2660  -14.2000   20.1570 C   0  0  0  0  0  0  0  0  0  0  0  0
  -30.7720  -12.0670   19.0220 C   0  0  0  0  0  2  0  0  0  0  0  0
  -29.7940  -12.2650   17.8480 C   0  0  0  0  0  2  0  0  0  0  0  0
  -28.3350  -12.2160   18.3320 C   0  0  0  0  0  2  0  0  0  0  0  0
  -28.0820  -13.1060   19.5770 C   0  0  0  0  0  3  0  0  0  0  0  0
  -29.1640  -12.8790   20.6570 C   0  0  0  0  0  2  0  0  0  0  0  0
  -30.4840  -13.0930   20.0370 N   0  0  0  0  0  0  0  0  0  0  0  0
  -32.3180  -14.3410   19.5280 O   0  0  0  0  0  0  0  0  0  0  0  0
  -30.8480  -15.1530   21.0050 N   0  0  0  0  0  0  0  0  0  0  0  0
  -29.9650  -15.0080   21.4720 H   0  0  0  0  0  0  0  0  0  0  0  0
  -25.7490  -13.8370   20.3800 C   0  0  0  0  0  0  0  0  0  0  0  0
  -24.6490  -13.1200   20.7730 C   0  0  0  0  0  0  0  0  0  0  0  0
  -25.0320  -11.7440   20.7090 C   0  0  0  0  0  0  0  0  0  0  0  0
  -26.7340  -12.9010   20.1030 N   0  0  0  0  0  0  0  0  0  0  0  0
  -26.3070  -11.6370   20.3580 N   0  0  0  0  0  0  0  0  0  0  0  0
  -24.2420  -10.5200   20.9060 C   0  0  0  0  0  0  0  0  0  0  0  0
  -24.6070   -9.5510   21.8680 C   0  0  0  0  0  3  0  0  0  0  0  0
  -23.8200   -8.3940   22.0520 C   0  0  0  0  0  3  0  0  0  0  0  0
  -22.6540   -8.1970   21.2750 C   0  0  0  0  0  0  0  0  0  0  0  0
  -22.3090   -9.1500   20.3030 C   0  0  0  0  0  3  0  0  0  0  0  0
  -23.0970  -10.3000   20.1170 C   0  0  0  0  0  3  0  0  0  0  0  0
  -21.8440   -7.0890   21.3670 O   0  0  0  0  0  0  0  0  0  0  0  0
  -21.6860   -6.4090   22.5480 C   0  0  0  0  0  0  0  0  0  0  0  0
  -21.1660   -7.0330   23.7020 C   0  0  0  0  0  3  0  0  0  0  0  0
  -20.9540   -6.2800   24.8750 C   0  0  0  0  0  3  0  0  0  0  0  0
  -21.2530   -4.9050   24.8930 C   0  0  0  0  0  0  0  0  0  0  0  0
  -21.7650   -4.2800   23.7410 C   0  0  0  0  0  3  0  0  0  0  0  0
  -21.9780   -5.0310   22.5710 C   0  0  0  0  0  0  0  0  0  0  0  0
  -22.4510   -4.4200   21.4590 F   0  0  0  0  0  0  0  0  0  0  0  0
  -21.0420   -4.1790   26.0160 F   0  0  0  0  0  0  0  0  0  0  0  0
  -23.2920  -13.6690   21.1020 C   0  0  0  0  0  0  0  0  0  0  0  0
  -22.5590  -13.0030   21.9870 N   0  0  0  0  0  0  0  0  0  0  0  0
  -22.8910  -14.7220   20.6080 O   0  0  0  0  0  0  0  0  0  0  0  0
  -22.8970  -12.1490   22.4070 H   0  0  0  0  0  0  0  0  0  0  0  0
  -21.6480  -13.3500   22.2500 H   0  0  0  0  0  0  0  0  0  0  0  0
  -25.9920  -15.1970   20.2140 N   0  0  0  0  0  0  0  0  0  0  0  0
  -25.2950  -15.9110   20.3940 H   0  0  0  0  0  0  0  0  0  0  0  0
  -26.8720  -15.5770   19.8890 H   0  0  0  0  0  0  0  0  0  0  0  0
  -27.9790  -24.0620   19.2460 C   0  0  0  0  0  3  0  0  0  0  0  0
  -27.0890  -23.6890   18.1200 N   0  0  0  0  0  4  0  0  0  0  0  0
  -27.6480  -23.5050   17.3020 H   0  0  0  0  0  0  0  0  0  0  0  0
  -26.4340  -24.4180   17.8920 H   0  0  0  0  0  0  0  0  0  0  0  0
  -26.5760  -22.8520   18.3370 H   0  0  0  0  0  0  0  0  0  0  0  0
  -28.4720  -25.5500   19.0750 C   0  0  0  0  0  2  0  0  0  0  0  0
  -28.1620  -26.5080   20.1160 O   0  0  0  0  0  0  0  0  0  0  0  0
  -24.4900  -31.8200   23.1630 C   0  0  0  0  0  0  0  0  0  0  0  0
  -27.0080  -27.2820   20.0760 C   0  0  0  0  0  0  0  0  0  0  0  0
  -23.2410  -30.4440   21.5350 C   0  0  0  0  0  3  0  0  0  0  0  0
  -24.6520  -28.8780   20.1030 C   0  0  0  0  0  0  0  0  0  0  0  0
  -25.7780  -30.7320   21.3290 C   0  0  0  0  0  2  0  0  0  0  0  0
  -25.8260  -29.3560   20.6940 C   0  0  0  0  0  0  0  0  0  0  0  0
  -27.0030  -28.5620   20.6860 C   0  0  0  0  0  3  0  0  0  0  0  0
  -25.8040  -26.8330   19.4890 C   0  0  0  0  0  3  0  0  0  0  0  0
  -24.6360  -27.6120   19.5010 C   0  0  0  0  0  3  0  0  0  0  0  0
  -23.4300  -29.7660   20.1530 C   0  0  0  0  0  2  0  0  0  0  0  0
  -24.5220  -31.0140   22.0660 N   0  0  0  0  0  0  0  0  0  0  0  0
  -23.4170  -32.1250   23.7050 O   0  0  0  0  0  0  0  0  0  0  0  0
  -22.5730  -29.4360   22.4980 C   0  0  0  0  0  0  0  0  0  0  0  0
  -21.2420  -29.3000   22.3880 N   0  0  0  0  0  0  0  0  0  0  0  0
  -23.2450  -28.7790   23.2960 O   0  0  0  0  0  0  0  0  0  0  0  0
  -20.7650  -29.8840   21.7170 H   0  0  0  0  0  0  0  0  0  0  0  0
  -17.8300  -28.2270   22.9290 C   0  0  0  0  0  0  0  0  0  0  0  0
  -20.4010  -28.3870   23.1590 C   0  0  0  0  0  3  0  0  0  0  0  0
  -20.4400  -26.9580   22.5700 C   0  0  0  0  0  2  0  0  0  0  0  0
  -19.3120  -26.6840   21.5720 C   0  0  0  0  0  2  0  0  0  0  0  0
  -17.9440  -26.8760   22.2390 C   0  0  0  0  0  2  0  0  0  0  0  0
  -18.9850  -28.9440   23.3440 C   0  0  0  0  0  0  0  0  0  0  0  0
  -18.8270  -30.2100   23.9460 C   0  0  0  0  0  3  0  0  0  0  0  0
  -17.5470  -30.7640   24.1340 C   0  0  0  0  0  3  0  0  0  0  0  0
  -16.4060  -30.0430   23.7360 C   0  0  0  0  0  3  0  0  0  0  0  0
  -16.5480  -28.7770   23.1390 C   0  0  0  0  0  3  0  0  0  0  0  0
  -25.7920  -32.4210   23.7810 C   0  0  0  0  0  3  0  0  0  0  0  0
  -26.3060  -31.6290   25.0470 C   0  0  1  0  0  0  0  0  0  0  0  0
  -25.2140  -31.3960   26.1180 C   0  0  0  0  0  1  0  0  0  0  0  0
  -26.8750  -30.2520   24.6310 C   0  0  0  0  0  1  0  0  0  0  0  0
  -27.4690  -32.4070   25.7090 C   0  0  0  0  0  1  0  0  0  0  0  0
  -25.5200  -33.8220   24.1220 N   0  0  0  0  0  0  0  0  0  0  0  0
  -25.8840  -34.8700   23.3710 C   0  0  0  0  0  0  0  0  0  0  0  0
  -26.5590  -34.7560   22.3450 O   0  0  0  0  0  0  0  0  0  0  0  0
  -24.9340  -33.9910   24.9260 H   0  0  0  0  0  0  0  0  0  0  0  0
  -24.2170  -36.7140   22.9990 C   0  0  0  0  0  1  0  0  0  0  0  0
  -25.4230  -36.2630   23.8380 C   0  0  0  0  0  3  0  0  0  0  0  0
  -27.5540  -37.0750   24.7450 C   0  0  0  0  0  1  0  0  0  0  0  0
  -26.4890  -37.2870   23.7690 N   0  0  0  0  0  0  0  0  0  0  0  0
  -26.1030  -38.2150   23.9210 H   0  0  0  0  0  0  0  0  0  0  0  0
  1  2  1  0
  2  4  1  0
  3  1  2  0
  5  2  1  0
  5 11  1  0
  6  5  1  0
  6  8  2  0
  7  6  1  0
  9  7  1  0
 10  7  1  0
 12 11  1  0
 12 13  1  0
 14 13  1  0
 15 23  1  0
 16 21  1  0
 17 18  1  0
 17 16  1  0
 19 18  1  0
 19 28  1  0
 19 20  1  0
 21 15  1  0
 21 20  1  0
 22 15  2  0
 23 14  1  0
 23 24  1  0
 25 26  2  0
 26 45  1  0
 27 26  1  0
 27 30  1  0
 28 29  1  0
 28 25  1  0
 29 27  2  0
 30 31  1  0
 31 32  2  0
 33 36  1  0
 33 32  1  0
 34 33  2  0
 35 34  1  0
 35 30  2  0
 36 37  1  0
 37 42  2  0
 37 38  1  0
 38 39  2  0
 39 40  1  0
 40 44  1  0
 41 40  2  0
 42 41  1  0
 43 42  1  0
 45 46  1  0
 46 49  1  0
 46 48  1  0
 47 45  2  0
 50 25  1  0
 50 51  1  0
 52 50  1  0
 53 58  1  0
 53  1  1  0
 54 57  1  0
 54 53  1  0
 55 54  1  0
 56 54  1  0
 58 59  1  0
 60 71  2  0
 61 59  1  0
 61 66  1  0
 62 70  1  0
 62 72  1  0
 63 69  1  0
 63 65  1  0
 64 70  1  0
 65 64  1  0
 66 65  2  0
 67 68  1  0
 67 61  2  0
 68 63  2  0
 69 62  1  0
 70 60  1  0
 72 74  2  0
 73 72  1  0
 75 73  1  0
 76 85  2  0
 76 81  1  0
 77 73  1  0
 77 81  1  0
 78 77  1  0
 79 80  1  0
 79 78  1  0
 80 76  1  0
 81 82  2  0
 82 83  1  0
 84 83  2  0
 85 84  1  0
 86 60  1  0
 86 91  1  0
 86 87  1  0
 87 90  1  1
 87 88  1  0
 89 87  1  0
 91 94  1  0
 92 96  1  0
 92 91  1  0
 93 92  2  0
 96 95  1  0
 98 96  1  0
 98 99  1  0
 98 97  1  0
M  ISO  4  15 100  23 100  58 101  59 101
M  END
>  <TORSDO>  (60) 
F 25

>  <SCORE>  (60) 
-11.836

>  <name>  (60) 
59

>  <ligand_id>  (60) 
59

>  <original_smiles>  (60) 
[H]c1c([H])c([H])c2c(c1[H])C([H])([H])C([H])([H])C([H])([H])C2([H])N([H])C(=O)C1([H])N(C(=O)C([H])(N([H])C(=O)C([H])(N([H])C([H])([H])[H])C([H])([H])[H])C(C([H])([H])[H])(C([H])([H])[H])C([H])([H])[H])C([H])([H])c2c([H])c(OC([H])([H])C([H])(C(=O)N([H])C([H])(C(=O)N([H])[H])C([H])([H])C([H])([H])C([H])([H])C([H])([H])N([H])C(=O)N3C([H])([H])C([H])([H])C([H])([H])C([H])(n4nc(-c5c([H])c([H])c(Oc6c([H])c([H])c(F)c([H])c6F)c([H])c5[H])c(C(=O)N([H])[H])c4N([H])[H])C3([H])[H])[N+]([H])([H])[H])c([H])c([H])c2C1([H])[H]

>  <smiles>  (60) 
[H]c1c([H])c([H])c2c(c1[H])C([H])([H])C([H])([H])C([H])([H])C2([H])N([H])C(=O)C1([H])N(C(=O)C([H])(N([H])C(=O)C([H])(N([H])C([H])([H])[H])C([H])([H])[H])C(C([H])([H])[H])(C([H])([H])[H])C([H])([H])[H])C([H])([H])c2c([H])c(OC([H])([H])C([H])(C(=O)N([H])C([H])(C(=O)N([H])[H])C([H])([H])C([H])([H])C([H])([H])C([H])([H])N([H])C(=O)N3C([H])([H])C([H])([H])C([H])([H])C([H])(n4nc(-c5c([H])c([H])c(Oc6c([H])c([H])c(F)c([H])c6F)c([H])c5[H])c(C(=O)N([H])[H])c4N([H])[H])C3([H])[H])[N+]([H])([H])[H])c([H])c([H])c2C1([H])[H]

$$$$
61:0:0
     RDKit          3D

 90 97  0  0  1  0  0  0  0  0999 V2000
  -29.0830  -19.8480   20.3340 C   0  0  0  0  0  0  0  0  0  0  0  0
  -29.0600  -21.2610   19.8580 N   0  0  0  0  0  0  0  0  0  0  0  0
  -28.3850  -19.6210   21.3220 O   0  0  0  0  0  0  0  0  0  0  0  0
  -29.5530  -21.3440   18.9780 H   0  0  0  0  0  0  0  0  0  0  0  0
  -28.6940  -22.7870   20.4680 C   0  0  0  0  0  2  0  0  0  0  0  0
  -28.1000  -24.3570   19.7830 C   0  0  0  0  0  2  0  0  0  0  0  0
  -28.1640  -25.9520   20.2380 O   0  0  0  0  0  0  0  0  0  0  0  0
  -24.5840  -31.8980   23.2100 C   0  0  0  0  0  0  0  0  0  0  0  0
  -27.1510  -27.0470   20.1440 C   0  0  0  0  0  0  0  0  0  0  0  0
  -23.3940  -30.5150   21.5580 C   0  0  0  0  0  3  0  0  0  0  0  0
  -24.8460  -28.9260   20.1170 C   0  0  0  0  0  0  0  0  0  0  0  0
  -25.9600  -30.7290   21.4180 C   0  0  0  0  0  2  0  0  0  0  0  0
  -26.0310  -29.3260   20.7470 C   0  0  0  0  0  0  0  0  0  0  0  0
  -27.1740  -28.4060   20.7400 C   0  0  0  0  0  3  0  0  0  0  0  0
  -25.9390  -26.8060   19.4590 C   0  0  0  0  0  3  0  0  0  0  0  0
  -24.8250  -27.6880   19.4550 C   0  0  0  0  0  3  0  0  0  0  0  0
  -23.6240  -29.8420   20.1760 C   0  0  0  0  0  2  0  0  0  0  0  0
  -24.6670  -31.0750   22.1160 N   0  0  0  0  0  0  0  0  0  0  0  0
  -23.4930  -32.1820   23.7330 O   0  0  0  0  0  0  0  0  0  0  0  0
  -22.6990  -29.5110   22.5150 C   0  0  0  0  0  0  0  0  0  0  0  0
  -21.3680  -29.3490   22.3910 N   0  0  0  0  0  0  0  0  0  0  0  0
  -23.3640  -28.8770   23.3380 O   0  0  0  0  0  0  0  0  0  0  0  0
  -20.8830  -29.9100   21.7040 H   0  0  0  0  0  0  0  0  0  0  0  0
  -17.9830  -28.1520   22.9080 C   0  0  0  0  0  0  0  0  0  0  0  0
  -20.5460  -28.4050   23.1550 C   0  0  0  0  0  3  0  0  0  0  0  0
  -20.6370  -26.9810   22.5580 C   0  0  0  0  0  2  0  0  0  0  0  0
  -19.5270  -26.6780   21.5480 C   0  0  0  0  0  2  0  0  0  0  0  0
  -18.1500  -26.8150   22.2060 C   0  0  0  0  0  2  0  0  0  0  0  0
  -19.1070  -28.9060   23.3390 C   0  0  0  0  0  0  0  0  0  0  0  0
  -18.8940  -30.1560   23.9600 C   0  0  0  0  0  3  0  0  0  0  0  0
  -17.5910  -30.6530   24.1500 C   0  0  0  0  0  3  0  0  0  0  0  0
  -16.4820  -29.8970   23.7330 C   0  0  0  0  0  3  0  0  0  0  0  0
  -16.6790  -28.6480   23.1180 C   0  0  0  0  0  3  0  0  0  0  0  0
  -25.8530  -32.5380   23.8510 C   0  0  0  0  0  3  0  0  0  0  0  0
  -26.3390  -31.7800   25.1490 C   0  0  1  0  0  0  0  0  0  0  0  0
  -25.2230  -31.5650   26.1990 C   0  0  0  0  0  1  0  0  0  0  0  0
  -26.9200  -30.3930   24.7970 C   0  0  0  0  0  1  0  0  0  0  0  0
  -27.4820  -32.5770   25.8210 C   0  0  0  0  0  1  0  0  0  0  0  0
  -25.5410  -33.9420   24.1710 N   0  0  0  0  0  0  0  0  0  0  0  0
  -25.8880  -34.9960   23.4220 C   0  0  0  0  0  0  0  0  0  0  0  0
  -26.5660  -34.8890   22.3970 O   0  0  0  0  0  0  0  0  0  0  0  0
  -24.9370  -34.0990   24.9640 H   0  0  0  0  0  0  0  0  0  0  0  0
  -24.1850  -36.8150   23.0530 C   0  0  0  0  0  1  0  0  0  0  0  0
  -25.4100  -36.3910   23.8780 C   0  0  0  0  0  3  0  0  0  0  0  0
  -27.5380  -37.2590   24.7470 C   0  0  0  0  0  1  0  0  0  0  0  0
  -26.4560  -37.4330   23.7820 N   0  0  0  0  0  0  0  0  0  0  0  0
  -26.0580  -38.3590   23.9160 H   0  0  0  0  0  0  0  0  0  0  0  0
  -30.0050  -18.4350   19.7950 C   0  0  0  0  0  3  0  0  0  0  0  0
  -30.4520  -15.4470   19.8640 C   0  0  0  0  0  0  0  0  0  0  0  0
  -30.3270  -13.0170   18.9500 C   0  0  0  0  0  2  0  0  0  0  0  0
  -29.3240  -12.8210   17.7860 C   0  0  0  0  0  2  0  0  0  0  0  0
  -27.9180  -12.5300   18.3350 C   0  0  0  0  0  2  0  0  0  0  0  0
  -27.5460  -13.4750   19.5040 C   0  0  0  0  0  3  0  0  0  0  0  0
  -28.6740  -13.6280   20.5500 C   0  0  0  0  0  2  0  0  0  0  0  0
  -29.8470  -14.1520   19.8300 N   0  0  0  0  0  0  0  0  0  0  0  0
  -31.6470  -15.3670   19.5520 O   0  0  0  0  0  0  0  0  0  0  0  0
  -29.7650  -16.7680   20.0550 N   0  0  0  0  0  0  0  0  0  0  0  0
  -28.8070  -16.6110   20.3310 H   0  0  0  0  0  0  0  0  0  0  0  0
  -25.2380  -13.9990   20.4430 C   0  0  0  0  0  0  0  0  0  0  0  0
  -24.2070  -13.2080   20.8660 C   0  0  0  0  0  0  0  0  0  0  0  0
  -24.6760  -11.8620   20.7700 C   0  0  0  0  0  0  0  0  0  0  0  0
  -26.2630  -13.1360   20.1040 N   0  0  0  0  0  0  0  0  0  0  0  0
  -25.9430  -11.8430   20.3690 N   0  0  0  0  0  0  0  0  0  0  0  0
  -23.9670  -10.5910   20.9760 C   0  0  0  0  0  0  0  0  0  0  0  0
  -24.4360   -9.6230   21.8920 C   0  0  0  0  0  3  0  0  0  0  0  0
  -23.7230   -8.4210   22.0900 C   0  0  0  0  0  3  0  0  0  0  0  0
  -22.5280   -8.1780   21.3720 C   0  0  0  0  0  0  0  0  0  0  0  0
  -22.0790   -9.1350   20.4440 C   0  0  0  0  0  3  0  0  0  0  0  0
  -22.7930  -10.3280   20.2450 C   0  0  0  0  0  3  0  0  0  0  0  0
  -21.7840   -7.0280   21.4790 O   0  0  0  0  0  0  0  0  0  0  0  0
  -21.7490   -6.2980   22.6410 C   0  0  0  0  0  0  0  0  0  0  0  0
  -21.2870   -6.8530   23.8560 C   0  0  0  0  0  3  0  0  0  0  0  0
  -21.2020   -6.0480   25.0090 C   0  0  0  0  0  3  0  0  0  0  0  0
  -21.5680   -4.6910   24.9510 C   0  0  0  0  0  0  0  0  0  0  0  0
  -22.0230   -4.1350   23.7420 C   0  0  0  0  0  3  0  0  0  0  0  0
  -22.1090   -4.9360   22.5900 C   0  0  0  0  0  0  0  0  0  0  0  0
  -22.5270   -4.3910   21.4210 F   0  0  0  0  0  0  0  0  0  0  0  0
  -21.4790   -3.9160   26.0570 F   0  0  0  0  0  0  0  0  0  0  0  0
  -22.8300  -13.6730   21.2370 C   0  0  0  0  0  0  0  0  0  0  0  0
  -22.1590  -12.9530   22.1280 N   0  0  0  0  0  0  0  0  0  0  0  0
  -22.3600  -14.7100   20.7720 O   0  0  0  0  0  0  0  0  0  0  0  0
  -22.5530  -12.1140   22.5270 H   0  0  0  0  0  0  0  0  0  0  0  0
  -21.2360  -13.2470   22.4160 H   0  0  0  0  0  0  0  0  0  0  0  0
  -25.3810  -15.3760   20.2870 N   0  0  0  0  0  0  0  0  0  0  0  0
  -24.6250  -16.0220   20.4790 H   0  0  0  0  0  0  0  0  0  0  0  0
  -26.1940  -15.8270   19.8880 H   0  0  0  0  0  0  0  0  0  0  0  0
  -31.9510  -20.2420   20.1130 C   0  0  0  0  0  1  0  0  0  0  0  0
  -32.4500  -18.1220   19.0250 C   0  0  0  0  0  1  0  0  0  0  0  0
  -31.8990  -18.2470   21.5380 C   0  0  0  0  0  1  0  0  0  0  0  0
  -31.5370  -18.7430   20.1150 C   0  0  2  0  0  0  0  0  0  0  0  0
  1  3  2  0
  2  1  1  0
  2  5  1  0
  4  2  1  0
  6  7  1  0
  6  5  1  0
  8 19  2  0
  9  7  1  0
  9 14  1  0
 10 18  1  0
 10 20  1  0
 11 17  1  0
 11 13  1  0
 12 18  1  0
 13 12  1  0
 14 13  2  0
 15  9  2  0
 16 15  1  0
 16 11  2  0
 17 10  1  0
 18  8  1  0
 20 22  2  0
 21 20  1  0
 23 21  1  0
 24 33  2  0
 24 29  1  0
 25 21  1  0
 25 29  1  0
 26 25  1  0
 27 28  1  0
 27 26  1  0
 28 24  1  0
 29 30  2  0
 30 31  1  0
 32 31  2  0
 33 32  1  0
 34  8  1  0
 34 39  1  0
 34 35  1  0
 35 38  1  1
 35 36  1  0
 37 35  1  0
 39 42  1  0
 40 44  1  0
 40 39  1  0
 41 40  2  0
 44 43  1  0
 46 44  1  0
 46 47  1  0
 46 45  1  0
 48 57  1  0
 48 90  1  0
 48  1  1  0
 49 57  1  0
 50 55  1  0
 51 52  1  0
 51 50  1  0
 53 52  1  0
 53 62  1  0
 53 54  1  0
 55 49  1  0
 55 54  1  0
 56 49  2  0
 57 58  1  0
 59 60  2  0
 60 79  1  0
 61 60  1  0
 61 64  1  0
 62 63  1  0
 62 59  1  0
 63 61  2  0
 64 65  1  0
 65 66  2  0
 67 70  1  0
 67 66  1  0
 68 67  2  0
 69 68  1  0
 69 64  2  0
 70 71  1  0
 71 72  1  0
 72 73  2  0
 74 73  1  0
 74 78  1  0
 75 74  2  0
 76 71  2  0
 76 75  1  0
 77 76  1  0
 79 80  1  0
 80 83  1  0
 80 82  1  0
 81 79  2  0
 84 59  1  0
 84 85  1  0
 86 84  1  0
 90 87  1  1
 88 90  1  0
 90 89  1  0
M  ISO  4   6 101   7 101  49 100  57 100
M  END
>  <TORSDO>  (61) 
F 20

>  <SCORE>  (61) 
-15.783

>  <name>  (61) 
61

>  <ligand_id>  (61) 
61

>  <original_smiles>  (61) 
[H]c1c([H])c([H])c2c(c1[H])C([H])([H])C([H])([H])C([H])([H])C2([H])N([H])C(=O)C1([H])N(C(=O)C([H])(N([H])C(=O)C([H])(N([H])C([H])([H])[H])C([H])([H])[H])C(C([H])([H])[H])(C([H])([H])[H])C([H])([H])[H])C([H])([H])c2c([H])c(OC([H])([H])C([H])([H])N([H])C(=O)C([H])(N([H])C(=O)N3C([H])([H])C([H])([H])C([H])([H])C([H])(n4nc(-c5c([H])c([H])c(Oc6c([H])c([H])c(F)c([H])c6F)c([H])c5[H])c(C(=O)N([H])[H])c4N([H])[H])C3([H])[H])C(C([H])([H])[H])(C([H])([H])[H])C([H])([H])[H])c([H])c([H])c2C1([H])[H]

>  <smiles>  (61) 
[H]c1c([H])c([H])c2c(c1[H])C([H])([H])C([H])([H])C([H])([H])C2([H])N([H])C(=O)C1([H])N(C(=O)C([H])(N([H])C(=O)C([H])(N([H])C([H])([H])[H])C([H])([H])[H])C(C([H])([H])[H])(C([H])([H])[H])C([H])([H])[H])C([H])([H])c2c([H])c(OC([H])([H])C([H])([H])N([H])C(=O)C([H])(N([H])C(=O)N3C([H])([H])C([H])([H])C([H])([H])C([H])(n4nc(-c5c([H])c([H])c(Oc6c([H])c([H])c(F)c([H])c6F)c([H])c5[H])c(C(=O)N([H])[H])c4N([H])[H])C3([H])[H])C(C([H])([H])[H])(C([H])([H])[H])C([H])([H])[H])c([H])c([H])c2C1([H])[H]

$$$$
62:0:0
     RDKit          3D

103110  0  0  1  0  0  0  0  0999 V2000
  -26.6120  -22.9470   21.4880 C   0  0  0  0  0  1  0  0  0  0  0  0
  -28.0820  -22.4980   21.3690 C   0  0  0  0  0  3  0  0  0  0  0  0
  -30.1810  -23.8410   21.1520 C   0  0  0  0  0  0  0  0  0  0  0  0
  -28.8790  -23.6390   20.9010 N   0  0  0  0  0  0  0  0  0  0  0  0
  -30.8230  -23.1280   21.9260 O   0  0  0  0  0  0  0  0  0  0  0  0
  -28.4180  -24.2500   20.2370 H   0  0  0  0  0  0  0  0  0  0  0  0
  -30.9080  -24.9720   20.4020 C   0  0  0  0  0  3  0  0  0  0  0  0
  -32.3610  -24.6870   20.3660 N   0  0  0  0  0  4  0  0  0  0  0  0
  -32.7530  -24.7540   21.2910 H   0  0  0  0  0  0  0  0  0  0  0  0
  -32.8440  -25.3100   19.7410 H   0  0  0  0  0  0  0  0  0  0  0  0
  -32.4960  -23.7390   20.0530 H   0  0  0  0  0  0  0  0  0  0  0  0
  -30.6130  -26.3740   21.0000 C   0  0  0  0  0  2  0  0  0  0  0  0
  -29.9630  -27.1540   19.9970 O   0  0  0  0  0  0  0  0  0  0  0  0
  -26.4130  -30.5330   25.1730 C   0  0  0  0  0  0  0  0  0  0  0  0
  -28.8370  -27.8190   20.4090 C   0  0  0  0  0  0  0  0  0  0  0  0
  -25.1080  -29.9640   23.1460 C   0  0  0  0  0  3  0  0  0  0  0  0
  -26.4700  -29.1630   21.1460 C   0  0  0  0  0  0  0  0  0  0  0  0
  -27.6270  -30.3730   23.0050 C   0  0  0  0  0  2  0  0  0  0  0  0
  -27.6570  -29.3910   21.8560 C   0  0  0  0  0  0  0  0  0  0  0  0
  -28.8460  -28.7190   21.4950 C   0  0  0  0  0  3  0  0  0  0  0  0
  -27.6430  -27.6060   19.6940 C   0  0  0  0  0  3  0  0  0  0  0  0
  -26.4560  -28.2640   20.0660 C   0  0  0  0  0  3  0  0  0  0  0  0
  -25.2460  -29.9240   21.6010 C   0  0  0  0  0  2  0  0  0  0  0  0
  -26.4020  -30.2790   23.8340 N   0  0  0  0  0  0  0  0  0  0  0  0
  -25.3600  -30.5560   25.8300 O   0  0  0  0  0  0  0  0  0  0  0  0
  -24.4720  -28.6370   23.6170 C   0  0  0  0  0  0  0  0  0  0  0  0
  -23.3030  -28.3020   23.0480 N   0  0  0  0  0  0  0  0  0  0  0  0
  -25.0390  -27.9220   24.4460 O   0  0  0  0  0  0  0  0  0  0  0  0
  -22.8990  -28.9450   22.3810 H   0  0  0  0  0  0  0  0  0  0  0  0
  -20.5490  -26.2900   21.8620 C   0  0  0  0  0  0  0  0  0  0  0  0
  -22.5400  -27.0830   23.3070 C   0  0  0  0  0  3  0  0  0  0  0  0
  -23.2870  -25.8360   22.7800 C   0  0  0  0  0  2  0  0  0  0  0  0
  -22.8810  -25.4470   21.3550 C   0  0  0  0  0  2  0  0  0  0  0  0
  -21.3790  -25.1540   21.2870 C   0  0  0  0  0  2  0  0  0  0  0  0
  -21.0990  -27.2030   22.7990 C   0  0  0  0  0  0  0  0  0  0  0  0
  -20.2950  -28.2620   23.2770 C   0  0  0  0  0  3  0  0  0  0  0  0
  -18.9670  -28.4130   22.8350 C   0  0  0  0  0  3  0  0  0  0  0  0
  -18.4240  -27.4950   21.9190 C   0  0  0  0  0  3  0  0  0  0  0  0
  -19.2120  -26.4340   21.4380 C   0  0  0  0  0  3  0  0  0  0  0  0
  -27.7390  -30.8320   25.9400 C   0  0  0  0  0  3  0  0  0  0  0  0
  -27.6230  -32.1770   26.5200 N   0  0  0  0  0  0  0  0  0  0  0  0
  -28.2420  -33.2650   26.0430 C   0  0  0  0  0  0  0  0  0  0  0  0
  -29.0410  -33.2230   25.1030 O   0  0  0  0  0  0  0  0  0  0  0  0
  -26.9410  -32.2930   27.2550 H   0  0  0  0  0  0  0  0  0  0  0  0
  -26.9610  -35.4170   25.8360 C   0  0  0  0  0  1  0  0  0  0  0  0
  -27.9280  -34.6140   26.7200 C   0  0  0  0  0  3  0  0  0  0  0  0
  -29.9990  -34.8300   28.0180 C   0  0  0  0  0  1  0  0  0  0  0  0
  -29.1320  -35.4230   27.0030 N   0  0  0  0  0  0  0  0  0  0  0  0
  -28.8750  -36.3570   27.3130 H   0  0  0  0  0  0  0  0  0  0  0  0
  -28.0690  -29.7660   27.0550 C   0  0  1  0  0  0  0  0  0  0  0  0
  -26.8620  -29.4200   27.9590 C   0  0  0  0  0  1  0  0  0  0  0  0
  -28.5740  -28.4510   26.4180 C   0  0  0  0  0  1  0  0  0  0  0  0
  -29.2090  -30.2890   27.9600 C   0  0  0  0  0  1  0  0  0  0  0  0
  -28.2490  -21.3180   20.3800 C   0  0  0  0  0  0  0  0  0  0  0  0
  -27.1910  -20.9670   19.6300 N   0  0  0  0  0  0  0  0  0  0  0  0
  -29.3260  -20.7230   20.3220 O   0  0  0  0  0  0  0  0  0  0  0  0
  -26.3680  -21.5460   19.7150 H   0  0  0  0  0  0  0  0  0  0  0  0
  -27.0800  -19.8040   18.7520 C   0  0  0  0  0  2  0  0  0  0  0  0
  -27.5540  -20.0800   17.3110 C   0  0  0  0  0  2  0  0  0  0  0  0
  -28.9770  -20.0930   17.1800 O   0  0  0  0  0  0  0  0  0  0  0  0
  -29.5840  -18.8360   16.8520 C   0  0  0  0  0  2  0  0  0  0  0  0
  -30.4570  -18.3040   18.0020 C   0  0  0  0  0  2  0  0  0  0  0  0
  -29.7110  -17.4040   18.8160 O   0  0  0  0  0  0  0  0  0  0  0  0
  -30.0270  -17.4830   20.2100 C   0  0  0  0  0  2  0  0  0  0  0  0
  -31.2260  -16.6120   20.6190 C   0  0  0  0  0  2  0  0  0  0  0  0
  -31.4860  -14.1410   20.5710 C   0  0  0  0  0  0  0  0  0  0  0  0
  -31.1320  -11.8420   19.7570 C   0  0  0  0  0  2  0  0  0  0  0  0
  -30.2880  -11.9010   18.4670 C   0  0  0  0  0  2  0  0  0  0  0  0
  -28.7860  -11.9300   18.8120 C   0  0  0  0  0  2  0  0  0  0  0  0
  -28.4220  -12.9810   19.8920 C   0  0  0  0  0  3  0  0  0  0  0  0
  -29.3850  -12.8730   21.0990 C   0  0  0  0  0  2  0  0  0  0  0  0
  -30.7610  -12.9930   20.5890 N   0  0  0  0  0  0  0  0  0  0  0  0
  -32.6320  -14.2170   20.1250 O   0  0  0  0  0  0  0  0  0  0  0  0
  -30.8120  -15.2430   20.9210 N   0  0  0  0  0  0  0  0  0  0  0  0
  -29.8760  -15.1160   21.2840 H   0  0  0  0  0  0  0  0  0  0  0  0
  -26.0780  -13.8420   20.4970 C   0  0  0  0  0  0  0  0  0  0  0  0
  -24.9140  -13.1910   20.8060 C   0  0  0  0  0  0  0  0  0  0  0  0
  -25.2240  -11.7980   20.7790 C   0  0  0  0  0  0  0  0  0  0  0  0
  -27.0270  -12.8570   20.3040 N   0  0  0  0  0  0  0  0  0  0  0  0
  -26.5170  -11.6190   20.5360 N   0  0  0  0  0  0  0  0  0  0  0  0
  -24.3490  -10.6270   20.9330 C   0  0  0  0  0  0  0  0  0  0  0  0
  -24.6530   -9.5850   21.8390 C   0  0  0  0  0  3  0  0  0  0  0  0
  -23.7880   -8.4740   21.9720 C   0  0  0  0  0  3  0  0  0  0  0  0
  -22.6080   -8.3980   21.1950 C   0  0  0  0  0  0  0  0  0  0  0  0
  -22.3210   -9.4250   20.2760 C   0  0  0  0  0  3  0  0  0  0  0  0
  -23.1850  -10.5250   20.1410 C   0  0  0  0  0  3  0  0  0  0  0  0
  -21.7220   -7.3510   21.2430 O   0  0  0  0  0  0  0  0  0  0  0  0
  -21.5530   -6.6020   22.3790 C   0  0  0  0  0  0  0  0  0  0  0  0
  -21.1890   -7.1900   23.6110 C   0  0  0  0  0  3  0  0  0  0  0  0
  -20.9510   -6.3760   24.7360 C   0  0  0  0  0  3  0  0  0  0  0  0
  -21.0770   -4.9770   24.6350 C   0  0  0  0  0  0  0  0  0  0  0  0
  -21.4330   -4.3890   23.4100 C   0  0  0  0  0  3  0  0  0  0  0  0
  -21.6680   -5.2000   22.2850 C   0  0  0  0  0  0  0  0  0  0  0  0
  -21.9930   -4.6260   21.1000 F   0  0  0  0  0  0  0  0  0  0  0  0
  -20.8430   -4.1950   25.7150 F   0  0  0  0  0  0  0  0  0  0  0  0
  -23.5670  -13.8240   21.0240 C   0  0  0  0  0  0  0  0  0  0  0  0
  -22.7400  -13.2250   21.8750 N   0  0  0  0  0  0  0  0  0  0  0  0
  -23.2590  -14.8850   20.4820 O   0  0  0  0  0  0  0  0  0  0  0  0
  -23.0040  -12.3620   22.3350 H   0  0  0  0  0  0  0  0  0  0  0  0
  -21.8390  -13.6350   22.0720 H   0  0  0  0  0  0  0  0  0  0  0  0
  -26.4040  -15.1840   20.3490 N   0  0  0  0  0  0  0  0  0  0  0  0
  -25.7140  -15.9160   20.4560 H   0  0  0  0  0  0  0  0  0  0  0  0
  -27.3340  -15.5340   20.1440 H   0  0  0  0  0  0  0  0  0  0  0  0
  2  1  1  0
  3  5  2  0
  4  3  1  0
  4  2  1  0
  6  4  1  0
  7 12  1  0
  7  3  1  0
  8  7  1  0
  8  9  1  0
 10  8  1  0
 11  8  1  0
 13 15  1  0
 13 12  1  0
 14 25  2  0
 15 20  1  0
 16 26  1  0
 16 24  1  0
 17 23  1  0
 17 19  1  0
 18 24  1  0
 19 18  1  0
 20 19  2  0
 21 22  1  0
 21 15  2  0
 22 17  2  0
 23 16  1  0
 24 14  1  0
 26 28  2  0
 27 26  1  0
 29 27  1  0
 30 35  1  0
 31 27  1  0
 32 31  1  0
 33 32  1  0
 34 33  1  0
 34 30  1  0
 35 36  2  0
 35 31  1  0
 37 36  1  0
 38 37  2  0
 39 30  2  0
 39 38  1  0
 40 14  1  0
 40 41  1  0
 40 50  1  0
 41 44  1  0
 42 41  1  0
 42 46  1  0
 43 42  2  0
 46 45  1  0
 46 48  1  0
 48 49  1  0
 48 47  1  0
 50 51  1  1
 50 53  1  0
 52 50  1  0
 54  2  1  0
 55 57  1  0
 55 54  1  0
 56 54  2  0
 58 55  1  0
 59 58  1  0
 60 59  1  0
 61 60  1  0
 61 62  1  0
 62 63  1  0
 63 64  1  0
 64 65  1  0
 65 74  1  0
 66 72  1  0
 66 74  1  0
 67 72  1  0
 68 69  1  0
 68 67  1  0
 70 69  1  0
 70 79  1  0
 70 71  1  0
 72 71  1  0
 73 66  2  0
 74 75  1  0
 76 77  2  0
 77 96  1  0
 78 77  1  0
 78 81  1  0
 79 76  1  0
 79 80  1  0
 80 78  2  0
 81 82  1  0
 82 83  2  0
 84 87  1  0
 84 83  1  0
 85 84  2  0
 86 85  1  0
 86 81  2  0
 87 88  1  0
 88 89  1  0
 89 90  2  0
 91 90  1  0
 91 95  1  0
 92 91  2  0
 93 88  2  0
 93 92  1  0
 94 93  1  0
 96 97  1  0
 97100  1  0
 97 99  1  0
 98 96  2  0
101102  1  0
101 76  1  0
103101  1  0
M  ISO  4  12 101  13 101  66 100  74 100
M  END
>  <TORSDO>  (62) 
F 29

>  <SCORE>  (62) 
-9.320

>  <name>  (62) 
62

>  <ligand_id>  (62) 
62

>  <original_smiles>  (62) 
[H]c1c([H])c([H])c2c(c1[H])C([H])([H])C([H])([H])C([H])([H])C2([H])N([H])C(=O)C1([H])N(C(=O)C([H])(N([H])C(=O)C([H])(N([H])C([H])([H])[H])C([H])([H])[H])C(C([H])([H])[H])(C([H])([H])[H])C([H])([H])[H])C([H])([H])c2c([H])c(OC([H])([H])C([H])(C(=O)N([H])C([H])(C(=O)N([H])C([H])([H])C([H])([H])OC([H])([H])C([H])([H])OC([H])([H])C([H])([H])N([H])C(=O)N3C([H])([H])C([H])([H])C([H])([H])C([H])(n4nc(-c5c([H])c([H])c(Oc6c([H])c([H])c(F)c([H])c6F)c([H])c5[H])c(C(=O)N([H])[H])c4N([H])[H])C3([H])[H])C([H])([H])[H])[N+]([H])([H])[H])c([H])c([H])c2C1([H])[H]

>  <smiles>  (62) 
[H]c1c([H])c([H])c2c(c1[H])C([H])([H])C([H])([H])C([H])([H])C2([H])N([H])C(=O)C1([H])N(C(=O)C([H])(N([H])C(=O)C([H])(N([H])C([H])([H])[H])C([H])([H])[H])C(C([H])([H])[H])(C([H])([H])[H])C([H])([H])[H])C([H])([H])c2c([H])c(OC([H])([H])C([H])(C(=O)N([H])C([H])(C(=O)N([H])C([H])([H])C([H])([H])OC([H])([H])C([H])([H])OC([H])([H])C([H])([H])N([H])C(=O)N3C([H])([H])C([H])([H])C([H])([H])C([H])(n4nc(-c5c([H])c([H])c(Oc6c([H])c([H])c(F)c([H])c6F)c([H])c5[H])c(C(=O)N([H])[H])c4N([H])[H])C3([H])[H])C([H])([H])[H])[N+]([H])([H])[H])c([H])c([H])c2C1([H])[H]

$$$$
63:0:0
     RDKit          3D

 91 98  0  0  1  0  0  0  0  0999 V2000
  -29.0530  -23.9040   20.5390 C   0  0  0  0  0  0  0  0  0  0  0  0
  -28.9210  -22.5470   20.2800 N   0  0  0  0  0  0  0  0  0  0  0  0
  -29.9500  -24.3280   21.2700 O   0  0  0  0  0  0  0  0  0  0  0  0
  -28.1760  -22.2950   19.6400 H   0  0  0  0  0  0  0  0  0  0  0  0
  -31.1860  -21.5180   20.5160 C   0  0  0  0  0  1  0  0  0  0  0  0
  -29.4540  -21.2850   22.3560 C   0  0  0  0  0  1  0  0  0  0  0  0
  -29.6810  -21.3390   20.8270 C   0  0  1  0  0  0  0  0  0  0  0  0
  -29.2850  -19.9170   20.2020 C   0  0  0  0  0  0  0  0  0  0  0  0
  -29.7860  -18.7380   20.7210 N   0  0  0  0  0  0  0  0  0  0  0  0
  -28.5580  -19.9040   19.2070 O   0  0  0  0  0  0  0  0  0  0  0  0
  -30.3490  -18.8520   21.5550 H   0  0  0  0  0  0  0  0  0  0  0  0
  -29.7740  -17.3360   20.1290 C   0  0  0  0  0  2  0  0  0  0  0  0
  -29.9470  -16.0620   21.1000 C   0  0  0  0  0  2  0  0  0  0  0  0
  -30.6390  -14.7240   20.5610 C   0  0  0  0  0  0  0  0  0  0  0  0
  -30.4400  -12.4590   19.5210 C   0  0  0  0  0  2  0  0  0  0  0  0
  -29.5460  -12.5830   18.2670 C   0  0  0  0  0  2  0  0  0  0  0  0
  -28.0560  -12.4410   18.6400 C   0  0  0  0  0  2  0  0  0  0  0  0
  -27.6630  -13.3110   19.8630 C   0  0  0  0  0  3  0  0  0  0  0  0
  -28.6810  -13.1660   21.0140 C   0  0  0  0  0  2  0  0  0  0  0  0
  -30.0080  -13.5020   20.4800 N   0  0  0  0  0  0  0  0  0  0  0  0
  -31.7960  -14.8270   20.1420 O   0  0  0  0  0  0  0  0  0  0  0  0
  -25.2500  -13.9300   20.4830 C   0  0  0  0  0  0  0  0  0  0  0  0
  -24.1670  -13.1680   20.8300 C   0  0  0  0  0  0  0  0  0  0  0  0
  -24.6230  -11.8140   20.8430 C   0  0  0  0  0  0  0  0  0  0  0  0
  -26.2980  -13.0400   20.3050 N   0  0  0  0  0  0  0  0  0  0  0  0
  -25.9240  -11.7640   20.5800 N   0  0  0  0  0  0  0  0  0  0  0  0
  -23.8820  -10.5620   21.0330 C   0  0  0  0  0  0  0  0  0  0  0  0
  -24.2900   -9.6000   21.9850 C   0  0  0  0  0  3  0  0  0  0  0  0
  -23.5500   -8.4110   22.1640 C   0  0  0  0  0  3  0  0  0  0  0  0
  -22.3890   -8.1750   21.3910 C   0  0  0  0  0  0  0  0  0  0  0  0
  -22.0000   -9.1240   20.4300 C   0  0  0  0  0  3  0  0  0  0  0  0
  -22.7390  -10.3040   20.2490 C   0  0  0  0  0  3  0  0  0  0  0  0
  -21.6230   -7.0380   21.4780 O   0  0  0  0  0  0  0  0  0  0  0  0
  -21.5620   -6.2960   22.6300 C   0  0  0  0  0  0  0  0  0  0  0  0
  -21.1550   -6.8610   23.8590 C   0  0  0  0  0  3  0  0  0  0  0  0
  -21.0410   -6.0480   25.0040 C   0  0  0  0  0  3  0  0  0  0  0  0
  -21.3200   -4.6720   24.9230 C   0  0  0  0  0  0  0  0  0  0  0  0
  -21.7180   -4.1060   23.6990 C   0  0  0  0  0  3  0  0  0  0  0  0
  -21.8360   -4.9160   22.5560 C   0  0  0  0  0  0  0  0  0  0  0  0
  -22.2000   -4.3610   21.3750 F   0  0  0  0  0  0  0  0  0  0  0  0
  -21.2020   -3.8880   26.0210 F   0  0  0  0  0  0  0  0  0  0  0  0
  -22.7640  -13.6580   21.0420 C   0  0  0  0  0  0  0  0  0  0  0  0
  -22.0020  -12.9850   21.8990 N   0  0  0  0  0  0  0  0  0  0  0  0
  -22.3490  -14.6730   20.4840 O   0  0  0  0  0  0  0  0  0  0  0  0
  -22.3510  -12.1660   22.3740 H   0  0  0  0  0  0  0  0  0  0  0  0
  -21.0580  -13.2950   22.0820 H   0  0  0  0  0  0  0  0  0  0  0  0
  -25.4260  -15.2960   20.2860 N   0  0  0  0  0  0  0  0  0  0  0  0
  -24.6560  -15.9530   20.3550 H   0  0  0  0  0  0  0  0  0  0  0  0
  -26.2910  -15.7310   19.9930 H   0  0  0  0  0  0  0  0  0  0  0  0
  -28.0310  -24.9600   19.9370 C   0  0  0  0  0  2  0  0  0  0  0  0
  -28.2800  -26.4150   20.2050 O   0  0  0  0  0  0  0  0  0  0  0  0
  -24.6060  -31.8890   23.2050 C   0  0  0  0  0  0  0  0  0  0  0  0
  -27.1820  -27.3020   20.1360 C   0  0  0  0  0  0  0  0  0  0  0  0
  -23.3870  -30.4850   21.5840 C   0  0  0  0  0  3  0  0  0  0  0  0
  -24.8260  -28.9370   20.1420 C   0  0  0  0  0  0  0  0  0  0  0  0
  -25.9300  -30.7980   21.3790 C   0  0  0  0  0  2  0  0  0  0  0  0
  -26.0010  -29.4170   20.7310 C   0  0  0  0  0  0  0  0  0  0  0  0
  -27.1830  -28.6100   20.7230 C   0  0  0  0  0  3  0  0  0  0  0  0
  -25.9870  -26.8960   19.5000 C   0  0  0  0  0  3  0  0  0  0  0  0
  -24.8230  -27.6850   19.5150 C   0  0  0  0  0  3  0  0  0  0  0  0
  -23.5890  -29.8100   20.2030 C   0  0  0  0  0  2  0  0  0  0  0  0
  -24.6600  -31.0760   22.1110 N   0  0  0  0  0  0  0  0  0  0  0  0
  -23.5270  -32.1670   23.7500 O   0  0  0  0  0  0  0  0  0  0  0  0
  -22.7370  -29.4680   22.5520 C   0  0  0  0  0  0  0  0  0  0  0  0
  -21.4090  -29.2850   22.4400 N   0  0  0  0  0  0  0  0  0  0  0  0
  -23.4240  -28.8460   23.3660 O   0  0  0  0  0  0  0  0  0  0  0  0
  -20.9110  -29.8370   21.7550 H   0  0  0  0  0  0  0  0  0  0  0  0
  -18.0430  -28.0710   22.9650 C   0  0  0  0  0  0  0  0  0  0  0  0
  -20.6000  -28.3510   23.2240 C   0  0  0  0  0  3  0  0  0  0  0  0
  -20.7110  -26.9140   22.6630 C   0  0  0  0  0  2  0  0  0  0  0  0
  -19.6090  -26.5730   21.6560 C   0  0  0  0  0  2  0  0  0  0  0  0
  -18.2280  -26.7160   22.3020 C   0  0  0  0  0  2  0  0  0  0  0  0
  -19.1570  -28.8450   23.3840 C   0  0  0  0  0  0  0  0  0  0  0  0
  -18.9300  -30.1130   23.9620 C   0  0  0  0  0  3  0  0  0  0  0  0
  -17.6220  -30.6050   24.1290 C   0  0  0  0  0  3  0  0  0  0  0  0
  -16.5220  -29.8280   23.7280 C   0  0  0  0  0  3  0  0  0  0  0  0
  -16.7330  -28.5620   23.1500 C   0  0  0  0  0  3  0  0  0  0  0  0
  -25.8930  -32.5290   23.8110 C   0  0  0  0  0  3  0  0  0  0  0  0
  -25.5780  -33.9230   24.1520 N   0  0  0  0  0  0  0  0  0  0  0  0
  -25.8930  -34.9830   23.3930 C   0  0  0  0  0  0  0  0  0  0  0  0
  -26.5470  -34.8880   22.3520 O   0  0  0  0  0  0  0  0  0  0  0  0
  -24.9960  -34.0690   24.9630 H   0  0  0  0  0  0  0  0  0  0  0  0
  -24.1470  -36.7670   23.0790 C   0  0  0  0  0  1  0  0  0  0  0  0
  -25.4050  -36.3650   23.8660 C   0  0  0  0  0  3  0  0  0  0  0  0
  -27.5490  -37.2580   24.6630 C   0  0  0  0  0  1  0  0  0  0  0  0
  -26.4290  -37.4260   23.7410 N   0  0  0  0  0  0  0  0  0  0  0  0
  -26.0200  -38.3430   23.9030 H   0  0  0  0  0  0  0  0  0  0  0  0
  -26.4320  -31.7560   25.0780 C   0  0  1  0  0  0  0  0  0  0  0  0
  -25.3530  -31.5120   26.1590 C   0  0  0  0  0  1  0  0  0  0  0  0
  -27.0140  -30.3820   24.6760 C   0  0  0  0  0  1  0  0  0  0  0  0
  -27.5880  -32.5530   25.7230 C   0  0  0  0  0  1  0  0  0  0  0  0
  1  3  2  0
  2  1  1  0
  2  7  1  0
  4  2  1  0
  7  5  1  1
  7  6  1  0
  8  9  1  0
  8  7  1  0
  9 11  1  0
 10  8  2  0
 12  9  1  0
 12 13  1  0
 14 13  1  0
 15 20  1  0
 16 17  1  0
 16 15  1  0
 18 17  1  0
 18 25  1  0
 18 19  1  0
 20 14  1  0
 20 19  1  0
 21 14  2  0
 22 23  2  0
 23 24  1  0
 23 42  1  0
 24 27  1  0
 25 22  1  0
 25 26  1  0
 26 24  2  0
 27 28  1  0
 28 29  2  0
 30 33  1  0
 30 29  1  0
 31 30  2  0
 32 31  1  0
 32 27  2  0
 33 34  1  0
 34 35  1  0
 35 36  2  0
 37 36  1  0
 37 41  1  0
 38 37  2  0
 39 34  2  0
 39 38  1  0
 40 39  1  0
 42 43  1  0
 43 46  1  0
 43 45  1  0
 44 42  2  0
 47 48  1  0
 47 22  1  0
 49 47  1  0
 50 51  1  0
 50  1  1  0
 52 63  2  0
 53 51  1  0
 53 58  1  0
 54 62  1  0
 54 64  1  0
 55 61  1  0
 55 57  1  0
 56 62  1  0
 57 56  1  0
 58 57  2  0
 59 60  1  0
 59 53  2  0
 60 55  2  0
 61 54  1  0
 62 52  1  0
 64 66  2  0
 65 64  1  0
 67 65  1  0
 68 77  2  0
 68 73  1  0
 69 65  1  0
 69 73  1  0
 70 69  1  0
 71 72  1  0
 71 70  1  0
 72 68  1  0
 73 74  2  0
 74 75  1  0
 76 75  2  0
 77 76  1  0
 78 52  1  0
 78 79  1  0
 78 88  1  0
 79 82  1  0
 80 84  1  0
 80 79  1  0
 81 80  2  0
 84 83  1  0
 86 84  1  0
 86 87  1  0
 86 85  1  0
 88 91  1  1
 88 89  1  0
 90 88  1  0
M  ISO  4  13 100  14 100  50 101  51 101
M  END
>  <TORSDO>  (63) 
F 21

>  <SCORE>  (63) 
-13.474

>  <name>  (63) 
63

>  <ligand_id>  (63) 
63

>  <original_smiles>  (63) 
[H]c1c([H])c([H])c2c(c1[H])C([H])([H])C([H])([H])C([H])([H])C2([H])N([H])C(=O)C1([H])N(C(=O)C([H])(N([H])C(=O)C([H])(N([H])C([H])([H])[H])C([H])([H])[H])C(C([H])([H])[H])(C([H])([H])[H])C([H])([H])[H])C([H])([H])c2c([H])c(OC([H])([H])C(=O)N([H])C(C(=O)N([H])C([H])([H])C([H])([H])C(=O)N3C([H])([H])C([H])([H])C([H])([H])C([H])(n4nc(-c5c([H])c([H])c(Oc6c([H])c([H])c(F)c([H])c6F)c([H])c5[H])c(C(=O)N([H])[H])c4N([H])[H])C3([H])[H])(C([H])([H])[H])C([H])([H])[H])c([H])c([H])c2C1([H])[H]

>  <smiles>  (63) 
[H]c1c([H])c([H])c2c(c1[H])C([H])([H])C([H])([H])C([H])([H])C2([H])N([H])C(=O)C1([H])N(C(=O)C([H])(N([H])C(=O)C([H])(N([H])C([H])([H])[H])C([H])([H])[H])C(C([H])([H])[H])(C([H])([H])[H])C([H])([H])[H])C([H])([H])c2c([H])c(OC([H])([H])C(=O)N([H])C(C(=O)N([H])C([H])([H])C([H])([H])C(=O)N3C([H])([H])C([H])([H])C([H])([H])C([H])(n4nc(-c5c([H])c([H])c(Oc6c([H])c([H])c(F)c([H])c6F)c([H])c5[H])c(C(=O)N([H])[H])c4N([H])[H])C3([H])[H])(C([H])([H])[H])C([H])([H])[H])c([H])c([H])c2C1([H])[H]

$$$$
64:0:0
     RDKit          3D

 97104  0  0  1  0  0  0  0  0999 V2000
  -29.4300  -20.4070   19.7550 C   0  0  0  0  0  3  0  0  0  0  0  0
  -28.5670  -20.1230   18.5060 C   0  0  0  0  0  0  0  0  0  0  0  0
  -29.1170  -20.3300   17.3140 N   0  0  0  0  0  0  0  0  0  0  0  0
  -27.4030  -19.7380   18.6160 O   0  0  0  0  0  0  0  0  0  0  0  0
  -30.0920  -20.5820   17.2280 H   0  0  0  0  0  0  0  0  0  0  0  0
  -28.5880  -20.1520   16.4700 H   0  0  0  0  0  0  0  0  0  0  0  0
  -29.8620  -17.9370   20.3120 C   0  0  0  0  0  0  0  0  0  0  0  0
  -29.5420  -19.2150   20.6470 N   0  0  0  0  0  0  0  0  0  0  0  0
  -30.0600  -17.5840   19.1500 O   0  0  0  0  0  0  0  0  0  0  0  0
  -29.3900  -19.3880   21.6310 H   0  0  0  0  0  0  0  0  0  0  0  0
  -31.3740  -17.0480   22.2100 C   0  0  0  0  0  1  0  0  0  0  0  0
  -30.0400  -16.8990   21.4520 C   0  0  0  0  0  3  0  0  0  0  0  0
  -30.4730  -14.5610   20.4260 C   0  0  0  0  0  0  0  0  0  0  0  0
  -30.2200  -12.4380   19.1720 C   0  0  0  0  0  2  0  0  0  0  0  0
  -29.2280  -12.6480   18.0090 C   0  0  0  0  0  2  0  0  0  0  0  0
  -27.7710  -12.4610   18.4790 C   0  0  0  0  0  2  0  0  0  0  0  0
  -27.4560  -13.2410   19.7820 C   0  0  0  0  0  3  0  0  0  0  0  0
  -28.5480  -12.9870   20.8440 C   0  0  0  0  0  2  0  0  0  0  0  0
  -29.8450  -13.3660   20.2540 N   0  0  0  0  0  0  0  0  0  0  0  0
  -31.5760  -14.8070   19.9260 O   0  0  0  0  0  0  0  0  0  0  0  0
  -29.7460  -15.4920   21.0850 N   0  0  0  0  0  0  0  0  0  0  0  0
  -28.8460  -15.1590   21.3990 H   0  0  0  0  0  0  0  0  0  0  0  0
  -25.0640  -13.7780   20.5590 C   0  0  0  0  0  0  0  0  0  0  0  0
  -24.0240  -12.9720   20.9430 C   0  0  0  0  0  0  0  0  0  0  0  0
  -24.5170  -11.6320   20.8750 C   0  0  0  0  0  0  0  0  0  0  0  0
  -26.1230  -12.9260   20.2880 N   0  0  0  0  0  0  0  0  0  0  0  0
  -25.7980  -11.6310   20.5330 N   0  0  0  0  0  0  0  0  0  0  0  0
  -23.8270  -10.3490   21.0600 C   0  0  0  0  0  0  0  0  0  0  0  0
  -24.2890   -9.3910   21.9880 C   0  0  0  0  0  3  0  0  0  0  0  0
  -23.5980   -8.1730   22.1630 C   0  0  0  0  0  3  0  0  0  0  0  0
  -22.4320   -7.9030   21.4070 C   0  0  0  0  0  0  0  0  0  0  0  0
  -21.9900   -8.8520   20.4680 C   0  0  0  0  0  3  0  0  0  0  0  0
  -22.6810  -10.0620   20.2920 C   0  0  0  0  0  3  0  0  0  0  0  0
  -21.7120   -6.7360   21.4910 O   0  0  0  0  0  0  0  0  0  0  0  0
  -21.6790   -5.9930   22.6440 C   0  0  0  0  0  0  0  0  0  0  0  0
  -21.1910   -6.5240   23.8590 C   0  0  0  0  0  3  0  0  0  0  0  0
  -21.1070   -5.7030   25.0010 C   0  0  0  0  0  3  0  0  0  0  0  0
  -21.5010   -4.3540   24.9300 C   0  0  0  0  0  0  0  0  0  0  0  0
  -21.9770   -3.8210   23.7190 C   0  0  0  0  0  3  0  0  0  0  0  0
  -22.0630   -4.6390   22.5780 C   0  0  0  0  0  0  0  0  0  0  0  0
  -22.5040   -4.1170   21.4080 F   0  0  0  0  0  0  0  0  0  0  0  0
  -21.4120   -3.5620   26.0240 F   0  0  0  0  0  0  0  0  0  0  0  0
  -22.6220  -13.4100   21.2600 C   0  0  0  0  0  0  0  0  0  0  0  0
  -21.9360  -12.6780   22.1310 N   0  0  0  0  0  0  0  0  0  0  0  0
  -22.1440  -14.4340   20.7720 O   0  0  0  0  0  0  0  0  0  0  0  0
  -22.3350  -11.8500   22.5480 H   0  0  0  0  0  0  0  0  0  0  0  0
  -20.9970  -12.9480   22.3850 H   0  0  0  0  0  0  0  0  0  0  0  0
  -25.1920  -15.1540   20.3970 N   0  0  0  0  0  0  0  0  0  0  0  0
  -24.4130  -15.7910   20.5300 H   0  0  0  0  0  0  0  0  0  0  0  0
  -26.0090  -15.6070   20.0060 H   0  0  0  0  0  0  0  0  0  0  0  0
  -28.9430  -21.7020   20.5200 C   0  0  0  0  0  2  0  0  0  0  0  0
  -28.9550  -22.9720   19.7130 N   0  0  0  0  0  4  0  0  0  0  0  0
  -29.8870  -23.0890   19.3430 H   0  0  0  0  0  0  0  0  0  0  0  0
  -28.3360  -22.8550   18.9250 H   0  0  0  0  0  0  0  0  0  0  0  0
  -28.5780  -24.2400   20.4270 C   0  0  0  0  0  2  0  0  0  0  0  0
  -28.6810  -25.5180   19.5280 C   0  0  0  0  0  2  0  0  0  0  0  0
  -28.4810  -26.7790   20.2190 O   0  0  0  0  0  0  0  0  0  0  0  0
  -24.5720  -31.9120   23.2570 C   0  0  0  0  0  0  0  0  0  0  0  0
  -27.2770  -27.4720   20.1800 C   0  0  0  0  0  0  0  0  0  0  0  0
  -23.3870  -30.5070   21.6030 C   0  0  0  0  0  3  0  0  0  0  0  0
  -24.8620  -28.9770   20.1840 C   0  0  0  0  0  0  0  0  0  0  0  0
  -25.9140  -30.8760   21.4250 C   0  0  0  0  0  2  0  0  0  0  0  0
  -26.0130  -29.5050   20.7790 C   0  0  0  0  0  0  0  0  0  0  0  0
  -27.2180  -28.7610   20.7730 C   0  0  0  0  0  3  0  0  0  0  0  0
  -26.0970  -26.9570   19.5950 C   0  0  0  0  0  3  0  0  0  0  0  0
  -24.9000  -27.7030   19.5930 C   0  0  0  0  0  3  0  0  0  0  0  0
  -23.6110  -29.8280   20.2250 C   0  0  0  0  0  2  0  0  0  0  0  0
  -24.6420  -31.1130   22.1520 N   0  0  0  0  0  0  0  0  0  0  0  0
  -23.4860  -32.1770   23.7900 O   0  0  0  0  0  0  0  0  0  0  0  0
  -22.7360  -29.4810   22.5590 C   0  0  0  0  0  0  0  0  0  0  0  0
  -21.4130  -29.2930   22.4210 N   0  0  0  0  0  0  0  0  0  0  0  0
  -23.4160  -28.8570   23.3760 O   0  0  0  0  0  0  0  0  0  0  0  0
  -20.9230  -29.8460   21.7330 H   0  0  0  0  0  0  0  0  0  0  0  0
  -18.0380  -28.0980   22.9170 C   0  0  0  0  0  0  0  0  0  0  0  0
  -20.5960  -28.3480   23.1840 C   0  0  0  0  0  3  0  0  0  0  0  0
  -20.6940  -26.9240   22.5900 C   0  0  0  0  0  2  0  0  0  0  0  0
  -19.5880  -26.6150   21.5760 C   0  0  0  0  0  2  0  0  0  0  0  0
  -18.2080  -26.7570   22.2250 C   0  0  0  0  0  2  0  0  0  0  0  0
  -19.1590  -28.8530   23.3520 C   0  0  0  0  0  0  0  0  0  0  0  0
  -18.9460  -30.1110   23.9560 C   0  0  0  0  0  3  0  0  0  0  0  0
  -17.6420  -30.6130   24.1310 C   0  0  0  0  0  3  0  0  0  0  0  0
  -16.5350  -29.8560   23.7110 C   0  0  0  0  0  3  0  0  0  0  0  0
  -16.7340  -28.6020   23.1080 C   0  0  0  0  0  3  0  0  0  0  0  0
  -25.8500  -32.5490   23.8880 C   0  0  0  0  0  3  0  0  0  0  0  0
  -25.5360  -33.9500   24.2020 N   0  0  0  0  0  0  0  0  0  0  0  0
  -25.8850  -34.9970   23.4430 C   0  0  0  0  0  0  0  0  0  0  0  0
  -26.5780  -34.8870   22.4270 O   0  0  0  0  0  0  0  0  0  0  0  0
  -24.9200  -34.1090   24.9860 H   0  0  0  0  0  0  0  0  0  0  0  0
  -24.1790  -36.7980   23.0220 C   0  0  0  0  0  1  0  0  0  0  0  0
  -25.3870  -36.3890   23.8790 C   0  0  0  0  0  3  0  0  0  0  0  0
  -27.4940  -37.2690   24.7870 C   0  0  0  0  0  1  0  0  0  0  0  0
  -26.4280  -37.4380   23.8010 N   0  0  0  0  0  0  0  0  0  0  0  0
  -26.0200  -38.3600   23.9290 H   0  0  0  0  0  0  0  0  0  0  0  0
  -26.3520  -31.7880   25.1760 C   0  0  1  0  0  0  0  0  0  0  0  0
  -25.2460  -31.5560   26.2300 C   0  0  0  0  0  1  0  0  0  0  0  0
  -26.9460  -30.4100   24.8000 C   0  0  0  0  0  1  0  0  0  0  0  0
  -27.4900  -32.5920   25.8500 C   0  0  0  0  0  1  0  0  0  0  0  0
  1 51  1  0
  1  8  1  0
  2  4  2  0
  2  1  1  0
  3  2  1  0
  5  3  1  0
  6  3  1  0
  7  8  1  0
  7 12  1  0
  8 10  1  0
  9  7  2  0
 12 11  1  0
 13 21  1  0
 14 19  1  0
 15 16  1  0
 15 14  1  0
 17 16  1  0
 17 26  1  0
 17 18  1  0
 19 13  1  0
 19 18  1  0
 20 13  2  0
 21 22  1  0
 21 12  1  0
 23 24  2  0
 24 43  1  0
 25 24  1  0
 25 28  1  0
 26 27  1  0
 26 23  1  0
 27 25  2  0
 28 29  1  0
 29 30  2  0
 31 34  1  0
 31 30  1  0
 32 31  2  0
 33 32  1  0
 33 28  2  0
 34 35  1  0
 35 36  1  0
 36 37  2  0
 38 37  1  0
 38 42  1  0
 39 38  2  0
 40 35  2  0
 40 39  1  0
 41 40  1  0
 43 44  1  0
 44 47  1  0
 44 46  1  0
 45 43  2  0
 48 49  1  0
 48 23  1  0
 50 48  1  0
 52 55  1  0
 52 51  1  0
 53 52  1  0
 54 52  1  0
 56 57  1  0
 56 55  1  0
 58 69  2  0
 59 57  1  0
 59 64  1  0
 60 68  1  0
 60 70  1  0
 61 67  1  0
 61 63  1  0
 62 68  1  0
 63 62  1  0
 64 63  2  0
 65 59  2  0
 66 65  1  0
 66 61  2  0
 67 60  1  0
 68 58  1  0
 70 72  2  0
 71 70  1  0
 73 71  1  0
 74 83  2  0
 74 79  1  0
 75 71  1  0
 75 79  1  0
 76 75  1  0
 77 78  1  0
 77 76  1  0
 78 74  1  0
 79 80  2  0
 80 81  1  0
 82 81  2  0
 83 82  1  0
 84 58  1  0
 84 85  1  0
 84 94  1  0
 85 88  1  0
 86 90  1  0
 86 85  1  0
 87 86  2  0
 90 89  1  0
 92 90  1  0
 92 93  1  0
 92 91  1  0
 94 97  1  1
 94 95  1  0
 96 94  1  0
M  ISO  4  13 100  21 100  56 101  57 101
M  END
>  <TORSDO>  (64) 
F 23

>  <SCORE>  (64) 
-12.791

>  <name>  (64) 
64

>  <ligand_id>  (64) 
64

>  <original_smiles>  (64) 
[H]c1c([H])c([H])c2c(c1[H])C([H])([H])C([H])([H])C([H])([H])C2([H])N([H])C(=O)C1([H])N(C(=O)C([H])(N([H])C(=O)C([H])(N([H])C([H])([H])[H])C([H])([H])[H])C(C([H])([H])[H])(C([H])([H])[H])C([H])([H])[H])C([H])([H])c2c([H])c(OC([H])([H])C([H])([H])[N+]([H])([H])C([H])([H])C([H])(C(=O)N([H])[H])N([H])C(=O)C([H])(N([H])C(=O)N3C([H])([H])C([H])([H])C([H])([H])C([H])(n4nc(-c5c([H])c([H])c(Oc6c([H])c([H])c(F)c([H])c6F)c([H])c5[H])c(C(=O)N([H])[H])c4N([H])[H])C3([H])[H])C([H])([H])[H])c([H])c([H])c2C1([H])[H]

>  <smiles>  (64) 
[H]c1c([H])c([H])c2c(c1[H])C([H])([H])C([H])([H])C([H])([H])C2([H])N([H])C(=O)C1([H])N(C(=O)C([H])(N([H])C(=O)C([H])(N([H])C([H])([H])[H])C([H])([H])[H])C(C([H])([H])[H])(C([H])([H])[H])C([H])([H])[H])C([H])([H])c2c([H])c(OC([H])([H])C([H])([H])[N+]([H])([H])C([H])([H])C([H])(C(=O)N([H])[H])N([H])C(=O)C([H])(N([H])C(=O)N3C([H])([H])C([H])([H])C([H])([H])C([H])(n4nc(-c5c([H])c([H])c(Oc6c([H])c([H])c(F)c([H])c6F)c([H])c5[H])c(C(=O)N([H])[H])c4N([H])[H])C3([H])[H])C([H])([H])[H])c([H])c([H])c2C1([H])[H]

$$$$
65:0:0
     RDKit          3D

100107  0  0  1  0  0  0  0  0999 V2000
  -31.2190  -20.1480   18.3830 C   0  0  0  0  0  0  0  0  0  0  0  0
  -32.2910  -20.0680   17.5730 N   0  0  0  0  0  0  0  0  0  0  0  0
  -31.0240  -19.3750   19.3200 O   0  0  0  0  0  0  0  0  0  0  0  0
  -32.3510  -20.7580   16.8380 H   0  0  0  0  0  0  0  0  0  0  0  0
  -34.6020  -19.5630   16.8780 C   0  0  0  0  0  1  0  0  0  0  0  0
  -33.3300  -19.0270   17.5560 C   0  0  0  0  0  3  0  0  0  0  0  0
  -33.6430  -18.3970   18.9280 C   0  0  0  0  0  0  0  0  0  0  0  0
  -33.1350  -17.1830   19.1650 N   0  0  0  0  0  0  0  0  0  0  0  0
  -34.3260  -19.0110   19.7510 O   0  0  0  0  0  0  0  0  0  0  0  0
  -32.5560  -16.7570   18.4470 H   0  0  0  0  0  0  0  0  0  0  0  0
  -33.2660  -16.4210   20.3980 C   0  0  0  0  0  2  0  0  0  0  0  0
  -31.9620  -16.4570   21.2290 C   0  0  0  0  0  2  0  0  0  0  0  0
  -31.4840  -15.0730   21.7280 C   0  0  0  0  0  2  0  0  0  0  0  0
  -30.3450  -14.0400   19.7100 C   0  0  0  0  0  0  0  0  0  0  0  0
  -29.7030  -12.1030   18.3250 C   0  0  0  0  0  2  0  0  0  0  0  0
  -28.5470  -12.3560   17.3470 C   0  0  0  0  0  2  0  0  0  0  0  0
  -27.2010  -12.0980   18.0360 C   0  0  0  0  0  2  0  0  0  0  0  0
  -27.0770  -12.8700   19.3710 C   0  0  0  0  0  3  0  0  0  0  0  0
  -28.3170  -12.6450   20.2670 C   0  0  0  0  0  2  0  0  0  0  0  0
  -29.5340  -12.9740   19.4970 N   0  0  0  0  0  0  0  0  0  0  0  0
  -31.1340  -14.4700   18.8630 O   0  0  0  0  0  0  0  0  0  0  0  0
  -30.3790  -14.4490   20.9870 N   0  0  0  0  0  0  0  0  0  0  0  0
  -29.6540  -14.0470   21.5650 H   0  0  0  0  0  0  0  0  0  0  0  0
  -24.8260  -13.3710   20.5200 C   0  0  0  0  0  0  0  0  0  0  0  0
  -23.8560  -12.5500   21.0270 C   0  0  0  0  0  0  0  0  0  0  0  0
  -24.3290  -11.2160   20.8400 C   0  0  0  0  0  0  0  0  0  0  0  0
  -25.8340  -12.5350   20.0640 N   0  0  0  0  0  0  0  0  0  0  0  0
  -25.5450  -11.2310   20.3070 N   0  0  0  0  0  0  0  0  0  0  0  0
  -23.6730   -9.9250   21.0830 C   0  0  0  0  0  0  0  0  0  0  0  0
  -24.2020   -8.9900   22.0000 C   0  0  0  0  0  3  0  0  0  0  0  0
  -23.5450   -7.7620   22.2320 C   0  0  0  0  0  3  0  0  0  0  0  0
  -22.3440   -7.4610   21.5480 C   0  0  0  0  0  0  0  0  0  0  0  0
  -21.8310   -8.3860   20.6220 C   0  0  0  0  0  3  0  0  0  0  0  0
  -22.4890   -9.6050   20.3870 C   0  0  0  0  0  3  0  0  0  0  0  0
  -21.6480   -6.2840   21.6920 O   0  0  0  0  0  0  0  0  0  0  0  0
  -21.6330   -5.5960   22.8790 C   0  0  0  0  0  0  0  0  0  0  0  0
  -21.1500   -6.1760   24.0720 C   0  0  0  0  0  3  0  0  0  0  0  0
  -21.0890   -5.4100   25.2520 C   0  0  0  0  0  3  0  0  0  0  0  0
  -21.5020   -4.0640   25.2420 C   0  0  0  0  0  0  0  0  0  0  0  0
  -21.9770   -3.4820   24.0530 C   0  0  0  0  0  3  0  0  0  0  0  0
  -22.0410   -4.2470   22.8740 C   0  0  0  0  0  0  0  0  0  0  0  0
  -22.4800   -3.6740   21.7270 F   0  0  0  0  0  0  0  0  0  0  0  0
  -21.4350   -3.3250   26.3740 F   0  0  0  0  0  0  0  0  0  0  0  0
  -22.5200  -12.9710   21.5710 C   0  0  0  0  0  0  0  0  0  0  0  0
  -21.9870  -12.2210   22.5300 N   0  0  0  0  0  0  0  0  0  0  0  0
  -21.9670  -13.9980   21.1810 O   0  0  0  0  0  0  0  0  0  0  0  0
  -22.4530  -11.3910   22.8640 H   0  0  0  0  0  0  0  0  0  0  0  0
  -21.1010  -12.4840   22.9350 H   0  0  0  0  0  0  0  0  0  0  0  0
  -24.9250  -14.7530   20.3980 N   0  0  0  0  0  0  0  0  0  0  0  0
  -24.1730  -15.3780   20.6710 H   0  0  0  0  0  0  0  0  0  0  0  0
  -25.7050  -15.2400   19.9720 H   0  0  0  0  0  0  0  0  0  0  0  0
  -30.0350  -21.5880   16.6060 C   0  0  0  0  0  1  0  0  0  0  0  0
  -30.1760  -21.2360   18.1030 C   0  0  0  0  0  3  0  0  0  0  0  0
  -30.3950  -22.4190   18.9600 N   0  0  0  0  0  4  0  0  0  0  0  0
  -30.8060  -22.0910   19.8210 H   0  0  0  0  0  0  0  0  0  0  0  0
  -31.0690  -23.0240   18.5170 H   0  0  0  0  0  0  0  0  0  0  0  0
  -29.1500  -23.1530   19.2790 C   0  0  0  0  0  2  0  0  0  0  0  0
  -29.3820  -24.5790   19.8210 C   0  0  0  0  0  2  0  0  0  0  0  0
  -28.0470  -25.3290   19.9320 C   0  0  0  0  0  2  0  0  0  0  0  0
  -28.1840  -26.7050   20.3130 O   0  0  0  0  0  0  0  0  0  0  0  0
  -24.5320  -32.0360   23.3540 C   0  0  0  0  0  0  0  0  0  0  0  0
  -27.0240  -27.4600   20.3170 C   0  0  0  0  0  0  0  0  0  0  0  0
  -23.2800  -30.6350   21.7540 C   0  0  0  0  0  3  0  0  0  0  0  0
  -24.6740  -29.0440   20.3420 C   0  0  0  0  0  0  0  0  0  0  0  0
  -25.8150  -30.9220   21.5250 C   0  0  0  0  0  2  0  0  0  0  0  0
  -25.8570  -29.5380   20.9080 C   0  0  0  0  0  0  0  0  0  0  0  0
  -27.0360  -28.7560   20.8900 C   0  0  0  0  0  3  0  0  0  0  0  0
  -25.8080  -26.9830   19.7650 C   0  0  0  0  0  3  0  0  0  0  0  0
  -24.6460  -27.7660   19.7700 C   0  0  0  0  0  3  0  0  0  0  0  0
  -23.4580  -29.9370   20.3840 C   0  0  0  0  0  2  0  0  0  0  0  0
  -24.5630  -31.2110   22.2700 N   0  0  0  0  0  0  0  0  0  0  0  0
  -23.4600  -32.3500   23.8890 O   0  0  0  0  0  0  0  0  0  0  0  0
  -22.6140  -29.6430   22.7350 C   0  0  0  0  0  0  0  0  0  0  0  0
  -21.2960  -29.4360   22.5680 N   0  0  0  0  0  0  0  0  0  0  0  0
  -23.2780  -29.0620   23.5980 O   0  0  0  0  0  0  0  0  0  0  0  0
  -20.8250  -29.9560   21.8400 H   0  0  0  0  0  0  0  0  0  0  0  0
  -17.9290  -28.1800   22.9620 C   0  0  0  0  0  0  0  0  0  0  0  0
  -20.4620  -28.5230   23.3480 C   0  0  0  0  0  3  0  0  0  0  0  0
  -20.6280  -27.0630   22.8630 C   0  0  0  0  0  2  0  0  0  0  0  0
  -19.5880  -26.6540   21.8150 C   0  0  0  0  0  2  0  0  0  0  0  0
  -18.1710  -26.7980   22.3790 C   0  0  0  0  0  2  0  0  0  0  0  0
  -19.0050  -28.9960   23.4010 C   0  0  0  0  0  0  0  0  0  0  0  0
  -18.7240  -30.2860   23.9030 C   0  0  0  0  0  3  0  0  0  0  0  0
  -17.4010  -30.7630   23.9640 C   0  0  0  0  0  3  0  0  0  0  0  0
  -16.3400  -29.9440   23.5410 C   0  0  0  0  0  3  0  0  0  0  0  0
  -16.6040  -28.6540   23.0490 C   0  0  0  0  0  3  0  0  0  0  0  0
  -25.8370  -32.6490   23.9530 C   0  0  0  0  0  3  0  0  0  0  0  0
  -26.3590  -31.8690   25.2200 C   0  0  1  0  0  0  0  0  0  0  0  0
  -25.2690  -31.6140   26.2870 C   0  0  0  0  0  1  0  0  0  0  0  0
  -26.9460  -30.4990   24.8060 C   0  0  0  0  0  1  0  0  0  0  0  0
  -27.5110  -32.6590   25.8830 C   0  0  0  0  0  1  0  0  0  0  0  0
  -25.5550  -34.0520   24.2830 N   0  0  0  0  0  0  0  0  0  0  0  0
  -25.8760  -35.0930   23.5040 C   0  0  0  0  0  0  0  0  0  0  0  0
  -26.5160  -34.9740   22.4560 O   0  0  0  0  0  0  0  0  0  0  0  0
  -24.9830  -34.2200   25.1000 H   0  0  0  0  0  0  0  0  0  0  0  0
  -24.1540  -36.8970   23.1860 C   0  0  0  0  0  1  0  0  0  0  0  0
  -25.4170  -36.4910   23.9630 C   0  0  0  0  0  3  0  0  0  0  0  0
  -27.5850  -37.3630   24.7190 C   0  0  0  0  0  1  0  0  0  0  0  0
  -26.4570  -37.5320   23.8050 N   0  0  0  0  0  0  0  0  0  0  0  0
  -26.0640  -38.4570   23.9520 H   0  0  0  0  0  0  0  0  0  0  0  0
  1  3  2  0
  2  1  1  0
  4  2  1  0
  6  5  1  0
  6  2  1  0
  6  7  1  0
  7  8  1  0
  7  9  2  0
  8 11  1  0
 10  8  1  0
 11 12  1  0
 12 13  1  0
 14 22  1  0
 15 20  1  0
 16 17  1  0
 16 15  1  0
 18 17  1  0
 18 27  1  0
 18 19  1  0
 20 14  1  0
 20 19  1  0
 21 14  2  0
 22 23  1  0
 22 13  1  0
 24 25  2  0
 25 44  1  0
 26 25  1  0
 26 29  1  0
 27 28  1  0
 27 24  1  0
 28 26  2  0
 29 30  1  0
 30 31  2  0
 32 35  1  0
 32 31  1  0
 33 32  2  0
 34 33  1  0
 34 29  2  0
 35 36  1  0
 36 37  1  0
 37 38  2  0
 39 38  1  0
 39 43  1  0
 40 39  2  0
 41 36  2  0
 41 40  1  0
 42 41  1  0
 44 45  1  0
 45 47  1  0
 45 48  1  0
 46 44  2  0
 49 24  1  0
 49 50  1  0
 51 49  1  0
 53 52  1  0
 53  1  1  0
 53 54  1  0
 54 57  1  0
 54 55  1  0
 56 54  1  0
 57 58  1  0
 58 59  1  0
 59 60  1  0
 60 62  1  0
 61 72  2  0
 62 67  1  0
 63 71  1  0
 63 73  1  0
 64 70  1  0
 64 66  1  0
 65 71  1  0
 66 65  1  0
 67 66  2  0
 68 69  1  0
 68 62  2  0
 69 64  2  0
 70 63  1  0
 71 61  1  0
 73 75  2  0
 74 73  1  0
 76 74  1  0
 77 86  2  0
 77 82  1  0
 78 74  1  0
 78 82  1  0
 79 78  1  0
 80 81  1  0
 80 79  1  0
 81 77  1  0
 82 83  2  0
 83 84  1  0
 85 84  2  0
 86 85  1  0
 87 61  1  0
 87 92  1  0
 87 88  1  0
 88 91  1  1
 88 89  1  0
 90 88  1  0
 92 95  1  0
 93 97  1  0
 93 92  1  0
 94 93  2  0
 97 96  1  0
 99100  1  0
 99 97  1  0
 99 98  1  0
M  ISO  4  14 100  22 100  59 101  60 101
M  END
>  <TORSDO>  (65) 
F 26

>  <SCORE>  (65) 
-9.286

>  <name>  (65) 
65

>  <ligand_id>  (65) 
65

>  <original_smiles>  (65) 
[H]c1c([H])c([H])c2c(c1[H])C([H])([H])C([H])([H])C([H])([H])C2([H])N([H])C(=O)C1([H])N(C(=O)C([H])(N([H])C(=O)C([H])(N([H])C([H])([H])[H])C([H])([H])[H])C(C([H])([H])[H])(C([H])([H])[H])C([H])([H])[H])C([H])([H])c2c([H])c(OC([H])([H])C([H])([H])C([H])([H])[N+]([H])([H])C([H])(C(=O)N([H])C([H])(C(=O)N([H])C([H])([H])C([H])([H])C([H])([H])N([H])C(=O)N3C([H])([H])C([H])([H])C([H])([H])C([H])(n4nc(-c5c([H])c([H])c(Oc6c([H])c([H])c(F)c([H])c6F)c([H])c5[H])c(C(=O)N([H])[H])c4N([H])[H])C3([H])[H])C([H])([H])[H])C([H])([H])[H])c([H])c([H])c2C1([H])[H]

>  <smiles>  (65) 
[H]c1c([H])c([H])c2c(c1[H])C([H])([H])C([H])([H])C([H])([H])C2([H])N([H])C(=O)C1([H])N(C(=O)C([H])(N([H])C(=O)C([H])(N([H])C([H])([H])[H])C([H])([H])[H])C(C([H])([H])[H])(C([H])([H])[H])C([H])([H])[H])C([H])([H])c2c([H])c(OC([H])([H])C([H])([H])C([H])([H])[N+]([H])([H])C([H])(C(=O)N([H])C([H])(C(=O)N([H])C([H])([H])C([H])([H])C([H])([H])N([H])C(=O)N3C([H])([H])C([H])([H])C([H])([H])C([H])(n4nc(-c5c([H])c([H])c(Oc6c([H])c([H])c(F)c([H])c6F)c([H])c5[H])c(C(=O)N([H])[H])c4N([H])[H])C3([H])[H])C([H])([H])[H])C([H])([H])[H])c([H])c([H])c2C1([H])[H]

$$$$
66:0:0
     RDKit          3D

 92 99  0  0  1  0  0  0  0  0999 V2000
  -30.2270  -21.9720   21.3840 C   0  0  0  0  0  3  0  0  0  0  0  0
  -29.8600  -23.1930   21.4390 N   0  0  0  0  0  0  0  0  0  0  0  0
  -29.7840  -20.9010   22.3720 C   0  0  0  0  0  2  0  0  0  0  0  0
  -30.5130  -19.5700   22.1170 C   0  0  0  0  0  0  0  0  0  0  0  0
  -31.8460  -19.5410   22.2600 N   0  0  0  0  0  0  0  0  0  0  0  0
  -29.8660  -18.5680   21.8000 O   0  0  0  0  0  0  0  0  0  0  0  0
  -32.2930  -20.3910   22.5770 H   0  0  0  0  0  0  0  0  0  0  0  0
  -32.7320  -18.4150   21.9540 C   0  0  0  0  0  2  0  0  0  0  0  0
  -33.2710  -18.5330   20.5160 C   0  0  0  0  0  2  0  0  0  0  0  0
  -34.0040  -17.2730   20.0180 C   0  0  0  0  0  2  0  0  0  0  0  0
  -33.3100  -15.1170   18.9760 C   0  0  0  0  0  0  0  0  0  0  0  0
  -32.8180  -12.7440   18.5190 C   0  0  0  0  0  2  0  0  0  0  0  0
  -31.8110  -12.5480   17.3730 C   0  0  0  0  0  2  0  0  0  0  0  0
  -30.3680  -12.6070   17.9030 C   0  0  0  0  0  2  0  0  0  0  0  0
  -30.1150  -13.8570   18.7870 C   0  0  0  0  0  3  0  0  0  0  0  0
  -31.2190  -14.0140   19.8560 C   0  0  0  0  0  2  0  0  0  0  0  0
  -32.5330  -14.0230   19.1850 N   0  0  0  0  0  0  0  0  0  0  0  0
  -34.2210  -15.1500   18.1430 O   0  0  0  0  0  0  0  0  0  0  0  0
  -33.1160  -16.1200   19.8470 N   0  0  0  0  0  0  0  0  0  0  0  0
  -32.3840  -15.9880   20.5280 H   0  0  0  0  0  0  0  0  0  0  0  0
  -27.9340  -14.8650   19.7200 C   0  0  0  0  0  0  0  0  0  0  0  0
  -26.7880  -14.2860   20.1910 C   0  0  0  0  0  0  0  0  0  0  0  0
  -26.9980  -12.8750   20.1130 C   0  0  0  0  0  0  0  0  0  0  0  0
  -28.7830  -13.8180   19.3900 N   0  0  0  0  0  0  0  0  0  0  0  0
  -28.2260  -12.6150   19.6810 N   0  0  0  0  0  0  0  0  0  0  0  0
  -26.0830  -11.7560   20.3710 C   0  0  0  0  0  0  0  0  0  0  0  0
  -26.3010  -10.8550   21.4360 C   0  0  0  0  0  3  0  0  0  0  0  0
  -25.3980   -9.7970   21.6760 C   0  0  0  0  0  3  0  0  0  0  0  0
  -24.2590   -9.6340   20.8500 C   0  0  0  0  0  0  0  0  0  0  0  0
  -24.0600  -10.5210   19.7770 C   0  0  0  0  0  3  0  0  0  0  0  0
  -24.9620  -11.5700   19.5370 C   0  0  0  0  0  3  0  0  0  0  0  0
  -23.3420   -8.6210   20.9910 O   0  0  0  0  0  0  0  0  0  0  0  0
  -22.9220   -8.1980   22.2270 C   0  0  0  0  0  0  0  0  0  0  0  0
  -22.3100   -9.0760   23.1470 C   0  0  0  0  0  3  0  0  0  0  0  0
  -21.8300   -8.5850   24.3770 C   0  0  0  0  0  3  0  0  0  0  0  0
  -21.9510   -7.2160   24.6840 C   0  0  0  0  0  0  0  0  0  0  0  0
  -22.5550   -6.3380   23.7660 C   0  0  0  0  0  3  0  0  0  0  0  0
  -23.0360   -6.8290   22.5390 C   0  0  0  0  0  0  0  0  0  0  0  0
  -23.5970   -5.9750   21.6490 F   0  0  0  0  0  0  0  0  0  0  0  0
  -21.4830   -6.7420   25.8610 F   0  0  0  0  0  0  0  0  0  0  0  0
  -25.5280  -14.9940   20.5990 C   0  0  0  0  0  0  0  0  0  0  0  0
  -24.7940  -14.4400   21.5560 N   0  0  0  0  0  0  0  0  0  0  0  0
  -25.2130  -16.0750   20.0990 O   0  0  0  0  0  0  0  0  0  0  0  0
  -25.0660  -13.5650   21.9790 H   0  0  0  0  0  0  0  0  0  0  0  0
  -23.9480  -14.8950   21.8680 H   0  0  0  0  0  0  0  0  0  0  0  0
  -28.3210  -16.1900   19.5320 N   0  0  0  0  0  0  0  0  0  0  0  0
  -27.6980  -16.9650   19.7270 H   0  0  0  0  0  0  0  0  0  0  0  0
  -29.2130  -16.4810   19.1520 H   0  0  0  0  0  0  0  0  0  0  0  0
  -30.4280  -24.0560   20.4170 C   0  0  0  0  0  2  0  0  0  0  0  0
  -30.0410  -25.5320   20.6360 C   0  0  0  0  0  2  0  0  0  0  0  0
  -28.6530  -25.9110   20.0930 C   0  0  0  0  0  2  0  0  0  0  0  0
  -28.6240  -27.3220   19.8690 O   0  0  0  0  0  0  0  0  0  0  0  0
  -24.4710  -31.8890   23.3380 C   0  0  0  0  0  0  0  0  0  0  0  0
  -27.3870  -27.9150   19.9170 C   0  0  0  0  0  0  0  0  0  0  0  0
  -23.3370  -30.4910   21.6400 C   0  0  0  0  0  3  0  0  0  0  0  0
  -24.8690  -29.1840   20.0780 C   0  0  0  0  0  0  0  0  0  0  0  0
  -25.8100  -31.0950   21.3920 C   0  0  0  0  0  2  0  0  0  0  0  0
  -25.9930  -29.7800   20.6620 C   0  0  0  0  0  0  0  0  0  0  0  0
  -27.2550  -29.1550   20.5740 C   0  0  0  0  0  3  0  0  0  0  0  0
  -26.2440  -27.3240   19.3300 C   0  0  0  0  0  3  0  0  0  0  0  0
  -24.9890  -27.9530   19.4080 C   0  0  0  0  0  3  0  0  0  0  0  0
  -23.5580  -29.9220   20.2130 C   0  0  0  0  0  2  0  0  0  0  0  0
  -24.5580  -31.1710   22.1810 N   0  0  0  0  0  0  0  0  0  0  0  0
  -23.3900  -32.0280   23.9260 O   0  0  0  0  0  0  0  0  0  0  0  0
  -22.8120  -29.3560   22.5490 C   0  0  0  0  0  0  0  0  0  0  0  0
  -21.5590  -28.9360   22.3150 N   0  0  0  0  0  0  0  0  0  0  0  0
  -23.5330  -28.8590   23.4180 O   0  0  0  0  0  0  0  0  0  0  0  0
  -21.0310  -29.4050   21.5930 H   0  0  0  0  0  0  0  0  0  0  0  0
  -18.5050  -27.0100   22.3920 C   0  0  0  0  0  0  0  0  0  0  0  0
  -20.8660  -27.8560   23.0190 C   0  0  0  0  0  3  0  0  0  0  0  0
  -21.3740  -26.4720   22.5540 C   0  0  0  0  0  2  0  0  0  0  0  0
  -20.5430  -25.8770   21.4140 C   0  0  0  0  0  2  0  0  0  0  0  0
  -19.0800  -25.7170   21.8390 C   0  0  0  0  0  2  0  0  0  0  0  0
  -19.3450  -28.0190   22.9310 C   0  0  0  0  0  0  0  0  0  0  0  0
  -18.7610  -29.2160   23.4000 C   0  0  0  0  0  3  0  0  0  0  0  0
  -17.3680  -29.4090   23.3430 C   0  0  0  0  0  3  0  0  0  0  0  0
  -16.5390  -28.3980   22.8260 C   0  0  0  0  0  3  0  0  0  0  0  0
  -17.1080  -27.2020   22.3530 C   0  0  0  0  0  3  0  0  0  0  0  0
  -25.7200  -32.5860   23.9630 C   0  0  0  0  0  3  0  0  0  0  0  0
  -25.3600  -33.9840   24.2300 N   0  0  0  0  0  0  0  0  0  0  0  0
  -25.7270  -35.0210   23.4650 C   0  0  0  0  0  0  0  0  0  0  0  0
  -26.4730  -34.9030   22.4890 O   0  0  0  0  0  0  0  0  0  0  0  0
  -24.7050  -34.1460   24.9810 H   0  0  0  0  0  0  0  0  0  0  0  0
  -24.0020  -36.7620   22.9130 C   0  0  0  0  0  1  0  0  0  0  0  0
  -25.1760  -36.4080   23.8410 C   0  0  0  0  0  3  0  0  0  0  0  0
  -27.2200  -37.3520   24.8180 C   0  0  0  0  0  1  0  0  0  0  0  0
  -26.1950  -37.4790   23.7860 N   0  0  0  0  0  0  0  0  0  0  0  0
  -25.7630  -38.3940   23.8820 H   0  0  0  0  0  0  0  0  0  0  0  0
  -26.2350  -31.8810   25.2780 C   0  0  1  0  0  0  0  0  0  0  0  0
  -25.1190  -31.6090   26.3140 C   0  0  0  0  0  1  0  0  0  0  0  0
  -26.9130  -30.5320   24.9390 C   0  0  0  0  0  1  0  0  0  0  0  0
  -27.3050  -32.7630   25.9620 C   0  0  0  0  0  1  0  0  0  0  0  0
  1  2  2  0
  1  3  1  0
  4  5  1  0
  4  3  1  0
  5  7  1  0
  6  4  2  0
  8  5  1  0
  9  8  1  0
 10  9  1  0
 11 17  1  0
 11 19  1  0
 12 17  1  0
 13 14  1  0
 13 12  1  0
 15 14  1  0
 15 24  1  0
 15 16  1  0
 17 16  1  0
 18 11  2  0
 19 10  1  0
 19 20  1  0
 21 22  2  0
 22 41  1  0
 23 22  1  0
 23 26  1  0
 24 25  1  0
 24 21  1  0
 25 23  2  0
 26 27  1  0
 27 28  2  0
 29 32  1  0
 29 28  1  0
 30 29  2  0
 31 30  1  0
 31 26  2  0
 32 33  1  0
 33 38  2  0
 33 34  1  0
 34 35  2  0
 35 36  1  0
 36 40  1  0
 37 36  2  0
 38 37  1  0
 39 38  1  0
 41 42  1  0
 42 45  1  0
 42 44  1  0
 43 41  2  0
 46 21  1  0
 46 47  1  0
 48 46  1  0
 49 50  1  0
 49  2  1  0
 51 50  1  0
 52 54  1  0
 52 51  1  0
 53 64  2  0
 54 59  1  0
 55 63  1  0
 55 65  1  0
 56 62  1  0
 56 58  1  0
 57 63  1  0
 58 57  1  0
 59 58  2  0
 60 61  1  0
 60 54  2  0
 61 56  2  0
 62 55  1  0
 63 53  1  0
 65 67  2  0
 66 65  1  0
 68 66  1  0
 69 74  1  0
 70 66  1  0
 71 70  1  0
 72 73  1  0
 72 71  1  0
 73 69  1  0
 74 70  1  0
 74 75  2  0
 76 75  1  0
 77 76  2  0
 78 69  2  0
 78 77  1  0
 79 53  1  0
 79 80  1  0
 79 89  1  0
 80 83  1  0
 81 85  1  0
 81 80  1  0
 82 81  2  0
 85 84  1  0
 87 85  1  0
 87 88  1  0
 87 86  1  0
 89 92  1  1
 89 90  1  0
 91 89  1  0
M  ISO  4  11 100  19 100  51 101  52 101
M  END
>  <TORSDO>  (66) 
F 24

>  <SCORE>  (66) 
-6.153

>  <name>  (66) 
66

>  <ligand_id>  (66) 
66

>  <original_smiles>  (66) 
[H]C(=NC([H])([H])C([H])([H])C([H])([H])Oc1c([H])c([H])c2c(c1[H])C([H])([H])N(C(=O)C([H])(N([H])C(=O)C([H])(N([H])C([H])([H])[H])C([H])([H])[H])C(C([H])([H])[H])(C([H])([H])[H])C([H])([H])[H])C([H])(C(=O)N([H])C1([H])c3c([H])c([H])c([H])c([H])c3C([H])([H])C([H])([H])C1([H])[H])C2([H])[H])C([H])([H])C(=O)N([H])C([H])([H])C([H])([H])C([H])([H])N([H])C(=O)N1C([H])([H])C([H])([H])C([H])([H])C([H])(n2nc(-c3c([H])c([H])c(Oc4c([H])c([H])c(F)c([H])c4F)c([H])c3[H])c(C(=O)N([H])[H])c2N([H])[H])C1([H])[H]

>  <smiles>  (66) 
[H]C(=NC([H])([H])C([H])([H])C([H])([H])Oc1c([H])c([H])c2c(c1[H])C([H])([H])N(C(=O)C([H])(N([H])C(=O)C([H])(N([H])C([H])([H])[H])C([H])([H])[H])C(C([H])([H])[H])(C([H])([H])[H])C([H])([H])[H])C([H])(C(=O)N([H])C1([H])c3c([H])c([H])c([H])c([H])c3C([H])([H])C([H])([H])C1([H])[H])C2([H])[H])C([H])([H])C(=O)N([H])C([H])([H])C([H])([H])C([H])([H])N([H])C(=O)N1C([H])([H])C([H])([H])C([H])([H])C([H])(n2nc(-c3c([H])c([H])c(Oc4c([H])c([H])c(F)c([H])c4F)c([H])c3[H])c(C(=O)N([H])[H])c2N([H])[H])C1([H])[H]

$$$$
67:0:0
     RDKit          3D

 97104  0  0  1  0  0  0  0  0999 V2000
  -30.5170  -21.0010   18.9250 C   0  0  0  0  0  3  0  0  0  0  0  0
  -29.5510  -20.0270   19.6480 C   0  0  0  0  0  0  0  0  0  0  0  0
  -30.1100  -18.9010   20.1100 N   0  0  0  0  0  0  0  0  0  0  0  0
  -28.3420  -20.2610   19.7330 O   0  0  0  0  0  0  0  0  0  0  0  0
  -31.1130  -18.8020   19.9960 H   0  0  0  0  0  0  0  0  0  0  0  0
  -28.9780  -17.9360   22.1030 C   0  0  0  0  0  1  0  0  0  0  0  0
  -29.4840  -17.7040   20.6680 C   0  0  0  0  0  3  0  0  0  0  0  0
  -30.8620  -14.3100   19.9930 C   0  0  0  0  0  0  0  0  0  0  0  0
  -30.4530  -12.1950   18.8060 C   0  0  0  0  0  2  0  0  0  0  0  0
  -29.4460  -12.4670   17.6700 C   0  0  0  0  0  2  0  0  0  0  0  0
  -27.9970  -12.3450   18.1860 C   0  0  0  0  0  2  0  0  0  0  0  0
  -27.7500  -13.1360   19.5010 C   0  0  0  0  0  3  0  0  0  0  0  0
  -28.8700  -12.8600   20.5270 C   0  0  0  0  0  2  0  0  0  0  0  0
  -30.1590  -13.1540   19.8810 N   0  0  0  0  0  0  0  0  0  0  0  0
  -31.9910  -14.4440   19.5120 O   0  0  0  0  0  0  0  0  0  0  0  0
  -30.5600  -16.6080   20.6460 C   0  0  0  0  0  0  0  0  0  0  0  0
  -30.1430  -15.3480   20.4580 N   0  0  0  0  0  0  0  0  0  0  0  0
  -31.7460  -16.9490   20.7570 O   0  0  0  0  0  0  0  0  0  0  0  0
  -29.1590  -15.1760   20.5860 H   0  0  0  0  0  0  0  0  0  0  0  0
  -25.4020  -13.7390   20.3690 C   0  0  0  0  0  0  0  0  0  0  0  0
  -24.3570  -12.9640   20.7900 C   0  0  0  0  0  0  0  0  0  0  0  0
  -24.8080  -11.6110   20.7050 C   0  0  0  0  0  0  0  0  0  0  0  0
  -26.4280  -12.8580   20.0570 N   0  0  0  0  0  0  0  0  0  0  0  0
  -26.0760  -11.5720   20.3180 N   0  0  0  0  0  0  0  0  0  0  0  0
  -24.0900  -10.3480   20.9160 C   0  0  0  0  0  0  0  0  0  0  0  0
  -24.5430   -9.3880   21.8470 C   0  0  0  0  0  3  0  0  0  0  0  0
  -23.8270   -8.1890   22.0440 C   0  0  0  0  0  3  0  0  0  0  0  0
  -22.6430   -7.9410   21.3090 C   0  0  0  0  0  0  0  0  0  0  0  0
  -22.2090   -8.8900   20.3670 C   0  0  0  0  0  3  0  0  0  0  0  0
  -22.9260  -10.0800   20.1680 C   0  0  0  0  0  3  0  0  0  0  0  0
  -21.8960   -6.7920   21.4150 O   0  0  0  0  0  0  0  0  0  0  0  0
  -21.8290   -6.0830   22.5870 C   0  0  0  0  0  0  0  0  0  0  0  0
  -21.3690   -6.6690   23.7870 C   0  0  0  0  0  3  0  0  0  0  0  0
  -21.2490   -5.8870   24.9540 C   0  0  0  0  0  3  0  0  0  0  0  0
  -21.5780   -4.5180   24.9190 C   0  0  0  0  0  0  0  0  0  0  0  0
  -22.0310   -3.9310   23.7250 C   0  0  0  0  0  3  0  0  0  0  0  0
  -22.1530   -4.7110   22.5610 C   0  0  0  0  0  0  0  0  0  0  0  0
  -22.5690   -4.1360   21.4070 F   0  0  0  0  0  0  0  0  0  0  0  0
  -21.4550   -3.7650   26.0360 F   0  0  0  0  0  0  0  0  0  0  0  0
  -22.9800  -13.4400   21.1570 C   0  0  0  0  0  0  0  0  0  0  0  0
  -22.3060  -12.7420   22.0630 N   0  0  0  0  0  0  0  0  0  0  0  0
  -22.5130  -14.4700   20.6720 O   0  0  0  0  0  0  0  0  0  0  0  0
  -22.6930  -11.9090   22.4780 H   0  0  0  0  0  0  0  0  0  0  0  0
  -21.3860  -13.0520   22.3460 H   0  0  0  0  0  0  0  0  0  0  0  0
  -25.5590  -15.1120   20.2060 N   0  0  0  0  0  0  0  0  0  0  0  0
  -24.7910  -15.7540   20.3730 H   0  0  0  0  0  0  0  0  0  0  0  0
  -26.3590  -15.5590   19.7770 H   0  0  0  0  0  0  0  0  0  0  0  0
  -29.9990  -23.1470   20.1430 C   0  0  0  0  0  0  0  0  0  0  0  0
  -30.1820  -22.4290   19.0250 N   0  0  0  0  0  0  0  0  0  0  0  0
  -29.9760  -22.6420   21.2650 O   0  0  0  0  0  0  0  0  0  0  0  0
  -30.1600  -22.9320   18.1500 H   0  0  0  0  0  0  0  0  0  0  0  0
  -29.9050  -24.6720   19.9890 C   0  0  0  0  0  2  0  0  0  0  0  0
  -28.5180  -25.2410   20.3170 C   0  0  0  0  0  2  0  0  0  0  0  0
  -28.5650  -26.6710   20.2200 O   0  0  0  0  0  0  0  0  0  0  0  0
  -24.6030  -31.7690   23.2130 C   0  0  0  0  0  0  0  0  0  0  0  0
  -27.3670  -27.3530   20.2040 C   0  0  0  0  0  0  0  0  0  0  0  0
  -23.4530  -30.3520   21.5450 C   0  0  0  0  0  3  0  0  0  0  0  0
  -24.9560  -28.8300   20.1610 C   0  0  0  0  0  0  0  0  0  0  0  0
  -25.9780  -30.7400   21.4050 C   0  0  0  0  0  2  0  0  0  0  0  0
  -26.0940  -29.3690   20.7720 C   0  0  0  0  0  0  0  0  0  0  0  0
  -27.3040  -28.6390   20.7860 C   0  0  0  0  0  3  0  0  0  0  0  0
  -26.2060  -26.8260   19.5900 C   0  0  0  0  0  3  0  0  0  0  0  0
  -25.0060  -27.5590   19.5680 C   0  0  0  0  0  3  0  0  0  0  0  0
  -23.7010  -29.6720   20.1730 C   0  0  0  0  0  2  0  0  0  0  0  0
  -24.6950  -30.9670   22.1140 N   0  0  0  0  0  0  0  0  0  0  0  0
  -23.5050  -32.0280   23.7250 O   0  0  0  0  0  0  0  0  0  0  0  0
  -22.7910  -29.3220   22.4890 C   0  0  0  0  0  0  0  0  0  0  0  0
  -21.4720  -29.1250   22.3280 N   0  0  0  0  0  0  0  0  0  0  0  0
  -23.4610  -28.7030   23.3200 O   0  0  0  0  0  0  0  0  0  0  0  0
  -20.9950  -29.6740   21.6280 H   0  0  0  0  0  0  0  0  0  0  0  0
  -18.1020  -27.8920   22.7310 C   0  0  0  0  0  0  0  0  0  0  0  0
  -20.6460  -28.1810   23.0800 C   0  0  0  0  0  3  0  0  0  0  0  0
  -20.7840  -26.7490   22.5140 C   0  0  0  0  0  2  0  0  0  0  0  0
  -19.7180  -26.4070   21.4690 C   0  0  0  0  0  2  0  0  0  0  0  0
  -18.3150  -26.5400   22.0700 C   0  0  0  0  0  2  0  0  0  0  0  0
  -19.1970  -28.6690   23.1910 C   0  0  0  0  0  0  0  0  0  0  0  0
  -18.9460  -29.9330   23.7670 C   0  0  0  0  0  3  0  0  0  0  0  0
  -17.6310  -30.4200   23.8880 C   0  0  0  0  0  3  0  0  0  0  0  0
  -16.5490  -29.6400   23.4460 C   0  0  0  0  0  3  0  0  0  0  0  0
  -16.7850  -28.3770   22.8740 C   0  0  0  0  0  3  0  0  0  0  0  0
  -25.8650  -32.4140   23.8620 C   0  0  0  0  0  3  0  0  0  0  0  0
  -25.5310  -33.8050   24.1940 N   0  0  0  0  0  0  0  0  0  0  0  0
  -25.8660  -34.8650   23.4480 C   0  0  0  0  0  0  0  0  0  0  0  0
  -26.5630  -34.7770   22.4320 O   0  0  0  0  0  0  0  0  0  0  0  0
  -24.9190  -33.9470   24.9840 H   0  0  0  0  0  0  0  0  0  0  0  0
  -24.1220  -36.6320   23.0560 C   0  0  0  0  0  1  0  0  0  0  0  0
  -25.3470  -36.2430   23.8990 C   0  0  0  0  0  3  0  0  0  0  0  0
  -27.4470  -37.1530   24.7900 C   0  0  0  0  0  1  0  0  0  0  0  0
  -26.3670  -37.3120   23.8190 N   0  0  0  0  0  0  0  0  0  0  0  0
  -25.9430  -38.2250   23.9640 H   0  0  0  0  0  0  0  0  0  0  0  0
  -26.3710  -31.6410   25.1410 C   0  0  1  0  0  0  0  0  0  0  0  0
  -25.2620  -31.3740   26.1860 C   0  0  0  0  0  1  0  0  0  0  0  0
  -26.9830  -30.2770   24.7440 C   0  0  0  0  0  1  0  0  0  0  0  0
  -27.4970  -32.4470   25.8290 C   0  0  0  0  0  1  0  0  0  0  0  0
  -29.4520  -20.8240   16.5580 C   0  0  0  0  0  1  0  0  0  0  0  0
  -31.9260  -21.2890   16.7900 C   0  0  0  0  0  1  0  0  0  0  0  0
  -30.7050  -20.6050   17.4310 C   0  0  0  0  0  3  0  0  0  0  0  0
  1 97  1  0
  1 49  1  0
  1  2  1  0
  2  4  2  0
  2  3  1  0
  3  7  1  0
  5  3  1  0
  7  6  1  0
  8 17  1  0
  9 14  1  0
 10 11  1  0
 10  9  1  0
 12 11  1  0
 12 23  1  0
 12 13  1  0
 14  8  1  0
 14 13  1  0
 15  8  2  0
 16  7  1  0
 16 18  2  0
 17 19  1  0
 17 16  1  0
 20 21  2  0
 21 40  1  0
 22 21  1  0
 22 25  1  0
 23 24  1  0
 23 20  1  0
 24 22  2  0
 25 26  1  0
 26 27  2  0
 28 31  1  0
 28 27  1  0
 29 28  2  0
 30 29  1  0
 30 25  2  0
 31 32  1  0
 32 33  1  0
 33 34  2  0
 35 34  1  0
 35 39  1  0
 36 35  2  0
 37 32  2  0
 37 36  1  0
 38 37  1  0
 40 41  1  0
 41 44  1  0
 41 43  1  0
 42 40  2  0
 45 20  1  0
 45 46  1  0
 47 45  1  0
 48 50  2  0
 49 48  1  0
 51 49  1  0
 52 48  1  0
 52 53  1  0
 54 53  1  0
 55 66  2  0
 56 54  1  0
 56 61  1  0
 57 65  1  0
 57 67  1  0
 58 64  1  0
 58 60  1  0
 59 65  1  0
 60 61  2  0
 60 59  1  0
 62 56  2  0
 63 62  1  0
 63 58  2  0
 64 57  1  0
 65 55  1  0
 67 69  2  0
 68 67  1  0
 70 68  1  0
 71 80  2  0
 71 76  1  0
 72 68  1  0
 72 76  1  0
 73 72  1  0
 74 75  1  0
 74 73  1  0
 75 71  1  0
 76 77  2  0
 77 78  1  0
 79 78  2  0
 80 79  1  0
 81 55  1  0
 81 82  1  0
 81 91  1  0
 82 85  1  0
 83 87  1  0
 83 82  1  0
 84 83  2  0
 87 86  1  0
 89 87  1  0
 89 90  1  0
 89 88  1  0
 91 94  1  1
 91 92  1  0
 93 91  1  0
 95 97  1  0
 96 97  1  0
M  ISO  4   8 100  17 100  53 101  54 101
M  END
>  <TORSDO>  (67) 
F 22

>  <SCORE>  (67) 
-11.254

>  <name>  (67) 
67

>  <ligand_id>  (67) 
67

>  <original_smiles>  (67) 
[H]c1c([H])c([H])c2c(c1[H])C([H])([H])C([H])([H])C([H])([H])C2([H])N([H])C(=O)C1([H])N(C(=O)C([H])(N([H])C(=O)C([H])(N([H])C([H])([H])[H])C([H])([H])[H])C(C([H])([H])[H])(C([H])([H])[H])C([H])([H])[H])C([H])([H])c2c([H])c(OC([H])([H])C([H])([H])C(=O)N([H])C([H])(C(=O)N([H])C([H])(C(=O)N([H])C(=O)N3C([H])([H])C([H])([H])C([H])([H])C([H])(n4nc(-c5c([H])c([H])c(Oc6c([H])c([H])c(F)c([H])c6F)c([H])c5[H])c(C(=O)N([H])[H])c4N([H])[H])C3([H])[H])C([H])([H])[H])C([H])(C([H])([H])[H])C([H])([H])[H])c([H])c([H])c2C1([H])[H]

>  <smiles>  (67) 
[H]c1c([H])c([H])c2c(c1[H])C([H])([H])C([H])([H])C([H])([H])C2([H])N([H])C(=O)C1([H])N(C(=O)C([H])(N([H])C(=O)C([H])(N([H])C([H])([H])[H])C([H])([H])[H])C(C([H])([H])[H])(C([H])([H])[H])C([H])([H])[H])C([H])([H])c2c([H])c(OC([H])([H])C([H])([H])C(=O)N([H])C([H])(C(=O)N([H])C([H])(C(=O)N([H])C(=O)N3C([H])([H])C([H])([H])C([H])([H])C([H])(n4nc(-c5c([H])c([H])c(Oc6c([H])c([H])c(F)c([H])c6F)c([H])c5[H])c(C(=O)N([H])[H])c4N([H])[H])C3([H])[H])C([H])([H])[H])C([H])(C([H])([H])[H])C([H])([H])[H])c([H])c([H])c2C1([H])[H]

$$$$
68:0:0
     RDKit          3D

 84 91  0  0  1  0  0  0  0  0999 V2000
  -28.0360  -24.2690   20.5090 C   0  0  0  0  0  2  0  0  0  0  0  0
  -28.2220  -25.8810   20.2090 O   0  0  0  0  0  0  0  0  0  0  0  0
  -24.6160  -31.8370   23.1800 C   0  0  0  0  0  0  0  0  0  0  0  0
  -27.1870  -26.9520   20.2070 C   0  0  0  0  0  0  0  0  0  0  0  0
  -23.4240  -30.4230   21.5540 C   0  0  0  0  0  3  0  0  0  0  0  0
  -24.8760  -28.8110   20.1480 C   0  0  0  0  0  0  0  0  0  0  0  0
  -25.9900  -30.6480   21.3990 C   0  0  0  0  0  2  0  0  0  0  0  0
  -26.0650  -29.2330   20.7580 C   0  0  0  0  0  0  0  0  0  0  0  0
  -27.2180  -28.3250   20.7560 C   0  0  0  0  0  3  0  0  0  0  0  0
  -25.9650  -26.6750   19.5560 C   0  0  0  0  0  3  0  0  0  0  0  0
  -24.8500  -27.5530   19.5260 C   0  0  0  0  0  3  0  0  0  0  0  0
  -23.6540  -29.7270   20.1840 C   0  0  0  0  0  2  0  0  0  0  0  0
  -24.6980  -30.9970   22.0980 N   0  0  0  0  0  0  0  0  0  0  0  0
  -23.5260  -32.1260   23.7010 O   0  0  0  0  0  0  0  0  0  0  0  0
  -22.7360  -29.4330   22.5290 C   0  0  0  0  0  0  0  0  0  0  0  0
  -21.4040  -29.2710   22.4160 N   0  0  0  0  0  0  0  0  0  0  0  0
  -23.4070  -28.8080   23.3540 O   0  0  0  0  0  0  0  0  0  0  0  0
  -20.9170  -29.8260   21.7270 H   0  0  0  0  0  0  0  0  0  0  0  0
  -18.0230  -28.0690   22.9520 C   0  0  0  0  0  0  0  0  0  0  0  0
  -20.5850  -28.3390   23.1970 C   0  0  0  0  0  3  0  0  0  0  0  0
  -20.6840  -26.9040   22.6300 C   0  0  0  0  0  2  0  0  0  0  0  0
  -19.5750  -26.5740   21.6240 C   0  0  0  0  0  2  0  0  0  0  0  0
  -18.1970  -26.7180   22.2770 C   0  0  0  0  0  2  0  0  0  0  0  0
  -19.1440  -28.8370   23.3690 C   0  0  0  0  0  0  0  0  0  0  0  0
  -18.9240  -30.0980   23.9630 C   0  0  0  0  0  3  0  0  0  0  0  0
  -17.6200  -30.5940   24.1420 C   0  0  0  0  0  3  0  0  0  0  0  0
  -16.5140  -29.8250   23.7380 C   0  0  0  0  0  3  0  0  0  0  0  0
  -16.7170  -28.5640   23.1490 C   0  0  0  0  0  3  0  0  0  0  0  0
  -25.8860  -32.4890   23.8060 C   0  0  0  0  0  3  0  0  0  0  0  0
  -26.4090  -31.7230   25.0840 C   0  0  1  0  0  0  0  0  0  0  0  0
  -25.3200  -31.4800   26.1550 C   0  0  0  0  0  1  0  0  0  0  0  0
  -27.0000  -30.3470   24.6990 C   0  0  0  0  0  1  0  0  0  0  0  0
  -27.5570  -32.5240   25.7410 C   0  0  0  0  0  1  0  0  0  0  0  0
  -25.5550  -33.8830   24.1530 N   0  0  0  0  0  0  0  0  0  0  0  0
  -25.8660  -34.9530   23.4100 C   0  0  0  0  0  0  0  0  0  0  0  0
  -26.5250  -34.8730   22.3700 O   0  0  0  0  0  0  0  0  0  0  0  0
  -24.9660  -34.0180   24.9610 H   0  0  0  0  0  0  0  0  0  0  0  0
  -24.1090  -36.7340   23.1180 C   0  0  0  0  0  1  0  0  0  0  0  0
  -25.3720  -36.3320   23.8960 C   0  0  0  0  0  3  0  0  0  0  0  0
  -27.5150  -37.2360   24.6870 C   0  0  0  0  0  1  0  0  0  0  0  0
  -26.3890  -37.4000   23.7720 N   0  0  0  0  0  0  0  0  0  0  0  0
  -25.9750  -38.3130   23.9390 H   0  0  0  0  0  0  0  0  0  0  0  0
  -28.7190  -22.6990   19.9240 C   0  0  0  0  0  2  0  0  0  0  0  0
  -28.9900  -21.2170   20.5850 O   0  0  0  0  0  0  0  0  0  0  0  0
  -29.0780  -19.6810   19.9990 C   0  0  0  0  0  2  0  0  0  0  0  0
  -29.8810  -18.1670   20.5600 C   0  0  0  0  0  2  0  0  0  0  0  0
  -30.3820  -15.2640   20.2540 C   0  0  0  0  0  0  0  0  0  0  0  0
  -30.3490  -12.8260   19.3660 C   0  0  0  0  0  2  0  0  0  0  0  0
  -29.4210  -12.6110   18.1440 C   0  0  0  0  0  2  0  0  0  0  0  0
  -27.9740  -12.3490   18.5940 C   0  0  0  0  0  2  0  0  0  0  0  0
  -27.5290  -13.3180   19.7180 C   0  0  0  0  0  3  0  0  0  0  0  0
  -28.5830  -13.4670   20.8330 C   0  0  0  0  0  2  0  0  0  0  0  0
  -29.8060  -13.9670   20.1860 N   0  0  0  0  0  0  0  0  0  0  0  0
  -31.6080  -15.2630   20.0800 O   0  0  0  0  0  0  0  0  0  0  0  0
  -29.6180  -16.5330   20.3180 N   0  0  0  0  0  0  0  0  0  0  0  0
  -28.6290  -16.3280   20.3210 H   0  0  0  0  0  0  0  0  0  0  0  0
  -25.1610  -13.8840   20.4750 C   0  0  0  0  0  0  0  0  0  0  0  0
  -24.0990  -13.1090   20.8510 C   0  0  0  0  0  0  0  0  0  0  0  0
  -24.5680  -11.7590   20.8280 C   0  0  0  0  0  0  0  0  0  0  0  0
  -26.2030  -13.0060   20.2350 N   0  0  0  0  0  0  0  0  0  0  0  0
  -25.8590  -11.7220   20.5170 N   0  0  0  0  0  0  0  0  0  0  0  0
  -23.8400  -10.4970   21.0260 C   0  0  0  0  0  0  0  0  0  0  0  0
  -24.2820   -9.5240   21.9500 C   0  0  0  0  0  3  0  0  0  0  0  0
  -23.5520   -8.3310   22.1370 C   0  0  0  0  0  3  0  0  0  0  0  0
  -22.3660   -8.1010   21.4000 C   0  0  0  0  0  0  0  0  0  0  0  0
  -21.9430   -9.0620   20.4650 C   0  0  0  0  0  3  0  0  0  0  0  0
  -22.6730  -10.2470   20.2760 C   0  0  0  0  0  3  0  0  0  0  0  0
  -21.6060   -6.9600   21.4960 O   0  0  0  0  0  0  0  0  0  0  0  0
  -21.5890   -6.2020   22.6400 C   0  0  0  0  0  0  0  0  0  0  0  0
  -21.2240   -6.7480   23.8900 C   0  0  0  0  0  3  0  0  0  0  0  0
  -21.1520   -5.9180   25.0260 C   0  0  0  0  0  3  0  0  0  0  0  0
  -21.4340   -4.5440   24.9150 C   0  0  0  0  0  0  0  0  0  0  0  0
  -21.7920   -3.9970   23.6700 C   0  0  0  0  0  3  0  0  0  0  0  0
  -21.8660   -4.8250   22.5350 C   0  0  0  0  0  0  0  0  0  0  0  0
  -22.1910   -4.2890   21.3340 F   0  0  0  0  0  0  0  0  0  0  0  0
  -21.3580   -3.7440   26.0040 F   0  0  0  0  0  0  0  0  0  0  0  0
  -22.7020  -13.5880   21.1150 C   0  0  0  0  0  0  0  0  0  0  0  0
  -21.9740  -12.9020   21.9880 N   0  0  0  0  0  0  0  0  0  0  0  0
  -22.2660  -14.6070   20.5800 O   0  0  0  0  0  0  0  0  0  0  0  0
  -22.3410  -12.0790   22.4420 H   0  0  0  0  0  0  0  0  0  0  0  0
  -21.0360  -13.2060   22.2080 H   0  0  0  0  0  0  0  0  0  0  0  0
  -25.3200  -15.2530   20.2870 N   0  0  0  0  0  0  0  0  0  0  0  0
  -24.5470  -15.9020   20.3920 H   0  0  0  0  0  0  0  0  0  0  0  0
  -26.1550  -15.6900   19.9190 H   0  0  0  0  0  0  0  0  0  0  0  0
  2  1  1  0
  3 14  2  0
  4  2  1  0
  4  9  1  0
  5 13  1  0
  5 15  1  0
  6 12  1  0
  6  8  1  0
  7 13  1  0
  8  7  1  0
  9  8  2  0
 10  4  2  0
 11 10  1  0
 11  6  2  0
 12  5  1  0
 13  3  1  0
 15 17  2  0
 16 15  1  0
 18 16  1  0
 19 28  2  0
 19 24  1  0
 20 16  1  0
 20 24  1  0
 21 20  1  0
 22 23  1  0
 22 21  1  0
 23 19  1  0
 24 25  2  0
 25 26  1  0
 27 26  2  0
 28 27  1  0
 29  3  1  0
 29 34  1  0
 29 30  1  0
 30 33  1  1
 30 31  1  0
 32 30  1  0
 34 37  1  0
 35 39  1  0
 35 34  1  0
 36 35  2  0
 39 38  1  0
 41 39  1  0
 41 42  1  0
 41 40  1  0
 43  1  1  0
 43 44  1  0
 45 46  1  0
 45 44  1  0
 47 55  1  0
 48 53  1  0
 49 50  1  0
 49 48  1  0
 51 50  1  0
 51 60  1  0
 51 52  1  0
 53 47  1  0
 53 52  1  0
 54 47  2  0
 55 56  1  0
 55 46  1  0
 57 58  2  0
 58 77  1  0
 59 58  1  0
 59 62  1  0
 60 57  1  0
 60 61  1  0
 61 59  2  0
 62 63  1  0
 63 64  2  0
 65 68  1  0
 65 64  1  0
 66 65  2  0
 67 66  1  0
 67 62  2  0
 68 69  1  0
 69 70  1  0
 70 71  2  0
 72 71  1  0
 72 76  1  0
 73 72  2  0
 74 69  2  0
 74 73  1  0
 75 74  1  0
 77 78  1  0
 78 81  1  0
 78 80  1  0
 79 77  2  0
 82 83  1  0
 82 57  1  0
 84 82  1  0
M  ISO  4   1 101   2 101  47 100  55 100
M  END
>  <TORSDO>  (68) 
F 20

>  <SCORE>  (68) 
-15.761

>  <name>  (68) 
68

>  <ligand_id>  (68) 
68

>  <original_smiles>  (68) 
[H]c1c([H])c([H])c2c(c1[H])C([H])([H])C([H])([H])C([H])([H])C2([H])N([H])C(=O)C1([H])N(C(=O)C([H])(N([H])C(=O)C([H])(N([H])C([H])([H])[H])C([H])([H])[H])C(C([H])([H])[H])(C([H])([H])[H])C([H])([H])[H])C([H])([H])c2c([H])c(OC([H])([H])C([H])([H])OC([H])([H])C([H])([H])N([H])C(=O)N3C([H])([H])C([H])([H])C([H])([H])C([H])(n4nc(-c5c([H])c([H])c(Oc6c([H])c([H])c(F)c([H])c6F)c([H])c5[H])c(C(=O)N([H])[H])c4N([H])[H])C3([H])[H])c([H])c([H])c2C1([H])[H]

>  <smiles>  (68) 
[H]c1c([H])c([H])c2c(c1[H])C([H])([H])C([H])([H])C([H])([H])C2([H])N([H])C(=O)C1([H])N(C(=O)C([H])(N([H])C(=O)C([H])(N([H])C([H])([H])[H])C([H])([H])[H])C(C([H])([H])[H])(C([H])([H])[H])C([H])([H])[H])C([H])([H])c2c([H])c(OC([H])([H])C([H])([H])OC([H])([H])C([H])([H])N([H])C(=O)N3C([H])([H])C([H])([H])C([H])([H])C([H])(n4nc(-c5c([H])c([H])c(Oc6c([H])c([H])c(F)c([H])c6F)c([H])c5[H])c(C(=O)N([H])[H])c4N([H])[H])C3([H])[H])c([H])c([H])c2C1([H])[H]

$$$$
69:0:0
     RDKit          3D

101108  0  0  1  0  0  0  0  0999 V2000
  -31.1870  -20.7380   20.8140 C   0  0  0  0  0  3  0  0  0  0  0  0
  -30.6370  -18.2280   20.9710 C   0  0  0  0  0  0  0  0  0  0  0  0
  -30.3780  -19.5090   20.6510 N   0  0  0  0  0  0  0  0  0  0  0  0
  -31.5770  -17.9060   21.7000 O   0  0  0  0  0  0  0  0  0  0  0  0
  -29.5170  -19.6660   20.1440 H   0  0  0  0  0  0  0  0  0  0  0  0
  -29.6760  -17.1590   20.3710 C   0  0  0  0  0  0  0  0  0  0  0  0
  -30.5430  -14.8340   21.0970 C   0  0  0  0  0  0  0  0  0  0  0  0
  -30.4930  -12.5380   20.2270 C   0  0  0  0  0  2  0  0  0  0  0  0
  -29.6760  -12.5570   18.9170 C   0  0  0  0  0  2  0  0  0  0  0  0
  -28.1530  -12.4750   19.1850 C   0  0  0  0  0  2  0  0  0  0  0  0
  -27.6550  -13.3500   20.3750 C   0  0  0  0  0  3  0  0  0  0  0  0
  -28.6180  -13.2680   21.5810 C   0  0  0  0  0  2  0  0  0  0  0  0
  -29.9680  -13.5990   21.0990 N   0  0  0  0  0  0  0  0  0  0  0  0
  -31.7380  -15.0090   20.8650 O   0  0  0  0  0  0  0  0  0  0  0  0
  -29.6570  -15.8550   21.0920 N   0  0  0  0  0  4  0  0  0  0  0  0
  -28.7390  -15.5810   21.4000 H   0  0  0  0  0  0  0  0  0  0  0  0
  -25.1950  -13.9080   20.8870 C   0  0  0  0  0  0  0  0  0  0  0  0
  -24.1160  -13.1110   21.1560 C   0  0  0  0  0  0  0  0  0  0  0  0
  -24.6060  -11.7690   21.1490 C   0  0  0  0  0  0  0  0  0  0  0  0
  -26.2740  -13.0470   20.7380 N   0  0  0  0  0  0  0  0  0  0  0  0
  -25.9170  -11.7570   20.9530 N   0  0  0  0  0  0  0  0  0  0  0  0
  -23.8940  -10.4920   21.2610 C   0  0  0  0  0  0  0  0  0  0  0  0
  -24.2980   -9.5070   22.1890 C   0  0  0  0  0  3  0  0  0  0  0  0
  -23.5860   -8.2920   22.2950 C   0  0  0  0  0  3  0  0  0  0  0  0
  -22.4610   -8.0560   21.4700 C   0  0  0  0  0  0  0  0  0  0  0  0
  -22.0810   -9.0310   20.5320 C   0  0  0  0  0  3  0  0  0  0  0  0
  -22.7920  -10.2370   20.4240 C   0  0  0  0  0  3  0  0  0  0  0  0
  -21.7260   -6.8950   21.4840 O   0  0  0  0  0  0  0  0  0  0  0  0
  -21.6540   -6.1030   22.6020 C   0  0  0  0  0  0  0  0  0  0  0  0
  -21.1320   -6.5830   23.8230 C   0  0  0  0  0  3  0  0  0  0  0  0
  -21.0090   -5.7140   24.9260 C   0  0  0  0  0  3  0  0  0  0  0  0
  -21.3980   -4.3660   24.8090 C   0  0  0  0  0  0  0  0  0  0  0  0
  -21.9130   -3.8860   23.5910 C   0  0  0  0  0  3  0  0  0  0  0  0
  -22.0370   -4.7510   22.4900 C   0  0  0  0  0  0  0  0  0  0  0  0
  -22.5130   -4.2760   21.3140 F   0  0  0  0  0  0  0  0  0  0  0  0
  -21.2750   -3.5300   25.8660 F   0  0  0  0  0  0  0  0  0  0  0  0
  -22.6900  -13.5570   21.3170 C   0  0  0  0  0  0  0  0  0  0  0  0
  -21.9110  -12.8340   22.1130 N   0  0  0  0  0  0  0  0  0  0  0  0
  -22.2700  -14.5750   20.7720 O   0  0  0  0  0  0  0  0  0  0  0  0
  -22.2620  -12.0080   22.5750 H   0  0  0  0  0  0  0  0  0  0  0  0
  -20.9500  -13.1080   22.2620 H   0  0  0  0  0  0  0  0  0  0  0  0
  -25.3390  -15.2860   20.7410 N   0  0  0  0  0  0  0  0  0  0  0  0
  -24.5420  -15.9110   20.7850 H   0  0  0  0  0  0  0  0  0  0  0  0
  -26.1890  -15.7520   20.4530 H   0  0  0  0  0  0  0  0  0  0  0  0
  -29.3220  -18.4520   18.1280 C   0  0  0  0  0  1  0  0  0  0  0  0
  -28.3490  -16.2260   18.3660 C   0  0  0  0  0  1  0  0  0  0  0  0
  -30.8340  -16.5000   18.1000 C   0  0  0  0  0  1  0  0  0  0  0  0
  -29.5720  -17.0710   18.7810 C   0  0  2  0  0  0  0  0  0  0  0  0
  -30.2470  -21.9670   20.9910 C   0  0  0  0  0  0  0  0  0  0  0  0
  -29.0290  -21.8800   20.7890 O   0  0  0  0  0  0  0  0  0  0  0  0
  -30.8550  -23.3380   21.3890 C   0  0  0  0  0  2  0  0  0  0  0  0
  -29.8930  -24.4030   21.2620 O   0  0  0  0  0  0  0  0  0  0  0  0
  -30.4990  -25.7020   21.2500 C   0  0  0  0  0  2  0  0  0  0  0  0
  -29.4750  -26.8590   21.3420 C   0  0  0  0  0  2  0  0  0  0  0  0
  -28.6630  -26.9270   20.1700 O   0  0  0  0  0  0  0  0  0  0  0  0
  -24.6590  -32.0130   23.2740 C   0  0  0  0  0  0  0  0  0  0  0  0
  -27.5050  -27.6720   20.2310 C   0  0  0  0  0  0  0  0  0  0  0  0
  -23.5220  -30.5750   21.6090 C   0  0  0  0  0  3  0  0  0  0  0  0
  -25.0530  -29.0870   20.2100 C   0  0  0  0  0  0  0  0  0  0  0  0
  -26.0380  -31.0150   21.4550 C   0  0  0  0  0  2  0  0  0  0  0  0
  -26.1800  -29.6460   20.8240 C   0  0  0  0  0  0  0  0  0  0  0  0
  -27.4070  -28.9430   20.8460 C   0  0  0  0  0  3  0  0  0  0  0  0
  -26.3640  -27.1290   19.6060 C   0  0  0  0  0  3  0  0  0  0  0  0
  -25.1390  -27.8240   19.5990 C   0  0  0  0  0  3  0  0  0  0  0  0
  -23.7760  -29.9000   20.2340 C   0  0  0  0  0  2  0  0  0  0  0  0
  -24.7550  -31.2170   22.1720 N   0  0  0  0  0  0  0  0  0  0  0  0
  -23.5640  -32.2510   23.8010 O   0  0  0  0  0  0  0  0  0  0  0  0
  -22.8920  -29.5340   22.5620 C   0  0  0  0  0  0  0  0  0  0  0  0
  -21.5730  -29.3250   22.4280 N   0  0  0  0  0  0  0  0  0  0  0  0
  -23.5840  -28.9190   23.3770 O   0  0  0  0  0  0  0  0  0  0  0  0
  -21.0770  -29.8710   21.7370 H   0  0  0  0  0  0  0  0  0  0  0  0
  -18.2190  -28.0780   22.9230 C   0  0  0  0  0  0  0  0  0  0  0  0
  -20.7730  -28.3650   23.1890 C   0  0  0  0  0  3  0  0  0  0  0  0
  -20.8930  -26.9450   22.5890 C   0  0  0  0  0  2  0  0  0  0  0  0
  -19.7910  -26.6230   21.5750 C   0  0  0  0  0  2  0  0  0  0  0  0
  -18.4100  -26.7400   22.2280 C   0  0  0  0  0  2  0  0  0  0  0  0
  -19.3280  -28.8470   23.3610 C   0  0  0  0  0  0  0  0  0  0  0  0
  -19.0980  -30.0980   23.9740 C   0  0  0  0  0  3  0  0  0  0  0  0
  -17.7890  -30.5810   24.1520 C   0  0  0  0  0  3  0  0  0  0  0  0
  -16.6920  -29.8090   23.7320 C   0  0  0  0  0  3  0  0  0  0  0  0
  -16.9080  -28.5580   23.1250 C   0  0  0  0  0  3  0  0  0  0  0  0
  -25.9210  -32.6800   23.9110 C   0  0  0  0  0  3  0  0  0  0  0  0
  -26.4400  -31.9300   25.2000 C   0  0  1  0  0  0  0  0  0  0  0  0
  -25.3340  -31.6630   26.2450 C   0  0  0  0  0  1  0  0  0  0  0  0
  -27.0750  -30.5720   24.8210 C   0  0  0  0  0  1  0  0  0  0  0  0
  -27.5490  -32.7640   25.8820 C   0  0  0  0  0  1  0  0  0  0  0  0
  -25.5710  -34.0710   24.2240 N   0  0  0  0  0  0  0  0  0  0  0  0
  -25.8670  -35.1230   23.4480 C   0  0  0  0  0  0  0  0  0  0  0  0
  -26.5320  -35.0260   22.4140 O   0  0  0  0  0  0  0  0  0  0  0  0
  -24.9790  -34.2180   25.0270 H   0  0  0  0  0  0  0  0  0  0  0  0
  -24.0730  -36.8480   23.0890 C   0  0  0  0  0  1  0  0  0  0  0  0
  -25.3370  -36.5000   23.8900 C   0  0  0  0  0  3  0  0  0  0  0  0
  -27.4440  -37.4760   24.6860 C   0  0  0  0  0  1  0  0  0  0  0  0
  -26.3310  -37.5860   23.7470 N   0  0  0  0  0  0  0  0  0  0  0  0
  -25.8940  -38.4930   23.8830 H   0  0  0  0  0  0  0  0  0  0  0  0
  -32.1570  -20.9320   19.6070 C   0  0  0  0  0  2  0  0  0  0  0  0
  -33.3890  -20.0220   19.5770 C   0  0  0  0  0  0  0  0  0  0  0  0
  -34.4800  -20.4290   20.2190 N   0  0  0  0  0  0  0  0  0  0  0  0
  -33.3890  -18.9770   18.9320 O   0  0  0  0  0  0  0  0  0  0  0  0
  -34.4970  -21.3070   20.7200 H   0  0  0  0  0  0  0  0  0  0  0  0
  -35.3160  -19.8620   20.2100 H   0  0  0  0  0  0  0  0  0  0  0  0
  1 96  1  0
  1 49  1  0
  2  4  2  0
  3  1  1  0
  3  2  1  0
  5  3  1  0
  6  2  1  0
  6 15  2  3
  7 13  1  0
  8 13  1  0
  9 10  1  0
  9  8  1  0
 11 10  1  0
 11 20  1  0
 11 12  1  0
 13 12  1  0
 14  7  2  0
 15  7  1  0
 15 16  1  0
 17 18  2  0
 18 37  1  0
 19 18  1  0
 19 22  1  0
 20 17  1  0
 20 21  1  0
 21 19  2  0
 22 23  1  0
 23 24  2  0
 25 28  1  0
 25 24  1  0
 26 25  2  0
 27 26  1  0
 27 22  2  0
 28 29  1  0
 29 30  1  0
 30 31  2  0
 32 31  1  0
 32 36  1  0
 33 32  2  0
 34 29  2  0
 34 33  1  0
 35 34  1  0
 37 38  1  0
 38 41  1  0
 38 40  1  0
 39 37  2  0
 42 43  1  0
 42 17  1  0
 44 42  1  0
 48 45  1  6
 46 48  1  0
 47 48  1  0
 48  6  1  0
 49 51  1  0
 50 49  2  0
 52 51  1  0
 53 52  1  0
 53 54  1  0
 55 57  1  0
 55 54  1  0
 56 67  2  0
 57 62  1  0
 58 66  1  0
 58 68  1  0
 59 65  1  0
 59 61  1  0
 60 66  1  0
 61 62  2  0
 61 60  1  0
 63 57  2  0
 64 63  1  0
 64 59  2  0
 65 58  1  0
 66 56  1  0
 68 70  2  0
 69 68  1  0
 71 69  1  0
 72 81  2  0
 72 77  1  0
 73 69  1  0
 73 77  1  0
 74 73  1  0
 75 76  1  0
 75 74  1  0
 76 72  1  0
 77 78  2  0
 78 79  1  0
 80 79  2  0
 81 80  1  0
 82 56  1  0
 82 87  1  0
 82 83  1  0
 83 86  1  1
 83 84  1  0
 85 83  1  0
 87 90  1  0
 88 92  1  0
 88 87  1  0
 89 88  2  0
 92 91  1  0
 94 95  1  0
 94 92  1  0
 94 93  1  0
 97 96  1  0
 97 98  1  0
 98100  1  0
 99 97  2  0
101 98  1  0
M  ISO  4   7 100  15 100  54 101  55 101
M  END
>  <TORSDO>  (69) 
F 26

>  <SCORE>  (69) 
-11.145

>  <name>  (69) 
69

>  <ligand_id>  (69) 
69

>  <original_smiles>  (69) 
[H]c1c([H])c([H])c2c(c1[H])C([H])([H])C([H])([H])C([H])([H])C2([H])N([H])C(=O)C1([H])N(C(=O)C([H])(N([H])C(=O)C([H])(N([H])C([H])([H])[H])C([H])([H])[H])C(C([H])([H])[H])(C([H])([H])[H])C([H])([H])[H])C([H])([H])c2c([H])c(OC([H])([H])C([H])([H])OC([H])([H])C(=O)C([H])(N([H])C(=O)C([H])(N([H])C(=O)N3C([H])([H])C([H])([H])C([H])([H])C([H])(n4nc(-c5c([H])c([H])c(Oc6c([H])c([H])c(F)c([H])c6F)c([H])c5[H])c(C(=O)N([H])[H])c4N([H])[H])C3([H])[H])C(C([H])([H])[H])(C([H])([H])[H])C([H])([H])[H])C([H])([H])C(=O)N([H])[H])c([H])c([H])c2C1([H])[H]

>  <smiles>  (69) 
[H]c1c([H])c([H])c2c(c1[H])C([H])([H])C([H])([H])C([H])([H])C2([H])N([H])C(=O)C1([H])N(C(=O)C([H])(N([H])C(=O)C([H])(N([H])C([H])([H])[H])C([H])([H])[H])C(C([H])([H])[H])(C([H])([H])[H])C([H])([H])[H])C([H])([H])c2c([H])c(OC([H])([H])C([H])([H])OC([H])([H])C(=O)C([H])(N([H])C(=O)C([H])(N([H])C(=O)N3C([H])([H])C([H])([H])C([H])([H])C([H])(n4nc(-c5c([H])c([H])c(Oc6c([H])c([H])c(F)c([H])c6F)c([H])c5[H])c(C(=O)N([H])[H])c4N([H])[H])C3([H])[H])C(C([H])([H])[H])(C([H])([H])[H])C([H])([H])[H])C([H])([H])C(=O)N([H])[H])c([H])c([H])c2C1([H])[H]

$$$$
70:0:0
     RDKit          3D

 96103  0  0  1  0  0  0  0  0999 V2000
  -30.5060  -17.9010   21.7490 C   0  0  0  0  0  0  0  0  0  0  0  0
  -29.6150  -18.8640   21.4840 N   0  0  0  0  0  0  0  0  0  0  0  0
  -31.1040  -17.8390   22.8250 O   0  0  0  0  0  0  0  0  0  0  0  0
  -29.0420  -18.7600   20.6570 H   0  0  0  0  0  0  0  0  0  0  0  0
  -29.5660  -20.1660   22.1540 C   0  0  0  0  0  2  0  0  0  0  0  0
  -29.4260  -21.2620   21.0800 C   0  0  0  0  0  2  0  0  0  0  0  0
  -29.6130  -22.6980   21.5880 C   0  0  0  0  0  2  0  0  0  0  0  0
  -29.4210  -23.5170   20.4460 O   0  0  0  0  0  0  0  0  0  0  0  0
  -29.7550  -24.8880   20.6090 C   0  0  0  0  0  2  0  0  0  0  0  0
  -28.9410  -25.6340   19.5450 C   0  0  0  0  0  2  0  0  0  0  0  0
  -28.8440  -27.0280   19.8450 O   0  0  0  0  0  0  0  0  0  0  0  0
  -24.5680  -31.6700   23.0910 C   0  0  0  0  0  0  0  0  0  0  0  0
  -27.5990  -27.6250   19.8330 C   0  0  0  0  0  0  0  0  0  0  0  0
  -23.4950  -30.2550   21.3670 C   0  0  0  0  0  3  0  0  0  0  0  0
  -25.0820  -28.9220   19.8870 C   0  0  0  0  0  0  0  0  0  0  0  0
  -25.9840  -30.8270   21.2230 C   0  0  0  0  0  2  0  0  0  0  0  0
  -26.1850  -29.5030   20.5210 C   0  0  0  0  0  0  0  0  0  0  0  0
  -27.4410  -28.8590   20.4990 C   0  0  0  0  0  3  0  0  0  0  0  0
  -26.4760  -27.0690   19.1710 C   0  0  0  0  0  3  0  0  0  0  0  0
  -25.2210  -27.7000   19.2130 C   0  0  0  0  0  3  0  0  0  0  0  0
  -23.7700  -29.6670   19.9590 C   0  0  0  0  0  2  0  0  0  0  0  0
  -24.6970  -30.9320   21.9520 N   0  0  0  0  0  0  0  0  0  0  0  0
  -23.4630  -31.8250   23.6310 O   0  0  0  0  0  0  0  0  0  0  0  0
  -22.9260  -29.1350   22.2680 C   0  0  0  0  0  0  0  0  0  0  0  0
  -21.6170  -28.8700   22.1370 N   0  0  0  0  0  0  0  0  0  0  0  0
  -23.6580  -28.5090   23.0400 O   0  0  0  0  0  0  0  0  0  0  0  0
  -21.0840  -29.4360   21.4910 H   0  0  0  0  0  0  0  0  0  0  0  0
  -18.3250  -27.4580   22.5960 C   0  0  0  0  0  0  0  0  0  0  0  0
  -20.8690  -27.8380   22.8520 C   0  0  0  0  0  3  0  0  0  0  0  0
  -21.0400  -26.4580   22.1750 C   0  0  0  0  0  2  0  0  0  0  0  0
  -19.9400  -26.1440   21.1560 C   0  0  0  0  0  2  0  0  0  0  0  0
  -18.5640  -26.1690   21.8270 C   0  0  0  0  0  2  0  0  0  0  0  0
  -19.4070  -28.2500   23.0600 C   0  0  0  0  0  0  0  0  0  0  0  0
  -19.1290  -29.4590   23.7350 C   0  0  0  0  0  3  0  0  0  0  0  0
  -17.8010  -29.8750   23.9510 C   0  0  0  0  0  3  0  0  0  0  0  0
  -16.7340  -29.0780   23.5040 C   0  0  0  0  0  3  0  0  0  0  0  0
  -16.9960  -27.8700   22.8300 C   0  0  0  0  0  3  0  0  0  0  0  0
  -25.7930  -32.3700   23.7550 C   0  0  0  0  0  3  0  0  0  0  0  0
  -26.3310  -31.6080   25.0290 C   0  0  1  0  0  0  0  0  0  0  0  0
  -25.2350  -31.2810   26.0680 C   0  0  0  0  0  1  0  0  0  0  0  0
  -27.0070  -30.2790   24.6170 C   0  0  0  0  0  1  0  0  0  0  0  0
  -27.4130  -32.4600   25.7340 C   0  0  0  0  0  1  0  0  0  0  0  0
  -25.3860  -33.7370   24.1020 N   0  0  0  0  0  0  0  0  0  0  0  0
  -25.6690  -34.8250   23.3710 C   0  0  0  0  0  0  0  0  0  0  0  0
  -26.3720  -34.7860   22.3560 O   0  0  0  0  0  0  0  0  0  0  0  0
  -24.7660  -33.8380   24.8930 H   0  0  0  0  0  0  0  0  0  0  0  0
  -23.8350  -36.5040   22.9960 C   0  0  0  0  0  1  0  0  0  0  0  0
  -25.0760  -36.1670   23.8390 C   0  0  0  0  0  3  0  0  0  0  0  0
  -27.1170  -37.1780   24.7560 C   0  0  0  0  0  1  0  0  0  0  0  0
  -26.0390  -37.2890   23.7780 N   0  0  0  0  0  0  0  0  0  0  0  0
  -25.5660  -38.1760   23.9250 H   0  0  0  0  0  0  0  0  0  0  0  0
  -30.8590  -16.9180   20.6170 C   0  0  0  0  0  3  0  0  0  0  0  0
  -31.0100  -14.4730   20.3980 C   0  0  0  0  0  0  0  0  0  0  0  0
  -30.6300  -12.3000   19.3240 C   0  0  0  0  0  2  0  0  0  0  0  0
  -29.7140  -12.5050   18.1010 C   0  0  0  0  0  2  0  0  0  0  0  0
  -28.2370  -12.4020   18.5240 C   0  0  0  0  0  2  0  0  0  0  0  0
  -27.9050  -13.2900   19.7570 C   0  0  0  0  0  3  0  0  0  0  0  0
  -28.9490  -13.0990   20.8830 C   0  0  0  0  0  2  0  0  0  0  0  0
  -30.2850  -13.3290   20.3150 N   0  0  0  0  0  0  0  0  0  0  0  0
  -32.1320  -14.5910   19.9000 O   0  0  0  0  0  0  0  0  0  0  0  0
  -30.3640  -15.5540   20.8530 N   0  0  0  0  0  0  0  0  0  0  0  0
  -29.4440  -15.4360   21.2510 H   0  0  0  0  0  0  0  0  0  0  0  0
  -25.5180  -13.9500   20.4590 C   0  0  0  0  0  0  0  0  0  0  0  0
  -24.4330  -13.2010   20.8250 C   0  0  0  0  0  0  0  0  0  0  0  0
  -24.8640  -11.8390   20.7940 C   0  0  0  0  0  0  0  0  0  0  0  0
  -26.5450  -13.0470   20.2330 N   0  0  0  0  0  0  0  0  0  0  0  0
  -26.1540  -11.7730   20.4910 N   0  0  0  0  0  0  0  0  0  0  0  0
  -24.1110  -10.5930   20.9790 C   0  0  0  0  0  0  0  0  0  0  0  0
  -24.5180   -9.6180   21.9140 C   0  0  0  0  0  3  0  0  0  0  0  0
  -23.7680   -8.4350   22.0900 C   0  0  0  0  0  3  0  0  0  0  0  0
  -22.5950   -8.2190   21.3280 C   0  0  0  0  0  0  0  0  0  0  0  0
  -22.2040   -9.1840   20.3830 C   0  0  0  0  0  3  0  0  0  0  0  0
  -22.9560  -10.3580   20.2060 C   0  0  0  0  0  3  0  0  0  0  0  0
  -21.8180   -7.0900   21.4120 O   0  0  0  0  0  0  0  0  0  0  0  0
  -21.7460   -6.3460   22.5630 C   0  0  0  0  0  0  0  0  0  0  0  0
  -21.3110   -6.9070   23.7840 C   0  0  0  0  0  3  0  0  0  0  0  0
  -21.1890   -6.0920   24.9280 C   0  0  0  0  0  3  0  0  0  0  0  0
  -21.4900   -4.7180   24.8500 C   0  0  0  0  0  0  0  0  0  0  0  0
  -21.9150   -4.1590   23.6320 C   0  0  0  0  0  3  0  0  0  0  0  0
  -22.0410   -4.9710   22.4930 C   0  0  0  0  0  0  0  0  0  0  0  0
  -22.4330   -4.4210   21.3170 F   0  0  0  0  0  0  0  0  0  0  0  0
  -21.3640   -3.9350   25.9460 F   0  0  0  0  0  0  0  0  0  0  0  0
  -23.0450  -13.7080   21.0960 C   0  0  0  0  0  0  0  0  0  0  0  0
  -22.2970  -13.0300   21.9580 N   0  0  0  0  0  0  0  0  0  0  0  0
  -22.6300  -14.7430   20.5740 O   0  0  0  0  0  0  0  0  0  0  0  0
  -22.6440  -12.1950   22.4070 H   0  0  0  0  0  0  0  0  0  0  0  0
  -21.3650  -13.3560   22.1790 H   0  0  0  0  0  0  0  0  0  0  0  0
  -25.7140  -15.3170   20.2820 N   0  0  0  0  0  0  0  0  0  0  0  0
  -24.9580  -15.9860   20.3890 H   0  0  0  0  0  0  0  0  0  0  0  0
  -26.5680  -15.7350   19.9380 H   0  0  0  0  0  0  0  0  0  0  0  0
  -29.1670  -17.4080   18.6900 C   0  0  0  0  0  1  0  0  0  0  0  0
  -30.6520  -17.3580   19.1230 C   0  0  0  0  0  3  0  0  0  0  0  0
  -31.3560  -18.6190   18.7860 N   0  0  0  0  0  4  0  0  0  0  0  0
  -31.1240  -18.9150   17.8540 H   0  0  0  0  0  0  0  0  0  0  0  0
  -32.3510  -18.4690   18.8070 H   0  0  0  0  0  0  0  0  0  0  0  0
  -31.1440  -19.3770   19.4100 H   0  0  0  0  0  0  0  0  0  0  0  0
  1  3  2  0
  2  1  1  0
  2  5  1  0
  4  2  1  0
  6  7  1  0
  6  5  1  0
  8  9  1  0
  8  7  1  0
 10 11  1  0
 10  9  1  0
 12 23  2  0
 13 11  1  0
 13 18  1  0
 14 22  1  0
 14 24  1  0
 15 21  1  0
 15 17  1  0
 16 22  1  0
 17 16  1  0
 18 17  2  0
 19 20  1  0
 19 13  2  0
 20 15  2  0
 21 14  1  0
 22 12  1  0
 24 26  2  0
 25 24  1  0
 27 25  1  0
 28 37  2  0
 28 33  1  0
 29 25  1  0
 29 33  1  0
 30 29  1  0
 31 32  1  0
 31 30  1  0
 32 28  1  0
 33 34  2  0
 34 35  1  0
 36 35  2  0
 37 36  1  0
 38 12  1  0
 38 43  1  0
 38 39  1  0
 39 42  1  1
 39 40  1  0
 41 39  1  0
 43 46  1  0
 44 48  1  0
 44 43  1  0
 45 44  2  0
 48 47  1  0
 50 48  1  0
 50 51  1  0
 50 49  1  0
 52 61  1  0
 52  1  1  0
 53 61  1  0
 54 59  1  0
 55 56  1  0
 55 54  1  0
 57 56  1  0
 57 66  1  0
 57 58  1  0
 59 53  1  0
 59 58  1  0
 60 53  2  0
 61 62  1  0
 63 64  2  0
 64 83  1  0
 65 64  1  0
 65 68  1  0
 66 63  1  0
 66 67  1  0
 67 65  2  0
 68 69  1  0
 69 70  2  0
 71 74  1  0
 71 70  1  0
 72 71  2  0
 73 72  1  0
 73 68  2  0
 74 75  1  0
 75 76  1  0
 76 77  2  0
 78 77  1  0
 78 82  1  0
 79 78  2  0
 80 75  2  0
 80 79  1  0
 81 80  1  0
 83 84  1  0
 84 87  1  0
 84 86  1  0
 85 83  2  0
 88 89  1  0
 88 63  1  0
 90 88  1  0
 92 91  1  0
 92 52  1  0
 93 95  1  0
 93 92  1  0
 93 96  1  0
 94 93  1  0
M  ISO  4  10 101  11 101  53 100  61 100
M  END
>  <TORSDO>  (70) 
F 25

>  <SCORE>  (70) 
-11.058

>  <name>  (70) 
70

>  <ligand_id>  (70) 
70

>  <original_smiles>  (70) 
[H]c1c([H])c([H])c2c(c1[H])C([H])([H])C([H])([H])C([H])([H])C2([H])N([H])C(=O)C1([H])N(C(=O)C([H])(N([H])C(=O)C([H])(N([H])C([H])([H])[H])C([H])([H])[H])C(C([H])([H])[H])(C([H])([H])[H])C([H])([H])[H])C([H])([H])c2c([H])c(OC([H])([H])C([H])([H])OC([H])([H])C([H])([H])C([H])([H])N([H])C(=O)C([H])(N([H])C(=O)N3C([H])([H])C([H])([H])C([H])([H])C([H])(n4nc(-c5c([H])c([H])c(Oc6c([H])c([H])c(F)c([H])c6F)c([H])c5[H])c(C(=O)N([H])[H])c4N([H])[H])C3([H])[H])C([H])(C([H])([H])[H])[N+]([H])([H])[H])c([H])c([H])c2C1([H])[H]

>  <smiles>  (70) 
[H]c1c([H])c([H])c2c(c1[H])C([H])([H])C([H])([H])C([H])([H])C2([H])N([H])C(=O)C1([H])N(C(=O)C([H])(N([H])C(=O)C([H])(N([H])C([H])([H])[H])C([H])([H])[H])C(C([H])([H])[H])(C([H])([H])[H])C([H])([H])[H])C([H])([H])c2c([H])c(OC([H])([H])C([H])([H])OC([H])([H])C([H])([H])C([H])([H])N([H])C(=O)C([H])(N([H])C(=O)N3C([H])([H])C([H])([H])C([H])([H])C([H])(n4nc(-c5c([H])c([H])c(Oc6c([H])c([H])c(F)c([H])c6F)c([H])c5[H])c(C(=O)N([H])[H])c4N([H])[H])C3([H])[H])C([H])(C([H])([H])[H])[N+]([H])([H])[H])c([H])c([H])c2C1([H])[H]

$$$$
71:0:0
     RDKit          3D

 95102  0  0  1  0  0  0  0  0999 V2000
  -31.7120  -20.1590   17.6740 C   0  0  0  0  0  2  0  0  0  0  0  0
  -32.8240  -19.4240   18.4490 C   0  0  0  0  0  2  0  0  0  0  0  0
  -31.6120  -17.4110   19.3440 C   0  0  0  0  0  0  0  0  0  0  0  0
  -32.3290  -18.5330   19.4980 N   0  0  0  0  0  0  0  0  0  0  0  0
  -31.2250  -17.0110   18.2440 O   0  0  0  0  0  0  0  0  0  0  0  0
  -32.6030  -18.7680   20.4440 H   0  0  0  0  0  0  0  0  0  0  0  0
  -31.2740  -16.6420   20.6460 C   0  0  0  0  0  3  0  0  0  0  0  0
  -31.4140  -14.2050   19.9950 C   0  0  0  0  0  0  0  0  0  0  0  0
  -30.9110  -12.1380   18.7590 C   0  0  0  0  0  2  0  0  0  0  0  0
  -29.9330  -12.4850   17.6160 C   0  0  0  0  0  2  0  0  0  0  0  0
  -28.4700  -12.4780   18.1080 C   0  0  0  0  0  2  0  0  0  0  0  0
  -28.2690  -13.2590   19.4320 C   0  0  0  0  0  3  0  0  0  0  0  0
  -29.3430  -12.8600   20.4690 C   0  0  0  0  0  2  0  0  0  0  0  0
  -30.6550  -13.0900   19.8470 N   0  0  0  0  0  0  0  0  0  0  0  0
  -32.5780  -14.2850   19.5970 O   0  0  0  0  0  0  0  0  0  0  0  0
  -30.7430  -15.2800   20.4470 N   0  0  0  0  0  0  0  0  0  0  0  0
  -29.7550  -15.1600   20.5900 H   0  0  0  0  0  0  0  0  0  0  0  0
  -25.9370  -14.0320   20.2080 C   0  0  0  0  0  0  0  0  0  0  0  0
  -24.8320  -13.3350   20.6140 C   0  0  0  0  0  0  0  0  0  0  0  0
  -25.2040  -11.9560   20.5930 C   0  0  0  0  0  0  0  0  0  0  0  0
  -26.9170  -13.0830   19.9590 N   0  0  0  0  0  0  0  0  0  0  0  0
  -26.4790  -11.8300   20.2490 N   0  0  0  0  0  0  0  0  0  0  0  0
  -24.4030  -10.7460   20.8230 C   0  0  0  0  0  0  0  0  0  0  0  0
  -24.7870   -9.7760   21.7760 C   0  0  0  0  0  3  0  0  0  0  0  0
  -23.9900   -8.6290   21.9880 C   0  0  0  0  0  3  0  0  0  0  0  0
  -22.7990   -8.4470   21.2480 C   0  0  0  0  0  0  0  0  0  0  0  0
  -22.4380   -9.4030   20.2830 C   0  0  0  0  0  3  0  0  0  0  0  0
  -23.2330  -10.5400   20.0680 C   0  0  0  0  0  3  0  0  0  0  0  0
  -21.9790   -7.3510   21.3680 O   0  0  0  0  0  0  0  0  0  0  0  0
  -21.8740   -6.6560   22.5440 C   0  0  0  0  0  0  0  0  0  0  0  0
  -21.4790   -7.2830   23.7480 C   0  0  0  0  0  3  0  0  0  0  0  0
  -21.3180   -6.5190   24.9190 C   0  0  0  0  0  3  0  0  0  0  0  0
  -21.5380   -5.1290   24.8930 C   0  0  0  0  0  0  0  0  0  0  0  0
  -21.9310   -4.5030   23.6950 C   0  0  0  0  0  3  0  0  0  0  0  0
  -22.0950   -5.2630   22.5260 C   0  0  0  0  0  0  0  0  0  0  0  0
  -22.4490   -4.6510   21.3700 F   0  0  0  0  0  0  0  0  0  0  0  0
  -21.3790   -4.3930   26.0160 F   0  0  0  0  0  0  0  0  0  0  0  0
  -23.4760  -13.9040   20.9200 C   0  0  0  0  0  0  0  0  0  0  0  0
  -22.7380  -13.2740   21.8270 N   0  0  0  0  0  0  0  0  0  0  0  0
  -23.0820  -14.9420   20.3850 O   0  0  0  0  0  0  0  0  0  0  0  0
  -23.0750  -12.4360   22.2780 H   0  0  0  0  0  0  0  0  0  0  0  0
  -21.8230  -13.6290   22.0690 H   0  0  0  0  0  0  0  0  0  0  0  0
  -26.1780  -15.3860   20.0080 N   0  0  0  0  0  0  0  0  0  0  0  0
  -25.4520  -16.0820   20.1360 H   0  0  0  0  0  0  0  0  0  0  0  0
  -27.0380  -15.7740   19.6490 H   0  0  0  0  0  0  0  0  0  0  0  0
  -28.9400  -17.7970   20.9950 C   0  0  0  0  0  1  0  0  0  0  0  0
  -30.2070  -16.8320   22.9720 C   0  0  0  0  0  1  0  0  0  0  0  0
  -30.3310  -17.4690   21.5780 C   0  0  0  0  0  3  0  0  0  0  0  0
  -30.9500  -21.0090   18.5270 O   0  0  0  0  0  0  0  0  0  0  0  0
  -29.8290  -21.5650   17.8450 C   0  0  0  0  0  2  0  0  0  0  0  0
  -29.1260  -22.6440   18.6890 C   0  0  0  0  0  2  0  0  0  0  0  0
  -29.6470  -23.9110   18.3060 O   0  0  0  0  0  0  0  0  0  0  0  0
  -28.7850  -25.0110   18.5810 C   0  0  0  0  0  2  0  0  0  0  0  0
  -28.6450  -25.2720   20.0930 C   0  0  0  0  0  2  0  0  0  0  0  0
  -28.5930  -26.6660   20.3670 O   0  0  0  0  0  0  0  0  0  0  0  0
  -24.6560  -31.7990   23.2440 C   0  0  0  0  0  0  0  0  0  0  0  0
  -27.3860  -27.3290   20.3050 C   0  0  0  0  0  0  0  0  0  0  0  0
  -23.4900  -30.3640   21.5990 C   0  0  0  0  0  3  0  0  0  0  0  0
  -24.9780  -28.8060   20.2410 C   0  0  0  0  0  0  0  0  0  0  0  0
  -26.0190  -30.7310   21.4570 C   0  0  0  0  0  2  0  0  0  0  0  0
  -26.1210  -29.3530   20.8380 C   0  0  0  0  0  0  0  0  0  0  0  0
  -27.3240  -28.6230   20.8620 C   0  0  0  0  0  3  0  0  0  0  0  0
  -26.2220  -26.7810   19.7150 C   0  0  0  0  0  3  0  0  0  0  0  0
  -25.0210  -27.5150   19.6850 C   0  0  0  0  0  3  0  0  0  0  0  0
  -23.7290  -29.6540   20.2410 C   0  0  0  0  0  2  0  0  0  0  0  0
  -24.7390  -30.9770   22.1590 N   0  0  0  0  0  0  0  0  0  0  0  0
  -23.5610  -32.0790   23.7500 O   0  0  0  0  0  0  0  0  0  0  0  0
  -22.8170  -29.3620   22.5620 C   0  0  0  0  0  0  0  0  0  0  0  0
  -21.5010  -29.1530   22.3910 N   0  0  0  0  0  0  0  0  0  0  0  0
  -23.4790  -28.7680   23.4170 O   0  0  0  0  0  0  0  0  0  0  0  0
  -21.0260  -29.6830   21.6740 H   0  0  0  0  0  0  0  0  0  0  0  0
  -18.1340  -27.9080   22.7810 C   0  0  0  0  0  0  0  0  0  0  0  0
  -20.6710  -28.2270   23.1580 C   0  0  0  0  0  3  0  0  0  0  0  0
  -20.8270  -26.7780   22.6440 C   0  0  0  0  0  2  0  0  0  0  0  0
  -19.7820  -26.3970   21.5910 C   0  0  0  0  0  2  0  0  0  0  0  0
  -18.3680  -26.5390   22.1650 C   0  0  0  0  0  2  0  0  0  0  0  0
  -19.2170  -28.7080   23.2330 C   0  0  0  0  0  0  0  0  0  0  0  0
  -18.9470  -29.9870   23.7640 C   0  0  0  0  0  3  0  0  0  0  0  0
  -17.6290  -30.4710   23.8430 C   0  0  0  0  0  3  0  0  0  0  0  0
  -16.5570  -29.6690   23.4130 C   0  0  0  0  0  3  0  0  0  0  0  0
  -16.8110  -28.3890   22.8870 C   0  0  0  0  0  3  0  0  0  0  0  0
  -25.9290  -32.4440   23.8790 C   0  0  0  0  0  3  0  0  0  0  0  0
  -26.4390  -31.6860   25.1650 C   0  0  1  0  0  0  0  0  0  0  0  0
  -25.3350  -31.4360   26.2210 C   0  0  0  0  0  1  0  0  0  0  0  0
  -27.0500  -30.3150   24.7920 C   0  0  0  0  0  1  0  0  0  0  0  0
  -27.5690  -32.5000   25.8370 C   0  0  0  0  0  1  0  0  0  0  0  0
  -25.6030  -33.8410   24.1960 N   0  0  0  0  0  0  0  0  0  0  0  0
  -25.9400  -34.8900   23.4340 C   0  0  0  0  0  0  0  0  0  0  0  0
  -26.6220  -34.7850   22.4120 O   0  0  0  0  0  0  0  0  0  0  0  0
  -24.9890  -33.9960   24.9820 H   0  0  0  0  0  0  0  0  0  0  0  0
  -24.1930  -36.6570   23.0580 C   0  0  0  0  0  1  0  0  0  0  0  0
  -25.4380  -36.2770   23.8750 C   0  0  0  0  0  3  0  0  0  0  0  0
  -27.5590  -37.1890   24.7040 C   0  0  0  0  0  1  0  0  0  0  0  0
  -26.4590  -37.3390   23.7540 N   0  0  0  0  0  0  0  0  0  0  0  0
  -26.0470  -38.2550   23.8990 H   0  0  0  0  0  0  0  0  0  0  0  0
  1  2  1  0
  1 49  1  0
  2  4  1  0
  3  4  1  0
  4  6  1  0
  5  3  2  0
  7  3  1  0
  7 48  1  0
  8 16  1  0
  9 14  1  0
 10 11  1  0
 10  9  1  0
 12 11  1  0
 12 21  1  0
 12 13  1  0
 14  8  1  0
 14 13  1  0
 15  8  2  0
 16 17  1  0
 16  7  1  0
 18 19  2  0
 19 38  1  0
 20 19  1  0
 20 23  1  0
 21 18  1  0
 21 22  1  0
 22 20  2  0
 23 24  1  0
 24 25  2  0
 26 29  1  0
 26 25  1  0
 27 26  2  0
 28 27  1  0
 28 23  2  0
 29 30  1  0
 30 31  1  0
 31 32  2  0
 33 32  1  0
 33 37  1  0
 34 33  2  0
 35 30  2  0
 35 34  1  0
 36 35  1  0
 38 39  1  0
 39 42  1  0
 39 41  1  0
 40 38  2  0
 43 44  1  0
 43 18  1  0
 45 43  1  0
 46 48  1  0
 48 47  1  0
 50 49  1  0
 50 51  1  0
 52 53  1  0
 52 51  1  0
 53 54  1  0
 54 55  1  0
 56 67  2  0
 57 55  1  0
 57 62  1  0
 58 66  1  0
 58 68  1  0
 59 65  1  0
 59 61  1  0
 60 66  1  0
 61 62  2  0
 61 60  1  0
 63 57  2  0
 64 63  1  0
 64 59  2  0
 65 58  1  0
 66 56  1  0
 68 70  2  0
 69 68  1  0
 71 69  1  0
 72 81  2  0
 72 77  1  0
 73 69  1  0
 73 77  1  0
 74 73  1  0
 75 76  1  0
 75 74  1  0
 76 72  1  0
 77 78  2  0
 78 79  1  0
 80 79  2  0
 81 80  1  0
 82 56  1  0
 82 87  1  0
 82 83  1  0
 83 86  1  1
 83 84  1  0
 85 83  1  0
 87 90  1  0
 88 92  1  0
 88 87  1  0
 89 88  2  0
 92 91  1  0
 94 92  1  0
 94 95  1  0
 94 93  1  0
M  ISO  4   8 100  16 100  54 101  55 101
M  END
>  <TORSDO>  (71) 
F 26

>  <SCORE>  (71) 
-10.642

>  <name>  (71) 
71

>  <ligand_id>  (71) 
71

>  <original_smiles>  (71) 
[H]c1c([H])c([H])c2c(c1[H])C([H])([H])C([H])([H])C([H])([H])C2([H])N([H])C(=O)C1([H])N(C(=O)C([H])(N([H])C(=O)C([H])(N([H])C([H])([H])[H])C([H])([H])[H])C(C([H])([H])[H])(C([H])([H])[H])C([H])([H])[H])C([H])([H])c2c([H])c(OC([H])([H])C([H])([H])OC([H])([H])C([H])([H])OC([H])([H])C([H])([H])N([H])C(=O)C([H])(N([H])C(=O)N3C([H])([H])C([H])([H])C([H])([H])C([H])(n4nc(-c5c([H])c([H])c(Oc6c([H])c([H])c(F)c([H])c6F)c([H])c5[H])c(C(=O)N([H])[H])c4N([H])[H])C3([H])[H])C([H])(C([H])([H])[H])C([H])([H])[H])c([H])c([H])c2C1([H])[H]

>  <smiles>  (71) 
[H]c1c([H])c([H])c2c(c1[H])C([H])([H])C([H])([H])C([H])([H])C2([H])N([H])C(=O)C1([H])N(C(=O)C([H])(N([H])C(=O)C([H])(N([H])C([H])([H])[H])C([H])([H])[H])C(C([H])([H])[H])(C([H])([H])[H])C([H])([H])[H])C([H])([H])c2c([H])c(OC([H])([H])C([H])([H])OC([H])([H])C([H])([H])OC([H])([H])C([H])([H])N([H])C(=O)C([H])(N([H])C(=O)N3C([H])([H])C([H])([H])C([H])([H])C([H])(n4nc(-c5c([H])c([H])c(Oc6c([H])c([H])c(F)c([H])c6F)c([H])c5[H])c(C(=O)N([H])[H])c4N([H])[H])C3([H])[H])C([H])(C([H])([H])[H])C([H])([H])[H])c([H])c([H])c2C1([H])[H]

$$$$
72:0:0
     RDKit          3D

101108  0  0  1  0  0  0  0  0999 V2000
  -26.2220  -23.6110   21.3930 C   0  0  0  0  0  0  0  0  0  0  0  0
  -25.0690  -22.9290   21.3540 N   0  0  0  0  0  0  0  0  0  0  0  0
  -27.2140  -23.2780   20.7400 O   0  0  0  0  0  0  0  0  0  0  0  0
  -24.3030  -23.2890   21.9080 H   0  0  0  0  0  0  0  0  0  0  0  0
  -25.0600  -24.7900   23.2550 C   0  0  0  0  0  1  0  0  0  0  0  0
  -26.2550  -24.8670   22.2890 C   0  0  0  0  0  3  0  0  0  0  0  0
  -26.9810  -27.1160   21.4620 C   0  0  0  0  0  0  0  0  0  0  0  0
  -26.1190  -26.0950   21.4940 N   0  0  0  0  0  0  0  0  0  0  0  0
  -28.0060  -27.1440   22.1470 O   0  0  0  0  0  0  0  0  0  0  0  0
  -25.3120  -26.1640   20.8920 H   0  0  0  0  0  0  0  0  0  0  0  0
  -26.5410  -28.1570   20.5490 C   0  0  0  0  0  3  0  0  0  0  0  0
  -27.0320  -29.4080   20.6400 C   0  0  0  0  0  3  0  0  0  0  0  0
  -26.6230  -30.5740   19.7490 C   0  0  0  0  0  2  0  0  0  0  0  0
  -25.2190  -30.8630   19.7310 O   0  0  0  0  0  0  0  0  0  0  0  0
  -24.9960  -27.4570   25.9930 C   0  0  0  0  0  0  0  0  0  0  0  0
  -24.4860  -30.4280   20.8070 C   0  0  0  0  0  0  0  0  0  0  0  0
  -22.8130  -27.9740   24.9510 C   0  0  0  0  0  3  0  0  0  0  0  0
  -22.8910  -29.5680   22.9640 C   0  0  0  0  0  0  0  0  0  0  0  0
  -24.8570  -29.4480   24.5020 C   0  0  0  0  0  2  0  0  0  0  0  0
  -24.2710  -29.7370   23.1370 C   0  0  0  0  0  0  0  0  0  0  0  0
  -25.0780  -30.1650   22.0610 C   0  0  0  0  0  3  0  0  0  0  0  0
  -23.0960  -30.2670   20.6450 C   0  0  0  0  0  3  0  0  0  0  0  0
  -22.2970  -29.8280   21.7170 C   0  0  0  0  0  3  0  0  0  0  0  0
  -22.0970  -29.1060   24.1650 C   0  0  0  0  0  2  0  0  0  0  0  0
  -24.2710  -28.2560   25.1600 N   0  0  0  0  0  0  0  0  0  0  0  0
  -24.4630  -26.5270   26.6140 O   0  0  0  0  0  0  0  0  0  0  0  0
  -22.5460  -26.6320   24.2340 C   0  0  0  0  0  0  0  0  0  0  0  0
  -21.3680  -26.5170   23.6010 N   0  0  0  0  0  0  0  0  0  0  0  0
  -23.3930  -25.7380   24.2370 O   0  0  0  0  0  0  0  0  0  0  0  0
  -20.7220  -27.2910   23.6610 H   0  0  0  0  0  0  0  0  0  0  0  0
  -19.3270  -25.5160   20.7940 C   0  0  0  0  0  0  0  0  0  0  0  0
  -20.9130  -25.3620   22.8310 C   0  0  0  0  0  3  0  0  0  0  0  0
  -21.9940  -24.9040   21.8260 C   0  0  0  0  0  2  0  0  0  0  0  0
  -21.8330  -25.5350   20.4390 C   0  0  0  0  0  2  0  0  0  0  0  0
  -20.4660  -25.1820   19.8430 C   0  0  0  0  0  2  0  0  0  0  0  0
  -19.5410  -25.6170   22.1940 C   0  0  0  0  0  0  0  0  0  0  0  0
  -18.4560  -25.9620   23.0300 C   0  0  0  0  0  3  0  0  0  0  0  0
  -17.1790  -26.2020   22.4910 C   0  0  0  0  0  3  0  0  0  0  0  0
  -16.9680  -26.0850   21.1070 C   0  0  0  0  0  3  0  0  0  0  0  0
  -18.0390  -25.7400   20.2630 C   0  0  0  0  0  3  0  0  0  0  0  0
  -26.5220  -27.6910   26.2260 C   0  0  0  0  0  3  0  0  0  0  0  0
  -26.6620  -28.6120   27.3620 N   0  0  0  0  0  0  0  0  0  0  0  0
  -27.1340  -29.8630   27.2720 C   0  0  0  0  0  0  0  0  0  0  0  0
  -27.5710  -30.3410   26.2210 O   0  0  0  0  0  0  0  0  0  0  0  0
  -26.2720  -28.3050   28.2400 H   0  0  0  0  0  0  0  0  0  0  0  0
  -26.0550  -31.8230   28.4250 C   0  0  0  0  0  1  0  0  0  0  0  0
  -27.1200  -30.7210   28.5520 C   0  0  0  0  0  3  0  0  0  0  0  0
  -29.4380  -30.3550   29.2740 C   0  0  0  0  0  1  0  0  0  0  0  0
  -28.4300  -31.3300   28.8670 N   0  0  0  0  0  0  0  0  0  0  0  0
  -28.3400  -32.0140   29.6130 H   0  0  0  0  0  0  0  0  0  0  0  0
  -27.3210  -26.3550   26.4850 C   0  0  1  0  0  0  0  0  0  0  0  0
  -26.7250  -25.4850   27.6150 C   0  0  0  0  0  1  0  0  0  0  0  0
  -27.3710  -25.4910   25.2030 C   0  0  0  0  0  1  0  0  0  0  0  0
  -28.7860  -26.6810   26.8570 C   0  0  0  0  0  1  0  0  0  0  0  0
  -24.8350  -21.6650   20.6570 C   0  0  0  0  0  2  0  0  0  0  0  0
  -24.7400  -21.8090   19.1210 C   0  0  0  0  0  2  0  0  0  0  0  0
  -26.0780  -22.0530   18.4080 C   0  0  0  0  0  2  0  0  0  0  0  0
  -26.7840  -20.8220   18.2940 O   0  0  0  0  0  0  0  0  0  0  0  0
  -27.4030  -20.6770   17.0250 C   0  0  0  0  0  2  0  0  0  0  0  0
  -28.9280  -20.7250   17.1620 C   0  0  0  0  0  2  0  0  0  0  0  0
  -29.4050  -19.3900   17.0890 O   0  0  0  0  0  0  0  0  0  0  0  0
  -30.4990  -19.1260   17.9540 C   0  0  0  0  0  2  0  0  0  0  0  0
  -30.1000  -17.9940   18.9110 C   0  0  0  0  0  2  0  0  0  0  0  0
  -31.5950  -16.0560   19.2230 C   0  0  0  0  0  0  0  0  0  0  0  0
  -32.0050  -14.5470   21.1300 C   0  0  0  0  0  2  0  0  0  0  0  0
  -31.7620  -13.0730   20.7550 C   0  0  0  0  0  2  0  0  0  0  0  0
  -30.2810  -12.7000   20.9520 C   0  0  0  0  0  2  0  0  0  0  0  0
  -29.3230  -13.7210   20.2860 C   0  0  0  0  0  3  0  0  0  0  0  0
  -29.7020  -15.1740   20.6510 C   0  0  0  0  0  2  0  0  0  0  0  0
  -31.1210  -15.3960   20.3140 N   0  0  0  0  0  0  0  0  0  0  0  0
  -32.7640  -15.9890   18.8400 O   0  0  0  0  0  0  0  0  0  0  0  0
  -30.7090  -16.7330   18.4850 N   0  0  0  0  0  0  0  0  0  0  0  0
  -31.0000  -16.7850   17.5200 H   0  0  0  0  0  0  0  0  0  0  0  0
  -26.8650  -14.3130   20.7790 C   0  0  0  0  0  0  0  0  0  0  0  0
  -25.7660  -13.5290   21.0230 C   0  0  0  0  0  0  0  0  0  0  0  0
  -26.2250  -12.1780   20.9760 C   0  0  0  0  0  0  0  0  0  0  0  0
  -27.9270  -13.4350   20.6160 N   0  0  0  0  0  0  0  0  0  0  0  0
  -27.5380  -12.1450   20.7810 N   0  0  0  0  0  0  0  0  0  0  0  0
  -25.4820  -10.9110   21.0400 C   0  0  0  0  0  0  0  0  0  0  0  0
  -25.7050   -9.9720   22.0710 C   0  0  0  0  0  3  0  0  0  0  0  0
  -24.9670   -8.7710   22.1190 C   0  0  0  0  0  3  0  0  0  0  0  0
  -23.9920   -8.4960   21.1320 C   0  0  0  0  0  0  0  0  0  0  0  0
  -23.7900   -9.4210   20.0910 C   0  0  0  0  0  3  0  0  0  0  0  0
  -24.5290  -10.6160   20.0440 C   0  0  0  0  0  3  0  0  0  0  0  0
  -23.2460   -7.3420   21.0840 O   0  0  0  0  0  0  0  0  0  0  0  0
  -22.8750   -6.6800   22.2260 C   0  0  0  0  0  0  0  0  0  0  0  0
  -22.0810   -7.2920   23.2210 C   0  0  0  0  0  3  0  0  0  0  0  0
  -21.6660   -6.5500   24.3460 C   0  0  0  0  0  3  0  0  0  0  0  0
  -22.0350   -5.1970   24.4720 C   0  0  0  0  0  0  0  0  0  0  0  0
  -22.8240   -4.5870   23.4820 C   0  0  0  0  0  3  0  0  0  0  0  0
  -23.2400   -5.3260   22.3610 C   0  0  0  0  0  0  0  0  0  0  0  0
  -23.9820   -4.7270   21.3990 F   0  0  0  0  0  0  0  0  0  0  0  0
  -21.6290   -4.4800   25.5470 F   0  0  0  0  0  0  0  0  0  0  0  0
  -24.3500  -14.0040   21.1900 C   0  0  0  0  0  0  0  0  0  0  0  0
  -23.5660  -13.3130   22.0100 N   0  0  0  0  0  0  0  0  0  0  0  0
  -23.9480  -15.0230   20.6310 O   0  0  0  0  0  0  0  0  0  0  0  0
  -23.9060  -12.4940   22.4910 H   0  0  0  0  0  0  0  0  0  0  0  0
  -22.6210  -13.6290   22.1830 H   0  0  0  0  0  0  0  0  0  0  0  0
  -27.0440  -15.6830   20.6600 N   0  0  0  0  0  0  0  0  0  0  0  0
  -26.2630  -16.3280   20.6500 H   0  0  0  0  0  0  0  0  0  0  0  0
  -27.9220  -16.1100   20.3940 H   0  0  0  0  0  0  0  0  0  0  0  0
  1  6  1  0
  2  1  1  0
  2  4  1  0
  3  1  2  0
  6  5  1  0
  7  8  1  0
  7  9  2  0
  8  6  1  0
 10  8  1  0
 11 12  2  0
 11  7  1  0
 13 12  1  0
 14 13  1  0
 14 16  1  0
 15 26  2  0
 16 21  1  0
 17 27  1  0
 17 25  1  0
 18 20  1  0
 18 24  1  0
 19 25  1  0
 20 19  1  0
 21 20  2  0
 22 16  2  0
 22 23  1  0
 23 18  2  0
 24 17  1  0
 25 15  1  0
 27 29  2  0
 28 30  1  0
 28 27  1  0
 31 36  1  0
 32 28  1  0
 33 32  1  0
 34 33  1  0
 35 34  1  0
 35 31  1  0
 36 32  1  0
 36 37  2  0
 38 37  1  0
 39 38  2  0
 40 31  2  0
 40 39  1  0
 41 15  1  0
 41 51  1  0
 41 42  1  0
 42 45  1  0
 43 42  1  0
 43 47  1  0
 44 43  2  0
 47 46  1  0
 47 49  1  0
 49 48  1  0
 49 50  1  0
 51 54  1  1
 51 52  1  0
 53 51  1  0
 55  2  1  0
 56 55  1  0
 57 56  1  0
 58 57  1  0
 59 60  1  0
 59 58  1  0
 61 60  1  0
 61 62  1  0
 62 63  1  0
 64 70  1  0
 66 67  1  0
 66 65  1  0
 68 77  1  0
 68 69  1  0
 68 67  1  0
 70 69  1  0
 70 65  1  0
 71 64  2  0
 72 63  1  0
 72 64  1  0
 73 72  1  0
 74 75  2  0
 75 94  1  0
 76 75  1  0
 76 79  1  0
 77 74  1  0
 77 78  1  0
 78 76  2  0
 79 80  1  0
 80 81  2  0
 82 81  1  0
 83 82  2  0
 84 83  1  0
 84 79  2  0
 85 82  1  0
 85 86  1  0
 86 91  2  0
 86 87  1  0
 87 88  2  0
 88 89  1  0
 89 93  1  0
 90 89  2  0
 91 90  1  0
 92 91  1  0
 94 95  1  0
 95 98  1  0
 95 97  1  0
 96 94  2  0
 99 74  1  0
100 99  1  0
101 99  1  0
M  ISO  4  13 101  14 101  64 100  72 100
M  END
>  <TORSDO>  (72) 
F 29

>  <SCORE>  (72) 
4.041

>  <name>  (72) 
72

>  <ligand_id>  (72) 
72

>  <original_smiles>  (72) 
[H]C(C(=O)N([H])C([H])(C(=O)N([H])C([H])([H])C([H])([H])C([H])([H])OC([H])([H])C([H])([H])OC([H])([H])C([H])([H])N([H])C(=O)N1C([H])([H])C([H])([H])C([H])([H])C([H])(n2nc(-c3c([H])c([H])c(Oc4c([H])c([H])c(F)c([H])c4F)c([H])c3[H])c(C(=O)N([H])[H])c2N([H])[H])C1([H])[H])C([H])([H])[H])=C([H])C([H])([H])Oc1c([H])c([H])c2c(c1[H])C([H])([H])N(C(=O)C([H])(N([H])C(=O)C([H])(N([H])C([H])([H])[H])C([H])([H])[H])C(C([H])([H])[H])(C([H])([H])[H])C([H])([H])[H])C([H])(C(=O)N([H])C1([H])c3c([H])c([H])c([H])c([H])c3C([H])([H])C([H])([H])C1([H])[H])C2([H])[H]

>  <smiles>  (72) 
[H]C(C(=O)N([H])C([H])(C(=O)N([H])C([H])([H])C([H])([H])C([H])([H])OC([H])([H])C([H])([H])OC([H])([H])C([H])([H])N([H])C(=O)N1C([H])([H])C([H])([H])C([H])([H])C([H])(n2nc(-c3c([H])c([H])c(Oc4c([H])c([H])c(F)c([H])c4F)c([H])c3[H])c(C(=O)N([H])[H])c2N([H])[H])C1([H])[H])C([H])([H])[H])=C([H])C([H])([H])Oc1c([H])c([H])c2c(c1[H])C([H])([H])N(C(=O)C([H])(N([H])C(=O)C([H])(N([H])C([H])([H])[H])C([H])([H])[H])C(C([H])([H])[H])(C([H])([H])[H])C([H])([H])[H])C([H])(C(=O)N([H])C1([H])c3c([H])c([H])c([H])c([H])c3C([H])([H])C([H])([H])C1([H])[H])C2([H])[H]

$$$$
73:0:0
     RDKit          3D

 93101  0  0  1  0  0  0  0  0999 V2000
  -28.3400  -22.8840   19.0770 C   0  0  0  0  0  0  0  0  0  0  0  0
  -28.3220  -21.5670   19.3850 N   0  0  0  0  0  0  0  0  0  0  0  0
  -28.7110  -23.1630   17.9380 O   0  0  0  0  0  0  0  0  0  0  0  0
  -28.7270  -20.9940   18.6530 H   0  0  0  0  0  0  0  0  0  0  0  0
  -27.6040  -20.7710   20.3810 C   0  0  0  0  0  2  0  0  0  0  0  0
  -30.1290  -19.9640   23.1180 C   0  0  0  0  0  3  0  0  0  0  0  0
  -30.3070  -18.5720   22.9680 C   0  0  0  0  0  3  0  0  0  0  0  0
  -29.2630  -20.6600   22.2710 C   0  0  0  0  0  3  0  0  0  0  0  0
  -28.7140  -18.5490   21.1450 C   0  0  0  0  0  3  0  0  0  0  0  0
  -29.6200  -17.8230   21.9760 C   0  0  0  0  0  0  0  0  0  0  0  0
  -28.5380  -19.9640   21.2860 C   0  0  0  0  0  0  0  0  0  0  0  0
  -29.9430  -16.3440   21.8250 C   0  0  0  0  0  3  0  0  0  0  0  0
  -30.3920  -15.6580   23.1190 C   0  0  0  0  0  1  0  0  0  0  0  0
  -29.8860  -15.7240   20.6960 N   0  0  0  0  0  2  0  0  0  0  0  0
  -30.6540  -14.5680   20.4770 C   0  0  0  0  0  0  0  0  0  0  0  0
  -30.4210  -12.3340   19.4660 C   0  0  0  0  0  2  0  0  0  0  0  0
  -29.5130  -12.4920   18.2270 C   0  0  0  0  0  2  0  0  0  0  0  0
  -28.0320  -12.3430   18.6240 C   0  0  0  0  0  2  0  0  0  0  0  0
  -27.6560  -13.2130   19.8550 C   0  0  0  0  0  3  0  0  0  0  0  0
  -28.6860  -13.0590   20.9910 C   0  0  0  0  0  2  0  0  0  0  0  0
  -30.0150  -13.3600   20.4500 N   0  0  0  0  0  0  0  0  0  0  0  0
  -31.8340  -14.6590   20.1390 O   0  0  0  0  0  0  0  0  0  0  0  0
  -25.2600  -13.8160   20.5650 C   0  0  0  0  0  0  0  0  0  0  0  0
  -24.1850  -13.0450   20.9160 C   0  0  0  0  0  0  0  0  0  0  0  0
  -24.6390  -11.6900   20.8700 C   0  0  0  0  0  0  0  0  0  0  0  0
  -26.3020  -12.9330   20.3270 N   0  0  0  0  0  0  0  0  0  0  0  0
  -25.9320  -11.6480   20.5730 N   0  0  0  0  0  0  0  0  0  0  0  0
  -23.9080  -10.4300   21.0440 C   0  0  0  0  0  0  0  0  0  0  0  0
  -24.3630   -9.4200   21.9210 C   0  0  0  0  0  3  0  0  0  0  0  0
  -23.6290   -8.2240   22.0780 C   0  0  0  0  0  3  0  0  0  0  0  0
  -22.4250   -8.0300   21.3570 C   0  0  0  0  0  0  0  0  0  0  0  0
  -21.9920   -9.0280   20.4660 C   0  0  0  0  0  3  0  0  0  0  0  0
  -22.7270  -10.2150   20.3080 C   0  0  0  0  0  3  0  0  0  0  0  0
  -21.6630   -6.8880   21.4250 O   0  0  0  0  0  0  0  0  0  0  0  0
  -21.6850   -6.0730   22.5280 C   0  0  0  0  0  0  0  0  0  0  0  0
  -21.4010   -6.5640   23.8210 C   0  0  0  0  0  3  0  0  0  0  0  0
  -21.3650   -5.6800   24.9180 C   0  0  0  0  0  3  0  0  0  0  0  0
  -21.6040   -4.3060   24.7240 C   0  0  0  0  0  0  0  0  0  0  0  0
  -21.8810   -3.8150   23.4360 C   0  0  0  0  0  3  0  0  0  0  0  0
  -21.9190   -4.6960   22.3410 C   0  0  0  0  0  0  0  0  0  0  0  0
  -22.1650   -4.2150   21.0980 F   0  0  0  0  0  0  0  0  0  0  0  0
  -21.5640   -3.4540   25.7750 F   0  0  0  0  0  0  0  0  0  0  0  0
  -22.7890  -13.5280   21.1830 C   0  0  0  0  0  0  0  0  0  0  0  0
  -22.0500  -12.8280   22.0360 N   0  0  0  0  0  0  0  0  0  0  0  0
  -22.3590  -14.5590   20.6660 O   0  0  0  0  0  0  0  0  0  0  0  0
  -22.4070  -11.9940   22.4770 H   0  0  0  0  0  0  0  0  0  0  0  0
  -21.1140  -13.1370   22.2560 H   0  0  0  0  0  0  0  0  0  0  0  0
  -25.4390  -15.1890   20.4080 N   0  0  0  0  0  0  0  0  0  0  0  0
  -24.6900  -15.8640   20.5190 H   0  0  0  0  0  0  0  0  0  0  0  0
  -26.3170  -15.6070   20.1280 H   0  0  0  0  0  0  0  0  0  0  0  0
  -27.9720  -24.0600   20.0370 C   0  0  0  0  0  2  0  0  0  0  0  0
  -28.5310  -25.4160   19.4780 C   0  0  0  0  0  2  0  0  0  0  0  0
  -28.3740  -26.6360   20.2310 O   0  0  0  0  0  0  0  0  0  0  0  0
  -24.6140  -31.8590   23.2070 C   0  0  0  0  0  0  0  0  0  0  0  0
  -27.2220  -27.3900   20.1290 C   0  0  0  0  0  0  0  0  0  0  0  0
  -23.4110  -30.4820   21.5410 C   0  0  0  0  0  3  0  0  0  0  0  0
  -24.8550  -28.9410   20.1140 C   0  0  0  0  0  0  0  0  0  0  0  0
  -25.9410  -30.8130   21.3660 C   0  0  0  0  0  2  0  0  0  0  0  0
  -26.0120  -29.4400   20.7260 C   0  0  0  0  0  0  0  0  0  0  0  0
  -27.1940  -28.6640   20.7420 C   0  0  0  0  0  3  0  0  0  0  0  0
  -26.0560  -26.9180   19.4880 C   0  0  0  0  0  3  0  0  0  0  0  0
  -24.8730  -27.6830   19.4880 C   0  0  0  0  0  3  0  0  0  0  0  0
  -23.6210  -29.8060   20.1580 C   0  0  0  0  0  2  0  0  0  0  0  0
  -24.6760  -31.0680   22.0950 N   0  0  0  0  0  0  0  0  0  0  0  0
  -23.5290  -32.1270   23.7460 O   0  0  0  0  0  0  0  0  0  0  0  0
  -22.7390  -29.4680   22.4930 C   0  0  0  0  0  0  0  0  0  0  0  0
  -21.4120  -29.3200   22.3550 N   0  0  0  0  0  0  0  0  0  0  0  0
  -23.4070  -28.8180   23.3020 O   0  0  0  0  0  0  0  0  0  0  0  0
  -20.9410  -29.8660   21.6440 H   0  0  0  0  0  0  0  0  0  0  0  0
  -18.0290  -28.1500   22.8380 C   0  0  0  0  0  0  0  0  0  0  0  0
  -20.5860  -28.3870   23.1190 C   0  0  0  0  0  3  0  0  0  0  0  0
  -20.6890  -26.9580   22.5350 C   0  0  0  0  0  2  0  0  0  0  0  0
  -19.5810  -26.6360   21.5240 C   0  0  0  0  0  2  0  0  0  0  0  0
  -18.1970  -26.8000   22.1570 C   0  0  0  0  0  2  0  0  0  0  0  0
  -19.1480  -28.8990   23.2760 C   0  0  0  0  0  0  0  0  0  0  0  0
  -18.9350  -30.1570   23.8900 C   0  0  0  0  0  3  0  0  0  0  0  0
  -17.6320  -30.6680   24.0640 C   0  0  0  0  0  3  0  0  0  0  0  0
  -16.5260  -29.9190   23.6250 C   0  0  0  0  0  3  0  0  0  0  0  0
  -16.7250  -28.6630   23.0190 C   0  0  0  0  0  3  0  0  0  0  0  0
  -25.9020  -32.4800   23.8410 C   0  0  0  0  0  3  0  0  0  0  0  0
  -25.5820  -33.8610   24.2310 N   0  0  0  0  0  0  0  0  0  0  0  0
  -25.8980  -34.9450   23.5110 C   0  0  0  0  0  0  0  0  0  0  0  0
  -26.5590  -34.8900   22.4700 O   0  0  0  0  0  0  0  0  0  0  0  0
  -25.0130  -33.9840   25.0580 H   0  0  0  0  0  0  0  0  0  0  0  0
  -24.1490  -36.7330   23.2620 C   0  0  0  0  0  1  0  0  0  0  0  0
  -25.4090  -36.3100   24.0330 C   0  0  0  0  0  3  0  0  0  0  0  0
  -27.5570  -37.1830   24.8430 C   0  0  0  0  0  1  0  0  0  0  0  0
  -26.4270  -37.3800   23.9380 N   0  0  0  0  0  0  0  0  0  0  0  0
  -26.0160  -38.2870   24.1410 H   0  0  0  0  0  0  0  0  0  0  0  0
  -26.4470  -31.6630   25.0770 C   0  0  1  0  0  0  0  0  0  0  0  0
  -25.3770  -31.3770   26.1570 C   0  0  0  0  0  1  0  0  0  0  0  0
  -27.0270  -30.3040   24.6190 C   0  0  0  0  0  1  0  0  0  0  0  0
  -27.5990  -32.4390   25.7590 C   0  0  0  0  0  1  0  0  0  0  0  0
  1  2  1  0
  1 51  1  0
  2  5  1  0
  3  1  2  0
  4  2  1  0
  5 11  1  0
  7  6  1  0
  8  6  2  0
  9 11  2  0
  9 10  1  0
 10  7  2  0
 11  8  1  0
 12 10  1  0
 12 13  1  0
 14 12  1  0
 15 14  1  0
 16 21  1  0
 17 18  1  0
 17 16  1  0
 19 18  1  0
 19 26  1  0
 19 20  1  0
 21 15  1  0
 21 20  1  0
 22 15  2  0
 23 24  2  0
 24 43  1  0
 25 24  1  0
 25 28  1  0
 26 23  1  0
 26 27  1  0
 27 25  2  0
 28 29  1  0
 29 30  2  0
 31 34  1  0
 31 30  1  0
 32 31  2  0
 33 32  1  0
 33 28  2  0
 34 35  1  0
 35 36  1  0
 36 37  2  0
 38 37  1  0
 38 42  1  0
 39 38  2  0
 40 35  2  0
 40 39  1  0
 41 40  1  0
 43 44  1  0
 44 47  1  0
 44 46  1  0
 45 43  2  0
 48 49  1  0
 48 23  1  0
 50 48  1  0
 52 51  1  0
 52 53  1  0
 54 65  2  0
 55 53  1  0
 55 60  1  0
 56 64  1  0
 56 66  1  0
 57 63  1  0
 57 59  1  0
 58 64  1  0
 59 60  2  0
 59 58  1  0
 61 62  1  0
 61 55  2  0
 62 57  2  0
 63 56  1  0
 64 54  1  0
 66 68  2  0
 67 66  1  0
 69 67  1  0
 70 79  2  0
 70 75  1  0
 71 67  1  0
 71 75  1  0
 72 71  1  0
 73 74  1  0
 73 72  1  0
 74 70  1  0
 75 76  2  0
 76 77  1  0
 78 77  2  0
 79 78  1  0
 80 54  1  0
 80 81  1  0
 80 90  1  0
 81 84  1  0
 82 86  1  0
 82 81  1  0
 83 82  2  0
 86 85  1  0
 88 86  1  0
 88 89  1  0
 88 87  1  0
 90 93  1  1
 90 91  1  0
 92 90  1  0
M  ISO  4  14 100  15 100  52 101  53 101
M  END
>  <TORSDO>  (73) 
F 21

>  <SCORE>  (73) 
-7.542

>  <name>  (73) 
73

>  <ligand_id>  (73) 
73

>  <original_smiles>  (73) 
[H]c1c([H])c(C(=NC(=O)N2C([H])([H])C([H])([H])C([H])([H])C([H])(n3nc(-c4c([H])c([H])c(Oc5c([H])c([H])c(F)c([H])c5F)c([H])c4[H])c(C(=O)N([H])[H])c3N([H])[H])C2([H])[H])C([H])([H])[H])c([H])c(C([H])([H])N([H])C(=O)C([H])([H])C([H])([H])Oc2c([H])c([H])c3c(c2[H])C([H])([H])N(C(=O)C([H])(N([H])C(=O)C([H])(N([H])C([H])([H])[H])C([H])([H])[H])C(C([H])([H])[H])(C([H])([H])[H])C([H])([H])[H])C([H])(C(=O)N([H])C2([H])c4c([H])c([H])c([H])c([H])c4C([H])([H])C([H])([H])C2([H])[H])C3([H])[H])c1[H]

>  <smiles>  (73) 
[H]c1c([H])c(C(=NC(=O)N2C([H])([H])C([H])([H])C([H])([H])C([H])(n3nc(-c4c([H])c([H])c(Oc5c([H])c([H])c(F)c([H])c5F)c([H])c4[H])c(C(=O)N([H])[H])c3N([H])[H])C2([H])[H])C([H])([H])[H])c([H])c(C([H])([H])N([H])C(=O)C([H])([H])C([H])([H])Oc2c([H])c([H])c3c(c2[H])C([H])([H])N(C(=O)C([H])(N([H])C(=O)C([H])(N([H])C([H])([H])[H])C([H])([H])[H])C(C([H])([H])[H])(C([H])([H])[H])C([H])([H])[H])C([H])(C(=O)N([H])C2([H])c4c([H])c([H])c([H])c([H])c4C([H])([H])C([H])([H])C2([H])[H])C3([H])[H])c1[H]

$$$$
74:0:0
     RDKit          3D

102109  0  0  1  0  0  0  0  0999 V2000
  -28.1310  -22.2890   18.5210 C   0  0  0  0  0  0  0  0  0  0  0  0
  -27.0370  -21.9440   17.8240 N   0  0  0  0  0  0  0  0  0  0  0  0
  -28.7100  -21.5040   19.2750 O   0  0  0  0  0  0  0  0  0  0  0  0
  -26.6330  -22.6210   17.1930 H   0  0  0  0  0  0  0  0  0  0  0  0
  -25.0370  -20.7020   17.1640 C   0  0  0  0  0  1  0  0  0  0  0  0
  -26.3810  -20.6400   17.9110 C   0  0  0  0  0  3  0  0  0  0  0  0
  -27.2510  -19.5390   17.2550 C   0  0  0  0  0  0  0  0  0  0  0  0
  -27.4360  -18.3750   17.8810 N   0  0  0  0  0  0  0  0  0  0  0  0
  -27.7530  -19.7310   16.1450 O   0  0  0  0  0  0  0  0  0  0  0  0
  -27.9710  -17.6780   17.3780 H   0  0  0  0  0  0  0  0  0  0  0  0
  -26.9050  -17.9780   19.1800 C   0  0  0  0  0  2  0  0  0  0  0  0
  -27.9220  -18.1510   20.3320 C   0  0  0  0  0  2  0  0  0  0  0  0
  -29.1850  -17.2750   20.1800 C   0  0  0  0  0  2  0  0  0  0  0  0
  -30.0690  -17.2520   21.4460 C   0  0  0  0  0  2  0  0  0  0  0  0
  -31.2600  -16.2590   21.3980 C   0  0  0  0  0  2  0  0  0  0  0  0
  -31.4350  -13.8780   20.5860 C   0  0  0  0  0  0  0  0  0  0  0  0
  -30.9770  -11.7890   19.3580 C   0  0  0  0  0  2  0  0  0  0  0  0
  -30.0750  -12.1180   18.1480 C   0  0  0  0  0  2  0  0  0  0  0  0
  -28.5860  -12.1090   18.5420 C   0  0  0  0  0  2  0  0  0  0  0  0
  -28.3090  -12.9630   19.8040 C   0  0  0  0  0  3  0  0  0  0  0  0
  -29.3050  -12.5820   20.9280 C   0  0  0  0  0  2  0  0  0  0  0  0
  -30.6740  -12.7680   20.4110 N   0  0  0  0  0  0  0  0  0  0  0  0
  -32.5560  -14.0220   20.0840 O   0  0  0  0  0  0  0  0  0  0  0  0
  -30.8180  -14.8700   21.2510 N   0  0  0  0  0  0  0  0  0  0  0  0
  -29.9130  -14.6460   21.6370 H   0  0  0  0  0  0  0  0  0  0  0  0
  -25.9850  -13.8270   20.4930 C   0  0  0  0  0  0  0  0  0  0  0  0
  -24.8240  -13.1890   20.8140 C   0  0  0  0  0  0  0  0  0  0  0  0
  -25.1210  -11.7950   20.7550 C   0  0  0  0  0  0  0  0  0  0  0  0
  -26.9230  -12.8400   20.2470 N   0  0  0  0  0  0  0  0  0  0  0  0
  -26.4050  -11.6060   20.4650 N   0  0  0  0  0  0  0  0  0  0  0  0
  -24.2460  -10.6280   20.8980 C   0  0  0  0  0  0  0  0  0  0  0  0
  -24.5380   -9.6020   21.8200 C   0  0  0  0  0  3  0  0  0  0  0  0
  -23.6740   -8.4940   21.9520 C   0  0  0  0  0  3  0  0  0  0  0  0
  -22.5030   -8.4090   21.1610 C   0  0  0  0  0  0  0  0  0  0  0  0
  -22.2280   -9.4240   20.2290 C   0  0  0  0  0  3  0  0  0  0  0  0
  -23.0910  -10.5240   20.0960 C   0  0  0  0  0  3  0  0  0  0  0  0
  -21.6230   -7.3540   21.2000 O   0  0  0  0  0  0  0  0  0  0  0  0
  -21.4410   -6.6140   22.3400 C   0  0  0  0  0  0  0  0  0  0  0  0
  -21.0200   -7.2030   23.5530 C   0  0  0  0  0  3  0  0  0  0  0  0
  -20.7830   -6.3950   24.6810 C   0  0  0  0  0  3  0  0  0  0  0  0
  -20.9520   -4.9990   24.5970 C   0  0  0  0  0  0  0  0  0  0  0  0
  -21.3680   -4.4100   23.3890 C   0  0  0  0  0  3  0  0  0  0  0  0
  -21.6090   -5.2160   22.2640 C   0  0  0  0  0  0  0  0  0  0  0  0
  -21.9890   -4.6430   21.0960 F   0  0  0  0  0  0  0  0  0  0  0  0
  -20.7130   -4.2220   25.6800 F   0  0  0  0  0  0  0  0  0  0  0  0
  -23.4880  -13.8330   21.0690 C   0  0  0  0  0  0  0  0  0  0  0  0
  -22.6660  -13.2280   21.9170 N   0  0  0  0  0  0  0  0  0  0  0  0
  -23.1850  -14.9050   20.5470 O   0  0  0  0  0  0  0  0  0  0  0  0
  -22.9160  -12.3610   22.3680 H   0  0  0  0  0  0  0  0  0  0  0  0
  -21.7680  -13.6450   22.1230 H   0  0  0  0  0  0  0  0  0  0  0  0
  -26.3120  -15.1670   20.3890 N   0  0  0  0  0  0  0  0  0  0  0  0
  -25.6140  -15.8850   20.5370 H   0  0  0  0  0  0  0  0  0  0  0  0
  -27.2080  -15.5130   20.0800 H   0  0  0  0  0  0  0  0  0  0  0  0
  -28.6540  -23.7300   18.3850 C   0  0  0  0  0  3  0  0  0  0  0  0
  -29.2920  -24.1560   19.6530 N   0  0  0  0  0  4  0  0  0  0  0  0
  -29.8910  -23.3950   19.9480 H   0  0  0  0  0  0  0  0  0  0  0  0
  -29.8730  -24.9530   19.4450 H   0  0  0  0  0  0  0  0  0  0  0  0
  -28.3800  -24.5190   20.7700 C   0  0  0  0  0  2  0  0  0  0  0  0
  -28.6340  -25.9520   21.2640 C   0  0  0  0  0  2  0  0  0  0  0  0
  -28.3860  -26.8680   20.1970 O   0  0  0  0  0  0  0  0  0  0  0  0
  -24.5200  -31.9630   23.3440 C   0  0  0  0  0  0  0  0  0  0  0  0
  -27.2010  -27.5560   20.2730 C   0  0  0  0  0  0  0  0  0  0  0  0
  -23.3210  -30.5570   21.6940 C   0  0  0  0  0  3  0  0  0  0  0  0
  -24.7890  -29.0200   20.2820 C   0  0  0  0  0  0  0  0  0  0  0  0
  -25.8410  -30.9330   21.5010 C   0  0  0  0  0  2  0  0  0  0  0  0
  -25.9380  -29.5580   20.8750 C   0  0  0  0  0  0  0  0  0  0  0  0
  -27.1480  -28.8330   20.8740 C   0  0  0  0  0  3  0  0  0  0  0  0
  -26.0400  -27.0200   19.6800 C   0  0  0  0  0  3  0  0  0  0  0  0
  -24.8330  -27.7460   19.6860 C   0  0  0  0  0  3  0  0  0  0  0  0
  -23.5370  -29.8650   20.3190 C   0  0  0  0  0  2  0  0  0  0  0  0
  -24.5780  -31.1660   22.2380 N   0  0  0  0  0  0  0  0  0  0  0  0
  -23.4350  -32.2320   23.8810 O   0  0  0  0  0  0  0  0  0  0  0  0
  -22.6670  -29.5380   22.6550 C   0  0  0  0  0  0  0  0  0  0  0  0
  -21.3470  -29.3380   22.5050 N   0  0  0  0  0  0  0  0  0  0  0  0
  -23.3460  -28.9270   23.4850 O   0  0  0  0  0  0  0  0  0  0  0  0
  -20.8630  -29.8900   21.8110 H   0  0  0  0  0  0  0  0  0  0  0  0
  -17.9850  -28.0900   22.9280 C   0  0  0  0  0  0  0  0  0  0  0  0
  -20.5290  -28.3950   23.2640 C   0  0  0  0  0  3  0  0  0  0  0  0
  -20.6720  -26.9590   22.7070 C   0  0  0  0  0  2  0  0  0  0  0  0
  -19.6020  -26.6050   21.6690 C   0  0  0  0  0  2  0  0  0  0  0  0
  -18.2030  -26.7350   22.2760 C   0  0  0  0  0  2  0  0  0  0  0  0
  -19.0790  -28.8750   23.3780 C   0  0  0  0  0  0  0  0  0  0  0  0
  -18.8240  -30.1430   23.9460 C   0  0  0  0  0  3  0  0  0  0  0  0
  -17.5080  -30.6240   24.0710 C   0  0  0  0  0  3  0  0  0  0  0  0
  -16.4280  -29.8370   23.6370 C   0  0  0  0  0  3  0  0  0  0  0  0
  -16.6670  -28.5710   23.0720 C   0  0  0  0  0  3  0  0  0  0  0  0
  -25.8030  -32.5930   23.9710 C   0  0  0  0  0  3  0  0  0  0  0  0
  -25.4970  -33.9940   24.2880 N   0  0  0  0  0  0  0  0  0  0  0  0
  -25.8520  -35.0400   23.5290 C   0  0  0  0  0  0  0  0  0  0  0  0
  -26.5400  -34.9270   22.5110 O   0  0  0  0  0  0  0  0  0  0  0  0
  -24.8880  -34.1590   25.0760 H   0  0  0  0  0  0  0  0  0  0  0  0
  -24.1420  -36.8390   23.1310 C   0  0  0  0  0  1  0  0  0  0  0  0
  -25.3630  -36.4320   23.9700 C   0  0  0  0  0  3  0  0  0  0  0  0
  -27.4860  -37.3060   24.8420 C   0  0  0  0  0  1  0  0  0  0  0  0
  -26.4050  -37.4780   23.8760 N   0  0  0  0  0  0  0  0  0  0  0  0
  -26.0010  -38.4010   24.0120 H   0  0  0  0  0  0  0  0  0  0  0  0
  -26.3090  -31.8270   25.2540 C   0  0  1  0  0  0  0  0  0  0  0  0
  -25.2040  -31.5920   26.3100 C   0  0  0  0  0  1  0  0  0  0  0  0
  -26.8970  -30.4490   24.8670 C   0  0  0  0  0  1  0  0  0  0  0  0
  -27.4510  -32.6250   25.9250 C   0  0  0  0  0  1  0  0  0  0  0  0
  -29.0520  -24.0290   15.8290 C   0  0  0  0  0  1  0  0  0  0  0  0
  -29.6740  -23.8480   17.2240 C   0  0  0  0  0  2  0  0  0  0  0  0
  1  3  2  0
  2  6  1  0
  2  1  1  0
  4  2  1  0
  6  5  1  0
  7  8  1  0
  7  6  1  0
  8 11  1  0
  9  7  2  0
 10  8  1  0
 11 12  1  0
 13 12  1  0
 13 14  1  0
 15 14  1  0
 16 24  1  0
 17 22  1  0
 18 19  1  0
 18 17  1  0
 20 19  1  0
 20 29  1  0
 20 21  1  0
 22 16  1  0
 22 21  1  0
 23 16  2  0
 24 15  1  0
 24 25  1  0
 26 27  2  0
 27 46  1  0
 28 27  1  0
 28 31  1  0
 29 30  1  0
 29 26  1  0
 30 28  2  0
 31 32  1  0
 32 33  2  0
 34 37  1  0
 34 33  1  0
 35 34  2  0
 36 35  1  0
 36 31  2  0
 37 38  1  0
 38 39  1  0
 39 40  2  0
 41 40  1  0
 41 45  1  0
 42 41  2  0
 43 38  2  0
 43 42  1  0
 44 43  1  0
 46 47  1  0
 47 50  1  0
 47 49  1  0
 48 46  2  0
 51 26  1  0
 51 52  1  0
 53 51  1  0
 54102  1  0
 54  1  1  0
 54 55  1  0
 55 56  1  0
 55 58  1  0
 57 55  1  0
 58 59  1  0
 60 62  1  0
 60 59  1  0
 61 72  2  0
 62 67  1  0
 63 71  1  0
 63 73  1  0
 64 70  1  0
 64 66  1  0
 65 71  1  0
 66 65  1  0
 67 66  2  0
 68 69  1  0
 68 62  2  0
 69 64  2  0
 70 63  1  0
 71 61  1  0
 73 75  2  0
 74 73  1  0
 76 74  1  0
 77 86  2  0
 77 82  1  0
 78 74  1  0
 78 82  1  0
 79 78  1  0
 80 81  1  0
 80 79  1  0
 81 77  1  0
 82 83  2  0
 83 84  1  0
 85 84  2  0
 86 85  1  0
 87 61  1  0
 87 88  1  0
 87 97  1  0
 88 91  1  0
 89 93  1  0
 89 88  1  0
 90 89  2  0
 93 92  1  0
 95 93  1  0
 95 96  1  0
 95 94  1  0
 97100  1  1
 97 98  1  0
 99 97  1  0
101102  1  0
M  ISO  4  16 100  24 100  59 101  60 101
M  END
>  <TORSDO>  (74) 
F 28

>  <SCORE>  (74) 
-10.849

>  <name>  (74) 
74

>  <ligand_id>  (74) 
74

>  <original_smiles>  (74) 
[H]c1c([H])c([H])c2c(c1[H])C([H])([H])C([H])([H])C([H])([H])C2([H])N([H])C(=O)C1([H])N(C(=O)C([H])(N([H])C(=O)C([H])(N([H])C([H])([H])[H])C([H])([H])[H])C(C([H])([H])[H])(C([H])([H])[H])C([H])([H])[H])C([H])([H])c2c([H])c(OC([H])([H])C([H])([H])[N+]([H])([H])C([H])(C(=O)N([H])C([H])(C(=O)N([H])C([H])([H])C([H])([H])C([H])([H])C([H])([H])C([H])([H])N([H])C(=O)N3C([H])([H])C([H])([H])C([H])([H])C([H])(n4nc(-c5c([H])c([H])c(Oc6c([H])c([H])c(F)c([H])c6F)c([H])c5[H])c(C(=O)N([H])[H])c4N([H])[H])C3([H])[H])C([H])([H])[H])C([H])([H])C([H])([H])[H])c([H])c([H])c2C1([H])[H]

>  <smiles>  (74) 
[H]c1c([H])c([H])c2c(c1[H])C([H])([H])C([H])([H])C([H])([H])C2([H])N([H])C(=O)C1([H])N(C(=O)C([H])(N([H])C(=O)C([H])(N([H])C([H])([H])[H])C([H])([H])[H])C(C([H])([H])[H])(C([H])([H])[H])C([H])([H])[H])C([H])([H])c2c([H])c(OC([H])([H])C([H])([H])[N+]([H])([H])C([H])(C(=O)N([H])C([H])(C(=O)N([H])C([H])([H])C([H])([H])C([H])([H])C([H])([H])C([H])([H])N([H])C(=O)N3C([H])([H])C([H])([H])C([H])([H])C([H])(n4nc(-c5c([H])c([H])c(Oc6c([H])c([H])c(F)c([H])c6F)c([H])c5[H])c(C(=O)N([H])[H])c4N([H])[H])C3([H])[H])C([H])([H])[H])C([H])([H])C([H])([H])[H])c([H])c([H])c2C1([H])[H]

$$$$
75:0:0
     RDKit          3D

 89 96  0  0  1  0  0  0  0  0999 V2000
  -27.7450  -20.1680   21.0560 C   0  0  0  0  0  1  0  0  0  0  0  0
  -28.7910  -20.4400   19.9680 C   0  0  0  0  0  3  0  0  0  0  0  0
  -29.0200  -22.3550   20.0210 C   0  0  0  0  0  3  0  0  0  0  0  0
  -28.0170  -23.9980   19.9330 C   0  0  0  0  0  3  0  0  0  0  0  0
  -28.2010  -25.7300   20.0820 O   0  0  0  0  0  0  0  0  0  0  0  0
  -24.6940  -31.8940   23.1780 C   0  0  0  0  0  0  0  0  0  0  0  0
  -27.2110  -26.9170   20.0630 C   0  0  0  0  0  0  0  0  0  0  0  0
  -23.4920  -30.5230   21.5260 C   0  0  0  0  0  3  0  0  0  0  0  0
  -24.9300  -28.9130   20.0690 C   0  0  0  0  0  0  0  0  0  0  0  0
  -26.0660  -30.6900   21.3770 C   0  0  0  0  0  2  0  0  0  0  0  0
  -26.1300  -29.2730   20.6930 C   0  0  0  0  0  0  0  0  0  0  0  0
  -27.2570  -28.3020   20.6600 C   0  0  0  0  0  3  0  0  0  0  0  0
  -25.9750  -26.7560   19.3910 C   0  0  0  0  0  3  0  0  0  0  0  0
  -24.8880  -27.6800   19.3950 C   0  0  0  0  0  3  0  0  0  0  0  0
  -23.7180  -29.8540   20.1400 C   0  0  0  0  0  2  0  0  0  0  0  0
  -24.7740  -31.0670   22.0800 N   0  0  0  0  0  0  0  0  0  0  0  0
  -23.6050  -32.1790   23.7080 O   0  0  0  0  0  0  0  0  0  0  0  0
  -22.7930  -29.5230   22.4860 C   0  0  0  0  0  0  0  0  0  0  0  0
  -21.4650  -29.3480   22.3590 N   0  0  0  0  0  0  0  0  0  0  0  0
  -23.4590  -28.9010   23.3170 O   0  0  0  0  0  0  0  0  0  0  0  0
  -20.9750  -29.9000   21.6680 H   0  0  0  0  0  0  0  0  0  0  0  0
  -18.0950  -28.0860   22.8610 C   0  0  0  0  0  0  0  0  0  0  0  0
  -20.6520  -28.3920   23.1210 C   0  0  0  0  0  3  0  0  0  0  0  0
  -20.7730  -26.9660   22.5340 C   0  0  0  0  0  2  0  0  0  0  0  0
  -19.6750  -26.6380   21.5160 C   0  0  0  0  0  2  0  0  0  0  0  0
  -18.2920  -26.7510   22.1640 C   0  0  0  0  0  2  0  0  0  0  0  0
  -19.2020  -28.8650   23.2960 C   0  0  0  0  0  0  0  0  0  0  0  0
  -18.9590  -30.1110   23.9110 C   0  0  0  0  0  3  0  0  0  0  0  0
  -17.6440  -30.5820   24.0940 C   0  0  0  0  0  3  0  0  0  0  0  0
  -16.5540  -29.8030   23.6700 C   0  0  0  0  0  3  0  0  0  0  0  0
  -16.7800  -28.5560   23.0600 C   0  0  0  0  0  3  0  0  0  0  0  0
  -25.9620  -32.5350   23.8160 C   0  0  0  0  0  3  0  0  0  0  0  0
  -26.4690  -31.7610   25.0970 C   0  0  1  0  0  0  0  0  0  0  0  0
  -25.3680  -31.5230   26.1580 C   0  0  0  0  0  1  0  0  0  0  0  0
  -27.0550  -30.3830   24.7170 C   0  0  0  0  0  1  0  0  0  0  0  0
  -27.6150  -32.5530   25.7690 C   0  0  0  0  0  1  0  0  0  0  0  0
  -25.6420  -33.9310   24.1710 N   0  0  0  0  0  0  0  0  0  0  0  0
  -25.9420  -35.0050   23.4270 C   0  0  0  0  0  0  0  0  0  0  0  0
  -26.5740  -34.9240   22.3710 O   0  0  0  0  0  0  0  0  0  0  0  0
  -25.0740  -34.0660   24.9950 H   0  0  0  0  0  0  0  0  0  0  0  0
  -24.1870  -36.7980   23.1880 C   0  0  0  0  0  1  0  0  0  0  0  0
  -25.4700  -36.3860   23.9300 C   0  0  0  0  0  3  0  0  0  0  0  0
  -27.6280  -37.2920   24.6790 C   0  0  0  0  0  1  0  0  0  0  0  0
  -26.4880  -37.4490   23.7800 N   0  0  0  0  0  0  0  0  0  0  0  0
  -26.0780  -38.3650   23.9460 H   0  0  0  0  0  0  0  0  0  0  0  0
  -29.8840  -18.8540   19.9650 C   0  0  0  0  0  0  0  0  0  0  0  0
  -30.4020  -15.7650   19.9690 C   0  0  0  0  0  0  0  0  0  0  0  0
  -30.4780  -13.2250   19.1870 C   0  0  0  0  0  2  0  0  0  0  0  0
  -29.5440  -12.8200   18.0120 C   0  0  0  0  0  2  0  0  0  0  0  0
  -28.1380  -12.4730   18.5230 C   0  0  0  0  0  2  0  0  0  0  0  0
  -27.6620  -13.4820   19.5930 C   0  0  0  0  0  3  0  0  0  0  0  0
  -28.7310  -13.8020   20.6630 C   0  0  0  0  0  2  0  0  0  0  0  0
  -29.8800  -14.4060   19.9520 N   0  0  0  0  0  0  0  0  0  0  0  0
  -31.6260  -15.7140   19.7480 O   0  0  0  0  0  0  0  0  0  0  0  0
  -29.6430  -17.1110   20.0690 N   0  0  0  0  0  4  0  0  0  0  0  0
  -28.6640  -16.9160   20.2110 H   0  0  0  0  0  0  0  0  0  0  0  0
  -25.3390  -13.9980   20.4830 C   0  0  0  0  0  0  0  0  0  0  0  0
  -24.2970  -13.2090   20.8770 C   0  0  0  0  0  0  0  0  0  0  0  0
  -24.7650  -11.8610   20.7920 C   0  0  0  0  0  0  0  0  0  0  0  0
  -26.3690  -13.1340   20.1660 N   0  0  0  0  0  0  0  0  0  0  0  0
  -26.0420  -11.8390   20.4210 N   0  0  0  0  0  0  0  0  0  0  0  0
  -24.0460  -10.5930   20.9810 C   0  0  0  0  0  0  0  0  0  0  0  0
  -24.4790   -9.6300   21.9190 C   0  0  0  0  0  3  0  0  0  0  0  0
  -23.7570   -8.4310   22.0990 C   0  0  0  0  0  3  0  0  0  0  0  0
  -22.5860   -8.1870   21.3430 C   0  0  0  0  0  0  0  0  0  0  0  0
  -22.1720   -9.1390   20.3940 C   0  0  0  0  0  3  0  0  0  0  0  0
  -22.8960  -10.3290   20.2120 C   0  0  0  0  0  3  0  0  0  0  0  0
  -21.8340   -7.0410   21.4330 O   0  0  0  0  0  0  0  0  0  0  0  0
  -21.7310   -6.3370   22.6070 C   0  0  0  0  0  0  0  0  0  0  0  0
  -21.1840   -6.9120   23.7740 C   0  0  0  0  0  3  0  0  0  0  0  0
  -21.0340   -6.1330   24.9380 C   0  0  0  0  0  3  0  0  0  0  0  0
  -21.4180   -4.7780   24.9350 C   0  0  0  0  0  0  0  0  0  0  0  0
  -21.9570   -4.2030   23.7710 C   0  0  0  0  0  3  0  0  0  0  0  0
  -22.1100   -4.9790   22.6100 C   0  0  0  0  0  0  0  0  0  0  0  0
  -22.6100   -4.4140   21.4840 F   0  0  0  0  0  0  0  0  0  0  0  0
  -21.2660   -4.0270   26.0500 F   0  0  0  0  0  0  0  0  0  0  0  0
  -22.9120  -13.6780   21.2130 C   0  0  0  0  0  0  0  0  0  0  0  0
  -22.2240  -12.9700   22.1010 N   0  0  0  0  0  0  0  0  0  0  0  0
  -22.4520  -14.7090   20.7240 O   0  0  0  0  0  0  0  0  0  0  0  0
  -22.6110  -12.1360   22.5170 H   0  0  0  0  0  0  0  0  0  0  0  0
  -21.2960  -13.2670   22.3690 H   0  0  0  0  0  0  0  0  0  0  0  0
  -25.4900  -15.3740   20.3320 N   0  0  0  0  0  0  0  0  0  0  0  0
  -24.7280  -16.0210   20.5000 H   0  0  0  0  0  0  0  0  0  0  0  0
  -26.3140  -15.8230   19.9550 H   0  0  0  0  0  0  0  0  0  0  0  0
  -30.9410  -19.0200   18.8700 C   0  0  0  0  0  0  0  0  0  0  0  0
  -31.9680  -19.8250   19.1040 N   0  0  0  0  0  0  0  0  0  0  0  0
  -30.8230  -18.4360   17.7940 O   0  0  0  0  0  0  0  0  0  0  0  0
  -32.0480  -20.3160   19.9830 H   0  0  0  0  0  0  0  0  0  0  0  0
  -32.6800  -19.9590   18.3990 H   0  0  0  0  0  0  0  0  0  0  0  0
  2  3  1  0
  2  1  1  0
  4  3  2  0
  4  5  1  0
  6 17  2  0
  7  5  1  0
  7 12  1  0
  8 16  1  0
  8 18  1  0
  9 15  1  0
  9 11  1  0
 10 16  1  0
 11 10  1  0
 12 11  2  0
 13 14  1  0
 13  7  2  0
 14  9  2  0
 15  8  1  0
 16  6  1  0
 18 20  2  0
 19 18  1  0
 21 19  1  0
 22 31  2  0
 22 27  1  0
 23 19  1  0
 23 27  1  0
 24 23  1  0
 25 26  1  0
 25 24  1  0
 26 22  1  0
 27 28  2  0
 28 29  1  0
 30 29  2  0
 31 30  1  0
 32  6  1  0
 32 37  1  0
 32 33  1  0
 33 36  1  1
 33 34  1  0
 35 33  1  0
 37 40  1  0
 38 42  1  0
 38 37  1  0
 39 38  2  0
 42 41  1  0
 44 42  1  0
 44 45  1  0
 44 43  1  0
 46  2  1  0
 46 55  2  0
 47 55  1  0
 48 53  1  0
 49 50  1  0
 49 48  1  0
 51 50  1  0
 51 60  1  0
 51 52  1  0
 53 47  1  0
 53 52  1  0
 54 47  2  0
 55 56  1  0
 57 58  2  0
 58 77  1  0
 59 58  1  0
 59 62  1  0
 60 61  1  0
 60 57  1  0
 61 59  2  0
 62 63  1  0
 63 64  2  0
 65 68  1  0
 65 64  1  0
 66 65  2  0
 67 66  1  0
 67 62  2  0
 68 69  1  0
 69 74  2  0
 69 70  1  0
 70 71  2  0
 72 71  1  0
 72 76  1  0
 73 72  2  0
 74 73  1  0
 75 74  1  0
 77 78  1  0
 78 81  1  0
 78 80  1  0
 79 77  2  0
 82 57  1  0
 82 83  1  0
 84 82  1  0
 85 86  1  0
 85 46  1  0
 86 88  1  0
 87 85  2  0
 89 86  1  0
M  ISO  4   4 101   5 101  47 100  55 100
M  END
>  <TORSDO>  (75) 
F 20

>  <SCORE>  (75) 
-15.350

>  <name>  (75) 
75

>  <ligand_id>  (75) 
75

>  <original_smiles>  (75) 
[H]c1c([H])c([H])c2c(c1[H])C([H])([H])C([H])([H])C([H])([H])C2([H])N([H])C(=O)C1([H])N(C(=O)C([H])(N([H])C(=O)C([H])(N([H])C([H])([H])[H])C([H])([H])[H])C(C([H])([H])[H])(C([H])([H])[H])C([H])([H])[H])C([H])([H])c2c([H])c(OC([H])([H])C([H])([H])C([H])(C([H])([H])[H])C([H])(C(=O)N([H])[H])N([H])C(=O)N3C([H])([H])C([H])([H])C([H])([H])C([H])(n4nc(-c5c([H])c([H])c(Oc6c([H])c([H])c(F)c([H])c6F)c([H])c5[H])c(C(=O)N([H])[H])c4N([H])[H])C3([H])[H])c([H])c([H])c2C1([H])[H]

>  <smiles>  (75) 
[H]c1c([H])c([H])c2c(c1[H])C([H])([H])C([H])([H])C([H])([H])C2([H])N([H])C(=O)C1([H])N(C(=O)C([H])(N([H])C(=O)C([H])(N([H])C([H])([H])[H])C([H])([H])[H])C(C([H])([H])[H])(C([H])([H])[H])C([H])([H])[H])C([H])([H])c2c([H])c(OC([H])([H])C([H])([H])C([H])(C([H])([H])[H])C([H])(C(=O)N([H])[H])N([H])C(=O)N3C([H])([H])C([H])([H])C([H])([H])C([H])(n4nc(-c5c([H])c([H])c(Oc6c([H])c([H])c(F)c([H])c6F)c([H])c5[H])c(C(=O)N([H])[H])c4N([H])[H])C3([H])[H])c([H])c([H])c2C1([H])[H]

$$$$
76:0:0
     RDKit          3D

 97104  0  0  1  0  0  0  0  0999 V2000
  -29.0730  -18.8340   18.3780 C   0  0  0  0  0  1  0  0  0  0  0  0
  -30.0550  -19.5370   19.3220 C   0  0  0  0  0  3  0  0  0  0  0  0
  -29.3820  -20.8570   19.9240 N   0  0  0  0  0  4  0  0  0  0  0  0
  -28.3880  -20.7000   19.8980 H   0  0  0  0  0  0  0  0  0  0  0  0
  -29.6190  -20.8600   20.9020 H   0  0  0  0  0  0  0  0  0  0  0  0
  -29.6210  -22.3630   19.4610 C   0  0  0  0  0  2  0  0  0  0  0  0
  -28.4380  -23.5830   19.3410 C   0  0  0  0  0  2  0  0  0  0  0  0
  -28.3830  -25.0960   20.1060 C   0  0  0  0  0  2  0  0  0  0  0  0
  -28.3430  -26.5610   19.5620 O   0  0  0  0  0  0  0  0  0  0  0  0
  -24.7190  -31.8580   23.2550 C   0  0  0  0  0  0  0  0  0  0  0  0
  -27.2570  -27.4910   19.7200 C   0  0  0  0  0  0  0  0  0  0  0  0
  -23.5000  -30.6570   21.4810 C   0  0  0  0  0  3  0  0  0  0  0  0
  -24.9310  -29.2310   19.8890 C   0  0  0  0  0  0  0  0  0  0  0  0
  -26.0530  -30.9320   21.3240 C   0  0  0  0  0  2  0  0  0  0  0  0
  -26.1160  -29.6120   20.5300 C   0  0  0  0  0  0  0  0  0  0  0  0
  -27.2820  -28.7650   20.4210 C   0  0  0  0  0  3  0  0  0  0  0  0
  -26.0400  -27.1990   19.0710 C   0  0  0  0  0  3  0  0  0  0  0  0
  -24.9050  -28.0390   19.1450 C   0  0  0  0  0  3  0  0  0  0  0  0
  -23.7090  -30.1260   20.0350 C   0  0  0  0  0  2  0  0  0  0  0  0
  -24.7780  -31.1650   22.0760 N   0  0  0  0  0  0  0  0  0  0  0  0
  -23.6390  -32.0850   23.8210 O   0  0  0  0  0  0  0  0  0  0  0  0
  -22.8250  -29.5540   22.3340 C   0  0  0  0  0  0  0  0  0  0  0  0
  -21.4880  -29.4390   22.2400 N   0  0  0  0  0  0  0  0  0  0  0  0
  -23.5050  -28.8090   23.0440 O   0  0  0  0  0  0  0  0  0  0  0  0
  -20.9970  -30.0920   21.6440 H   0  0  0  0  0  0  0  0  0  0  0  0
  -18.0880  -28.2900   22.7310 C   0  0  0  0  0  0  0  0  0  0  0  0
  -20.6640  -28.4340   22.9180 C   0  0  0  0  0  3  0  0  0  0  0  0
  -20.6890  -27.0890   22.1540 C   0  0  0  0  0  2  0  0  0  0  0  0
  -19.5360  -26.9400   21.1560 C   0  0  0  0  0  2  0  0  0  0  0  0
  -18.1870  -27.0400   21.8740 C   0  0  0  0  0  2  0  0  0  0  0  0
  -19.2500  -28.9530   23.2070 C   0  0  0  0  0  0  0  0  0  0  0  0
  -19.1000  -30.1290   23.9750 C   0  0  0  0  0  3  0  0  0  0  0  0
  -17.8220  -30.6410   24.2660 C   0  0  0  0  0  3  0  0  0  0  0  0
  -16.6750  -29.9740   23.8020 C   0  0  0  0  0  3  0  0  0  0  0  0
  -16.8100  -28.7990   23.0410 C   0  0  0  0  0  3  0  0  0  0  0  0
  -26.0050  -32.4150   23.9390 C   0  0  0  0  0  3  0  0  0  0  0  0
  -25.6950  -33.7600   24.4470 N   0  0  0  0  0  0  0  0  0  0  0  0
  -26.0490  -34.9040   23.8470 C   0  0  0  0  0  0  0  0  0  0  0  0
  -26.7370  -34.9340   22.8230 O   0  0  0  0  0  0  0  0  0  0  0  0
  -25.0880  -33.8100   25.2530 H   0  0  0  0  0  0  0  0  0  0  0  0
  -24.3390  -36.7440   23.7150 C   0  0  0  0  0  1  0  0  0  0  0  0
  -25.5670  -36.2240   24.4790 C   0  0  0  0  0  3  0  0  0  0  0  0
  -27.6960  -36.9740   25.4480 C   0  0  0  0  0  1  0  0  0  0  0  0
  -26.6080  -37.2750   24.5210 N   0  0  0  0  0  0  0  0  0  0  0  0
  -26.2060  -38.1710   24.7850 H   0  0  0  0  0  0  0  0  0  0  0  0
  -26.5310  -31.4960   25.1100 C   0  0  1  0  0  0  0  0  0  0  0  0
  -25.4510  -31.1460   26.1600 C   0  0  0  0  0  1  0  0  0  0  0  0
  -27.0960  -30.1700   24.5540 C   0  0  0  0  0  1  0  0  0  0  0  0
  -27.6990  -32.1990   25.8410 C   0  0  0  0  0  1  0  0  0  0  0  0
  -30.8850  -18.3880   20.2670 C   0  0  0  0  0  3  0  0  0  0  0  0
  -31.6640  -15.6820   20.4260 C   0  0  0  0  0  0  0  0  0  0  0  0
  -31.6680  -13.1680   20.0380 C   0  0  0  0  0  2  0  0  0  0  0  0
  -30.8800  -12.7970   18.7590 C   0  0  0  0  0  2  0  0  0  0  0  0
  -29.3740  -12.6630   19.0590 C   0  0  0  0  0  2  0  0  0  0  0  0
  -28.8320  -13.8350   19.9180 C   0  0  0  0  0  3  0  0  0  0  0  0
  -29.7490  -14.1350   21.1220 C   0  0  0  0  0  2  0  0  0  0  0  0
  -31.0810  -14.4260   20.5750 N   0  0  0  0  0  0  0  0  0  0  0  0
  -32.8980  -15.7370   20.3770 O   0  0  0  0  0  0  0  0  0  0  0  0
  -30.8450  -16.8050   20.1240 N   0  0  0  0  0  0  0  0  0  0  0  0
  -29.9010  -16.4910   19.9660 H   0  0  0  0  0  0  0  0  0  0  0  0
  -26.4490  -14.5960   20.4680 C   0  0  0  0  0  0  0  0  0  0  0  0
  -25.3050  -13.9040   20.7550 C   0  0  0  0  0  0  0  0  0  0  0  0
  -25.6720  -12.5230   20.7680 C   0  0  0  0  0  0  0  0  0  0  0  0
  -27.4420  -13.6420   20.3140 N   0  0  0  0  0  0  0  0  0  0  0  0
  -26.9770  -12.3900   20.5600 N   0  0  0  0  0  0  0  0  0  0  0  0
  -24.8420  -11.3180   20.9020 C   0  0  0  0  0  0  0  0  0  0  0  0
  -25.1140  -10.3390   21.8830 C   0  0  0  0  0  3  0  0  0  0  0  0
  -24.2870   -9.2000   22.0050 C   0  0  0  0  0  3  0  0  0  0  0  0
  -23.1750   -9.0350   21.1450 C   0  0  0  0  0  0  0  0  0  0  0  0
  -22.9250  -10.0000   20.1550 C   0  0  0  0  0  3  0  0  0  0  0  0
  -23.7510  -11.1290   20.0300 C   0  0  0  0  0  3  0  0  0  0  0  0
  -22.3350   -7.9460   21.1730 O   0  0  0  0  0  0  0  0  0  0  0  0
  -22.0590   -7.2820   22.3400 C   0  0  0  0  0  0  0  0  0  0  0  0
  -21.5010   -7.9390   23.4580 C   0  0  0  0  0  3  0  0  0  0  0  0
  -21.1670   -7.2040   24.6130 C   0  0  0  0  0  3  0  0  0  0  0  0
  -21.3790   -5.8120   24.6500 C   0  0  0  0  0  0  0  0  0  0  0  0
  -21.9300   -5.1560   23.5340 C   0  0  0  0  0  3  0  0  0  0  0  0
  -22.2660   -5.8880   22.3830 C   0  0  0  0  0  0  0  0  0  0  0  0
  -22.7740   -5.2480   21.3040 F   0  0  0  0  0  0  0  0  0  0  0  0
  -21.0520   -5.1040   25.7560 F   0  0  0  0  0  0  0  0  0  0  0  0
  -23.9290  -14.4850   20.9030 C   0  0  0  0  0  0  0  0  0  0  0  0
  -23.0980  -13.8860   21.7490 N   0  0  0  0  0  0  0  0  0  0  0  0
  -23.5990  -15.5080   20.3040 O   0  0  0  0  0  0  0  0  0  0  0  0
  -23.3740  -13.0580   22.2570 H   0  0  0  0  0  0  0  0  0  0  0  0
  -22.1710  -14.2590   21.8900 H   0  0  0  0  0  0  0  0  0  0  0  0
  -26.7230  -15.9510   20.2960 N   0  0  0  0  0  0  0  0  0  0  0  0
  -25.9770  -16.6360   20.2980 H   0  0  0  0  0  0  0  0  0  0  0  0
  -27.5850  -16.3120   19.9130 H   0  0  0  0  0  0  0  0  0  0  0  0
  -31.3170  -19.5660   22.4760 C   0  0  0  0  0  3  0  0  0  0  0  0
  -30.6270  -18.6750   21.7390 C   0  0  0  0  0  3  0  0  0  0  0  0
  -31.0950  -19.8250   23.8490 C   0  0  0  0  0  0  0  0  0  0  0  0
  -30.5710  -18.8960   24.6530 N   0  0  0  0  0  0  0  0  0  0  0  0
  -31.4460  -21.0100   24.3570 N   0  0  0  0  0  4  0  0  0  0  0  0
  -30.3730  -17.9730   24.3000 H   0  0  0  0  0  0  0  0  0  0  0  0
  -30.3890  -19.0500   25.6330 H   0  0  0  0  0  0  0  0  0  0  0  0
  -31.8480  -21.7160   23.7600 H   0  0  0  0  0  0  0  0  0  0  0  0
  -31.3250  -21.2480   25.3290 H   0  0  0  0  0  0  0  0  0  0  0  0
  2  1  1  0
  2  3  1  0
  2 50  1  0
  3  5  1  0
  4  3  1  0
  6  3  1  0
  7  6  1  0
  7  8  1  0
  9 11  1  0
  9  8  1  0
 10 21  2  0
 11 16  1  0
 12 20  1  0
 12 22  1  0
 13 19  1  0
 13 15  1  0
 14 20  1  0
 15 14  1  0
 16 15  2  0
 17 18  1  0
 17 11  2  0
 18 13  2  0
 19 12  1  0
 20 10  1  0
 22 24  2  0
 23 22  1  0
 25 23  1  0
 26 35  2  0
 26 31  1  0
 27 23  1  0
 27 31  1  0
 28 27  1  0
 29 30  1  0
 29 28  1  0
 30 26  1  0
 31 32  2  0
 32 33  1  0
 34 33  2  0
 35 34  1  0
 36 10  1  0
 36 37  1  0
 36 46  1  0
 37 40  1  0
 38 37  1  0
 38 42  1  0
 39 38  2  0
 42 41  1  0
 42 44  1  0
 44 45  1  0
 44 43  1  0
 46 49  1  1
 46 47  1  0
 48 46  1  0
 50 90  1  0
 51 57  1  0
 52 57  1  0
 53 54  1  0
 53 52  1  0
 55 54  1  0
 55 64  1  0
 55 56  1  0
 57 56  1  0
 58 51  2  0
 59 50  1  0
 59 51  1  0
 60 59  1  0
 61 62  2  0
 62 63  1  0
 62 81  1  0
 63 66  1  0
 64 61  1  0
 64 65  1  0
 65 63  2  0
 66 67  1  0
 67 68  2  0
 69 72  1  0
 69 68  1  0
 70 69  2  0
 71 70  1  0
 71 66  2  0
 72 73  1  0
 73 78  2  0
 73 74  1  0
 74 75  2  0
 75 76  1  0
 76 80  1  0
 77 76  2  0
 78 77  1  0
 79 78  1  0
 81 82  1  0
 82 85  1  0
 82 84  1  0
 83 81  2  0
 86 87  1  0
 86 61  1  0
 88 86  1  0
 89 91  1  0
 90 89  2  0
 91 93  2  0
 91 92  1  0
 92 95  1  0
 93 97  1  0
 94 92  1  0
 96 93  1  0
M  ISO  4   8 101   9 101  51 100  59 100
M  END
>  <TORSDO>  (76) 
F 23

>  <SCORE>  (76) 
-11.757

>  <name>  (76) 
76

>  <ligand_id>  (76) 
76

>  <original_smiles>  (76) 
[H]C(=C([H])C([H])(N([H])C(=O)N1C([H])([H])C([H])([H])C([H])([H])C([H])(n2nc(-c3c([H])c([H])c(Oc4c([H])c([H])c(F)c([H])c4F)c([H])c3[H])c(C(=O)N([H])[H])c2N([H])[H])C1([H])[H])C([H])(C([H])([H])[H])[N+]([H])([H])C([H])([H])C([H])([H])C([H])([H])Oc1c([H])c([H])c2c(c1[H])C([H])([H])N(C(=O)C([H])(N([H])C(=O)C([H])(N([H])C([H])([H])[H])C([H])([H])[H])C(C([H])([H])[H])(C([H])([H])[H])C([H])([H])[H])C([H])(C(=O)N([H])C1([H])c3c([H])c([H])c([H])c([H])c3C([H])([H])C([H])([H])C1([H])[H])C2([H])[H])C(N([H])[H])=[N+]([H])[H]

>  <smiles>  (76) 
[H]C(=C([H])C([H])(N([H])C(=O)N1C([H])([H])C([H])([H])C([H])([H])C([H])(n2nc(-c3c([H])c([H])c(Oc4c([H])c([H])c(F)c([H])c4F)c([H])c3[H])c(C(=O)N([H])[H])c2N([H])[H])C1([H])[H])C([H])(C([H])([H])[H])[N+]([H])([H])C([H])([H])C([H])([H])C([H])([H])Oc1c([H])c([H])c2c(c1[H])C([H])([H])N(C(=O)C([H])(N([H])C(=O)C([H])(N([H])C([H])([H])[H])C([H])([H])[H])C(C([H])([H])[H])(C([H])([H])[H])C([H])([H])[H])C([H])(C(=O)N([H])C1([H])c3c([H])c([H])c([H])c([H])c3C([H])([H])C([H])([H])C1([H])[H])C2([H])[H])C(N([H])[H])=[N+]([H])[H]

$$$$
77:0:0
     RDKit          3D

 94101  0  0  1  0  0  0  0  0999 V2000
  -27.8620  -20.2120   21.3170 C   0  0  0  0  0  2  0  0  0  0  0  0
  -28.9980  -20.4090   20.2980 C   0  0  0  0  0  2  0  0  0  0  0  0
  -30.6160  -18.5390   20.6950 C   0  0  0  0  0  0  0  0  0  0  0  0
  -29.6810  -19.1620   19.9670 N   0  0  0  0  0  0  0  0  0  0  0  0
  -30.9300  -18.8800   21.8390 O   0  0  0  0  0  0  0  0  0  0  0  0
  -29.4930  -18.7550   19.0560 H   0  0  0  0  0  0  0  0  0  0  0  0
  -31.3200  -17.3650   20.0060 C   0  0  0  0  0  3  0  0  0  0  0  0
  -31.5420  -14.9670   20.6270 C   0  0  0  0  0  0  0  0  0  0  0  0
  -31.2020  -12.7350   19.6910 C   0  0  0  0  0  2  0  0  0  0  0  0
  -30.3630  -12.9330   18.4150 C   0  0  0  0  0  2  0  0  0  0  0  0
  -28.8710  -12.8220   18.7680 C   0  0  0  0  0  2  0  0  0  0  0  0
  -28.4660  -13.7640   19.9340 C   0  0  0  0  0  3  0  0  0  0  0  0
  -29.4500  -13.6430   21.1250 C   0  0  0  0  0  2  0  0  0  0  0  0
  -30.8200  -13.8170   20.6130 N   0  0  0  0  0  0  0  0  0  0  0  0
  -32.7510  -15.0060   20.3940 O   0  0  0  0  0  0  0  0  0  0  0  0
  -30.8080  -16.0870   20.5240 N   0  0  0  0  0  0  0  0  0  0  0  0
  -29.8320  -16.0460   20.7680 H   0  0  0  0  0  0  0  0  0  0  0  0
  -26.0750  -14.4790   20.5500 C   0  0  0  0  0  0  0  0  0  0  0  0
  -24.9450  -13.7570   20.8210 C   0  0  0  0  0  0  0  0  0  0  0  0
  -25.3270  -12.3840   20.7460 C   0  0  0  0  0  0  0  0  0  0  0  0
  -27.0790  -13.5490   20.3350 N   0  0  0  0  0  0  0  0  0  0  0  0
  -26.6290  -12.2800   20.5090 N   0  0  0  0  0  0  0  0  0  0  0  0
  -24.5190  -11.1630   20.8360 C   0  0  0  0  0  0  0  0  0  0  0  0
  -24.8810  -10.1020   21.6940 C   0  0  0  0  0  3  0  0  0  0  0  0
  -24.0750   -8.9460   21.7780 C   0  0  0  0  0  3  0  0  0  0  0  0
  -22.8950   -8.8470   21.0040 C   0  0  0  0  0  0  0  0  0  0  0  0
  -22.5530   -9.8970   20.1350 C   0  0  0  0  0  3  0  0  0  0  0  0
  -23.3580  -11.0450   20.0470 C   0  0  0  0  0  3  0  0  0  0  0  0
  -22.0650   -7.7510   21.0030 O   0  0  0  0  0  0  0  0  0  0  0  0
  -21.9900   -6.9030   22.0790 C   0  0  0  0  0  0  0  0  0  0  0  0
  -21.6430   -7.3590   23.3690 C   0  0  0  0  0  3  0  0  0  0  0  0
  -21.5110   -6.4420   24.4300 C   0  0  0  0  0  3  0  0  0  0  0  0
  -21.7200   -5.0680   24.2030 C   0  0  0  0  0  0  0  0  0  0  0  0
  -22.0590   -4.6110   22.9170 C   0  0  0  0  0  3  0  0  0  0  0  0
  -22.1930   -5.5240   21.8590 C   0  0  0  0  0  0  0  0  0  0  0  0
  -22.4980   -5.0750   20.6170 F   0  0  0  0  0  0  0  0  0  0  0  0
  -21.5920   -4.1840   25.2190 F   0  0  0  0  0  0  0  0  0  0  0  0
  -23.5620  -14.3020   21.0370 C   0  0  0  0  0  0  0  0  0  0  0  0
  -22.7540  -13.6280   21.8470 N   0  0  0  0  0  0  0  0  0  0  0  0
  -23.2070  -15.3660   20.5300 O   0  0  0  0  0  0  0  0  0  0  0  0
  -23.0480  -12.7680   22.2890 H   0  0  0  0  0  0  0  0  0  0  0  0
  -21.8260  -13.9860   22.0380 H   0  0  0  0  0  0  0  0  0  0  0  0
  -26.3290  -15.8460   20.4570 N   0  0  0  0  0  0  0  0  0  0  0  0
  -25.6050  -16.5380   20.6220 H   0  0  0  0  0  0  0  0  0  0  0  0
  -27.2320  -16.2540   20.2730 H   0  0  0  0  0  0  0  0  0  0  0  0
  -30.5060  -16.7750   17.6420 C   0  0  0  0  0  2  0  0  0  0  0  0
  -31.3390  -17.4230   18.4760 C   0  0  0  0  0  3  0  0  0  0  0  0
  -27.5070  -21.4800   21.8560 O   0  0  0  0  0  0  0  0  0  0  0  0
  -26.7020  -22.2770   20.9950 C   0  0  0  0  0  2  0  0  0  0  0  0
  -26.8780  -23.7460   21.3880 C   0  0  0  0  0  2  0  0  0  0  0  0
  -28.0730  -24.2230   20.7840 O   0  0  0  0  0  0  0  0  0  0  0  0
  -28.3510  -25.5810   21.0860 C   0  0  0  0  0  2  0  0  0  0  0  0
  -29.1910  -26.1880   19.9360 C   0  0  0  0  0  2  0  0  0  0  0  0
  -29.1450  -27.6170   19.8980 O   0  0  0  0  0  0  0  0  0  0  0  0
  -24.7540  -31.9480   23.3730 C   0  0  0  0  0  0  0  0  0  0  0  0
  -27.8990  -28.2040   19.8910 C   0  0  0  0  0  0  0  0  0  0  0  0
  -23.7250  -30.6040   21.5720 C   0  0  0  0  0  3  0  0  0  0  0  0
  -25.3530  -29.4090   20.0160 C   0  0  0  0  0  0  0  0  0  0  0  0
  -26.1930  -31.2700   21.4580 C   0  0  0  0  0  2  0  0  0  0  0  0
  -26.4360  -29.9960   20.6780 C   0  0  0  0  0  0  0  0  0  0  0  0
  -27.7140  -29.3970   20.6160 C   0  0  0  0  0  3  0  0  0  0  0  0
  -26.8000  -27.6360   19.2040 C   0  0  0  0  0  3  0  0  0  0  0  0
  -25.5280  -28.2270   19.2780 C   0  0  0  0  0  3  0  0  0  0  0  0
  -24.0170  -30.1030   20.1310 C   0  0  0  0  0  2  0  0  0  0  0  0
  -24.9070  -31.2800   22.1950 N   0  0  0  0  0  0  0  0  0  0  0  0
  -23.6450  -32.0390   23.9160 O   0  0  0  0  0  0  0  0  0  0  0  0
  -23.1860  -29.4180   22.4050 C   0  0  0  0  0  0  0  0  0  0  0  0
  -21.8930  -29.1060   22.2290 N   0  0  0  0  0  0  0  0  0  0  0  0
  -23.9270  -28.7860   23.1630 O   0  0  0  0  0  0  0  0  0  0  0  0
  -21.3540  -29.6770   21.5940 H   0  0  0  0  0  0  0  0  0  0  0  0
  -18.6650  -27.5010   22.5110 C   0  0  0  0  0  0  0  0  0  0  0  0
  -21.1740  -28.0070   22.8750 C   0  0  0  0  0  3  0  0  0  0  0  0
  -21.4470  -26.6650   22.1570 C   0  0  0  0  0  2  0  0  0  0  0  0
  -20.4020  -26.3320   21.0870 C   0  0  0  0  0  2  0  0  0  0  0  0
  -19.0020  -26.2560   21.7060 C   0  0  0  0  0  2  0  0  0  0  0  0
  -19.6860  -28.3300   23.0470 C   0  0  0  0  0  0  0  0  0  0  0  0
  -19.3220  -29.4910   23.7630 C   0  0  0  0  0  3  0  0  0  0  0  0
  -17.9690  -29.8300   23.9440 C   0  0  0  0  0  3  0  0  0  0  0  0
  -16.9620  -28.9970   23.4290 C   0  0  0  0  0  3  0  0  0  0  0  0
  -17.3100  -27.8330   22.7190 C   0  0  0  0  0  3  0  0  0  0  0  0
  -25.9550  -32.6460   24.0820 C   0  0  0  0  0  3  0  0  0  0  0  0
  -26.4450  -31.8810   25.3720 C   0  0  1  0  0  0  0  0  0  0  0  0
  -25.3080  -31.5520   26.3690 C   0  0  0  0  0  1  0  0  0  0  0  0
  -27.1370  -30.5500   24.9890 C   0  0  0  0  0  1  0  0  0  0  0  0
  -27.5040  -32.7280   26.1150 C   0  0  0  0  0  1  0  0  0  0  0  0
  -25.5390  -34.0130   24.4160 N   0  0  0  0  0  0  0  0  0  0  0  0
  -25.8480  -35.1000   23.6970 C   0  0  0  0  0  0  0  0  0  0  0  0
  -26.5850  -35.0600   22.7070 O   0  0  0  0  0  0  0  0  0  0  0  0
  -24.8880  -34.1100   25.1810 H   0  0  0  0  0  0  0  0  0  0  0  0
  -24.0280  -36.7830   23.2600 C   0  0  0  0  0  1  0  0  0  0  0  0
  -25.2410  -36.4450   24.1410 C   0  0  0  0  0  3  0  0  0  0  0  0
  -27.2610  -37.4490   25.1110 C   0  0  0  0  0  1  0  0  0  0  0  0
  -26.2070  -37.5660   24.1070 N   0  0  0  0  0  0  0  0  0  0  0  0
  -25.7330  -38.4540   24.2460 H   0  0  0  0  0  0  0  0  0  0  0  0
  1 48  1  0
  2  1  1  0
  3  5  2  0
  4  2  1  0
  4  3  1  0
  6  4  1  0
  7 47  1  0
  7 16  1  0
  7  3  1  0
  9 14  1  0
 10 11  1  0
 10  9  1  0
 12 11  1  0
 12 21  1  0
 12 13  1  0
 14  8  1  0
 14 13  1  0
 15  8  2  0
 16  8  1  0
 16 17  1  0
 18 19  2  0
 19 38  1  0
 20 19  1  0
 20 23  1  0
 21 22  1  0
 21 18  1  0
 22 20  2  0
 23 24  1  0
 24 25  2  0
 26 25  1  0
 27 26  2  0
 28 27  1  0
 28 23  2  0
 29 26  1  0
 29 30  1  0
 30 31  1  0
 31 32  2  0
 33 32  1  0
 33 37  1  0
 34 33  2  0
 35 30  2  0
 35 34  1  0
 36 35  1  0
 38 39  1  0
 39 42  1  0
 39 41  1  0
 40 38  2  0
 43 18  1  0
 43 44  1  0
 45 43  1  0
 46 47  2  0
 49 50  1  0
 49 48  1  0
 51 52  1  0
 51 50  1  0
 53 52  1  0
 54 53  1  0
 55 66  2  0
 56 54  1  0
 56 61  1  0
 57 65  1  0
 57 67  1  0
 58 64  1  0
 58 60  1  0
 59 65  1  0
 60 59  1  0
 61 60  2  0
 62 63  1  0
 62 56  2  0
 63 58  2  0
 64 57  1  0
 65 55  1  0
 67 69  2  0
 68 67  1  0
 70 68  1  0
 71 80  2  0
 71 76  1  0
 72 68  1  0
 72 76  1  0
 73 72  1  0
 74 75  1  0
 74 73  1  0
 75 71  1  0
 76 77  2  0
 77 78  1  0
 79 78  2  0
 80 79  1  0
 81 55  1  0
 81 86  1  0
 81 82  1  0
 82 85  1  1
 82 83  1  0
 84 82  1  0
 86 89  1  0
 87 91  1  0
 87 86  1  0
 88 87  2  0
 91 90  1  0
 93 91  1  0
 93 94  1  0
 93 92  1  0
M  ISO  4   8 100  16 100  53 101  54 101
M  END
>  <TORSDO>  (77) 
F 26

>  <SCORE>  (77) 
-7.466

>  <name>  (77) 
77

>  <ligand_id>  (77) 
77

>  <original_smiles>  (77) 
[H]C([H])=C([H])C([H])(C(=O)N([H])C([H])([H])C([H])([H])OC([H])([H])C([H])([H])OC([H])([H])C([H])([H])Oc1c([H])c([H])c2c(c1[H])C([H])([H])N(C(=O)C([H])(N([H])C(=O)C([H])(N([H])C([H])([H])[H])C([H])([H])[H])C(C([H])([H])[H])(C([H])([H])[H])C([H])([H])[H])C([H])(C(=O)N([H])C1([H])c3c([H])c([H])c([H])c([H])c3C([H])([H])C([H])([H])C1([H])[H])C2([H])[H])N([H])C(=O)N1C([H])([H])C([H])([H])C([H])([H])C([H])(n2nc(-c3c([H])c([H])c(Oc4c([H])c([H])c(F)c([H])c4F)c([H])c3[H])c(C(=O)N([H])[H])c2N([H])[H])C1([H])[H]

>  <smiles>  (77) 
[H]C([H])=C([H])C([H])(C(=O)N([H])C([H])([H])C([H])([H])OC([H])([H])C([H])([H])OC([H])([H])C([H])([H])Oc1c([H])c([H])c2c(c1[H])C([H])([H])N(C(=O)C([H])(N([H])C(=O)C([H])(N([H])C([H])([H])[H])C([H])([H])[H])C(C([H])([H])[H])(C([H])([H])[H])C([H])([H])[H])C([H])(C(=O)N([H])C1([H])c3c([H])c([H])c([H])c([H])c3C([H])([H])C([H])([H])C1([H])[H])C2([H])[H])N([H])C(=O)N1C([H])([H])C([H])([H])C([H])([H])C([H])(n2nc(-c3c([H])c([H])c(Oc4c([H])c([H])c(F)c([H])c4F)c([H])c3[H])c(C(=O)N([H])[H])c2N([H])[H])C1([H])[H]

$$$$
78:0:0
     RDKit          3D

100107  0  0  1  0  0  0  0  0999 V2000
  -29.0030  -22.2160   21.0720 C   0  0  0  0  0  0  0  0  0  0  0  0
  -29.9140  -21.8300   20.1740 N   0  0  0  0  0  0  0  0  0  0  0  0
  -27.8040  -21.9440   20.9690 O   0  0  0  0  0  0  0  0  0  0  0  0
  -30.8860  -22.0350   20.3670 H   0  0  0  0  0  0  0  0  0  0  0  0
  -30.3490  -21.5610   17.7930 C   0  0  0  0  0  1  0  0  0  0  0  0
  -29.6660  -20.9540   19.0320 C   0  0  0  0  0  3  0  0  0  0  0  0
  -30.3050  -19.5920   19.3360 C   0  0  0  0  0  0  0  0  0  0  0  0
  -29.5870  -18.5040   19.0230 N   0  0  0  0  0  0  0  0  0  0  0  0
  -31.4300  -19.5360   19.8420 O   0  0  0  0  0  0  0  0  0  0  0  0
  -28.6610  -18.6540   18.6510 H   0  0  0  0  0  0  0  0  0  0  0  0
  -31.2610  -16.8620   18.3220 C   0  0  0  0  0  1  0  0  0  0  0  0
  -30.0020  -17.1070   19.1850 C   0  0  0  0  0  3  0  0  0  0  0  0
  -30.8190  -14.4170   20.4680 C   0  0  0  0  0  0  0  0  0  0  0  0
  -30.4960  -12.2870   19.3180 C   0  0  0  0  0  2  0  0  0  0  0  0
  -29.5810  -12.5630   18.1070 C   0  0  0  0  0  2  0  0  0  0  0  0
  -28.0960  -12.4510   18.5040 C   0  0  0  0  0  2  0  0  0  0  0  0
  -27.7570  -13.2630   19.7830 C   0  0  0  0  0  3  0  0  0  0  0  0
  -28.7900  -12.9910   20.9010 C   0  0  0  0  0  2  0  0  0  0  0  0
  -30.1390  -13.2490   20.3690 N   0  0  0  0  0  0  0  0  0  0  0  0
  -31.9370  -14.5860   19.9800 O   0  0  0  0  0  0  0  0  0  0  0  0
  -30.0040  -16.6800   20.6940 C   0  0  0  0  0  0  0  0  0  0  0  0
  -30.1490  -15.4010   21.0790 N   0  0  0  0  0  0  0  0  0  0  0  0
  -29.6410  -17.4930   21.5480 O   0  0  0  0  0  0  0  0  0  0  0  0
  -29.6380  -15.1330   21.9030 H   0  0  0  0  0  0  0  0  0  0  0  0
  -25.3450  -13.8900   20.4370 C   0  0  0  0  0  0  0  0  0  0  0  0
  -24.2660  -13.1250   20.7950 C   0  0  0  0  0  0  0  0  0  0  0  0
  -24.7210  -11.7720   20.7860 C   0  0  0  0  0  0  0  0  0  0  0  0
  -26.3910  -13.0020   20.2360 N   0  0  0  0  0  0  0  0  0  0  0  0
  -26.0160  -11.7220   20.5020 N   0  0  0  0  0  0  0  0  0  0  0  0
  -23.9870  -10.5140   20.9770 C   0  0  0  0  0  0  0  0  0  0  0  0
  -24.4000   -9.5540   21.9260 C   0  0  0  0  0  3  0  0  0  0  0  0
  -23.6660   -8.3620   22.1030 C   0  0  0  0  0  3  0  0  0  0  0  0
  -22.5050   -8.1230   21.3300 C   0  0  0  0  0  0  0  0  0  0  0  0
  -22.1120   -9.0700   20.3690 C   0  0  0  0  0  3  0  0  0  0  0  0
  -22.8480  -10.2540   20.1900 C   0  0  0  0  0  3  0  0  0  0  0  0
  -21.7410   -6.9830   21.4180 O   0  0  0  0  0  0  0  0  0  0  0  0
  -21.6690   -6.2510   22.5760 C   0  0  0  0  0  0  0  0  0  0  0  0
  -21.2180   -6.8170   23.7900 C   0  0  0  0  0  3  0  0  0  0  0  0
  -21.0890   -6.0130   24.9370 C   0  0  0  0  0  3  0  0  0  0  0  0
  -21.4050   -4.6420   24.8770 C   0  0  0  0  0  0  0  0  0  0  0  0
  -21.8500   -4.0740   23.6700 C   0  0  0  0  0  3  0  0  0  0  0  0
  -21.9780   -4.8770   22.5220 C   0  0  0  0  0  0  0  0  0  0  0  0
  -22.3850   -4.3210   21.3570 F   0  0  0  0  0  0  0  0  0  0  0  0
  -21.2750   -3.8660   25.9790 F   0  0  0  0  0  0  0  0  0  0  0  0
  -22.8660  -13.6120   21.0410 C   0  0  0  0  0  0  0  0  0  0  0  0
  -22.1200  -12.9280   21.9020 N   0  0  0  0  0  0  0  0  0  0  0  0
  -22.4420  -14.6340   20.5030 O   0  0  0  0  0  0  0  0  0  0  0  0
  -22.4750  -12.1010   22.3610 H   0  0  0  0  0  0  0  0  0  0  0  0
  -21.1800  -13.2350   22.1060 H   0  0  0  0  0  0  0  0  0  0  0  0
  -25.5160  -15.2580   20.2450 N   0  0  0  0  0  0  0  0  0  0  0  0
  -24.7500  -15.9190   20.3220 H   0  0  0  0  0  0  0  0  0  0  0  0
  -26.3740  -15.6910   19.9290 H   0  0  0  0  0  0  0  0  0  0  0  0
  -29.8740  -22.1560   23.4250 C   0  0  0  0  0  1  0  0  0  0  0  0
  -29.4850  -23.0720   22.2490 C   0  0  0  0  0  3  0  0  0  0  0  0
  -28.4020  -24.0040   22.6350 N   0  0  0  0  0  4  0  0  0  0  0  0
  -27.5490  -23.5710   22.3010 H   0  0  0  0  0  0  0  0  0  0  0  0
  -28.3570  -24.0370   23.6410 H   0  0  0  0  0  0  0  0  0  0  0  0
  -28.5120  -25.3960   22.1160 C   0  0  0  0  0  2  0  0  0  0  0  0
  -28.4630  -25.4880   20.5730 C   0  0  0  0  0  2  0  0  0  0  0  0
  -28.5000  -26.8440   20.1290 O   0  0  0  0  0  0  0  0  0  0  0  0
  -24.5850  -31.8900   23.1850 C   0  0  0  0  0  0  0  0  0  0  0  0
  -27.3030  -27.5170   20.1200 C   0  0  0  0  0  0  0  0  0  0  0  0
  -23.4040  -30.4850   21.5240 C   0  0  0  0  0  3  0  0  0  0  0  0
  -24.8850  -28.9720   20.1050 C   0  0  0  0  0  0  0  0  0  0  0  0
  -25.9210  -30.8860   21.3380 C   0  0  0  0  0  2  0  0  0  0  0  0
  -26.0280  -29.5170   20.7040 C   0  0  0  0  0  0  0  0  0  0  0  0
  -27.2410  -28.7990   20.7050 C   0  0  0  0  0  3  0  0  0  0  0  0
  -26.1490  -26.9810   19.5060 C   0  0  0  0  0  3  0  0  0  0  0  0
  -24.9410  -27.7030   19.5020 C   0  0  0  0  0  3  0  0  0  0  0  0
  -23.6290  -29.8120   20.1430 C   0  0  0  0  0  2  0  0  0  0  0  0
  -24.6560  -31.0990   22.0770 N   0  0  0  0  0  0  0  0  0  0  0  0
  -23.4990  -32.1490   23.7180 O   0  0  0  0  0  0  0  0  0  0  0  0
  -22.7580  -29.4520   22.4730 C   0  0  0  0  0  0  0  0  0  0  0  0
  -21.4320  -29.2760   22.3470 N   0  0  0  0  0  0  0  0  0  0  0  0
  -23.4420  -28.8140   23.2780 O   0  0  0  0  0  0  0  0  0  0  0  0
  -20.9410  -29.8450   21.6720 H   0  0  0  0  0  0  0  0  0  0  0  0
  -18.0520  -28.1030   22.8500 C   0  0  0  0  0  0  0  0  0  0  0  0
  -20.6140  -28.3310   23.1060 C   0  0  0  0  0  3  0  0  0  0  0  0
  -20.6980  -26.9100   22.5020 C   0  0  0  0  0  2  0  0  0  0  0  0
  -19.5850  -26.6180   21.4910 C   0  0  0  0  0  2  0  0  0  0  0  0
  -18.2100  -26.7650   22.1480 C   0  0  0  0  0  2  0  0  0  0  0  0
  -19.1830  -28.8460   23.2850 C   0  0  0  0  0  0  0  0  0  0  0  0
  -18.9820  -30.1000   23.9000 C   0  0  0  0  0  3  0  0  0  0  0  0
  -17.6840  -30.6140   24.0830 C   0  0  0  0  0  3  0  0  0  0  0  0
  -16.5690  -29.8680   23.6640 C   0  0  0  0  0  3  0  0  0  0  0  0
  -16.7530  -28.6140   23.0530 C   0  0  0  0  0  3  0  0  0  0  0  0
  -25.8620  -32.5260   23.8200 C   0  0  0  0  0  3  0  0  0  0  0  0
  -25.5410  -33.9180   24.1580 N   0  0  0  0  0  0  0  0  0  0  0  0
  -25.8700  -34.9780   23.4060 C   0  0  0  0  0  0  0  0  0  0  0  0
  -26.5480  -34.8850   22.3790 O   0  0  0  0  0  0  0  0  0  0  0  0
  -24.9400  -34.0650   24.9550 H   0  0  0  0  0  0  0  0  0  0  0  0
  -24.1320  -36.7580   23.0410 C   0  0  0  0  0  1  0  0  0  0  0  0
  -25.3670  -36.3590   23.8650 C   0  0  0  0  0  3  0  0  0  0  0  0
  -27.4850  -37.2540   24.7250 C   0  0  0  0  0  1  0  0  0  0  0  0
  -26.3940  -37.4210   23.7700 N   0  0  0  0  0  0  0  0  0  0  0  0
  -25.9800  -38.3370   23.9150 H   0  0  0  0  0  0  0  0  0  0  0  0
  -26.3790  -31.7470   25.0900 C   0  0  1  0  0  0  0  0  0  0  0  0
  -25.2820  -31.4910   26.1500 C   0  0  0  0  0  1  0  0  0  0  0  0
  -26.9740  -30.3800   24.6810 C   0  0  0  0  0  1  0  0  0  0  0  0
  -27.5210  -32.5440   25.7660 C   0  0  0  0  0  1  0  0  0  0  0  0
  1 54  1  0
  2  4  1  0
  2  1  1  0
  3  1  2  0
  6  5  1  0
  6  7  1  0
  6  2  1  0
  7  9  2  0
  8 12  1  0
  8  7  1  0
 10  8  1  0
 12 11  1  0
 12 21  1  0
 13 22  1  0
 14 19  1  0
 15 16  1  0
 15 14  1  0
 17 16  1  0
 17 28  1  0
 17 18  1  0
 19 13  1  0
 19 18  1  0
 20 13  2  0
 21 22  1  0
 21 23  2  0
 22 24  1  0
 25 26  2  0
 26 45  1  0
 27 26  1  0
 27 30  1  0
 28 25  1  0
 28 29  1  0
 29 27  2  0
 30 31  1  0
 31 32  2  0
 33 36  1  0
 33 32  1  0
 34 33  2  0
 35 34  1  0
 35 30  2  0
 36 37  1  0
 37 38  1  0
 38 39  2  0
 40 39  1  0
 40 44  1  0
 41 40  2  0
 42 37  2  0
 42 41  1  0
 43 42  1  0
 45 46  1  0
 46 49  1  0
 46 48  1  0
 47 45  2  0
 50 51  1  0
 50 25  1  0
 52 50  1  0
 54 55  1  0
 54 53  1  0
 55 57  1  0
 56 55  1  0
 58 55  1  0
 59 58  1  0
 60 59  1  0
 61 72  2  0
 62 60  1  0
 62 67  1  0
 63 71  1  0
 63 73  1  0
 64 70  1  0
 64 66  1  0
 65 71  1  0
 66 67  2  0
 66 65  1  0
 68 62  2  0
 69 68  1  0
 69 64  2  0
 70 63  1  0
 71 61  1  0
 73 75  2  0
 74 73  1  0
 76 74  1  0
 77 86  2  0
 77 82  1  0
 78 74  1  0
 78 82  1  0
 79 78  1  0
 80 81  1  0
 80 79  1  0
 81 77  1  0
 82 83  2  0
 83 84  1  0
 85 84  2  0
 86 85  1  0
 87 61  1  0
 87 88  1  0
 87 97  1  0
 88 91  1  0
 89 93  1  0
 89 88  1  0
 90 89  2  0
 93 92  1  0
 95 93  1  0
 95 96  1  0
 95 94  1  0
 97100  1  1
 97 98  1  0
 99 97  1  0
M  ISO  4  13 100  22 100  59 101  60 101
M  END
>  <TORSDO>  (78) 
F 23

>  <SCORE>  (78) 
-13.359

>  <name>  (78) 
78

>  <ligand_id>  (78) 
78

>  <original_smiles>  (78) 
[H]c1c([H])c([H])c2c(c1[H])C([H])([H])C([H])([H])C([H])([H])C2([H])N([H])C(=O)C1([H])N(C(=O)C([H])(N([H])C(=O)C([H])(N([H])C([H])([H])[H])C([H])([H])[H])C(C([H])([H])[H])(C([H])([H])[H])C([H])([H])[H])C([H])([H])c2c([H])c(OC([H])([H])C([H])([H])[N+]([H])([H])C([H])(C(=O)N([H])C([H])(C(=O)N([H])C([H])(C(=O)N([H])C(=O)N3C([H])([H])C([H])([H])C([H])([H])C([H])(n4nc(-c5c([H])c([H])c(Oc6c([H])c([H])c(F)c([H])c6F)c([H])c5[H])c(C(=O)N([H])[H])c4N([H])[H])C3([H])[H])C([H])([H])[H])C([H])([H])[H])C([H])([H])[H])c([H])c([H])c2C1([H])[H]

>  <smiles>  (78) 
[H]c1c([H])c([H])c2c(c1[H])C([H])([H])C([H])([H])C([H])([H])C2([H])N([H])C(=O)C1([H])N(C(=O)C([H])(N([H])C(=O)C([H])(N([H])C([H])([H])[H])C([H])([H])[H])C(C([H])([H])[H])(C([H])([H])[H])C([H])([H])[H])C([H])([H])c2c([H])c(OC([H])([H])C([H])([H])[N+]([H])([H])C([H])(C(=O)N([H])C([H])(C(=O)N([H])C([H])(C(=O)N([H])C(=O)N3C([H])([H])C([H])([H])C([H])([H])C([H])(n4nc(-c5c([H])c([H])c(Oc6c([H])c([H])c(F)c([H])c6F)c([H])c5[H])c(C(=O)N([H])[H])c4N([H])[H])C3([H])[H])C([H])([H])[H])C([H])([H])[H])C([H])([H])[H])c([H])c([H])c2C1([H])[H]

$$$$
79:0:0
     RDKit          3D

 98105  0  0  1  0  0  0  0  0999 V2000
  -30.0040  -22.5890   19.4030 C   0  0  0  0  0  0  0  0  0  0  0  0
  -29.6840  -23.3980   20.4520 N   0  0  0  0  0  0  0  0  0  0  0  0
  -30.1190  -23.0420   18.2560 O   0  0  0  0  0  0  0  0  0  0  0  0
  -29.6620  -24.8660   20.3180 C   0  0  0  0  0  2  0  0  0  0  0  0
  -28.2630  -25.4170   19.9950 C   0  0  0  0  0  2  0  0  0  0  0  0
  -28.3450  -26.8370   19.8870 O   0  0  0  0  0  0  0  0  0  0  0  0
  -24.6450  -31.8880   23.2140 C   0  0  0  0  0  0  0  0  0  0  0  0
  -27.1570  -27.5290   19.9380 C   0  0  0  0  0  0  0  0  0  0  0  0
  -23.3690  -30.5280   21.5850 C   0  0  0  0  0  3  0  0  0  0  0  0
  -24.7630  -29.0230   20.0740 C   0  0  0  0  0  0  0  0  0  0  0  0
  -25.8880  -30.8910   21.3030 C   0  0  0  0  0  2  0  0  0  0  0  0
  -25.9430  -29.5410   20.6190 C   0  0  0  0  0  0  0  0  0  0  0  0
  -27.1450  -28.8070   20.5380 C   0  0  0  0  0  3  0  0  0  0  0  0
  -25.9560  -27.0130   19.3990 C   0  0  0  0  0  3  0  0  0  0  0  0
  -24.7630  -27.7560   19.4610 C   0  0  0  0  0  3  0  0  0  0  0  0
  -23.5230  -29.8790   20.1840 C   0  0  0  0  0  2  0  0  0  0  0  0
  -24.6520  -31.1180   22.0890 N   0  0  0  0  0  0  0  0  0  0  0  0
  -23.5860  -32.1520   23.7980 O   0  0  0  0  0  0  0  0  0  0  0  0
  -22.7540  -29.4870   22.5470 C   0  0  0  0  0  0  0  0  0  0  0  0
  -21.4290  -29.2900   22.4470 N   0  0  0  0  0  0  0  0  0  0  0  0
  -23.4630  -28.8580   23.3360 O   0  0  0  0  0  0  0  0  0  0  0  0
  -20.9140  -29.8520   21.7820 H   0  0  0  0  0  0  0  0  0  0  0  0
  -18.0840  -28.0360   22.9890 C   0  0  0  0  0  0  0  0  0  0  0  0
  -20.6400  -28.3360   23.2260 C   0  0  0  0  0  3  0  0  0  0  0  0
  -20.7590  -26.9080   22.6430 C   0  0  0  0  0  2  0  0  0  0  0  0
  -19.6490  -26.5710   21.6420 C   0  0  0  0  0  2  0  0  0  0  0  0
  -18.2730  -26.6920   22.3050 C   0  0  0  0  0  2  0  0  0  0  0  0
  -19.1960  -28.8140   23.4070 C   0  0  0  0  0  0  0  0  0  0  0  0
  -18.9640  -30.0740   24.0050 C   0  0  0  0  0  3  0  0  0  0  0  0
  -17.6530  -30.5520   24.1880 C   0  0  0  0  0  3  0  0  0  0  0  0
  -16.5560  -29.7700   23.7850 C   0  0  0  0  0  3  0  0  0  0  0  0
  -16.7730  -28.5140   23.1920 C   0  0  0  0  0  3  0  0  0  0  0  0
  -25.9570  -32.4990   23.7980 C   0  0  0  0  0  3  0  0  0  0  0  0
  -25.6700  -33.8920   24.1680 N   0  0  0  0  0  0  0  0  0  0  0  0
  -25.9990  -34.9580   23.4260 C   0  0  0  0  0  0  0  0  0  0  0  0
  -26.6460  -34.8720   22.3800 O   0  0  0  0  0  0  0  0  0  0  0  0
  -25.0960  -34.0320   24.9860 H   0  0  0  0  0  0  0  0  0  0  0  0
  -24.2890  -36.7770   23.1340 C   0  0  0  0  0  1  0  0  0  0  0  0
  -25.5310  -36.3380   23.9250 C   0  0  0  0  0  3  0  0  0  0  0  0
  -27.6780  -37.1760   24.7710 C   0  0  0  0  0  1  0  0  0  0  0  0
  -26.5770  -37.3800   23.8330 N   0  0  0  0  0  0  0  0  0  0  0  0
  -26.1820  -38.3020   24.0010 H   0  0  0  0  0  0  0  0  0  0  0  0
  -26.5240  -31.6980   25.0330 C   0  0  1  0  0  0  0  0  0  0  0  0
  -25.4730  -31.4330   26.1360 C   0  0  0  0  0  1  0  0  0  0  0  0
  -27.0930  -30.3300   24.5880 C   0  0  0  0  0  1  0  0  0  0  0  0
  -27.7010  -32.4760   25.6670 C   0  0  0  0  0  1  0  0  0  0  0  0
  -29.3320  -22.9400   21.8010 C   0  0  0  0  0  2  0  0  0  0  0  0
  -30.5410  -22.5940   22.6770 C   0  0  0  0  0  2  0  0  0  0  0  0
  -30.1310  -21.4530   23.4050 O   0  0  0  0  0  0  0  0  0  0  0  0
  -30.5530  -19.4460   24.5350 C   0  0  0  0  0  1  0  0  0  0  0  0
  -31.1820  -20.7430   24.0280 C   0  0  0  0  0  2  0  0  0  0  0  0
  -30.3170  -21.0830   19.6020 C   0  0  0  0  0  3  0  0  0  0  0  0
  -31.0520  -20.5820   18.4290 N   0  0  0  0  0  4  0  0  0  0  0  0
  -30.7510  -21.1400   17.6430 H   0  0  0  0  0  0  0  0  0  0  0  0
  -30.8680  -19.6140   18.2540 H   0  0  0  0  0  0  0  0  0  0  0  0
  -32.0410  -20.7230   18.5450 H   0  0  0  0  0  0  0  0  0  0  0  0
  -29.0940  -20.1650   19.9030 C   0  0  0  0  0  2  0  0  0  0  0  0
  -29.4000  -19.1020   20.9900 C   0  0  0  0  0  2  0  0  0  0  0  0
  -29.7980  -17.7140   20.4560 C   0  0  0  0  0  2  0  0  0  0  0  0
  -30.4690  -16.8340   21.5330 C   0  0  0  0  0  2  0  0  0  0  0  0
  -30.8820  -14.5320   20.5880 C   0  0  0  0  0  0  0  0  0  0  0  0
  -30.6530  -12.3550   19.4480 C   0  0  0  0  0  2  0  0  0  0  0  0
  -29.6920  -12.4940   18.2500 C   0  0  0  0  0  2  0  0  0  0  0  0
  -28.2170  -12.3610   18.6850 C   0  0  0  0  0  2  0  0  0  0  0  0
  -27.8750  -13.2290   19.9240 C   0  0  0  0  0  3  0  0  0  0  0  0
  -28.9270  -13.0080   21.0320 C   0  0  0  0  0  2  0  0  0  0  0  0
  -30.2500  -13.3370   20.4640 N   0  0  0  0  0  0  0  0  0  0  0  0
  -31.9450  -14.8120   20.0260 O   0  0  0  0  0  0  0  0  0  0  0  0
  -30.1990  -15.4170   21.3230 N   0  0  0  0  0  0  0  0  0  0  0  0
  -29.3520  -15.0560   21.7350 H   0  0  0  0  0  0  0  0  0  0  0  0
  -25.4890  -13.8500   20.6740 C   0  0  0  0  0  0  0  0  0  0  0  0
  -24.4160  -13.0800   21.0260 C   0  0  0  0  0  0  0  0  0  0  0  0
  -24.8590  -11.7250   20.9390 C   0  0  0  0  0  0  0  0  0  0  0  0
  -26.5210  -12.9640   20.4030 N   0  0  0  0  0  0  0  0  0  0  0  0
  -26.1430  -11.6780   20.6130 N   0  0  0  0  0  0  0  0  0  0  0  0
  -24.1190  -10.4660   21.0920 C   0  0  0  0  0  0  0  0  0  0  0  0
  -24.5180   -9.4870   22.0270 C   0  0  0  0  0  3  0  0  0  0  0  0
  -23.7840   -8.2900   22.1700 C   0  0  0  0  0  3  0  0  0  0  0  0
  -22.6350   -8.0670   21.3720 C   0  0  0  0  0  0  0  0  0  0  0  0
  -22.2530   -9.0370   20.4270 C   0  0  0  0  0  3  0  0  0  0  0  0
  -22.9920  -10.2250   20.2840 C   0  0  0  0  0  3  0  0  0  0  0  0
  -21.8740   -6.9230   21.4220 O   0  0  0  0  0  0  0  0  0  0  0  0
  -21.7520   -6.1900   22.5750 C   0  0  0  0  0  0  0  0  0  0  0  0
  -21.2090   -6.7380   23.7580 C   0  0  0  0  0  3  0  0  0  0  0  0
  -21.0320   -5.9270   24.8960 C   0  0  0  0  0  3  0  0  0  0  0  0
  -21.3960   -4.5670   24.8530 C   0  0  0  0  0  0  0  0  0  0  0  0
  -21.9340   -4.0170   23.6770 C   0  0  0  0  0  3  0  0  0  0  0  0
  -22.1080   -4.8250   22.5400 C   0  0  0  0  0  0  0  0  0  0  0  0
  -22.6040   -4.2850   21.4020 F   0  0  0  0  0  0  0  0  0  0  0  0
  -21.2230   -3.7860   25.9460 F   0  0  0  0  0  0  0  0  0  0  0  0
  -23.0270  -13.5610   21.3390 C   0  0  0  0  0  0  0  0  0  0  0  0
  -22.3040  -12.8320   22.1800 N   0  0  0  0  0  0  0  0  0  0  0  0
  -22.5950  -14.6150   20.8760 O   0  0  0  0  0  0  0  0  0  0  0  0
  -22.6720  -11.9790   22.5740 H   0  0  0  0  0  0  0  0  0  0  0  0
  -21.3710  -13.1300   22.4330 H   0  0  0  0  0  0  0  0  0  0  0  0
  -25.6740  -15.2250   20.5470 N   0  0  0  0  0  0  0  0  0  0  0  0
  -24.9100  -15.8790   20.6580 H   0  0  0  0  0  0  0  0  0  0  0  0
  -26.5130  -15.6600   20.1880 H   0  0  0  0  0  0  0  0  0  0  0  0
  1 52  1  0
  1  2  1  0
  2 47  1  0
  3  1  2  0
  4  2  1  0
  5  4  1  0
  6  8  1  0
  6  5  1  0
  7 18  2  0
  8 13  1  0
  9 17  1  0
  9 19  1  0
 10 16  1  0
 10 12  1  0
 11 17  1  0
 12 11  1  0
 13 12  2  0
 14 15  1  0
 14  8  2  0
 15 10  2  0
 16  9  1  0
 17  7  1  0
 19 21  2  0
 20 19  1  0
 22 20  1  0
 23 32  2  0
 23 28  1  0
 24 20  1  0
 24 28  1  0
 25 24  1  0
 26 27  1  0
 26 25  1  0
 27 23  1  0
 28 29  2  0
 29 30  1  0
 31 30  2  0
 32 31  1  0
 33  7  1  0
 33 34  1  0
 33 43  1  0
 34 37  1  0
 35 39  1  0
 35 34  1  0
 36 35  2  0
 39 38  1  0
 41 39  1  0
 41 42  1  0
 41 40  1  0
 43 46  1  1
 43 44  1  0
 45 43  1  0
 47 48  1  0
 48 49  1  0
 49 51  1  0
 51 50  1  0
 52 57  1  0
 53 56  1  0
 53 52  1  0
 54 53  1  0
 55 53  1  0
 57 58  1  0
 59 58  1  0
 59 60  1  0
 61 69  1  0
 62 67  1  0
 63 64  1  0
 63 62  1  0
 65 64  1  0
 65 74  1  0
 65 66  1  0
 67 61  1  0
 67 66  1  0
 68 61  2  0
 69 60  1  0
 69 70  1  0
 71 72  2  0
 72 91  1  0
 73 72  1  0
 73 76  1  0
 74 75  1  0
 74 71  1  0
 75 73  2  0
 76 77  1  0
 77 78  2  0
 79 82  1  0
 79 78  1  0
 80 79  2  0
 81 80  1  0
 81 76  2  0
 82 83  1  0
 83 84  1  0
 84 85  2  0
 86 85  1  0
 86 90  1  0
 87 86  2  0
 88 83  2  0
 88 87  1  0
 89 88  1  0
 91 92  1  0
 92 95  1  0
 92 94  1  0
 93 91  2  0
 96 97  1  0
 96 71  1  0
 98 96  1  0
M  ISO  4   5 101   6 101  61 100  69 100
M  END
>  <TORSDO>  (79) 
F 28

>  <SCORE>  (79) 
-11.022

>  <name>  (79) 
79

>  <ligand_id>  (79) 
79

>  <original_smiles>  (79) 
[H]c1c([H])c([H])c2c(c1[H])C([H])([H])C([H])([H])C([H])([H])C2([H])N([H])C(=O)C1([H])N(C(=O)C([H])(N([H])C(=O)C([H])(N([H])C([H])([H])[H])C([H])([H])[H])C(C([H])([H])[H])(C([H])([H])[H])C([H])([H])[H])C([H])([H])c2c([H])c(OC([H])([H])C([H])([H])N(C(=O)C([H])(C([H])([H])C([H])([H])C([H])([H])C([H])([H])N([H])C(=O)N3C([H])([H])C([H])([H])C([H])([H])C([H])(n4nc(-c5c([H])c([H])c(Oc6c([H])c([H])c(F)c([H])c6F)c([H])c5[H])c(C(=O)N([H])[H])c4N([H])[H])C3([H])[H])[N+]([H])([H])[H])C([H])([H])C([H])([H])OC([H])([H])C([H])([H])[H])c([H])c([H])c2C1([H])[H]

>  <smiles>  (79) 
[H]c1c([H])c([H])c2c(c1[H])C([H])([H])C([H])([H])C([H])([H])C2([H])N([H])C(=O)C1([H])N(C(=O)C([H])(N([H])C(=O)C([H])(N([H])C([H])([H])[H])C([H])([H])[H])C(C([H])([H])[H])(C([H])([H])[H])C([H])([H])[H])C([H])([H])c2c([H])c(OC([H])([H])C([H])([H])N(C(=O)C([H])(C([H])([H])C([H])([H])C([H])([H])C([H])([H])N([H])C(=O)N3C([H])([H])C([H])([H])C([H])([H])C([H])(n4nc(-c5c([H])c([H])c(Oc6c([H])c([H])c(F)c([H])c6F)c([H])c5[H])c(C(=O)N([H])[H])c4N([H])[H])C3([H])[H])[N+]([H])([H])[H])C([H])([H])C([H])([H])OC([H])([H])C([H])([H])[H])c([H])c([H])c2C1([H])[H]

$$$$
80:0:0
     RDKit          3D

 93100  0  0  1  0  0  0  0  0999 V2000
  -27.7720  -22.3010   22.0550 C   0  0  0  0  0  1  0  0  0  0  0  0
  -28.3520  -22.3150   20.6270 C   0  0  0  0  0  3  0  0  0  0  0  0
  -27.6390  -21.3030   19.7150 C   0  0  0  0  0  0  0  0  0  0  0  0
  -27.8820  -19.9990   19.8560 N   0  0  0  0  0  0  0  0  0  0  0  0
  -26.8200  -21.7100   18.8840 O   0  0  0  0  0  0  0  0  0  0  0  0
  -27.2920  -19.3820   19.3110 H   0  0  0  0  0  0  0  0  0  0  0  0
  -28.9170  -19.3300   20.6600 C   0  0  0  0  0  2  0  0  0  0  0  0
  -29.1390  -17.9240   20.0810 C   0  0  0  0  0  2  0  0  0  0  0  0
  -30.3470  -17.0940   20.5660 C   0  0  0  0  0  2  0  0  0  0  0  0
  -30.9710  -14.6430   20.2320 C   0  0  0  0  0  0  0  0  0  0  0  0
  -30.7130  -12.4180   19.2470 C   0  0  0  0  0  2  0  0  0  0  0  0
  -29.7800  -12.5880   18.0300 C   0  0  0  0  0  2  0  0  0  0  0  0
  -28.2890  -12.5030   18.4360 C   0  0  0  0  0  2  0  0  0  0  0  0
  -27.9450  -13.3780   19.6760 C   0  0  0  0  0  3  0  0  0  0  0  0
  -29.0030  -13.2020   20.7850 C   0  0  0  0  0  2  0  0  0  0  0  0
  -30.3250  -13.4530   20.2000 N   0  0  0  0  0  0  0  0  0  0  0  0
  -32.1900  -14.7730   20.1060 O   0  0  0  0  0  0  0  0  0  0  0  0
  -30.1510  -15.7100   20.1510 N   0  0  0  0  0  0  0  0  0  0  0  0
  -29.2320  -15.4760   19.7950 H   0  0  0  0  0  0  0  0  0  0  0  0
  -25.5790  -14.0750   20.3970 C   0  0  0  0  0  0  0  0  0  0  0  0
  -24.4750  -13.3440   20.7500 C   0  0  0  0  0  0  0  0  0  0  0  0
  -24.8870  -11.9740   20.7300 C   0  0  0  0  0  0  0  0  0  0  0  0
  -26.5850  -13.1470   20.1570 N   0  0  0  0  0  0  0  0  0  0  0  0
  -26.1720  -11.8820   20.4150 N   0  0  0  0  0  0  0  0  0  0  0  0
  -24.1150  -10.7420   20.9250 C   0  0  0  0  0  0  0  0  0  0  0  0
  -24.5060   -9.7690   21.8700 C   0  0  0  0  0  3  0  0  0  0  0  0
  -23.7270   -8.6030   22.0610 C   0  0  0  0  0  3  0  0  0  0  0  0
  -22.5610   -8.4010   21.2880 C   0  0  0  0  0  0  0  0  0  0  0  0
  -22.1870   -9.3640   20.3360 C   0  0  0  0  0  3  0  0  0  0  0  0
  -22.9600  -10.5160   20.1440 C   0  0  0  0  0  3  0  0  0  0  0  0
  -21.7630   -7.2810   21.3840 O   0  0  0  0  0  0  0  0  0  0  0  0
  -21.6620   -6.5580   22.5450 C   0  0  0  0  0  0  0  0  0  0  0  0
  -21.2270   -7.1540   23.7490 C   0  0  0  0  0  3  0  0  0  0  0  0
  -21.0760   -6.3660   24.9100 C   0  0  0  0  0  3  0  0  0  0  0  0
  -21.3420   -4.9860   24.8600 C   0  0  0  0  0  0  0  0  0  0  0  0
  -21.7720   -4.3910   23.6620 C   0  0  0  0  0  3  0  0  0  0  0  0
  -21.9320   -5.1750   22.5080 C   0  0  0  0  0  0  0  0  0  0  0  0
  -22.3270   -4.6000   21.3440 F   0  0  0  0  0  0  0  0  0  0  0  0
  -21.1880   -4.2240   25.9670 F   0  0  0  0  0  0  0  0  0  0  0  0
  -23.1000  -13.8800   21.0220 C   0  0  0  0  0  0  0  0  0  0  0  0
  -22.3450  -13.2150   21.8970 N   0  0  0  0  0  0  0  0  0  0  0  0
  -22.6930  -14.9050   20.4880 O   0  0  0  0  0  0  0  0  0  0  0  0
  -22.6850  -12.3840   22.3540 H   0  0  0  0  0  0  0  0  0  0  0  0
  -21.4220  -13.5610   22.1210 H   0  0  0  0  0  0  0  0  0  0  0  0
  -25.8080  -15.4350   20.2520 N   0  0  0  0  0  0  0  0  0  0  0  0
  -25.1270  -16.1350   20.5240 H   0  0  0  0  0  0  0  0  0  0  0  0
  -26.7200  -15.8280   20.0700 H   0  0  0  0  0  0  0  0  0  0  0  0
  -29.3480  -24.5550   20.1370 C   0  0  0  0  0  0  0  0  0  0  0  0
  -28.3390  -23.6650   20.0700 N   0  0  0  0  0  0  0  0  0  0  0  0
  -30.3980  -24.3070   20.7440 O   0  0  0  0  0  0  0  0  0  0  0  0
  -27.5330  -23.9080   19.5040 H   0  0  0  0  0  0  0  0  0  0  0  0
  -29.1690  -25.8960   19.4160 C   0  0  0  0  0  2  0  0  0  0  0  0
  -28.8190  -26.9380   20.3510 O   0  0  0  0  0  0  0  0  0  0  0  0
  -24.6980  -31.9400   23.2880 C   0  0  0  0  0  0  0  0  0  0  0  0
  -27.5940  -27.5640   20.3140 C   0  0  0  0  0  0  0  0  0  0  0  0
  -23.5830  -30.4860   21.6290 C   0  0  0  0  0  3  0  0  0  0  0  0
  -25.1280  -28.9670   20.2740 C   0  0  0  0  0  0  0  0  0  0  0  0
  -26.0940  -30.9310   21.4800 C   0  0  0  0  0  2  0  0  0  0  0  0
  -26.2450  -29.5510   20.8730 C   0  0  0  0  0  0  0  0  0  0  0  0
  -27.4750  -28.8470   20.9080 C   0  0  0  0  0  3  0  0  0  0  0  0
  -26.4350  -26.9860   19.7350 C   0  0  0  0  0  3  0  0  0  0  0  0
  -25.2110  -27.6850   19.7100 C   0  0  0  0  0  3  0  0  0  0  0  0
  -23.8470  -29.7790   20.2710 C   0  0  0  0  0  2  0  0  0  0  0  0
  -24.8100  -31.1350   22.1960 N   0  0  0  0  0  0  0  0  0  0  0  0
  -23.5970  -32.1840   23.7950 O   0  0  0  0  0  0  0  0  0  0  0  0
  -22.9340  -29.4600   22.5910 C   0  0  0  0  0  0  0  0  0  0  0  0
  -21.6180  -29.2530   22.4410 N   0  0  0  0  0  0  0  0  0  0  0  0
  -23.6200  -28.8430   23.4100 O   0  0  0  0  0  0  0  0  0  0  0  0
  -21.1270  -29.8020   21.7500 H   0  0  0  0  0  0  0  0  0  0  0  0
  -18.2500  -28.0370   22.9230 C   0  0  0  0  0  0  0  0  0  0  0  0
  -20.8040  -28.2970   23.1990 C   0  0  0  0  0  3  0  0  0  0  0  0
  -20.9140  -26.8780   22.5950 C   0  0  0  0  0  2  0  0  0  0  0  0
  -19.8110  -26.5680   21.5790 C   0  0  0  0  0  2  0  0  0  0  0  0
  -18.4290  -26.6970   22.2300 C   0  0  0  0  0  2  0  0  0  0  0  0
  -19.3650  -28.7950   23.3610 C   0  0  0  0  0  0  0  0  0  0  0  0
  -19.1420  -30.0520   23.9720 C   0  0  0  0  0  3  0  0  0  0  0  0
  -17.8400  -30.5490   24.1410 C   0  0  0  0  0  3  0  0  0  0  0  0
  -16.7350  -29.7850   23.7150 C   0  0  0  0  0  3  0  0  0  0  0  0
  -16.9400  -28.5320   23.1160 C   0  0  0  0  0  3  0  0  0  0  0  0
  -25.9480  -32.6180   23.9420 C   0  0  0  0  0  3  0  0  0  0  0  0
  -25.5900  -34.0110   24.2290 N   0  0  0  0  0  0  0  0  0  0  0  0
  -25.9310  -35.0610   23.4670 C   0  0  0  0  0  0  0  0  0  0  0  0
  -26.6470  -34.9520   22.4660 O   0  0  0  0  0  0  0  0  0  0  0  0
  -24.9440  -34.1640   24.9890 H   0  0  0  0  0  0  0  0  0  0  0  0
  -24.1710  -36.8020   23.0220 C   0  0  0  0  0  1  0  0  0  0  0  0
  -25.3930  -36.4380   23.8810 C   0  0  0  0  0  3  0  0  0  0  0  0
  -27.4750  -37.3950   24.7650 C   0  0  0  0  0  1  0  0  0  0  0  0
  -26.3990  -37.5170   23.7850 N   0  0  0  0  0  0  0  0  0  0  0  0
  -25.9650  -38.4280   23.9000 H   0  0  0  0  0  0  0  0  0  0  0  0
  -26.4300  -31.8870   25.2540 C   0  0  1  0  0  0  0  0  0  0  0  0
  -25.2950  -31.6620   26.2810 C   0  0  0  0  0  1  0  0  0  0  0  0
  -27.0670  -30.5170   24.9170 C   0  0  0  0  0  1  0  0  0  0  0  0
  -27.5250  -32.7280   25.9490 C   0  0  0  0  0  1  0  0  0  0  0  0
  2  1  1  0
  3  4  1  0
  3  2  1  0
  4  7  1  0
  5  3  2  0
  6  4  1  0
  8  9  1  0
  8  7  1  0
 11 16  1  0
 12 13  1  0
 12 11  1  0
 14 13  1  0
 14 23  1  0
 14 15  1  0
 16 10  1  0
 16 15  1  0
 17 10  2  0
 18 10  1  0
 18  9  1  0
 19 18  1  0
 20 21  2  0
 21 40  1  0
 22 21  1  0
 22 25  1  0
 23 20  1  0
 23 24  1  0
 24 22  2  0
 25 26  1  0
 26 27  2  0
 28 31  1  0
 28 27  1  0
 29 28  2  0
 30 29  1  0
 30 25  2  0
 31 32  1  0
 32 33  1  0
 33 34  2  0
 35 34  1  0
 35 39  1  0
 36 35  2  0
 37 32  2  0
 37 36  1  0
 38 37  1  0
 40 41  1  0
 41 44  1  0
 41 43  1  0
 42 40  2  0
 45 20  1  0
 45 46  1  0
 47 45  1  0
 48 50  2  0
 49 48  1  0
 49  2  1  0
 51 49  1  0
 52 48  1  0
 52 53  1  0
 54 65  2  0
 55 53  1  0
 55 60  1  0
 56 64  1  0
 56 66  1  0
 57 59  1  0
 58 64  1  0
 59 60  2  0
 59 58  1  0
 61 55  2  0
 62 61  1  0
 62 57  2  0
 63 57  1  0
 63 56  1  0
 64 54  1  0
 66 68  2  0
 67 66  1  0
 69 67  1  0
 70 79  2  0
 70 75  1  0
 71 67  1  0
 71 75  1  0
 72 71  1  0
 73 74  1  0
 73 72  1  0
 74 70  1  0
 75 76  2  0
 76 77  1  0
 78 77  2  0
 79 78  1  0
 80 54  1  0
 80 81  1  0
 80 90  1  0
 81 84  1  0
 82 86  1  0
 82 81  1  0
 83 82  2  0
 86 85  1  0
 88 86  1  0
 88 89  1  0
 88 87  1  0
 90 93  1  1
 90 91  1  0
 92 90  1  0
M  ISO  4  10 100  18 100  52 101  53 101
M  END
>  <TORSDO>  (80) 
F 22

>  <SCORE>  (80) 
-12.738

>  <name>  (80) 
80

>  <ligand_id>  (80) 
80

>  <original_smiles>  (80) 
[H]c1c([H])c([H])c2c(c1[H])C([H])([H])C([H])([H])C([H])([H])C2([H])N([H])C(=O)C1([H])N(C(=O)C([H])(N([H])C(=O)C([H])(N([H])C([H])([H])[H])C([H])([H])[H])C(C([H])([H])[H])(C([H])([H])[H])C([H])([H])[H])C([H])([H])c2c([H])c(OC([H])([H])C(=O)N([H])C([H])(C(=O)N([H])C([H])([H])C([H])([H])C([H])([H])N([H])C(=O)N3C([H])([H])C([H])([H])C([H])([H])C([H])(n4nc(-c5c([H])c([H])c(Oc6c([H])c([H])c(F)c([H])c6F)c([H])c5[H])c(C(=O)N([H])[H])c4N([H])[H])C3([H])[H])C([H])([H])[H])c([H])c([H])c2C1([H])[H]

>  <smiles>  (80) 
[H]c1c([H])c([H])c2c(c1[H])C([H])([H])C([H])([H])C([H])([H])C2([H])N([H])C(=O)C1([H])N(C(=O)C([H])(N([H])C(=O)C([H])(N([H])C([H])([H])[H])C([H])([H])[H])C(C([H])([H])[H])(C([H])([H])[H])C([H])([H])[H])C([H])([H])c2c([H])c(OC([H])([H])C(=O)N([H])C([H])(C(=O)N([H])C([H])([H])C([H])([H])C([H])([H])N([H])C(=O)N3C([H])([H])C([H])([H])C([H])([H])C([H])(n4nc(-c5c([H])c([H])c(Oc6c([H])c([H])c(F)c([H])c6F)c([H])c5[H])c(C(=O)N([H])[H])c4N([H])[H])C3([H])[H])C([H])([H])[H])c([H])c([H])c2C1([H])[H]

$$$$
81:0:0
     RDKit          3D

 89 96  0  0  1  0  0  0  0  0999 V2000
  -29.1290  -19.8420   20.4030 C   0  0  0  0  0  0  0  0  0  0  0  0
  -29.0930  -21.2510   19.9180 N   0  0  0  0  0  0  0  0  0  0  0  0
  -28.5030  -19.6410   21.4440 O   0  0  0  0  0  0  0  0  0  0  0  0
  -29.5610  -21.3290   19.0230 H   0  0  0  0  0  0  0  0  0  0  0  0
  -28.7070  -22.7760   20.5230 C   0  0  0  0  0  2  0  0  0  0  0  0
  -28.1280  -24.3490   19.8220 C   0  0  0  0  0  2  0  0  0  0  0  0
  -28.1790  -25.9520   20.2640 O   0  0  0  0  0  0  0  0  0  0  0  0
  -24.5810  -31.9000   23.2140 C   0  0  0  0  0  0  0  0  0  0  0  0
  -27.1650  -27.0490   20.1590 C   0  0  0  0  0  0  0  0  0  0  0  0
  -23.3980  -30.5140   21.5590 C   0  0  0  0  0  3  0  0  0  0  0  0
  -24.8590  -28.9280   20.1200 C   0  0  0  0  0  0  0  0  0  0  0  0
  -25.9640  -30.7330   21.4250 C   0  0  0  0  0  2  0  0  0  0  0  0
  -26.0410  -29.3300   20.7540 C   0  0  0  0  0  0  0  0  0  0  0  0
  -27.1840  -28.4090   20.7520 C   0  0  0  0  0  3  0  0  0  0  0  0
  -25.9560  -26.8090   19.4680 C   0  0  0  0  0  3  0  0  0  0  0  0
  -24.8420  -27.6910   19.4570 C   0  0  0  0  0  3  0  0  0  0  0  0
  -23.6350  -29.8450   20.1760 C   0  0  0  0  0  2  0  0  0  0  0  0
  -24.6700  -31.0770   22.1190 N   0  0  0  0  0  0  0  0  0  0  0  0
  -23.4890  -32.1820   23.7340 O   0  0  0  0  0  0  0  0  0  0  0  0
  -22.7050  -29.5080   22.5140 C   0  0  0  0  0  0  0  0  0  0  0  0
  -21.3770  -29.3340   22.3790 N   0  0  0  0  0  0  0  0  0  0  0  0
  -23.3690  -28.8850   23.3450 O   0  0  0  0  0  0  0  0  0  0  0  0
  -20.8940  -29.8880   21.6860 H   0  0  0  0  0  0  0  0  0  0  0  0
  -18.0010  -28.0920   22.8580 C   0  0  0  0  0  0  0  0  0  0  0  0
  -20.5570  -28.3830   23.1390 C   0  0  0  0  0  3  0  0  0  0  0  0
  -20.6770  -26.9560   22.5570 C   0  0  0  0  0  2  0  0  0  0  0  0
  -19.5840  -26.6280   21.5340 C   0  0  0  0  0  2  0  0  0  0  0  0
  -18.1970  -26.7510   22.1700 C   0  0  0  0  0  2  0  0  0  0  0  0
  -19.1090  -28.8650   23.2980 C   0  0  0  0  0  0  0  0  0  0  0  0
  -18.8700  -30.1170   23.9050 C   0  0  0  0  0  3  0  0  0  0  0  0
  -17.5570  -30.5980   24.0720 C   0  0  0  0  0  3  0  0  0  0  0  0
  -16.4650  -29.8230   23.6450 C   0  0  0  0  0  3  0  0  0  0  0  0
  -16.6870  -28.5720   23.0440 C   0  0  0  0  0  3  0  0  0  0  0  0
  -25.8470  -32.5440   23.8570 C   0  0  0  0  0  3  0  0  0  0  0  0
  -26.3230  -31.7990   25.1660 C   0  0  1  0  0  0  0  0  0  0  0  0
  -25.2000  -31.5960   26.2110 C   0  0  0  0  0  1  0  0  0  0  0  0
  -26.9040  -30.4060   24.8310 C   0  0  0  0  0  1  0  0  0  0  0  0
  -27.4630  -32.6000   25.8390 C   0  0  0  0  0  1  0  0  0  0  0  0
  -25.5360  -33.9520   24.1620 N   0  0  0  0  0  0  0  0  0  0  0  0
  -25.8930  -34.9990   23.4060 C   0  0  0  0  0  0  0  0  0  0  0  0
  -26.5810  -34.8810   22.3880 O   0  0  0  0  0  0  0  0  0  0  0  0
  -24.9270  -34.1170   24.9490 H   0  0  0  0  0  0  0  0  0  0  0  0
  -24.1960  -36.8180   23.0100 C   0  0  0  0  0  1  0  0  0  0  0  0
  -25.4160  -36.3990   23.8470 C   0  0  0  0  0  3  0  0  0  0  0  0
  -27.5380  -37.2730   24.7230 C   0  0  0  0  0  1  0  0  0  0  0  0
  -26.4640  -37.4390   23.7480 N   0  0  0  0  0  0  0  0  0  0  0  0
  -26.0650  -38.3660   23.8700 H   0  0  0  0  0  0  0  0  0  0  0  0
  -29.9600  -18.3950   19.8110 C   0  0  0  0  0  3  0  0  0  0  0  0
  -30.4580  -15.4500   19.8890 C   0  0  0  0  0  0  0  0  0  0  0  0
  -30.3550  -13.0210   18.9630 C   0  0  0  0  0  2  0  0  0  0  0  0
  -29.3670  -12.8510   17.7830 C   0  0  0  0  0  2  0  0  0  0  0  0
  -27.9480  -12.5670   18.3020 C   0  0  0  0  0  2  0  0  0  0  0  0
  -27.5690  -13.4960   19.4810 C   0  0  0  0  0  3  0  0  0  0  0  0
  -28.6840  -13.6230   20.5440 C   0  0  0  0  0  2  0  0  0  0  0  0
  -29.8730  -14.1470   19.8540 N   0  0  0  0  0  0  0  0  0  0  0  0
  -31.6460  -15.4180   19.5400 O   0  0  0  0  0  0  0  0  0  0  0  0
  -29.7480  -16.7460   20.1160 N   0  0  0  0  0  0  0  0  0  0  0  0
  -28.8090  -16.5760   20.4450 H   0  0  0  0  0  0  0  0  0  0  0  0
  -25.2450  -14.0250   20.3820 C   0  0  0  0  0  0  0  0  0  0  0  0
  -24.2110  -13.2360   20.7990 C   0  0  0  0  0  0  0  0  0  0  0  0
  -24.6820  -11.8890   20.7170 C   0  0  0  0  0  0  0  0  0  0  0  0
  -26.2770  -13.1600   20.0620 N   0  0  0  0  0  0  0  0  0  0  0  0
  -25.9540  -11.8680   20.3310 N   0  0  0  0  0  0  0  0  0  0  0  0
  -23.9720  -10.6200   20.9250 C   0  0  0  0  0  0  0  0  0  0  0  0
  -24.4370   -9.6530   21.8440 C   0  0  0  0  0  3  0  0  0  0  0  0
  -23.7230   -8.4520   22.0420 C   0  0  0  0  0  3  0  0  0  0  0  0
  -22.5290   -8.2070   21.3230 C   0  0  0  0  0  0  0  0  0  0  0  0
  -22.0830   -9.1630   20.3930 C   0  0  0  0  0  3  0  0  0  0  0  0
  -22.7980  -10.3550   20.1920 C   0  0  0  0  0  3  0  0  0  0  0  0
  -21.7840   -7.0580   21.4320 O   0  0  0  0  0  0  0  0  0  0  0  0
  -21.7550   -6.3270   22.5920 C   0  0  0  0  0  0  0  0  0  0  0  0
  -21.2990   -6.8780   23.8090 C   0  0  0  0  0  3  0  0  0  0  0  0
  -21.2200   -6.0700   24.9620 C   0  0  0  0  0  3  0  0  0  0  0  0
  -21.5870   -4.7130   24.8980 C   0  0  0  0  0  0  0  0  0  0  0  0
  -22.0350   -4.1610   23.6850 C   0  0  0  0  0  3  0  0  0  0  0  0
  -22.1150   -4.9660   22.5350 C   0  0  0  0  0  0  0  0  0  0  0  0
  -22.5280   -4.4230   21.3640 F   0  0  0  0  0  0  0  0  0  0  0  0
  -21.5030   -3.9350   26.0030 F   0  0  0  0  0  0  0  0  0  0  0  0
  -22.8300  -13.7010   21.1530 C   0  0  0  0  0  0  0  0  0  0  0  0
  -22.1510  -12.9850   22.0420 N   0  0  0  0  0  0  0  0  0  0  0  0
  -22.3640  -14.7360   20.6770 O   0  0  0  0  0  0  0  0  0  0  0  0
  -22.5430  -12.1480   22.4470 H   0  0  0  0  0  0  0  0  0  0  0  0
  -21.2260  -13.2780   22.3220 H   0  0  0  0  0  0  0  0  0  0  0  0
  -25.3890  -15.4000   20.2180 N   0  0  0  0  0  0  0  0  0  0  0  0
  -24.6220  -16.0430   20.3800 H   0  0  0  0  0  0  0  0  0  0  0  0
  -26.2010  -15.8480   19.8140 H   0  0  0  0  0  0  0  0  0  0  0  0
  -31.8640  -18.6960   21.5400 C   0  0  0  0  0  1  0  0  0  0  0  0
  -32.0780  -19.8620   19.3010 C   0  0  0  0  0  1  0  0  0  0  0  0
  -31.4850  -18.6510   20.0470 C   0  0  0  0  0  3  0  0  0  0  0  0
  1  3  2  0
  2  1  1  0
  2  5  1  0
  4  2  1  0
  6  7  1  0
  6  5  1  0
  8 19  2  0
  9  7  1  0
  9 14  1  0
 10 18  1  0
 10 20  1  0
 11 17  1  0
 11 13  1  0
 12 18  1  0
 13 12  1  0
 14 13  2  0
 15  9  2  0
 16 15  1  0
 16 11  2  0
 17 10  1  0
 18  8  1  0
 20 22  2  0
 21 20  1  0
 23 21  1  0
 24 33  2  0
 24 29  1  0
 25 21  1  0
 25 29  1  0
 26 25  1  0
 27 28  1  0
 27 26  1  0
 28 24  1  0
 29 30  2  0
 30 31  1  0
 32 31  2  0
 33 32  1  0
 34  8  1  0
 34 39  1  0
 34 35  1  0
 35 38  1  1
 35 36  1  0
 37 35  1  0
 39 42  1  0
 40 44  1  0
 40 39  1  0
 41 40  2  0
 44 43  1  0
 46 44  1  0
 46 47  1  0
 46 45  1  0
 48 89  1  0
 48 57  1  0
 48  1  1  0
 49 57  1  0
 50 55  1  0
 51 52  1  0
 51 50  1  0
 53 52  1  0
 53 62  1  0
 53 54  1  0
 55 49  1  0
 55 54  1  0
 56 49  2  0
 57 58  1  0
 59 60  2  0
 60 79  1  0
 61 60  1  0
 61 64  1  0
 62 63  1  0
 62 59  1  0
 63 61  2  0
 64 65  1  0
 65 66  2  0
 67 70  1  0
 67 66  1  0
 68 67  2  0
 69 68  1  0
 69 64  2  0
 70 71  1  0
 71 72  1  0
 72 73  2  0
 74 73  1  0
 74 78  1  0
 75 74  2  0
 76 71  2  0
 76 75  1  0
 77 76  1  0
 79 80  1  0
 80 83  1  0
 80 82  1  0
 81 79  2  0
 84 85  1  0
 84 59  1  0
 86 84  1  0
 88 89  1  0
 89 87  1  0
M  ISO  4   6 101   7 101  49 100  57 100
M  END
>  <TORSDO>  (81) 
F 20

>  <SCORE>  (81) 
-15.647

>  <name>  (81) 
81

>  <ligand_id>  (81) 
81

>  <original_smiles>  (81) 
[H]c1c([H])c([H])c2c(c1[H])C([H])([H])C([H])([H])C([H])([H])C2([H])N([H])C(=O)C1([H])N(C(=O)C([H])(N([H])C(=O)C([H])(N([H])C([H])([H])[H])C([H])([H])[H])C(C([H])([H])[H])(C([H])([H])[H])C([H])([H])[H])C([H])([H])c2c([H])c(OC([H])([H])C([H])([H])N([H])C(=O)C([H])(N([H])C(=O)N3C([H])([H])C([H])([H])C([H])([H])C([H])(n4nc(-c5c([H])c([H])c(Oc6c([H])c([H])c(F)c([H])c6F)c([H])c5[H])c(C(=O)N([H])[H])c4N([H])[H])C3([H])[H])C([H])(C([H])([H])[H])C([H])([H])[H])c([H])c([H])c2C1([H])[H]

>  <smiles>  (81) 
[H]c1c([H])c([H])c2c(c1[H])C([H])([H])C([H])([H])C([H])([H])C2([H])N([H])C(=O)C1([H])N(C(=O)C([H])(N([H])C(=O)C([H])(N([H])C([H])([H])[H])C([H])([H])[H])C(C([H])([H])[H])(C([H])([H])[H])C([H])([H])[H])C([H])([H])c2c([H])c(OC([H])([H])C([H])([H])N([H])C(=O)C([H])(N([H])C(=O)N3C([H])([H])C([H])([H])C([H])([H])C([H])(n4nc(-c5c([H])c([H])c(Oc6c([H])c([H])c(F)c([H])c6F)c([H])c5[H])c(C(=O)N([H])[H])c4N([H])[H])C3([H])[H])C([H])(C([H])([H])[H])C([H])([H])[H])c([H])c([H])c2C1([H])[H]

$$$$
82:0:0
     RDKit          3D

 87 94  0  0  1  0  0  0  0  0999 V2000
  -28.8260  -22.8460   20.1420 O   0  0  0  0  0  0  0  0  0  0  0  0
  -29.2460  -24.2020   20.3970 C   0  0  0  0  0  2  0  0  0  0  0  0
  -28.1320  -25.1830   19.9470 C   0  0  0  0  0  2  0  0  0  0  0  0
  -28.3340  -26.6010   20.2000 O   0  0  0  0  0  0  0  0  0  0  0  0
  -24.6040  -31.8940   23.2510 C   0  0  0  0  0  0  0  0  0  0  0  0
  -27.1950  -27.3990   20.1590 C   0  0  0  0  0  0  0  0  0  0  0  0
  -23.3860  -30.5050   21.6110 C   0  0  0  0  0  3  0  0  0  0  0  0
  -24.8230  -28.9690   20.1730 C   0  0  0  0  0  0  0  0  0  0  0  0
  -25.9200  -30.8340   21.4160 C   0  0  0  0  0  2  0  0  0  0  0  0
  -25.9910  -29.4640   20.7670 C   0  0  0  0  0  0  0  0  0  0  0  0
  -27.1790  -28.6860   20.7600 C   0  0  0  0  0  3  0  0  0  0  0  0
  -26.0020  -26.9460   19.5400 C   0  0  0  0  0  3  0  0  0  0  0  0
  -24.8260  -27.7110   19.5560 C   0  0  0  0  0  3  0  0  0  0  0  0
  -23.5880  -29.8370   20.2260 C   0  0  0  0  0  2  0  0  0  0  0  0
  -24.6550  -31.0940   22.1500 N   0  0  0  0  0  0  0  0  0  0  0  0
  -23.5240  -32.1720   23.7930 O   0  0  0  0  0  0  0  0  0  0  0  0
  -22.7300  -29.4840   22.5690 C   0  0  0  0  0  0  0  0  0  0  0  0
  -21.4040  -29.3080   22.4460 N   0  0  0  0  0  0  0  0  0  0  0  0
  -23.4120  -28.8530   23.3820 O   0  0  0  0  0  0  0  0  0  0  0  0
  -20.9130  -29.8690   21.7640 H   0  0  0  0  0  0  0  0  0  0  0  0
  -18.0240  -28.1230   22.9480 C   0  0  0  0  0  0  0  0  0  0  0  0
  -20.5840  -28.3730   23.2180 C   0  0  0  0  0  3  0  0  0  0  0  0
  -20.6800  -26.9400   22.6430 C   0  0  0  0  0  2  0  0  0  0  0  0
  -19.5770  -26.6210   21.6300 C   0  0  0  0  0  2  0  0  0  0  0  0
  -18.1940  -26.7720   22.2730 C   0  0  0  0  0  2  0  0  0  0  0  0
  -19.1460  -28.8810   23.3770 C   0  0  0  0  0  0  0  0  0  0  0  0
  -18.9320  -30.1470   23.9660 C   0  0  0  0  0  3  0  0  0  0  0  0
  -17.6290  -30.6530   24.1310 C   0  0  0  0  0  3  0  0  0  0  0  0
  -16.5230  -29.8930   23.7160 C   0  0  0  0  0  3  0  0  0  0  0  0
  -16.7200  -28.6290   23.1310 C   0  0  0  0  0  3  0  0  0  0  0  0
  -25.8950  -32.5180   23.8670 C   0  0  0  0  0  3  0  0  0  0  0  0
  -26.4160  -31.7370   25.1360 C   0  0  1  0  0  0  0  0  0  0  0  0
  -25.3290  -31.4980   26.2100 C   0  0  0  0  0  1  0  0  0  0  0  0
  -26.9910  -30.3590   24.7330 C   0  0  0  0  0  1  0  0  0  0  0  0
  -27.5720  -32.5240   25.7970 C   0  0  0  0  0  1  0  0  0  0  0  0
  -25.5930  -33.9140   24.2060 N   0  0  0  0  0  0  0  0  0  0  0  0
  -25.9100  -34.9690   23.4430 C   0  0  0  0  0  0  0  0  0  0  0  0
  -26.5620  -34.8680   22.4000 O   0  0  0  0  0  0  0  0  0  0  0  0
  -25.0170  -34.0660   25.0220 H   0  0  0  0  0  0  0  0  0  0  0  0
  -24.1680  -36.7550   23.1270 C   0  0  0  0  0  1  0  0  0  0  0  0
  -25.4290  -36.3570   23.9100 C   0  0  0  0  0  3  0  0  0  0  0  0
  -27.5810  -37.2460   24.6870 C   0  0  0  0  0  1  0  0  0  0  0  0
  -26.4560  -37.4120   23.7720 N   0  0  0  0  0  0  0  0  0  0  0  0
  -26.0500  -38.3320   23.9300 H   0  0  0  0  0  0  0  0  0  0  0  0
  -29.6890  -21.8120   20.6430 C   0  0  0  0  0  2  0  0  0  0  0  0
  -29.1370  -20.3870   20.3270 C   0  0  0  0  0  2  0  0  0  0  0  0
  -29.9750  -19.3330   20.8350 O   0  0  0  0  0  0  0  0  0  0  0  0
  -29.5380  -18.0010   20.5020 C   0  0  0  0  0  2  0  0  0  0  0  0
  -30.4260  -16.9260   21.1950 C   0  0  0  0  0  2  0  0  0  0  0  0
  -30.6540  -14.5050   20.4970 C   0  0  0  0  0  0  0  0  0  0  0  0
  -30.3650  -12.3360   19.3550 C   0  0  0  0  0  2  0  0  0  0  0  0
  -29.4300  -12.5250   18.1440 C   0  0  0  0  0  2  0  0  0  0  0  0
  -27.9520  -12.3920   18.5680 C   0  0  0  0  0  2  0  0  0  0  0  0
  -27.6090  -13.2370   19.8250 C   0  0  0  0  0  3  0  0  0  0  0  0
  -28.6570  -13.0210   20.9390 C   0  0  0  0  0  2  0  0  0  0  0  0
  -29.9820  -13.3270   20.3740 N   0  0  0  0  0  0  0  0  0  0  0  0
  -31.7840  -14.6780   20.0380 O   0  0  0  0  0  0  0  0  0  0  0  0
  -29.9570  -15.5320   21.0260 N   0  0  0  0  0  0  0  0  0  0  0  0
  -29.0290  -15.3170   21.3620 H   0  0  0  0  0  0  0  0  0  0  0  0
  -25.2090  -13.8530   20.5220 C   0  0  0  0  0  0  0  0  0  0  0  0
  -24.1370  -13.0870   20.8930 C   0  0  0  0  0  0  0  0  0  0  0  0
  -24.5940  -11.7340   20.8720 C   0  0  0  0  0  0  0  0  0  0  0  0
  -26.2520  -12.9680   20.2990 N   0  0  0  0  0  0  0  0  0  0  0  0
  -25.8860  -11.6880   20.5690 N   0  0  0  0  0  0  0  0  0  0  0  0
  -23.8620  -10.4760   21.0680 C   0  0  0  0  0  0  0  0  0  0  0  0
  -24.3040   -9.5000   21.9890 C   0  0  0  0  0  3  0  0  0  0  0  0
  -23.5730   -8.3060   22.1720 C   0  0  0  0  0  3  0  0  0  0  0  0
  -22.3890   -8.0790   21.4310 C   0  0  0  0  0  0  0  0  0  0  0  0
  -21.9680   -9.0430   20.4980 C   0  0  0  0  0  3  0  0  0  0  0  0
  -22.6980  -10.2280   20.3140 C   0  0  0  0  0  3  0  0  0  0  0  0
  -21.6290   -6.9370   21.5240 O   0  0  0  0  0  0  0  0  0  0  0  0
  -21.6080   -6.1770   22.6650 C   0  0  0  0  0  0  0  0  0  0  0  0
  -21.2310   -6.7190   23.9150 C   0  0  0  0  0  3  0  0  0  0  0  0
  -21.1550   -5.8860   25.0490 C   0  0  0  0  0  3  0  0  0  0  0  0
  -21.4480   -4.5140   24.9360 C   0  0  0  0  0  0  0  0  0  0  0  0
  -21.8170   -3.9720   23.6920 C   0  0  0  0  0  3  0  0  0  0  0  0
  -21.8950   -4.8020   22.5600 C   0  0  0  0  0  0  0  0  0  0  0  0
  -22.2320   -4.2710   21.3590 F   0  0  0  0  0  0  0  0  0  0  0  0
  -21.3680   -3.7100   26.0230 F   0  0  0  0  0  0  0  0  0  0  0  0
  -22.7390  -13.5730   21.1520 C   0  0  0  0  0  0  0  0  0  0  0  0
  -22.0030  -12.8870   22.0210 N   0  0  0  0  0  0  0  0  0  0  0  0
  -22.3050  -14.5940   20.6220 O   0  0  0  0  0  0  0  0  0  0  0  0
  -22.3650  -12.0630   22.4770 H   0  0  0  0  0  0  0  0  0  0  0  0
  -21.0650  -13.1930   22.2340 H   0  0  0  0  0  0  0  0  0  0  0  0
  -25.3800  -15.2220   20.3380 N   0  0  0  0  0  0  0  0  0  0  0  0
  -24.6170  -15.8820   20.4410 H   0  0  0  0  0  0  0  0  0  0  0  0
  -26.2280  -15.6530   19.9930 H   0  0  0  0  0  0  0  0  0  0  0  0
  1  2  1  0
  1 45  1  0
  3  4  1  0
  3  2  1  0
  5 16  2  0
  6  4  1  0
  6 11  1  0
  7 15  1  0
  7 17  1  0
  8 14  1  0
  8 10  1  0
  9 15  1  0
 10  9  1  0
 11 10  2  0
 12 13  1  0
 12  6  2  0
 13  8  2  0
 14  7  1  0
 15  5  1  0
 17 19  2  0
 18 17  1  0
 20 18  1  0
 21 30  2  0
 21 26  1  0
 22 18  1  0
 22 26  1  0
 23 22  1  0
 24 25  1  0
 24 23  1  0
 25 21  1  0
 26 27  2  0
 27 28  1  0
 29 28  2  0
 30 29  1  0
 31  5  1  0
 31 36  1  0
 31 32  1  0
 32 35  1  1
 32 33  1  0
 34 32  1  0
 36 39  1  0
 37 41  1  0
 37 36  1  0
 38 37  2  0
 41 40  1  0
 43 41  1  0
 43 44  1  0
 43 42  1  0
 46 45  1  0
 46 47  1  0
 48 47  1  0
 48 49  1  0
 50 58  1  0
 51 56  1  0
 52 53  1  0
 52 51  1  0
 54 53  1  0
 54 63  1  0
 54 55  1  0
 56 50  1  0
 56 55  1  0
 57 50  2  0
 58 49  1  0
 58 59  1  0
 60 61  2  0
 61 80  1  0
 62 61  1  0
 62 65  1  0
 63 60  1  0
 63 64  1  0
 64 62  2  0
 65 66  1  0
 66 67  2  0
 68 71  1  0
 68 67  1  0
 69 68  2  0
 70 69  1  0
 70 65  2  0
 71 72  1  0
 72 73  1  0
 73 74  2  0
 75 74  1  0
 75 79  1  0
 76 75  2  0
 77 72  2  0
 77 76  1  0
 78 77  1  0
 80 81  1  0
 81 84  1  0
 81 83  1  0
 82 80  2  0
 85 86  1  0
 85 60  1  0
 87 85  1  0
M  ISO  4   3 101   4 101  50 100  58 100
M  END
>  <TORSDO>  (82) 
F 23

>  <SCORE>  (82) 
-12.712

>  <name>  (82) 
82

>  <ligand_id>  (82) 
82

>  <original_smiles>  (82) 
[H]c1c([H])c([H])c2c(c1[H])C([H])([H])C([H])([H])C([H])([H])C2([H])N([H])C(=O)C1([H])N(C(=O)C([H])(N([H])C(=O)C([H])(N([H])C([H])([H])[H])C([H])([H])[H])C(C([H])([H])[H])(C([H])([H])[H])C([H])([H])[H])C([H])([H])c2c([H])c(OC([H])([H])C([H])([H])OC([H])([H])C([H])([H])OC([H])([H])C([H])([H])N([H])C(=O)N3C([H])([H])C([H])([H])C([H])([H])C([H])(n4nc(-c5c([H])c([H])c(Oc6c([H])c([H])c(F)c([H])c6F)c([H])c5[H])c(C(=O)N([H])[H])c4N([H])[H])C3([H])[H])c([H])c([H])c2C1([H])[H]

>  <smiles>  (82) 
[H]c1c([H])c([H])c2c(c1[H])C([H])([H])C([H])([H])C([H])([H])C2([H])N([H])C(=O)C1([H])N(C(=O)C([H])(N([H])C(=O)C([H])(N([H])C([H])([H])[H])C([H])([H])[H])C(C([H])([H])[H])(C([H])([H])[H])C([H])([H])[H])C([H])([H])c2c([H])c(OC([H])([H])C([H])([H])OC([H])([H])C([H])([H])OC([H])([H])C([H])([H])N([H])C(=O)N3C([H])([H])C([H])([H])C([H])([H])C([H])(n4nc(-c5c([H])c([H])c(Oc6c([H])c([H])c(F)c([H])c6F)c([H])c5[H])c(C(=O)N([H])[H])c4N([H])[H])C3([H])[H])c([H])c([H])c2C1([H])[H]

$$$$
83:0:0
     RDKit          3D

101108  0  0  1  0  0  0  0  0999 V2000
  -28.2270  -24.5440   22.2100 C   0  0  0  0  0  3  0  0  0  0  0  0
  -28.2160  -22.9890   22.2660 C   0  0  0  0  0  0  0  0  0  0  0  0
  -28.6150  -22.3110   21.1770 N   0  0  0  0  0  0  0  0  0  0  0  0
  -27.8660  -22.4110   23.2990 O   0  0  0  0  0  0  0  0  0  0  0  0
  -28.9040  -22.8580   20.3790 H   0  0  0  0  0  0  0  0  0  0  0  0
  -28.7670  -20.8580   21.0800 C   0  0  0  0  0  2  0  0  0  0  0  0
  -29.7530  -20.4730   19.9600 C   0  0  0  0  0  2  0  0  0  0  0  0
  -30.0750  -19.0930   20.0960 O   0  0  0  0  0  0  0  0  0  0  0  0
  -31.3250  -18.7190   19.5240 C   0  0  0  0  0  2  0  0  0  0  0  0
  -32.0270  -17.8220   20.5540 C   0  0  0  0  0  2  0  0  0  0  0  0
  -32.0610  -15.4000   19.9930 C   0  0  0  0  0  0  0  0  0  0  0  0
  -31.8560  -13.0010   19.4450 C   0  0  0  0  0  2  0  0  0  0  0  0
  -30.9110  -12.7810   18.2500 C   0  0  0  0  0  2  0  0  0  0  0  0
  -29.4390  -12.7130   18.7000 C   0  0  0  0  0  2  0  0  0  0  0  0
  -29.0510  -13.8600   19.6720 C   0  0  0  0  0  3  0  0  0  0  0  0
  -30.1040  -14.0180   20.7900 C   0  0  0  0  0  2  0  0  0  0  0  0
  -31.4210  -14.2150   20.1580 N   0  0  0  0  0  0  0  0  0  0  0  0
  -33.1040  -15.5220   19.3400 O   0  0  0  0  0  0  0  0  0  0  0  0
  -31.4900  -16.4600   20.5760 N   0  0  0  0  0  0  0  0  0  0  0  0
  -30.6120  -16.3140   21.0550 H   0  0  0  0  0  0  0  0  0  0  0  0
  -26.7980  -14.6030   20.6710 C   0  0  0  0  0  0  0  0  0  0  0  0
  -25.6660  -13.9020   21.0000 C   0  0  0  0  0  0  0  0  0  0  0  0
  -25.9520  -12.5340   20.7100 C   0  0  0  0  0  0  0  0  0  0  0  0
  -27.7070  -13.6620   20.2140 N   0  0  0  0  0  0  0  0  0  0  0  0
  -27.2030  -12.4030   20.2860 N   0  0  0  0  0  0  0  0  0  0  0  0
  -25.0870  -11.3460   20.7510 C   0  0  0  0  0  0  0  0  0  0  0  0
  -25.4030  -10.2190   21.5450 C   0  0  0  0  0  3  0  0  0  0  0  0
  -24.5380   -9.1030   21.5800 C   0  0  0  0  0  3  0  0  0  0  0  0
  -23.3440   -9.1050   20.8190 C   0  0  0  0  0  0  0  0  0  0  0  0
  -23.0490  -10.2170   20.0130 C   0  0  0  0  0  3  0  0  0  0  0  0
  -23.9130  -11.3250   19.9750 C   0  0  0  0  0  3  0  0  0  0  0  0
  -22.4600   -8.0550   20.7720 O   0  0  0  0  0  0  0  0  0  0  0  0
  -22.1450   -7.3290   21.8930 C   0  0  0  0  0  0  0  0  0  0  0  0
  -21.5940   -7.9340   23.0430 C   0  0  0  0  0  3  0  0  0  0  0  0
  -21.2240   -7.1430   24.1490 C   0  0  0  0  0  3  0  0  0  0  0  0
  -21.3950   -5.7460   24.1020 C   0  0  0  0  0  0  0  0  0  0  0  0
  -21.9380   -5.1400   22.9550 C   0  0  0  0  0  3  0  0  0  0  0  0
  -22.3100   -5.9300   21.8530 C   0  0  0  0  0  0  0  0  0  0  0  0
  -22.8140   -5.3380   20.7440 F   0  0  0  0  0  0  0  0  0  0  0  0
  -21.0320   -4.9840   25.1590 F   0  0  0  0  0  0  0  0  0  0  0  0
  -24.3620  -14.4810   21.4710 C   0  0  0  0  0  0  0  0  0  0  0  0
  -23.6170  -13.7300   22.2750 N   0  0  0  0  0  0  0  0  0  0  0  0
  -24.0200  -15.6230   21.1670 O   0  0  0  0  0  0  0  0  0  0  0  0
  -23.9130  -12.8040   22.5450 H   0  0  0  0  0  0  0  0  0  0  0  0
  -22.7450  -14.0890   22.6350 H   0  0  0  0  0  0  0  0  0  0  0  0
  -27.1280  -15.9550   20.7080 N   0  0  0  0  0  0  0  0  0  0  0  0
  -26.4750  -16.6680   21.0120 H   0  0  0  0  0  0  0  0  0  0  0  0
  -28.0270  -16.3310   20.4300 H   0  0  0  0  0  0  0  0  0  0  0  0
  -29.2470  -25.8190   20.3010 C   0  0  0  0  0  0  0  0  0  0  0  0
  -28.3040  -25.0130   20.8160 N   0  0  0  0  0  0  0  0  0  0  0  0
  -30.1910  -26.2470   20.9730 O   0  0  0  0  0  0  0  0  0  0  0  0
  -27.5560  -24.7180   20.2030 H   0  0  0  0  0  0  0  0  0  0  0  0
  -29.1320  -26.1880   18.8150 C   0  0  0  0  0  2  0  0  0  0  0  0
  -28.9240  -27.6020   18.6550 O   0  0  0  0  0  0  0  0  0  0  0  0
  -24.9310  -30.9150   23.4880 C   0  0  0  0  0  0  0  0  0  0  0  0
  -27.6810  -28.1210   18.9420 C   0  0  0  0  0  0  0  0  0  0  0  0
  -23.7100  -30.0320   21.5260 C   0  0  0  0  0  3  0  0  0  0  0  0
  -25.1680  -29.2450   19.5890 C   0  0  0  0  0  0  0  0  0  0  0  0
  -26.1640  -30.7300   21.3320 C   0  0  0  0  0  2  0  0  0  0  0  0
  -26.3200  -29.6740   20.2590 C   0  0  0  0  0  0  0  0  0  0  0  0
  -27.5780  -29.1180   19.9340 C   0  0  0  0  0  3  0  0  0  0  0  0
  -26.5100  -27.7180   18.2570 C   0  0  0  0  0  3  0  0  0  0  0  0
  -25.2570  -28.2650   18.5860 C   0  0  0  0  0  3  0  0  0  0  0  0
  -23.8610  -29.8870   19.9890 C   0  0  0  0  0  2  0  0  0  0  0  0
  -24.9580  -30.5540   22.1750 N   0  0  0  0  0  0  0  0  0  0  0  0
  -23.8810  -30.8650   24.1470 O   0  0  0  0  0  0  0  0  0  0  0  0
  -23.2310  -28.6850   22.1130 C   0  0  0  0  0  0  0  0  0  0  0  0
  -21.9620  -28.3340   21.8520 N   0  0  0  0  0  0  0  0  0  0  0  0
  -23.9960  -27.9750   22.7680 O   0  0  0  0  0  0  0  0  0  0  0  0
  -21.3880  -28.9810   21.3310 H   0  0  0  0  0  0  0  0  0  0  0  0
  -18.8840  -26.4600   21.6750 C   0  0  0  0  0  0  0  0  0  0  0  0
  -21.3190  -27.0890   22.2680 C   0  0  0  0  0  3  0  0  0  0  0  0
  -21.7400  -25.9130   21.3560 C   0  0  0  0  0  2  0  0  0  0  0  0
  -20.7770  -25.6810   20.1860 C   0  0  0  0  0  2  0  0  0  0  0  0
  -19.3630  -25.3950   20.7010 C   0  0  0  0  0  2  0  0  0  0  0  0
  -19.8020  -27.2620   22.4010 C   0  0  0  0  0  0  0  0  0  0  0  0
  -19.3060  -28.2550   23.2720 C   0  0  0  0  0  3  0  0  0  0  0  0
  -17.9210  -28.4520   23.4240 C   0  0  0  0  0  3  0  0  0  0  0  0
  -17.0150  -27.6440   22.7190 C   0  0  0  0  0  3  0  0  0  0  0  0
  -17.4960  -26.6480   21.8490 C   0  0  0  0  0  3  0  0  0  0  0  0
  -26.2060  -31.4370   24.2220 C   0  0  0  0  0  3  0  0  0  0  0  0
  -25.8910  -32.7720   24.7490 N   0  0  0  0  0  0  0  0  0  0  0  0
  -26.3000  -33.9220   24.1940 C   0  0  0  0  0  0  0  0  0  0  0  0
  -27.0460  -33.9630   23.2120 O   0  0  0  0  0  0  0  0  0  0  0  0
  -25.2260  -32.8150   25.5070 H   0  0  0  0  0  0  0  0  0  0  0  0
  -24.6640  -35.8190   23.9810 C   0  0  0  0  0  1  0  0  0  0  0  0
  -25.8010  -35.2330   24.8320 C   0  0  0  0  0  3  0  0  0  0  0  0
  -27.8760  -35.8590   25.9820 C   0  0  0  0  0  1  0  0  0  0  0  0
  -26.8660  -36.2460   25.0010 N   0  0  0  0  0  0  0  0  0  0  0  0
  -26.4750  -37.1400   25.2840 H   0  0  0  0  0  0  0  0  0  0  0  0
  -26.6970  -30.4820   25.3780 C   0  0  1  0  0  0  0  0  0  0  0  0
  -25.5770  -30.0600   26.3560 C   0  0  0  0  0  1  0  0  0  0  0  0
  -27.3240  -29.1950   24.7920 C   0  0  0  0  0  1  0  0  0  0  0  0
  -27.8090  -31.1820   26.1950 C   0  0  0  0  0  1  0  0  0  0  0  0
  -27.0700  -25.2420   23.0120 C   0  0  0  0  0  3  0  0  0  0  0  0
  -27.5250  -25.5880   24.3750 N   0  0  0  0  0  4  0  0  0  0  0  0
  -28.1450  -26.3770   24.3690 H   0  0  0  0  0  0  0  0  0  0  0  0
  -28.0270  -24.7920   24.7510 H   0  0  0  0  0  0  0  0  0  0  0  0
  -26.7500  -25.7880   24.9810 H   0  0  0  0  0  0  0  0  0  0  0  0
  -25.2060  -26.2190   21.4720 C   0  0  0  0  0  1  0  0  0  0  0  0
  -26.4570  -26.4990   22.3230 C   0  0  0  0  0  2  0  0  0  0  0  0
  1  2  1  0
  1 95  1  0
  2  4  2  0
  3  2  1  0
  5  3  1  0
  6  3  1  0
  7  8  1  0
  7  6  1  0
  9  8  1  0
  9 10  1  0
 10 19  1  0
 11 17  1  0
 11 19  1  0
 12 17  1  0
 13 14  1  0
 13 12  1  0
 15 14  1  0
 15 24  1  0
 15 16  1  0
 17 16  1  0
 18 11  2  0
 19 20  1  0
 21 46  1  0
 21 22  2  0
 22 41  1  0
 23 26  1  0
 23 22  1  0
 24 25  1  0
 24 21  1  0
 25 23  2  0
 26 27  1  0
 27 28  2  0
 29 28  1  0
 30 29  2  0
 31 30  1  0
 31 26  2  0
 32 29  1  0
 32 33  1  0
 33 34  1  0
 34 35  2  0
 36 35  1  0
 36 40  1  0
 37 36  2  0
 38 33  2  0
 38 37  1  0
 39 38  1  0
 41 42  1  0
 42 44  1  0
 42 45  1  0
 43 41  2  0
 46 47  1  0
 48 46  1  0
 49 50  1  0
 49 51  2  0
 50  1  1  0
 52 50  1  0
 53 49  1  0
 54 53  1  0
 54 56  1  0
 55 66  2  0
 56 61  1  0
 57 67  1  0
 57 65  1  0
 58 64  1  0
 58 60  1  0
 59 65  1  0
 60 59  1  0
 61 60  2  0
 62 63  1  0
 62 56  2  0
 63 58  2  0
 64 57  1  0
 65 55  1  0
 67 69  2  0
 68 67  1  0
 70 68  1  0
 71 80  2  0
 71 76  1  0
 72 68  1  0
 72 76  1  0
 73 72  1  0
 74 75  1  0
 74 73  1  0
 75 71  1  0
 76 77  2  0
 77 78  1  0
 79 78  2  0
 80 79  1  0
 81 55  1  0
 81 82  1  0
 81 91  1  0
 82 85  1  0
 83 82  1  0
 83 87  1  0
 84 83  2  0
 87 86  1  0
 87 89  1  0
 89 90  1  0
 89 88  1  0
 91 94  1  1
 91 92  1  0
 93 91  1  0
 95101  1  0
 95 96  1  0
 96 98  1  0
 96 99  1  0
 97 96  1  0
100101  1  0
M  ISO  4  11 100  19 100  53 101  54 101
M  END
>  <TORSDO>  (83) 
F 27

>  <SCORE>  (83) 
-4.596

>  <name>  (83) 
83

>  <ligand_id>  (83) 
83

>  <original_smiles>  (83) 
[H]c1c([H])c([H])c2c(c1[H])C([H])([H])C([H])([H])C([H])([H])C2([H])N([H])C(=O)C1([H])N(C(=O)C([H])(N([H])C(=O)C([H])(N([H])C([H])([H])[H])C([H])([H])[H])C(C([H])([H])[H])(C([H])([H])[H])C([H])([H])[H])C([H])([H])c2c([H])c(OC([H])([H])C(=O)N([H])C([H])(C(=O)N([H])C([H])([H])C([H])([H])OC([H])([H])C([H])([H])N([H])C(=O)N3C([H])([H])C([H])([H])C([H])([H])C([H])(n4nc(-c5c([H])c([H])c(Oc6c([H])c([H])c(F)c([H])c6F)c([H])c5[H])c(C(=O)N([H])[H])c4N([H])[H])C3([H])[H])C([H])(C([H])([H])C([H])([H])[H])[N+]([H])([H])[H])c([H])c([H])c2C1([H])[H]

>  <smiles>  (83) 
[H]c1c([H])c([H])c2c(c1[H])C([H])([H])C([H])([H])C([H])([H])C2([H])N([H])C(=O)C1([H])N(C(=O)C([H])(N([H])C(=O)C([H])(N([H])C([H])([H])[H])C([H])([H])[H])C(C([H])([H])[H])(C([H])([H])[H])C([H])([H])[H])C([H])([H])c2c([H])c(OC([H])([H])C(=O)N([H])C([H])(C(=O)N([H])C([H])([H])C([H])([H])OC([H])([H])C([H])([H])N([H])C(=O)N3C([H])([H])C([H])([H])C([H])([H])C([H])(n4nc(-c5c([H])c([H])c(Oc6c([H])c([H])c(F)c([H])c6F)c([H])c5[H])c(C(=O)N([H])[H])c4N([H])[H])C3([H])[H])C([H])(C([H])([H])C([H])([H])[H])[N+]([H])([H])[H])c([H])c([H])c2C1([H])[H]

$$$$
84:0:0
     RDKit          3D

 98105  0  0  1  0  0  0  0  0999 V2000
  -27.2860  -22.8910   18.7470 C   0  0  0  0  0  3  0  0  0  0  0  0
  -28.5990  -24.9730   18.2620 C   0  0  0  0  0  0  0  0  0  0  0  0
  -27.9880  -24.1250   19.0960 N   0  0  0  0  0  0  0  0  0  0  0  0
  -28.6550  -24.7700   17.0470 O   0  0  0  0  0  0  0  0  0  0  0  0
  -28.0430  -24.3320   20.0860 H   0  0  0  0  0  0  0  0  0  0  0  0
  -29.2550  -26.2260   18.8860 C   0  0  0  0  0  3  0  0  0  0  0  0
  -30.5110  -28.4160   18.3630 C   0  0  0  0  0  1  0  0  0  0  0  0
  -29.4590  -27.3980   17.8940 C   0  0  0  0  0  2  0  0  0  0  0  0
  -28.6260  -26.6210   20.1220 O   0  0  0  0  0  0  0  0  0  0  0  0
  -24.6820  -31.7100   23.1360 C   0  0  0  0  0  0  0  0  0  0  0  0
  -27.4340  -27.3140   20.0890 C   0  0  0  0  0  0  0  0  0  0  0  0
  -23.5210  -30.2980   21.4690 C   0  0  0  0  0  3  0  0  0  0  0  0
  -25.0160  -28.7770   20.0740 C   0  0  0  0  0  0  0  0  0  0  0  0
  -26.0450  -30.6800   21.3260 C   0  0  0  0  0  2  0  0  0  0  0  0
  -26.1540  -29.3100   20.6930 C   0  0  0  0  0  0  0  0  0  0  0  0
  -27.3580  -28.5760   20.7170 C   0  0  0  0  0  3  0  0  0  0  0  0
  -26.2720  -26.7860   19.4840 C   0  0  0  0  0  3  0  0  0  0  0  0
  -25.0680  -27.5090   19.4750 C   0  0  0  0  0  3  0  0  0  0  0  0
  -23.7640  -29.6230   20.0930 C   0  0  0  0  0  2  0  0  0  0  0  0
  -24.7670  -30.9110   22.0360 N   0  0  0  0  0  0  0  0  0  0  0  0
  -23.5880  -31.9740   23.6540 O   0  0  0  0  0  0  0  0  0  0  0  0
  -22.8610  -29.2700   22.4140 C   0  0  0  0  0  0  0  0  0  0  0  0
  -21.5380  -29.0940   22.2750 N   0  0  0  0  0  0  0  0  0  0  0  0
  -23.5360  -28.6340   23.2300 O   0  0  0  0  0  0  0  0  0  0  0  0
  -21.0560  -29.6590   21.5890 H   0  0  0  0  0  0  0  0  0  0  0  0
  -18.1480  -27.9410   22.7590 C   0  0  0  0  0  0  0  0  0  0  0  0
  -20.7090  -28.1530   23.0290 C   0  0  0  0  0  3  0  0  0  0  0  0
  -20.7890  -26.7330   22.4250 C   0  0  0  0  0  2  0  0  0  0  0  0
  -19.6800  -26.4460   21.4090 C   0  0  0  0  0  2  0  0  0  0  0  0
  -18.3020  -26.6010   22.0590 C   0  0  0  0  0  2  0  0  0  0  0  0
  -19.2800  -28.6770   23.2010 C   0  0  0  0  0  0  0  0  0  0  0  0
  -19.0830  -29.9340   23.8140 C   0  0  0  0  0  3  0  0  0  0  0  0
  -17.7870  -30.4530   23.9910 C   0  0  0  0  0  3  0  0  0  0  0  0
  -16.6690  -29.7140   23.5670 C   0  0  0  0  0  3  0  0  0  0  0  0
  -16.8510  -28.4590   22.9570 C   0  0  0  0  0  3  0  0  0  0  0  0
  -25.9520  -32.3490   23.7820 C   0  0  0  0  0  3  0  0  0  0  0  0
  -26.4700  -31.5620   25.0460 C   0  0  1  0  0  0  0  0  0  0  0  0
  -25.3720  -31.2820   26.0980 C   0  0  0  0  0  1  0  0  0  0  0  0
  -27.0810  -30.2030   24.6290 C   0  0  0  0  0  1  0  0  0  0  0  0
  -27.6000  -32.3610   25.7360 C   0  0  0  0  0  1  0  0  0  0  0  0
  -25.6170  -33.7360   24.1330 N   0  0  0  0  0  0  0  0  0  0  0  0
  -25.9350  -34.8050   23.3910 C   0  0  0  0  0  0  0  0  0  0  0  0
  -26.6140  -34.7300   22.3640 O   0  0  0  0  0  0  0  0  0  0  0  0
  -25.0140  -33.8670   24.9320 H   0  0  0  0  0  0  0  0  0  0  0  0
  -24.1750  -36.5680   23.0510 C   0  0  0  0  0  1  0  0  0  0  0  0
  -25.4180  -36.1770   23.8660 C   0  0  0  0  0  3  0  0  0  0  0  0
  -27.5290  -37.0880   24.7270 C   0  0  0  0  0  1  0  0  0  0  0  0
  -26.4300  -37.2500   23.7780 N   0  0  0  0  0  0  0  0  0  0  0  0
  -26.0050  -38.1590   23.9390 H   0  0  0  0  0  0  0  0  0  0  0  0
  -27.6530  -21.7830   19.7460 C   0  0  0  0  0  0  0  0  0  0  0  0
  -27.5230  -20.5230   19.3140 N   0  0  0  0  0  0  0  0  0  0  0  0
  -28.0320  -22.0650   20.8860 O   0  0  0  0  0  0  0  0  0  0  0  0
  -27.1860  -20.3930   18.3690 H   0  0  0  0  0  0  0  0  0  0  0  0
  -27.7980  -19.3200   20.0880 C   0  0  0  0  0  2  0  0  0  0  0  0
  -29.2890  -18.9510   20.0330 C   0  0  0  0  0  2  0  0  0  0  0  0
  -29.6050  -17.6720   20.8210 C   0  0  0  0  0  2  0  0  0  0  0  0
  -31.1030  -17.3290   20.7950 C   0  0  0  0  0  2  0  0  0  0  0  0
  -31.4640  -16.0750   21.6120 C   0  0  0  0  0  2  0  0  0  0  0  0
  -31.0380  -14.1240   20.1200 C   0  0  0  0  0  0  0  0  0  0  0  0
  -30.5380  -12.0260   18.9240 C   0  0  0  0  0  2  0  0  0  0  0  0
  -29.5350  -12.2410   17.7770 C   0  0  0  0  0  2  0  0  0  0  0  0
  -28.0870  -12.1510   18.2930 C   0  0  0  0  0  2  0  0  0  0  0  0
  -27.8490  -13.0350   19.5460 C   0  0  0  0  0  3  0  0  0  0  0  0
  -28.9480  -12.7950   20.6020 C   0  0  0  0  0  2  0  0  0  0  0  0
  -30.2640  -13.0190   19.9730 N   0  0  0  0  0  0  0  0  0  0  0  0
  -32.0000  -14.3850   19.3920 O   0  0  0  0  0  0  0  0  0  0  0  0
  -30.7310  -14.8900   21.1740 N   0  0  0  0  0  0  0  0  0  0  0  0
  -29.9520  -14.5880   21.7400 H   0  0  0  0  0  0  0  0  0  0  0  0
  -25.5260  -13.7450   20.4020 C   0  0  0  0  0  0  0  0  0  0  0  0
  -24.4460  -13.0170   20.8270 C   0  0  0  0  0  0  0  0  0  0  0  0
  -24.8390  -11.6470   20.7500 C   0  0  0  0  0  0  0  0  0  0  0  0
  -26.5130  -12.8200   20.0990 N   0  0  0  0  0  0  0  0  0  0  0  0
  -26.1050  -11.5520   20.3620 N   0  0  0  0  0  0  0  0  0  0  0  0
  -24.0680  -10.4170   20.9690 C   0  0  0  0  0  0  0  0  0  0  0  0
  -24.4940   -9.4310   21.8850 C   0  0  0  0  0  3  0  0  0  0  0  0
  -23.7260   -8.2640   22.0920 C   0  0  0  0  0  3  0  0  0  0  0  0
  -22.5160   -8.0760   21.3810 C   0  0  0  0  0  0  0  0  0  0  0  0
  -22.1090   -9.0500   20.4530 C   0  0  0  0  0  3  0  0  0  0  0  0
  -22.8760  -10.2080   20.2450 C   0  0  0  0  0  3  0  0  0  0  0  0
  -21.7190   -6.9640   21.4970 O   0  0  0  0  0  0  0  0  0  0  0  0
  -21.6700   -6.2310   22.6560 C   0  0  0  0  0  0  0  0  0  0  0  0
  -21.2980   -6.8090   23.8890 C   0  0  0  0  0  3  0  0  0  0  0  0
  -21.1940   -6.0050   25.0410 C   0  0  0  0  0  3  0  0  0  0  0  0
  -21.4520   -4.6240   24.9620 C   0  0  0  0  0  0  0  0  0  0  0  0
  -21.8160   -4.0440   23.7340 C   0  0  0  0  0  3  0  0  0  0  0  0
  -21.9220   -4.8450   22.5830 C   0  0  0  0  0  0  0  0  0  0  0  0
  -22.2530   -4.2790   21.3980 F   0  0  0  0  0  0  0  0  0  0  0  0
  -21.3430   -3.8480   26.0660 F   0  0  0  0  0  0  0  0  0  0  0  0
  -23.0920  -13.5540   21.1930 C   0  0  0  0  0  0  0  0  0  0  0  0
  -22.3890  -12.8790   22.0960 N   0  0  0  0  0  0  0  0  0  0  0  0
  -22.6700  -14.6060   20.7140 O   0  0  0  0  0  0  0  0  0  0  0  0
  -22.7430  -12.0270   22.5040 H   0  0  0  0  0  0  0  0  0  0  0  0
  -21.4820  -13.2200   22.3830 H   0  0  0  0  0  0  0  0  0  0  0  0
  -25.7450  -15.1090   20.2330 N   0  0  0  0  0  0  0  0  0  0  0  0
  -25.0210  -15.8000   20.3950 H   0  0  0  0  0  0  0  0  0  0  0  0
  -26.6030  -15.5080   19.8720 H   0  0  0  0  0  0  0  0  0  0  0  0
  -25.3140  -23.8990   17.3870 C   0  0  0  0  0  1  0  0  0  0  0  0
  -25.7590  -23.1230   18.6370 C   0  0  0  0  0  2  0  0  0  0  0  0
  1 98  1  0
  1  3  1  0
  1 50  1  0
  2  6  1  0
  2  3  1  0
  3  5  1  0
  4  2  2  0
  6  8  1  0
  6  9  1  0
  8  7  1  0
 10 21  2  0
 11  9  1  0
 11 16  1  0
 12 20  1  0
 12 22  1  0
 13 19  1  0
 13 15  1  0
 14 20  1  0
 15 16  2  0
 15 14  1  0
 17 11  2  0
 18 17  1  0
 18 13  2  0
 19 12  1  0
 20 10  1  0
 22 24  2  0
 23 22  1  0
 25 23  1  0
 26 35  2  0
 26 31  1  0
 27 23  1  0
 27 31  1  0
 28 27  1  0
 29 30  1  0
 29 28  1  0
 30 26  1  0
 31 32  2  0
 32 33  1  0
 34 33  2  0
 35 34  1  0
 36 10  1  0
 36 41  1  0
 36 37  1  0
 37 40  1  1
 37 38  1  0
 39 37  1  0
 41 44  1  0
 42 46  1  0
 42 41  1  0
 43 42  2  0
 46 45  1  0
 48 46  1  0
 48 49  1  0
 48 47  1  0
 50 52  2  0
 51 50  1  0
 51 54  1  0
 53 51  1  0
 55 54  1  0
 55 56  1  0
 57 56  1  0
 57 58  1  0
 59 67  1  0
 60 65  1  0
 61 62  1  0
 61 60  1  0
 63 62  1  0
 63 72  1  0
 63 64  1  0
 65 59  1  0
 65 64  1  0
 66 59  2  0
 67 58  1  0
 67 68  1  0
 69 70  2  0
 70 89  1  0
 71 70  1  0
 71 74  1  0
 72 73  1  0
 72 69  1  0
 73 71  2  0
 74 75  1  0
 75 76  2  0
 77 80  1  0
 77 76  1  0
 78 77  2  0
 79 78  1  0
 79 74  2  0
 80 81  1  0
 81 82  1  0
 82 83  2  0
 84 83  1  0
 84 88  1  0
 85 84  2  0
 86 81  2  0
 86 85  1  0
 87 86  1  0
 89 90  1  0
 90 93  1  0
 90 92  1  0
 91 89  2  0
 94 95  1  0
 94 69  1  0
 96 94  1  0
 97 98  1  0
M  ISO  4   6 101   9 101  59 100  67 100
M  END
>  <TORSDO>  (84) 
F 26

>  <SCORE>  (84) 
-11.702

>  <name>  (84) 
84

>  <ligand_id>  (84) 
84

>  <original_smiles>  (84) 
[H]c1c([H])c([H])c2c(c1[H])C([H])([H])C([H])([H])C([H])([H])C2([H])N([H])C(=O)C1([H])N(C(=O)C([H])(N([H])C(=O)C([H])(N([H])C([H])([H])[H])C([H])([H])[H])C(C([H])([H])[H])(C([H])([H])[H])C([H])([H])[H])C([H])([H])c2c([H])c(OC([H])(C(=O)N([H])C([H])(C(=O)N([H])C([H])([H])C([H])([H])C([H])([H])C([H])([H])C([H])([H])N([H])C(=O)N3C([H])([H])C([H])([H])C([H])([H])C([H])(n4nc(-c5c([H])c([H])c(Oc6c([H])c([H])c(F)c([H])c6F)c([H])c5[H])c(C(=O)N([H])[H])c4N([H])[H])C3([H])[H])C([H])([H])C([H])([H])[H])C([H])([H])C([H])([H])[H])c([H])c([H])c2C1([H])[H]

>  <smiles>  (84) 
[H]c1c([H])c([H])c2c(c1[H])C([H])([H])C([H])([H])C([H])([H])C2([H])N([H])C(=O)C1([H])N(C(=O)C([H])(N([H])C(=O)C([H])(N([H])C([H])([H])[H])C([H])([H])[H])C(C([H])([H])[H])(C([H])([H])[H])C([H])([H])[H])C([H])([H])c2c([H])c(OC([H])(C(=O)N([H])C([H])(C(=O)N([H])C([H])([H])C([H])([H])C([H])([H])C([H])([H])C([H])([H])N([H])C(=O)N3C([H])([H])C([H])([H])C([H])([H])C([H])(n4nc(-c5c([H])c([H])c(Oc6c([H])c([H])c(F)c([H])c6F)c([H])c5[H])c(C(=O)N([H])[H])c4N([H])[H])C3([H])[H])C([H])([H])C([H])([H])[H])C([H])([H])C([H])([H])[H])c([H])c([H])c2C1([H])[H]

$$$$
85:0:0
     RDKit          3D

 90 97  0  0  1  0  0  0  0  0999 V2000
  -29.5240  -19.7280   19.5420 C   0  0  0  0  0  0  0  0  0  0  0  0
  -29.5790  -21.0780   20.1770 N   0  0  0  0  0  0  0  0  0  0  0  0
  -28.8080  -19.6580   18.5430 O   0  0  0  0  0  0  0  0  0  0  0  0
  -30.0930  -21.0330   21.0480 H   0  0  0  0  0  0  0  0  0  0  0  0
  -30.6080  -23.2020   19.2490 C   0  0  0  0  0  1  0  0  0  0  0  0
  -29.2600  -22.6810   19.7650 C   0  0  0  0  0  3  0  0  0  0  0  0
  -28.5350  -24.1050   20.6260 C   0  0  0  0  0  2  0  0  0  0  0  0
  -28.6960  -25.7580   20.5400 O   0  0  0  0  0  0  0  0  0  0  0  0
  -24.8320  -31.6510   23.3630 C   0  0  0  0  0  0  0  0  0  0  0  0
  -27.6430  -26.8200   20.4910 C   0  0  0  0  0  0  0  0  0  0  0  0
  -23.7510  -30.2210   21.6760 C   0  0  0  0  0  3  0  0  0  0  0  0
  -25.3020  -28.6460   20.3330 C   0  0  0  0  0  0  0  0  0  0  0  0
  -26.3160  -30.4940   21.6480 C   0  0  0  0  0  2  0  0  0  0  0  0
  -26.4520  -29.0830   21.0020 C   0  0  0  0  0  0  0  0  0  0  0  0
  -27.6200  -28.1930   21.0500 C   0  0  0  0  0  3  0  0  0  0  0  0
  -26.4570  -26.5320   19.7790 C   0  0  0  0  0  3  0  0  0  0  0  0
  -25.3310  -27.3930   19.7000 C   0  0  0  0  0  3  0  0  0  0  0  0
  -24.0620  -29.5390   20.3160 C   0  0  0  0  0  2  0  0  0  0  0  0
  -24.9840  -30.8170   22.2840 N   0  0  0  0  0  0  0  0  0  0  0  0
  -23.7130  -31.9140   23.8330 O   0  0  0  0  0  0  0  0  0  0  0  0
  -23.0380  -29.2110   22.6130 C   0  0  0  0  0  0  0  0  0  0  0  0
  -21.7280  -28.9830   22.4050 N   0  0  0  0  0  0  0  0  0  0  0  0
  -23.6740  -28.6300   23.4960 O   0  0  0  0  0  0  0  0  0  0  0  0
  -21.2670  -29.5040   21.6720 H   0  0  0  0  0  0  0  0  0  0  0  0
  -18.3880  -27.5930   22.6840 C   0  0  0  0  0  0  0  0  0  0  0  0
  -20.8990  -28.0200   23.1390 C   0  0  0  0  0  3  0  0  0  0  0  0
  -21.1270  -26.5810   22.6220 C   0  0  0  0  0  2  0  0  0  0  0  0
  -20.1320  -26.1650   21.5350 C   0  0  0  0  0  2  0  0  0  0  0  0
  -18.6980  -26.2420   22.0640 C   0  0  0  0  0  2  0  0  0  0  0  0
  -19.4210  -28.4350   23.1740 C   0  0  0  0  0  0  0  0  0  0  0  0
  -19.0790  -29.6950   23.7120 C   0  0  0  0  0  3  0  0  0  0  0  0
  -17.7350  -30.1140   23.7660 C   0  0  0  0  0  3  0  0  0  0  0  0
  -16.7170  -29.2720   23.2900 C   0  0  0  0  0  3  0  0  0  0  0  0
  -17.0430  -28.0130   22.7550 C   0  0  0  0  0  3  0  0  0  0  0  0
  -26.0550  -32.3290   24.0510 C   0  0  0  0  0  3  0  0  0  0  0  0
  -26.4730  -31.6230   25.4010 C   0  0  1  0  0  0  0  0  0  0  0  0
  -25.3010  -31.4280   26.3910 C   0  0  0  0  0  1  0  0  0  0  0  0
  -27.0930  -30.2340   25.1310 C   0  0  0  0  0  1  0  0  0  0  0  0
  -27.5660  -32.4580   26.1100 C   0  0  0  0  0  1  0  0  0  0  0  0
  -25.7100  -33.7400   24.3040 N   0  0  0  0  0  0  0  0  0  0  0  0
  -26.0820  -34.7710   23.5330 C   0  0  0  0  0  0  0  0  0  0  0  0
  -26.8120  -34.6360   22.5480 O   0  0  0  0  0  0  0  0  0  0  0  0
  -25.0660  -33.9160   25.0610 H   0  0  0  0  0  0  0  0  0  0  0  0
  -24.3600  -36.5390   23.0290 C   0  0  0  0  0  1  0  0  0  0  0  0
  -25.5640  -36.1750   23.9130 C   0  0  0  0  0  3  0  0  0  0  0  0
  -27.6470  -37.1170   24.8130 C   0  0  0  0  0  1  0  0  0  0  0  0
  -26.5950  -37.2330   23.8080 N   0  0  0  0  0  0  0  0  0  0  0  0
  -26.1740  -38.1550   23.8920 H   0  0  0  0  0  0  0  0  0  0  0  0
  -30.3590  -18.2090   19.8950 C   0  0  0  0  0  0  0  0  0  0  0  0
  -30.7650  -15.2700   19.4390 C   0  0  0  0  0  0  0  0  0  0  0  0
  -30.5550  -12.8290   18.5480 C   0  0  0  0  0  2  0  0  0  0  0  0
  -29.4960  -12.6380   17.4330 C   0  0  0  0  0  2  0  0  0  0  0  0
  -28.1000  -12.4110   18.0390 C   0  0  0  0  0  2  0  0  0  0  0  0
  -27.8080  -13.3920   19.2030 C   0  0  0  0  0  3  0  0  0  0  0  0
  -28.9810  -13.5140   20.1960 C   0  0  0  0  0  2  0  0  0  0  0  0
  -30.1380  -13.9890   19.4180 N   0  0  0  0  0  0  0  0  0  0  0  0
  -31.9670  -15.2070   19.1430 O   0  0  0  0  0  0  0  0  0  0  0  0
  -30.0600  -16.5760   19.5990 N   0  0  0  0  0  4  0  0  0  0  0  0
  -29.0670  -16.4070   19.6400 H   0  0  0  0  0  0  0  0  0  0  0  0
  -25.5940  -14.0400   20.2830 C   0  0  0  0  0  0  0  0  0  0  0  0
  -24.5390  -13.3060   20.7460 C   0  0  0  0  0  0  0  0  0  0  0  0
  -24.9110  -11.9350   20.5900 C   0  0  0  0  0  0  0  0  0  0  0  0
  -26.5390  -13.1210   19.8650 N   0  0  0  0  0  0  0  0  0  0  0  0
  -26.1500  -11.8440   20.1160 N   0  0  0  0  0  0  0  0  0  0  0  0
  -24.1320  -10.7080   20.8040 C   0  0  0  0  0  0  0  0  0  0  0  0
  -24.5790   -9.6920   21.6770 C   0  0  0  0  0  3  0  0  0  0  0  0
  -23.8020   -8.5320   21.8830 C   0  0  0  0  0  3  0  0  0  0  0  0
  -22.5600   -8.3820   21.2190 C   0  0  0  0  0  0  0  0  0  0  0  0
  -22.1310   -9.3860   20.3350 C   0  0  0  0  0  3  0  0  0  0  0  0
  -22.9090  -10.5370   20.1260 C   0  0  0  0  0  3  0  0  0  0  0  0
  -21.7490   -7.2790   21.3390 O   0  0  0  0  0  0  0  0  0  0  0  0
  -21.7150   -6.5320   22.4900 C   0  0  0  0  0  0  0  0  0  0  0  0
  -21.3510   -7.0960   23.7320 C   0  0  0  0  0  3  0  0  0  0  0  0
  -21.2610   -6.2780   24.8770 C   0  0  0  0  0  3  0  0  0  0  0  0
  -21.5250   -4.8980   24.7790 C   0  0  0  0  0  0  0  0  0  0  0  0
  -21.8830   -4.3360   23.5410 C   0  0  0  0  0  3  0  0  0  0  0  0
  -21.9740   -5.1500   22.3990 C   0  0  0  0  0  0  0  0  0  0  0  0
  -22.2980   -4.5990   21.2050 F   0  0  0  0  0  0  0  0  0  0  0  0
  -21.4310   -4.1110   25.8760 F   0  0  0  0  0  0  0  0  0  0  0  0
  -23.2170  -13.8480   21.2040 C   0  0  0  0  0  0  0  0  0  0  0  0
  -22.5580  -13.1600   22.1290 N   0  0  0  0  0  0  0  0  0  0  0  0
  -22.7860  -14.9180   20.7770 O   0  0  0  0  0  0  0  0  0  0  0  0
  -22.9260  -12.2960   22.4970 H   0  0  0  0  0  0  0  0  0  0  0  0
  -21.6740  -13.5050   22.4740 H   0  0  0  0  0  0  0  0  0  0  0  0
  -25.8150  -15.4070   20.1500 N   0  0  0  0  0  0  0  0  0  0  0  0
  -25.0940  -16.0850   20.3680 H   0  0  0  0  0  0  0  0  0  0  0  0
  -26.6080  -15.8150   19.6740 H   0  0  0  0  0  0  0  0  0  0  0  0
  -30.1540  -17.6690   22.3940 C   0  0  0  0  0  1  0  0  0  0  0  0
  -32.4590  -17.8040   21.3560 C   0  0  0  0  0  1  0  0  0  0  0  0
  -31.0130  -18.3270   21.3010 C   0  0  0  0  0  3  0  0  0  0  0  0
  1 49  1  0
  1  2  1  0
  2  4  1  0
  3  1  2  0
  6  5  1  0
  6  2  1  0
  6  7  1  0
  8  7  1  0
  9 20  2  0
 10  8  1  0
 10 15  1  0
 11 19  1  0
 11 21  1  0
 12 14  1  0
 13 19  1  0
 14 15  2  0
 14 13  1  0
 16 10  2  0
 17 16  1  0
 17 12  2  0
 18 12  1  0
 18 11  1  0
 19  9  1  0
 21 23  2  0
 22 21  1  0
 24 22  1  0
 25 34  2  0
 25 30  1  0
 26 22  1  0
 26 30  1  0
 27 26  1  0
 28 29  1  0
 28 27  1  0
 29 25  1  0
 30 31  2  0
 31 32  1  0
 33 32  2  0
 34 33  1  0
 35  9  1  0
 35 40  1  0
 35 36  1  0
 36 39  1  1
 36 37  1  0
 38 36  1  0
 40 43  1  0
 41 45  1  0
 41 40  1  0
 42 41  2  0
 45 44  1  0
 47 48  1  0
 47 45  1  0
 47 46  1  0
 49 90  1  0
 50 58  1  0
 51 56  1  0
 52 53  1  0
 52 51  1  0
 54 53  1  0
 54 63  1  0
 54 55  1  0
 56 50  1  0
 56 55  1  0
 57 50  2  0
 58 59  1  0
 58 49  2  0
 60 61  2  0
 61 80  1  0
 62 61  1  0
 62 65  1  0
 63 64  1  0
 63 60  1  0
 64 62  2  0
 65 66  1  0
 66 67  2  0
 68 71  1  0
 68 67  1  0
 69 68  2  0
 70 69  1  0
 70 65  2  0
 71 72  1  0
 72 73  1  0
 73 74  2  0
 75 74  1  0
 75 79  1  0
 76 75  2  0
 77 72  2  0
 77 76  1  0
 78 77  1  0
 80 81  1  0
 81 84  1  0
 81 83  1  0
 82 80  2  0
 85 60  1  0
 85 86  1  0
 87 85  1  0
 90 89  1  0
 90 88  1  0
M  ISO  4   7 101   8 101  50 100  58 100
M  END
>  <TORSDO>  (85) 
F 20

>  <SCORE>  (85) 
-14.072

>  <name>  (85) 
85

>  <ligand_id>  (85) 
85

>  <original_smiles>  (85) 
[H]c1c([H])c([H])c2c(c1[H])C([H])([H])C([H])([H])C([H])([H])C2([H])N([H])C(=O)C1([H])N(C(=O)C([H])(N([H])C(=O)C([H])(N([H])C([H])([H])[H])C([H])([H])[H])C(C([H])([H])[H])(C([H])([H])[H])C([H])([H])[H])C([H])([H])c2c([H])c(OC([H])([H])C([H])(N([H])C(=O)C([H])(N([H])C(=O)N3C([H])([H])C([H])([H])C([H])([H])C([H])(n4nc(-c5c([H])c([H])c(Oc6c([H])c([H])c(F)c([H])c6F)c([H])c5[H])c(C(=O)N([H])[H])c4N([H])[H])C3([H])[H])C([H])(C([H])([H])[H])C([H])([H])[H])C([H])([H])[H])c([H])c([H])c2C1([H])[H]

>  <smiles>  (85) 
[H]c1c([H])c([H])c2c(c1[H])C([H])([H])C([H])([H])C([H])([H])C2([H])N([H])C(=O)C1([H])N(C(=O)C([H])(N([H])C(=O)C([H])(N([H])C([H])([H])[H])C([H])([H])[H])C(C([H])([H])[H])(C([H])([H])[H])C([H])([H])[H])C([H])([H])c2c([H])c(OC([H])([H])C([H])(N([H])C(=O)C([H])(N([H])C(=O)N3C([H])([H])C([H])([H])C([H])([H])C([H])(n4nc(-c5c([H])c([H])c(Oc6c([H])c([H])c(F)c([H])c6F)c([H])c5[H])c(C(=O)N([H])[H])c4N([H])[H])C3([H])[H])C([H])(C([H])([H])[H])C([H])([H])[H])C([H])([H])[H])c([H])c([H])c2C1([H])[H]

$$$$
86:0:0
     RDKit          3D

101108  0  0  1  0  0  0  0  0999 V2000
  -29.4750  -18.6510   20.5950 C   0  0  0  0  0  0  0  0  0  0  0  0
  -29.7290  -19.9610   20.2180 N   0  0  0  0  0  0  0  0  0  0  0  0
  -28.5030  -18.3730   21.2980 O   0  0  0  0  0  0  0  0  0  0  0  0
  -30.5660  -20.0920   19.6660 H   0  0  0  0  0  0  0  0  0  0  0  0
  -28.9450  -21.2410   20.5100 C   0  0  0  0  0  3  0  0  0  0  0  0
  -29.1160  -21.6560   21.9830 C   0  0  0  0  0  0  0  0  0  0  0  0
  -28.1870  -22.4390   22.5130 N   0  0  0  0  0  0  0  0  0  0  0  0
  -30.1010  -21.3130   22.6380 O   0  0  0  0  0  0  0  0  0  0  0  0
  -27.3890  -22.7340   21.9680 H   0  0  0  0  0  0  0  0  0  0  0  0
  -28.2740  -22.7430   23.4720 H   0  0  0  0  0  0  0  0  0  0  0  0
  -29.3030  -22.5210   19.5910 C   0  0  0  0  0  2  0  0  0  0  0  0
  -28.3230  -23.8020   19.3600 C   0  0  0  0  0  2  0  0  0  0  0  0
  -28.4060  -25.1570   20.2260 C   0  0  0  0  0  2  0  0  0  0  0  0
  -28.3540  -26.5180   19.6120 O   0  0  0  0  0  0  0  0  0  0  0  0
  -24.5130  -31.6210   23.0500 C   0  0  0  0  0  0  0  0  0  0  0  0
  -27.2030  -27.3170   19.7020 C   0  0  0  0  0  0  0  0  0  0  0  0
  -23.3290  -30.3010   21.3310 C   0  0  0  0  0  3  0  0  0  0  0  0
  -24.8040  -28.8740   19.8020 C   0  0  0  0  0  0  0  0  0  0  0  0
  -25.8570  -30.6930   21.1480 C   0  0  0  0  0  2  0  0  0  0  0  0
  -25.9640  -29.3580   20.4170 C   0  0  0  0  0  0  0  0  0  0  0  0
  -27.1710  -28.5960   20.3460 C   0  0  0  0  0  3  0  0  0  0  0  0
  -26.0200  -26.8820   19.0750 C   0  0  0  0  0  3  0  0  0  0  0  0
  -24.8330  -27.6460   19.1180 C   0  0  0  0  0  3  0  0  0  0  0  0
  -23.5460  -29.7160   19.9090 C   0  0  0  0  0  2  0  0  0  0  0  0
  -24.5850  -30.8870   21.9030 N   0  0  0  0  0  0  0  0  0  0  0  0
  -23.4280  -31.8360   23.6100 O   0  0  0  0  0  0  0  0  0  0  0  0
  -22.6990  -29.2130   22.2310 C   0  0  0  0  0  0  0  0  0  0  0  0
  -21.3700  -29.0360   22.1270 N   0  0  0  0  0  0  0  0  0  0  0  0
  -23.4030  -28.5360   22.9850 O   0  0  0  0  0  0  0  0  0  0  0  0
  -20.8610  -29.6420   21.4970 H   0  0  0  0  0  0  0  0  0  0  0  0
  -18.0110  -27.7800   22.6180 C   0  0  0  0  0  0  0  0  0  0  0  0
  -20.5750  -28.0350   22.8410 C   0  0  0  0  0  3  0  0  0  0  0  0
  -20.6710  -26.6530   22.1540 C   0  0  0  0  0  2  0  0  0  0  0  0
  -19.5420  -26.3990   21.1490 C   0  0  0  0  0  2  0  0  0  0  0  0
  -18.1760  -26.4880   21.8360 C   0  0  0  0  0  2  0  0  0  0  0  0
  -19.1370  -28.5140   23.0770 C   0  0  0  0  0  0  0  0  0  0  0  0
  -18.9290  -29.7270   23.7700 C   0  0  0  0  0  3  0  0  0  0  0  0
  -17.6260  -30.2050   24.0070 C   0  0  0  0  0  3  0  0  0  0  0  0
  -16.5140  -29.4650   23.5670 C   0  0  0  0  0  3  0  0  0  0  0  0
  -16.7080  -28.2550   22.8770 C   0  0  0  0  0  3  0  0  0  0  0  0
  -25.7840  -32.2460   23.7050 C   0  0  0  0  0  3  0  0  0  0  0  0
  -26.3240  -31.4090   24.9300 C   0  0  1  0  0  0  0  0  0  0  0  0
  -25.2460  -31.0930   25.9920 C   0  0  0  0  0  1  0  0  0  0  0  0
  -26.9250  -30.0680   24.4490 C   0  0  0  0  0  1  0  0  0  0  0  0
  -27.4690  -32.1820   25.6270 C   0  0  0  0  0  1  0  0  0  0  0  0
  -25.4420  -33.6110   24.1270 N   0  0  0  0  0  0  0  0  0  0  0  0
  -25.7530  -34.7220   23.4450 C   0  0  0  0  0  0  0  0  0  0  0  0
  -26.4260  -34.7040   22.4100 O   0  0  0  0  0  0  0  0  0  0  0  0
  -24.8420  -33.6980   24.9340 H   0  0  0  0  0  0  0  0  0  0  0  0
  -23.9850  -36.4940   23.2240 C   0  0  0  0  0  1  0  0  0  0  0  0
  -25.2390  -36.0630   24.0000 C   0  0  0  0  0  3  0  0  0  0  0  0
  -27.3560  -36.9400   24.8790 C   0  0  0  0  0  1  0  0  0  0  0  0
  -26.2460  -37.1450   23.9530 N   0  0  0  0  0  0  0  0  0  0  0  0
  -25.8200  -38.0440   24.1640 H   0  0  0  0  0  0  0  0  0  0  0  0
  -30.3590  -17.4350   20.0540 C   0  0  0  0  0  3  0  0  0  0  0  0
  -30.8890  -14.8940   20.4490 C   0  0  0  0  0  0  0  0  0  0  0  0
  -30.6960  -12.5880   19.5230 C   0  0  0  0  0  2  0  0  0  0  0  0
  -29.7840  -12.6470   18.2760 C   0  0  0  0  0  2  0  0  0  0  0  0
  -28.3050  -12.5020   18.6810 C   0  0  0  0  0  2  0  0  0  0  0  0
  -27.9190  -13.4220   19.8710 C   0  0  0  0  0  3  0  0  0  0  0  0
  -28.9530  -13.3590   21.0170 C   0  0  0  0  0  2  0  0  0  0  0  0
  -30.2660  -13.6690   20.4390 N   0  0  0  0  0  0  0  0  0  0  0  0
  -32.0750  -14.9880   20.1200 O   0  0  0  0  0  0  0  0  0  0  0  0
  -30.0940  -16.0210   20.5660 N   0  0  0  0  0  0  0  0  0  0  0  0
  -29.1560  -15.8660   20.9010 H   0  0  0  0  0  0  0  0  0  0  0  0
  -25.5330  -14.0540   20.5580 C   0  0  0  0  0  0  0  0  0  0  0  0
  -24.4480  -13.2980   20.9090 C   0  0  0  0  0  0  0  0  0  0  0  0
  -24.8910  -11.9390   20.8950 C   0  0  0  0  0  0  0  0  0  0  0  0
  -26.5650  -13.1570   20.3420 N   0  0  0  0  0  0  0  0  0  0  0  0
  -26.1860  -11.8800   20.6060 N   0  0  0  0  0  0  0  0  0  0  0  0
  -24.1400  -10.6890   21.0790 C   0  0  0  0  0  0  0  0  0  0  0  0
  -24.5360   -9.7230   22.0290 C   0  0  0  0  0  3  0  0  0  0  0  0
  -23.7870   -8.5400   22.2020 C   0  0  0  0  0  3  0  0  0  0  0  0
  -22.6280   -8.3130   21.4200 C   0  0  0  0  0  0  0  0  0  0  0  0
  -22.2510   -9.2670   20.4600 C   0  0  0  0  0  3  0  0  0  0  0  0
  -23.0010  -10.4430   20.2860 C   0  0  0  0  0  3  0  0  0  0  0  0
  -21.8550   -7.1810   21.4970 O   0  0  0  0  0  0  0  0  0  0  0  0
  -21.7550   -6.4570   22.6580 C   0  0  0  0  0  0  0  0  0  0  0  0
  -21.2950   -7.0340   23.8620 C   0  0  0  0  0  3  0  0  0  0  0  0
  -21.1420   -6.2360   25.0120 C   0  0  0  0  0  3  0  0  0  0  0  0
  -21.4410   -4.8610   24.9610 C   0  0  0  0  0  0  0  0  0  0  0  0
  -21.8950   -4.2810   23.7630 C   0  0  0  0  0  3  0  0  0  0  0  0
  -22.0480   -5.0780   22.6150 C   0  0  0  0  0  0  0  0  0  0  0  0
  -22.4640   -4.5100   21.4560 F   0  0  0  0  0  0  0  0  0  0  0  0
  -21.2880   -4.0920   26.0660 F   0  0  0  0  0  0  0  0  0  0  0  0
  -23.0560  -13.8000   21.1620 C   0  0  0  0  0  0  0  0  0  0  0  0
  -22.3190  -13.1350   22.0440 N   0  0  0  0  0  0  0  0  0  0  0  0
  -22.6310  -14.8180   20.6150 O   0  0  0  0  0  0  0  0  0  0  0  0
  -22.6750  -12.3120   22.5060 H   0  0  0  0  0  0  0  0  0  0  0  0
  -21.3870  -13.4570   22.2660 H   0  0  0  0  0  0  0  0  0  0  0  0
  -25.7270  -15.4230   20.3850 N   0  0  0  0  0  0  0  0  0  0  0  0
  -24.9930  -16.0930   20.5860 H   0  0  0  0  0  0  0  0  0  0  0  0
  -26.6360  -15.8490   20.2640 H   0  0  0  0  0  0  0  0  0  0  0  0
  -30.3040  -17.4120   18.5040 C   0  0  0  0  0  2  0  0  0  0  0  0
  -28.9330  -17.8110   17.8960 C   0  0  0  0  0  2  0  0  0  0  0  0
  -29.0350  -19.0020   16.9200 C   0  0  0  0  0  2  0  0  0  0  0  0
  -27.6660  -19.5400   16.4540 C   0  0  0  0  0  2  0  0  0  0  0  0
  -27.0350  -20.4270   17.4480 N   0  0  0  0  0  4  0  0  0  0  0  0
  -26.9020  -19.9590   18.3260 H   0  0  0  0  0  0  0  0  0  0  0  0
  -26.1340  -20.7210   17.1160 H   0  0  0  0  0  0  0  0  0  0  0  0
  -27.5910  -21.2520   17.5970 H   0  0  0  0  0  0  0  0  0  0  0  0
  1  3  2  0
  2  5  1  0
  2  1  1  0
  4  2  1  0
  5 11  1  0
  5  6  1  0
  6  7  1  0
  6  8  2  0
  7 10  1  0
  9  7  1  0
 12 11  1  0
 12 13  1  0
 14 16  1  0
 14 13  1  0
 15 26  2  0
 16 21  1  0
 17 25  1  0
 17 27  1  0
 18 24  1  0
 18 20  1  0
 19 25  1  0
 20 19  1  0
 21 20  2  0
 22 23  1  0
 22 16  2  0
 23 18  2  0
 24 17  1  0
 25 15  1  0
 27 29  2  0
 28 27  1  0
 30 28  1  0
 31 40  2  0
 31 36  1  0
 32 28  1  0
 32 36  1  0
 33 32  1  0
 34 35  1  0
 34 33  1  0
 35 31  1  0
 36 37  2  0
 37 38  1  0
 39 38  2  0
 40 39  1  0
 41 15  1  0
 41 46  1  0
 41 42  1  0
 42 45  1  1
 42 43  1  0
 44 42  1  0
 46 49  1  0
 47 51  1  0
 47 46  1  0
 48 47  2  0
 51 50  1  0
 53 51  1  0
 53 54  1  0
 53 52  1  0
 55 94  1  0
 55 64  1  0
 55  1  1  0
 56 64  1  0
 57 62  1  0
 58 59  1  0
 58 57  1  0
 60 59  1  0
 60 69  1  0
 60 61  1  0
 62 56  1  0
 62 61  1  0
 63 56  2  0
 64 65  1  0
 66 67  2  0
 67 86  1  0
 68 67  1  0
 68 71  1  0
 69 66  1  0
 69 70  1  0
 70 68  2  0
 71 72  1  0
 72 73  2  0
 74 77  1  0
 74 73  1  0
 75 74  2  0
 76 75  1  0
 76 71  2  0
 77 78  1  0
 78 79  1  0
 79 80  2  0
 81 80  1  0
 81 85  1  0
 82 81  2  0
 83 78  2  0
 83 82  1  0
 84 83  1  0
 86 87  1  0
 87 90  1  0
 87 89  1  0
 88 86  2  0
 91 66  1  0
 91 92  1  0
 93 91  1  0
 95 94  1  0
 96 95  1  0
 97 96  1  0
 97 98  1  0
 98101  1  0
 98 99  1  0
100 98  1  0
M  ISO  4  13 101  14 101  56 100  64 100
M  END
>  <TORSDO>  (86) 
F 27

>  <SCORE>  (86) 
-11.108

>  <name>  (86) 
86

>  <ligand_id>  (86) 
86

>  <original_smiles>  (86) 
[H]c1c([H])c([H])c2c(c1[H])C([H])([H])C([H])([H])C([H])([H])C2([H])N([H])C(=O)C1([H])N(C(=O)C([H])(N([H])C(=O)C([H])(N([H])C([H])([H])[H])C([H])([H])[H])C(C([H])([H])[H])(C([H])([H])[H])C([H])([H])[H])C([H])([H])c2c([H])c(OC([H])([H])C([H])([H])C([H])([H])C([H])(C(=O)N([H])[H])N([H])C(=O)C([H])(N([H])C(=O)N3C([H])([H])C([H])([H])C([H])([H])C([H])(n4nc(-c5c([H])c([H])c(Oc6c([H])c([H])c(F)c([H])c6F)c([H])c5[H])c(C(=O)N([H])[H])c4N([H])[H])C3([H])[H])C([H])([H])C([H])([H])C([H])([H])C([H])([H])[N+]([H])([H])[H])c([H])c([H])c2C1([H])[H]

>  <smiles>  (86) 
[H]c1c([H])c([H])c2c(c1[H])C([H])([H])C([H])([H])C([H])([H])C2([H])N([H])C(=O)C1([H])N(C(=O)C([H])(N([H])C(=O)C([H])(N([H])C([H])([H])[H])C([H])([H])[H])C(C([H])([H])[H])(C([H])([H])[H])C([H])([H])[H])C([H])([H])c2c([H])c(OC([H])([H])C([H])([H])C([H])([H])C([H])(C(=O)N([H])[H])N([H])C(=O)C([H])(N([H])C(=O)N3C([H])([H])C([H])([H])C([H])([H])C([H])(n4nc(-c5c([H])c([H])c(Oc6c([H])c([H])c(F)c([H])c6F)c([H])c5[H])c(C(=O)N([H])[H])c4N([H])[H])C3([H])[H])C([H])([H])C([H])([H])C([H])([H])C([H])([H])[N+]([H])([H])[H])c([H])c([H])c2C1([H])[H]

$$$$
87:0:0
     RDKit          3D

 98105  0  0  1  0  0  0  0  0999 V2000
  -30.5300  -21.2390   19.8310 C   0  0  0  0  0  3  0  0  0  0  0  0
  -31.4510  -21.4560   18.6110 C   0  0  0  0  0  0  0  0  0  0  0  0
  -31.1220  -20.8630   17.4700 N   0  0  0  0  0  0  0  0  0  0  0  0
  -32.4650  -22.1520   18.6920 O   0  0  0  0  0  0  0  0  0  0  0  0
  -30.2880  -20.2960   17.4060 H   0  0  0  0  0  0  0  0  0  0  0  0
  -31.7020  -20.9760   16.6510 H   0  0  0  0  0  0  0  0  0  0  0  0
  -29.7370  -23.5700   20.2700 C   0  0  0  0  0  0  0  0  0  0  0  0
  -30.4370  -22.4770   20.6120 N   0  0  0  0  0  0  0  0  0  0  0  0
  -29.1040  -23.6400   19.2150 O   0  0  0  0  0  0  0  0  0  0  0  0
  -30.9730  -22.5090   21.4680 H   0  0  0  0  0  0  0  0  0  0  0  0
  -29.7290  -24.7390   21.2700 C   0  0  0  0  0  2  0  0  0  0  0  0
  -28.4310  -25.5790   21.2740 C   0  0  0  0  0  2  0  0  0  0  0  0
  -28.4770  -26.6690   20.3500 O   0  0  0  0  0  0  0  0  0  0  0  0
  -24.6260  -31.8980   23.2600 C   0  0  0  0  0  0  0  0  0  0  0  0
  -27.3160  -27.4000   20.3270 C   0  0  0  0  0  0  0  0  0  0  0  0
  -23.4420  -30.4590   21.6330 C   0  0  0  0  0  3  0  0  0  0  0  0
  -24.9160  -28.8830   20.2710 C   0  0  0  0  0  0  0  0  0  0  0  0
  -25.9690  -30.8150   21.4630 C   0  0  0  0  0  2  0  0  0  0  0  0
  -26.0640  -29.4290   20.8600 C   0  0  0  0  0  0  0  0  0  0  0  0
  -27.2690  -28.6950   20.8860 C   0  0  0  0  0  3  0  0  0  0  0  0
  -26.1540  -26.8570   19.7370 C   0  0  0  0  0  3  0  0  0  0  0  0
  -24.9540  -27.5950   19.7090 C   0  0  0  0  0  3  0  0  0  0  0  0
  -23.6720  -29.7410   20.2750 C   0  0  0  0  0  2  0  0  0  0  0  0
  -24.6960  -31.0730   22.1780 N   0  0  0  0  0  0  0  0  0  0  0  0
  -23.5380  -32.1870   23.7760 O   0  0  0  0  0  0  0  0  0  0  0  0
  -22.7730  -29.4630   22.6080 C   0  0  0  0  0  0  0  0  0  0  0  0
  -21.4500  -29.2850   22.4640 N   0  0  0  0  0  0  0  0  0  0  0  0
  -23.4430  -28.8540   23.4450 O   0  0  0  0  0  0  0  0  0  0  0  0
  -20.9750  -29.8260   21.7570 H   0  0  0  0  0  0  0  0  0  0  0  0
  -18.0610  -28.1310   22.9450 C   0  0  0  0  0  0  0  0  0  0  0  0
  -20.6180  -28.3690   23.2430 C   0  0  0  0  0  3  0  0  0  0  0  0
  -20.7130  -26.9270   22.6950 C   0  0  0  0  0  2  0  0  0  0  0  0
  -19.6210  -26.5960   21.6730 C   0  0  0  0  0  2  0  0  0  0  0  0
  -18.2340  -26.7670   22.2980 C   0  0  0  0  0  2  0  0  0  0  0  0
  -19.1820  -28.8910   23.3740 C   0  0  0  0  0  0  0  0  0  0  0  0
  -18.9690  -30.1680   23.9360 C   0  0  0  0  0  3  0  0  0  0  0  0
  -17.6690  -30.6860   24.0760 C   0  0  0  0  0  3  0  0  0  0  0  0
  -16.5620  -29.9230   23.6650 C   0  0  0  0  0  3  0  0  0  0  0  0
  -16.7580  -28.6480   23.1060 C   0  0  0  0  0  3  0  0  0  0  0  0
  -25.9050  -32.5410   23.8830 C   0  0  0  0  0  3  0  0  0  0  0  0
  -26.4250  -31.7740   25.1620 C   0  0  1  0  0  0  0  0  0  0  0  0
  -25.3290  -31.5200   26.2220 C   0  0  0  0  0  1  0  0  0  0  0  0
  -27.0300  -30.4070   24.7680 C   0  0  0  0  0  1  0  0  0  0  0  0
  -27.5610  -32.5840   25.8320 C   0  0  0  0  0  1  0  0  0  0  0  0
  -25.5870  -33.9370   24.2070 N   0  0  0  0  0  0  0  0  0  0  0  0
  -25.9120  -34.9880   23.4430 C   0  0  0  0  0  0  0  0  0  0  0  0
  -26.5830  -34.8830   22.4120 O   0  0  0  0  0  0  0  0  0  0  0  0
  -24.9910  -34.0920   25.0090 H   0  0  0  0  0  0  0  0  0  0  0  0
  -24.1670  -36.7610   23.0790 C   0  0  0  0  0  1  0  0  0  0  0  0
  -25.4140  -36.3740   23.8910 C   0  0  0  0  0  3  0  0  0  0  0  0
  -27.5400  -37.2850   24.7150 C   0  0  0  0  0  1  0  0  0  0  0  0
  -26.4360  -37.4360   23.7700 N   0  0  0  0  0  0  0  0  0  0  0  0
  -26.0230  -38.3530   23.9110 H   0  0  0  0  0  0  0  0  0  0  0  0
  -31.1020  -20.0990   20.7250 C   0  0  0  0  0  2  0  0  0  0  0  0
  -31.0930  -17.5870   20.7100 C   0  0  0  0  0  0  0  0  0  0  0  0
  -30.6450  -18.7780   20.2870 N   0  0  0  0  0  0  0  0  0  0  0  0
  -32.0930  -17.4490   21.4180 O   0  0  0  0  0  0  0  0  0  0  0  0
  -29.8160  -18.7560   19.7070 H   0  0  0  0  0  0  0  0  0  0  0  0
  -28.8400  -16.6240   21.0240 C   0  0  0  0  0  1  0  0  0  0  0  0
  -30.1970  -16.3950   20.3290 C   0  0  0  0  0  3  0  0  0  0  0  0
  -31.1920  -14.1680   19.9480 C   0  0  0  0  0  0  0  0  0  0  0  0
  -30.8050  -11.9460   18.9460 C   0  0  0  0  0  2  0  0  0  0  0  0
  -29.7970  -12.0760   17.7840 C   0  0  0  0  0  2  0  0  0  0  0  0
  -28.3430  -12.0180   18.2920 C   0  0  0  0  0  2  0  0  0  0  0  0
  -28.0960  -12.9700   19.4910 C   0  0  0  0  0  3  0  0  0  0  0  0
  -29.1920  -12.7670   20.5650 C   0  0  0  0  0  2  0  0  0  0  0  0
  -30.5130  -12.9910   19.9360 N   0  0  0  0  0  0  0  0  0  0  0  0
  -32.1650  -14.4090   19.2250 O   0  0  0  0  0  0  0  0  0  0  0  0
  -30.6620  -15.0810   20.7670 N   0  0  0  0  0  0  0  0  0  0  0  0
  -30.0840  -14.6730   21.4850 H   0  0  0  0  0  0  0  0  0  0  0  0
  -25.7920  -13.7450   20.3540 C   0  0  0  0  0  0  0  0  0  0  0  0
  -24.6930  -13.0450   20.7760 C   0  0  0  0  0  0  0  0  0  0  0  0
  -25.0450  -11.6640   20.6860 C   0  0  0  0  0  0  0  0  0  0  0  0
  -26.7530  -12.7930   20.0430 N   0  0  0  0  0  0  0  0  0  0  0  0
  -26.3070  -11.5350   20.2950 N   0  0  0  0  0  0  0  0  0  0  0  0
  -24.2400  -10.4550   20.9000 C   0  0  0  0  0  0  0  0  0  0  0  0
  -24.6300   -9.4630   21.8270 C   0  0  0  0  0  3  0  0  0  0  0  0
  -23.8310   -8.3170   22.0280 C   0  0  0  0  0  3  0  0  0  0  0  0
  -22.6270   -8.1560   21.3010 C   0  0  0  0  0  0  0  0  0  0  0  0
  -22.2560   -9.1340   20.3620 C   0  0  0  0  0  3  0  0  0  0  0  0
  -23.0540  -10.2730   20.1620 C   0  0  0  0  0  3  0  0  0  0  0  0
  -21.8000   -7.0640   21.4100 O   0  0  0  0  0  0  0  0  0  0  0  0
  -21.6930   -6.3590   22.5820 C   0  0  0  0  0  0  0  0  0  0  0  0
  -21.2640   -6.9690   23.7810 C   0  0  0  0  0  3  0  0  0  0  0  0
  -21.1000   -6.1930   24.9460 C   0  0  0  0  0  3  0  0  0  0  0  0
  -21.3520   -4.8090   24.9120 C   0  0  0  0  0  0  0  0  0  0  0  0
  -21.7730   -4.1990   23.7160 C   0  0  0  0  0  3  0  0  0  0  0  0
  -21.9390   -4.9720   22.5540 C   0  0  0  0  0  0  0  0  0  0  0  0
  -22.3240   -4.3750   21.4000 F   0  0  0  0  0  0  0  0  0  0  0  0
  -21.1860   -4.0610   26.0280 F   0  0  0  0  0  0  0  0  0  0  0  0
  -23.3570  -13.6170   21.1540 C   0  0  0  0  0  0  0  0  0  0  0  0
  -22.6410  -12.9570   22.0580 N   0  0  0  0  0  0  0  0  0  0  0  0
  -22.9580  -14.6820   20.6810 O   0  0  0  0  0  0  0  0  0  0  0  0
  -22.9780  -12.0950   22.4600 H   0  0  0  0  0  0  0  0  0  0  0  0
  -21.7460  -13.3190   22.3530 H   0  0  0  0  0  0  0  0  0  0  0  0
  -26.0470  -15.1040   20.1940 N   0  0  0  0  0  0  0  0  0  0  0  0
  -25.3410  -15.8090   20.3740 H   0  0  0  0  0  0  0  0  0  0  0  0
  -26.9070  -15.4890   19.8280 H   0  0  0  0  0  0  0  0  0  0  0  0
  1  8  1  0
  1 54  1  0
  2  4  2  0
  2  1  1  0
  3  2  1  0
  5  3  1  0
  6  3  1  0
  7  8  1  0
  7 11  1  0
  8 10  1  0
  9  7  2  0
 11 12  1  0
 13 12  1  0
 14 25  2  0
 15 13  1  0
 15 20  1  0
 16 24  1  0
 16 26  1  0
 17 23  1  0
 17 19  1  0
 18 24  1  0
 19 20  2  0
 19 18  1  0
 21 15  2  0
 22 21  1  0
 22 17  2  0
 23 16  1  0
 24 14  1  0
 26 28  2  0
 27 26  1  0
 29 27  1  0
 30 39  2  0
 30 35  1  0
 31 27  1  0
 31 35  1  0
 32 31  1  0
 33 34  1  0
 33 32  1  0
 34 30  1  0
 35 36  2  0
 36 37  1  0
 38 37  2  0
 39 38  1  0
 40 14  1  0
 40 45  1  0
 40 41  1  0
 41 44  1  1
 41 42  1  0
 43 41  1  0
 45 48  1  0
 46 50  1  0
 46 45  1  0
 47 46  2  0
 50 49  1  0
 52 50  1  0
 52 53  1  0
 52 51  1  0
 55 57  2  0
 56 55  1  0
 56 54  1  0
 58 56  1  0
 60 55  1  0
 60 69  1  0
 60 59  1  0
 61 69  1  0
 62 67  1  0
 63 64  1  0
 63 62  1  0
 65 64  1  0
 65 74  1  0
 65 66  1  0
 67 61  1  0
 67 66  1  0
 68 61  2  0
 69 70  1  0
 71 72  2  0
 72 91  1  0
 73 72  1  0
 73 76  1  0
 74 75  1  0
 74 71  1  0
 75 73  2  0
 76 77  1  0
 77 78  2  0
 79 82  1  0
 79 78  1  0
 80 79  2  0
 81 80  1  0
 81 76  2  0
 82 83  1  0
 83 84  1  0
 84 85  2  0
 86 85  1  0
 86 90  1  0
 87 86  2  0
 88 83  2  0
 88 87  1  0
 89 88  1  0
 91 92  1  0
 92 95  1  0
 92 94  1  0
 93 91  2  0
 96 71  1  0
 96 97  1  0
 98 96  1  0
M  ISO  4  12 101  13 101  61 100  69 100
M  END
>  <TORSDO>  (87) 
F 23

>  <SCORE>  (87) 
-12.561

>  <name>  (87) 
87

>  <ligand_id>  (87) 
87

>  <original_smiles>  (87) 
[H]c1c([H])c([H])c2c(c1[H])C([H])([H])C([H])([H])C([H])([H])C2([H])N([H])C(=O)C1([H])N(C(=O)C([H])(N([H])C(=O)C([H])(N([H])C([H])([H])[H])C([H])([H])[H])C(C([H])([H])[H])(C([H])([H])[H])C([H])([H])[H])C([H])([H])c2c([H])c(OC([H])([H])C([H])([H])C(=O)N([H])C([H])(C(=O)N([H])[H])C([H])([H])N([H])C(=O)C([H])(N([H])C(=O)N3C([H])([H])C([H])([H])C([H])([H])C([H])(n4nc(-c5c([H])c([H])c(Oc6c([H])c([H])c(F)c([H])c6F)c([H])c5[H])c(C(=O)N([H])[H])c4N([H])[H])C3([H])[H])C([H])([H])[H])c([H])c([H])c2C1([H])[H]

>  <smiles>  (87) 
[H]c1c([H])c([H])c2c(c1[H])C([H])([H])C([H])([H])C([H])([H])C2([H])N([H])C(=O)C1([H])N(C(=O)C([H])(N([H])C(=O)C([H])(N([H])C([H])([H])[H])C([H])([H])[H])C(C([H])([H])[H])(C([H])([H])[H])C([H])([H])[H])C([H])([H])c2c([H])c(OC([H])([H])C([H])([H])C(=O)N([H])C([H])(C(=O)N([H])[H])C([H])([H])N([H])C(=O)C([H])(N([H])C(=O)N3C([H])([H])C([H])([H])C([H])([H])C([H])(n4nc(-c5c([H])c([H])c(Oc6c([H])c([H])c(F)c([H])c6F)c([H])c5[H])c(C(=O)N([H])[H])c4N([H])[H])C3([H])[H])C([H])([H])[H])c([H])c([H])c2C1([H])[H]

$$$$
88:0:0
     RDKit          3D

 97104  0  0  1  0  0  0  0  0999 V2000
  -30.5060  -19.2900   23.7640 C   0  0  0  0  0  0  0  0  0  0  0  0
  -30.6400  -20.5370   23.2950 N   0  0  0  0  0  0  0  0  0  0  0  0
  -29.7490  -19.0040   24.6990 O   0  0  0  0  0  0  0  0  0  0  0  0
  -31.2980  -20.6510   22.5370 H   0  0  0  0  0  0  0  0  0  0  0  0
  -32.5850  -18.7860   22.3780 C   0  0  0  0  0  1  0  0  0  0  0  0
  -31.3360  -18.1790   23.0740 C   0  0  1  0  0  0  0  0  0  0  0  0
  -31.7660  -17.2990   24.1770 N   0  0  0  0  0  4  0  0  0  0  0  0
  -32.5350  -17.7120   24.6750 H   0  0  0  0  0  0  0  0  0  0  0  0
  -32.0230  -16.3760   23.8780 H   0  0  0  0  0  0  0  0  0  0  0  0
  -30.9910  -17.2530   24.8200 H   0  0  0  0  0  0  0  0  0  0  0  0
  -30.4040  -17.4070   22.0720 C   0  0  0  0  0  2  0  0  0  0  0  0
  -31.1040  -16.6720   20.8960 C   0  0  0  0  0  2  0  0  0  0  0  0
  -30.5340  -14.7580   19.3710 C   0  0  0  0  0  0  0  0  0  0  0  0
  -30.2740  -12.4760   18.4720 C   0  0  0  0  0  2  0  0  0  0  0  0
  -29.1570  -12.3140   17.4280 C   0  0  0  0  0  2  0  0  0  0  0  0
  -27.7990  -12.0720   18.1090 C   0  0  0  0  0  2  0  0  0  0  0  0
  -27.4990  -13.1220   19.2080 C   0  0  0  0  0  3  0  0  0  0  0  0
  -28.6930  -13.2600   20.1740 C   0  0  0  0  0  2  0  0  0  0  0  0
  -29.9110  -13.5580   19.3970 N   0  0  0  0  0  0  0  0  0  0  0  0
  -31.2820  -15.1220   18.4560 O   0  0  0  0  0  0  0  0  0  0  0  0
  -30.4070  -15.4410   20.5220 N   0  0  0  0  0  0  0  0  0  0  0  0
  -29.8270  -15.0060   21.2240 H   0  0  0  0  0  0  0  0  0  0  0  0
  -25.3090  -13.6610   20.4550 C   0  0  0  0  0  0  0  0  0  0  0  0
  -24.3270  -12.8540   20.9670 C   0  0  0  0  0  0  0  0  0  0  0  0
  -24.7460  -11.5140   20.7110 C   0  0  0  0  0  0  0  0  0  0  0  0
  -26.2660  -12.8070   19.9280 N   0  0  0  0  0  0  0  0  0  0  0  0
  -25.9400  -11.5040   20.1330 N   0  0  0  0  0  0  0  0  0  0  0  0
  -24.0520  -10.2380   20.9290 C   0  0  0  0  0  0  0  0  0  0  0  0
  -24.5460   -9.2750   21.8340 C   0  0  0  0  0  3  0  0  0  0  0  0
  -23.8530   -8.0630   22.0410 C   0  0  0  0  0  3  0  0  0  0  0  0
  -22.6490   -7.8070   21.3400 C   0  0  0  0  0  0  0  0  0  0  0  0
  -22.1730   -8.7600   20.4230 C   0  0  0  0  0  3  0  0  0  0  0  0
  -22.8680   -9.9630   20.2150 C   0  0  0  0  0  3  0  0  0  0  0  0
  -21.9210   -6.6470   21.4570 O   0  0  0  0  0  0  0  0  0  0  0  0
  -21.8080   -5.9850   22.6520 C   0  0  0  0  0  0  0  0  0  0  0  0
  -21.2660   -6.6060   23.8000 C   0  0  0  0  0  3  0  0  0  0  0  0
  -21.1030   -5.8670   24.9890 C   0  0  0  0  0  3  0  0  0  0  0  0
  -21.4720   -4.5090   25.0320 C   0  0  0  0  0  0  0  0  0  0  0  0
  -22.0070   -3.8880   23.8890 C   0  0  0  0  0  3  0  0  0  0  0  0
  -22.1720   -4.6240   22.7030 C   0  0  0  0  0  0  0  0  0  0  0  0
  -22.6680   -4.0150   21.5980 F   0  0  0  0  0  0  0  0  0  0  0  0
  -21.3100   -3.7980   26.1710 F   0  0  0  0  0  0  0  0  0  0  0  0
  -23.0280  -13.3030   21.5730 C   0  0  0  0  0  0  0  0  0  0  0  0
  -22.5060  -12.5490   22.5350 N   0  0  0  0  0  0  0  0  0  0  0  0
  -22.4900  -14.3520   21.2290 O   0  0  0  0  0  0  0  0  0  0  0  0
  -22.9570  -11.6960   22.8350 H   0  0  0  0  0  0  0  0  0  0  0  0
  -21.6440  -12.8280   22.9790 H   0  0  0  0  0  0  0  0  0  0  0  0
  -25.4550  -15.0430   20.3830 N   0  0  0  0  0  0  0  0  0  0  0  0
  -24.7400  -15.6750   20.7270 H   0  0  0  0  0  0  0  0  0  0  0  0
  -26.2250  -15.5220   19.9310 H   0  0  0  0  0  0  0  0  0  0  0  0
  -29.8210  -21.6940   23.6320 C   0  0  0  0  0  2  0  0  0  0  0  0
  -30.4380  -22.9890   23.0700 C   0  0  0  0  0  2  0  0  0  0  0  0
  -29.3630  -23.9440   22.5170 C   0  0  0  0  0  2  0  0  0  0  0  0
  -30.0160  -24.9920   21.8130 O   0  0  0  0  0  0  0  0  0  0  0  0
  -29.2290  -25.5400   20.7610 C   0  0  0  0  0  2  0  0  0  0  0  0
  -29.7810  -26.9320   20.4040 C   0  0  0  0  0  2  0  0  0  0  0  0
  -29.1430  -27.4110   19.2270 O   0  0  0  0  0  0  0  0  0  0  0  0
  -24.6540  -31.3590   23.1090 C   0  0  0  0  0  0  0  0  0  0  0  0
  -27.8750  -27.8970   19.4140 C   0  0  0  0  0  0  0  0  0  0  0  0
  -23.6250  -29.9790   21.3250 C   0  0  0  0  0  3  0  0  0  0  0  0
  -25.2560  -28.9040   19.6830 C   0  0  0  0  0  0  0  0  0  0  0  0
  -26.0310  -30.8030   21.1150 C   0  0  0  0  0  2  0  0  0  0  0  0
  -26.3230  -29.5560   20.3100 C   0  0  0  0  0  0  0  0  0  0  0  0
  -27.6360  -29.0550   20.1830 C   0  0  0  0  0  3  0  0  0  0  0  0
  -26.7950  -27.2530   18.7780 C   0  0  0  0  0  3  0  0  0  0  0  0
  -25.4820  -27.7450   18.9180 C   0  0  0  0  0  3  0  0  0  0  0  0
  -23.8810  -29.5080   19.8660 C   0  0  0  0  0  2  0  0  0  0  0  0
  -24.7860  -30.7250   21.9070 N   0  0  0  0  0  0  0  0  0  0  0  0
  -23.5710  -31.3730   23.7090 O   0  0  0  0  0  0  0  0  0  0  0  0
  -23.2030  -28.7530   22.1640 C   0  0  0  0  0  0  0  0  0  0  0  0
  -21.9460  -28.3110   21.9860 N   0  0  0  0  0  0  0  0  0  0  0  0
  -24.0020  -28.2060   22.9280 O   0  0  0  0  0  0  0  0  0  0  0  0
  -21.3510  -28.8310   21.3570 H   0  0  0  0  0  0  0  0  0  0  0  0
  -18.9180  -26.3590   22.2160 C   0  0  0  0  0  0  0  0  0  0  0  0
  -21.3430  -27.1470   22.6300 C   0  0  0  0  0  3  0  0  0  0  0  0
  -21.7820  -25.8360   21.9400 C   0  0  0  0  0  2  0  0  0  0  0  0
  -20.8090  -25.3720   20.8510 C   0  0  0  0  0  2  0  0  0  0  0  0
  -19.4110  -25.1480   21.4380 C   0  0  0  0  0  2  0  0  0  0  0  0
  -19.8260  -27.3040   22.7600 C   0  0  0  0  0  0  0  0  0  0  0  0
  -19.3150  -28.4280   23.4430 C   0  0  0  0  0  3  0  0  0  0  0  0
  -17.9280  -28.6150   23.5900 C   0  0  0  0  0  3  0  0  0  0  0  0
  -17.0340  -27.6680   23.0650 C   0  0  0  0  0  3  0  0  0  0  0  0
  -17.5290  -26.5400   22.3840 C   0  0  0  0  0  3  0  0  0  0  0  0
  -25.8450  -32.1180   23.7720 C   0  0  0  0  0  3  0  0  0  0  0  0
  -26.4270  -31.3820   25.0420 C   0  0  1  0  0  0  0  0  0  0  0  0
  -25.3440  -30.9580   26.0650 C   0  0  0  0  0  1  0  0  0  0  0  0
  -27.2080  -30.1110   24.6270 C   0  0  0  0  0  1  0  0  0  0  0  0
  -27.4370  -32.3040   25.7650 C   0  0  0  0  0  1  0  0  0  0  0  0
  -25.3710  -33.4630   24.1210 N   0  0  0  0  0  0  0  0  0  0  0  0
  -25.6180  -34.5660   23.4030 C   0  0  0  0  0  0  0  0  0  0  0  0
  -26.3390  -34.5670   22.4010 O   0  0  0  0  0  0  0  0  0  0  0  0
  -24.7320  -33.5300   24.8990 H   0  0  0  0  0  0  0  0  0  0  0  0
  -23.7250  -36.1710   23.0080 C   0  0  0  0  0  1  0  0  0  0  0  0
  -24.9630  -35.8780   23.8700 C   0  0  0  0  0  3  0  0  0  0  0  0
  -26.9380  -36.9640   24.8370 C   0  0  0  0  0  1  0  0  0  0  0  0
  -25.8770  -37.0380   23.8370 N   0  0  0  0  0  0  0  0  0  0  0  0
  -25.3660  -37.9050   23.9890 H   0  0  0  0  0  0  0  0  0  0  0  0
  1  3  2  0
  2 51  1  0
  2  1  1  0
  4  2  1  0
  6  5  1  6
  6  1  1  0
  6  7  1  0
  7  8  1  0
  7 10  1  0
  9  7  1  0
 11  6  1  0
 12 11  1  0
 13 19  1  0
 13 21  1  0
 14 19  1  0
 15 16  1  0
 15 14  1  0
 17 16  1  0
 17 26  1  0
 17 18  1  0
 19 18  1  0
 20 13  2  0
 21 12  1  0
 21 22  1  0
 23 24  2  0
 24 43  1  0
 25 28  1  0
 25 24  1  0
 26 27  1  0
 26 23  1  0
 27 25  2  0
 28 29  1  0
 29 30  2  0
 31 34  1  0
 31 30  1  0
 32 31  2  0
 33 32  1  0
 33 28  2  0
 34 35  1  0
 35 40  2  0
 35 36  1  0
 36 37  2  0
 37 38  1  0
 38 42  1  0
 39 38  2  0
 40 39  1  0
 41 40  1  0
 43 44  1  0
 44 46  1  0
 44 47  1  0
 45 43  2  0
 48 23  1  0
 48 49  1  0
 50 48  1  0
 52 51  1  0
 53 52  1  0
 54 53  1  0
 55 54  1  0
 56 55  1  0
 57 59  1  0
 57 56  1  0
 58 69  2  0
 59 64  1  0
 60 68  1  0
 60 70  1  0
 61 67  1  0
 61 63  1  0
 62 68  1  0
 63 62  1  0
 64 63  2  0
 65 66  1  0
 65 59  2  0
 66 61  2  0
 67 60  1  0
 68 58  1  0
 70 72  2  0
 71 70  1  0
 73 71  1  0
 74 83  2  0
 74 79  1  0
 75 71  1  0
 75 79  1  0
 76 75  1  0
 77 78  1  0
 77 76  1  0
 78 74  1  0
 79 80  2  0
 80 81  1  0
 82 81  2  0
 83 82  1  0
 84 58  1  0
 84 89  1  0
 84 85  1  0
 85 88  1  1
 85 86  1  0
 87 85  1  0
 89 92  1  0
 90 94  1  0
 90 89  1  0
 91 90  2  0
 94 93  1  0
 96 94  1  0
 96 97  1  0
 96 95  1  0
M  ISO  4  13 100  21 100  56 101  57 101
M  END
>  <TORSDO>  (88) 
F 26

>  <SCORE>  (88) 
-4.935

>  <name>  (88) 
88

>  <ligand_id>  (88) 
88

>  <original_smiles>  (88) 
[H]c1c([H])c([H])c2c(c1[H])C([H])([H])C([H])([H])C([H])([H])C2([H])N([H])C(=O)C1([H])N(C(=O)C([H])(N([H])C(=O)C([H])(N([H])C([H])([H])[H])C([H])([H])[H])C(C([H])([H])[H])(C([H])([H])[H])C([H])([H])[H])C([H])([H])c2c([H])c(OC([H])([H])C([H])([H])OC([H])([H])C([H])([H])C([H])([H])N([H])C(=O)C(C([H])([H])[H])(C([H])([H])C([H])([H])N([H])C(=O)N3C([H])([H])C([H])([H])C([H])([H])C([H])(n4nc(-c5c([H])c([H])c(Oc6c([H])c([H])c(F)c([H])c6F)c([H])c5[H])c(C(=O)N([H])[H])c4N([H])[H])C3([H])[H])[N+]([H])([H])[H])c([H])c([H])c2C1([H])[H]

>  <smiles>  (88) 
[H]c1c([H])c([H])c2c(c1[H])C([H])([H])C([H])([H])C([H])([H])C2([H])N([H])C(=O)C1([H])N(C(=O)C([H])(N([H])C(=O)C([H])(N([H])C([H])([H])[H])C([H])([H])[H])C(C([H])([H])[H])(C([H])([H])[H])C([H])([H])[H])C([H])([H])c2c([H])c(OC([H])([H])C([H])([H])OC([H])([H])C([H])([H])C([H])([H])N([H])C(=O)C(C([H])([H])[H])(C([H])([H])C([H])([H])N([H])C(=O)N3C([H])([H])C([H])([H])C([H])([H])C([H])(n4nc(-c5c([H])c([H])c(Oc6c([H])c([H])c(F)c([H])c6F)c([H])c5[H])c(C(=O)N([H])[H])c4N([H])[H])C3([H])[H])[N+]([H])([H])[H])c([H])c([H])c2C1([H])[H]

$$$$
89:0:0
     RDKit          3D

 92 99  0  0  1  0  0  0  0  0999 V2000
  -30.0050  -18.4990   20.4790 C   0  0  0  0  0  0  0  0  0  0  0  0
  -30.4870  -15.5640   20.2540 C   0  0  0  0  0  0  0  0  0  0  0  0
  -30.5230  -13.0970   19.4610 C   0  0  0  0  0  2  0  0  0  0  0  0
  -29.6170  -12.8000   18.2440 C   0  0  0  0  0  2  0  0  0  0  0  0
  -28.1710  -12.4980   18.6780 C   0  0  0  0  0  2  0  0  0  0  0  0
  -27.6730  -13.4750   19.7730 C   0  0  0  0  0  3  0  0  0  0  0  0
  -28.7160  -13.7270   20.8870 C   0  0  0  0  0  2  0  0  0  0  0  0
  -29.9310  -14.2540   20.2310 N   0  0  0  0  0  0  0  0  0  0  0  0
  -31.7030  -15.5700   20.0410 O   0  0  0  0  0  0  0  0  0  0  0  0
  -29.7370  -16.8460   20.3200 N   0  0  0  0  0  4  0  0  0  0  0  0
  -28.7470  -16.6450   20.3590 H   0  0  0  0  0  0  0  0  0  0  0  0
  -25.2880  -13.9550   20.5480 C   0  0  0  0  0  0  0  0  0  0  0  0
  -24.2500  -13.1460   20.9150 C   0  0  0  0  0  0  0  0  0  0  0  0
  -24.7510  -11.8080   20.8560 C   0  0  0  0  0  0  0  0  0  0  0  0
  -26.3530  -13.1130   20.2810 N   0  0  0  0  0  0  0  0  0  0  0  0
  -26.0430  -11.8140   20.5330 N   0  0  0  0  0  0  0  0  0  0  0  0
  -24.0520  -10.5250   21.0280 C   0  0  0  0  0  0  0  0  0  0  0  0
  -24.4890   -9.5680   21.9690 C   0  0  0  0  0  3  0  0  0  0  0  0
  -23.7890   -8.3540   22.1380 C   0  0  0  0  0  3  0  0  0  0  0  0
  -22.6370   -8.0860   21.3640 C   0  0  0  0  0  0  0  0  0  0  0  0
  -22.2140   -9.0330   20.4160 C   0  0  0  0  0  3  0  0  0  0  0  0
  -22.9150  -10.2400   20.2440 C   0  0  0  0  0  3  0  0  0  0  0  0
  -21.9050   -6.9260   21.4440 O   0  0  0  0  0  0  0  0  0  0  0  0
  -21.8260   -6.2000   22.6060 C   0  0  0  0  0  0  0  0  0  0  0  0
  -21.3030   -6.7540   23.7950 C   0  0  0  0  0  3  0  0  0  0  0  0
  -21.1740   -5.9520   24.9470 C   0  0  0  0  0  3  0  0  0  0  0  0
  -21.5560   -4.5990   24.9120 C   0  0  0  0  0  0  0  0  0  0  0  0
  -22.0730   -4.0460   23.7270 C   0  0  0  0  0  3  0  0  0  0  0  0
  -22.2020   -4.8440   22.5770 C   0  0  0  0  0  0  0  0  0  0  0  0
  -22.6800   -4.3000   21.4330 F   0  0  0  0  0  0  0  0  0  0  0  0
  -21.4290   -3.8270   26.0180 F   0  0  0  0  0  0  0  0  0  0  0  0
  -22.8430  -13.5870   21.1920 C   0  0  0  0  0  0  0  0  0  0  0  0
  -22.1360  -12.8740   22.0640 N   0  0  0  0  0  0  0  0  0  0  0  0
  -22.3790  -14.6020   20.6750 O   0  0  0  0  0  0  0  0  0  0  0  0
  -22.5200  -12.0580   22.5130 H   0  0  0  0  0  0  0  0  0  0  0  0
  -21.1910  -13.1560   22.2840 H   0  0  0  0  0  0  0  0  0  0  0  0
  -25.4070  -15.3330   20.3920 N   0  0  0  0  0  0  0  0  0  0  0  0
  -24.6050  -15.9470   20.4820 H   0  0  0  0  0  0  0  0  0  0  0  0
  -26.2030  -15.8020   19.9810 H   0  0  0  0  0  0  0  0  0  0  0  0
  -28.9430  -19.9130   20.0670 C   0  0  0  0  0  2  0  0  0  0  0  0
  -29.1040  -21.5550   20.0570 O   0  0  0  0  0  0  0  0  0  0  0  0
  -28.0400  -22.8120   20.1160 C   0  0  0  0  0  2  0  0  0  0  0  0
  -27.8770  -24.5180   19.5070 C   0  0  0  0  0  2  0  0  0  0  0  0
  -27.8480  -26.0890   20.0230 O   0  0  0  0  0  0  0  0  0  0  0  0
  -24.5000  -32.0420   23.2000 C   0  0  0  0  0  0  0  0  0  0  0  0
  -26.8310  -27.1820   19.9640 C   0  0  0  0  0  0  0  0  0  0  0  0
  -23.1940  -30.6890   21.6060 C   0  0  0  0  0  3  0  0  0  0  0  0
  -24.5400  -29.0860   20.0710 C   0  0  0  0  0  0  0  0  0  0  0  0
  -25.7490  -30.8620   21.3190 C   0  0  0  0  0  2  0  0  0  0  0  0
  -25.7640  -29.4610   20.6380 C   0  0  0  0  0  0  0  0  0  0  0  0
  -26.8970  -28.5350   20.5630 C   0  0  0  0  0  3  0  0  0  0  0  0
  -25.5760  -26.9590   19.3440 C   0  0  0  0  0  3  0  0  0  0  0  0
  -24.4700  -27.8510   19.3960 C   0  0  0  0  0  3  0  0  0  0  0  0
  -23.3370  -30.0220   20.2080 C   0  0  0  0  0  2  0  0  0  0  0  0
  -24.5050  -31.2250   22.0920 N   0  0  0  0  0  0  0  0  0  0  0  0
  -23.4440  -32.3400   23.7830 O   0  0  0  0  0  0  0  0  0  0  0  0
  -22.5400  -29.6910   22.5990 C   0  0  0  0  0  0  0  0  0  0  0  0
  -21.2120  -29.4930   22.4960 N   0  0  0  0  0  0  0  0  0  0  0  0
  -23.2350  -29.0880   23.4210 O   0  0  0  0  0  0  0  0  0  0  0  0
  -20.6970  -30.0390   21.8190 H   0  0  0  0  0  0  0  0  0  0  0  0
  -17.8760  -28.1460   23.0000 C   0  0  0  0  0  0  0  0  0  0  0  0
  -20.4190  -28.5440   23.2890 C   0  0  0  0  0  3  0  0  0  0  0  0
  -20.5940  -27.0980   22.7650 C   0  0  0  0  0  2  0  0  0  0  0  0
  -19.5230  -26.6880   21.7510 C   0  0  0  0  0  2  0  0  0  0  0  0
  -18.1280  -26.7870   22.3690 C   0  0  0  0  0  2  0  0  0  0  0  0
  -18.9510  -28.9760   23.4140 C   0  0  0  0  0  0  0  0  0  0  0  0
  -18.6590  -30.2460   23.9610 C   0  0  0  0  0  3  0  0  0  0  0  0
  -17.3280  -30.6820   24.1040 C   0  0  0  0  0  3  0  0  0  0  0  0
  -16.2700  -29.8520   23.6940 C   0  0  0  0  0  3  0  0  0  0  0  0
  -16.5450  -28.5840   23.1500 C   0  0  0  0  0  3  0  0  0  0  0  0
  -25.8150  -32.6500   23.7730 C   0  0  0  0  0  3  0  0  0  0  0  0
  -25.5430  -34.0550   24.1380 N   0  0  0  0  0  0  0  0  0  0  0  0
  -25.9000  -35.1160   23.4070 C   0  0  0  0  0  0  0  0  0  0  0  0
  -26.5480  -35.0230   22.3650 O   0  0  0  0  0  0  0  0  0  0  0  0
  -24.9600  -34.2040   24.9470 H   0  0  0  0  0  0  0  0  0  0  0  0
  -24.2320  -36.9850   23.1260 C   0  0  0  0  0  1  0  0  0  0  0  0
  -25.4670  -36.5120   23.9100 C   0  0  0  0  0  3  0  0  0  0  0  0
  -27.6350  -37.3090   24.7460 C   0  0  0  0  0  1  0  0  0  0  0  0
  -26.5330  -37.5330   23.8160 N   0  0  0  0  0  0  0  0  0  0  0  0
  -26.1540  -38.4640   23.9780 H   0  0  0  0  0  0  0  0  0  0  0  0
  -26.3650  -31.8630   25.0310 C   0  0  1  0  0  0  0  0  0  0  0  0
  -25.3100  -31.6420   26.1400 C   0  0  0  0  0  1  0  0  0  0  0  0
  -26.9020  -30.4720   24.6180 C   0  0  0  0  0  1  0  0  0  0  0  0
  -27.5540  -32.6330   25.6530 C   0  0  0  0  0  1  0  0  0  0  0  0
  -31.5550  -18.7930   20.3740 C   0  0  0  0  0  3  0  0  0  0  0  0
  -31.8800  -20.1250   19.8440 N   0  0  0  0  0  4  0  0  0  0  0  0
  -31.2400  -20.8390   20.1460 H   0  0  0  0  0  0  0  0  0  0  0  0
  -31.9330  -20.1000   18.8400 H   0  0  0  0  0  0  0  0  0  0  0  0
  -32.8020  -20.3150   20.2160 H   0  0  0  0  0  0  0  0  0  0  0  0
  -32.3080  -18.7050   21.7390 C   0  0  0  0  0  2  0  0  0  0  0  0
  -33.6080  -19.2930   21.6600 O   0  0  0  0  0  0  0  0  0  0  0  0
  -34.0620  -19.1270   22.4900 H   0  0  0  0  0  0  0  0  0  0  0  0
  2 10  1  0
  3  8  1  0
  4  5  1  0
  4  3  1  0
  6  5  1  0
  6 15  1  0
  6  7  1  0
  8  2  1  0
  8  7  1  0
  9  2  2  0
 10 11  1  0
 10  1  2  0
 12 13  2  0
 13 32  1  0
 14 13  1  0
 14 17  1  0
 15 16  1  0
 15 12  1  0
 16 14  2  0
 17 18  1  0
 18 19  2  0
 20 23  1  0
 20 19  1  0
 21 20  2  0
 22 21  1  0
 22 17  2  0
 23 24  1  0
 24 25  1  0
 25 26  2  0
 27 26  1  0
 27 31  1  0
 28 27  2  0
 29 24  2  0
 29 28  1  0
 30 29  1  0
 32 33  1  0
 33 36  1  0
 33 35  1  0
 34 32  2  0
 37 38  1  0
 37 12  1  0
 39 37  1  0
 40  1  1  0
 41 40  1  0
 41 42  1  0
 43 44  1  0
 43 42  1  0
 45 56  2  0
 46 44  1  0
 46 51  1  0
 47 55  1  0
 47 57  1  0
 48 54  1  0
 48 50  1  0
 49 55  1  0
 50 49  1  0
 51 50  2  0
 52 53  1  0
 52 46  2  0
 53 48  2  0
 54 47  1  0
 55 45  1  0
 57 59  2  0
 58 57  1  0
 60 58  1  0
 61 70  2  0
 61 66  1  0
 62 58  1  0
 62 66  1  0
 63 62  1  0
 64 65  1  0
 64 63  1  0
 65 61  1  0
 66 67  2  0
 67 68  1  0
 69 68  2  0
 70 69  1  0
 71 45  1  0
 71 72  1  0
 71 81  1  0
 72 75  1  0
 73 77  1  0
 73 72  1  0
 74 73  2  0
 77 76  1  0
 79 77  1  0
 79 80  1  0
 79 78  1  0
 81 84  1  1
 81 82  1  0
 83 81  1  0
 85  1  1  0
 85 90  1  0
 86 87  1  0
 86 89  1  0
 86 85  1  0
 88 86  1  0
 91 90  1  0
 91 92  1  0
M  ISO  4   2 100  10 100  43 101  44 101
M  END
>  <TORSDO>  (89) 
F 24

>  <SCORE>  (89) 
-15.023

>  <name>  (89) 
89

>  <ligand_id>  (89) 
89

>  <original_smiles>  (89) 
[H]OC([H])([H])C([H])(C([H])(N([H])C(=O)N1C([H])([H])C([H])([H])C([H])([H])C([H])(n2nc(-c3c([H])c([H])c(Oc4c([H])c([H])c(F)c([H])c4F)c([H])c3[H])c(C(=O)N([H])[H])c2N([H])[H])C1([H])[H])C([H])([H])OC([H])([H])C([H])([H])Oc1c([H])c([H])c2c(c1[H])C([H])([H])N(C(=O)C([H])(N([H])C(=O)C([H])(N([H])C([H])([H])[H])C([H])([H])[H])C(C([H])([H])[H])(C([H])([H])[H])C([H])([H])[H])C([H])(C(=O)N([H])C1([H])c3c([H])c([H])c([H])c([H])c3C([H])([H])C([H])([H])C1([H])[H])C2([H])[H])[N+]([H])([H])[H]

>  <smiles>  (89) 
[H]OC([H])([H])C([H])(C([H])(N([H])C(=O)N1C([H])([H])C([H])([H])C([H])([H])C([H])(n2nc(-c3c([H])c([H])c(Oc4c([H])c([H])c(F)c([H])c4F)c([H])c3[H])c(C(=O)N([H])[H])c2N([H])[H])C1([H])[H])C([H])([H])OC([H])([H])C([H])([H])Oc1c([H])c([H])c2c(c1[H])C([H])([H])N(C(=O)C([H])(N([H])C(=O)C([H])(N([H])C([H])([H])[H])C([H])([H])[H])C(C([H])([H])[H])(C([H])([H])[H])C([H])([H])[H])C([H])(C(=O)N([H])C1([H])c3c([H])c([H])c([H])c([H])c3C([H])([H])C([H])([H])C1([H])[H])C2([H])[H])[N+]([H])([H])[H]

$$$$
90:0:0
     RDKit          3D

 91 98  0  0  1  0  0  0  0  0999 V2000
  -29.2820  -18.5270   20.6080 C   0  0  0  0  0  0  0  0  0  0  0  0
  -29.5860  -19.8550   20.3740 N   0  0  0  0  0  0  0  0  0  0  0  0
  -28.2410  -18.2080   21.1850 O   0  0  0  0  0  0  0  0  0  0  0  0
  -30.4590  -19.9970   19.8840 H   0  0  0  0  0  0  0  0  0  0  0  0
  -28.9250  -21.1150   20.9040 C   0  0  0  0  0  3  0  0  0  0  0  0
  -29.0940  -22.5000   20.1030 C   0  0  0  0  0  3  0  0  0  0  0  0
  -28.6380  -23.8980   20.7760 C   0  0  0  0  0  3  0  0  0  0  0  0
  -28.4020  -25.1760   19.8210 C   0  0  0  0  0  3  0  0  0  0  0  0
  -28.3130  -26.5700   20.3620 O   0  0  0  0  0  0  0  0  0  0  0  0
  -24.6030  -31.9880   23.3500 C   0  0  0  0  0  0  0  0  0  0  0  0
  -27.1740  -27.4010   20.2830 C   0  0  0  0  0  0  0  0  0  0  0  0
  -23.3830  -30.6000   21.7160 C   0  0  0  0  0  3  0  0  0  0  0  0
  -24.8160  -29.0460   20.2770 C   0  0  0  0  0  0  0  0  0  0  0  0
  -25.9210  -30.9120   21.5030 C   0  0  0  0  0  2  0  0  0  0  0  0
  -25.9890  -29.5250   20.8670 C   0  0  0  0  0  0  0  0  0  0  0  0
  -27.1670  -28.7140   20.8620 C   0  0  0  0  0  3  0  0  0  0  0  0
  -25.9690  -26.9800   19.6750 C   0  0  0  0  0  3  0  0  0  0  0  0
  -24.8090  -27.7790   19.6740 C   0  0  0  0  0  3  0  0  0  0  0  0
  -23.5840  -29.9260   20.3320 C   0  0  0  0  0  2  0  0  0  0  0  0
  -24.6570  -31.1850   22.2480 N   0  0  0  0  0  0  0  0  0  0  0  0
  -23.5240  -32.2620   23.8960 O   0  0  0  0  0  0  0  0  0  0  0  0
  -22.7250  -29.5820   22.6800 C   0  0  0  0  0  0  0  0  0  0  0  0
  -21.4040  -29.3800   22.5380 N   0  0  0  0  0  0  0  0  0  0  0  0
  -23.4040  -28.9770   23.5140 O   0  0  0  0  0  0  0  0  0  0  0  0
  -20.9150  -29.9220   21.8380 H   0  0  0  0  0  0  0  0  0  0  0  0
  -18.0500  -28.1000   22.9680 C   0  0  0  0  0  0  0  0  0  0  0  0
  -20.5910  -28.4410   23.3100 C   0  0  0  0  0  3  0  0  0  0  0  0
  -20.7530  -27.0000   22.7730 C   0  0  0  0  0  2  0  0  0  0  0  0
  -19.6910  -26.6190   21.7380 C   0  0  0  0  0  2  0  0  0  0  0  0
  -18.2850  -26.7410   22.3350 C   0  0  0  0  0  2  0  0  0  0  0  0
  -19.1330  -28.9050   23.4130 C   0  0  0  0  0  0  0  0  0  0  0  0
  -18.8590  -30.1750   23.9670 C   0  0  0  0  0  3  0  0  0  0  0  0
  -17.5350  -30.6380   24.0840 C   0  0  0  0  0  3  0  0  0  0  0  0
  -16.4680  -29.8330   23.6540 C   0  0  0  0  0  3  0  0  0  0  0  0
  -16.7260  -28.5670   23.0980 C   0  0  0  0  0  3  0  0  0  0  0  0
  -25.8900  -32.6150   23.9680 C   0  0  0  0  0  3  0  0  0  0  0  0
  -25.5950  -34.0230   24.2680 N   0  0  0  0  0  0  0  0  0  0  0  0
  -25.9400  -35.0560   23.4880 C   0  0  0  0  0  0  0  0  0  0  0  0
  -26.6050  -34.9230   22.4590 O   0  0  0  0  0  0  0  0  0  0  0  0
  -24.9920  -34.1970   25.0590 H   0  0  0  0  0  0  0  0  0  0  0  0
  -24.2260  -36.8620   23.1210 C   0  0  0  0  0  1  0  0  0  0  0  0
  -25.4720  -36.4590   23.9230 C   0  0  0  0  0  3  0  0  0  0  0  0
  -27.6290  -37.3420   24.7000 C   0  0  0  0  0  1  0  0  0  0  0  0
  -26.5130  -37.5000   23.7720 N   0  0  0  0  0  0  0  0  0  0  0  0
  -26.1150  -38.4250   23.9100 H   0  0  0  0  0  0  0  0  0  0  0  0
  -26.3800  -31.8620   25.2660 C   0  0  1  0  0  0  0  0  0  0  0  0
  -25.2730  -31.6720   26.3290 C   0  0  0  0  0  1  0  0  0  0  0  0
  -26.9410  -30.4670   24.9040 C   0  0  0  0  0  1  0  0  0  0  0  0
  -27.5330  -32.6530   25.9250 C   0  0  0  0  0  1  0  0  0  0  0  0
  -30.2950  -17.3740   20.1940 C   0  0  0  0  0  3  0  0  0  0  0  0
  -30.6110  -14.7860   20.1490 C   0  0  0  0  0  0  0  0  0  0  0  0
  -30.3710  -12.5020   19.1830 C   0  0  0  0  0  2  0  0  0  0  0  0
  -29.4260  -12.5820   17.9650 C   0  0  0  0  0  2  0  0  0  0  0  0
  -27.9540  -12.4380   18.4080 C   0  0  0  0  0  2  0  0  0  0  0  0
  -27.6000  -13.3200   19.6390 C   0  0  0  0  0  3  0  0  0  0  0  0
  -28.6780  -13.2370   20.7410 C   0  0  0  0  0  2  0  0  0  0  0  0
  -29.9680  -13.5700   20.1270 N   0  0  0  0  0  0  0  0  0  0  0  0
  -31.7660  -14.8730   19.7240 O   0  0  0  0  0  0  0  0  0  0  0  0
  -29.9010  -15.9270   20.4660 N   0  0  0  0  0  0  0  0  0  0  0  0
  -28.9530  -15.8020   20.7900 H   0  0  0  0  0  0  0  0  0  0  0  0
  -25.2260  -13.8900   20.4410 C   0  0  0  0  0  0  0  0  0  0  0  0
  -24.1750  -13.1070   20.8300 C   0  0  0  0  0  0  0  0  0  0  0  0
  -24.6430  -11.7580   20.7690 C   0  0  0  0  0  0  0  0  0  0  0  0
  -26.2680  -13.0190   20.1570 N   0  0  0  0  0  0  0  0  0  0  0  0
  -25.9230  -11.7300   20.4160 N   0  0  0  0  0  0  0  0  0  0  0  0
  -23.9230  -10.4930   20.9630 C   0  0  0  0  0  0  0  0  0  0  0  0
  -24.3630   -9.5270   21.8950 C   0  0  0  0  0  3  0  0  0  0  0  0
  -23.6380   -8.3270   22.0790 C   0  0  0  0  0  3  0  0  0  0  0  0
  -22.4610   -8.0850   21.3280 C   0  0  0  0  0  0  0  0  0  0  0  0
  -22.0430   -9.0410   20.3860 C   0  0  0  0  0  3  0  0  0  0  0  0
  -22.7670  -10.2300   20.2000 C   0  0  0  0  0  3  0  0  0  0  0  0
  -21.7140   -6.9370   21.4170 O   0  0  0  0  0  0  0  0  0  0  0  0
  -21.6420   -6.2140   22.5830 C   0  0  0  0  0  0  0  0  0  0  0  0
  -21.1860   -6.7860   23.7880 C   0  0  0  0  0  3  0  0  0  0  0  0
  -21.0580   -5.9890   24.9440 C   0  0  0  0  0  3  0  0  0  0  0  0
  -21.3840   -4.6190   24.8940 C   0  0  0  0  0  0  0  0  0  0  0  0
  -21.8360   -4.0470   23.6940 C   0  0  0  0  0  3  0  0  0  0  0  0
  -21.9640   -4.8420   22.5410 C   0  0  0  0  0  0  0  0  0  0  0  0
  -22.3780   -4.2800   21.3810 F   0  0  0  0  0  0  0  0  0  0  0  0
  -21.2570   -3.8520   26.0040 F   0  0  0  0  0  0  0  0  0  0  0  0
  -22.7850  -13.5760   21.1470 C   0  0  0  0  0  0  0  0  0  0  0  0
  -22.0810  -12.8770   22.0300 N   0  0  0  0  0  0  0  0  0  0  0  0
  -22.3320  -14.6040   20.6460 O   0  0  0  0  0  0  0  0  0  0  0  0
  -22.4640  -12.0520   22.4680 H   0  0  0  0  0  0  0  0  0  0  0  0
  -21.1510  -13.1770   22.2770 H   0  0  0  0  0  0  0  0  0  0  0  0
  -25.3790  -15.2650   20.2910 N   0  0  0  0  0  0  0  0  0  0  0  0
  -24.6130  -15.9050   20.4750 H   0  0  0  0  0  0  0  0  0  0  0  0
  -26.2180  -15.7380   19.9810 H   0  0  0  0  0  0  0  0  0  0  0  0
  -32.7100  -18.1490   20.0100 C   0  0  0  0  0  3  0  0  0  0  0  0
  -31.6900  -17.6590   20.7350 C   0  0  0  0  0  3  0  0  0  0  0  0
  -34.0830  -18.4630   20.5690 C   0  0  0  0  0  1  0  0  0  0  0  0
  1  3  2  0
  2  1  1  0
  2  5  1  0
  4  2  1  0
  6  7  1  0
  6  5  2  0
  8  9  1  0
  8  7  2  0
 10 21  2  0
 11  9  1  0
 11 16  1  0
 12 20  1  0
 12 22  1  0
 13 19  1  0
 13 15  1  0
 14 20  1  0
 15 14  1  0
 16 15  2  0
 17 11  2  0
 18 17  1  0
 18 13  2  0
 19 12  1  0
 20 10  1  0
 22 24  2  0
 23 22  1  0
 25 23  1  0
 26 35  2  0
 26 31  1  0
 27 23  1  0
 27 31  1  0
 28 27  1  0
 29 30  1  0
 29 28  1  0
 30 26  1  0
 31 32  2  0
 32 33  1  0
 34 33  2  0
 35 34  1  0
 36 10  1  0
 36 37  1  0
 36 46  1  0
 37 40  1  0
 38 42  1  0
 38 37  1  0
 39 38  2  0
 42 41  1  0
 44 45  1  0
 44 42  1  0
 44 43  1  0
 46 49  1  1
 46 47  1  0
 48 46  1  0
 50 59  1  0
 50  1  1  0
 50 90  1  0
 51 59  1  0
 52 57  1  0
 53 54  1  0
 53 52  1  0
 55 54  1  0
 55 64  1  0
 55 56  1  0
 57 51  1  0
 57 56  1  0
 58 51  2  0
 59 60  1  0
 61 62  2  0
 62 81  1  0
 63 62  1  0
 63 66  1  0
 64 65  1  0
 64 61  1  0
 65 63  2  0
 66 67  1  0
 67 68  2  0
 69 72  1  0
 69 68  1  0
 70 69  2  0
 71 70  1  0
 71 66  2  0
 72 73  1  0
 73 74  1  0
 74 75  2  0
 76 75  1  0
 76 80  1  0
 77 76  2  0
 78 73  2  0
 78 77  1  0
 79 78  1  0
 81 82  1  0
 82 85  1  0
 82 84  1  0
 83 81  2  0
 86 61  1  0
 86 87  1  0
 88 86  1  0
 89 91  1  0
 89 90  2  0
M  ISO  4   8 101   9 101  51 100  59 100
M  END
>  <TORSDO>  (90) 
F 22

>  <SCORE>  (90) 
-12.689

>  <name>  (90) 
90

>  <ligand_id>  (90) 
90

>  <original_smiles>  (90) 
[H]C(=C([H])C([H])(C(=O)N([H])C([H])([H])C([H])([H])C([H])([H])C([H])([H])Oc1c([H])c([H])c2c(c1[H])C([H])([H])N(C(=O)C([H])(N([H])C(=O)C([H])(N([H])C([H])([H])[H])C([H])([H])[H])C(C([H])([H])[H])(C([H])([H])[H])C([H])([H])[H])C([H])(C(=O)N([H])C1([H])c3c([H])c([H])c([H])c([H])c3C([H])([H])C([H])([H])C1([H])[H])C2([H])[H])N([H])C(=O)N1C([H])([H])C([H])([H])C([H])([H])C([H])(n2nc(-c3c([H])c([H])c(Oc4c([H])c([H])c(F)c([H])c4F)c([H])c3[H])c(C(=O)N([H])[H])c2N([H])[H])C1([H])[H])C([H])([H])[H]

>  <smiles>  (90) 
[H]C(=C([H])C([H])(C(=O)N([H])C([H])([H])C([H])([H])C([H])([H])C([H])([H])Oc1c([H])c([H])c2c(c1[H])C([H])([H])N(C(=O)C([H])(N([H])C(=O)C([H])(N([H])C([H])([H])[H])C([H])([H])[H])C(C([H])([H])[H])(C([H])([H])[H])C([H])([H])[H])C([H])(C(=O)N([H])C1([H])c3c([H])c([H])c([H])c([H])c3C([H])([H])C([H])([H])C1([H])[H])C2([H])[H])N([H])C(=O)N1C([H])([H])C([H])([H])C([H])([H])C([H])(n2nc(-c3c([H])c([H])c(Oc4c([H])c([H])c(F)c([H])c4F)c([H])c3[H])c(C(=O)N([H])[H])c2N([H])[H])C1([H])[H])C([H])([H])[H]

$$$$
91:0:0
     RDKit          3D

 96104  0  0  1  0  0  0  0  0999 V2000
  -29.4060  -22.9730   19.7160 C   0  0  0  0  0  0  0  0  0  0  0  0
  -29.7350  -21.5800   19.5410 N   0  0  0  0  0  0  0  0  0  0  0  0
  -30.9430  -24.6570   20.9090 C   0  0  0  0  0  3  0  0  0  0  0  0
  -32.1920  -25.2180   20.8080 C   0  0  0  0  0  3  0  0  0  0  0  0
  -31.7230  -23.5920   18.9790 C   0  0  0  0  0  3  0  0  0  0  0  0
  -30.6740  -23.7340   19.8530 C   0  0  0  0  0  0  0  0  0  0  0  0
  -33.0640  -24.6120   19.4230 S   0  0  0  0  0  0  0  0  0  0  0  0
  -28.1470  -24.2530   19.8170 C   0  0  0  0  0  2  0  0  0  0  0  0
  -28.3180  -25.9080   19.9980 O   0  0  0  0  0  0  0  0  0  0  0  0
  -24.5700  -31.7470   23.0850 C   0  0  0  0  0  0  0  0  0  0  0  0
  -27.2680  -26.9820   19.9740 C   0  0  0  0  0  0  0  0  0  0  0  0
  -23.4150  -30.3370   21.4320 C   0  0  0  0  0  3  0  0  0  0  0  0
  -24.9070  -28.8000   19.9760 C   0  0  0  0  0  0  0  0  0  0  0  0
  -25.9730  -30.6320   21.2750 C   0  0  0  0  0  2  0  0  0  0  0  0
  -26.0870  -29.2320   20.5940 C   0  0  0  0  0  0  0  0  0  0  0  0
  -27.2600  -28.3450   20.5650 C   0  0  0  0  0  3  0  0  0  0  0  0
  -26.0500  -26.7080   19.3130 C   0  0  0  0  0  3  0  0  0  0  0  0
  -24.9150  -27.5620   19.3140 C   0  0  0  0  0  3  0  0  0  0  0  0
  -23.6590  -29.6830   20.0440 C   0  0  0  0  0  2  0  0  0  0  0  0
  -24.6740  -30.9330   21.9840 N   0  0  0  0  0  0  0  0  0  0  0  0
  -23.4750  -31.9920   23.6160 O   0  0  0  0  0  0  0  0  0  0  0  0
  -22.7580  -29.3050   22.3870 C   0  0  0  0  0  0  0  0  0  0  0  0
  -21.4360  -29.0890   22.2590 N   0  0  0  0  0  0  0  0  0  0  0  0
  -23.4470  -28.6990   23.2120 O   0  0  0  0  0  0  0  0  0  0  0  0
  -20.9310  -29.6310   21.5710 H   0  0  0  0  0  0  0  0  0  0  0  0
  -18.1090  -27.7150   22.7320 C   0  0  0  0  0  0  0  0  0  0  0  0
  -20.6510  -28.1090   23.0200 C   0  0  0  0  0  3  0  0  0  0  0  0
  -20.8290  -26.6850   22.4420 C   0  0  0  0  0  2  0  0  0  0  0  0
  -19.7530  -26.3120   21.4160 C   0  0  0  0  0  2  0  0  0  0  0  0
  -18.3600  -26.3810   22.0480 C   0  0  0  0  0  2  0  0  0  0  0  0
  -19.1850  -28.5330   23.1740 C   0  0  0  0  0  0  0  0  0  0  0  0
  -18.8930  -29.7760   23.7770 C   0  0  0  0  0  3  0  0  0  0  0  0
  -17.5620  -30.2040   23.9400 C   0  0  0  0  0  3  0  0  0  0  0  0
  -16.5030  -29.3840   23.5120 C   0  0  0  0  0  3  0  0  0  0  0  0
  -16.7770  -28.1410   22.9140 C   0  0  0  0  0  3  0  0  0  0  0  0
  -25.8210  -32.4240   23.7230 C   0  0  0  0  0  3  0  0  0  0  0  0
  -25.4550  -33.8060   24.0860 N   0  0  0  0  0  0  0  0  0  0  0  0
  -25.7510  -34.8940   23.3620 C   0  0  0  0  0  0  0  0  0  0  0  0
  -26.4210  -34.8440   22.3290 O   0  0  0  0  0  0  0  0  0  0  0  0
  -24.8540  -33.9150   24.8900 H   0  0  0  0  0  0  0  0  0  0  0  0
  -23.9640  -36.6470   23.0720 C   0  0  0  0  0  1  0  0  0  0  0  0
  -25.2220  -36.2550   23.8640 C   0  0  0  0  0  3  0  0  0  0  0  0
  -27.3260  -37.1930   24.7180 C   0  0  0  0  0  1  0  0  0  0  0  0
  -26.2190  -37.3450   23.7770 N   0  0  0  0  0  0  0  0  0  0  0  0
  -25.7830  -38.2480   23.9430 H   0  0  0  0  0  0  0  0  0  0  0  0
  -26.3590  -31.6570   24.9940 C   0  0  1  0  0  0  0  0  0  0  0  0
  -25.2720  -31.3650   26.0540 C   0  0  0  0  0  1  0  0  0  0  0  0
  -26.9950  -30.3060   24.5940 C   0  0  0  0  0  1  0  0  0  0  0  0
  -27.4780  -32.4850   25.6700 C   0  0  0  0  0  1  0  0  0  0  0  0
  -29.2820  -19.9870   19.2690 C   0  0  0  0  0  3  0  0  0  0  0  0
  -27.9230  -19.7680   19.9560 C   0  0  0  0  0  0  0  0  0  0  0  0
  -27.6370  -20.5360   21.0010 N   0  0  0  0  0  0  0  0  0  0  0  0
  -27.1320  -18.9190   19.5500 O   0  0  0  0  0  0  0  0  0  0  0  0
  -28.3290  -21.2150   21.2860 H   0  0  0  0  0  0  0  0  0  0  0  0
  -26.7650  -20.4470   21.5020 H   0  0  0  0  0  0  0  0  0  0  0  0
  -31.1360  -18.8600   20.8160 C   0  0  0  0  0  1  0  0  0  0  0  0
  -31.3470  -18.6100   18.3500 C   0  0  0  0  0  1  0  0  0  0  0  0
  -30.3610  -18.5190   19.5290 C   0  0  2  0  0  0  0  0  0  0  0  0
  -30.7960  -15.5530   19.7150 C   0  0  0  0  0  0  0  0  0  0  0  0
  -30.7750  -13.0260   19.0680 C   0  0  0  0  0  2  0  0  0  0  0  0
  -29.8420  -12.6790   17.8800 C   0  0  0  0  0  2  0  0  0  0  0  0
  -28.4050  -12.4330   18.3700 C   0  0  0  0  0  2  0  0  0  0  0  0
  -27.9580  -13.4950   19.4050 C   0  0  0  0  0  3  0  0  0  0  0  0
  -29.0220  -13.7770   20.4880 C   0  0  0  0  0  2  0  0  0  0  0  0
  -30.2260  -14.2440   19.7810 N   0  0  0  0  0  0  0  0  0  0  0  0
  -32.0170  -15.5050   19.5050 O   0  0  0  0  0  0  0  0  0  0  0  0
  -30.0510  -16.8570   19.6920 N   0  0  0  0  0  0  0  0  0  0  0  0
  -29.0620  -16.6850   19.8140 H   0  0  0  0  0  0  0  0  0  0  0  0
  -25.6590  -14.1210   20.3030 C   0  0  0  0  0  0  0  0  0  0  0  0
  -24.5800  -13.3780   20.6850 C   0  0  0  0  0  0  0  0  0  0  0  0
  -24.9790  -12.0100   20.5700 C   0  0  0  0  0  0  0  0  0  0  0  0
  -26.6450  -13.2110   19.9670 N   0  0  0  0  0  0  0  0  0  0  0  0
  -26.2510  -11.9310   20.1960 N   0  0  0  0  0  0  0  0  0  0  0  0
  -24.1980  -10.7750   20.7320 C   0  0  0  0  0  0  0  0  0  0  0  0
  -24.5860   -9.7710   21.6450 C   0  0  0  0  0  3  0  0  0  0  0  0
  -23.8040   -8.6050   21.8010 C   0  0  0  0  0  3  0  0  0  0  0  0
  -22.6220   -8.4350   21.0420 C   0  0  0  0  0  0  0  0  0  0  0  0
  -22.2530   -9.4280   20.1170 C   0  0  0  0  0  3  0  0  0  0  0  0
  -23.0340  -10.5850   19.9610 C   0  0  0  0  0  3  0  0  0  0  0  0
  -21.8160   -7.3240   21.1080 O   0  0  0  0  0  0  0  0  0  0  0  0
  -21.6770   -6.6020   22.2660 C   0  0  0  0  0  0  0  0  0  0  0  0
  -21.1960   -7.1880   23.4560 C   0  0  0  0  0  3  0  0  0  0  0  0
  -21.0030   -6.3940   24.6040 C   0  0  0  0  0  3  0  0  0  0  0  0
  -21.2830   -5.0140   24.5620 C   0  0  0  0  0  0  0  0  0  0  0  0
  -21.7570   -4.4280   23.3750 C   0  0  0  0  0  3  0  0  0  0  0  0
  -21.9500   -5.2190   22.2300 C   0  0  0  0  0  0  0  0  0  0  0  0
  -22.3880   -4.6450   21.0840 F   0  0  0  0  0  0  0  0  0  0  0  0
  -21.0910   -4.2490   25.6620 F   0  0  0  0  0  0  0  0  0  0  0  0
  -23.2200  -13.9060   21.0400 C   0  0  0  0  0  0  0  0  0  0  0  0
  -22.5060  -13.2200   21.9240 N   0  0  0  0  0  0  0  0  0  0  0  0
  -22.8050  -14.9630   20.5660 O   0  0  0  0  0  0  0  0  0  0  0  0
  -22.8560  -12.3640   22.3290 H   0  0  0  0  0  0  0  0  0  0  0  0
  -21.5950  -13.5560   22.2020 H   0  0  0  0  0  0  0  0  0  0  0  0
  -25.8770  -15.4900   20.1800 N   0  0  0  0  0  0  0  0  0  0  0  0
  -25.1500  -16.1710   20.3700 H   0  0  0  0  0  0  0  0  0  0  0  0
  -26.7250  -15.9110   19.8240 H   0  0  0  0  0  0  0  0  0  0  0  0
  1  8  1  0
  1  6  1  0
  2  1  2  0
  4  3  2  0
  5  7  1  0
  5  6  2  0
  6  3  1  0
  7  4  1  0
  8  9  1  0
 10 21  2  0
 11  9  1  0
 11 16  1  0
 12 20  1  0
 12 22  1  0
 13 19  1  0
 13 15  1  0
 14 20  1  0
 15 14  1  0
 16 15  2  0
 17 18  1  0
 17 11  2  0
 18 13  2  0
 19 12  1  0
 20 10  1  0
 22 24  2  0
 23 22  1  0
 25 23  1  0
 26 35  2  0
 26 31  1  0
 27 23  1  0
 27 31  1  0
 28 27  1  0
 29 30  1  0
 29 28  1  0
 30 26  1  0
 31 32  2  0
 32 33  1  0
 34 33  2  0
 35 34  1  0
 36 10  1  0
 36 37  1  0
 36 46  1  0
 37 40  1  0
 38 42  1  0
 38 37  1  0
 39 38  2  0
 42 41  1  0
 44 42  1  0
 44 45  1  0
 44 43  1  0
 46 49  1  1
 46 47  1  0
 48 46  1  0
 50 58  1  0
 50  2  1  0
 50 51  1  0
 51 52  1  0
 52 54  1  0
 52 55  1  0
 53 51  2  0
 58 57  1  6
 58 67  1  0
 58 56  1  0
 59 65  1  0
 60 65  1  0
 61 62  1  0
 61 60  1  0
 63 62  1  0
 63 72  1  0
 63 64  1  0
 65 64  1  0
 66 59  2  0
 67 59  1  0
 67 68  1  0
 69 70  2  0
 70 89  1  0
 71 70  1  0
 71 74  1  0
 72 73  1  0
 72 69  1  0
 73 71  2  0
 74 75  1  0
 75 76  2  0
 77 80  1  0
 77 76  1  0
 78 77  2  0
 79 78  1  0
 79 74  2  0
 80 81  1  0
 81 82  1  0
 82 83  2  0
 84 83  1  0
 84 88  1  0
 85 84  2  0
 86 81  2  0
 86 85  1  0
 87 86  1  0
 89 90  1  0
 90 93  1  0
 90 92  1  0
 91 89  2  0
 94 69  1  0
 94 95  1  0
 96 94  1  0
M  ISO  4   8 101   9 101  59 100  67 100
M  END
>  <TORSDO>  (91) 
F 21

>  <SCORE>  (91) 
-15.325

>  <name>  (91) 
91

>  <ligand_id>  (91) 
91

>  <original_smiles>  (91) 
[H]c1sc([H])c(C(=NC([H])(C(=O)N([H])[H])C(N([H])C(=O)N2C([H])([H])C([H])([H])C([H])([H])C([H])(n3nc(-c4c([H])c([H])c(Oc5c([H])c([H])c(F)c([H])c5F)c([H])c4[H])c(C(=O)N([H])[H])c3N([H])[H])C2([H])[H])(C([H])([H])[H])C([H])([H])[H])C([H])([H])Oc2c([H])c([H])c3c(c2[H])C([H])([H])N(C(=O)C([H])(N([H])C(=O)C([H])(N([H])C([H])([H])[H])C([H])([H])[H])C(C([H])([H])[H])(C([H])([H])[H])C([H])([H])[H])C([H])(C(=O)N([H])C2([H])c4c([H])c([H])c([H])c([H])c4C([H])([H])C([H])([H])C2([H])[H])C3([H])[H])c1[H]

>  <smiles>  (91) 
[H]c1sc([H])c(C(=NC([H])(C(=O)N([H])[H])C(N([H])C(=O)N2C([H])([H])C([H])([H])C([H])([H])C([H])(n3nc(-c4c([H])c([H])c(Oc5c([H])c([H])c(F)c([H])c5F)c([H])c4[H])c(C(=O)N([H])[H])c3N([H])[H])C2([H])[H])(C([H])([H])[H])C([H])([H])[H])C([H])([H])Oc2c([H])c([H])c3c(c2[H])C([H])([H])N(C(=O)C([H])(N([H])C(=O)C([H])(N([H])C([H])([H])[H])C([H])([H])[H])C(C([H])([H])[H])(C([H])([H])[H])C([H])([H])[H])C([H])(C(=O)N([H])C2([H])c4c([H])c([H])c([H])c([H])c4C([H])([H])C([H])([H])C2([H])[H])C3([H])[H])c1[H]

$$$$
92:0:0
     RDKit          3D

 97104  0  0  1  0  0  0  0  0999 V2000
  -31.3060  -21.2970   22.0740 C   0  0  0  0  0  1  0  0  0  0  0  0
  -30.0540  -21.7920   21.3180 C   0  0  0  0  0  3  0  0  0  0  0  0
  -30.4000  -22.8180   20.2910 N   0  0  0  0  0  4  0  0  0  0  0  0
  -31.2100  -22.5110   19.7760 H   0  0  0  0  0  0  0  0  0  0  0  0
  -29.6310  -22.8620   19.6420 H   0  0  0  0  0  0  0  0  0  0  0  0
  -30.6350  -24.1930   20.8210 C   0  0  0  0  0  2  0  0  0  0  0  0
  -30.6310  -25.2960   19.7320 C   0  0  0  0  0  2  0  0  0  0  0  0
  -29.2600  -25.9490   19.4530 C   0  0  0  0  0  2  0  0  0  0  0  0
  -29.0390  -27.1080   20.2680 O   0  0  0  0  0  0  0  0  0  0  0  0
  -24.6650  -31.8720   23.2580 C   0  0  0  0  0  0  0  0  0  0  0  0
  -27.8000  -27.7240   20.2100 C   0  0  0  0  0  0  0  0  0  0  0  0
  -23.6550  -30.4280   21.5260 C   0  0  0  0  0  3  0  0  0  0  0  0
  -25.2910  -29.0450   20.1440 C   0  0  0  0  0  0  0  0  0  0  0  0
  -26.1530  -30.9800   21.4690 C   0  0  0  0  0  2  0  0  0  0  0  0
  -26.3740  -29.6350   20.8040 C   0  0  0  0  0  0  0  0  0  0  0  0
  -27.6270  -28.9810   20.8390 C   0  0  0  0  0  3  0  0  0  0  0  0
  -26.6880  -27.1460   19.5500 C   0  0  0  0  0  3  0  0  0  0  0  0
  -25.4420  -27.7970   19.5180 C   0  0  0  0  0  3  0  0  0  0  0  0
  -23.9840  -29.8040   20.1430 C   0  0  0  0  0  2  0  0  0  0  0  0
  -24.8390  -31.1090   22.1440 N   0  0  0  0  0  0  0  0  0  0  0  0
  -23.5410  -32.0470   23.7490 O   0  0  0  0  0  0  0  0  0  0  0  0
  -23.0400  -29.3340   22.4280 C   0  0  0  0  0  0  0  0  0  0  0  0
  -21.7300  -29.0840   22.2570 N   0  0  0  0  0  0  0  0  0  0  0  0
  -23.7370  -28.7140   23.2360 O   0  0  0  0  0  0  0  0  0  0  0  0
  -21.2290  -29.6380   21.5770 H   0  0  0  0  0  0  0  0  0  0  0  0
  -18.4120  -27.7060   22.6310 C   0  0  0  0  0  0  0  0  0  0  0  0
  -20.9480  -28.0740   22.9690 C   0  0  0  0  0  3  0  0  0  0  0  0
  -21.1320  -26.6770   22.3320 C   0  0  0  0  0  2  0  0  0  0  0  0
  -20.0670  -26.3490   21.2810 C   0  0  0  0  0  2  0  0  0  0  0  0
  -18.6680  -26.3980   21.9010 C   0  0  0  0  0  2  0  0  0  0  0  0
  -19.4840  -28.5000   23.1190 C   0  0  0  0  0  0  0  0  0  0  0  0
  -19.1930  -29.7250   23.7590 C   0  0  0  0  0  3  0  0  0  0  0  0
  -17.8630  -30.1560   23.9170 C   0  0  0  0  0  3  0  0  0  0  0  0
  -16.8050  -29.3590   23.4470 C   0  0  0  0  0  3  0  0  0  0  0  0
  -17.0800  -28.1350   22.8100 C   0  0  0  0  0  3  0  0  0  0  0  0
  -25.8670  -32.5830   23.9570 C   0  0  0  0  0  3  0  0  0  0  0  0
  -25.4670  -33.9710   24.2210 N   0  0  0  0  0  0  0  0  0  0  0  0
  -25.8010  -35.0170   23.4550 C   0  0  0  0  0  0  0  0  0  0  0  0
  -26.5470  -34.9210   22.4780 O   0  0  0  0  0  0  0  0  0  0  0  0
  -24.8110  -34.1170   24.9750 H   0  0  0  0  0  0  0  0  0  0  0  0
  -24.0080  -36.6990   22.9280 C   0  0  0  0  0  1  0  0  0  0  0  0
  -25.2110  -36.3900   23.8320 C   0  0  0  0  0  3  0  0  0  0  0  0
  -27.2380  -37.4110   24.7670 C   0  0  0  0  0  1  0  0  0  0  0  0
  -26.1930  -37.4950   23.7520 N   0  0  0  0  0  0  0  0  0  0  0  0
  -25.7300  -38.3950   23.8460 H   0  0  0  0  0  0  0  0  0  0  0  0
  -26.3210  -31.8700   25.2880 C   0  0  1  0  0  0  0  0  0  0  0  0
  -25.1660  -31.6070   26.2810 C   0  0  0  0  0  1  0  0  0  0  0  0
  -26.9930  -30.5130   24.9760 C   0  0  0  0  0  1  0  0  0  0  0  0
  -27.3820  -32.7340   26.0100 C   0  0  0  0  0  1  0  0  0  0  0  0
  -29.1930  -20.6090   20.7510 C   0  0  0  0  0  3  0  0  0  0  0  0
  -29.9900  -18.2120   20.7930 C   0  0  0  0  0  0  0  0  0  0  0  0
  -30.0180  -19.4690   20.3030 N   0  0  0  0  0  0  0  0  0  0  0  0
  -29.2590  -17.8730   21.7250 O   0  0  0  0  0  0  0  0  0  0  0  0
  -30.6500  -19.6220   19.5300 H   0  0  0  0  0  0  0  0  0  0  0  0
  -30.9470  -17.2620   18.5910 C   0  0  0  0  0  1  0  0  0  0  0  0
  -30.9150  -17.1700   20.1340 C   0  0  0  0  0  3  0  0  0  0  0  0
  -31.3040  -14.7010   20.2330 C   0  0  0  0  0  0  0  0  0  0  0  0
  -30.9510  -12.4980   19.2060 C   0  0  0  0  0  2  0  0  0  0  0  0
  -30.0250  -12.6920   17.9860 C   0  0  0  0  0  2  0  0  0  0  0  0
  -28.5450  -12.6140   18.4100 C   0  0  0  0  0  2  0  0  0  0  0  0
  -28.2240  -13.5070   19.6390 C   0  0  0  0  0  3  0  0  0  0  0  0
  -29.2690  -13.3060   20.7620 C   0  0  0  0  0  2  0  0  0  0  0  0
  -30.6040  -13.5350   20.1890 N   0  0  0  0  0  0  0  0  0  0  0  0
  -32.4520  -14.8110   19.7980 O   0  0  0  0  0  0  0  0  0  0  0  0
  -30.5800  -15.7920   20.5360 N   0  0  0  0  0  0  0  0  0  0  0  0
  -29.6650  -15.6550   20.9380 H   0  0  0  0  0  0  0  0  0  0  0  0
  -25.8760  -14.2140   20.4200 C   0  0  0  0  0  0  0  0  0  0  0  0
  -24.7670  -13.4860   20.7600 C   0  0  0  0  0  0  0  0  0  0  0  0
  -25.1450  -12.1140   20.6440 C   0  0  0  0  0  0  0  0  0  0  0  0
  -26.8620  -13.2870   20.1210 N   0  0  0  0  0  0  0  0  0  0  0  0
  -26.4260  -12.0160   20.3140 N   0  0  0  0  0  0  0  0  0  0  0  0
  -24.3450  -10.8880   20.7740 C   0  0  0  0  0  0  0  0  0  0  0  0
  -24.7450   -9.8310   21.6210 C   0  0  0  0  0  3  0  0  0  0  0  0
  -23.9500   -8.6710   21.7420 C   0  0  0  0  0  3  0  0  0  0  0  0
  -22.7410   -8.5590   21.0160 C   0  0  0  0  0  0  0  0  0  0  0  0
  -22.3590   -9.6050   20.1560 C   0  0  0  0  0  3  0  0  0  0  0  0
  -23.1540  -10.7560   20.0330 C   0  0  0  0  0  3  0  0  0  0  0  0
  -21.9190   -7.4580   21.0510 O   0  0  0  0  0  0  0  0  0  0  0  0
  -21.8600   -6.6400   22.1500 C   0  0  0  0  0  0  0  0  0  0  0  0
  -21.5310   -7.1360   23.4310 C   0  0  0  0  0  3  0  0  0  0  0  0
  -21.4120   -6.2490   24.5190 C   0  0  0  0  0  3  0  0  0  0  0  0
  -21.6100   -4.8690   24.3290 C   0  0  0  0  0  0  0  0  0  0  0  0
  -21.9310   -4.3730   23.0530 C   0  0  0  0  0  3  0  0  0  0  0  0
  -22.0530   -5.2560   21.9670 C   0  0  0  0  0  0  0  0  0  0  0  0
  -22.3410   -4.7710   20.7360 F   0  0  0  0  0  0  0  0  0  0  0  0
  -21.4870   -4.0160   25.3730 F   0  0  0  0  0  0  0  0  0  0  0  0
  -23.4040  -14.0310   21.0810 C   0  0  0  0  0  0  0  0  0  0  0  0
  -22.6520  -13.3410   21.9320 N   0  0  0  0  0  0  0  0  0  0  0  0
  -23.0170  -15.1010   20.6150 O   0  0  0  0  0  0  0  0  0  0  0  0
  -22.9760  -12.4730   22.3320 H   0  0  0  0  0  0  0  0  0  0  0  0
  -21.7400  -13.6890   22.1890 H   0  0  0  0  0  0  0  0  0  0  0  0
  -26.1210  -15.5810   20.3180 N   0  0  0  0  0  0  0  0  0  0  0  0
  -25.3950  -16.2700   20.4760 H   0  0  0  0  0  0  0  0  0  0  0  0
  -26.9890  -15.9870   19.9940 H   0  0  0  0  0  0  0  0  0  0  0  0
  -27.3550  -19.8460   19.0850 C   0  0  0  0  0  1  0  0  0  0  0  0
  -27.1520  -22.0840   20.1950 C   0  0  0  0  0  1  0  0  0  0  0  0
  -28.1480  -21.0330   19.6690 C   0  0  0  0  0  3  0  0  0  0  0  0
  2  1  1  0
  3  6  1  0
  3  2  1  0
  4  3  1  0
  5  3  1  0
  7  6  1  0
  8  7  1  0
  8  9  1  0
 10 21  2  0
 11  9  1  0
 11 16  1  0
 12 20  1  0
 12 22  1  0
 13 15  1  0
 14 20  1  0
 15 16  2  0
 15 14  1  0
 17 11  2  0
 18 17  1  0
 18 13  2  0
 19 13  1  0
 19 12  1  0
 20 10  1  0
 22 24  2  0
 23 22  1  0
 25 23  1  0
 26 35  2  0
 26 31  1  0
 27 23  1  0
 27 31  1  0
 28 27  1  0
 29 30  1  0
 29 28  1  0
 30 26  1  0
 31 32  2  0
 32 33  1  0
 34 33  2  0
 35 34  1  0
 36 10  1  0
 36 37  1  0
 36 46  1  0
 37 40  1  0
 38 42  1  0
 38 37  1  0
 39 38  2  0
 42 41  1  0
 44 42  1  0
 44 45  1  0
 44 43  1  0
 46 49  1  1
 46 47  1  0
 48 46  1  0
 50 97  1  0
 50  2  1  0
 51 53  2  0
 52 50  1  0
 52 51  1  0
 54 52  1  0
 56 55  1  0
 56 65  1  0
 56 51  1  0
 57 65  1  0
 58 63  1  0
 59 60  1  0
 59 58  1  0
 61 60  1  0
 61 70  1  0
 61 62  1  0
 63 57  1  0
 63 62  1  0
 64 57  2  0
 65 66  1  0
 67 68  2  0
 68 87  1  0
 69 68  1  0
 69 72  1  0
 70 71  1  0
 70 67  1  0
 71 69  2  0
 72 73  1  0
 73 74  2  0
 75 78  1  0
 75 74  1  0
 76 75  2  0
 77 76  1  0
 77 72  2  0
 78 79  1  0
 79 80  1  0
 80 81  2  0
 82 81  1  0
 82 86  1  0
 83 82  2  0
 84 79  2  0
 84 83  1  0
 85 84  1  0
 87 88  1  0
 88 91  1  0
 88 90  1  0
 89 87  2  0
 92 67  1  0
 92 93  1  0
 94 92  1  0
 95 97  1  0
 97 96  1  0
M  ISO  4   8 101   9 101  57 100  65 100
M  END
>  <TORSDO>  (92) 
F 24

>  <SCORE>  (92) 
-11.458

>  <name>  (92) 
92

>  <ligand_id>  (92) 
92

>  <original_smiles>  (92) 
[H]c1c([H])c([H])c2c(c1[H])C([H])([H])C([H])([H])C([H])([H])C2([H])N([H])C(=O)C1([H])N(C(=O)C([H])(N([H])C(=O)C([H])(N([H])C([H])([H])[H])C([H])([H])[H])C(C([H])([H])[H])(C([H])([H])[H])C([H])([H])[H])C([H])([H])c2c([H])c(OC([H])([H])C([H])([H])C([H])([H])[N+]([H])([H])C([H])(C([H])([H])[H])C([H])(N([H])C(=O)C([H])(N([H])C(=O)N3C([H])([H])C([H])([H])C([H])([H])C([H])(n4nc(-c5c([H])c([H])c(Oc6c([H])c([H])c(F)c([H])c6F)c([H])c5[H])c(C(=O)N([H])[H])c4N([H])[H])C3([H])[H])C([H])([H])[H])C([H])(C([H])([H])[H])C([H])([H])[H])c([H])c([H])c2C1([H])[H]

>  <smiles>  (92) 
[H]c1c([H])c([H])c2c(c1[H])C([H])([H])C([H])([H])C([H])([H])C2([H])N([H])C(=O)C1([H])N(C(=O)C([H])(N([H])C(=O)C([H])(N([H])C([H])([H])[H])C([H])([H])[H])C(C([H])([H])[H])(C([H])([H])[H])C([H])([H])[H])C([H])([H])c2c([H])c(OC([H])([H])C([H])([H])C([H])([H])[N+]([H])([H])C([H])(C([H])([H])[H])C([H])(N([H])C(=O)C([H])(N([H])C(=O)N3C([H])([H])C([H])([H])C([H])([H])C([H])(n4nc(-c5c([H])c([H])c(Oc6c([H])c([H])c(F)c([H])c6F)c([H])c5[H])c(C(=O)N([H])[H])c4N([H])[H])C3([H])[H])C([H])([H])[H])C([H])(C([H])([H])[H])C([H])([H])[H])c([H])c([H])c2C1([H])[H]

$$$$
93:0:0
     RDKit          3D

 99106  0  0  1  0  0  0  0  0999 V2000
  -30.6360  -20.3120   22.9210 C   0  0  0  0  0  3  0  0  0  0  0  0
  -30.5550  -18.3670   21.2740 C   0  0  0  0  0  0  0  0  0  0  0  0
  -31.1940  -19.3520   21.9410 N   0  0  0  0  0  0  0  0  0  0  0  0
  -29.3660  -18.0940   21.4510 O   0  0  0  0  0  0  0  0  0  0  0  0
  -32.1850  -19.4420   21.7670 H   0  0  0  0  0  0  0  0  0  0  0  0
  -31.3470  -17.5130   20.2660 C   0  0  0  0  0  3  0  0  0  0  0  0
  -31.6420  -14.9980   20.1760 C   0  0  0  0  0  0  0  0  0  0  0  0
  -31.2650  -12.7780   19.1850 C   0  0  0  0  0  2  0  0  0  0  0  0
  -30.3180  -12.9340   17.9780 C   0  0  0  0  0  2  0  0  0  0  0  0
  -28.8450  -12.8540   18.4270 C   0  0  0  0  0  2  0  0  0  0  0  0
  -28.5370  -13.7730   19.6360 C   0  0  0  0  0  3  0  0  0  0  0  0
  -29.6000  -13.6260   20.7480 C   0  0  0  0  0  2  0  0  0  0  0  0
  -30.9260  -13.8420   20.1430 N   0  0  0  0  0  0  0  0  0  0  0  0
  -32.7990  -15.0790   19.7660 O   0  0  0  0  0  0  0  0  0  0  0  0
  -30.9400  -16.1090   20.4660 N   0  0  0  0  0  0  0  0  0  0  0  0
  -29.9890  -15.9920   20.7770 H   0  0  0  0  0  0  0  0  0  0  0  0
  -26.2030  -14.4810   20.4500 C   0  0  0  0  0  0  0  0  0  0  0  0
  -25.0960  -13.7580   20.8040 C   0  0  0  0  0  0  0  0  0  0  0  0
  -25.4650  -12.3830   20.6830 C   0  0  0  0  0  0  0  0  0  0  0  0
  -27.1830  -13.5520   20.1400 N   0  0  0  0  0  0  0  0  0  0  0  0
  -26.7440  -12.2810   20.3380 N   0  0  0  0  0  0  0  0  0  0  0  0
  -24.6620  -11.1620   20.8230 C   0  0  0  0  0  0  0  0  0  0  0  0
  -25.0060  -10.1570   21.7550 C   0  0  0  0  0  3  0  0  0  0  0  0
  -24.2090   -8.9980   21.8850 C   0  0  0  0  0  3  0  0  0  0  0  0
  -23.0520   -8.8400   21.0840 C   0  0  0  0  0  0  0  0  0  0  0  0
  -22.7260   -9.8330   20.1450 C   0  0  0  0  0  3  0  0  0  0  0  0
  -23.5230  -10.9810   20.0130 C   0  0  0  0  0  3  0  0  0  0  0  0
  -22.2330   -7.7360   21.1240 O   0  0  0  0  0  0  0  0  0  0  0  0
  -22.0270   -7.0340   22.2830 C   0  0  0  0  0  0  0  0  0  0  0  0
  -21.4860   -7.6420   23.4370 C   0  0  0  0  0  3  0  0  0  0  0  0
  -21.2260   -6.8680   24.5850 C   0  0  0  0  0  3  0  0  0  0  0  0
  -21.4960   -5.4860   24.5790 C   0  0  0  0  0  0  0  0  0  0  0  0
  -22.0290   -4.8770   23.4300 C   0  0  0  0  0  3  0  0  0  0  0  0
  -22.2910   -5.6490   22.2840 C   0  0  0  0  0  0  0  0  0  0  0  0
  -22.7860   -5.0550   21.1720 F   0  0  0  0  0  0  0  0  0  0  0  0
  -21.2380   -4.7380   25.6790 F   0  0  0  0  0  0  0  0  0  0  0  0
  -23.7410  -14.3060   21.1440 C   0  0  0  0  0  0  0  0  0  0  0  0
  -22.9980  -13.6160   22.0050 N   0  0  0  0  0  0  0  0  0  0  0  0
  -23.3500  -15.3790   20.6870 O   0  0  0  0  0  0  0  0  0  0  0  0
  -23.3290  -12.7460   22.3970 H   0  0  0  0  0  0  0  0  0  0  0  0
  -22.0880  -13.9600   22.2730 H   0  0  0  0  0  0  0  0  0  0  0  0
  -26.4480  -15.8460   20.3490 N   0  0  0  0  0  0  0  0  0  0  0  0
  -25.7370  -16.5380   20.5570 H   0  0  0  0  0  0  0  0  0  0  0  0
  -27.3410  -16.2630   20.1100 H   0  0  0  0  0  0  0  0  0  0  0  0
  -29.6570  -17.8850   18.3120 C   0  0  0  0  0  1  0  0  0  0  0  0
  -31.6890  -19.3670   18.4590 C   0  0  0  0  0  1  0  0  0  0  0  0
  -31.1260  -17.9630   18.7800 C   0  0  0  0  0  3  0  0  0  0  0  0
  -30.0200  -20.5270   25.4710 C   0  0  0  0  0  1  0  0  0  0  0  0
  -30.9560  -18.3640   24.6600 C   0  0  0  0  0  1  0  0  0  0  0  0
  -30.1250  -19.6030   24.2370 C   0  0  0  0  0  3  0  0  0  0  0  0
  -29.5950  -21.2680   22.2270 C   0  0  2  0  0  0  0  0  0  0  0  0
  -29.0760  -22.1000   23.1300 F   0  0  0  0  0  0  0  0  0  0  0  0
  -28.5940  -20.5320   21.7380 F   0  0  0  0  0  0  0  0  0  0  0  0
  -30.1470  -22.2070   21.1110 C   0  0  0  0  0  2  0  0  0  0  0  0
  -29.0800  -23.1190   20.6600 N   0  0  0  0  0  0  0  0  0  0  0  0
  -28.4800  -22.6350   19.9960 H   0  0  0  0  0  0  0  0  0  0  0  0
  -29.4790  -24.4470   20.1630 C   0  0  0  0  0  2  0  0  0  0  0  0
  -28.1900  -25.2700   19.8980 C   0  0  0  0  0  2  0  0  0  0  0  0
  -28.3490  -26.6920   19.6800 O   0  0  0  0  0  0  0  0  0  0  0  0
  -24.7480  -31.7420   23.1810 C   0  0  0  0  0  0  0  0  0  0  0  0
  -27.1900  -27.4580   19.7220 C   0  0  0  0  0  0  0  0  0  0  0  0
  -23.4390  -30.4300   21.5390 C   0  0  0  0  0  3  0  0  0  0  0  0
  -24.8030  -28.9710   19.9490 C   0  0  0  0  0  0  0  0  0  0  0  0
  -25.9520  -30.7940   21.2180 C   0  0  0  0  0  2  0  0  0  0  0  0
  -25.9960  -29.4620   20.4940 C   0  0  0  0  0  0  0  0  0  0  0  0
  -27.1910  -28.7120   20.3780 C   0  0  0  0  0  3  0  0  0  0  0  0
  -25.9780  -27.0040   19.1460 C   0  0  0  0  0  3  0  0  0  0  0  0
  -24.7870  -27.7400   19.2760 C   0  0  0  0  0  3  0  0  0  0  0  0
  -23.5670  -29.8250   20.1160 C   0  0  0  0  0  2  0  0  0  0  0  0
  -24.7320  -31.0040   22.0360 N   0  0  0  0  0  0  0  0  0  0  0  0
  -23.7060  -31.9860   23.8020 O   0  0  0  0  0  0  0  0  0  0  0  0
  -22.8460  -29.3630   22.4880 C   0  0  0  0  0  0  0  0  0  0  0  0
  -21.5380  -29.0940   22.3440 N   0  0  0  0  0  0  0  0  0  0  0  0
  -23.5610  -28.7790   23.3070 O   0  0  0  0  0  0  0  0  0  0  0  0
  -21.0200  -29.6180   21.6510 H   0  0  0  0  0  0  0  0  0  0  0  0
  -18.2780  -27.5720   22.7000 C   0  0  0  0  0  0  0  0  0  0  0  0
  -20.7770  -28.0970   23.0980 C   0  0  0  0  0  3  0  0  0  0  0  0
  -21.0550  -26.6720   22.5700 C   0  0  0  0  0  2  0  0  0  0  0  0
  -20.0500  -26.2150   21.5070 C   0  0  0  0  0  2  0  0  0  0  0  0
  -18.6260  -26.2330   22.0740 C   0  0  0  0  0  2  0  0  0  0  0  0
  -19.2890  -28.4540   23.1670 C   0  0  0  0  0  0  0  0  0  0  0  0
  -18.9140  -29.7020   23.7090 C   0  0  0  0  0  3  0  0  0  0  0  0
  -17.5580  -30.0730   23.7920 C   0  0  0  0  0  3  0  0  0  0  0  0
  -16.5610  -29.1900   23.3420 C   0  0  0  0  0  3  0  0  0  0  0  0
  -16.9200  -27.9420   22.8030 C   0  0  0  0  0  3  0  0  0  0  0  0
  -26.0750  -32.3390   23.7510 C   0  0  0  0  0  3  0  0  0  0  0  0
  -26.6810  -31.4900   24.9360 C   0  0  1  0  0  0  0  0  0  0  0  0
  -25.6660  -31.1770   26.0600 C   0  0  0  0  0  1  0  0  0  0  0  0
  -27.2390  -30.1440   24.4190 C   0  0  0  0  0  1  0  0  0  0  0  0
  -27.8750  -32.2470   25.5650 C   0  0  0  0  0  1  0  0  0  0  0  0
  -25.7870  -33.7100   24.1890 N   0  0  0  0  0  0  0  0  0  0  0  0
  -26.1300  -34.8140   23.5120 C   0  0  0  0  0  0  0  0  0  0  0  0
  -26.7920  -34.7820   22.4710 O   0  0  0  0  0  0  0  0  0  0  0  0
  -25.2000  -33.8070   25.0040 H   0  0  0  0  0  0  0  0  0  0  0  0
  -24.4300  -36.6540   23.2950 C   0  0  0  0  0  1  0  0  0  0  0  0
  -25.6600  -36.1680   24.0770 C   0  0  0  0  0  3  0  0  0  0  0  0
  -27.7990  -36.9510   24.9960 C   0  0  0  0  0  1  0  0  0  0  0  0
  -26.7100  -37.2100   24.0550 N   0  0  0  0  0  0  0  0  0  0  0  0
  -26.3150  -38.1210   24.2690 H   0  0  0  0  0  0  0  0  0  0  0  0
  1 50  1  0
  2  4  2  0
  2  3  1  0
  3  1  1  0
  5  3  1  0
  6 47  1  0
  6 15  1  0
  6  2  1  0
  7 15  1  0
  8 13  1  0
  9 10  1  0
  9  8  1  0
 11 10  1  0
 11 20  1  0
 11 12  1  0
 13  7  1  0
 13 12  1  0
 14  7  2  0
 15 16  1  0
 17 18  2  0
 18 37  1  0
 19 18  1  0
 19 22  1  0
 20 21  1  0
 20 17  1  0
 21 19  2  0
 22 23  1  0
 23 24  2  0
 25 28  1  0
 25 24  1  0
 26 25  2  0
 27 26  1  0
 27 22  2  0
 28 29  1  0
 29 34  2  0
 29 30  1  0
 30 31  2  0
 32 31  1  0
 32 36  1  0
 33 32  2  0
 34 33  1  0
 35 34  1  0
 37 38  1  0
 38 41  1  0
 38 40  1  0
 39 37  2  0
 42 17  1  0
 42 43  1  0
 44 42  1  0
 45 47  1  0
 46 47  1  0
 50 49  1  0
 50 48  1  0
 51  1  1  0
 51 52  1  1
 53 51  1  0
 54 51  1  0
 55 54  1  0
 56 55  1  0
 57 55  1  0
 58 57  1  0
 59 61  1  0
 59 58  1  0
 60 71  2  0
 61 66  1  0
 62 70  1  0
 62 72  1  0
 63 69  1  0
 63 65  1  0
 64 70  1  0
 65 64  1  0
 66 65  2  0
 67 68  1  0
 67 61  2  0
 68 63  2  0
 69 62  1  0
 70 60  1  0
 72 74  2  0
 73 72  1  0
 75 73  1  0
 76 85  2  0
 76 81  1  0
 77 73  1  0
 77 81  1  0
 78 77  1  0
 79 80  1  0
 79 78  1  0
 80 76  1  0
 81 82  2  0
 82 83  1  0
 84 83  2  0
 85 84  1  0
 86 60  1  0
 86 91  1  0
 86 87  1  0
 87 90  1  1
 87 88  1  0
 89 87  1  0
 91 94  1  0
 92 96  1  0
 92 91  1  0
 93 92  2  0
 96 95  1  0
 98 96  1  0
 98 99  1  0
 98 97  1  0
M  ISO  4   7 100  15 100  58 101  59 101
M  END
>  <TORSDO>  (93) 
F 25

>  <SCORE>  (93) 
-7.521

>  <name>  (93) 
93

>  <ligand_id>  (93) 
93

>  <original_smiles>  (93) 
[H]c1c([H])c([H])c2c(c1[H])C([H])([H])C([H])([H])C([H])([H])C2([H])N([H])C(=O)C1([H])N(C(=O)C([H])(N([H])C(=O)C([H])(N([H])C([H])([H])[H])C([H])([H])[H])C(C([H])([H])[H])(C([H])([H])[H])C([H])([H])[H])C([H])([H])c2c([H])c(OC([H])([H])C([H])([H])N([H])C([H])([H])C(F)(F)C([H])(N([H])C(=O)C([H])(N([H])C(=O)N3C([H])([H])C([H])([H])C([H])([H])C([H])(n4nc(-c5c([H])c([H])c(Oc6c([H])c([H])c(F)c([H])c6F)c([H])c5[H])c(C(=O)N([H])[H])c4N([H])[H])C3([H])[H])C([H])(C([H])([H])[H])C([H])([H])[H])C([H])(C([H])([H])[H])C([H])([H])[H])c([H])c([H])c2C1([H])[H]

>  <smiles>  (93) 
[H]c1c([H])c([H])c2c(c1[H])C([H])([H])C([H])([H])C([H])([H])C2([H])N([H])C(=O)C1([H])N(C(=O)C([H])(N([H])C(=O)C([H])(N([H])C([H])([H])[H])C([H])([H])[H])C(C([H])([H])[H])(C([H])([H])[H])C([H])([H])[H])C([H])([H])c2c([H])c(OC([H])([H])C([H])([H])N([H])C([H])([H])C(F)(F)C([H])(N([H])C(=O)C([H])(N([H])C(=O)N3C([H])([H])C([H])([H])C([H])([H])C([H])(n4nc(-c5c([H])c([H])c(Oc6c([H])c([H])c(F)c([H])c6F)c([H])c5[H])c(C(=O)N([H])[H])c4N([H])[H])C3([H])[H])C([H])(C([H])([H])[H])C([H])([H])[H])C([H])(C([H])([H])[H])C([H])([H])[H])c([H])c([H])c2C1([H])[H]

$$$$
94:0:0
     RDKit          3D

101108  0  0  1  0  0  0  0  0999 V2000
  -27.3580  -22.8080   19.9950 C   0  0  0  0  0  3  0  0  0  0  0  0
  -27.9540  -21.7710   20.9690 C   0  0  0  0  0  0  0  0  0  0  0  0
  -28.7740  -20.8240   20.4850 N   0  0  0  0  0  0  0  0  0  0  0  0
  -27.7000  -21.8580   22.1710 O   0  0  0  0  0  0  0  0  0  0  0  0
  -28.9180  -20.7610   19.4860 H   0  0  0  0  0  0  0  0  0  0  0  0
  -29.4600  -19.8420   21.3250 C   0  0  0  0  0  2  0  0  0  0  0  0
  -29.6400  -18.4970   20.6050 C   0  0  0  0  0  2  0  0  0  0  0  0
  -30.3200  -17.4500   21.5090 C   0  0  0  0  0  2  0  0  0  0  0  0
  -30.0040  -16.0010   21.1140 C   0  0  0  0  0  2  0  0  0  0  0  0
  -31.3980  -14.4380   19.6790 C   0  0  0  0  0  0  0  0  0  0  0  0
  -31.0410  -12.1120   18.9470 C   0  0  0  0  0  2  0  0  0  0  0  0
  -30.0440  -12.0990   17.7690 C   0  0  0  0  0  2  0  0  0  0  0  0
  -28.5840  -12.0820   18.2710 C   0  0  0  0  0  2  0  0  0  0  0  0
  -28.3220  -13.1420   19.3740 C   0  0  0  0  0  3  0  0  0  0  0  0
  -29.4160  -13.0360   20.4570 C   0  0  0  0  0  2  0  0  0  0  0  0
  -30.7110  -13.2660   19.7990 N   0  0  0  0  0  0  0  0  0  0  0  0
  -32.4760  -14.5130   19.0850 O   0  0  0  0  0  0  0  0  0  0  0  0
  -30.7440  -15.5880   19.9230 N   0  0  0  0  0  0  0  0  0  0  0  0
  -31.1850  -16.3640   19.4530 H   0  0  0  0  0  0  0  0  0  0  0  0
  -26.0680  -13.9860   20.2890 C   0  0  0  0  0  0  0  0  0  0  0  0
  -24.9470  -13.3220   20.7090 C   0  0  0  0  0  0  0  0  0  0  0  0
  -25.2440  -11.9300   20.5870 C   0  0  0  0  0  0  0  0  0  0  0  0
  -26.9840  -13.0040   19.9420 N   0  0  0  0  0  0  0  0  0  0  0  0
  -26.4920  -11.7600   20.1720 N   0  0  0  0  0  0  0  0  0  0  0  0
  -24.3940  -10.7490   20.7840 C   0  0  0  0  0  0  0  0  0  0  0  0
  -24.7620   -9.7170   21.6760 C   0  0  0  0  0  3  0  0  0  0  0  0
  -23.9210   -8.5970   21.8610 C   0  0  0  0  0  3  0  0  0  0  0  0
  -22.6990   -8.5040   21.1540 C   0  0  0  0  0  0  0  0  0  0  0  0
  -22.3480   -9.5230   20.2520 C   0  0  0  0  0  3  0  0  0  0  0  0
  -23.1880  -10.6340   20.0640 C   0  0  0  0  0  3  0  0  0  0  0  0
  -21.8310   -7.4420   21.2510 O   0  0  0  0  0  0  0  0  0  0  0  0
  -21.6870   -6.7350   22.4180 C   0  0  0  0  0  0  0  0  0  0  0  0
  -21.3060   -7.3600   23.6250 C   0  0  0  0  0  3  0  0  0  0  0  0
  -21.1010   -6.5850   24.7850 C   0  0  0  0  0  3  0  0  0  0  0  0
  -21.2680   -5.1880   24.7370 C   0  0  0  0  0  0  0  0  0  0  0  0
  -21.6420   -4.5640   23.5350 C   0  0  0  0  0  3  0  0  0  0  0  0
  -21.8480   -5.3350   22.3770 C   0  0  0  0  0  0  0  0  0  0  0  0
  -22.1890   -4.7270   21.2170 F   0  0  0  0  0  0  0  0  0  0  0  0
  -21.0640   -4.4440   25.8480 F   0  0  0  0  0  0  0  0  0  0  0  0
  -23.6390  -13.9390   21.1130 C   0  0  0  0  0  0  0  0  0  0  0  0
  -22.9240  -13.3080   22.0380 N   0  0  0  0  0  0  0  0  0  0  0  0
  -23.2650  -15.0140   20.6420 O   0  0  0  0  0  0  0  0  0  0  0  0
  -23.2410  -12.4370   22.4370 H   0  0  0  0  0  0  0  0  0  0  0  0
  -22.0480  -13.6990   22.3530 H   0  0  0  0  0  0  0  0  0  0  0  0
  -26.3790  -15.3360   20.1580 N   0  0  0  0  0  0  0  0  0  0  0  0
  -25.7170  -16.0680   20.3890 H   0  0  0  0  0  0  0  0  0  0  0  0
  -27.2580  -15.6850   19.7990 H   0  0  0  0  0  0  0  0  0  0  0  0
  -28.3970  -23.7470   19.5090 N   0  0  0  0  0  4  0  0  0  0  0  0
  -29.2960  -23.2870   19.5390 H   0  0  0  0  0  0  0  0  0  0  0  0
  -28.1930  -23.9430   18.5420 H   0  0  0  0  0  0  0  0  0  0  0  0
  -28.4640  -25.0370   20.2440 C   0  0  0  0  0  2  0  0  0  0  0  0
  -29.3080  -26.1050   19.5070 C   0  0  0  0  0  2  0  0  0  0  0  0
  -29.1430  -27.4040   20.0880 O   0  0  0  0  0  0  0  0  0  0  0  0
  -24.8400  -31.9590   23.4310 C   0  0  0  0  0  0  0  0  0  0  0  0
  -27.8890  -27.9850   20.0940 C   0  0  0  0  0  0  0  0  0  0  0  0
  -23.7700  -30.5580   21.6950 C   0  0  0  0  0  3  0  0  0  0  0  0
  -25.3630  -29.2520   20.1940 C   0  0  0  0  0  0  0  0  0  0  0  0
  -26.2570  -31.1530   21.5480 C   0  0  0  0  0  2  0  0  0  0  0  0
  -26.4660  -29.8400   20.8230 C   0  0  0  0  0  0  0  0  0  0  0  0
  -27.7300  -29.2140   20.7720 C   0  0  0  0  0  3  0  0  0  0  0  0
  -26.7620  -27.4110   19.4570 C   0  0  0  0  0  3  0  0  0  0  0  0
  -25.5030  -28.0330   19.5140 C   0  0  0  0  0  3  0  0  0  0  0  0
  -24.0470  -29.9900   20.2790 C   0  0  0  0  0  2  0  0  0  0  0  0
  -24.9720  -31.2350   22.2840 N   0  0  0  0  0  0  0  0  0  0  0  0
  -23.7360  -32.1010   23.9740 O   0  0  0  0  0  0  0  0  0  0  0  0
  -23.2110  -29.4240   22.5830 C   0  0  0  0  0  0  0  0  0  0  0  0
  -21.9380  -29.0620   22.3570 N   0  0  0  0  0  0  0  0  0  0  0  0
  -23.9200  -28.8770   23.4310 O   0  0  0  0  0  0  0  0  0  0  0  0
  -21.4220  -29.5650   21.6500 H   0  0  0  0  0  0  0  0  0  0  0  0
  -18.7640  -27.3440   22.5360 C   0  0  0  0  0  0  0  0  0  0  0  0
  -21.2130  -27.9950   23.0450 C   0  0  0  0  0  3  0  0  0  0  0  0
  -21.5920  -26.6070   22.4780 C   0  0  0  0  0  2  0  0  0  0  0  0
  -20.6520  -26.1340   21.3660 C   0  0  0  0  0  2  0  0  0  0  0  0
  -19.2120  -26.0490   21.8790 C   0  0  0  0  0  2  0  0  0  0  0  0
  -19.7040  -28.2650   23.0690 C   0  0  0  0  0  0  0  0  0  0  0  0
  -19.2380  -29.4690   23.6380 C   0  0  0  0  0  3  0  0  0  0  0  0
  -17.8610  -29.7590   23.6800 C   0  0  0  0  0  3  0  0  0  0  0  0
  -16.9330  -28.8370   23.1630 C   0  0  0  0  0  3  0  0  0  0  0  0
  -17.3850  -27.6310   22.5980 C   0  0  0  0  0  3  0  0  0  0  0  0
  -26.0610  -32.6610   24.1000 C   0  0  0  0  0  3  0  0  0  0  0  0
  -25.6600  -34.0370   24.4200 N   0  0  0  0  0  0  0  0  0  0  0  0
  -25.9490  -35.1080   23.6690 C   0  0  0  0  0  0  0  0  0  0  0  0
  -26.6570  -35.0470   22.6600 O   0  0  0  0  0  0  0  0  0  0  0  0
  -25.0320  -34.1540   25.2020 H   0  0  0  0  0  0  0  0  0  0  0  0
  -24.1100  -36.7780   23.2710 C   0  0  0  0  0  1  0  0  0  0  0  0
  -25.3610  -36.4620   24.1070 C   0  0  0  0  0  3  0  0  0  0  0  0
  -27.4250  -37.4840   24.9580 C   0  0  0  0  0  1  0  0  0  0  0  0
  -26.3230  -37.5810   24.0040 N   0  0  0  0  0  0  0  0  0  0  0  0
  -25.8550  -38.4720   24.1500 H   0  0  0  0  0  0  0  0  0  0  0  0
  -26.5780  -31.9140   25.3910 C   0  0  1  0  0  0  0  0  0  0  0  0
  -25.4520  -31.5310   26.3780 C   0  0  0  0  0  1  0  0  0  0  0  0
  -27.3360  -30.6210   25.0090 C   0  0  0  0  0  1  0  0  0  0  0  0
  -27.5880  -32.8110   26.1450 C   0  0  0  0  0  1  0  0  0  0  0  0
  -26.5660  -22.2010   18.8100 C   0  0  0  0  0  2  0  0  0  0  0  0
  -25.2100  -21.5660   19.1910 C   0  0  0  0  0  2  0  0  0  0  0  0
  -24.1880  -21.5200   18.0350 C   0  0  0  0  0  2  0  0  0  0  0  0
  -24.7590  -21.1700   16.6460 C   0  0  0  0  0  2  0  0  0  0  0  0
  -25.5180  -19.9070   16.6420 N   0  0  0  0  0  4  0  0  0  0  0  0
  -26.3460  -19.9800   17.2040 H   0  0  0  0  0  0  0  0  0  0  0  0
  -25.7960  -19.6830   15.7030 H   0  0  0  0  0  0  0  0  0  0  0  0
  -24.9530  -19.1510   16.9870 H   0  0  0  0  0  0  0  0  0  0  0  0
  1 94  1  0
  1  2  1  0
  2  4  2  0
  3  2  1  0
  3  6  1  0
  5  3  1  0
  7  6  1  0
  7  8  1  0
  9  8  1  0
 10 16  1  0
 10 18  1  0
 11 16  1  0
 12 13  1  0
 12 11  1  0
 14 13  1  0
 14 23  1  0
 14 15  1  0
 16 15  1  0
 17 10  2  0
 18  9  1  0
 19 18  1  0
 20 21  2  0
 21 40  1  0
 22 21  1  0
 22 25  1  0
 23 24  1  0
 23 20  1  0
 24 22  2  0
 25 26  1  0
 26 27  2  0
 28 31  1  0
 28 27  1  0
 29 28  2  0
 30 29  1  0
 30 25  2  0
 31 32  1  0
 32 33  1  0
 33 34  2  0
 35 34  1  0
 35 39  1  0
 36 35  2  0
 37 32  2  0
 37 36  1  0
 38 37  1  0
 40 41  1  0
 41 44  1  0
 41 43  1  0
 42 40  2  0
 45 20  1  0
 45 46  1  0
 47 45  1  0
 48 49  1  0
 48  1  1  0
 48 51  1  0
 50 48  1  0
 52 53  1  0
 52 51  1  0
 53 55  1  0
 54 65  2  0
 55 60  1  0
 56 64  1  0
 56 66  1  0
 57 63  1  0
 57 59  1  0
 58 64  1  0
 59 58  1  0
 60 59  2  0
 61 62  1  0
 61 55  2  0
 62 57  2  0
 63 56  1  0
 64 54  1  0
 66 68  2  0
 67 66  1  0
 69 67  1  0
 70 79  2  0
 70 75  1  0
 71 67  1  0
 71 75  1  0
 72 71  1  0
 73 74  1  0
 73 72  1  0
 74 70  1  0
 75 76  2  0
 76 77  1  0
 78 77  2  0
 79 78  1  0
 80 54  1  0
 80 81  1  0
 80 90  1  0
 81 84  1  0
 82 86  1  0
 82 81  1  0
 83 82  2  0
 86 85  1  0
 88 86  1  0
 88 89  1  0
 88 87  1  0
 90 93  1  1
 90 91  1  0
 92 90  1  0
 94 95  1  0
 96 95  1  0
 97 96  1  0
 98 97  1  0
 98101  1  0
 98 99  1  0
100 98  1  0
M  ISO  4  10 100  18 100  52 101  53 101
M  END
>  <TORSDO>  (94) 
F 29

>  <SCORE>  (94) 
-8.744

>  <name>  (94) 
94

>  <ligand_id>  (94) 
94

>  <original_smiles>  (94) 
[H]c1c([H])c([H])c2c(c1[H])C([H])([H])C([H])([H])C([H])([H])C2([H])N([H])C(=O)C1([H])N(C(=O)C([H])(N([H])C(=O)C([H])(N([H])C([H])([H])[H])C([H])([H])[H])C(C([H])([H])[H])(C([H])([H])[H])C([H])([H])[H])C([H])([H])c2c([H])c(OC([H])([H])C([H])([H])[N+]([H])([H])C([H])(C(=O)N([H])C([H])([H])C([H])([H])C([H])([H])C([H])([H])N([H])C(=O)N3C([H])([H])C([H])([H])C([H])([H])C([H])(n4nc(-c5c([H])c([H])c(Oc6c([H])c([H])c(F)c([H])c6F)c([H])c5[H])c(C(=O)N([H])[H])c4N([H])[H])C3([H])[H])C([H])([H])C([H])([H])C([H])([H])C([H])([H])[N+]([H])([H])[H])c([H])c([H])c2C1([H])[H]

>  <smiles>  (94) 
[H]c1c([H])c([H])c2c(c1[H])C([H])([H])C([H])([H])C([H])([H])C2([H])N([H])C(=O)C1([H])N(C(=O)C([H])(N([H])C(=O)C([H])(N([H])C([H])([H])[H])C([H])([H])[H])C(C([H])([H])[H])(C([H])([H])[H])C([H])([H])[H])C([H])([H])c2c([H])c(OC([H])([H])C([H])([H])[N+]([H])([H])C([H])(C(=O)N([H])C([H])([H])C([H])([H])C([H])([H])C([H])([H])N([H])C(=O)N3C([H])([H])C([H])([H])C([H])([H])C([H])(n4nc(-c5c([H])c([H])c(Oc6c([H])c([H])c(F)c([H])c6F)c([H])c5[H])c(C(=O)N([H])[H])c4N([H])[H])C3([H])[H])C([H])([H])C([H])([H])C([H])([H])C([H])([H])[N+]([H])([H])[H])c([H])c([H])c2C1([H])[H]

$$$$
95:0:0
     RDKit          3D

 88 95  0  0  1  0  0  0  0  0999 V2000
  -29.7550  -21.0400   20.6190 C   0  0  0  0  0  0  0  0  0  0  0  0
  -29.3290  -19.7510   20.8590 N   0  0  0  0  0  0  0  0  0  0  0  0
  -30.9490  -21.2810   20.4300 O   0  0  0  0  0  0  0  0  0  0  0  0
  -28.3320  -19.6660   21.0090 H   0  0  0  0  0  0  0  0  0  0  0  0
  -28.7190  -22.2500   20.6130 C   0  0  0  0  0  2  0  0  0  0  0  0
  -29.1690  -23.7760   20.3070 C   0  0  0  0  0  3  0  0  0  0  0  0
  -28.0500  -24.9290   20.4570 C   0  0  0  0  0  3  0  0  0  0  0  0
  -28.3160  -26.3930   20.2330 O   0  0  0  0  0  0  0  0  0  0  0  0
  -24.6260  -31.8910   23.2290 C   0  0  0  0  0  0  0  0  0  0  0  0
  -27.2100  -27.2750   20.1890 C   0  0  0  0  0  0  0  0  0  0  0  0
  -23.4120  -30.4880   21.5970 C   0  0  0  0  0  3  0  0  0  0  0  0
  -24.8540  -28.9240   20.1710 C   0  0  0  0  0  0  0  0  0  0  0  0
  -25.9560  -30.7800   21.4170 C   0  0  0  0  0  2  0  0  0  0  0  0
  -26.0260  -29.3960   20.7770 C   0  0  0  0  0  0  0  0  0  0  0  0
  -27.2020  -28.5800   20.7840 C   0  0  0  0  0  3  0  0  0  0  0  0
  -26.0150  -26.8750   19.5470 C   0  0  0  0  0  3  0  0  0  0  0  0
  -24.8510  -27.6680   19.5480 C   0  0  0  0  0  3  0  0  0  0  0  0
  -23.6200  -29.8020   20.2210 C   0  0  0  0  0  2  0  0  0  0  0  0
  -24.6820  -31.0730   22.1350 N   0  0  0  0  0  0  0  0  0  0  0  0
  -23.5450  -32.1770   23.7650 O   0  0  0  0  0  0  0  0  0  0  0  0
  -22.7490  -29.4810   22.5690 C   0  0  0  0  0  0  0  0  0  0  0  0
  -21.4200  -29.3090   22.4510 N   0  0  0  0  0  0  0  0  0  0  0  0
  -23.4270  -28.8580   23.3890 O   0  0  0  0  0  0  0  0  0  0  0  0
  -20.9340  -29.8580   21.7570 H   0  0  0  0  0  0  0  0  0  0  0  0
  -18.0460  -28.1100   22.9730 C   0  0  0  0  0  0  0  0  0  0  0  0
  -20.6050  -28.3790   23.2320 C   0  0  0  0  0  3  0  0  0  0  0  0
  -20.7070  -26.9420   22.6700 C   0  0  0  0  0  2  0  0  0  0  0  0
  -19.6020  -26.6080   21.6610 C   0  0  0  0  0  2  0  0  0  0  0  0
  -18.2210  -26.7570   22.3060 C   0  0  0  0  0  2  0  0  0  0  0  0
  -19.1640  -28.8790   23.3930 C   0  0  0  0  0  0  0  0  0  0  0  0
  -18.9430  -30.1460   23.9800 C   0  0  0  0  0  3  0  0  0  0  0  0
  -17.6370  -30.6450   24.1460 C   0  0  0  0  0  3  0  0  0  0  0  0
  -16.5350  -29.8740   23.7360 C   0  0  0  0  0  3  0  0  0  0  0  0
  -16.7410  -28.6090   23.1570 C   0  0  0  0  0  3  0  0  0  0  0  0
  -25.9150  -32.5260   23.8390 C   0  0  0  0  0  3  0  0  0  0  0  0
  -25.6060  -33.9230   24.1740 N   0  0  0  0  0  0  0  0  0  0  0  0
  -25.9270  -34.9790   23.4140 C   0  0  0  0  0  0  0  0  0  0  0  0
  -26.5830  -34.8790   22.3740 O   0  0  0  0  0  0  0  0  0  0  0  0
  -25.0270  -34.0740   24.9870 H   0  0  0  0  0  0  0  0  0  0  0  0
  -24.1900  -36.7690   23.0890 C   0  0  0  0  0  1  0  0  0  0  0  0
  -25.4420  -36.3630   23.8830 C   0  0  0  0  0  3  0  0  0  0  0  0
  -27.5860  -37.2500   24.6850 C   0  0  0  0  0  1  0  0  0  0  0  0
  -26.4710  -37.4190   23.7580 N   0  0  0  0  0  0  0  0  0  0  0  0
  -26.0620  -38.3370   23.9160 H   0  0  0  0  0  0  0  0  0  0  0  0
  -26.4410  -31.7540   25.1100 C   0  0  1  0  0  0  0  0  0  0  0  0
  -25.3600  -31.5170   26.1910 C   0  0  0  0  0  1  0  0  0  0  0  0
  -27.0210  -30.3750   24.7170 C   0  0  0  0  0  1  0  0  0  0  0  0
  -27.6000  -32.5490   25.7580 C   0  0  0  0  0  1  0  0  0  0  0  0
  -30.1050  -18.4740   21.1480 C   0  0  0  0  0  2  0  0  0  0  0  0
  -29.8440  -17.2010   20.2120 C   0  0  0  0  0  2  0  0  0  0  0  0
  -30.6000  -14.6960   20.4020 C   0  0  0  0  0  0  0  0  0  0  0  0
  -30.3800  -12.4400   19.3680 C   0  0  0  0  0  2  0  0  0  0  0  0
  -29.4380  -12.5540   18.1470 C   0  0  0  0  0  2  0  0  0  0  0  0
  -27.9680  -12.3860   18.5710 C   0  0  0  0  0  2  0  0  0  0  0  0
  -27.6070  -13.2660   19.7960 C   0  0  0  0  0  3  0  0  0  0  0  0
  -28.6590  -13.1490   20.9240 C   0  0  0  0  0  2  0  0  0  0  0  0
  -29.9740  -13.4720   20.3490 N   0  0  0  0  0  0  0  0  0  0  0  0
  -31.7420  -14.8400   19.9590 O   0  0  0  0  0  0  0  0  0  0  0  0
  -29.8330  -15.7800   20.7590 N   0  0  0  0  0  0  0  0  0  0  0  0
  -28.9490  -15.4990   21.1580 H   0  0  0  0  0  0  0  0  0  0  0  0
  -25.2160  -13.8690   20.5060 C   0  0  0  0  0  0  0  0  0  0  0  0
  -24.1440  -13.1000   20.8760 C   0  0  0  0  0  0  0  0  0  0  0  0
  -24.6070  -11.7480   20.8580 C   0  0  0  0  0  0  0  0  0  0  0  0
  -26.2580  -12.9830   20.2800 N   0  0  0  0  0  0  0  0  0  0  0  0
  -25.8980  -11.7050   20.5550 N   0  0  0  0  0  0  0  0  0  0  0  0
  -23.8790  -10.4870   21.0560 C   0  0  0  0  0  0  0  0  0  0  0  0
  -24.3190   -9.5170   21.9830 C   0  0  0  0  0  3  0  0  0  0  0  0
  -23.5910   -8.3220   22.1680 C   0  0  0  0  0  3  0  0  0  0  0  0
  -22.4110   -8.0860   21.4240 C   0  0  0  0  0  0  0  0  0  0  0  0
  -21.9890   -9.0450   20.4860 C   0  0  0  0  0  3  0  0  0  0  0  0
  -22.7180  -10.2320   20.3000 C   0  0  0  0  0  3  0  0  0  0  0  0
  -21.6530   -6.9430   21.5200 O   0  0  0  0  0  0  0  0  0  0  0  0
  -21.6250   -6.1920   22.6680 C   0  0  0  0  0  0  0  0  0  0  0  0
  -21.2430   -6.7440   23.9100 C   0  0  0  0  0  3  0  0  0  0  0  0
  -21.1580   -5.9200   25.0490 C   0  0  0  0  0  3  0  0  0  0  0  0
  -21.4490   -4.5470   24.9500 C   0  0  0  0  0  0  0  0  0  0  0  0
  -21.8260   -3.9950   23.7140 C   0  0  0  0  0  3  0  0  0  0  0  0
  -21.9110   -4.8150   22.5750 C   0  0  0  0  0  0  0  0  0  0  0  0
  -22.2540   -4.2750   21.3800 F   0  0  0  0  0  0  0  0  0  0  0  0
  -21.3620   -3.7530   26.0440 F   0  0  0  0  0  0  0  0  0  0  0  0
  -22.7490  -13.5820   21.1390 C   0  0  0  0  0  0  0  0  0  0  0  0
  -22.0200  -12.8930   22.0120 N   0  0  0  0  0  0  0  0  0  0  0  0
  -22.3130  -14.6020   20.6120 O   0  0  0  0  0  0  0  0  0  0  0  0
  -22.3850  -12.0590   22.4510 H   0  0  0  0  0  0  0  0  0  0  0  0
  -21.0870  -13.2000   22.2470 H   0  0  0  0  0  0  0  0  0  0  0  0
  -25.3900  -15.2370   20.3250 N   0  0  0  0  0  0  0  0  0  0  0  0
  -24.6420  -15.9130   20.4470 H   0  0  0  0  0  0  0  0  0  0  0  0
  -26.2560  -15.6620   20.0130 H   0  0  0  0  0  0  0  0  0  0  0  0
  1  2  1  0
  2  4  1  0
  2 49  1  0
  3  1  2  0
  5  1  1  0
  6  7  2  0
  6  5  1  0
  8  7  1  0
  9 20  2  0
 10  8  1  0
 10 15  1  0
 11 19  1  0
 11 21  1  0
 12 18  1  0
 12 14  1  0
 13 19  1  0
 14 15  2  0
 14 13  1  0
 16 17  1  0
 16 10  2  0
 17 12  2  0
 18 11  1  0
 19  9  1  0
 21 23  2  0
 22 21  1  0
 24 22  1  0
 25 34  2  0
 25 30  1  0
 26 22  1  0
 26 30  1  0
 27 26  1  0
 28 29  1  0
 28 27  1  0
 29 25  1  0
 30 31  2  0
 31 32  1  0
 33 32  2  0
 34 33  1  0
 35  9  1  0
 35 36  1  0
 35 45  1  0
 36 39  1  0
 37 41  1  0
 37 36  1  0
 38 37  2  0
 41 40  1  0
 43 41  1  0
 43 44  1  0
 43 42  1  0
 45 48  1  1
 45 46  1  0
 47 45  1  0
 50 59  1  0
 50 49  1  0
 51 59  1  0
 52 57  1  0
 53 54  1  0
 53 52  1  0
 55 54  1  0
 55 64  1  0
 55 56  1  0
 57 51  1  0
 57 56  1  0
 58 51  2  0
 59 60  1  0
 61 62  2  0
 62 81  1  0
 63 62  1  0
 63 66  1  0
 64 61  1  0
 64 65  1  0
 65 63  2  0
 66 67  1  0
 67 68  2  0
 69 72  1  0
 69 68  1  0
 70 69  2  0
 71 70  1  0
 71 66  2  0
 72 73  1  0
 73 74  1  0
 74 75  2  0
 76 75  1  0
 76 80  1  0
 77 76  2  0
 78 73  2  0
 78 77  1  0
 79 78  1  0
 81 82  1  0
 82 85  1  0
 82 84  1  0
 83 81  2  0
 86 87  1  0
 86 61  1  0
 88 86  1  0
M  ISO  4   7 101   8 101  51 100  59 100
M  END
>  <TORSDO>  (95) 
F 21

>  <SCORE>  (95) 
-13.336

>  <name>  (95) 
95

>  <ligand_id>  (95) 
95

>  <original_smiles>  (95) 
[H]c1c([H])c([H])c2c(c1[H])C([H])([H])C([H])([H])C([H])([H])C2([H])N([H])C(=O)C1([H])N(C(=O)C([H])(N([H])C(=O)C([H])(N([H])C([H])([H])[H])C([H])([H])[H])C(C([H])([H])[H])(C([H])([H])[H])C([H])([H])[H])C([H])([H])c2c([H])c(OC([H])([H])C([H])([H])C([H])([H])C(=O)N([H])C([H])([H])C([H])([H])N([H])C(=O)N3C([H])([H])C([H])([H])C([H])([H])C([H])(n4nc(-c5c([H])c([H])c(Oc6c([H])c([H])c(F)c([H])c6F)c([H])c5[H])c(C(=O)N([H])[H])c4N([H])[H])C3([H])[H])c([H])c([H])c2C1([H])[H]

>  <smiles>  (95) 
[H]c1c([H])c([H])c2c(c1[H])C([H])([H])C([H])([H])C([H])([H])C2([H])N([H])C(=O)C1([H])N(C(=O)C([H])(N([H])C(=O)C([H])(N([H])C([H])([H])[H])C([H])([H])[H])C(C([H])([H])[H])(C([H])([H])[H])C([H])([H])[H])C([H])([H])c2c([H])c(OC([H])([H])C([H])([H])C([H])([H])C(=O)N([H])C([H])([H])C([H])([H])N([H])C(=O)N3C([H])([H])C([H])([H])C([H])([H])C([H])(n4nc(-c5c([H])c([H])c(Oc6c([H])c([H])c(F)c([H])c6F)c([H])c5[H])c(C(=O)N([H])[H])c4N([H])[H])C3([H])[H])c([H])c([H])c2C1([H])[H]

$$$$
96:0:0
     RDKit          3D

 98105  0  0  1  0  0  0  0  0999 V2000
  -29.9280  -21.8210   22.9310 C   0  0  0  0  0  0  0  0  0  0  0  0
  -30.0320  -20.4940   23.0520 N   0  0  0  0  0  0  0  0  0  0  0  0
  -30.8960  -22.5770   23.0280 O   0  0  0  0  0  0  0  0  0  0  0  0
  -29.1990  -19.9380   22.9170 H   0  0  0  0  0  0  0  0  0  0  0  0
  -28.5610  -22.2360   22.6670 C   0  0  0  0  0  3  0  0  0  0  0  0
  -28.2860  -23.4820   22.2330 C   0  0  0  0  0  3  0  0  0  0  0  0
  -26.8870  -23.9930   21.9360 C   0  0  0  0  0  2  0  0  0  0  0  0
  -26.7420  -24.6410   20.5450 C   0  0  0  0  0  2  0  0  0  0  0  0
  -27.6140  -25.8990   20.3630 C   0  0  0  0  0  2  0  0  0  0  0  0
  -27.2390  -26.6560   19.2090 O   0  0  0  0  0  0  0  0  0  0  0  0
  -24.8210  -31.8790   23.3620 C   0  0  0  0  0  0  0  0  0  0  0  0
  -26.2210  -27.5460   19.4530 C   0  0  0  0  0  0  0  0  0  0  0  0
  -23.1660  -30.8720   21.8220 C   0  0  0  0  0  3  0  0  0  0  0  0
  -24.1200  -29.3390   20.0230 C   0  0  0  0  0  0  0  0  0  0  0  0
  -25.6530  -30.9070   21.2270 C   0  0  0  0  0  2  0  0  0  0  0  0
  -25.4230  -29.6300   20.4470 C   0  0  0  0  0  0  0  0  0  0  0  0
  -26.4800  -28.7400   20.1580 C   0  0  0  0  0  3  0  0  0  0  0  0
  -24.9050  -27.2640   19.0290 C   0  0  0  0  0  3  0  0  0  0  0  0
  -23.8540  -28.1550   19.3130 C   0  0  0  0  0  3  0  0  0  0  0  0
  -23.0470  -30.3470   20.3670 C   0  0  0  0  0  2  0  0  0  0  0  0
  -24.5750  -31.2220   22.1930 N   0  0  0  0  0  0  0  0  0  0  0  0
  -23.8940  -32.2310   24.1050 O   0  0  0  0  0  0  0  0  0  0  0  0
  -22.5190  -29.8420   22.7730 C   0  0  0  0  0  0  0  0  0  0  0  0
  -21.1960  -29.6550   22.6430 N   0  0  0  0  0  0  0  0  0  0  0  0
  -23.2040  -29.2130   23.5860 O   0  0  0  0  0  0  0  0  0  0  0  0
  -20.7060  -30.2120   21.9580 H   0  0  0  0  0  0  0  0  0  0  0  0
  -17.8750  -28.2680   22.9550 C   0  0  0  0  0  0  0  0  0  0  0  0
  -20.3820  -28.7080   23.4040 C   0  0  0  0  0  3  0  0  0  0  0  0
  -20.6190  -27.2580   22.9250 C   0  0  0  0  0  2  0  0  0  0  0  0
  -19.6240  -26.8080   21.8510 C   0  0  0  0  0  2  0  0  0  0  0  0
  -18.1880  -26.8970   22.3770 C   0  0  0  0  0  2  0  0  0  0  0  0
  -18.9080  -29.1240   23.4230 C   0  0  0  0  0  0  0  0  0  0  0  0
  -18.5660  -30.4010   23.9170 C   0  0  0  0  0  3  0  0  0  0  0  0
  -17.2250  -30.8260   23.9510 C   0  0  0  0  0  3  0  0  0  0  0  0
  -16.2050  -29.9690   23.5030 C   0  0  0  0  0  3  0  0  0  0  0  0
  -16.5310  -28.6920   23.0120 C   0  0  0  0  0  3  0  0  0  0  0  0
  -26.2720  -32.2400   23.8090 C   0  0  0  0  0  3  0  0  0  0  0  0
  -26.8940  -31.1910   24.8120 C   0  0  1  0  0  0  0  0  0  0  0  0
  -25.9790  -30.8660   26.0160 C   0  0  0  0  0  1  0  0  0  0  0  0
  -27.2120  -29.8640   24.0860 C   0  0  0  0  0  1  0  0  0  0  0  0
  -28.2380  -31.7270   25.3610 C   0  0  0  0  0  1  0  0  0  0  0  0
  -26.2270  -33.5760   24.4150 N   0  0  0  0  0  0  0  0  0  0  0  0
  -26.6170  -34.7010   23.8010 C   0  0  0  0  0  0  0  0  0  0  0  0
  -27.1250  -34.7090   22.6760 O   0  0  0  0  0  0  0  0  0  0  0  0
  -25.7740  -33.6530   25.3140 H   0  0  0  0  0  0  0  0  0  0  0  0
  -25.1550  -36.7350   24.0180 C   0  0  0  0  0  1  0  0  0  0  0  0
  -26.4100  -36.0280   24.5540 C   0  0  0  0  0  3  0  0  0  0  0  0
  -28.7410  -36.4550   25.1930 C   0  0  0  0  0  1  0  0  0  0  0  0
  -27.5700  -36.9410   24.4690 N   0  0  0  0  0  0  0  0  0  0  0  0
  -27.3320  -37.8610   24.8300 H   0  0  0  0  0  0  0  0  0  0  0  0
  -31.3220  -19.0490   24.5400 C   0  0  0  0  0  1  0  0  0  0  0  0
  -31.2820  -19.7450   23.1680 C   0  0  0  0  0  3  0  0  0  0  0  0
  -31.3020  -18.6760   22.0670 C   0  0  0  0  0  0  0  0  0  0  0  0
  -32.2660  -18.7790   21.1450 N   0  0  0  0  0  0  0  0  0  0  0  0
  -30.4580  -17.7770   22.0570 O   0  0  0  0  0  0  0  0  0  0  0  0
  -32.9030  -19.5590   21.2470 H   0  0  0  0  0  0  0  0  0  0  0  0
  -34.0330  -17.8220   19.7770 C   0  0  0  0  0  1  0  0  0  0  0  0
  -32.5200  -17.8640   20.0340 C   0  0  0  0  0  3  0  0  0  0  0  0
  -31.7530  -18.2890   18.7590 C   0  0  0  0  0  2  0  0  0  0  0  0
  -30.2540  -17.9290   18.7340 C   0  0  0  0  0  2  0  0  0  0  0  0
  -30.7400  -15.4840   18.7430 C   0  0  0  0  0  0  0  0  0  0  0  0
  -30.9550  -13.0290   18.8040 C   0  0  0  0  0  2  0  0  0  0  0  0
  -29.9950  -12.3770   17.7910 C   0  0  0  0  0  2  0  0  0  0  0  0
  -28.6060  -12.1570   18.4210 C   0  0  0  0  0  2  0  0  0  0  0  0
  -28.0610  -13.4300   19.1210 C   0  0  0  0  0  3  0  0  0  0  0  0
  -29.1300  -14.0430   20.0510 C   0  0  0  0  0  2  0  0  0  0  0  0
  -30.3490  -14.2890   19.2570 N   0  0  0  0  0  0  0  0  0  0  0  0
  -31.6860  -15.6070   17.9600 O   0  0  0  0  0  0  0  0  0  0  0  0
  -30.0200  -16.5410   19.1360 N   0  0  0  0  0  0  0  0  0  0  0  0
  -29.2380  -16.3610   19.7480 H   0  0  0  0  0  0  0  0  0  0  0  0
  -25.8780  -14.0350   20.3460 C   0  0  0  0  0  0  0  0  0  0  0  0
  -24.8710  -13.2610   20.8570 C   0  0  0  0  0  0  0  0  0  0  0  0
  -25.2550  -11.9060   20.6150 C   0  0  0  0  0  0  0  0  0  0  0  0
  -26.8170  -13.1510   19.8360 N   0  0  0  0  0  0  0  0  0  0  0  0
  -26.4540  -11.8600   20.0490 N   0  0  0  0  0  0  0  0  0  0  0  0
  -24.5250  -10.6510   20.8390 C   0  0  0  0  0  0  0  0  0  0  0  0
  -25.0130   -9.6610   21.7210 C   0  0  0  0  0  3  0  0  0  0  0  0
  -24.2830   -8.4700   21.9340 C   0  0  0  0  0  3  0  0  0  0  0  0
  -23.0550   -8.2620   21.2640 C   0  0  0  0  0  0  0  0  0  0  0  0
  -22.5860   -9.2410   20.3710 C   0  0  0  0  0  3  0  0  0  0  0  0
  -23.3140  -10.4230   20.1570 C   0  0  0  0  0  3  0  0  0  0  0  0
  -22.2910   -7.1270   21.3890 O   0  0  0  0  0  0  0  0  0  0  0  0
  -22.1320   -6.4950   22.5970 C   0  0  0  0  0  0  0  0  0  0  0  0
  -21.6340   -7.1740   23.7310 C   0  0  0  0  0  3  0  0  0  0  0  0
  -21.4190   -6.4700   24.9330 C   0  0  0  0  0  3  0  0  0  0  0  0
  -21.6920   -5.0910   25.0020 C   0  0  0  0  0  0  0  0  0  0  0  0
  -22.1840   -4.4130   23.8720 C   0  0  0  0  0  3  0  0  0  0  0  0
  -22.4000   -5.1140   22.6730 C   0  0  0  0  0  0  0  0  0  0  0  0
  -22.8540   -4.4510   21.5810 F   0  0  0  0  0  0  0  0  0  0  0  0
  -21.4800   -4.4140   26.1540 F   0  0  0  0  0  0  0  0  0  0  0  0
  -23.5810  -13.7480   21.4510 C   0  0  0  0  0  0  0  0  0  0  0  0
  -23.0410  -13.0200   22.4220 N   0  0  0  0  0  0  0  0  0  0  0  0
  -23.0680  -14.8050   21.0880 O   0  0  0  0  0  0  0  0  0  0  0  0
  -23.4710  -12.1620   22.7340 H   0  0  0  0  0  0  0  0  0  0  0  0
  -22.1840  -13.3250   22.8620 H   0  0  0  0  0  0  0  0  0  0  0  0
  -26.0660  -15.4110   20.2560 N   0  0  0  0  0  0  0  0  0  0  0  0
  -25.3760  -16.0770   20.5850 H   0  0  0  0  0  0  0  0  0  0  0  0
  -26.8730  -15.8520   19.8320 H   0  0  0  0  0  0  0  0  0  0  0  0
  1  3  2  0
  1  2  1  0
  2 52  1  0
  4  2  1  0
  5  1  1  0
  6  5  2  0
  7  6  1  0
  8  7  1  0
  9  8  1  0
 10 12  1  0
 10  9  1  0
 11 22  2  0
 12 17  1  0
 13 21  1  0
 13 23  1  0
 14 20  1  0
 14 16  1  0
 15 21  1  0
 16 15  1  0
 17 16  2  0
 18 19  1  0
 18 12  2  0
 19 14  2  0
 20 13  1  0
 21 11  1  0
 23 25  2  0
 24 23  1  0
 26 24  1  0
 27 36  2  0
 27 32  1  0
 28 24  1  0
 28 32  1  0
 29 28  1  0
 30 31  1  0
 30 29  1  0
 31 27  1  0
 32 33  2  0
 33 34  1  0
 35 34  2  0
 36 35  1  0
 37 11  1  0
 37 42  1  0
 37 38  1  0
 38 41  1  1
 38 39  1  0
 40 38  1  0
 42 45  1  0
 43 42  1  0
 43 47  1  0
 44 43  2  0
 47 46  1  0
 49 47  1  0
 49 50  1  0
 49 48  1  0
 52 51  1  0
 53 52  1  0
 54 56  1  0
 54 53  1  0
 55 53  2  0
 58 57  1  0
 58 54  1  0
 59 58  1  0
 60 59  1  0
 60 69  1  0
 61 69  1  0
 61 67  1  0
 62 67  1  0
 63 64  1  0
 63 62  1  0
 65 64  1  0
 65 74  1  0
 65 66  1  0
 67 66  1  0
 68 61  2  0
 69 70  1  0
 71 72  2  0
 72 91  1  0
 73 76  1  0
 73 72  1  0
 74 75  1  0
 74 71  1  0
 75 73  2  0
 76 77  1  0
 77 78  2  0
 79 82  1  0
 79 78  1  0
 80 79  2  0
 81 80  1  0
 81 76  2  0
 82 83  1  0
 83 88  2  0
 83 84  1  0
 84 85  2  0
 85 86  1  0
 86 90  1  0
 87 86  2  0
 88 87  1  0
 89 88  1  0
 91 92  1  0
 92 94  1  0
 92 95  1  0
 93 91  2  0
 96 71  1  0
 96 97  1  0
 98 96  1  0
M  ISO  4   9 101  10 101  61 100  69 100
M  END
>  <TORSDO>  (96) 
F 25

>  <SCORE>  (96) 
-8.890

>  <name>  (96) 
96

>  <ligand_id>  (96) 
96

>  <original_smiles>  (96) 
[H]C(C(=O)N([H])C([H])(C(=O)N([H])C([H])(C([H])([H])[H])C([H])([H])C([H])([H])N([H])C(=O)N1C([H])([H])C([H])([H])C([H])([H])C([H])(n2nc(-c3c([H])c([H])c(Oc4c([H])c([H])c(F)c([H])c4F)c([H])c3[H])c(C(=O)N([H])[H])c2N([H])[H])C1([H])[H])C([H])([H])[H])=C([H])C([H])([H])C([H])([H])C([H])([H])Oc1c([H])c([H])c2c(c1[H])C([H])([H])N(C(=O)C([H])(N([H])C(=O)C([H])(N([H])C([H])([H])[H])C([H])([H])[H])C(C([H])([H])[H])(C([H])([H])[H])C([H])([H])[H])C([H])(C(=O)N([H])C1([H])c3c([H])c([H])c([H])c([H])c3C([H])([H])C([H])([H])C1([H])[H])C2([H])[H]

>  <smiles>  (96) 
[H]C(C(=O)N([H])C([H])(C(=O)N([H])C([H])(C([H])([H])[H])C([H])([H])C([H])([H])N([H])C(=O)N1C([H])([H])C([H])([H])C([H])([H])C([H])(n2nc(-c3c([H])c([H])c(Oc4c([H])c([H])c(F)c([H])c4F)c([H])c3[H])c(C(=O)N([H])[H])c2N([H])[H])C1([H])[H])C([H])([H])[H])=C([H])C([H])([H])C([H])([H])C([H])([H])Oc1c([H])c([H])c2c(c1[H])C([H])([H])N(C(=O)C([H])(N([H])C(=O)C([H])(N([H])C([H])([H])[H])C([H])([H])[H])C(C([H])([H])[H])(C([H])([H])[H])C([H])([H])[H])C([H])(C(=O)N([H])C1([H])c3c([H])c([H])c([H])c([H])c3C([H])([H])C([H])([H])C1([H])[H])C2([H])[H]

$$$$
