0:0:0
     RDKit          3D

107114  0  0  1  0  0  0  0  0999 V2000
  -29.2800  -20.8710   19.3100 C   0  0  0  0  0  3  0  0  0  0  0  0
  -28.4750  -19.5700   19.5320 C   0  0  0  0  0  0  0  0  0  0  0  0
  -27.7530  -19.0890   18.5270 N   0  0  0  0  0  0  0  0  0  0  0  0
  -28.4940  -19.0000   20.6220 O   0  0  0  0  0  0  0  0  0  0  0  0
  -27.7330  -19.5640   17.6340 H   0  0  0  0  0  0  0  0  0  0  0  0
  -27.2040  -18.2520   18.6520 H   0  0  0  0  0  0  0  0  0  0  0  0
  -29.4960  -21.5910   20.5820 N   0  0  0  0  0  4  0  0  0  0  0  0
  -30.2910  -22.1990   20.5050 H   0  0  0  0  0  0  0  0  0  0  0  0
  -29.7250  -20.8910   21.2800 H   0  0  0  0  0  0  0  0  0  0  0  0
  -28.3410  -22.3200   21.1630 C   0  0  0  0  0  3  0  0  0  0  0  0
  -27.8740  -23.5260   20.3030 C   0  0  0  0  0  2  0  0  0  0  0  0
  -28.7530  -24.7900   20.3880 C   0  0  0  0  0  2  0  0  0  0  0  0
  -28.6190  -25.7270   19.1710 C   0  0  0  0  0  2  0  0  0  0  0  0
  -28.4780  -27.0780   19.6000 O   0  0  0  0  0  0  0  0  0  0  0  0
  -24.4640  -31.8020   23.0430 C   0  0  0  0  0  0  0  0  0  0  0  0
  -27.2290  -27.6620   19.6770 C   0  0  0  0  0  0  0  0  0  0  0  0
  -23.2780  -30.4350   21.3590 C   0  0  0  0  0  3  0  0  0  0  0  0
  -24.7590  -29.0340   19.8320 C   0  0  0  0  0  0  0  0  0  0  0  0
  -25.7750  -30.9230   21.1130 C   0  0  0  0  0  2  0  0  0  0  0  0
  -25.9050  -29.5860   20.4150 C   0  0  0  0  0  0  0  0  0  0  0  0
  -27.1360  -28.9060   20.3370 C   0  0  0  0  0  3  0  0  0  0  0  0
  -26.0550  -27.1040   19.1150 C   0  0  0  0  0  3  0  0  0  0  0  0
  -24.8260  -27.7880   19.1870 C   0  0  0  0  0  3  0  0  0  0  0  0
  -23.4810  -29.8340   19.9430 C   0  0  0  0  0  2  0  0  0  0  0  0
  -24.5270  -31.0650   21.9000 N   0  0  0  0  0  0  0  0  0  0  0  0
  -23.3860  -31.9990   23.6200 O   0  0  0  0  0  0  0  0  0  0  0  0
  -22.6940  -29.3380   22.2780 C   0  0  0  0  0  0  0  0  0  0  0  0
  -21.3770  -29.0990   22.1600 N   0  0  0  0  0  0  0  0  0  0  0  0
  -23.4220  -28.7060   23.0490 O   0  0  0  0  0  0  0  0  0  0  0  0
  -20.8490  -29.6730   21.5170 H   0  0  0  0  0  0  0  0  0  0  0  0
  -18.0820  -27.6850   22.5940 C   0  0  0  0  0  0  0  0  0  0  0  0
  -20.6170  -28.0880   22.8920 C   0  0  0  0  0  3  0  0  0  0  0  0
  -20.8100  -26.6860   22.2700 C   0  0  0  0  0  2  0  0  0  0  0  0
  -19.7340  -26.3310   21.2390 C   0  0  0  0  0  2  0  0  0  0  0  0
  -18.3430  -26.3700   21.8770 C   0  0  0  0  0  2  0  0  0  0  0  0
  -19.1500  -28.4990   23.0560 C   0  0  0  0  0  0  0  0  0  0  0  0
  -18.8540  -29.7270   23.6860 C   0  0  0  0  0  3  0  0  0  0  0  0
  -17.5210  -30.1460   23.8550 C   0  0  0  0  0  3  0  0  0  0  0  0
  -16.4660  -29.3300   23.4080 C   0  0  0  0  0  3  0  0  0  0  0  0
  -16.7470  -28.1000   22.7860 C   0  0  0  0  0  3  0  0  0  0  0  0
  -25.7380  -32.4540   23.6690 C   0  0  0  0  0  3  0  0  0  0  0  0
  -25.3850  -33.8250   24.0630 N   0  0  0  0  0  0  0  0  0  0  0  0
  -25.6820  -34.9190   23.3510 C   0  0  0  0  0  0  0  0  0  0  0  0
  -26.3540  -34.8840   22.3160 O   0  0  0  0  0  0  0  0  0  0  0  0
  -24.7900  -33.9240   24.8730 H   0  0  0  0  0  0  0  0  0  0  0  0
  -23.8970  -36.6670   23.0730 C   0  0  0  0  0  1  0  0  0  0  0  0
  -25.1510  -36.2690   23.8680 C   0  0  0  0  0  3  0  0  0  0  0  0
  -27.2570  -37.1820   24.7370 C   0  0  0  0  0  1  0  0  0  0  0  0
  -26.1490  -37.3590   23.8040 N   0  0  0  0  0  0  0  0  0  0  0  0
  -25.7140  -38.2590   23.9930 H   0  0  0  0  0  0  0  0  0  0  0  0
  -26.3060  -31.6460   24.8980 C   0  0  1  0  0  0  0  0  0  0  0  0
  -25.2450  -31.3330   25.9790 C   0  0  0  0  0  1  0  0  0  0  0  0
  -26.9220  -30.3070   24.4290 C   0  0  0  0  0  1  0  0  0  0  0  0
  -27.4470  -32.4470   25.5690 C   0  0  0  0  0  1  0  0  0  0  0  0
  -28.7050  -22.7150   22.6050 C   0  0  0  0  0  2  0  0  0  0  0  0
  -29.3430  -21.5860   23.2670 N   0  0  0  0  0  0  0  0  0  0  0  0
  -28.6380  -20.8960   23.5090 H   0  0  0  0  0  0  0  0  0  0  0  0
  -29.6960  -21.8880   24.1720 H   0  0  0  0  0  0  0  0  0  0  0  0
  -30.6180  -20.7460   18.4890 C   0  0  0  0  0  3  0  0  0  0  0  0
  -30.4090  -21.1400   17.0940 N   0  0  0  0  0  0  0  0  0  0  0  0
  -29.9570  -20.3970   16.5730 H   0  0  0  0  0  0  0  0  0  0  0  0
  -31.3040  -21.2580   16.6270 H   0  0  0  0  0  0  0  0  0  0  0  0
  -31.3630  -19.3790   18.5060 C   0  0  0  0  0  2  0  0  0  0  0  0
  -31.6840  -18.8120   19.8950 C   0  0  0  0  0  0  0  0  0  0  0  0
  -32.0270  -17.5200   19.9510 N   0  0  0  0  0  0  0  0  0  0  0  0
  -31.5930  -19.5230   20.8970 O   0  0  0  0  0  0  0  0  0  0  0  0
  -32.0620  -16.9940   19.0860 H   0  0  0  0  0  0  0  0  0  0  0  0
  -32.2520  -16.7520   21.1700 C   0  0  0  0  0  2  0  0  0  0  0  0
  -30.9220  -16.1850   21.7080 C   0  0  0  0  0  2  0  0  0  0  0  0
  -30.8580  -14.1520   20.1440 C   0  0  0  0  0  0  0  0  0  0  0  0
  -30.3930  -12.0610   18.9080 C   0  0  0  0  0  2  0  0  0  0  0  0
  -29.3910  -12.2960   17.7640 C   0  0  0  0  0  2  0  0  0  0  0  0
  -27.9360  -12.2120   18.2680 C   0  0  0  0  0  2  0  0  0  0  0  0
  -27.6990  -13.0580   19.5460 C   0  0  0  0  0  3  0  0  0  0  0  0
  -28.7950  -12.7750   20.5950 C   0  0  0  0  0  2  0  0  0  0  0  0
  -30.1150  -13.0260   19.9800 N   0  0  0  0  0  0  0  0  0  0  0  0
  -31.7850  -14.4650   19.3910 O   0  0  0  0  0  0  0  0  0  0  0  0
  -30.5320  -14.8500   21.2410 N   0  0  0  0  0  0  0  0  0  0  0  0
  -29.8160  -14.4070   21.7970 H   0  0  0  0  0  0  0  0  0  0  0  0
  -25.3780  -13.7620   20.4240 C   0  0  0  0  0  0  0  0  0  0  0  0
  -24.2920  -13.0320   20.8280 C   0  0  0  0  0  0  0  0  0  0  0  0
  -24.6720  -11.6600   20.7050 C   0  0  0  0  0  0  0  0  0  0  0  0
  -26.3580  -12.8390   20.0920 N   0  0  0  0  0  0  0  0  0  0  0  0
  -25.9350  -11.5660   20.3100 N   0  0  0  0  0  0  0  0  0  0  0  0
  -23.8880  -10.4320   20.8880 C   0  0  0  0  0  0  0  0  0  0  0  0
  -24.2980   -9.4210   21.7840 C   0  0  0  0  0  3  0  0  0  0  0  0
  -23.5170   -8.2570   21.9570 C   0  0  0  0  0  3  0  0  0  0  0  0
  -22.3100   -8.0990   21.2330 C   0  0  0  0  0  0  0  0  0  0  0  0
  -21.9190   -9.0980   20.3250 C   0  0  0  0  0  3  0  0  0  0  0  0
  -22.7000  -10.2530   20.1500 C   0  0  0  0  0  3  0  0  0  0  0  0
  -21.5010   -6.9910   21.3160 O   0  0  0  0  0  0  0  0  0  0  0  0
  -21.4320   -6.2350   22.4580 C   0  0  0  0  0  0  0  0  0  0  0  0
  -21.0390   -6.7880   23.6970 C   0  0  0  0  0  3  0  0  0  0  0  0
  -20.9130   -5.9590   24.8290 C   0  0  0  0  0  3  0  0  0  0  0  0
  -21.1700   -4.5790   24.7250 C   0  0  0  0  0  0  0  0  0  0  0  0
  -21.5550   -4.0250   23.4920 C   0  0  0  0  0  3  0  0  0  0  0  0
  -21.6830   -4.8500   22.3610 C   0  0  0  0  0  0  0  0  0  0  0  0
  -22.0340   -4.3080   21.1700 F   0  0  0  0  0  0  0  0  0  0  0  0
  -21.0420   -3.7820   25.8120 F   0  0  0  0  0  0  0  0  0  0  0  0
  -22.9450  -13.5700   21.2180 C   0  0  0  0  0  0  0  0  0  0  0  0
  -22.2400  -12.8800   22.1060 N   0  0  0  0  0  0  0  0  0  0  0  0
  -22.5290  -14.6370   20.7690 O   0  0  0  0  0  0  0  0  0  0  0  0
  -22.5910  -12.0170   22.4960 H   0  0  0  0  0  0  0  0  0  0  0  0
  -21.3350  -13.2160   22.4020 H   0  0  0  0  0  0  0  0  0  0  0  0
  -25.6080  -15.1300   20.3000 N   0  0  0  0  0  0  0  0  0  0  0  0
  -24.8950  -15.8210   20.5050 H   0  0  0  0  0  0  0  0  0  0  0  0
  -26.4780  -15.5410   19.9860 H   0  0  0  0  0  0  0  0  0  0  0  0
  1  2  1  0
  1  7  1  0
  2  4  2  0
  3  6  1  0
  3  2  1  0
  5  3  1  0
  7 10  1  0
  7  9  1  0
  8  7  1  0
 10 11  1  0
 10 55  1  0
 11 12  1  0
 13 14  1  0
 13 12  1  0
 14 16  1  0
 15 26  2  0
 16 21  1  0
 17 25  1  0
 17 27  1  0
 18 24  1  0
 18 20  1  0
 19 25  1  0
 20 19  1  0
 21 20  2  0
 22 23  1  0
 22 16  2  0
 23 18  2  0
 24 17  1  0
 25 15  1  0
 27 29  2  0
 28 27  1  0
 30 28  1  0
 31 40  2  0
 31 36  1  0
 32 28  1  0
 32 36  1  0
 33 32  1  0
 34 35  1  0
 34 33  1  0
 35 31  1  0
 36 37  2  0
 37 38  1  0
 39 38  2  0
 40 39  1  0
 41 15  1  0
 41 42  1  0
 41 51  1  0
 42 45  1  0
 43 47  1  0
 43 42  1  0
 44 43  2  0
 47 46  1  0
 49 47  1  0
 49 50  1  0
 49 48  1  0
 51 54  1  1
 51 52  1  0
 53 51  1  0
 55 56  1  0
 56 57  1  0
 56 58  1  0
 59 63  1  0
 59  1  1  0
 60 59  1  0
 61 60  1  0
 62 60  1  0
 63 64  1  0
 64 65  1  0
 64 66  2  0
 65 68  1  0
 67 65  1  0
 68 69  1  0
 70 78  1  0
 71 76  1  0
 72 73  1  0
 72 71  1  0
 74 73  1  0
 74 83  1  0
 74 75  1  0
 76 70  1  0
 76 75  1  0
 77 70  2  0
 78 69  1  0
 78 79  1  0
 80 81  2  0
 81100  1  0
 82 81  1  0
 82 85  1  0
 83 84  1  0
 83 80  1  0
 84 82  2  0
 85 86  1  0
 86 87  2  0
 88 91  1  0
 88 87  1  0
 89 88  2  0
 90 89  1  0
 90 85  2  0
 91 92  1  0
 92 93  1  0
 93 94  2  0
 95 94  1  0
 95 99  1  0
 96 95  2  0
 97 92  2  0
 97 96  1  0
 98 97  1  0
100101  1  0
101104  1  0
101103  1  0
102100  2  0
105 80  1  0
105106  1  0
107105  1  0
M  ISO  4  13 101  14 101  70 100  78 100
M  END
>  <TORSDO>  (1) 
F 30

>  <SCORE>  (1) 
-10.574

>  <name>  (1) 
0

>  <ligand_id>  (1) 
0

>  <original_smiles>  (1) 
[H]c1c([H])c([H])c2c(c1[H])C([H])([H])C([H])([H])C([H])([H])C2([H])N([H])C(=O)C1([H])N(C(=O)C([H])(N([H])C(=O)C([H])(N([H])C([H])([H])[H])C([H])([H])[H])C(C([H])([H])[H])(C([H])([H])[H])C([H])([H])[H])C([H])([H])c2c([H])c(OC([H])([H])C([H])([H])C([H])([H])C([H])(C([H])([H])N([H])[H])[N+]([H])([H])C([H])(C(=O)N([H])[H])C([H])(N([H])[H])C([H])([H])C(=O)N([H])C([H])([H])C([H])([H])N([H])C(=O)N3C([H])([H])C([H])([H])C([H])([H])C([H])(n4nc(-c5c([H])c([H])c(Oc6c([H])c([H])c(F)c([H])c6F)c([H])c5[H])c(C(=O)N([H])[H])c4N([H])[H])C3([H])[H])c([H])c([H])c2C1([H])[H]

>  <smiles>  (1) 
[H]c1c([H])c([H])c2c(c1[H])C([H])([H])C([H])([H])C([H])([H])C2([H])N([H])C(=O)C1([H])N(C(=O)C([H])(N([H])C(=O)C([H])(N([H])C([H])([H])[H])C([H])([H])[H])C(C([H])([H])[H])(C([H])([H])[H])C([H])([H])[H])C([H])([H])c2c([H])c(OC([H])([H])C([H])([H])C([H])([H])C([H])(C([H])([H])N([H])[H])[N+]([H])([H])C([H])(C(=O)N([H])[H])C([H])(N([H])[H])C([H])([H])C(=O)N([H])C([H])([H])C([H])([H])N([H])C(=O)N3C([H])([H])C([H])([H])C([H])([H])C([H])(n4nc(-c5c([H])c([H])c(Oc6c([H])c([H])c(F)c([H])c6F)c([H])c5[H])c(C(=O)N([H])[H])c4N([H])[H])C3([H])[H])c([H])c([H])c2C1([H])[H]

$$$$
1:0:0
     RDKit          3D

 92 99  0  0  1  0  0  0  0  0999 V2000
  -30.0650  -19.4130   20.9060 C   0  0  0  0  0  0  0  0  0  0  0  0
  -29.4000  -20.5260   20.3000 N   0  0  0  0  0  0  0  0  0  0  0  0
  -30.6330  -19.5950   21.9840 O   0  0  0  0  0  0  0  0  0  0  0  0
  -28.8860  -20.2560   19.4710 H   0  0  0  0  0  0  0  0  0  0  0  0
  -29.5450  -22.1100   20.4340 C   0  0  0  0  0  2  0  0  0  0  0  0
  -28.3410  -23.3150   20.4300 C   0  0  0  0  0  2  0  0  0  0  0  0
  -28.4700  -24.8790   19.7610 C   0  0  0  0  0  2  0  0  0  0  0  0
  -28.3180  -26.3190   20.3600 O   0  0  0  0  0  0  0  0  0  0  0  0
  -24.6220  -31.9820   23.2420 C   0  0  0  0  0  0  0  0  0  0  0  0
  -27.2350  -27.2650   20.2280 C   0  0  0  0  0  0  0  0  0  0  0  0
  -23.4310  -30.5690   21.6080 C   0  0  0  0  0  3  0  0  0  0  0  0
  -24.8890  -28.9930   20.1850 C   0  0  0  0  0  0  0  0  0  0  0  0
  -25.9820  -30.8490   21.4420 C   0  0  0  0  0  2  0  0  0  0  0  0
  -26.0630  -29.4540   20.7930 C   0  0  0  0  0  0  0  0  0  0  0  0
  -27.2300  -28.6040   20.7990 C   0  0  0  0  0  3  0  0  0  0  0  0
  -26.0360  -26.9020   19.5800 C   0  0  0  0  0  3  0  0  0  0  0  0
  -24.8890  -27.7320   19.5630 C   0  0  0  0  0  3  0  0  0  0  0  0
  -23.6550  -29.8830   20.2310 C   0  0  0  0  0  2  0  0  0  0  0  0
  -24.6980  -31.1560   22.1520 N   0  0  0  0  0  0  0  0  0  0  0  0
  -23.5330  -32.2610   23.7690 O   0  0  0  0  0  0  0  0  0  0  0  0
  -22.7590  -29.5630   22.5770 C   0  0  0  0  0  0  0  0  0  0  0  0
  -21.4420  -29.3430   22.4170 N   0  0  0  0  0  0  0  0  0  0  0  0
  -23.4270  -28.9830   23.4370 O   0  0  0  0  0  0  0  0  0  0  0  0
  -20.9590  -29.8640   21.7000 H   0  0  0  0  0  0  0  0  0  0  0  0
  -18.0990  -28.0080   22.8270 C   0  0  0  0  0  0  0  0  0  0  0  0
  -20.6310  -28.3960   23.1880 C   0  0  0  0  0  3  0  0  0  0  0  0
  -20.8180  -26.9510   22.6700 C   0  0  0  0  0  2  0  0  0  0  0  0
  -19.7760  -26.5440   21.6240 C   0  0  0  0  0  2  0  0  0  0  0  0
  -18.3640  -26.6470   22.2050 C   0  0  0  0  0  2  0  0  0  0  0  0
  -19.1640  -28.8360   23.2730 C   0  0  0  0  0  0  0  0  0  0  0  0
  -18.8620  -30.1050   23.8130 C   0  0  0  0  0  3  0  0  0  0  0  0
  -17.5290  -30.5490   23.9120 C   0  0  0  0  0  3  0  0  0  0  0  0
  -16.4800  -29.7200   23.4810 C   0  0  0  0  0  3  0  0  0  0  0  0
  -16.7640  -28.4510   22.9430 C   0  0  0  0  0  3  0  0  0  0  0  0
  -25.8950  -32.6300   23.8660 C   0  0  0  0  0  3  0  0  0  0  0  0
  -25.5760  -34.0320   24.1830 N   0  0  0  0  0  0  0  0  0  0  0  0
  -25.9170  -35.0840   23.4270 C   0  0  0  0  0  0  0  0  0  0  0  0
  -26.6010  -34.9770   22.4060 O   0  0  0  0  0  0  0  0  0  0  0  0
  -24.9700  -34.1870   24.9760 H   0  0  0  0  0  0  0  0  0  0  0  0
  -24.1930  -36.8780   23.0510 C   0  0  0  0  0  1  0  0  0  0  0  0
  -25.4270  -36.4760   23.8760 C   0  0  0  0  0  3  0  0  0  0  0  0
  -27.5510  -37.3680   24.7270 C   0  0  0  0  0  1  0  0  0  0  0  0
  -26.4600  -37.5280   23.7680 N   0  0  0  0  0  0  0  0  0  0  0  0
  -26.0530  -38.4490   23.9020 H   0  0  0  0  0  0  0  0  0  0  0  0
  -26.4020  -31.8800   25.1600 C   0  0  1  0  0  0  0  0  0  0  0  0
  -25.2910  -31.6130   26.2020 C   0  0  0  0  0  1  0  0  0  0  0  0
  -27.0340  -30.5180   24.7920 C   0  0  0  0  0  1  0  0  0  0  0  0
  -27.5140  -32.7100   25.8450 C   0  0  0  0  0  1  0  0  0  0  0  0
  -30.2350  -17.8930   20.2320 C   0  0  0  0  0  0  0  0  0  0  0  0
  -31.1680  -15.2800   20.7400 C   0  0  0  0  0  0  0  0  0  0  0  0
  -31.1110  -12.9160   19.8230 C   0  0  0  0  0  2  0  0  0  0  0  0
  -30.2770  -12.9010   18.5200 C   0  0  0  0  0  2  0  0  0  0  0  0
  -28.7790  -12.7170   18.8300 C   0  0  0  0  0  2  0  0  0  0  0  0
  -28.3020  -13.6380   19.9830 C   0  0  0  0  0  3  0  0  0  0  0  0
  -29.2650  -13.6140   21.1900 C   0  0  0  0  0  2  0  0  0  0  0  0
  -30.5890  -14.0100   20.6940 N   0  0  0  0  0  0  0  0  0  0  0  0
  -32.3730  -15.3540   20.4850 O   0  0  0  0  0  0  0  0  0  0  0  0
  -30.3430  -16.4320   20.8710 N   0  0  0  0  0  4  0  0  0  0  0  0
  -29.4430  -16.1600   21.2350 H   0  0  0  0  0  0  0  0  0  0  0  0
  -25.8850  -14.2560   20.5510 C   0  0  0  0  0  0  0  0  0  0  0  0
  -24.7820  -13.4990   20.8330 C   0  0  0  0  0  0  0  0  0  0  0  0
  -25.2190  -12.1400   20.8170 C   0  0  0  0  0  0  0  0  0  0  0  0
  -26.9240  -13.3600   20.3740 N   0  0  0  0  0  0  0  0  0  0  0  0
  -26.5280  -12.0800   20.6000 N   0  0  0  0  0  0  0  0  0  0  0  0
  -24.4540  -10.8900   20.9340 C   0  0  0  0  0  0  0  0  0  0  0  0
  -24.7880   -9.9060   21.8900 C   0  0  0  0  0  3  0  0  0  0  0  0
  -24.0240   -8.7230   21.9970 C   0  0  0  0  0  3  0  0  0  0  0  0
  -22.9100   -8.5170   21.1470 C   0  0  0  0  0  0  0  0  0  0  0  0
  -22.5960   -9.4910   20.1820 C   0  0  0  0  0  3  0  0  0  0  0  0
  -23.3610  -10.6650   20.0730 C   0  0  0  0  0  3  0  0  0  0  0  0
  -22.1260   -7.3900   21.1630 O   0  0  0  0  0  0  0  0  0  0  0  0
  -21.9370   -6.6600   22.3090 C   0  0  0  0  0  0  0  0  0  0  0  0
  -21.3790   -7.2320   23.4730 C   0  0  0  0  0  3  0  0  0  0  0  0
  -21.1380   -6.4290   24.6070 C   0  0  0  0  0  3  0  0  0  0  0  0
  -21.4440   -5.0560   24.5740 C   0  0  0  0  0  0  0  0  0  0  0  0
  -21.9920   -4.4830   23.4130 C   0  0  0  0  0  3  0  0  0  0  0  0
  -22.2350   -5.2830   22.2830 C   0  0  0  0  0  0  0  0  0  0  0  0
  -22.7450   -4.7210   21.1600 F   0  0  0  0  0  0  0  0  0  0  0  0
  -21.2040   -4.2820   25.6590 F   0  0  0  0  0  0  0  0  0  0  0  0
  -23.3780  -14.0030   21.0080 C   0  0  0  0  0  0  0  0  0  0  0  0
  -22.5810  -13.3260   21.8270 N   0  0  0  0  0  0  0  0  0  0  0  0
  -22.9950  -15.0320   20.4530 O   0  0  0  0  0  0  0  0  0  0  0  0
  -22.9010  -12.4940   22.2980 H   0  0  0  0  0  0  0  0  0  0  0  0
  -21.6360  -13.6450   21.9860 H   0  0  0  0  0  0  0  0  0  0  0  0
  -26.0890  -15.6250   20.4040 N   0  0  0  0  0  0  0  0  0  0  0  0
  -25.3250  -16.2900   20.4570 H   0  0  0  0  0  0  0  0  0  0  0  0
  -26.9540  -16.0390   20.0830 H   0  0  0  0  0  0  0  0  0  0  0  0
  -31.1060  -17.9650   18.9490 C   0  0  0  0  0  3  0  0  0  0  0  0
  -31.4630  -16.7900   16.8870 C   0  0  0  0  0  1  0  0  0  0  0  0
  -30.9490  -16.7500   18.2130 O   0  0  0  0  0  0  0  0  0  0  0  0
  -33.1630  -19.4480   18.4770 C   0  0  0  0  0  1  0  0  0  0  0  0
  -32.5980  -18.2480   19.2500 C   0  0  0  0  0  2  0  0  0  0  0  0
  1  3  2  0
  2  5  1  0
  2  1  1  0
  4  2  1  0
  6  5  1  0
  7  8  1  0
  7  6  1  0
  9 20  2  0
 10  8  1  0
 10 15  1  0
 11 19  1  0
 11 21  1  0
 12 18  1  0
 12 14  1  0
 13 19  1  0
 14 15  2  0
 14 13  1  0
 16 10  2  0
 17 16  1  0
 17 12  2  0
 18 11  1  0
 19  9  1  0
 21 23  2  0
 22 21  1  0
 24 22  1  0
 25 34  2  0
 25 30  1  0
 26 22  1  0
 26 30  1  0
 27 26  1  0
 28 29  1  0
 28 27  1  0
 29 25  1  0
 30 31  2  0
 31 32  1  0
 33 32  2  0
 34 33  1  0
 35  9  1  0
 35 36  1  0
 35 45  1  0
 36 39  1  0
 37 41  1  0
 37 36  1  0
 38 37  2  0
 41 40  1  0
 43 41  1  0
 43 44  1  0
 43 42  1  0
 45 48  1  1
 45 46  1  0
 47 45  1  0
 49 58  2  0
 49  1  1  0
 50 58  1  0
 51 56  1  0
 52 53  1  0
 52 51  1  0
 54 53  1  0
 54 63  1  0
 54 55  1  0
 56 50  1  0
 56 55  1  0
 57 50  2  0
 58 59  1  0
 60 61  2  0
 61 80  1  0
 62 61  1  0
 62 65  1  0
 63 60  1  0
 63 64  1  0
 64 62  2  0
 65 66  1  0
 66 67  2  0
 68 71  1  0
 68 67  1  0
 69 68  2  0
 70 69  1  0
 70 65  2  0
 71 72  1  0
 72 73  1  0
 73 74  2  0
 75 74  1  0
 75 79  1  0
 76 75  2  0
 77 72  2  0
 77 76  1  0
 78 77  1  0
 80 81  1  0
 81 84  1  0
 81 83  1  0
 82 80  2  0
 85 86  1  0
 85 60  1  0
 87 85  1  0
 88 92  1  0
 88 49  1  0
 89 90  1  0
 90 88  1  0
 91 92  1  0
M  ISO  4   7 101   8 101  50 100  58 100
M  END
>  <TORSDO>  (2) 
F 23

>  <SCORE>  (2) 
-12.813

>  <name>  (2) 
1

>  <ligand_id>  (2) 
1

>  <original_smiles>  (2) 
[H]c1c([H])c([H])c2c(c1[H])C([H])([H])C([H])([H])C([H])([H])C2([H])N([H])C(=O)C1([H])N(C(=O)C([H])(N([H])C(=O)C([H])(N([H])C([H])([H])[H])C([H])([H])[H])C(C([H])([H])[H])(C([H])([H])[H])C([H])([H])[H])C([H])([H])c2c([H])c(OC([H])([H])C([H])([H])C([H])([H])N([H])C(=O)C([H])(N([H])C(=O)N3C([H])([H])C([H])([H])C([H])([H])C([H])(n4nc(-c5c([H])c([H])c(Oc6c([H])c([H])c(F)c([H])c6F)c([H])c5[H])c(C(=O)N([H])[H])c4N([H])[H])C3([H])[H])C([H])(OC([H])([H])[H])C([H])([H])C([H])([H])[H])c([H])c([H])c2C1([H])[H]

>  <smiles>  (2) 
[H]c1c([H])c([H])c2c(c1[H])C([H])([H])C([H])([H])C([H])([H])C2([H])N([H])C(=O)C1([H])N(C(=O)C([H])(N([H])C(=O)C([H])(N([H])C([H])([H])[H])C([H])([H])[H])C(C([H])([H])[H])(C([H])([H])[H])C([H])([H])[H])C([H])([H])c2c([H])c(OC([H])([H])C([H])([H])C([H])([H])N([H])C(=O)C([H])(N([H])C(=O)N3C([H])([H])C([H])([H])C([H])([H])C([H])(n4nc(-c5c([H])c([H])c(Oc6c([H])c([H])c(F)c([H])c6F)c([H])c5[H])c(C(=O)N([H])[H])c4N([H])[H])C3([H])[H])C([H])(OC([H])([H])[H])C([H])([H])C([H])([H])[H])c([H])c([H])c2C1([H])[H]

$$$$
2:0:0
     RDKit          3D

 95103  0  0  1  0  0  0  0  0999 V2000
  -30.6730  -24.3480   20.3740 C   0  0  0  0  0  2  0  0  0  0  0  0
  -29.7170  -22.2690   19.4920 C   0  0  0  0  0  2  0  0  0  0  0  0
  -31.5100  -23.4830   21.3260 C   0  0  0  0  0  2  0  0  0  0  0  0
  -30.6420  -21.4580   20.4420 C   0  0  0  0  0  3  0  0  0  0  0  0
  -29.4200  -23.6500   19.9860 N   0  0  2  0  0  4  0  0  0  0  0  0
  -31.8090  -22.2390   20.6960 O   0  0  0  0  0  0  0  0  0  0  0  0
  -28.8970  -23.5460   20.8470 H   0  0  0  0  0  0  0  0  0  0  0  0
  -31.1160  -20.1070   19.8250 C   0  0  0  0  0  2  0  0  0  0  0  0
  -31.1220  -17.7520   20.7280 C   0  0  0  0  0  0  0  0  0  0  0  0
  -30.5110  -18.9150   20.4440 N   0  0  0  0  0  0  0  0  0  0  0  0
  -32.3200  -17.5600   20.5180 O   0  0  0  0  0  0  0  0  0  0  0  0
  -29.5300  -18.9830   20.6810 H   0  0  0  0  0  0  0  0  0  0  0  0
  -30.1290  -16.9820   22.9570 C   0  0  0  0  0  1  0  0  0  0  0  0
  -30.2530  -16.7000   21.4500 C   0  0  0  0  0  3  0  0  0  0  0  0
  -31.0040  -14.5000   20.2880 C   0  0  0  0  0  0  0  0  0  0  0  0
  -30.6130  -12.5000   18.8770 C   0  0  0  0  0  2  0  0  0  0  0  0
  -29.6080  -12.8640   17.7650 C   0  0  0  0  0  2  0  0  0  0  0  0
  -28.1480  -12.7290   18.2510 C   0  0  0  0  0  2  0  0  0  0  0  0
  -27.9120  -13.4180   19.6210 C   0  0  0  0  0  3  0  0  0  0  0  0
  -29.0090  -12.9920   20.6230 C   0  0  0  0  0  2  0  0  0  0  0  0
  -30.3260  -13.3420   20.0490 N   0  0  0  0  0  0  0  0  0  0  0  0
  -32.0050  -14.8380   19.6490 O   0  0  0  0  0  0  0  0  0  0  0  0
  -30.4270  -15.2500   21.2430 N   0  0  0  0  0  0  0  0  0  0  0  0
  -29.7460  -14.7080   21.7490 H   0  0  0  0  0  0  0  0  0  0  0  0
  -25.5360  -14.0310   20.4140 C   0  0  0  0  0  0  0  0  0  0  0  0
  -24.4780  -13.2580   20.8090 C   0  0  0  0  0  0  0  0  0  0  0  0
  -24.9310  -11.9050   20.7450 C   0  0  0  0  0  0  0  0  0  0  0  0
  -26.5700  -13.1470   20.1380 N   0  0  0  0  0  0  0  0  0  0  0  0
  -26.2090  -11.8620   20.3920 N   0  0  0  0  0  0  0  0  0  0  0  0
  -24.2060  -10.6440   20.9480 C   0  0  0  0  0  0  0  0  0  0  0  0
  -24.6340   -9.6950   21.9020 C   0  0  0  0  0  3  0  0  0  0  0  0
  -23.9120   -8.4960   22.0920 C   0  0  0  0  0  3  0  0  0  0  0  0
  -22.7490   -8.2400   21.3300 C   0  0  0  0  0  0  0  0  0  0  0  0
  -22.3380   -9.1790   20.3680 C   0  0  0  0  0  3  0  0  0  0  0  0
  -23.0600  -10.3690   20.1760 C   0  0  0  0  0  3  0  0  0  0  0  0
  -21.9980   -7.0930   21.4310 O   0  0  0  0  0  0  0  0  0  0  0  0
  -21.8980   -6.3990   22.6090 C   0  0  0  0  0  0  0  0  0  0  0  0
  -21.4110   -7.0020   23.7900 C   0  0  0  0  0  3  0  0  0  0  0  0
  -21.2560   -6.2330   24.9610 C   0  0  0  0  0  3  0  0  0  0  0  0
  -21.5790   -4.8620   24.9520 C   0  0  0  0  0  0  0  0  0  0  0  0
  -22.0570   -4.2590   23.7760 C   0  0  0  0  0  3  0  0  0  0  0  0
  -22.2130   -5.0260   22.6070 C   0  0  0  0  0  0  0  0  0  0  0  0
  -22.6560   -4.4330   21.4720 F   0  0  0  0  0  0  0  0  0  0  0  0
  -21.4230   -4.1230   26.0750 F   0  0  0  0  0  0  0  0  0  0  0  0
  -23.0920  -13.7380   21.1370 C   0  0  0  0  0  0  0  0  0  0  0  0
  -22.4090  -13.0600   22.0520 N   0  0  0  0  0  0  0  0  0  0  0  0
  -22.6250  -14.7490   20.6150 O   0  0  0  0  0  0  0  0  0  0  0  0
  -22.8000  -12.2450   22.4980 H   0  0  0  0  0  0  0  0  0  0  0  0
  -21.4800  -13.3640   22.3100 H   0  0  0  0  0  0  0  0  0  0  0  0
  -25.6970  -15.4040   20.2470 N   0  0  0  0  0  0  0  0  0  0  0  0
  -24.9340  -16.0580   20.3940 H   0  0  0  0  0  0  0  0  0  0  0  0
  -26.5390  -15.8480   19.9030 H   0  0  0  0  0  0  0  0  0  0  0  0
  -28.5120  -24.4000   19.0510 C   0  0  0  0  0  2  0  0  0  0  0  0
  -28.7010  -25.9390   18.9180 C   0  0  0  0  0  2  0  0  0  0  0  0
  -28.3700  -26.7050   20.0850 O   0  0  0  0  0  0  0  0  0  0  0  0
  -24.5410  -31.8390   23.1950 C   0  0  0  0  0  0  0  0  0  0  0  0
  -27.1830  -27.4040   20.0880 C   0  0  0  0  0  0  0  0  0  0  0  0
  -23.3280  -30.4290   21.5640 C   0  0  0  0  0  3  0  0  0  0  0  0
  -24.7770  -28.8950   20.1310 C   0  0  0  0  0  0  0  0  0  0  0  0
  -25.8500  -30.7930   21.3490 C   0  0  0  0  0  2  0  0  0  0  0  0
  -25.9340  -29.4180   20.7200 C   0  0  0  0  0  0  0  0  0  0  0  0
  -27.1320  -28.6700   20.7160 C   0  0  0  0  0  3  0  0  0  0  0  0
  -26.0010  -26.8870   19.5080 C   0  0  0  0  0  3  0  0  0  0  0  0
  -24.8030  -27.6240   19.5320 C   0  0  0  0  0  3  0  0  0  0  0  0
  -23.5290  -29.7470   20.1840 C   0  0  0  0  0  2  0  0  0  0  0  0
  -24.5930  -31.0350   22.0950 N   0  0  0  0  0  0  0  0  0  0  0  0
  -23.4640  -32.1080   23.7420 O   0  0  0  0  0  0  0  0  0  0  0  0
  -22.6900  -29.4060   22.5300 C   0  0  0  0  0  0  0  0  0  0  0  0
  -21.3650  -29.2210   22.4160 N   0  0  0  0  0  0  0  0  0  0  0  0
  -23.3830  -28.7800   23.3360 O   0  0  0  0  0  0  0  0  0  0  0  0
  -20.8640  -29.7770   21.7360 H   0  0  0  0  0  0  0  0  0  0  0  0
  -17.9990  -28.0290   22.9500 C   0  0  0  0  0  0  0  0  0  0  0  0
  -20.5590  -28.2810   23.1930 C   0  0  0  0  0  3  0  0  0  0  0  0
  -20.6540  -26.8520   22.6090 C   0  0  0  0  0  2  0  0  0  0  0  0
  -19.5410  -26.5360   21.6060 C   0  0  0  0  0  2  0  0  0  0  0  0
  -18.1660  -26.6830   22.2670 C   0  0  0  0  0  2  0  0  0  0  0  0
  -19.1230  -28.7860   23.3710 C   0  0  0  0  0  0  0  0  0  0  0  0
  -18.9150  -30.0500   23.9670 C   0  0  0  0  0  3  0  0  0  0  0  0
  -17.6140  -30.5540   24.1480 C   0  0  0  0  0  3  0  0  0  0  0  0
  -16.5030  -29.7940   23.7440 C   0  0  0  0  0  3  0  0  0  0  0  0
  -16.6970  -28.5330   23.1510 C   0  0  0  0  0  3  0  0  0  0  0  0
  -25.8310  -32.4750   23.8030 C   0  0  0  0  0  3  0  0  0  0  0  0
  -25.5170  -33.8670   24.1450 N   0  0  0  0  0  0  0  0  0  0  0  0
  -25.8390  -34.9260   23.3900 C   0  0  0  0  0  0  0  0  0  0  0  0
  -26.5020  -34.8320   22.3530 O   0  0  0  0  0  0  0  0  0  0  0  0
  -24.9250  -34.0130   24.9510 H   0  0  0  0  0  0  0  0  0  0  0  0
  -24.0990  -36.7100   23.0530 C   0  0  0  0  0  1  0  0  0  0  0  0
  -25.3450  -36.3090   23.8580 C   0  0  0  0  0  3  0  0  0  0  0  0
  -27.4790  -37.2000   24.6850 C   0  0  0  0  0  1  0  0  0  0  0  0
  -26.3730  -37.3680   23.7470 N   0  0  0  0  0  0  0  0  0  0  0  0
  -25.9630  -38.2850   23.9020 H   0  0  0  0  0  0  0  0  0  0  0  0
  -26.3710  -31.6980   25.0660 C   0  0  1  0  0  0  0  0  0  0  0  0
  -25.2930  -31.4440   26.1470 C   0  0  0  0  0  1  0  0  0  0  0  0
  -26.9610  -30.3280   24.6540 C   0  0  0  0  0  1  0  0  0  0  0  0
  -27.5250  -32.4950   25.7180 C   0  0  0  0  0  1  0  0  0  0  0  0
  1  3  1  0
  2  5  1  0
  2  4  1  0
  4  8  1  0
  4  6  1  0
  5  1  1  0
  5  7  1  1
  6  3  1  0
  8 10  1  0
  9 14  1  0
 10 12  1  0
 10  9  1  0
 11  9  2  0
 14 13  1  0
 15 23  1  0
 16 21  1  0
 17 18  1  0
 17 16  1  0
 19 18  1  0
 19 28  1  0
 19 20  1  0
 21 15  1  0
 21 20  1  0
 22 15  2  0
 23 14  1  0
 23 24  1  0
 25 26  2  0
 26 45  1  0
 27 26  1  0
 27 30  1  0
 28 29  1  0
 28 25  1  0
 29 27  2  0
 30 31  1  0
 31 32  2  0
 33 36  1  0
 33 32  1  0
 34 33  2  0
 35 34  1  0
 35 30  2  0
 36 37  1  0
 37 38  1  0
 38 39  2  0
 40 39  1  0
 40 44  1  0
 41 40  2  0
 42 37  2  0
 42 41  1  0
 43 42  1  0
 45 46  1  0
 46 49  1  0
 46 48  1  0
 47 45  2  0
 50 51  1  0
 50 25  1  0
 52 50  1  0
 53  5  1  0
 54 53  1  0
 54 55  1  0
 55 57  1  0
 56 67  2  0
 57 62  1  0
 58 66  1  0
 58 68  1  0
 59 65  1  0
 59 61  1  0
 60 66  1  0
 61 60  1  0
 62 61  2  0
 63 64  1  0
 63 57  2  0
 64 59  2  0
 65 58  1  0
 66 56  1  0
 68 70  2  0
 69 68  1  0
 71 69  1  0
 72 81  2  0
 72 77  1  0
 73 69  1  0
 73 77  1  0
 74 73  1  0
 75 76  1  0
 75 74  1  0
 76 72  1  0
 77 78  2  0
 78 79  1  0
 80 79  2  0
 81 80  1  0
 82 56  1  0
 82 83  1  0
 82 92  1  0
 83 86  1  0
 84 88  1  0
 84 83  1  0
 85 84  2  0
 88 87  1  0
 90 88  1  0
 90 91  1  0
 90 89  1  0
 92 95  1  1
 92 93  1  0
 94 92  1  0
M  ISO  4  15 100  23 100  54 101  55 101
M  END
>  <TORSDO>  (3) 
F 21

>  <SCORE>  (3) 
-12.377

>  <name>  (3) 
2

>  <ligand_id>  (3) 
2

>  <original_smiles>  (3) 
[H]c1c([H])c([H])c2c(c1[H])C([H])([H])C([H])([H])C([H])([H])C2([H])N([H])C(=O)C1([H])N(C(=O)C([H])(N([H])C(=O)C([H])(N([H])C([H])([H])[H])C([H])([H])[H])C(C([H])([H])[H])(C([H])([H])[H])C([H])([H])[H])C([H])([H])c2c([H])c(OC([H])([H])C([H])([H])[N+]3([H])C([H])([H])C([H])([H])OC([H])(C([H])([H])N([H])C(=O)C([H])(N([H])C(=O)N4C([H])([H])C([H])([H])C([H])([H])C([H])(n5nc(-c6c([H])c([H])c(Oc7c([H])c([H])c(F)c([H])c7F)c([H])c6[H])c(C(=O)N([H])[H])c5N([H])[H])C4([H])[H])C([H])([H])[H])C3([H])[H])c([H])c([H])c2C1([H])[H]

>  <smiles>  (3) 
[H]c1c([H])c([H])c2c(c1[H])C([H])([H])C([H])([H])C([H])([H])C2([H])N([H])C(=O)C1([H])N(C(=O)C([H])(N([H])C(=O)C([H])(N([H])C([H])([H])[H])C([H])([H])[H])C(C([H])([H])[H])(C([H])([H])[H])C([H])([H])[H])C([H])([H])c2c([H])c(OC([H])([H])C([H])([H])[N+]3([H])C([H])([H])C([H])([H])OC([H])(C([H])([H])N([H])C(=O)C([H])(N([H])C(=O)N4C([H])([H])C([H])([H])C([H])([H])C([H])(n5nc(-c6c([H])c([H])c(Oc7c([H])c([H])c(F)c([H])c7F)c([H])c6[H])c(C(=O)N([H])[H])c5N([H])[H])C4([H])[H])C([H])([H])[H])C3([H])[H])c([H])c([H])c2C1([H])[H]

$$$$
3:0:0
     RDKit          3D

101108  0  0  1  0  0  0  0  0999 V2000
  -28.9270  -22.3160   19.9580 C   0  0  0  0  0  0  0  0  0  0  0  0
  -31.0890  -23.4800   19.6010 C   0  0  0  0  0  0  0  0  0  0  0  0
  -30.2650  -22.7470   20.3660 N   0  0  0  0  0  4  0  0  0  0  0  0
  -30.8490  -23.7350   18.4190 O   0  0  0  0  0  0  0  0  0  0  0  0
  -30.5490  -22.5490   21.3160 H   0  0  0  0  0  0  0  0  0  0  0  0
  -32.4080  -23.9720   20.2290 C   0  0  0  0  0  3  0  0  0  0  0  0
  -33.4660  -23.0440   19.8200 N   0  0  0  0  0  0  0  0  0  0  0  0
  -33.5580  -23.0630   18.8090 H   0  0  0  0  0  0  0  0  0  0  0  0
  -33.1840  -22.0900   20.0150 H   0  0  0  0  0  0  0  0  0  0  0  0
  -34.1780  -25.8580   20.2890 C   0  0  0  0  0  1  0  0  0  0  0  0
  -32.7580  -25.4480   19.8380 C   0  0  0  0  0  3  0  0  0  0  0  0
  -31.7720  -26.4220   20.3540 N   0  0  0  0  0  4  0  0  0  0  0  0
  -31.7210  -26.3980   21.3580 H   0  0  0  0  0  0  0  0  0  0  0  0
  -30.8570  -26.2490   19.9750 H   0  0  0  0  0  0  0  0  0  0  0  0
  -32.0400  -27.3530   20.0790 H   0  0  0  0  0  0  0  0  0  0  0  0
  -27.9070  -23.9470   20.0580 C   0  0  0  0  0  2  0  0  0  0  0  0
  -28.1000  -25.6770   19.9410 O   0  0  0  0  0  0  0  0  0  0  0  0
  -24.6600  -31.8730   23.0570 C   0  0  0  0  0  0  0  0  0  0  0  0
  -27.1090  -26.8610   19.9420 C   0  0  0  0  0  0  0  0  0  0  0  0
  -23.4250  -30.4870   21.4440 C   0  0  0  0  0  3  0  0  0  0  0  0
  -24.8310  -28.8590   19.9750 C   0  0  0  0  0  0  0  0  0  0  0  0
  -25.9970  -30.6470   21.2430 C   0  0  0  0  0  2  0  0  0  0  0  0
  -26.0440  -29.2220   20.5730 C   0  0  0  0  0  0  0  0  0  0  0  0
  -27.1690  -28.2510   20.5220 C   0  0  0  0  0  3  0  0  0  0  0  0
  -25.8580  -26.6940   19.2970 C   0  0  0  0  0  3  0  0  0  0  0  0
  -24.7720  -27.6200   19.3150 C   0  0  0  0  0  3  0  0  0  0  0  0
  -23.6240  -29.8020   20.0610 C   0  0  0  0  0  2  0  0  0  0  0  0
  -24.7190  -31.0340   21.9660 N   0  0  0  0  0  0  0  0  0  0  0  0
  -23.5820  -32.1660   23.6030 O   0  0  0  0  0  0  0  0  0  0  0  0
  -22.7400  -29.4990   22.4260 C   0  0  0  0  0  0  0  0  0  0  0  0
  -21.4100  -29.3150   22.3100 N   0  0  0  0  0  0  0  0  0  0  0  0
  -23.4140  -28.8980   23.2640 O   0  0  0  0  0  0  0  0  0  0  0  0
  -20.9140  -29.8510   21.6130 H   0  0  0  0  0  0  0  0  0  0  0  0
  -18.0660  -27.9790   22.7970 C   0  0  0  0  0  0  0  0  0  0  0  0
  -20.6070  -28.3670   23.0950 C   0  0  0  0  0  3  0  0  0  0  0  0
  -20.7800  -26.9230   22.5660 C   0  0  0  0  0  2  0  0  0  0  0  0
  -19.7130  -26.5250   21.5420 C   0  0  0  0  0  2  0  0  0  0  0  0
  -18.3130  -26.6240   22.1560 C   0  0  0  0  0  2  0  0  0  0  0  0
  -19.1410  -28.8040   23.2220 C   0  0  0  0  0  0  0  0  0  0  0  0
  -18.8520  -30.0670   23.7850 C   0  0  0  0  0  3  0  0  0  0  0  0
  -17.5220  -30.5060   23.9230 C   0  0  0  0  0  3  0  0  0  0  0  0
  -16.4620  -29.6790   23.5110 C   0  0  0  0  0  3  0  0  0  0  0  0
  -16.7350  -28.4180   22.9550 C   0  0  0  0  0  3  0  0  0  0  0  0
  -25.9420  -32.5170   23.6670 C   0  0  0  0  0  3  0  0  0  0  0  0
  -26.4850  -31.7360   24.9270 C   0  0  1  0  0  0  0  0  0  0  0  0
  -25.4180  -31.4980   26.0220 C   0  0  0  0  0  1  0  0  0  0  0  0
  -27.0500  -30.3560   24.5220 C   0  0  0  0  0  1  0  0  0  0  0  0
  -27.6610  -32.5170   25.5610 C   0  0  0  0  0  1  0  0  0  0  0  0
  -25.6260  -33.9100   24.0400 N   0  0  0  0  0  0  0  0  0  0  0  0
  -25.9620  -34.9940   23.3290 C   0  0  0  0  0  0  0  0  0  0  0  0
  -26.6290  -34.9280   22.2940 O   0  0  0  0  0  0  0  0  0  0  0  0
  -25.0350  -34.0340   24.8500 H   0  0  0  0  0  0  0  0  0  0  0  0
  -24.2530  -36.8230   23.0500 C   0  0  0  0  0  1  0  0  0  0  0  0
  -25.4870  -36.3690   23.8450 C   0  0  0  0  0  3  0  0  0  0  0  0
  -27.6260  -37.2030   24.7190 C   0  0  0  0  0  1  0  0  0  0  0  0
  -26.5290  -37.4180   23.7800 N   0  0  0  0  0  0  0  0  0  0  0  0
  -26.1290  -38.3340   23.9630 H   0  0  0  0  0  0  0  0  0  0  0  0
  -28.7830  -20.4480   20.4300 C   0  0  0  0  0  3  0  0  0  0  0  0
  -27.4960  -20.0150   19.8690 N   0  0  0  0  0  4  0  0  0  0  0  0
  -27.5670  -19.9100   18.8730 H   0  0  0  0  0  0  0  0  0  0  0  0
  -26.7750  -20.6840   20.0690 H   0  0  0  0  0  0  0  0  0  0  0  0
  -27.2240  -19.1330   20.2630 H   0  0  0  0  0  0  0  0  0  0  0  0
  -29.8560  -18.8510   20.4090 C   0  0  0  0  0  2  0  0  0  0  0  0
  -30.4260  -15.7590   20.5060 C   0  0  0  0  0  0  0  0  0  0  0  0
  -30.5850  -13.2060   19.7830 C   0  0  0  0  0  2  0  0  0  0  0  0
  -29.7580  -12.7750   18.5420 C   0  0  0  0  0  2  0  0  0  0  0  0
  -28.3220  -12.4070   18.9460 C   0  0  0  0  0  2  0  0  0  0  0  0
  -27.7430  -13.4310   19.9490 C   0  0  0  0  0  3  0  0  0  0  0  0
  -28.7170  -13.7990   21.0940 C   0  0  0  0  0  2  0  0  0  0  0  0
  -29.9160  -14.3960   20.4680 N   0  0  0  0  0  0  0  0  0  0  0  0
  -31.6650  -15.7230   20.3940 O   0  0  0  0  0  0  0  0  0  0  0  0
  -29.6500  -17.0980   20.4820 N   0  0  0  0  0  0  0  0  0  0  0  0
  -28.6650  -16.8770   20.5340 H   0  0  0  0  0  0  0  0  0  0  0  0
  -25.3630  -13.9380   20.6870 C   0  0  0  0  0  0  0  0  0  0  0  0
  -24.2940  -13.1450   20.9910 C   0  0  0  0  0  0  0  0  0  0  0  0
  -24.7630  -11.7980   20.9130 C   0  0  0  0  0  0  0  0  0  0  0  0
  -26.4120  -13.0760   20.4260 N   0  0  0  0  0  0  0  0  0  0  0  0
  -26.0640  -11.7780   20.6320 N   0  0  0  0  0  0  0  0  0  0  0  0
  -24.0290  -10.5290   21.0300 C   0  0  0  0  0  0  0  0  0  0  0  0
  -24.4590   -9.5030   21.8990 C   0  0  0  0  0  3  0  0  0  0  0  0
  -23.7240   -8.3040   22.0110 C   0  0  0  0  0  3  0  0  0  0  0  0
  -22.5440   -8.1220   21.2520 C   0  0  0  0  0  0  0  0  0  0  0  0
  -22.1320   -9.1370   20.3700 C   0  0  0  0  0  3  0  0  0  0  0  0
  -22.8690  -10.3290   20.2560 C   0  0  0  0  0  3  0  0  0  0  0  0
  -21.7790   -6.9800   21.2750 O   0  0  0  0  0  0  0  0  0  0  0  0
  -21.7460   -6.1570   22.3730 C   0  0  0  0  0  0  0  0  0  0  0  0
  -21.3550   -6.6290   23.6440 C   0  0  0  0  0  3  0  0  0  0  0  0
  -21.2680   -5.7350   24.7290 C   0  0  0  0  0  3  0  0  0  0  0  0
  -21.5620   -4.3700   24.5440 C   0  0  0  0  0  0  0  0  0  0  0  0
  -21.9470   -3.8990   23.2770 C   0  0  0  0  0  3  0  0  0  0  0  0
  -22.0360   -4.7890   22.1930 C   0  0  0  0  0  0  0  0  0  0  0  0
  -22.3870   -4.3260   20.9690 F   0  0  0  0  0  0  0  0  0  0  0  0
  -21.4710   -3.5090   25.5840 F   0  0  0  0  0  0  0  0  0  0  0  0
  -22.8900  -13.6150   21.2350 C   0  0  0  0  0  0  0  0  0  0  0  0
  -22.1390  -12.9000   22.0640 N   0  0  0  0  0  0  0  0  0  0  0  0
  -22.4680  -14.6530   20.7280 O   0  0  0  0  0  0  0  0  0  0  0  0
  -22.4940  -12.0590   22.4960 H   0  0  0  0  0  0  0  0  0  0  0  0
  -21.1970  -13.2010   22.2710 H   0  0  0  0  0  0  0  0  0  0  0  0
  -25.5250  -15.3160   20.5780 N   0  0  0  0  0  0  0  0  0  0  0  0
  -24.7470  -15.9560   20.7000 H   0  0  0  0  0  0  0  0  0  0  0  0
  -26.3740  -15.7730   20.2720 H   0  0  0  0  0  0  0  0  0  0  0  0
  1 16  1  0
  1  3  2  0
  1 58  1  0
  2  3  1  0
  3  5  1  0
  4  2  2  0
  6  2  1  0
  7  9  1  0
  7  6  1  0
  8  7  1  0
 11  6  1  0
 11 10  1  0
 11 12  1  0
 12 13  1  0
 14 12  1  0
 15 12  1  0
 17 19  1  0
 17 16  1  0
 18 29  2  0
 19 24  1  0
 20 28  1  0
 20 30  1  0
 21 27  1  0
 21 23  1  0
 22 28  1  0
 23 22  1  0
 24 23  2  0
 25 26  1  0
 25 19  2  0
 26 21  2  0
 27 20  1  0
 28 18  1  0
 30 32  2  0
 31 30  1  0
 33 31  1  0
 34 43  2  0
 34 39  1  0
 35 31  1  0
 35 39  1  0
 36 35  1  0
 37 38  1  0
 37 36  1  0
 38 34  1  0
 39 40  2  0
 40 41  1  0
 42 41  2  0
 43 42  1  0
 44 18  1  0
 44 49  1  0
 44 45  1  0
 45 48  1  1
 45 46  1  0
 47 45  1  0
 49 52  1  0
 50 54  1  0
 50 49  1  0
 51 50  2  0
 54 53  1  0
 56 54  1  0
 56 57  1  0
 56 55  1  0
 58 63  1  0
 59 61  1  0
 59 62  1  0
 59 58  1  0
 60 59  1  0
 63 72  1  0
 65 70  1  0
 66 67  1  0
 66 65  1  0
 68 67  1  0
 68 77  1  0
 68 69  1  0
 70 64  1  0
 70 69  1  0
 71 64  2  0
 72 64  1  0
 72 73  1  0
 74 75  2  0
 75 94  1  0
 76 75  1  0
 76 79  1  0
 77 78  1  0
 77 74  1  0
 78 76  2  0
 79 80  1  0
 80 81  2  0
 82 85  1  0
 82 81  1  0
 83 82  2  0
 84 83  1  0
 84 79  2  0
 85 86  1  0
 86 87  1  0
 87 88  2  0
 89 88  1  0
 89 93  1  0
 90 89  2  0
 91 86  2  0
 91 90  1  0
 92 91  1  0
 94 95  1  0
 95 98  1  0
 95 97  1  0
 96 94  2  0
 99 74  1  0
 99100  1  0
101 99  1  0
M  ISO  4  16 101  17 101  64 100  72 100
M  END
>  <TORSDO>  (4) 
F 25

>  <SCORE>  (4) 
-14.695

>  <name>  (4) 
3

>  <ligand_id>  (4) 
3

>  <original_smiles>  (4) 
[H]c1c([H])c([H])c2c(c1[H])C([H])([H])C([H])([H])C([H])([H])C2([H])N([H])C(=O)C1([H])N(C(=O)C([H])(N([H])C(=O)C([H])(N([H])C([H])([H])[H])C([H])([H])[H])C(C([H])([H])[H])(C([H])([H])[H])C([H])([H])[H])C([H])([H])c2c([H])c(OC([H])([H])C([H])(N([H])C(=O)C([H])(N([H])[H])C([H])(C([H])([H])[H])[N+]([H])([H])[H])C([H])(C([H])([H])N([H])C(=O)N3C([H])([H])C([H])([H])C([H])([H])C([H])(n4nc(-c5c([H])c([H])c(Oc6c([H])c([H])c(F)c([H])c6F)c([H])c5[H])c(C(=O)N([H])[H])c4N([H])[H])C3([H])[H])[N+]([H])([H])[H])c([H])c([H])c2C1([H])[H]

>  <smiles>  (4) 
[H]c1c([H])c([H])c2c(c1[H])C([H])([H])C([H])([H])C([H])([H])C2([H])N([H])C(=O)C1([H])N(C(=O)C([H])(N([H])C(=O)C([H])(N([H])C([H])([H])[H])C([H])([H])[H])C(C([H])([H])[H])(C([H])([H])[H])C([H])([H])[H])C([H])([H])c2c([H])c(OC([H])([H])C([H])(N([H])C(=O)C([H])(N([H])[H])C([H])(C([H])([H])[H])[N+]([H])([H])[H])C([H])(C([H])([H])N([H])C(=O)N3C([H])([H])C([H])([H])C([H])([H])C([H])(n4nc(-c5c([H])c([H])c(Oc6c([H])c([H])c(F)c([H])c6F)c([H])c5[H])c(C(=O)N([H])[H])c4N([H])[H])C3([H])[H])[N+]([H])([H])[H])c([H])c([H])c2C1([H])[H]

$$$$
4:0:0
     RDKit          3D

 94101  0  0  1  0  0  0  0  0999 V2000
  -28.9420  -22.3120   20.3300 C   0  0  0  0  0  3  0  0  0  0  0  0
  -27.4490  -22.4270   20.6950 C   0  0  0  0  0  0  0  0  0  0  0  0
  -27.1460  -22.8610   21.9130 N   0  0  0  0  0  0  0  0  0  0  0  0
  -26.5760  -22.1620   19.8740 O   0  0  0  0  0  0  0  0  0  0  0  0
  -27.8880  -23.0710   22.5680 H   0  0  0  0  0  0  0  0  0  0  0  0
  -26.1830  -22.9480   22.2040 H   0  0  0  0  0  0  0  0  0  0  0  0
  -29.6530  -24.7580   20.7630 C   0  0  0  0  0  0  0  0  0  0  0  0
  -29.7410  -23.4160   20.8930 N   0  0  0  0  0  0  0  0  0  0  0  0
  -30.5070  -25.4550   21.3150 O   0  0  0  0  0  0  0  0  0  0  0  0
  -30.5350  -23.1150   21.4360 H   0  0  0  0  0  0  0  0  0  0  0  0
  -28.5260  -25.4480   19.9620 C   0  0  0  0  0  2  0  0  0  0  0  0
  -28.5960  -26.8800   20.1440 O   0  0  0  0  0  0  0  0  0  0  0  0
  -24.5540  -31.8300   23.2780 C   0  0  0  0  0  0  0  0  0  0  0  0
  -27.4070  -27.5840   20.1070 C   0  0  0  0  0  0  0  0  0  0  0  0
  -23.4370  -30.4740   21.5380 C   0  0  0  0  0  3  0  0  0  0  0  0
  -24.9750  -29.0380   20.0970 C   0  0  0  0  0  0  0  0  0  0  0  0
  -25.9580  -30.9040   21.4370 C   0  0  0  0  0  2  0  0  0  0  0  0
  -26.1020  -29.5640   20.7420 C   0  0  0  0  0  0  0  0  0  0  0  0
  -27.3200  -28.8460   20.7420 C   0  0  0  0  0  3  0  0  0  0  0  0
  -26.2620  -27.0780   19.4510 C   0  0  0  0  0  3  0  0  0  0  0  0
  -25.0510  -27.7940   19.4510 C   0  0  0  0  0  3  0  0  0  0  0  0
  -23.7100  -29.8660   20.1360 C   0  0  0  0  0  2  0  0  0  0  0  0
  -24.6670  -31.0810   22.1450 N   0  0  0  0  0  0  0  0  0  0  0  0
  -23.4480  -32.0510   23.7940 O   0  0  0  0  0  0  0  0  0  0  0  0
  -22.7810  -29.3930   22.4290 C   0  0  0  0  0  0  0  0  0  0  0  0
  -21.4610  -29.2060   22.2720 N   0  0  0  0  0  0  0  0  0  0  0  0
  -23.4590  -28.7290   23.2190 O   0  0  0  0  0  0  0  0  0  0  0  0
  -20.9760  -29.7930   21.6090 H   0  0  0  0  0  0  0  0  0  0  0  0
  -18.0860  -27.9840   22.6900 C   0  0  0  0  0  0  0  0  0  0  0  0
  -20.6440  -28.2190   22.9770 C   0  0  0  0  0  3  0  0  0  0  0  0
  -20.7410  -26.8280   22.3060 C   0  0  0  0  0  2  0  0  0  0  0  0
  -19.6390  -26.5740   21.2730 C   0  0  0  0  0  2  0  0  0  0  0  0
  -18.2600  -26.6810   21.9280 C   0  0  0  0  0  2  0  0  0  0  0  0
  -19.2070  -28.7110   23.1720 C   0  0  0  0  0  0  0  0  0  0  0  0
  -18.9920  -29.9330   23.8470 C   0  0  0  0  0  3  0  0  0  0  0  0
  -17.6890  -30.4280   24.0450 C   0  0  0  0  0  3  0  0  0  0  0  0
  -16.5830  -29.6940   23.5800 C   0  0  0  0  0  3  0  0  0  0  0  0
  -16.7810  -28.4770   22.9070 C   0  0  0  0  0  3  0  0  0  0  0  0
  -25.8020  -32.4670   23.9640 C   0  0  0  0  0  3  0  0  0  0  0  0
  -25.4770  -33.8690   24.2590 N   0  0  0  0  0  0  0  0  0  0  0  0
  -25.8310  -34.9090   23.4920 C   0  0  0  0  0  0  0  0  0  0  0  0
  -26.5360  -34.7890   22.4850 O   0  0  0  0  0  0  0  0  0  0  0  0
  -24.8610  -34.0360   25.0410 H   0  0  0  0  0  0  0  0  0  0  0  0
  -24.0990  -36.6770   23.0560 C   0  0  0  0  0  1  0  0  0  0  0  0
  -25.3230  -36.3030   23.9070 C   0  0  0  0  0  3  0  0  0  0  0  0
  -27.4190  -37.2320   24.7820 C   0  0  0  0  0  1  0  0  0  0  0  0
  -26.3500  -37.3610   23.7950 N   0  0  0  0  0  0  0  0  0  0  0  0
  -25.9330  -38.2810   23.9020 H   0  0  0  0  0  0  0  0  0  0  0  0
  -26.2440  -31.7090   25.2740 C   0  0  1  0  0  0  0  0  0  0  0  0
  -25.0900  -31.4710   26.2750 C   0  0  0  0  0  1  0  0  0  0  0  0
  -26.8560  -30.3330   24.9230 C   0  0  0  0  0  1  0  0  0  0  0  0
  -27.3490  -32.5130   25.9980 C   0  0  0  0  0  1  0  0  0  0  0  0
  -29.5200  -20.9620   20.8740 C   0  0  0  0  0  3  0  0  0  0  0  0
  -29.1280  -19.6570   20.1010 C   0  0  0  0  0  3  0  0  0  0  0  0
  -29.6090  -18.2850   20.7200 C   0  0  0  0  0  2  0  0  0  0  0  0
  -30.5690  -17.1550   20.1830 C   0  0  0  0  0  2  0  0  0  0  0  0
  -30.8500  -14.6800   20.0680 C   0  0  0  0  0  0  0  0  0  0  0  0
  -30.4870  -12.5140   18.9560 C   0  0  0  0  0  2  0  0  0  0  0  0
  -29.4920  -12.7320   17.7960 C   0  0  0  0  0  2  0  0  0  0  0  0
  -28.0400  -12.5950   18.2980 C   0  0  0  0  0  2  0  0  0  0  0  0
  -27.7670  -13.4160   19.5890 C   0  0  0  0  0  3  0  0  0  0  0  0
  -28.8820  -13.2080   20.6410 C   0  0  0  0  0  2  0  0  0  0  0  0
  -30.1700  -13.5030   19.9960 N   0  0  0  0  0  0  0  0  0  0  0  0
  -31.9820  -14.8230   19.5990 O   0  0  0  0  0  0  0  0  0  0  0  0
  -30.1410  -15.7610   20.4590 N   0  0  0  0  0  0  0  0  0  0  0  0
  -29.2060  -15.6040   20.8040 H   0  0  0  0  0  0  0  0  0  0  0  0
  -25.4160  -14.0010   20.4490 C   0  0  0  0  0  0  0  0  0  0  0  0
  -24.3690  -13.2200   20.8590 C   0  0  0  0  0  0  0  0  0  0  0  0
  -24.8270  -11.8690   20.7700 C   0  0  0  0  0  0  0  0  0  0  0  0
  -26.4450  -13.1270   20.1390 N   0  0  0  0  0  0  0  0  0  0  0  0
  -26.0980  -11.8380   20.3910 N   0  0  0  0  0  0  0  0  0  0  0  0
  -24.1100  -10.6020   20.9700 C   0  0  0  0  0  0  0  0  0  0  0  0
  -24.5570   -9.6420   21.9050 C   0  0  0  0  0  3  0  0  0  0  0  0
  -23.8420   -8.4390   22.0920 C   0  0  0  0  0  3  0  0  0  0  0  0
  -22.6670   -8.1870   21.3440 C   0  0  0  0  0  0  0  0  0  0  0  0
  -22.2390   -9.1350   20.3990 C   0  0  0  0  0  3  0  0  0  0  0  0
  -22.9530  -10.3310   20.2110 C   0  0  0  0  0  3  0  0  0  0  0  0
  -21.9220   -7.0370   21.4430 O   0  0  0  0  0  0  0  0  0  0  0  0
  -21.8510   -6.3230   22.6110 C   0  0  0  0  0  0  0  0  0  0  0  0
  -21.3380   -6.8870   23.8000 C   0  0  0  0  0  3  0  0  0  0  0  0
  -21.2190   -6.0960   24.9590 C   0  0  0  0  0  3  0  0  0  0  0  0
  -21.6010   -4.7410   24.9310 C   0  0  0  0  0  0  0  0  0  0  0  0
  -22.1060   -4.1760   23.7480 C   0  0  0  0  0  3  0  0  0  0  0  0
  -22.2290   -4.9650   22.5900 C   0  0  0  0  0  0  0  0  0  0  0  0
  -22.6970   -4.4100   21.4470 F   0  0  0  0  0  0  0  0  0  0  0  0
  -21.4770   -3.9790   26.0430 F   0  0  0  0  0  0  0  0  0  0  0  0
  -22.9900  -13.6910   21.2200 C   0  0  0  0  0  0  0  0  0  0  0  0
  -22.3100  -12.9700   22.1060 N   0  0  0  0  0  0  0  0  0  0  0  0
  -22.5260  -14.7310   20.7560 O   0  0  0  0  0  0  0  0  0  0  0  0
  -22.6950  -12.1250   22.5010 H   0  0  0  0  0  0  0  0  0  0  0  0
  -21.3890  -13.2680   22.3940 H   0  0  0  0  0  0  0  0  0  0  0  0
  -25.5750  -15.3740   20.2910 N   0  0  0  0  0  0  0  0  0  0  0  0
  -24.8230  -16.0330   20.4610 H   0  0  0  0  0  0  0  0  0  0  0  0
  -26.4040  -15.8130   19.9100 H   0  0  0  0  0  0  0  0  0  0  0  0
  1  2  1  0
  1 53  1  0
  1  8  1  0
  2  3  1  0
  3  6  1  0
  3  5  1  0
  4  2  2  0
  7  8  1  0
  7  9  2  0
  8 10  1  0
 11 12  1  0
 11  7  1  0
 13 24  2  0
 14 12  1  0
 14 19  1  0
 15 23  1  0
 15 25  1  0
 16 22  1  0
 16 18  1  0
 17 23  1  0
 18 17  1  0
 19 18  2  0
 20 14  2  0
 21 20  1  0
 21 16  2  0
 22 15  1  0
 23 13  1  0
 25 27  2  0
 26 25  1  0
 28 26  1  0
 29 38  2  0
 29 34  1  0
 30 26  1  0
 30 34  1  0
 31 30  1  0
 32 33  1  0
 32 31  1  0
 33 29  1  0
 34 35  2  0
 35 36  1  0
 37 36  2  0
 38 37  1  0
 39 13  1  0
 39 40  1  0
 39 49  1  0
 40 43  1  0
 41 45  1  0
 41 40  1  0
 42 41  2  0
 45 44  1  0
 47 48  1  0
 47 45  1  0
 47 46  1  0
 49 52  1  1
 49 50  1  0
 51 49  1  0
 54 55  1  0
 54 53  2  0
 56 65  1  0
 56 55  1  0
 57 65  1  0
 58 63  1  0
 59 60  1  0
 59 58  1  0
 61 60  1  0
 61 70  1  0
 61 62  1  0
 63 57  1  0
 63 62  1  0
 64 57  2  0
 65 66  1  0
 67 68  2  0
 68 87  1  0
 69 68  1  0
 69 72  1  0
 70 71  1  0
 70 67  1  0
 71 69  2  0
 72 73  1  0
 73 74  2  0
 75 78  1  0
 75 74  1  0
 76 75  2  0
 77 76  1  0
 77 72  2  0
 78 79  1  0
 79 80  1  0
 80 81  2  0
 82 81  1  0
 82 86  1  0
 83 82  2  0
 84 79  2  0
 84 83  1  0
 85 84  1  0
 87 88  1  0
 88 91  1  0
 88 90  1  0
 89 87  2  0
 92 67  1  0
 92 93  1  0
 94 92  1  0
M  ISO  4  11 101  12 101  57 100  65 100
M  END
>  <TORSDO>  (5) 
F 23

>  <SCORE>  (5) 
-12.721

>  <name>  (5) 
4

>  <ligand_id>  (5) 
4

>  <original_smiles>  (5) 
[H]c1c([H])c([H])c2c(c1[H])C([H])([H])C([H])([H])C([H])([H])C2([H])N([H])C(=O)C1([H])N(C(=O)C([H])(N([H])C(=O)C([H])(N([H])C([H])([H])[H])C([H])([H])[H])C(C([H])([H])[H])(C([H])([H])[H])C([H])([H])[H])C([H])([H])c2c([H])c(OC([H])([H])C(=O)N([H])C([H])(C(=O)N([H])[H])C([H])([H])C([H])([H])C([H])([H])C([H])([H])N([H])C(=O)N3C([H])([H])C([H])([H])C([H])([H])C([H])(n4nc(-c5c([H])c([H])c(Oc6c([H])c([H])c(F)c([H])c6F)c([H])c5[H])c(C(=O)N([H])[H])c4N([H])[H])C3([H])[H])c([H])c([H])c2C1([H])[H]

>  <smiles>  (5) 
[H]c1c([H])c([H])c2c(c1[H])C([H])([H])C([H])([H])C([H])([H])C2([H])N([H])C(=O)C1([H])N(C(=O)C([H])(N([H])C(=O)C([H])(N([H])C([H])([H])[H])C([H])([H])[H])C(C([H])([H])[H])(C([H])([H])[H])C([H])([H])[H])C([H])([H])c2c([H])c(OC([H])([H])C(=O)N([H])C([H])(C(=O)N([H])[H])C([H])([H])C([H])([H])C([H])([H])C([H])([H])N([H])C(=O)N3C([H])([H])C([H])([H])C([H])([H])C([H])(n4nc(-c5c([H])c([H])c(Oc6c([H])c([H])c(F)c([H])c6F)c([H])c5[H])c(C(=O)N([H])[H])c4N([H])[H])C3([H])[H])c([H])c([H])c2C1([H])[H]

$$$$
5:0:0
     RDKit          3D

 93100  0  0  1  0  0  0  0  0999 V2000
  -29.7190  -19.0070   20.8140 C   0  0  0  0  0  0  0  0  0  0  0  0
  -28.6510  -19.8210   20.4420 N   0  0  0  0  0  0  0  0  0  0  0  0
  -30.5770  -19.4530   21.5780 O   0  0  0  0  0  0  0  0  0  0  0  0
  -27.9010  -19.2350   20.1060 H   0  0  0  0  0  0  0  0  0  0  0  0
  -27.2390  -21.2950   18.9910 C   0  0  0  0  0  1  0  0  0  0  0  0
  -28.5340  -21.2400   19.8580 C   0  0  0  0  0  3  0  0  0  0  0  0
  -28.2000  -23.8570   20.2030 C   0  0  0  0  0  3  0  0  0  0  0  0
  -28.5640  -22.6010   20.6870 C   0  0  0  0  0  3  0  0  0  0  0  0
  -28.1060  -25.2490   20.9400 C   0  0  0  0  0  2  0  0  0  0  0  0
  -28.2680  -26.5340   20.1840 O   0  0  0  0  0  0  0  0  0  0  0  0
  -24.5830  -31.9770   23.2590 C   0  0  0  0  0  0  0  0  0  0  0  0
  -27.1760  -27.4220   20.1700 C   0  0  0  0  0  0  0  0  0  0  0  0
  -23.3760  -30.5800   21.6210 C   0  0  0  0  0  3  0  0  0  0  0  0
  -24.8190  -29.0450   20.1690 C   0  0  0  0  0  0  0  0  0  0  0  0
  -25.9120  -30.9140   21.4130 C   0  0  0  0  0  2  0  0  0  0  0  0
  -25.9920  -29.5360   20.7600 C   0  0  0  0  0  0  0  0  0  0  0  0
  -27.1800  -28.7340   20.7470 C   0  0  0  0  0  3  0  0  0  0  0  0
  -25.9860  -26.9880   19.5570 C   0  0  0  0  0  3  0  0  0  0  0  0
  -24.8210  -27.7780   19.5610 C   0  0  0  0  0  3  0  0  0  0  0  0
  -23.5800  -29.9160   20.2350 C   0  0  0  0  0  2  0  0  0  0  0  0
  -24.6460  -31.1730   22.1580 N   0  0  0  0  0  0  0  0  0  0  0  0
  -23.5000  -32.2500   23.7980 O   0  0  0  0  0  0  0  0  0  0  0  0
  -22.7280  -29.5570   22.5840 C   0  0  0  0  0  0  0  0  0  0  0  0
  -21.4090  -29.3410   22.4480 N   0  0  0  0  0  0  0  0  0  0  0  0
  -23.4190  -28.9610   23.4160 O   0  0  0  0  0  0  0  0  0  0  0  0
  -20.9170  -29.8770   21.7460 H   0  0  0  0  0  0  0  0  0  0  0  0
  -18.0600  -28.0410   22.9060 C   0  0  0  0  0  0  0  0  0  0  0  0
  -20.6080  -28.3890   23.2150 C   0  0  0  0  0  3  0  0  0  0  0  0
  -20.7630  -26.9550   22.6570 C   0  0  0  0  0  2  0  0  0  0  0  0
  -19.6850  -26.5820   21.6320 C   0  0  0  0  0  2  0  0  0  0  0  0
  -18.2920  -26.6890   22.2530 C   0  0  0  0  0  2  0  0  0  0  0  0
  -19.1500  -28.8430   23.3430 C   0  0  0  0  0  0  0  0  0  0  0  0
  -18.8770  -30.1040   23.9140 C   0  0  0  0  0  3  0  0  0  0  0  0
  -17.5530  -30.5670   24.0550 C   0  0  0  0  0  3  0  0  0  0  0  0
  -16.4820  -29.7600   23.6340 C   0  0  0  0  0  3  0  0  0  0  0  0
  -16.7350  -28.5000   23.0640 C   0  0  0  0  0  3  0  0  0  0  0  0
  -25.8680  -32.6170   23.8720 C   0  0  0  0  0  3  0  0  0  0  0  0
  -25.5530  -34.0150   24.1990 N   0  0  0  0  0  0  0  0  0  0  0  0
  -25.8980  -35.0710   23.4470 C   0  0  0  0  0  0  0  0  0  0  0  0
  -26.5800  -34.9660   22.4230 O   0  0  0  0  0  0  0  0  0  0  0  0
  -24.9490  -34.1680   24.9930 H   0  0  0  0  0  0  0  0  0  0  0  0
  -24.1950  -36.8790   23.0540 C   0  0  0  0  0  1  0  0  0  0  0  0
  -25.4080  -36.4610   23.9010 C   0  0  0  0  0  3  0  0  0  0  0  0
  -27.5230  -37.3250   24.7980 C   0  0  0  0  0  1  0  0  0  0  0  0
  -26.4510  -37.5060   23.8240 N   0  0  0  0  0  0  0  0  0  0  0  0
  -26.0530  -38.4310   23.9560 H   0  0  0  0  0  0  0  0  0  0  0  0
  -26.3890  -31.8560   25.1500 C   0  0  1  0  0  0  0  0  0  0  0  0
  -25.2970  -31.6190   26.2210 C   0  0  0  0  0  1  0  0  0  0  0  0
  -26.9770  -30.4790   24.7630 C   0  0  0  0  0  1  0  0  0  0  0  0
  -27.5390  -32.6590   25.7990 C   0  0  0  0  0  1  0  0  0  0  0  0
  -29.9470  -17.4890   20.2390 C   0  0  0  0  0  3  0  0  0  0  0  0
  -30.7560  -15.0720   21.1640 C   0  0  0  0  0  0  0  0  0  0  0  0
  -30.7750  -12.6800   20.3610 C   0  0  0  0  0  2  0  0  0  0  0  0
  -30.0160  -12.4930   19.0190 C   0  0  0  0  0  2  0  0  0  0  0  0
  -28.4910  -12.4430   19.2490 C   0  0  0  0  0  2  0  0  0  0  0  0
  -27.9490  -13.3940   20.3620 C   0  0  0  0  0  3  0  0  0  0  0  0
  -28.8480  -13.4490   21.5970 C   0  0  0  0  0  2  0  0  0  0  0  0
  -30.1820  -13.8130   21.1110 N   0  0  0  0  0  0  0  0  0  0  0  0
  -31.9720  -15.1580   20.9470 O   0  0  0  0  0  0  0  0  0  0  0  0
  -29.9460  -16.2160   21.1570 N   0  0  0  0  0  0  0  0  0  0  0  0
  -29.9390  -16.6030   22.1150 H   0  0  0  0  0  0  0  0  0  0  0  0
  -25.4930  -13.9960   20.7640 C   0  0  0  0  0  0  0  0  0  0  0  0
  -24.3970  -13.2140   21.0190 C   0  0  0  0  0  0  0  0  0  0  0  0
  -24.8640  -11.8660   21.0730 C   0  0  0  0  0  0  0  0  0  0  0  0
  -26.5620  -13.1110   20.6940 N   0  0  0  0  0  0  0  0  0  0  0  0
  -26.1840  -11.8330   20.9320 N   0  0  0  0  0  0  0  0  0  0  0  0
  -24.1320  -10.6080   21.1870 C   0  0  0  0  0  0  0  0  0  0  0  0
  -24.4510   -9.6620   22.1870 C   0  0  0  0  0  3  0  0  0  0  0  0
  -23.7220   -8.4620   22.2930 C   0  0  0  0  0  3  0  0  0  0  0  0
  -22.6600   -8.2000   21.3980 C   0  0  0  0  0  0  0  0  0  0  0  0
  -22.3650   -9.1270   20.3840 C   0  0  0  0  0  3  0  0  0  0  0  0
  -23.0940  -10.3260   20.2740 C   0  0  0  0  0  3  0  0  0  0  0  0
  -21.9150   -7.0430   21.4060 O   0  0  0  0  0  0  0  0  0  0  0  0
  -21.7180   -6.3270   22.5570 C   0  0  0  0  0  0  0  0  0  0  0  0
  -21.0960   -6.8980   23.6900 C   0  0  0  0  0  3  0  0  0  0  0  0
  -20.8480   -6.1080   24.8310 C   0  0  0  0  0  3  0  0  0  0  0  0
  -21.2120   -4.7460   24.8330 C   0  0  0  0  0  0  0  0  0  0  0  0
  -21.8270   -4.1750   23.7050 C   0  0  0  0  0  3  0  0  0  0  0  0
  -22.0770   -4.9640   22.5690 C   0  0  0  0  0  0  0  0  0  0  0  0
  -22.6440   -4.4040   21.4710 F   0  0  0  0  0  0  0  0  0  0  0  0
  -20.9630   -3.9820   25.9220 F   0  0  0  0  0  0  0  0  0  0  0  0
  -22.9800  -13.6830   21.1040 C   0  0  0  0  0  0  0  0  0  0  0  0
  -22.1560  -12.9980   21.8930 N   0  0  0  0  0  0  0  0  0  0  0  0
  -22.5970  -14.6850   20.5090 O   0  0  0  0  0  0  0  0  0  0  0  0
  -22.4620  -12.1800   22.4010 H   0  0  0  0  0  0  0  0  0  0  0  0
  -21.1970  -13.3010   21.9690 H   0  0  0  0  0  0  0  0  0  0  0  0
  -25.6660  -15.3620   20.5780 N   0  0  0  0  0  0  0  0  0  0  0  0
  -24.8980  -16.0240   20.6120 H   0  0  0  0  0  0  0  0  0  0  0  0
  -26.5580  -15.8200   20.4180 H   0  0  0  0  0  0  0  0  0  0  0  0
  -29.7230  -15.8840   18.1310 C   0  0  0  0  0  1  0  0  0  0  0  0
  -30.9120  -18.0110   17.8960 C   0  0  0  0  0  1  0  0  0  0  0  0
  -28.4260  -17.9380   18.0940 C   0  0  0  0  0  1  0  0  0  0  0  0
  -29.7350  -17.3280   18.6440 C   0  0  2  0  0  0  0  0  0  0  0  0
  1  3  2  0
  2  1  1  0
  4  2  1  0
  6  5  1  0
  6  2  1  0
  6  8  1  0
  7  8  2  0
  7  9  1  0
 10  9  1  0
 11 22  2  0
 12 10  1  0
 12 17  1  0
 13 21  1  0
 13 23  1  0
 14 20  1  0
 14 16  1  0
 15 21  1  0
 16 15  1  0
 17 16  2  0
 18 19  1  0
 18 12  2  0
 19 14  2  0
 20 13  1  0
 21 11  1  0
 23 25  2  0
 24 23  1  0
 26 24  1  0
 27 36  2  0
 27 32  1  0
 28 24  1  0
 28 32  1  0
 29 28  1  0
 30 31  1  0
 30 29  1  0
 31 27  1  0
 32 33  2  0
 33 34  1  0
 35 34  2  0
 36 35  1  0
 37 11  1  0
 37 38  1  0
 37 47  1  0
 38 41  1  0
 39 43  1  0
 39 38  1  0
 40 39  2  0
 43 42  1  0
 45 43  1  0
 45 46  1  0
 45 44  1  0
 47 50  1  1
 47 48  1  0
 49 47  1  0
 51  1  1  0
 51 60  1  0
 53 58  1  0
 54 55  1  0
 54 53  1  0
 56 55  1  0
 56 65  1  0
 56 57  1  0
 58 52  1  0
 58 57  1  0
 59 52  2  0
 60 52  1  0
 60 61  1  0
 62 63  2  0
 63 64  1  0
 63 82  1  0
 64 67  1  0
 65 62  1  0
 65 66  1  0
 66 64  2  0
 67 68  1  0
 68 69  2  0
 70 73  1  0
 70 69  1  0
 71 70  2  0
 72 71  1  0
 72 67  2  0
 73 74  1  0
 74 79  2  0
 74 75  1  0
 75 76  2  0
 76 77  1  0
 77 81  1  0
 78 77  2  0
 79 78  1  0
 80 79  1  0
 82 83  1  0
 83 86  1  0
 83 85  1  0
 84 82  2  0
 87 88  1  0
 87 62  1  0
 89 87  1  0
 93 90  1  1
 91 93  1  0
 92 93  1  0
 93 51  1  0
M  ISO  4   9 101  10 101  52 100  60 100
M  END
>  <TORSDO>  (6) 
F 21

>  <SCORE>  (6) 
-12.391

>  <name>  (6) 
5

>  <ligand_id>  (6) 
5

>  <original_smiles>  (6) 
[H]C(=C([H])C([H])(N([H])C(=O)C([H])(N([H])C(=O)N1C([H])([H])C([H])([H])C([H])([H])C([H])(n2nc(-c3c([H])c([H])c(Oc4c([H])c([H])c(F)c([H])c4F)c([H])c3[H])c(C(=O)N([H])[H])c2N([H])[H])C1([H])[H])C(C([H])([H])[H])(C([H])([H])[H])C([H])([H])[H])C([H])([H])[H])C([H])([H])Oc1c([H])c([H])c2c(c1[H])C([H])([H])N(C(=O)C([H])(N([H])C(=O)C([H])(N([H])C([H])([H])[H])C([H])([H])[H])C(C([H])([H])[H])(C([H])([H])[H])C([H])([H])[H])C([H])(C(=O)N([H])C1([H])c3c([H])c([H])c([H])c([H])c3C([H])([H])C([H])([H])C1([H])[H])C2([H])[H]

>  <smiles>  (6) 
[H]C(=C([H])C([H])(N([H])C(=O)C([H])(N([H])C(=O)N1C([H])([H])C([H])([H])C([H])([H])C([H])(n2nc(-c3c([H])c([H])c(Oc4c([H])c([H])c(F)c([H])c4F)c([H])c3[H])c(C(=O)N([H])[H])c2N([H])[H])C1([H])[H])C(C([H])([H])[H])(C([H])([H])[H])C([H])([H])[H])C([H])([H])[H])C([H])([H])Oc1c([H])c([H])c2c(c1[H])C([H])([H])N(C(=O)C([H])(N([H])C(=O)C([H])(N([H])C([H])([H])[H])C([H])([H])[H])C(C([H])([H])[H])(C([H])([H])[H])C([H])([H])[H])C([H])(C(=O)N([H])C1([H])c3c([H])c([H])c([H])c([H])c3C([H])([H])C([H])([H])C1([H])[H])C2([H])[H]

$$$$
6:0:0
     RDKit          3D

 90 98  0  0  1  0  0  0  0  0999 V2000
  -29.3240  -22.7180   19.7760 C   0  0  0  0  0  3  0  0  0  0  0  0
  -29.7640  -19.8020   19.5670 C   0  0  0  0  0  0  0  0  0  0  0  0
  -29.3620  -21.0910   20.1960 N   0  0  0  0  0  0  0  0  0  0  0  0
  -29.9210  -19.8460   18.3470 O   0  0  0  0  0  0  0  0  0  0  0  0
  -29.1840  -20.9690   21.1840 H   0  0  0  0  0  0  0  0  0  0  0  0
  -30.7140  -15.2800   19.6470 C   0  0  0  0  0  0  0  0  0  0  0  0
  -30.5610  -12.8830   18.6050 C   0  0  0  0  0  2  0  0  0  0  0  0
  -29.4570  -12.7220   17.5240 C   0  0  0  0  0  2  0  0  0  0  0  0
  -28.0810  -12.4350   18.1540 C   0  0  0  0  0  2  0  0  0  0  0  0
  -27.8240  -13.3290   19.3910 C   0  0  0  0  0  3  0  0  0  0  0  0
  -29.0340  -13.3360   20.3410 C   0  0  0  0  0  2  0  0  0  0  0  0
  -30.1490  -13.9580   19.5890 N   0  0  0  0  0  0  0  0  0  0  0  0
  -31.8480  -15.3140   19.1410 O   0  0  0  0  0  0  0  0  0  0  0  0
  -29.7200  -17.4680   22.4070 C   0  0  0  0  0  2  0  0  0  0  0  0
  -30.6700  -18.3920   21.6640 C   0  0  0  0  0  2  0  0  0  0  0  0
  -29.5900  -16.2320   21.4930 C   0  0  0  0  0  2  0  0  0  0  0  0
  -30.1290  -18.2240   20.2570 C   0  0  0  0  0  3  0  0  0  0  0  0
  -30.0000  -16.5350   20.0810 N   0  0  0  0  0  0  0  0  0  0  0  0
  -25.6250  -13.8910   20.5530 C   0  0  0  0  0  0  0  0  0  0  0  0
  -24.6000  -13.1160   21.0190 C   0  0  0  0  0  0  0  0  0  0  0  0
  -24.9980  -11.7600   20.7990 C   0  0  0  0  0  0  0  0  0  0  0  0
  -26.5770  -13.0090   20.0710 N   0  0  0  0  0  0  0  0  0  0  0  0
  -26.2220  -11.7160   20.2840 N   0  0  0  0  0  0  0  0  0  0  0  0
  -24.2560  -10.5080   20.9940 C   0  0  0  0  0  0  0  0  0  0  0  0
  -24.7300   -9.4930   21.8530 C   0  0  0  0  0  3  0  0  0  0  0  0
  -23.9880   -8.3070   22.0420 C   0  0  0  0  0  3  0  0  0  0  0  0
  -22.7540   -8.1300   21.3710 C   0  0  0  0  0  0  0  0  0  0  0  0
  -22.2970   -9.1320   20.4990 C   0  0  0  0  0  3  0  0  0  0  0  0
  -23.0400  -10.3090   20.3090 C   0  0  0  0  0  3  0  0  0  0  0  0
  -21.9760   -7.0010   21.4720 O   0  0  0  0  0  0  0  0  0  0  0  0
  -21.9320   -6.2600   22.6260 C   0  0  0  0  0  0  0  0  0  0  0  0
  -21.5330   -6.8230   23.8590 C   0  0  0  0  0  3  0  0  0  0  0  0
  -21.4340   -6.0090   25.0050 C   0  0  0  0  0  3  0  0  0  0  0  0
  -21.7220   -4.6330   24.9190 C   0  0  0  0  0  0  0  0  0  0  0  0
  -22.1130   -4.0700   23.6910 C   0  0  0  0  0  3  0  0  0  0  0  0
  -22.2140   -4.8820   22.5480 C   0  0  0  0  0  0  0  0  0  0  0  0
  -22.5700   -4.3300   21.3630 F   0  0  0  0  0  0  0  0  0  0  0  0
  -21.6190   -3.8490   26.0180 F   0  0  0  0  0  0  0  0  0  0  0  0
  -23.2840  -13.6070   21.5450 C   0  0  0  0  0  0  0  0  0  0  0  0
  -22.6830  -12.8760   22.4760 N   0  0  0  0  0  0  0  0  0  0  0  0
  -22.8020  -14.6740   21.1650 O   0  0  0  0  0  0  0  0  0  0  0  0
  -23.0900  -12.0120   22.8060 H   0  0  0  0  0  0  0  0  0  0  0  0
  -21.8040  -13.1830   22.8670 H   0  0  0  0  0  0  0  0  0  0  0  0
  -25.8180  -15.2660   20.4690 N   0  0  0  0  0  0  0  0  0  0  0  0
  -25.1090  -15.9320   20.7540 H   0  0  0  0  0  0  0  0  0  0  0  0
  -26.6230  -15.7060   20.0410 H   0  0  0  0  0  0  0  0  0  0  0  0
  -31.6090  -23.2470   18.8070 C   0  0  0  0  0  2  0  0  0  0  0  0
  -30.7760  -23.1470   19.8560 C   0  0  0  0  0  3  0  0  0  0  0  0
  -28.3680  -24.1460   20.3570 C   0  0  0  0  0  2  0  0  0  0  0  0
  -28.5780  -25.7930   20.3500 O   0  0  0  0  0  0  0  0  0  0  0  0
  -24.9360  -31.7680   23.2710 C   0  0  0  0  0  0  0  0  0  0  0  0
  -27.5500  -26.8780   20.3170 C   0  0  0  0  0  0  0  0  0  0  0  0
  -23.7790  -30.3820   21.5970 C   0  0  0  0  0  3  0  0  0  0  0  0
  -25.2570  -28.7690   20.2150 C   0  0  0  0  0  0  0  0  0  0  0  0
  -26.3500  -30.5800   21.5180 C   0  0  0  0  0  2  0  0  0  0  0  0
  -26.4310  -29.1700   20.8640 C   0  0  0  0  0  0  0  0  0  0  0  0
  -27.5740  -28.2490   20.8840 C   0  0  0  0  0  3  0  0  0  0  0  0
  -26.3440  -26.6290   19.6260 C   0  0  0  0  0  3  0  0  0  0  0  0
  -25.2390  -27.5180   19.5760 C   0  0  0  0  0  3  0  0  0  0  0  0
  -24.0420  -29.6960   20.2280 C   0  0  0  0  0  2  0  0  0  0  0  0
  -25.0410  -30.9370   22.1830 N   0  0  0  0  0  0  0  0  0  0  0  0
  -23.8340  -32.0620   23.7620 O   0  0  0  0  0  0  0  0  0  0  0  0
  -23.0520  -29.3900   22.5420 C   0  0  0  0  0  0  0  0  0  0  0  0
  -21.7200  -29.2530   22.3980 N   0  0  0  0  0  0  0  0  0  0  0  0
  -23.6940  -28.7420   23.3720 O   0  0  0  0  0  0  0  0  0  0  0  0
  -21.2570  -29.8260   21.7080 H   0  0  0  0  0  0  0  0  0  0  0  0
  -18.3100  -28.0920   22.8380 C   0  0  0  0  0  0  0  0  0  0  0  0
  -20.8700  -28.3210   23.1460 C   0  0  0  0  0  3  0  0  0  0  0  0
  -20.9600  -26.8910   22.5610 C   0  0  0  0  0  2  0  0  0  0  0  0
  -19.8710  -26.5940   21.5260 C   0  0  0  0  0  2  0  0  0  0  0  0
  -18.4810  -26.7480   22.1490 C   0  0  0  0  0  2  0  0  0  0  0  0
  -19.4330  -28.8370   23.2920 C   0  0  0  0  0  0  0  0  0  0  0  0
  -19.2170  -30.0940   23.8990 C   0  0  0  0  0  3  0  0  0  0  0  0
  -17.9150  -30.6050   24.0550 C   0  0  0  0  0  3  0  0  0  0  0  0
  -16.8090  -29.8570   23.6150 C   0  0  0  0  0  3  0  0  0  0  0  0
  -17.0080  -28.6020   23.0130 C   0  0  0  0  0  3  0  0  0  0  0  0
  -26.1920  -32.4030   23.9400 C   0  0  0  0  0  3  0  0  0  0  0  0
  -26.6820  -31.6080   25.2130 C   0  0  1  0  0  0  0  0  0  0  0  0
  -25.5650  -31.3360   26.2470 C   0  0  0  0  0  1  0  0  0  0  0  0
  -27.2900  -30.2440   24.8140 C   0  0  0  0  0  1  0  0  0  0  0  0
  -27.8060  -32.3980   25.9240 C   0  0  0  0  0  1  0  0  0  0  0  0
  -25.8590  -33.7900   24.3080 N   0  0  0  0  0  0  0  0  0  0  0  0
  -26.2100  -34.8770   23.6060 C   0  0  0  0  0  0  0  0  0  0  0  0
  -26.9110  -34.8160   22.5940 O   0  0  0  0  0  0  0  0  0  0  0  0
  -25.2390  -33.9110   25.0950 H   0  0  0  0  0  0  0  0  0  0  0  0
  -24.4840  -36.6840   23.2860 C   0  0  0  0  0  1  0  0  0  0  0  0
  -25.7090  -36.2480   24.1070 C   0  0  0  0  0  3  0  0  0  0  0  0
  -27.8200  -37.1120   25.0170 C   0  0  0  0  0  1  0  0  0  0  0  0
  -26.7390  -37.3090   24.0550 N   0  0  0  0  0  0  0  0  0  0  0  0
  -26.3260  -38.2220   24.2250 H   0  0  0  0  0  0  0  0  0  0  0  0
  1 48  1  0
  1  3  1  0
  1 49  1  0
  2  3  1  0
  3  5  1  0
  4  2  2  0
  6 18  1  0
  7 12  1  0
  8  9  1  0
  8  7  1  0
 10  9  1  0
 10 22  1  0
 10 11  1  0
 12  6  1  0
 12 11  1  0
 13  6  2  0
 15 14  1  0
 16 14  1  0
 17  2  1  0
 17 15  1  0
 18 17  1  0
 18 16  1  0
 19 20  2  0
 20 39  1  0
 21 24  1  0
 21 20  1  0
 22 23  1  0
 22 19  1  0
 23 21  2  0
 24 25  1  0
 25 26  2  0
 27 30  1  0
 27 26  1  0
 28 27  2  0
 29 28  1  0
 29 24  2  0
 30 31  1  0
 31 32  1  0
 32 33  2  0
 34 33  1  0
 34 38  1  0
 35 34  2  0
 36 31  2  0
 36 35  1  0
 37 36  1  0
 39 40  1  0
 40 42  1  0
 40 43  1  0
 41 39  2  0
 44 19  1  0
 44 45  1  0
 46 44  1  0
 47 48  2  0
 50 49  1  0
 51 62  2  0
 52 50  1  0
 52 57  1  0
 53 61  1  0
 53 63  1  0
 54 60  1  0
 54 56  1  0
 55 61  1  0
 56 57  2  0
 56 55  1  0
 58 52  2  0
 59 58  1  0
 59 54  2  0
 60 53  1  0
 61 51  1  0
 63 65  2  0
 64 63  1  0
 66 64  1  0
 67 76  2  0
 67 72  1  0
 68 64  1  0
 68 72  1  0
 69 68  1  0
 70 71  1  0
 70 69  1  0
 71 67  1  0
 72 73  2  0
 73 74  1  0
 75 74  2  0
 76 75  1  0
 77 51  1  0
 77 82  1  0
 77 78  1  0
 78 81  1  1
 78 79  1  0
 80 78  1  0
 82 85  1  0
 83 87  1  0
 83 82  1  0
 84 83  2  0
 87 86  1  0
 89 87  1  0
 89 90  1  0
 89 88  1  0
M  ISO  4   6 100  18 100  49 101  50 101
M  END
>  <TORSDO>  (7) 
F 19

>  <SCORE>  (7) 
-13.823

>  <name>  (7) 
6

>  <ligand_id>  (7) 
6

>  <original_smiles>  (7) 
[H]C([H])=C([H])C([H])(N([H])C(=O)C1([H])N(C(=O)N2C([H])([H])C([H])([H])C([H])([H])C([H])(n3nc(-c4c([H])c([H])c(Oc5c([H])c([H])c(F)c([H])c5F)c([H])c4[H])c(C(=O)N([H])[H])c3N([H])[H])C2([H])[H])C([H])([H])C([H])([H])C1([H])[H])C([H])([H])Oc1c([H])c([H])c2c(c1[H])C([H])([H])N(C(=O)C([H])(N([H])C(=O)C([H])(N([H])C([H])([H])[H])C([H])([H])[H])C(C([H])([H])[H])(C([H])([H])[H])C([H])([H])[H])C([H])(C(=O)N([H])C1([H])c3c([H])c([H])c([H])c([H])c3C([H])([H])C([H])([H])C1([H])[H])C2([H])[H]

>  <smiles>  (7) 
[H]C([H])=C([H])C([H])(N([H])C(=O)C1([H])N(C(=O)N2C([H])([H])C([H])([H])C([H])([H])C([H])(n3nc(-c4c([H])c([H])c(Oc5c([H])c([H])c(F)c([H])c5F)c([H])c4[H])c(C(=O)N([H])[H])c3N([H])[H])C2([H])[H])C([H])([H])C([H])([H])C1([H])[H])C([H])([H])Oc1c([H])c([H])c2c(c1[H])C([H])([H])N(C(=O)C([H])(N([H])C(=O)C([H])(N([H])C([H])([H])[H])C([H])([H])[H])C(C([H])([H])[H])(C([H])([H])[H])C([H])([H])[H])C([H])(C(=O)N([H])C1([H])c3c([H])c([H])c([H])c([H])c3C([H])([H])C([H])([H])C1([H])[H])C2([H])[H]

$$$$
7:0:0
     RDKit          3D

 96103  0  0  1  0  0  0  0  0999 V2000
  -28.7630  -20.3380   20.5050 C   0  0  0  0  0  3  0  0  0  0  0  0
  -28.1540  -20.1840   19.0840 C   0  0  0  0  0  0  0  0  0  0  0  0
  -26.8310  -20.1040   18.9750 N   0  0  0  0  0  0  0  0  0  0  0  0
  -28.8650  -20.1260   18.0790 O   0  0  0  0  0  0  0  0  0  0  0  0
  -26.2410  -20.1090   19.7950 H   0  0  0  0  0  0  0  0  0  0  0  0
  -26.4020  -19.9760   18.0690 H   0  0  0  0  0  0  0  0  0  0  0  0
  -29.5170  -17.8520   20.6190 C   0  0  0  0  0  0  0  0  0  0  0  0
  -29.5160  -19.1520   21.0050 N   0  0  0  0  0  0  0  0  0  0  0  0
  -28.7530  -17.3900   19.7690 O   0  0  0  0  0  0  0  0  0  0  0  0
  -30.2130  -19.3980   21.6950 H   0  0  0  0  0  0  0  0  0  0  0  0
  -30.4660  -16.8830   21.3590 C   0  0  0  0  0  2  0  0  0  0  0  0
  -30.7100  -14.5030   20.5460 C   0  0  0  0  0  0  0  0  0  0  0  0
  -30.4200  -12.3650   19.3350 C   0  0  0  0  0  2  0  0  0  0  0  0
  -29.4870  -12.5810   18.1260 C   0  0  0  0  0  2  0  0  0  0  0  0
  -28.0100  -12.4320   18.5400 C   0  0  0  0  0  2  0  0  0  0  0  0
  -27.6630  -13.2520   19.8120 C   0  0  0  0  0  3  0  0  0  0  0  0
  -28.7050  -13.0120   20.9260 C   0  0  0  0  0  2  0  0  0  0  0  0
  -30.0360  -13.3300   20.3800 N   0  0  0  0  0  0  0  0  0  0  0  0
  -31.8110  -14.7160   20.0320 O   0  0  0  0  0  0  0  0  0  0  0  0
  -30.0630  -15.4650   21.2290 N   0  0  0  0  0  0  0  0  0  0  0  0
  -29.1520  -15.2250   21.5880 H   0  0  0  0  0  0  0  0  0  0  0  0
  -25.2510  -13.8520   20.4750 C   0  0  0  0  0  0  0  0  0  0  0  0
  -24.1780  -13.0780   20.8280 C   0  0  0  0  0  0  0  0  0  0  0  0
  -24.6460  -11.7290   20.8150 C   0  0  0  0  0  0  0  0  0  0  0  0
  -26.3020  -12.9740   20.2690 N   0  0  0  0  0  0  0  0  0  0  0  0
  -25.9410  -11.6910   20.5290 N   0  0  0  0  0  0  0  0  0  0  0  0
  -23.9190  -10.4650   21.0050 C   0  0  0  0  0  0  0  0  0  0  0  0
  -24.3320   -9.5140   21.9630 C   0  0  0  0  0  3  0  0  0  0  0  0
  -23.6100   -8.3130   22.1390 C   0  0  0  0  0  3  0  0  0  0  0  0
  -22.4620   -8.0550   21.3550 C   0  0  0  0  0  0  0  0  0  0  0  0
  -22.0660   -8.9950   20.3890 C   0  0  0  0  0  3  0  0  0  0  0  0
  -22.7880  -10.1870   20.2120 C   0  0  0  0  0  3  0  0  0  0  0  0
  -21.7140   -6.9060   21.4390 O   0  0  0  0  0  0  0  0  0  0  0  0
  -21.6250   -6.1870   22.6030 C   0  0  0  0  0  0  0  0  0  0  0  0
  -21.1320   -6.7600   23.7950 C   0  0  0  0  0  3  0  0  0  0  0  0
  -20.9900   -5.9650   24.9510 C   0  0  0  0  0  3  0  0  0  0  0  0
  -21.3360   -4.6020   24.9150 C   0  0  0  0  0  0  0  0  0  0  0  0
  -21.8250   -4.0290   23.7280 C   0  0  0  0  0  3  0  0  0  0  0  0
  -21.9660   -4.8200   22.5740 C   0  0  0  0  0  0  0  0  0  0  0  0
  -22.4170   -4.2590   21.4260 F   0  0  0  0  0  0  0  0  0  0  0  0
  -21.1950   -3.8370   26.0220 F   0  0  0  0  0  0  0  0  0  0  0  0
  -22.7760  -13.5520   21.0770 C   0  0  0  0  0  0  0  0  0  0  0  0
  -22.0360  -12.8540   21.9320 N   0  0  0  0  0  0  0  0  0  0  0  0
  -22.3430  -14.5760   20.5500 O   0  0  0  0  0  0  0  0  0  0  0  0
  -22.4000  -12.0260   22.3790 H   0  0  0  0  0  0  0  0  0  0  0  0
  -21.0930  -13.1480   22.1410 H   0  0  0  0  0  0  0  0  0  0  0  0
  -25.4160  -15.2220   20.2900 N   0  0  0  0  0  0  0  0  0  0  0  0
  -24.6470  -15.8780   20.3770 H   0  0  0  0  0  0  0  0  0  0  0  0
  -26.2780  -15.6580   19.9810 H   0  0  0  0  0  0  0  0  0  0  0  0
  -29.5660  -21.6820   20.5210 C   0  0  0  0  0  0  0  0  0  0  0  0
  -28.8580  -22.8360   20.5180 N   0  0  0  0  0  0  0  0  0  0  0  0
  -30.7980  -21.6770   20.5800 O   0  0  0  0  0  0  0  0  0  0  0  0
  -27.8540  -22.7280   20.4920 H   0  0  0  0  0  0  0  0  0  0  0  0
  -29.3340  -24.2370   20.4980 C   0  0  0  0  0  2  0  0  0  0  0  0
  -28.1120  -25.2030   20.4540 C   0  0  0  0  0  2  0  0  0  0  0  0
  -28.3520  -26.6260   20.2740 O   0  0  0  0  0  0  0  0  0  0  0  0
  -24.5760  -31.9380   23.2370 C   0  0  0  0  0  0  0  0  0  0  0  0
  -27.2080  -27.4200   20.2190 C   0  0  0  0  0  0  0  0  0  0  0  0
  -23.3750  -30.5170   21.6110 C   0  0  0  0  0  3  0  0  0  0  0  0
  -24.8260  -28.9740   20.1970 C   0  0  0  0  0  0  0  0  0  0  0  0
  -25.9060  -30.8670   21.4140 C   0  0  0  0  0  2  0  0  0  0  0  0
  -25.9900  -29.4890   20.7830 C   0  0  0  0  0  0  0  0  0  0  0  0
  -27.1860  -28.7230   20.7820 C   0  0  0  0  0  3  0  0  0  0  0  0
  -26.0200  -26.9480   19.6070 C   0  0  0  0  0  3  0  0  0  0  0  0
  -24.8390  -27.7060   19.6010 C   0  0  0  0  0  3  0  0  0  0  0  0
  -23.5850  -29.8320   20.2370 C   0  0  0  0  0  2  0  0  0  0  0  0
  -24.6370  -31.1260   22.1450 N   0  0  0  0  0  0  0  0  0  0  0  0
  -23.4940  -32.2160   23.7710 O   0  0  0  0  0  0  0  0  0  0  0  0
  -22.7200  -29.5080   22.5810 C   0  0  0  0  0  0  0  0  0  0  0  0
  -21.3940  -29.3320   22.4580 N   0  0  0  0  0  0  0  0  0  0  0  0
  -23.4040  -28.8900   23.4020 O   0  0  0  0  0  0  0  0  0  0  0  0
  -20.9090  -29.8820   21.7620 H   0  0  0  0  0  0  0  0  0  0  0  0
  -18.0090  -28.1620   22.9830 C   0  0  0  0  0  0  0  0  0  0  0  0
  -20.5690  -28.4060   23.2350 C   0  0  0  0  0  3  0  0  0  0  0  0
  -20.6640  -26.9700   22.6740 C   0  0  0  0  0  2  0  0  0  0  0  0
  -19.5530  -26.6390   21.6720 C   0  0  0  0  0  2  0  0  0  0  0  0
  -18.1760  -26.8040   22.3230 C   0  0  0  0  0  2  0  0  0  0  0  0
  -19.1350  -28.9230   23.3970 C   0  0  0  0  0  0  0  0  0  0  0  0
  -18.9290  -30.1950   23.9700 C   0  0  0  0  0  3  0  0  0  0  0  0
  -17.6290  -30.7060   24.1420 C   0  0  0  0  0  3  0  0  0  0  0  0
  -16.5170  -29.9430   23.7500 C   0  0  0  0  0  3  0  0  0  0  0  0
  -16.7090  -28.6740   23.1720 C   0  0  0  0  0  3  0  0  0  0  0  0
  -25.8600  -32.5750   23.8520 C   0  0  0  0  0  3  0  0  0  0  0  0
  -25.5500  -33.9760   24.1730 N   0  0  0  0  0  0  0  0  0  0  0  0
  -25.8910  -35.0240   23.4110 C   0  0  0  0  0  0  0  0  0  0  0  0
  -26.5730  -34.9170   22.3880 O   0  0  0  0  0  0  0  0  0  0  0  0
  -24.9400  -34.1330   24.9610 H   0  0  0  0  0  0  0  0  0  0  0  0
  -24.1830  -36.8280   23.0110 C   0  0  0  0  0  1  0  0  0  0  0  0
  -25.3990  -36.4150   23.8550 C   0  0  0  0  0  3  0  0  0  0  0  0
  -27.5140  -37.2870   24.7480 C   0  0  0  0  0  1  0  0  0  0  0  0
  -26.4410  -37.4620   23.7720 N   0  0  0  0  0  0  0  0  0  0  0  0
  -26.0370  -38.3840   23.9060 H   0  0  0  0  0  0  0  0  0  0  0  0
  -26.3840  -31.8130   25.1290 C   0  0  1  0  0  0  0  0  0  0  0  0
  -25.2950  -31.5700   26.2000 C   0  0  0  0  0  1  0  0  0  0  0  0
  -26.9750  -30.4370   24.7390 C   0  0  0  0  0  1  0  0  0  0  0  0
  -27.5310  -32.6150   25.7880 C   0  0  0  0  0  1  0  0  0  0  0  0
  1  2  1  0
  1 50  1  0
  1  8  1  0
  3  2  1  0
  3  5  1  0
  4  2  2  0
  6  3  1  0
  7  8  1  0
  7 11  1  0
  8 10  1  0
  9  7  2  0
 12 20  1  0
 13 18  1  0
 14 15  1  0
 14 13  1  0
 16 15  1  0
 16 25  1  0
 16 17  1  0
 18 12  1  0
 18 17  1  0
 19 12  2  0
 20 11  1  0
 20 21  1  0
 22 23  2  0
 23 42  1  0
 24 23  1  0
 24 27  1  0
 25 22  1  0
 25 26  1  0
 26 24  2  0
 27 28  1  0
 28 29  2  0
 30 33  1  0
 30 29  1  0
 31 30  2  0
 32 31  1  0
 32 27  2  0
 33 34  1  0
 34 35  1  0
 35 36  2  0
 37 36  1  0
 37 41  1  0
 38 37  2  0
 39 34  2  0
 39 38  1  0
 40 39  1  0
 42 43  1  0
 43 46  1  0
 43 45  1  0
 44 42  2  0
 47 48  1  0
 47 22  1  0
 49 47  1  0
 50 52  2  0
 51 50  1  0
 53 51  1  0
 54 51  1  0
 55 54  1  0
 56 55  1  0
 57 68  2  0
 58 56  1  0
 58 63  1  0
 59 67  1  0
 59 69  1  0
 60 66  1  0
 60 62  1  0
 61 67  1  0
 62 61  1  0
 63 62  2  0
 64 58  2  0
 65 64  1  0
 65 60  2  0
 66 59  1  0
 67 57  1  0
 69 71  2  0
 70 69  1  0
 72 70  1  0
 73 82  2  0
 73 78  1  0
 74 70  1  0
 74 78  1  0
 75 74  1  0
 76 77  1  0
 76 75  1  0
 77 73  1  0
 78 79  2  0
 79 80  1  0
 81 80  2  0
 82 81  1  0
 83 57  1  0
 83 84  1  0
 83 93  1  0
 84 87  1  0
 85 89  1  0
 85 84  1  0
 86 85  2  0
 89 88  1  0
 91 89  1  0
 91 92  1  0
 91 90  1  0
 93 96  1  1
 93 94  1  0
 95 93  1  0
M  ISO  4  12 100  20 100  55 101  56 101
M  END
>  <TORSDO>  (8) 
F 22

>  <SCORE>  (8) 
-13.644

>  <name>  (8) 
7

>  <ligand_id>  (8) 
7

>  <original_smiles>  (8) 
[H]c1c([H])c([H])c2c(c1[H])C([H])([H])C([H])([H])C([H])([H])C2([H])N([H])C(=O)C1([H])N(C(=O)C([H])(N([H])C(=O)C([H])(N([H])C([H])([H])[H])C([H])([H])[H])C(C([H])([H])[H])(C([H])([H])[H])C([H])([H])[H])C([H])([H])c2c([H])c(OC([H])([H])C([H])([H])N([H])C(=O)C([H])(C(=O)N([H])[H])N([H])C(=O)C([H])([H])N([H])C(=O)N3C([H])([H])C([H])([H])C([H])([H])C([H])(n4nc(-c5c([H])c([H])c(Oc6c([H])c([H])c(F)c([H])c6F)c([H])c5[H])c(C(=O)N([H])[H])c4N([H])[H])C3([H])[H])c([H])c([H])c2C1([H])[H]

>  <smiles>  (8) 
[H]c1c([H])c([H])c2c(c1[H])C([H])([H])C([H])([H])C([H])([H])C2([H])N([H])C(=O)C1([H])N(C(=O)C([H])(N([H])C(=O)C([H])(N([H])C([H])([H])[H])C([H])([H])[H])C(C([H])([H])[H])(C([H])([H])[H])C([H])([H])[H])C([H])([H])c2c([H])c(OC([H])([H])C([H])([H])N([H])C(=O)C([H])(C(=O)N([H])[H])N([H])C(=O)C([H])([H])N([H])C(=O)N3C([H])([H])C([H])([H])C([H])([H])C([H])(n4nc(-c5c([H])c([H])c(Oc6c([H])c([H])c(F)c([H])c6F)c([H])c5[H])c(C(=O)N([H])[H])c4N([H])[H])C3([H])[H])c([H])c([H])c2C1([H])[H]

$$$$
8:0:0
     RDKit          3D

 94101  0  0  1  0  0  0  0  0999 V2000
  -28.8980  -19.1660   20.3760 N   0  0  0  0  0  4  0  0  0  0  0  0
  -27.9780  -19.0810   19.9680 H   0  0  0  0  0  0  0  0  0  0  0  0
  -28.8040  -19.0050   21.3670 H   0  0  0  0  0  0  0  0  0  0  0  0
  -29.4010  -20.5670   20.1750 C   0  0  0  0  0  2  0  0  0  0  0  0
  -28.3180  -21.6890   20.2710 C   0  0  0  0  0  2  0  0  0  0  0  0
  -28.9240  -22.9910   20.3980 O   0  0  0  0  0  0  0  0  0  0  0  0
  -28.0970  -24.1150   20.0270 C   0  0  0  0  0  2  0  0  0  0  0  0
  -28.5580  -25.4290   20.7320 C   0  0  0  0  0  2  0  0  0  0  0  0
  -28.5010  -26.6540   19.9710 O   0  0  0  0  0  0  0  0  0  0  0  0
  -24.7100  -31.7500   23.2760 C   0  0  0  0  0  0  0  0  0  0  0  0
  -27.3370  -27.3910   20.0440 C   0  0  0  0  0  0  0  0  0  0  0  0
  -23.5080  -30.4270   21.5680 C   0  0  0  0  0  3  0  0  0  0  0  0
  -24.9590  -28.9290   20.0980 C   0  0  0  0  0  0  0  0  0  0  0  0
  -26.0410  -30.7650   21.4070 C   0  0  0  0  0  2  0  0  0  0  0  0
  -26.1190  -29.4180   20.7130 C   0  0  0  0  0  0  0  0  0  0  0  0
  -27.3140  -28.6590   20.6770 C   0  0  0  0  0  3  0  0  0  0  0  0
  -26.1610  -26.9180   19.4290 C   0  0  0  0  0  3  0  0  0  0  0  0
  -24.9760  -27.6800   19.4530 C   0  0  0  0  0  3  0  0  0  0  0  0
  -23.7240  -29.8010   20.1640 C   0  0  0  0  0  2  0  0  0  0  0  0
  -24.7710  -30.9940   22.1420 N   0  0  0  0  0  0  0  0  0  0  0  0
  -23.6260  -32.0080   23.8170 O   0  0  0  0  0  0  0  0  0  0  0  0
  -22.8390  -29.3730   22.4800 C   0  0  0  0  0  0  0  0  0  0  0  0
  -21.5180  -29.1900   22.3160 N   0  0  0  0  0  0  0  0  0  0  0  0
  -23.5060  -28.7230   23.2880 O   0  0  0  0  0  0  0  0  0  0  0  0
  -21.0400  -29.7670   21.6390 H   0  0  0  0  0  0  0  0  0  0  0  0
  -18.1360  -27.9780   22.7080 C   0  0  0  0  0  0  0  0  0  0  0  0
  -20.6880  -28.2250   23.0370 C   0  0  0  0  0  3  0  0  0  0  0  0
  -20.8020  -26.8160   22.4100 C   0  0  0  0  0  2  0  0  0  0  0  0
  -19.7200  -26.5310   21.3640 C   0  0  0  0  0  2  0  0  0  0  0  0
  -18.3260  -26.6540   21.9870 C   0  0  0  0  0  2  0  0  0  0  0  0
  -19.2460  -28.7240   23.1870 C   0  0  0  0  0  0  0  0  0  0  0  0
  -19.0160  -29.9650   23.8190 C   0  0  0  0  0  3  0  0  0  0  0  0
  -17.7080  -30.4610   23.9760 C   0  0  0  0  0  3  0  0  0  0  0  0
  -16.6120  -29.7120   23.5140 C   0  0  0  0  0  3  0  0  0  0  0  0
  -16.8270  -28.4720   22.8860 C   0  0  0  0  0  3  0  0  0  0  0  0
  -25.9950  -32.3440   23.9320 C   0  0  0  0  0  3  0  0  0  0  0  0
  -25.6840  -33.7170   24.3490 N   0  0  0  0  0  0  0  0  0  0  0  0
  -26.0450  -34.8180   23.6740 C   0  0  0  0  0  0  0  0  0  0  0  0
  -26.7460  -34.7800   22.6600 O   0  0  0  0  0  0  0  0  0  0  0  0
  -25.0640  -33.8210   25.1400 H   0  0  0  0  0  0  0  0  0  0  0  0
  -24.3660  -36.6640   23.3620 C   0  0  0  0  0  1  0  0  0  0  0  0
  -25.5500  -36.1750   24.2110 C   0  0  0  0  0  3  0  0  0  0  0  0
  -27.6430  -36.9520   25.2350 C   0  0  0  0  0  1  0  0  0  0  0  0
  -26.6030  -37.2130   24.2430 N   0  0  0  0  0  0  0  0  0  0  0  0
  -26.2020  -38.1270   24.4370 H   0  0  0  0  0  0  0  0  0  0  0  0
  -26.5180  -31.4960   25.1550 C   0  0  1  0  0  0  0  0  0  0  0  0
  -25.4260  -31.1770   26.2020 C   0  0  0  0  0  1  0  0  0  0  0  0
  -27.1170  -30.1540   24.6730 C   0  0  0  0  0  1  0  0  0  0  0  0
  -27.6590  -32.2570   25.8710 C   0  0  0  0  0  1  0  0  0  0  0  0
  -29.7610  -18.1010   19.7710 C   0  0  0  0  0  2  0  0  0  0  0  0
  -29.6820  -16.6510   20.3860 C   0  0  0  0  0  3  0  0  0  0  0  0
  -31.0150  -14.5480   19.6330 C   0  0  0  0  0  0  0  0  0  0  0  0
  -30.4520  -12.4810   18.4320 C   0  0  0  0  0  2  0  0  0  0  0  0
  -29.3960  -12.8030   17.3560 C   0  0  0  0  0  2  0  0  0  0  0  0
  -27.9780  -12.6960   17.9520 C   0  0  0  0  0  2  0  0  0  0  0  0
  -27.8250  -13.4580   19.2960 C   0  0  0  0  0  3  0  0  0  0  0  0
  -28.9990  -13.1620   20.2570 C   0  0  0  0  0  2  0  0  0  0  0  0
  -30.2400  -13.4360   19.5290 N   0  0  0  0  0  0  0  0  0  0  0  0
  -32.1790  -14.5700   19.2420 O   0  0  0  0  0  0  0  0  0  0  0  0
  -30.3770  -15.7230   19.4660 N   0  0  0  0  0  0  0  0  0  0  0  0
  -30.9290  -16.2590   18.8160 H   0  0  0  0  0  0  0  0  0  0  0  0
  -25.5460  -14.0890   20.2990 C   0  0  0  0  0  0  0  0  0  0  0  0
  -24.5060  -13.3290   20.7590 C   0  0  0  0  0  0  0  0  0  0  0  0
  -24.9240  -11.9690   20.6280 C   0  0  0  0  0  0  0  0  0  0  0  0
  -26.5330  -13.1940   19.9200 N   0  0  0  0  0  0  0  0  0  0  0  0
  -26.1700  -11.9120   20.1780 N   0  0  0  0  0  0  0  0  0  0  0  0
  -24.1860  -10.7180   20.8460 C   0  0  0  0  0  0  0  0  0  0  0  0
  -24.6170   -9.7610   21.7910 C   0  0  0  0  0  3  0  0  0  0  0  0
  -23.8790   -8.5750   21.9980 C   0  0  0  0  0  3  0  0  0  0  0  0
  -22.6980   -8.3380   21.2570 C   0  0  0  0  0  0  0  0  0  0  0  0
  -22.2850   -9.2820   20.3000 C   0  0  0  0  0  3  0  0  0  0  0  0
  -23.0240  -10.4590   20.0930 C   0  0  0  0  0  3  0  0  0  0  0  0
  -21.9310   -7.2020   21.3730 O   0  0  0  0  0  0  0  0  0  0  0  0
  -21.8040   -6.5370   22.5650 C   0  0  0  0  0  0  0  0  0  0  0  0
  -21.3160   -7.1770   23.7260 C   0  0  0  0  0  3  0  0  0  0  0  0
  -21.1360   -6.4400   24.9140 C   0  0  0  0  0  3  0  0  0  0  0  0
  -21.4350   -5.0640   24.9420 C   0  0  0  0  0  0  0  0  0  0  0  0
  -21.9160   -4.4250   23.7860 C   0  0  0  0  0  3  0  0  0  0  0  0
  -22.0980   -5.1590   22.6000 C   0  0  0  0  0  0  0  0  0  0  0  0
  -22.5420   -4.5340   21.4840 F   0  0  0  0  0  0  0  0  0  0  0  0
  -21.2550   -4.3540   26.0800 F   0  0  0  0  0  0  0  0  0  0  0  0
  -23.1570  -13.8290   21.1910 C   0  0  0  0  0  0  0  0  0  0  0  0
  -22.5210  -13.1390   22.1310 N   0  0  0  0  0  0  0  0  0  0  0  0
  -22.6840  -14.8660   20.7300 O   0  0  0  0  0  0  0  0  0  0  0  0
  -22.9220  -12.2990   22.5240 H   0  0  0  0  0  0  0  0  0  0  0  0
  -21.6230  -13.4580   22.4670 H   0  0  0  0  0  0  0  0  0  0  0  0
  -25.7260  -15.4610   20.1440 N   0  0  0  0  0  0  0  0  0  0  0  0
  -24.9220  -16.0720   20.2460 H   0  0  0  0  0  0  0  0  0  0  0  0
  -26.4130  -15.8290   19.5000 H   0  0  0  0  0  0  0  0  0  0  0  0
  -30.2210  -16.5730   21.8250 C   0  0  0  0  0  0  0  0  0  0  0  0
  -29.3550  -16.3240   22.7970 N   0  0  0  0  0  0  0  0  0  0  0  0
  -31.4160  -16.7450   22.0580 O   0  0  0  0  0  0  0  0  0  0  0  0
  -28.3780  -16.1510   22.6000 H   0  0  0  0  0  0  0  0  0  0  0  0
  -29.6750  -16.2690   23.7540 H   0  0  0  0  0  0  0  0  0  0  0  0
  1  3  1  0
  2  1  1  0
  4  5  1  0
  4  1  1  0
  5  6  1  0
  7  6  1  0
  7  8  1  0
  9 11  1  0
  9  8  1  0
 10 21  2  0
 11 16  1  0
 12 20  1  0
 12 22  1  0
 13 19  1  0
 13 15  1  0
 14 20  1  0
 15 14  1  0
 16 15  2  0
 17 18  1  0
 17 11  2  0
 18 13  2  0
 19 12  1  0
 20 10  1  0
 22 24  2  0
 23 22  1  0
 25 23  1  0
 26 35  2  0
 26 31  1  0
 27 23  1  0
 27 31  1  0
 28 27  1  0
 29 30  1  0
 29 28  1  0
 30 26  1  0
 31 32  2  0
 32 33  1  0
 34 33  2  0
 35 34  1  0
 36 10  1  0
 36 37  1  0
 36 46  1  0
 37 40  1  0
 38 42  1  0
 38 37  1  0
 39 38  2  0
 42 41  1  0
 42 44  1  0
 44 45  1  0
 44 43  1  0
 46 49  1  1
 46 47  1  0
 48 46  1  0
 50  1  1  0
 51 50  1  0
 51 90  1  0
 53 58  1  0
 54 55  1  0
 54 53  1  0
 56 55  1  0
 56 65  1  0
 56 57  1  0
 58 52  1  0
 58 57  1  0
 59 52  2  0
 60 52  1  0
 60 51  1  0
 61 60  1  0
 62 63  2  0
 63 82  1  0
 64 63  1  0
 64 67  1  0
 65 66  1  0
 65 62  1  0
 66 64  2  0
 67 68  1  0
 68 69  2  0
 70 73  1  0
 70 69  1  0
 71 70  2  0
 72 71  1  0
 72 67  2  0
 73 74  1  0
 74 79  2  0
 74 75  1  0
 75 76  2  0
 76 77  1  0
 77 81  1  0
 78 77  2  0
 79 78  1  0
 80 79  1  0
 82 83  1  0
 83 86  1  0
 83 85  1  0
 84 82  2  0
 87 88  1  0
 87 62  1  0
 89 87  1  0
 90 92  2  0
 90 91  1  0
 91 94  1  0
 93 91  1  0
M  ISO  4   8 101   9 101  52 100  60 100
M  END
>  <TORSDO>  (9) 
F 24

>  <SCORE>  (9) 
-9.753

>  <name>  (9) 
8

>  <ligand_id>  (9) 
8

>  <original_smiles>  (9) 
[H]c1c([H])c([H])c2c(c1[H])C([H])([H])C([H])([H])C([H])([H])C2([H])N([H])C(=O)C1([H])N(C(=O)C([H])(N([H])C(=O)C([H])(N([H])C([H])([H])[H])C([H])([H])[H])C(C([H])([H])[H])(C([H])([H])[H])C([H])([H])[H])C([H])([H])c2c([H])c(OC([H])([H])C([H])([H])OC([H])([H])C([H])([H])[N+]([H])([H])C([H])([H])C([H])(C(=O)N([H])[H])N([H])C(=O)N3C([H])([H])C([H])([H])C([H])([H])C([H])(n4nc(-c5c([H])c([H])c(Oc6c([H])c([H])c(F)c([H])c6F)c([H])c5[H])c(C(=O)N([H])[H])c4N([H])[H])C3([H])[H])c([H])c([H])c2C1([H])[H]

>  <smiles>  (9) 
[H]c1c([H])c([H])c2c(c1[H])C([H])([H])C([H])([H])C([H])([H])C2([H])N([H])C(=O)C1([H])N(C(=O)C([H])(N([H])C(=O)C([H])(N([H])C([H])([H])[H])C([H])([H])[H])C(C([H])([H])[H])(C([H])([H])[H])C([H])([H])[H])C([H])([H])c2c([H])c(OC([H])([H])C([H])([H])OC([H])([H])C([H])([H])[N+]([H])([H])C([H])([H])C([H])(C(=O)N([H])[H])N([H])C(=O)N3C([H])([H])C([H])([H])C([H])([H])C([H])(n4nc(-c5c([H])c([H])c(Oc6c([H])c([H])c(F)c([H])c6F)c([H])c5[H])c(C(=O)N([H])[H])c4N([H])[H])C3([H])[H])c([H])c([H])c2C1([H])[H]

$$$$
9:0:0
     RDKit          3D

 97105  0  0  1  0  0  0  0  0999 V2000
  -31.0540  -21.4680   20.2850 C   0  0  0  0  0  3  0  0  0  0  0  0
  -31.5630  -19.9960   20.4270 C   0  0  0  0  0  0  0  0  0  0  0  0
  -30.6780  -18.5620   23.7190 C   0  0  0  0  0  2  0  0  0  0  0  0
  -30.9580  -17.2890   22.9410 C   0  0  0  0  0  2  0  0  0  0  0  0
  -30.4370  -19.6090   22.6330 C   0  0  0  0  0  2  0  0  0  0  0  0
  -31.6900  -17.7710   21.6740 C   0  0  0  0  0  3  0  0  0  0  0  0
  -31.2340  -19.1850   21.4730 N   0  0  0  0  0  0  0  0  0  0  0  0
  -32.3850  -19.6160   19.5840 O   0  0  0  0  0  0  0  0  0  0  0  0
  -31.8760  -14.4480   19.9880 C   0  0  0  0  0  0  0  0  0  0  0  0
  -31.3420  -12.3430   18.8160 C   0  0  0  0  0  2  0  0  0  0  0  0
  -30.3720  -12.6870   17.6650 C   0  0  0  0  0  2  0  0  0  0  0  0
  -28.9100  -12.6640   18.1550 C   0  0  0  0  0  2  0  0  0  0  0  0
  -28.7140  -13.4770   19.4640 C   0  0  0  0  0  3  0  0  0  0  0  0
  -29.7930  -13.1170   20.5150 C   0  0  0  0  0  2  0  0  0  0  0  0
  -31.1210  -13.3110   19.9080 N   0  0  0  0  0  0  0  0  0  0  0  0
  -32.9260  -14.5700   19.3480 O   0  0  0  0  0  0  0  0  0  0  0  0
  -31.5090  -16.7720   20.4830 C   0  0  0  0  0  0  0  0  0  0  0  0
  -31.3960  -15.4520   20.7610 N   0  0  0  0  0  0  0  0  0  0  0  0
  -31.4290  -17.1960   19.3210 O   0  0  0  0  0  0  0  0  0  0  0  0
  -30.8960  -15.2040   21.6020 H   0  0  0  0  0  0  0  0  0  0  0  0
  -26.4300  -14.2890   20.3170 C   0  0  0  0  0  0  0  0  0  0  0  0
  -25.3100  -13.6150   20.7270 C   0  0  0  0  0  0  0  0  0  0  0  0
  -25.6290  -12.2270   20.6290 C   0  0  0  0  0  0  0  0  0  0  0  0
  -27.3650  -13.3160   20.0040 N   0  0  0  0  0  0  0  0  0  0  0  0
  -26.8900  -12.0680   20.2490 N   0  0  0  0  0  0  0  0  0  0  0  0
  -24.7910  -11.0370   20.8290 C   0  0  0  0  0  0  0  0  0  0  0  0
  -25.1460  -10.0390   21.7630 C   0  0  0  0  0  3  0  0  0  0  0  0
  -24.3220   -8.9090   21.9540 C   0  0  0  0  0  3  0  0  0  0  0  0
  -23.1280   -8.7700   21.2060 C   0  0  0  0  0  0  0  0  0  0  0  0
  -22.7900   -9.7550   20.2610 C   0  0  0  0  0  3  0  0  0  0  0  0
  -23.6130  -10.8780   20.0700 C   0  0  0  0  0  3  0  0  0  0  0  0
  -22.2820   -7.6920   21.2980 O   0  0  0  0  0  0  0  0  0  0  0  0
  -22.1070   -7.0130   22.4780 C   0  0  0  0  0  0  0  0  0  0  0  0
  -21.6820   -7.6640   23.6570 C   0  0  0  0  0  3  0  0  0  0  0  0
  -21.4500   -6.9160   24.8280 C   0  0  0  0  0  3  0  0  0  0  0  0
  -21.6310   -5.5190   24.8210 C   0  0  0  0  0  0  0  0  0  0  0  0
  -22.0460   -4.8690   23.6440 C   0  0  0  0  0  3  0  0  0  0  0  0
  -22.2810   -5.6140   22.4760 C   0  0  0  0  0  0  0  0  0  0  0  0
  -22.6600   -4.9810   21.3380 F   0  0  0  0  0  0  0  0  0  0  0  0
  -21.4010   -4.7980   25.9420 F   0  0  0  0  0  0  0  0  0  0  0  0
  -23.9850  -14.2220   21.0890 C   0  0  0  0  0  0  0  0  0  0  0  0
  -23.2560  -13.5930   22.0040 N   0  0  0  0  0  0  0  0  0  0  0  0
  -23.6090  -15.2830   20.5950 O   0  0  0  0  0  0  0  0  0  0  0  0
  -23.5800  -12.7410   22.4380 H   0  0  0  0  0  0  0  0  0  0  0  0
  -22.3630  -13.9780   22.2790 H   0  0  0  0  0  0  0  0  0  0  0  0
  -26.7220  -15.6400   20.1720 N   0  0  0  0  0  0  0  0  0  0  0  0
  -26.0320  -16.3600   20.3500 H   0  0  0  0  0  0  0  0  0  0  0  0
  -27.5930  -15.9990   19.8020 H   0  0  0  0  0  0  0  0  0  0  0  0
  -31.7270  -22.0940   19.1180 N   0  0  0  0  0  4  0  0  0  0  0  0
  -32.7160  -21.9270   19.1950 H   0  0  0  0  0  0  0  0  0  0  0  0
  -31.5820  -23.0850   19.0720 H   0  0  0  0  0  0  0  0  0  0  0  0
  -31.4230  -21.6700   18.2550 H   0  0  0  0  0  0  0  0  0  0  0  0
  -29.5090  -21.7150   20.2120 C   0  0  0  0  0  2  0  0  0  0  0  0
  -29.0760  -22.6400   21.2230 O   0  0  0  0  0  0  0  0  0  0  0  0
  -29.4830  -24.0130   21.0690 C   0  0  0  0  0  2  0  0  0  0  0  0
  -28.3660  -24.8620   20.4160 C   0  0  0  0  0  2  0  0  0  0  0  0
  -28.5570  -26.2890   20.4850 O   0  0  0  0  0  0  0  0  0  0  0  0
  -24.7580  -31.6250   23.2770 C   0  0  0  0  0  0  0  0  0  0  0  0
  -27.4120  -27.0650   20.3780 C   0  0  0  0  0  0  0  0  0  0  0  0
  -23.5820  -30.2260   21.6070 C   0  0  0  0  0  3  0  0  0  0  0  0
  -25.0530  -28.6360   20.2650 C   0  0  0  0  0  0  0  0  0  0  0  0
  -26.1220  -30.5130   21.5150 C   0  0  0  0  0  2  0  0  0  0  0  0
  -26.1980  -29.1340   20.8980 C   0  0  0  0  0  0  0  0  0  0  0  0
  -27.3790  -28.3560   20.9520 C   0  0  0  0  0  3  0  0  0  0  0  0
  -26.2480  -26.5920   19.7230 C   0  0  0  0  0  3  0  0  0  0  0  0
  -25.0730  -27.3630   19.6730 C   0  0  0  0  0  3  0  0  0  0  0  0
  -23.8290  -29.5210   20.2480 C   0  0  0  0  0  2  0  0  0  0  0  0
  -24.8340  -30.8070   22.1890 N   0  0  0  0  0  0  0  0  0  0  0  0
  -23.6630  -31.9310   23.7720 O   0  0  0  0  0  0  0  0  0  0  0  0
  -22.8680  -29.2390   22.5580 C   0  0  0  0  0  0  0  0  0  0  0  0
  -21.5420  -29.1000   22.3910 N   0  0  0  0  0  0  0  0  0  0  0  0
  -23.5040  -28.5980   23.3970 O   0  0  0  0  0  0  0  0  0  0  0  0
  -21.0930  -29.6590   21.6790 H   0  0  0  0  0  0  0  0  0  0  0  0
  -18.1150  -28.0370   22.8120 C   0  0  0  0  0  0  0  0  0  0  0  0
  -20.6730  -28.1990   23.1460 C   0  0  0  0  0  3  0  0  0  0  0  0
  -20.7370  -26.7630   22.5760 C   0  0  0  0  0  2  0  0  0  0  0  0
  -19.6490  -26.4780   21.5360 C   0  0  0  0  0  2  0  0  0  0  0  0
  -18.2580  -26.6790   22.1460 C   0  0  0  0  0  2  0  0  0  0  0  0
  -19.2500  -28.7570   23.2690 C   0  0  0  0  0  0  0  0  0  0  0  0
  -19.0700  -30.0290   23.8530 C   0  0  0  0  0  3  0  0  0  0  0  0
  -17.7820  -30.5820   23.9870 C   0  0  0  0  0  3  0  0  0  0  0  0
  -16.6590  -29.8570   23.5510 C   0  0  0  0  0  3  0  0  0  0  0  0
  -16.8260  -28.5880   22.9700 C   0  0  0  0  0  3  0  0  0  0  0  0
  -26.0340  -32.2310   23.9380 C   0  0  0  0  0  3  0  0  0  0  0  0
  -25.7280  -33.6190   24.3060 N   0  0  0  0  0  0  0  0  0  0  0  0
  -26.0840  -34.6930   23.5880 C   0  0  0  0  0  0  0  0  0  0  0  0
  -26.7770  -34.6160   22.5700 O   0  0  0  0  0  0  0  0  0  0  0  0
  -25.1270  -33.7510   25.1060 H   0  0  0  0  0  0  0  0  0  0  0  0
  -24.3710  -36.4970   23.2430 C   0  0  0  0  0  1  0  0  0  0  0  0
  -25.5910  -36.0680   24.0740 C   0  0  0  0  0  3  0  0  0  0  0  0
  -27.7070  -36.9160   24.9820 C   0  0  0  0  0  1  0  0  0  0  0  0
  -26.6310  -37.1180   24.0160 N   0  0  0  0  0  0  0  0  0  0  0  0
  -26.2280  -38.0380   24.1770 H   0  0  0  0  0  0  0  0  0  0  0  0
  -26.5310  -31.4160   25.1950 C   0  0  1  0  0  0  0  0  0  0  0  0
  -25.4160  -31.1440   26.2320 C   0  0  0  0  0  1  0  0  0  0  0  0
  -27.1240  -30.0530   24.7700 C   0  0  0  0  0  1  0  0  0  0  0  0
  -27.6740  -32.1840   25.8980 C   0  0  0  0  0  1  0  0  0  0  0  0
  1 53  1  0
  1  2  1  0
  2  7  1  0
  4  3  1  0
  5  3  1  0
  6 17  1  0
  6  4  1  0
  7  6  1  0
  7  5  1  0
  8  2  2  0
  9 18  1  0
 10 15  1  0
 11 12  1  0
 11 10  1  0
 13 12  1  0
 13 24  1  0
 13 14  1  0
 15  9  1  0
 15 14  1  0
 16  9  2  0
 17 18  1  0
 18 20  1  0
 19 17  2  0
 21 22  2  0
 22 41  1  0
 23 22  1  0
 23 26  1  0
 24 25  1  0
 24 21  1  0
 25 23  2  0
 26 27  1  0
 27 28  2  0
 29 32  1  0
 29 28  1  0
 30 29  2  0
 31 30  1  0
 31 26  2  0
 32 33  1  0
 33 34  1  0
 34 35  2  0
 36 35  1  0
 36 40  1  0
 37 36  2  0
 38 33  2  0
 38 37  1  0
 39 38  1  0
 41 42  1  0
 42 45  1  0
 42 44  1  0
 43 41  2  0
 46 21  1  0
 46 47  1  0
 48 46  1  0
 49 50  1  0
 49  1  1  0
 51 49  1  0
 52 49  1  0
 53 54  1  0
 55 54  1  0
 56 57  1  0
 56 55  1  0
 58 69  2  0
 59 57  1  0
 59 64  1  0
 60 68  1  0
 60 70  1  0
 61 63  1  0
 62 68  1  0
 63 64  2  0
 63 62  1  0
 65 59  2  0
 66 65  1  0
 66 61  2  0
 67 61  1  0
 67 60  1  0
 68 58  1  0
 70 72  2  0
 71 70  1  0
 73 71  1  0
 74 83  2  0
 74 79  1  0
 75 71  1  0
 75 79  1  0
 76 75  1  0
 77 78  1  0
 77 76  1  0
 78 74  1  0
 79 80  2  0
 80 81  1  0
 82 81  2  0
 83 82  1  0
 84 58  1  0
 84 85  1  0
 84 94  1  0
 85 88  1  0
 86 90  1  0
 86 85  1  0
 87 86  2  0
 90 89  1  0
 92 90  1  0
 92 93  1  0
 92 91  1  0
 94 97  1  1
 94 95  1  0
 96 94  1  0
M  ISO  4   9 100  18 100  56 101  57 101
M  END
>  <TORSDO>  (10) 
F 22

>  <SCORE>  (10) 
-10.676

>  <name>  (10) 
9

>  <ligand_id>  (10) 
9

>  <original_smiles>  (10) 
[H]c1c([H])c([H])c2c(c1[H])C([H])([H])C([H])([H])C([H])([H])C2([H])N([H])C(=O)C1([H])N(C(=O)C([H])(N([H])C(=O)C([H])(N([H])C([H])([H])[H])C([H])([H])[H])C(C([H])([H])[H])(C([H])([H])[H])C([H])([H])[H])C([H])([H])c2c([H])c(OC([H])([H])C([H])([H])OC([H])([H])C([H])(C(=O)N3C([H])([H])C([H])([H])C([H])([H])C3([H])C(=O)N([H])C(=O)N3C([H])([H])C([H])([H])C([H])([H])C([H])(n4nc(-c5c([H])c([H])c(Oc6c([H])c([H])c(F)c([H])c6F)c([H])c5[H])c(C(=O)N([H])[H])c4N([H])[H])C3([H])[H])[N+]([H])([H])[H])c([H])c([H])c2C1([H])[H]

>  <smiles>  (10) 
[H]c1c([H])c([H])c2c(c1[H])C([H])([H])C([H])([H])C([H])([H])C2([H])N([H])C(=O)C1([H])N(C(=O)C([H])(N([H])C(=O)C([H])(N([H])C([H])([H])[H])C([H])([H])[H])C(C([H])([H])[H])(C([H])([H])[H])C([H])([H])[H])C([H])([H])c2c([H])c(OC([H])([H])C([H])([H])OC([H])([H])C([H])(C(=O)N3C([H])([H])C([H])([H])C([H])([H])C3([H])C(=O)N([H])C(=O)N3C([H])([H])C([H])([H])C([H])([H])C([H])(n4nc(-c5c([H])c([H])c(Oc6c([H])c([H])c(F)c([H])c6F)c([H])c5[H])c(C(=O)N([H])[H])c4N([H])[H])C3([H])[H])[N+]([H])([H])[H])c([H])c([H])c2C1([H])[H]

$$$$
10:0:0
     RDKit          3D

100107  0  0  1  0  0  0  0  0999 V2000
  -29.9220  -20.7780   19.8260 C   0  0  0  0  0  0  0  0  0  0  0  0
  -29.9830  -18.2490   20.4650 C   0  0  0  0  0  0  0  0  0  0  0  0
  -29.6370  -19.3250   19.7160 N   0  0  0  0  0  4  0  0  0  0  0  0
  -30.5740  -18.3240   21.5420 O   0  0  0  0  0  0  0  0  0  0  0  0
  -29.1290  -19.0880   18.8770 H   0  0  0  0  0  0  0  0  0  0  0  0
  -30.0800  -16.6890   18.4020 C   0  0  0  0  0  1  0  0  0  0  0  0
  -29.6180  -16.8660   19.8670 C   0  0  0  0  0  0  0  0  0  0  0  0
  -30.6710  -14.6220   20.5750 C   0  0  0  0  0  0  0  0  0  0  0  0
  -30.4970  -12.3910   19.5620 C   0  0  0  0  0  2  0  0  0  0  0  0
  -29.5970  -12.5650   18.3170 C   0  0  0  0  0  2  0  0  0  0  0  0
  -28.1020  -12.4310   18.6790 C   0  0  0  0  0  2  0  0  0  0  0  0
  -27.7110  -13.2690   19.9270 C   0  0  0  0  0  3  0  0  0  0  0  0
  -28.7350  -13.0990   21.0760 C   0  0  0  0  0  2  0  0  0  0  0  0
  -30.0780  -13.3960   20.5510 N   0  0  0  0  0  0  0  0  0  0  0  0
  -31.8390  -14.8110   20.2140 O   0  0  0  0  0  0  0  0  0  0  0  0
  -29.7810  -15.6340   20.6930 N   0  0  0  0  0  4  0  0  0  0  0  0
  -28.9370  -15.3560   21.1730 H   0  0  0  0  0  0  0  0  0  0  0  0
  -25.2980  -13.8820   20.5740 C   0  0  0  0  0  0  0  0  0  0  0  0
  -24.2180  -13.1130   20.9180 C   0  0  0  0  0  0  0  0  0  0  0  0
  -24.6770  -11.7600   20.9010 C   0  0  0  0  0  0  0  0  0  0  0  0
  -26.3450  -12.9960   20.3700 N   0  0  0  0  0  0  0  0  0  0  0  0
  -25.9750  -11.7150   20.6260 N   0  0  0  0  0  0  0  0  0  0  0  0
  -23.9410  -10.5040   21.0800 C   0  0  0  0  0  0  0  0  0  0  0  0
  -24.3490   -9.5390   22.0280 C   0  0  0  0  0  3  0  0  0  0  0  0
  -23.6180   -8.3430   22.1940 C   0  0  0  0  0  3  0  0  0  0  0  0
  -22.4640   -8.1040   21.4130 C   0  0  0  0  0  0  0  0  0  0  0  0
  -22.0750   -9.0550   20.4530 C   0  0  0  0  0  3  0  0  0  0  0  0
  -22.8050  -10.2430   20.2850 C   0  0  0  0  0  3  0  0  0  0  0  0
  -21.7070   -6.9610   21.4860 O   0  0  0  0  0  0  0  0  0  0  0  0
  -21.6270   -6.2210   22.6380 C   0  0  0  0  0  0  0  0  0  0  0  0
  -21.1590   -6.7780   23.8470 C   0  0  0  0  0  3  0  0  0  0  0  0
  -21.0270   -5.9660   24.9910 C   0  0  0  0  0  3  0  0  0  0  0  0
  -21.3490   -4.5960   24.9240 C   0  0  0  0  0  0  0  0  0  0  0  0
  -21.8090   -4.0380   23.7190 C   0  0  0  0  0  3  0  0  0  0  0  0
  -21.9430   -4.8490   22.5770 C   0  0  0  0  0  0  0  0  0  0  0  0
  -22.3650   -4.3020   21.4110 F   0  0  0  0  0  0  0  0  0  0  0  0
  -21.2160   -3.8130   26.0210 F   0  0  0  0  0  0  0  0  0  0  0  0
  -22.8160  -13.5950   21.1490 C   0  0  0  0  0  0  0  0  0  0  0  0
  -22.0620  -12.9060   22.0000 N   0  0  0  0  0  0  0  0  0  0  0  0
  -22.3930  -14.6190   20.6150 O   0  0  0  0  0  0  0  0  0  0  0  0
  -22.4160  -12.0810   22.4610 H   0  0  0  0  0  0  0  0  0  0  0  0
  -21.1180  -13.2100   22.1930 H   0  0  0  0  0  0  0  0  0  0  0  0
  -25.4600  -15.2520   20.3970 N   0  0  0  0  0  0  0  0  0  0  0  0
  -24.6730  -15.8870   20.4740 H   0  0  0  0  0  0  0  0  0  0  0  0
  -26.3000  -15.7020   20.0550 H   0  0  0  0  0  0  0  0  0  0  0  0
  -28.8020  -21.7280   20.3170 C   0  0  0  0  0  0  0  0  0  0  0  0
  -28.9550  -23.0260   19.9810 N   0  0  0  0  0  0  0  0  0  0  0  0
  -27.8560  -21.3100   20.9890 O   0  0  0  0  0  0  0  0  0  0  0  0
  -29.7580  -23.2190   19.3950 H   0  0  0  0  0  0  0  0  0  0  0  0
  -28.1970  -24.2060   20.4340 C   0  0  0  0  0  2  0  0  0  0  0  0
  -28.5960  -25.4830   19.6250 C   0  0  0  0  0  2  0  0  0  0  0  0
  -28.4300  -26.7550   20.2800 O   0  0  0  0  0  0  0  0  0  0  0  0
  -24.5480  -31.9040   23.2670 C   0  0  0  0  0  0  0  0  0  0  0  0
  -27.2410  -27.4600   20.2160 C   0  0  0  0  0  0  0  0  0  0  0  0
  -23.3620  -30.4990   21.6170 C   0  0  0  0  0  3  0  0  0  0  0  0
  -24.8310  -28.9640   20.2000 C   0  0  0  0  0  0  0  0  0  0  0  0
  -25.8880  -30.8630   21.4400 C   0  0  0  0  0  2  0  0  0  0  0  0
  -25.9820  -29.4920   20.8000 C   0  0  0  0  0  0  0  0  0  0  0  0
  -27.1860  -28.7470   20.8030 C   0  0  0  0  0  3  0  0  0  0  0  0
  -26.0710  -26.9460   19.6140 C   0  0  0  0  0  3  0  0  0  0  0  0
  -24.8740  -27.6890   19.6090 C   0  0  0  0  0  3  0  0  0  0  0  0
  -23.5790  -29.8230   20.2380 C   0  0  0  0  0  2  0  0  0  0  0  0
  -24.6170  -31.1040   22.1660 N   0  0  0  0  0  0  0  0  0  0  0  0
  -23.4610  -32.1740   23.7970 O   0  0  0  0  0  0  0  0  0  0  0  0
  -22.7120  -29.4720   22.5710 C   0  0  0  0  0  0  0  0  0  0  0  0
  -21.3880  -29.2890   22.4360 N   0  0  0  0  0  0  0  0  0  0  0  0
  -23.3940  -28.8430   23.3860 O   0  0  0  0  0  0  0  0  0  0  0  0
  -20.9050  -29.8340   21.7370 H   0  0  0  0  0  0  0  0  0  0  0  0
  -18.0110  -28.1140   22.9290 C   0  0  0  0  0  0  0  0  0  0  0  0
  -20.5700  -28.3510   23.2010 C   0  0  0  0  0  3  0  0  0  0  0  0
  -20.6670  -26.9290   22.6070 C   0  0  0  0  0  2  0  0  0  0  0  0
  -19.5590  -26.6220   21.5950 C   0  0  0  0  0  2  0  0  0  0  0  0
  -18.1780  -26.7690   22.2400 C   0  0  0  0  0  2  0  0  0  0  0  0
  -19.1350  -28.8620   23.3660 C   0  0  0  0  0  0  0  0  0  0  0  0
  -18.9290  -30.1220   23.9680 C   0  0  0  0  0  3  0  0  0  0  0  0
  -17.6290  -30.6310   24.1440 C   0  0  0  0  0  3  0  0  0  0  0  0
  -16.5180  -29.8790   23.7250 C   0  0  0  0  0  3  0  0  0  0  0  0
  -16.7100  -28.6230   23.1200 C   0  0  0  0  0  3  0  0  0  0  0  0
  -25.8270  -32.5390   23.8970 C   0  0  0  0  0  3  0  0  0  0  0  0
  -26.3220  -31.7800   25.1880 C   0  0  1  0  0  0  0  0  0  0  0  0
  -25.2090  -31.5580   26.2390 C   0  0  0  0  0  1  0  0  0  0  0  0
  -26.9100  -30.3980   24.8180 C   0  0  0  0  0  1  0  0  0  0  0  0
  -27.4610  -32.5830   25.8590 C   0  0  0  0  0  1  0  0  0  0  0  0
  -25.5180  -33.9410   24.2050 N   0  0  0  0  0  0  0  0  0  0  0  0
  -25.8700  -34.9830   23.4420 C   0  0  0  0  0  0  0  0  0  0  0  0
  -26.5640  -34.8650   22.4290 O   0  0  0  0  0  0  0  0  0  0  0  0
  -24.9100  -34.1090   24.9930 H   0  0  0  0  0  0  0  0  0  0  0  0
  -24.1590  -36.7710   23.0220 C   0  0  0  0  0  1  0  0  0  0  0  0
  -25.3770  -36.3760   23.8710 C   0  0  0  0  0  3  0  0  0  0  0  0
  -27.4880  -37.2610   24.7560 C   0  0  0  0  0  1  0  0  0  0  0  0
  -26.4180  -37.4240   23.7760 N   0  0  0  0  0  0  0  0  0  0  0  0
  -26.0120  -38.3490   23.8950 H   0  0  0  0  0  0  0  0  0  0  0  0
  -31.3220  -21.1430   20.3710 C   0  0  0  0  0  2  0  0  0  0  0  0
  -32.4720  -20.7870   19.4090 C   0  0  0  0  0  2  0  0  0  0  0  0
  -33.8390  -21.2530   19.9400 C   0  0  0  0  0  2  0  0  0  0  0  0
  -34.9670  -21.2040   18.8870 C   0  0  0  0  0  2  0  0  0  0  0  0
  -36.2750  -21.5760   19.4620 N   0  0  0  0  0  4  0  0  0  0  0  0
  -36.2420  -22.5010   19.8540 H   0  0  0  0  0  0  0  0  0  0  0  0
  -36.9890  -21.5630   18.7540 H   0  0  0  0  0  0  0  0  0  0  0  0
  -36.5450  -20.9310   20.1830 H   0  0  0  0  0  0  0  0  0  0  0  0
  1 46  1  0
  1 93  1  0
  2  4  2  0
  3  1  2  0
  3  2  1  0
  5  3  1  0
  6  7  1  0
  7  2  1  0
  7 16  2  3
  8 16  1  0
  9 14  1  0
 10 11  1  0
 10  9  1  0
 12 11  1  0
 12 21  1  0
 12 13  1  0
 14  8  1  0
 14 13  1  0
 15  8  2  0
 16 17  1  0
 18 19  2  0
 19 38  1  0
 20 19  1  0
 20 23  1  0
 21 18  1  0
 21 22  1  0
 22 20  2  0
 23 24  1  0
 24 25  2  0
 26 29  1  0
 26 25  1  0
 27 26  2  0
 28 27  1  0
 28 23  2  0
 29 30  1  0
 30 31  1  0
 31 32  2  0
 33 32  1  0
 33 37  1  0
 34 33  2  0
 35 30  2  0
 35 34  1  0
 36 35  1  0
 38 39  1  0
 39 42  1  0
 39 41  1  0
 40 38  2  0
 43 44  1  0
 43 18  1  0
 45 43  1  0
 46 48  2  0
 47 46  1  0
 47 50  1  0
 49 47  1  0
 51 52  1  0
 51 50  1  0
 53 64  2  0
 54 52  1  0
 54 59  1  0
 55 63  1  0
 55 65  1  0
 56 62  1  0
 56 58  1  0
 57 63  1  0
 58 59  2  0
 58 57  1  0
 60 54  2  0
 61 60  1  0
 61 56  2  0
 62 55  1  0
 63 53  1  0
 65 67  2  0
 66 65  1  0
 68 66  1  0
 69 78  2  0
 69 74  1  0
 70 66  1  0
 70 74  1  0
 71 70  1  0
 72 73  1  0
 72 71  1  0
 73 69  1  0
 74 75  2  0
 75 76  1  0
 77 76  2  0
 78 77  1  0
 79 53  1  0
 79 84  1  0
 79 80  1  0
 80 83  1  1
 80 81  1  0
 82 80  1  0
 84 87  1  0
 85 89  1  0
 85 84  1  0
 86 85  2  0
 89 88  1  0
 91 89  1  0
 91 92  1  0
 91 90  1  0
 94 95  1  0
 94 93  1  0
 96 97  1  0
 96 95  1  0
 97 98  1  0
 97100  1  0
 99 97  1  0
M  ISO  4   8 100  16 100  51 101  52 101
M  END
>  <TORSDO>  (11) 
F 26

>  <SCORE>  (11) 
-11.953

>  <name>  (11) 
10

>  <ligand_id>  (11) 
10

>  <original_smiles>  (11) 
[H]c1c([H])c([H])c2c(c1[H])C([H])([H])C([H])([H])C([H])([H])C2([H])N([H])C(=O)C1([H])N(C(=O)C([H])(N([H])C(=O)C([H])(N([H])C([H])([H])[H])C([H])([H])[H])C(C([H])([H])[H])(C([H])([H])[H])C([H])([H])[H])C([H])([H])c2c([H])c(OC([H])([H])C([H])([H])N([H])C(=O)C([H])(N([H])C(=O)C([H])(N([H])C(=O)N3C([H])([H])C([H])([H])C([H])([H])C([H])(n4nc(-c5c([H])c([H])c(Oc6c([H])c([H])c(F)c([H])c6F)c([H])c5[H])c(C(=O)N([H])[H])c4N([H])[H])C3([H])[H])C([H])([H])[H])C([H])([H])C([H])([H])C([H])([H])C([H])([H])[N+]([H])([H])[H])c([H])c([H])c2C1([H])[H]

>  <smiles>  (11) 
[H]c1c([H])c([H])c2c(c1[H])C([H])([H])C([H])([H])C([H])([H])C2([H])N([H])C(=O)C1([H])N(C(=O)C([H])(N([H])C(=O)C([H])(N([H])C([H])([H])[H])C([H])([H])[H])C(C([H])([H])[H])(C([H])([H])[H])C([H])([H])[H])C([H])([H])c2c([H])c(OC([H])([H])C([H])([H])N([H])C(=O)C([H])(N([H])C(=O)C([H])(N([H])C(=O)N3C([H])([H])C([H])([H])C([H])([H])C([H])(n4nc(-c5c([H])c([H])c(Oc6c([H])c([H])c(F)c([H])c6F)c([H])c5[H])c(C(=O)N([H])[H])c4N([H])[H])C3([H])[H])C([H])([H])[H])C([H])([H])C([H])([H])C([H])([H])C([H])([H])[N+]([H])([H])[H])c([H])c([H])c2C1([H])[H]

$$$$
11:0:0
     RDKit          3D

 98105  0  0  1  0  0  0  0  0999 V2000
  -30.2230  -21.9960   14.4320 C   0  0  0  0  0  0  0  0  0  0  0  0
  -30.5690  -22.6650   13.3210 N   0  0  0  0  0  0  0  0  0  0  0  0
  -29.7830  -22.5610   15.4380 O   0  0  0  0  0  0  0  0  0  0  0  0
  -30.9870  -22.1260   12.5760 H   0  0  0  0  0  0  0  0  0  0  0  0
  -30.0940  -19.8610   13.0290 C   0  0  0  0  0  1  0  0  0  0  0  0
  -30.3740  -20.4590   14.4260 C   0  0  0  0  0  3  0  0  0  0  0  0
  -29.4460  -19.8870   15.4300 N   0  0  0  0  0  4  0  0  0  0  0  0
  -28.9640  -20.7140   15.7650 H   0  0  0  0  0  0  0  0  0  0  0  0
  -28.7360  -19.3330   14.9790 H   0  0  0  0  0  0  0  0  0  0  0  0
  -30.0420  -19.1780   16.5930 C   0  0  0  0  0  2  0  0  0  0  0  0
  -31.5700  -18.9590   16.4990 C   0  0  0  0  0  2  0  0  0  0  0  0
  -31.8130  -17.6120   16.0950 O   0  0  0  0  0  0  0  0  0  0  0  0
  -35.9730  -12.3910   18.5790 C   0  0  0  0  0  0  0  0  0  0  0  0
  -33.0800  -17.1440   16.3270 C   0  0  0  0  0  0  0  0  0  0  0  0
  -37.1280  -14.4840   17.9420 C   0  0  0  0  0  3  0  0  0  0  0  0
  -35.7130  -16.1860   16.6710 C   0  0  0  0  0  0  0  0  0  0  0  0
  -34.9320  -13.8150   16.8230 C   0  0  0  0  0  2  0  0  0  0  0  0
  -34.6350  -15.2900   16.6550 C   0  0  0  0  0  0  0  0  0  0  0  0
  -33.3170  -15.7630   16.4810 C   0  0  0  0  0  3  0  0  0  0  0  0
  -34.1690  -18.0410   16.3420 C   0  0  0  0  0  3  0  0  0  0  0  0
  -35.4860  -17.5650   16.5130 C   0  0  0  0  0  3  0  0  0  0  0  0
  -37.0920  -15.5940   16.8560 C   0  0  0  0  0  2  0  0  0  0  0  0
  -35.9840  -13.5250   17.8220 N   0  0  0  0  0  0  0  0  0  0  0  0
  -36.9140  -12.1160   19.3360 O   0  0  0  0  0  0  0  0  0  0  0  0
  -37.2190  -15.1610   19.3290 C   0  0  0  0  0  0  0  0  0  0  0  0
  -38.4430  -15.2410   19.8730 N   0  0  0  0  0  0  0  0  0  0  0  0
  -36.2130  -15.6260   19.8720 O   0  0  0  0  0  0  0  0  0  0  0  0
  -39.2130  -14.8120   19.3790 H   0  0  0  0  0  0  0  0  0  0  0  0
  -41.1550  -15.9270   22.1620 C   0  0  0  0  0  0  0  0  0  0  0  0
  -38.7790  -15.8800   21.1450 C   0  0  0  0  0  3  0  0  0  0  0  0
  -38.9200  -17.4080   20.9810 C   0  0  0  0  0  2  0  0  0  0  0  0
  -40.3600  -17.8700   20.7390 C   0  0  0  0  0  2  0  0  0  0  0  0
  -41.2840  -17.4130   21.8720 C   0  0  0  0  0  2  0  0  0  0  0  0
  -39.9840  -15.2060   21.8080 C   0  0  0  0  0  0  0  0  0  0  0  0
  -39.9290  -13.8200   22.0760 C   0  0  0  0  0  3  0  0  0  0  0  0
  -41.0130  -13.1600   22.6840 C   0  0  0  0  0  3  0  0  0  0  0  0
  -42.1650  -13.8810   23.0410 C   0  0  0  0  0  3  0  0  0  0  0  0
  -42.2330  -15.2640   22.7840 C   0  0  0  0  0  3  0  0  0  0  0  0
  -34.7880  -11.3750   18.5160 C   0  0  0  0  0  3  0  0  0  0  0  0
  -35.3630  -10.0460   18.2690 N   0  0  0  0  0  0  0  0  0  0  0  0
  -35.8500   -9.6370   17.0890 C   0  0  0  0  0  0  0  0  0  0  0  0
  -35.7910  -10.3220   16.0660 O   0  0  0  0  0  0  0  0  0  0  0  0
  -35.4870   -9.4530   19.0780 H   0  0  0  0  0  0  0  0  0  0  0  0
  -38.0280   -8.3830   17.1400 C   0  0  0  0  0  1  0  0  0  0  0  0
  -36.5020   -8.2410   17.0380 C   0  0  0  0  0  3  0  0  0  0  0  0
  -34.7800   -6.9800   15.8220 C   0  0  0  0  0  1  0  0  0  0  0  0
  -36.1550   -7.4770   15.8200 N   0  0  0  0  0  0  0  0  0  0  0  0
  -36.7760   -6.6810   15.7070 H   0  0  0  0  0  0  0  0  0  0  0  0
  -33.9050  -11.3690   19.8240 C   0  0  1  0  0  0  0  0  0  0  0  0
  -34.4160  -10.4060   20.9220 C   0  0  0  0  0  1  0  0  0  0  0  0
  -33.8350  -12.7870   20.4350 C   0  0  0  0  0  1  0  0  0  0  0  0
  -32.4550  -10.9610   19.4730 C   0  0  0  0  0  1  0  0  0  0  0  0
  -30.2880  -24.0680   13.0010 C   0  0  0  0  0  2  0  0  0  0  0  0
  -28.8070  -24.2840   12.6080 C   0  0  0  0  0  2  0  0  0  0  0  0
  -28.2020  -25.6240   13.1020 C   0  0  0  0  0  3  0  0  0  0  0  0
  -26.0300  -25.2810   11.8590 C   0  0  0  0  0  0  0  0  0  0  0  0
  -25.3900  -25.7390    9.5140 C   0  0  0  0  0  2  0  0  0  0  0  0
  -26.4100  -25.1080    8.5430 C   0  0  0  0  0  2  0  0  0  0  0  0
  -27.5900  -26.0650    8.2840 C   0  0  0  0  0  2  0  0  0  0  0  0
  -28.1890  -26.6210    9.5990 C   0  0  0  0  0  3  0  0  0  0  0  0
  -27.0600  -27.1700   10.4990 C   0  0  0  0  0  2  0  0  0  0  0  0
  -26.1070  -26.0800   10.7570 N   0  0  0  0  0  0  0  0  0  0  0  0
  -25.2380  -24.3410   11.9370 O   0  0  0  0  0  0  0  0  0  0  0  0
  -26.7390  -25.6100   12.9540 N   0  0  0  0  0  0  0  0  0  0  0  0
  -26.3010  -25.2480   13.7870 H   0  0  0  0  0  0  0  0  0  0  0  0
  -30.4670  -27.7750    9.9210 C   0  0  0  0  0  0  0  0  0  0  0  0
  -31.0490  -28.8350    9.2810 C   0  0  0  0  0  0  0  0  0  0  0  0
  -30.0990  -29.2790    8.3090 C   0  0  0  0  0  0  0  0  0  0  0  0
  -29.2170  -27.6250    9.3420 N   0  0  0  0  0  0  0  0  0  0  0  0
  -28.9800  -28.5770    8.4060 N   0  0  0  0  0  0  0  0  0  0  0  0
  -30.2090  -30.2980    7.2550 C   0  0  0  0  0  0  0  0  0  0  0  0
  -29.4680  -31.4990    7.3120 C   0  0  0  0  0  3  0  0  0  0  0  0
  -29.6010  -32.4710    6.2960 C   0  0  0  0  0  3  0  0  0  0  0  0
  -30.4840  -32.2520    5.2120 C   0  0  0  0  0  0  0  0  0  0  0  0
  -31.2040  -31.0450    5.1500 C   0  0  0  0  0  3  0  0  0  0  0  0
  -31.0670  -30.0770    6.1600 C   0  0  0  0  0  3  0  0  0  0  0  0
  -30.6540  -33.1270    4.1670 O   0  0  0  0  0  0  0  0  0  0  0  0
  -31.5920  -34.1270    4.2100 C   0  0  0  0  0  0  0  0  0  0  0  0
  -32.4370  -34.3080    5.3250 C   0  0  0  0  0  3  0  0  0  0  0  0
  -33.4340  -35.3050    5.3000 C   0  0  0  0  0  3  0  0  0  0  0  0
  -33.5910  -36.1130    4.1570 C   0  0  0  0  0  0  0  0  0  0  0  0
  -32.7540  -35.9300    3.0430 C   0  0  0  0  0  3  0  0  0  0  0  0
  -31.7600  -34.9360    3.0690 C   0  0  0  0  0  0  0  0  0  0  0  0
  -30.9680  -34.7490    1.9840 F   0  0  0  0  0  0  0  0  0  0  0  0
  -34.5520  -37.0650    4.1280 F   0  0  0  0  0  0  0  0  0  0  0  0
  -32.4450  -29.3500    9.4820 C   0  0  0  0  0  0  0  0  0  0  0  0
  -32.6210  -30.6650    9.4530 N   0  0  0  0  0  0  0  0  0  0  0  0
  -33.3780  -28.5830    9.7120 O   0  0  0  0  0  0  0  0  0  0  0  0
  -31.8490  -31.2940    9.2780 H   0  0  0  0  0  0  0  0  0  0  0  0
  -33.5400  -31.0550    9.6090 H   0  0  0  0  0  0  0  0  0  0  0  0
  -30.9030  -26.9170   10.9340 N   0  0  0  0  0  0  0  0  0  0  0  0
  -31.8950  -26.9770   11.1490 H   0  0  0  0  0  0  0  0  0  0  0  0
  -30.5990  -25.9510   10.8970 H   0  0  0  0  0  0  0  0  0  0  0  0
  -28.5260  -25.8410   14.5880 C   0  0  0  0  0  0  0  0  0  0  0  0
  -29.3780  -26.8020   14.9140 N   0  0  0  0  0  0  0  0  0  0  0  0
  -27.9790  -25.1580   15.4530 O   0  0  0  0  0  0  0  0  0  0  0  0
  -29.8170  -27.3990   14.2090 H   0  0  0  0  0  0  0  0  0  0  0  0
  -29.5490  -27.0030   15.8870 H   0  0  0  0  0  0  0  0  0  0  0  0
  1  3  2  0
  2  1  1  0
  4  2  1  0
  6  5  1  0
  6  1  1  0
  6  7  1  0
  7  8  1  0
  7 10  1  0
  9  7  1  0
 11 10  1  0
 12 14  1  0
 12 11  1  0
 13 24  2  0
 14 20  2  0
 14 19  1  0
 15 25  1  0
 16 22  1  0
 17 23  1  0
 18 16  1  0
 18 17  1  0
 19 18  2  0
 20 21  1  0
 21 16  2  0
 22 15  1  0
 23 15  1  0
 23 13  1  0
 25 27  2  0
 25 26  1  0
 28 26  1  0
 29 38  1  0
 30 26  1  0
 30 34  1  0
 31 30  1  0
 32 31  1  0
 32 33  1  0
 33 29  1  0
 34 35  1  0
 34 29  2  0
 35 36  2  0
 36 37  1  0
 38 37  2  0
 39 13  1  0
 39 49  1  0
 40 39  1  0
 40 43  1  0
 41 40  1  0
 42 41  2  0
 45 41  1  0
 45 44  1  0
 47 46  1  0
 47 45  1  0
 48 47  1  0
 49 51  1  1
 49 50  1  0
 52 49  1  0
 53  2  1  0
 54 53  1  0
 55 54  1  0
 55 94  1  0
 56 63  2  0
 56 64  1  0
 57 62  1  0
 58 57  1  0
 59 58  1  0
 60 59  1  0
 60 61  1  0
 61 62  1  0
 62 56  1  0
 64 55  1  0
 64 65  1  0
 66 91  1  0
 67 86  1  0
 67 66  2  0
 68 70  2  0
 68 67  1  0
 69 60  1  0
 69 66  1  0
 70 69  1  0
 71 72  1  0
 71 68  1  0
 73 72  2  0
 74 73  1  0
 75 74  2  0
 75 76  1  0
 76 71  2  0
 77 78  1  0
 77 74  1  0
 78 79  1  0
 80 79  2  0
 81 80  1  0
 82 83  1  0
 82 81  2  0
 83 78  2  0
 84 83  1  0
 85 81  1  0
 86 88  2  0
 87 86  1  0
 87 90  1  0
 89 87  1  0
 91 92  1  0
 93 91  1  0
 94 95  1  0
 94 96  2  0
 95 98  1  0
 97 95  1  0
M  ISO  4  11 101  12 101  56 100  64 100
M  END
>  <TORSDO>  (12) 
F 24

>  <SCORE>  (12) 
-4.108

>  <name>  (12) 
11

>  <ligand_id>  (12) 
11

>  <original_smiles>  (12) 
[H]c1c([H])c([H])c2c(c1[H])C([H])([H])C([H])([H])C([H])([H])C2([H])N([H])C(=O)C1([H])N(C(=O)C([H])(N([H])C(=O)C([H])(N([H])C([H])([H])[H])C([H])([H])[H])C(C([H])([H])[H])(C([H])([H])[H])C([H])([H])[H])C([H])([H])c2c([H])c(OC([H])([H])C([H])([H])[N+]([H])([H])C([H])(C(=O)N([H])C([H])([H])C([H])([H])C([H])(C(=O)N([H])[H])N([H])C(=O)N3C([H])([H])C([H])([H])C([H])([H])C([H])(n4nc(-c5c([H])c([H])c(Oc6c([H])c([H])c(F)c([H])c6F)c([H])c5[H])c(C(=O)N([H])[H])c4N([H])[H])C3([H])[H])C([H])([H])[H])c([H])c([H])c2C1([H])[H]

>  <smiles>  (12) 
[H]c1c([H])c([H])c2c(c1[H])C([H])([H])C([H])([H])C([H])([H])C2([H])N([H])C(=O)C1([H])N(C(=O)C([H])(N([H])C(=O)C([H])(N([H])C([H])([H])[H])C([H])([H])[H])C(C([H])([H])[H])(C([H])([H])[H])C([H])([H])[H])C([H])([H])c2c([H])c(OC([H])([H])C([H])([H])[N+]([H])([H])C([H])(C(=O)N([H])C([H])([H])C([H])([H])C([H])(C(=O)N([H])[H])N([H])C(=O)N3C([H])([H])C([H])([H])C([H])([H])C([H])(n4nc(-c5c([H])c([H])c(Oc6c([H])c([H])c(F)c([H])c6F)c([H])c5[H])c(C(=O)N([H])[H])c4N([H])[H])C3([H])[H])C([H])([H])[H])c([H])c([H])c2C1([H])[H]

$$$$
12:0:0
     RDKit          3D

 94102  0  0  1  0  0  0  0  0999 V2000
  -29.3870  -20.3360   18.5160 C   0  0  0  0  0  3  0  0  0  0  0  0
  -29.6570  -19.2270   20.6380 C   0  0  0  0  0  3  0  0  0  0  0  0
  -29.4520  -20.5350   19.9100 C   0  0  0  0  0  0  0  0  0  0  0  0
  -29.5680  -19.0560   17.9320 C   0  0  0  0  0  3  0  0  0  0  0  0
  -29.8270  -17.8590   20.0210 C   0  0  0  0  0  0  0  0  0  0  0  0
  -29.7810  -17.9350   18.6630 N   0  0  0  0  0  0  0  0  0  0  0  0
  -29.5360  -18.8790   16.5540 N   0  0  0  0  0  0  0  0  0  0  0  0
  -29.8840  -17.0620   18.1430 H   0  0  0  0  0  0  0  0  0  0  0  0
  -29.6260  -17.9740   16.1100 H   0  0  0  0  0  0  0  0  0  0  0  0
  -29.3510  -19.6520   15.9240 H   0  0  0  0  0  0  0  0  0  0  0  0
  -30.6880  -15.2270   20.4600 C   0  0  0  0  0  0  0  0  0  0  0  0
  -30.7010  -12.7820   19.7040 C   0  0  0  0  0  2  0  0  0  0  0  0
  -29.8420  -12.6110   18.4260 C   0  0  0  0  0  2  0  0  0  0  0  0
  -28.3640  -12.3780   18.7870 C   0  0  0  0  0  2  0  0  0  0  0  0
  -27.8670  -13.3550   19.8800 C   0  0  0  0  0  3  0  0  0  0  0  0
  -28.8570  -13.4810   21.0590 C   0  0  0  0  0  2  0  0  0  0  0  0
  -30.1430  -13.9270   20.5020 N   0  0  0  0  0  0  0  0  0  0  0  0
  -31.8920  -15.2680   20.1520 O   0  0  0  0  0  0  0  0  0  0  0  0
  -29.9050  -16.4290   20.6610 N   0  0  0  0  0  0  0  0  0  0  0  0
  -29.1060  -16.2330   21.2400 H   0  0  0  0  0  0  0  0  0  0  0  0
  -25.4570  -13.9140   20.5190 C   0  0  0  0  0  0  0  0  0  0  0  0
  -24.3870  -13.1320   20.8550 C   0  0  0  0  0  0  0  0  0  0  0  0
  -24.8660  -11.7860   20.8600 C   0  0  0  0  0  0  0  0  0  0  0  0
  -26.5160  -13.0430   20.3290 N   0  0  0  0  0  0  0  0  0  0  0  0
  -26.1690  -11.7590   20.6030 N   0  0  0  0  0  0  0  0  0  0  0  0
  -24.1430  -10.5190   21.0350 C   0  0  0  0  0  0  0  0  0  0  0  0
  -24.5450   -9.5650   21.9950 C   0  0  0  0  0  3  0  0  0  0  0  0
  -23.8200   -8.3640   22.1590 C   0  0  0  0  0  3  0  0  0  0  0  0
  -22.6780   -8.1120   21.3630 C   0  0  0  0  0  0  0  0  0  0  0  0
  -22.2950   -9.0550   20.3930 C   0  0  0  0  0  3  0  0  0  0  0  0
  -23.0200  -10.2470   20.2270 C   0  0  0  0  0  3  0  0  0  0  0  0
  -21.9260   -6.9630   21.4360 O   0  0  0  0  0  0  0  0  0  0  0  0
  -21.8420   -6.2300   22.5920 C   0  0  0  0  0  0  0  0  0  0  0  0
  -21.3520   -6.7860   23.7940 C   0  0  0  0  0  3  0  0  0  0  0  0
  -21.2180   -5.9780   24.9400 C   0  0  0  0  0  3  0  0  0  0  0  0
  -21.5610   -4.6150   24.8850 C   0  0  0  0  0  0  0  0  0  0  0  0
  -22.0440   -4.0570   23.6880 C   0  0  0  0  0  3  0  0  0  0  0  0
  -22.1810   -4.8630   22.5440 C   0  0  0  0  0  0  0  0  0  0  0  0
  -22.6250   -4.3160   21.3870 F   0  0  0  0  0  0  0  0  0  0  0  0
  -21.4250   -3.8360   25.9840 F   0  0  0  0  0  0  0  0  0  0  0  0
  -22.9770  -13.6000   21.0580 C   0  0  0  0  0  0  0  0  0  0  0  0
  -22.2180  -12.9100   21.9020 N   0  0  0  0  0  0  0  0  0  0  0  0
  -22.5560  -14.6160   20.5060 O   0  0  0  0  0  0  0  0  0  0  0  0
  -22.5710  -12.0880   22.3710 H   0  0  0  0  0  0  0  0  0  0  0  0
  -21.2700  -13.2090   22.0840 H   0  0  0  0  0  0  0  0  0  0  0  0
  -25.6140  -15.2830   20.3270 N   0  0  0  0  0  0  0  0  0  0  0  0
  -24.8200  -15.9130   20.3670 H   0  0  0  0  0  0  0  0  0  0  0  0
  -26.4390  -15.7150   19.9320 H   0  0  0  0  0  0  0  0  0  0  0  0
  -29.4130  -21.9710   20.4070 N   0  0  0  0  0  0  0  0  0  0  0  0
  -29.5290  -22.1000   22.8980 C   0  0  0  0  0  1  0  0  0  0  0  0
  -30.2870  -22.1680   21.5610 C   0  0  0  0  0  2  0  0  0  0  0  0
  -28.4200  -23.1960   20.1560 C   0  0  0  0  0  2  0  0  0  0  0  0
  -28.7470  -24.8130   19.6540 C   0  0  0  0  0  2  0  0  0  0  0  0
  -28.5090  -26.2840   20.1930 O   0  0  0  0  0  0  0  0  0  0  0  0
  -24.6930  -31.8560   23.1520 C   0  0  0  0  0  0  0  0  0  0  0  0
  -27.4150  -27.2310   20.0520 C   0  0  0  0  0  0  0  0  0  0  0  0
  -23.5340  -30.4420   21.4950 C   0  0  0  0  0  3  0  0  0  0  0  0
  -25.0310  -28.9250   20.0370 C   0  0  0  0  0  0  0  0  0  0  0  0
  -26.0780  -30.7810   21.3320 C   0  0  0  0  0  2  0  0  0  0  0  0
  -26.1930  -29.3980   20.6560 C   0  0  0  0  0  0  0  0  0  0  0  0
  -27.3760  -28.5630   20.6510 C   0  0  0  0  0  3  0  0  0  0  0  0
  -26.2290  -26.8690   19.3800 C   0  0  0  0  0  3  0  0  0  0  0  0
  -25.0650  -27.6790   19.3820 C   0  0  0  0  0  3  0  0  0  0  0  0
  -23.7740  -29.7860   20.1060 C   0  0  0  0  0  2  0  0  0  0  0  0
  -24.7870  -31.0510   22.0470 N   0  0  0  0  0  0  0  0  0  0  0  0
  -23.6000  -32.0990   23.6860 O   0  0  0  0  0  0  0  0  0  0  0  0
  -22.8880  -29.4060   22.4500 C   0  0  0  0  0  0  0  0  0  0  0  0
  -21.5700  -29.1770   22.3100 N   0  0  0  0  0  0  0  0  0  0  0  0
  -23.5770  -28.8100   23.2820 O   0  0  0  0  0  0  0  0  0  0  0  0
  -21.0680  -29.7140   21.6170 H   0  0  0  0  0  0  0  0  0  0  0  0
  -18.2500  -27.7860   22.7380 C   0  0  0  0  0  0  0  0  0  0  0  0
  -20.7830  -28.2000   23.0670 C   0  0  0  0  0  3  0  0  0  0  0  0
  -20.9820  -26.7720   22.5100 C   0  0  0  0  0  2  0  0  0  0  0  0
  -19.9280  -26.3780   21.4700 C   0  0  0  0  0  2  0  0  0  0  0  0
  -18.5240  -26.4460   22.0770 C   0  0  0  0  0  2  0  0  0  0  0  0
  -19.3110  -28.6170   23.1880 C   0  0  0  0  0  0  0  0  0  0  0  0
  -19.0010  -29.8670   23.7670 C   0  0  0  0  0  3  0  0  0  0  0  0
  -17.6650  -30.2880   23.8990 C   0  0  0  0  0  3  0  0  0  0  0  0
  -16.6200  -29.4560   23.4640 C   0  0  0  0  0  3  0  0  0  0  0  0
  -16.9130  -28.2060   22.8880 C   0  0  0  0  0  3  0  0  0  0  0  0
  -25.9500  -32.5270   23.7870 C   0  0  0  0  0  3  0  0  0  0  0  0
  -26.4820  -31.7630   25.0630 C   0  0  1  0  0  0  0  0  0  0  0  0
  -25.3930  -31.4910   26.1290 C   0  0  0  0  0  1  0  0  0  0  0  0
  -27.1040  -30.4020   24.6710 C   0  0  0  0  0  1  0  0  0  0  0  0
  -27.6110  -32.5850   25.7300 C   0  0  0  0  0  1  0  0  0  0  0  0
  -25.5960  -33.9130   24.1340 N   0  0  0  0  0  0  0  0  0  0  0  0
  -25.8940  -34.9880   23.3930 C   0  0  0  0  0  0  0  0  0  0  0  0
  -26.5630  -34.9190   22.3580 O   0  0  0  0  0  0  0  0  0  0  0  0
  -25.0020  -34.0380   24.9410 H   0  0  0  0  0  0  0  0  0  0  0  0
  -24.1100  -36.7360   23.0810 C   0  0  0  0  0  1  0  0  0  0  0  0
  -25.3720  -36.3580   23.8740 C   0  0  0  0  0  3  0  0  0  0  0  0
  -27.4850  -37.3000   24.6960 C   0  0  0  0  0  1  0  0  0  0  0  0
  -26.3710  -37.4430   23.7620 N   0  0  0  0  0  0  0  0  0  0  0  0
  -25.9380  -38.3480   23.9210 H   0  0  0  0  0  0  0  0  0  0  0  0
  1  3  2  0
  3 49  1  0
  3  2  1  0
  4  7  1  0
  4  1  1  0
  4  6  1  0
  5  2  2  0
  5 19  1  0
  6  5  1  0
  8  6  1  0
  9  7  1  0
 10  7  1  0
 11 17  1  0
 11 19  1  0
 12 17  1  0
 13 14  1  0
 13 12  1  0
 15 14  1  0
 15 24  1  0
 15 16  1  0
 17 16  1  0
 18 11  2  0
 19 20  1  0
 21 22  2  0
 22 23  1  0
 22 41  1  0
 23 26  1  0
 24 21  1  0
 24 25  1  0
 25 23  2  0
 26 27  1  0
 27 28  2  0
 29 32  1  0
 29 28  1  0
 30 29  2  0
 31 30  1  0
 31 26  2  0
 32 33  1  0
 33 34  1  0
 34 35  2  0
 36 35  1  0
 36 40  1  0
 37 36  2  0
 38 33  2  0
 38 37  1  0
 39 38  1  0
 41 42  1  0
 42 45  1  0
 42 44  1  0
 43 41  2  0
 46 47  1  0
 46 21  1  0
 48 46  1  0
 49 51  1  0
 51 50  1  0
 52 49  1  0
 53 52  1  0
 53 54  1  0
 55 66  2  0
 56 54  1  0
 56 61  1  0
 57 65  1  0
 57 67  1  0
 58 64  1  0
 58 60  1  0
 59 65  1  0
 60 59  1  0
 61 60  2  0
 62 63  1  0
 62 56  2  0
 63 58  2  0
 64 57  1  0
 65 55  1  0
 67 69  2  0
 68 67  1  0
 70 68  1  0
 71 80  2  0
 71 76  1  0
 72 68  1  0
 72 76  1  0
 73 72  1  0
 74 75  1  0
 74 73  1  0
 75 71  1  0
 76 77  2  0
 77 78  1  0
 79 78  2  0
 80 79  1  0
 81 55  1  0
 81 86  1  0
 81 82  1  0
 82 85  1  1
 82 83  1  0
 84 82  1  0
 86 89  1  0
 87 91  1  0
 87 86  1  0
 88 87  2  0
 91 90  1  0
 93 91  1  0
 93 94  1  0
 93 92  1  0
M  ISO  4  11 100  19 100  53 101  54 101
M  END
>  <TORSDO>  (13) 
F 20

>  <SCORE>  (13) 
-14.565

>  <name>  (13) 
12

>  <ligand_id>  (13) 
12

>  <original_smiles>  (13) 
[H]c1c([H])c([H])c2c(c1[H])C([H])([H])C([H])([H])C([H])([H])C2([H])N([H])C(=O)C1([H])N(C(=O)C([H])(N([H])C(=O)C([H])(N([H])C([H])([H])[H])C([H])([H])[H])C(C([H])([H])[H])(C([H])([H])[H])C([H])([H])[H])C([H])([H])c2c([H])c(OC([H])([H])C([H])([H])N(c3c([H])c(N([H])[H])[n+]([H])c(N([H])C(=O)N4C([H])([H])C([H])([H])C([H])([H])C([H])(n5nc(-c6c([H])c([H])c(Oc7c([H])c([H])c(F)c([H])c7F)c([H])c6[H])c(C(=O)N([H])[H])c5N([H])[H])C4([H])[H])c3[H])C([H])([H])C([H])([H])[H])c([H])c([H])c2C1([H])[H]

>  <smiles>  (13) 
[H]c1c([H])c([H])c2c(c1[H])C([H])([H])C([H])([H])C([H])([H])C2([H])N([H])C(=O)C1([H])N(C(=O)C([H])(N([H])C(=O)C([H])(N([H])C([H])([H])[H])C([H])([H])[H])C(C([H])([H])[H])(C([H])([H])[H])C([H])([H])[H])C([H])([H])c2c([H])c(OC([H])([H])C([H])([H])N(c3c([H])c(N([H])[H])[n+]([H])c(N([H])C(=O)N4C([H])([H])C([H])([H])C([H])([H])C([H])(n5nc(-c6c([H])c([H])c(Oc7c([H])c([H])c(F)c([H])c7F)c([H])c6[H])c(C(=O)N([H])[H])c5N([H])[H])C4([H])[H])c3[H])C([H])([H])C([H])([H])[H])c([H])c([H])c2C1([H])[H]

$$$$
13:0:0
     RDKit          3D

 95102  0  0  1  0  0  0  0  0999 V2000
  -30.1670  -19.5500   21.7720 C   0  0  0  0  0  0  0  0  0  0  0  0
  -29.7230  -20.8110   21.7760 N   0  0  0  0  0  0  0  0  0  0  0  0
  -31.0410  -19.1400   22.5390 O   0  0  0  0  0  0  0  0  0  0  0  0
  -29.0100  -21.0610   21.1060 H   0  0  0  0  0  0  0  0  0  0  0  0
  -28.0470  -19.0590   20.4060 C   0  0  0  0  0  1  0  0  0  0  0  0
  -29.4820  -18.5970   20.7780 C   0  0  0  0  0  3  0  0  0  0  0  0
  -30.3310  -18.1830   19.5450 C   0  0  0  0  0  3  0  0  0  0  0  0
  -30.8530  -19.3120   18.7460 N   0  0  0  0  0  4  0  0  0  0  0  0
  -31.5120  -19.8820   19.2470 H   0  0  0  0  0  0  0  0  0  0  0  0
  -30.1050  -19.9010   18.4270 H   0  0  0  0  0  0  0  0  0  0  0  0
  -31.3190  -18.9600   17.9270 H   0  0  0  0  0  0  0  0  0  0  0  0
  -31.1180  -15.9340   20.3440 C   0  0  0  0  0  3  0  0  0  0  0  0
  -31.4210  -17.1380   19.8190 C   0  0  0  0  0  3  0  0  0  0  0  0
  -32.0520  -14.7980   20.4040 C   0  0  0  0  0  0  0  0  0  0  0  0
  -31.9180  -12.3520   20.1400 C   0  0  0  0  0  2  0  0  0  0  0  0
  -31.0980  -12.0660   18.8530 C   0  0  0  0  0  2  0  0  0  0  0  0
  -29.5690  -12.0890   19.1130 C   0  0  0  0  0  2  0  0  0  0  0  0
  -29.1260  -13.3200   19.9500 C   0  0  0  0  0  3  0  0  0  0  0  0
  -30.0420  -13.4620   21.1830 C   0  0  0  0  0  2  0  0  0  0  0  0
  -31.4310  -13.6160   20.7060 N   0  0  0  0  0  0  0  0  0  0  0  0
  -33.2310  -14.8510   20.0380 O   0  0  0  0  0  0  0  0  0  0  0  0
  -26.8150  -14.2960   20.5120 C   0  0  0  0  0  0  0  0  0  0  0  0
  -25.6180  -13.6960   20.8030 C   0  0  0  0  0  0  0  0  0  0  0  0
  -25.8640  -12.2880   20.7690 C   0  0  0  0  0  0  0  0  0  0  0  0
  -27.7200  -13.2580   20.3300 N   0  0  0  0  0  0  0  0  0  0  0  0
  -27.1490  -12.0460   20.5410 N   0  0  0  0  0  0  0  0  0  0  0  0
  -24.9430  -11.1560   20.8910 C   0  0  0  0  0  0  0  0  0  0  0  0
  -25.1840  -10.1090   21.8070 C   0  0  0  0  0  3  0  0  0  0  0  0
  -24.2790   -9.0340   21.9120 C   0  0  0  0  0  3  0  0  0  0  0  0
  -23.1170   -9.0020   21.1080 C   0  0  0  0  0  0  0  0  0  0  0  0
  -22.8880  -10.0400   20.1890 C   0  0  0  0  0  3  0  0  0  0  0  0
  -23.7920  -11.1080   20.0780 C   0  0  0  0  0  3  0  0  0  0  0  0
  -22.1910   -7.9880   21.1280 O   0  0  0  0  0  0  0  0  0  0  0  0
  -21.9630   -7.2410   22.2570 C   0  0  0  0  0  0  0  0  0  0  0  0
  -21.5620   -7.8370   23.4720 C   0  0  0  0  0  3  0  0  0  0  0  0
  -21.2720   -7.0310   24.5930 C   0  0  0  0  0  3  0  0  0  0  0  0
  -21.3710   -5.6300   24.4960 C   0  0  0  0  0  0  0  0  0  0  0  0
  -21.7620   -5.0320   23.2850 C   0  0  0  0  0  3  0  0  0  0  0  0
  -22.0550   -5.8370   22.1680 C   0  0  0  0  0  0  0  0  0  0  0  0
  -22.4110   -5.2540   20.9980 F   0  0  0  0  0  0  0  0  0  0  0  0
  -21.0830   -4.8560   25.5700 F   0  0  0  0  0  0  0  0  0  0  0  0
  -24.2960  -14.3810   20.9920 C   0  0  0  0  0  0  0  0  0  0  0  0
  -23.4180  -13.8210   21.8170 N   0  0  0  0  0  0  0  0  0  0  0  0
  -24.0500  -15.4500   20.4320 O   0  0  0  0  0  0  0  0  0  0  0  0
  -23.6290  -12.9670   22.3030 H   0  0  0  0  0  0  0  0  0  0  0  0
  -22.5210  -14.2580   21.9770 H   0  0  0  0  0  0  0  0  0  0  0  0
  -27.1940  -15.6290   20.3580 N   0  0  0  0  0  0  0  0  0  0  0  0
  -26.4830  -16.3550   20.3140 H   0  0  0  0  0  0  0  0  0  0  0  0
  -28.0550  -15.8920   19.8960 H   0  0  0  0  0  0  0  0  0  0  0  0
  -29.9770  -21.7950   22.8130 C   0  0  0  0  0  2  0  0  0  0  0  0
  -29.0380  -22.9870   22.5980 C   0  0  0  0  0  2  0  0  0  0  0  0
  -29.4210  -23.6550   21.4070 O   0  0  0  0  0  0  0  0  0  0  0  0
  -28.5370  -24.7190   21.0760 C   0  0  0  0  0  2  0  0  0  0  0  0
  -29.2320  -25.6500   20.0660 C   0  0  0  0  0  2  0  0  0  0  0  0
  -29.0770  -27.0260   20.4200 O   0  0  0  0  0  0  0  0  0  0  0  0
  -24.6730  -31.7950   23.2990 C   0  0  0  0  0  0  0  0  0  0  0  0
  -27.8330  -27.6120   20.3480 C   0  0  0  0  0  0  0  0  0  0  0  0
  -23.6880  -30.3500   21.5470 C   0  0  0  0  0  3  0  0  0  0  0  0
  -25.3420  -28.9450   20.2130 C   0  0  0  0  0  0  0  0  0  0  0  0
  -26.1910  -30.8830   21.5440 C   0  0  0  0  0  2  0  0  0  0  0  0
  -26.4120  -29.5350   20.8920 C   0  0  0  0  0  0  0  0  0  0  0  0
  -27.6580  -28.8760   20.9570 C   0  0  0  0  0  3  0  0  0  0  0  0
  -26.7350  -27.0260   19.6740 C   0  0  0  0  0  3  0  0  0  0  0  0
  -25.4950  -27.6880   19.6050 C   0  0  0  0  0  3  0  0  0  0  0  0
  -24.0440  -29.7180   20.1760 C   0  0  0  0  0  2  0  0  0  0  0  0
  -24.8620  -31.0240   22.1880 N   0  0  0  0  0  0  0  0  0  0  0  0
  -23.5390  -31.9820   23.7620 O   0  0  0  0  0  0  0  0  0  0  0  0
  -23.0440  -29.2640   22.4390 C   0  0  0  0  0  0  0  0  0  0  0  0
  -21.7340  -29.0390   22.2540 N   0  0  0  0  0  0  0  0  0  0  0  0
  -23.7200  -28.6320   23.2550 O   0  0  0  0  0  0  0  0  0  0  0  0
  -21.2470  -29.6090   21.5770 H   0  0  0  0  0  0  0  0  0  0  0  0
  -18.3760  -27.7610   22.6260 C   0  0  0  0  0  0  0  0  0  0  0  0
  -20.9250  -28.0410   22.9520 C   0  0  0  0  0  3  0  0  0  0  0  0
  -21.0600  -26.6500   22.2860 C   0  0  0  0  0  2  0  0  0  0  0  0
  -19.9760  -26.3750   21.2400 C   0  0  0  0  0  2  0  0  0  0  0  0
  -18.5830  -26.4600   21.8700 C   0  0  0  0  0  2  0  0  0  0  0  0
  -19.4760  -28.5120   23.1200 C   0  0  0  0  0  0  0  0  0  0  0  0
  -19.2280  -29.7320   23.7830 C   0  0  0  0  0  3  0  0  0  0  0  0
  -17.9140  -30.2020   23.9600 C   0  0  0  0  0  3  0  0  0  0  0  0
  -16.8280  -29.4470   23.4840 C   0  0  0  0  0  3  0  0  0  0  0  0
  -17.0600  -28.2280   22.8210 C   0  0  0  0  0  3  0  0  0  0  0  0
  -25.8640  -32.4940   24.0230 C   0  0  0  0  0  3  0  0  0  0  0  0
  -26.2760  -31.7910   25.3740 C   0  0  1  0  0  0  0  0  0  0  0  0
  -25.0890  -31.5380   26.3330 C   0  0  0  0  0  1  0  0  0  0  0  0
  -26.9520  -30.4280   25.0910 C   0  0  0  0  0  1  0  0  0  0  0  0
  -27.3140  -32.6570   26.1250 C   0  0  0  0  0  1  0  0  0  0  0  0
  -25.4740  -33.8900   24.2650 N   0  0  0  0  0  0  0  0  0  0  0  0
  -25.8360  -34.9260   23.4970 C   0  0  0  0  0  0  0  0  0  0  0  0
  -26.6040  -34.8140   22.5390 O   0  0  0  0  0  0  0  0  0  0  0  0
  -24.8050  -34.0510   25.0030 H   0  0  0  0  0  0  0  0  0  0  0  0
  -24.0710  -36.6230   22.9190 C   0  0  0  0  0  1  0  0  0  0  0  0
  -25.2540  -36.3090   23.8470 C   0  0  0  0  0  3  0  0  0  0  0  0
  -27.2680  -37.3270   24.8160 C   0  0  0  0  0  1  0  0  0  0  0  0
  -26.2490  -37.4020   23.7730 N   0  0  0  0  0  0  0  0  0  0  0  0
  -25.7920  -38.3070   23.8420 H   0  0  0  0  0  0  0  0  0  0  0  0
  1  2  1  0
  1  3  2  0
  2 50  1  0
  4  2  1  0
  6  5  1  0
  6  1  1  0
  7 13  1  0
  7  6  1  0
  8  9  1  0
  8  7  1  0
 10  8  1  0
 11  8  1  0
 12 14  1  0
 13 12  2  0
 14 20  1  0
 15 20  1  0
 16 17  1  0
 16 15  1  0
 18 17  1  0
 18 25  1  0
 18 19  1  0
 20 19  1  0
 21 14  2  0
 22 23  2  0
 23 42  1  0
 24 23  1  0
 24 27  1  0
 25 22  1  0
 25 26  1  0
 26 24  2  0
 27 28  1  0
 28 29  2  0
 30 33  1  0
 30 29  1  0
 31 30  2  0
 32 31  1  0
 32 27  2  0
 33 34  1  0
 34 35  1  0
 35 36  2  0
 37 36  1  0
 37 41  1  0
 38 37  2  0
 39 34  2  0
 39 38  1  0
 40 39  1  0
 42 43  1  0
 43 46  1  0
 43 45  1  0
 44 42  2  0
 47 22  1  0
 48 47  1  0
 49 47  1  0
 51 50  1  0
 52 51  1  0
 53 52  1  0
 54 55  1  0
 54 53  1  0
 56 67  2  0
 57 55  1  0
 57 62  1  0
 58 66  1  0
 58 68  1  0
 59 61  1  0
 60 66  1  0
 61 62  2  0
 61 60  1  0
 63 57  2  0
 64 63  1  0
 64 59  2  0
 65 59  1  0
 65 58  1  0
 66 56  1  0
 68 70  2  0
 69 68  1  0
 71 69  1  0
 72 81  2  0
 72 77  1  0
 73 69  1  0
 73 77  1  0
 74 73  1  0
 75 76  1  0
 75 74  1  0
 76 72  1  0
 77 78  2  0
 78 79  1  0
 80 79  2  0
 81 80  1  0
 82 56  1  0
 82 87  1  0
 82 83  1  0
 83 86  1  1
 83 84  1  0
 85 83  1  0
 87 90  1  0
 88 92  1  0
 88 87  1  0
 89 88  2  0
 92 91  1  0
 94 95  1  0
 94 92  1  0
 94 93  1  0
M  ISO  4  12 100  14 100  54 101  55 101
M  END
>  <TORSDO>  (14) 
F 25

>  <SCORE>  (14) 
-10.760

>  <name>  (14) 
13

>  <ligand_id>  (14) 
13

>  <original_smiles>  (14) 
[H]C(C(=O)N1C([H])([H])C([H])([H])C([H])([H])C([H])(n2nc(-c3c([H])c([H])c(Oc4c([H])c([H])c(F)c([H])c4F)c([H])c3[H])c(C(=O)N([H])[H])c2N([H])[H])C1([H])[H])=C([H])C([H])(C([H])(C(=O)N([H])C([H])([H])C([H])([H])OC([H])([H])C([H])([H])Oc1c([H])c([H])c2c(c1[H])C([H])([H])N(C(=O)C([H])(N([H])C(=O)C([H])(N([H])C([H])([H])[H])C([H])([H])[H])C(C([H])([H])[H])(C([H])([H])[H])C([H])([H])[H])C([H])(C(=O)N([H])C1([H])c3c([H])c([H])c([H])c([H])c3C([H])([H])C([H])([H])C1([H])[H])C2([H])[H])C([H])([H])[H])[N+]([H])([H])[H]

>  <smiles>  (14) 
[H]C(C(=O)N1C([H])([H])C([H])([H])C([H])([H])C([H])(n2nc(-c3c([H])c([H])c(Oc4c([H])c([H])c(F)c([H])c4F)c([H])c3[H])c(C(=O)N([H])[H])c2N([H])[H])C1([H])[H])=C([H])C([H])(C([H])(C(=O)N([H])C([H])([H])C([H])([H])OC([H])([H])C([H])([H])Oc1c([H])c([H])c2c(c1[H])C([H])([H])N(C(=O)C([H])(N([H])C(=O)C([H])(N([H])C([H])([H])[H])C([H])([H])[H])C(C([H])([H])[H])(C([H])([H])[H])C([H])([H])[H])C([H])(C(=O)N([H])C1([H])c3c([H])c([H])c([H])c([H])c3C([H])([H])C([H])([H])C1([H])[H])C2([H])[H])C([H])([H])[H])[N+]([H])([H])[H]

$$$$
14:0:0
     RDKit          3D

 93100  0  0  1  0  0  0  0  0999 V2000
  -28.9250  -21.7520   20.4590 C   0  0  0  0  0  3  0  0  0  0  0  0
  -29.6620  -21.6900   21.7950 C   0  0  0  0  0  0  0  0  0  0  0  0
  -30.9750  -21.5210   21.7380 N   0  0  0  0  0  0  0  0  0  0  0  0
  -29.0640  -21.7790   22.8650 O   0  0  0  0  0  0  0  0  0  0  0  0
  -31.4250  -21.4450   20.8380 H   0  0  0  0  0  0  0  0  0  0  0  0
  -31.5260  -21.4680   22.5820 H   0  0  0  0  0  0  0  0  0  0  0  0
  -29.5250  -19.0680   19.4780 C   0  0  0  0  0  0  0  0  0  0  0  0
  -29.2590  -20.4810   19.5690 N   0  0  0  0  0  0  0  0  0  0  0  0
  -29.5620  -18.6770   18.3120 O   0  0  0  0  0  0  0  0  0  0  0  0
  -29.2170  -20.7930   18.6110 H   0  0  0  0  0  0  0  0  0  0  0  0
  -31.1570  -18.0350   21.2780 C   0  0  0  0  0  1  0  0  0  0  0  0
  -29.8340  -17.8250   20.5250 C   0  0  0  0  0  0  0  0  0  0  0  0
  -30.4590  -15.0980   20.0080 C   0  0  0  0  0  0  0  0  0  0  0  0
  -30.3150  -12.7450   19.0450 C   0  0  0  0  0  2  0  0  0  0  0  0
  -29.3110  -12.6840   17.8700 C   0  0  0  0  0  2  0  0  0  0  0  0
  -27.8760  -12.4610   18.3850 C   0  0  0  0  0  2  0  0  0  0  0  0
  -27.5280  -13.3850   19.5800 C   0  0  0  0  0  3  0  0  0  0  0  0
  -28.6440  -13.3990   20.6450 C   0  0  0  0  0  2  0  0  0  0  0  0
  -29.8710  -13.8320   19.9630 N   0  0  0  0  0  0  0  0  0  0  0  0
  -31.6570  -15.1660   19.7050 O   0  0  0  0  0  0  0  0  0  0  0  0
  -29.6600  -16.2620   20.2260 N   0  0  0  0  0  4  0  0  0  0  0  0
  -28.6890  -15.9990   20.3000 H   0  0  0  0  0  0  0  0  0  0  0  0
  -25.2000  -13.9600   20.4740 C   0  0  0  0  0  0  0  0  0  0  0  0
  -24.1540  -13.1830   20.8860 C   0  0  0  0  0  0  0  0  0  0  0  0
  -24.6060  -11.8300   20.7960 C   0  0  0  0  0  0  0  0  0  0  0  0
  -26.2200  -13.0820   20.1520 N   0  0  0  0  0  0  0  0  0  0  0  0
  -25.8770  -11.7940   20.4110 N   0  0  0  0  0  0  0  0  0  0  0  0
  -23.8800  -10.5680   20.9930 C   0  0  0  0  0  0  0  0  0  0  0  0
  -24.3260   -9.5960   21.9150 C   0  0  0  0  0  3  0  0  0  0  0  0
  -23.6000   -8.4000   22.1020 C   0  0  0  0  0  3  0  0  0  0  0  0
  -22.4140   -8.1680   21.3670 C   0  0  0  0  0  0  0  0  0  0  0  0
  -21.9860   -9.1280   20.4340 C   0  0  0  0  0  3  0  0  0  0  0  0
  -22.7140  -10.3160   20.2450 C   0  0  0  0  0  3  0  0  0  0  0  0
  -21.6570   -7.0240   21.4650 O   0  0  0  0  0  0  0  0  0  0  0  0
  -21.6000   -6.2960   22.6260 C   0  0  0  0  0  0  0  0  0  0  0  0
  -21.1170   -6.8520   23.8310 C   0  0  0  0  0  3  0  0  0  0  0  0
  -21.0110   -6.0480   24.9830 C   0  0  0  0  0  3  0  0  0  0  0  0
  -21.3770   -4.6900   24.9310 C   0  0  0  0  0  0  0  0  0  0  0  0
  -21.8520   -4.1330   23.7310 C   0  0  0  0  0  3  0  0  0  0  0  0
  -21.9600   -4.9350   22.5810 C   0  0  0  0  0  0  0  0  0  0  0  0
  -22.3990   -4.3890   21.4210 F   0  0  0  0  0  0  0  0  0  0  0  0
  -21.2670   -3.9160   26.0370 F   0  0  0  0  0  0  0  0  0  0  0  0
  -22.7770  -13.6620   21.2430 C   0  0  0  0  0  0  0  0  0  0  0  0
  -22.0870  -12.9430   22.1220 N   0  0  0  0  0  0  0  0  0  0  0  0
  -22.3250  -14.7080   20.7810 O   0  0  0  0  0  0  0  0  0  0  0  0
  -22.4670  -12.0960   22.5170 H   0  0  0  0  0  0  0  0  0  0  0  0
  -21.1640  -13.2450   22.4040 H   0  0  0  0  0  0  0  0  0  0  0  0
  -25.3610  -15.3340   20.3160 N   0  0  0  0  0  0  0  0  0  0  0  0
  -24.5950  -15.9810   20.4700 H   0  0  0  0  0  0  0  0  0  0  0  0
  -26.1650  -15.7700   19.8860 H   0  0  0  0  0  0  0  0  0  0  0  0
  -28.9200  -23.3450   19.8200 C   0  0  0  0  0  3  0  0  0  0  0  0
  -28.1220  -24.7260   20.4300 C   0  0  0  0  0  3  0  0  0  0  0  0
  -28.3270  -26.2560   20.1080 O   0  0  0  0  0  0  0  0  0  0  0  0
  -24.6380  -31.9030   23.1960 C   0  0  0  0  0  0  0  0  0  0  0  0
  -27.2520  -27.2280   20.1100 C   0  0  0  0  0  0  0  0  0  0  0  0
  -23.4440  -30.5050   21.5540 C   0  0  0  0  0  3  0  0  0  0  0  0
  -24.9010  -28.9550   20.1090 C   0  0  0  0  0  0  0  0  0  0  0  0
  -25.9950  -30.8010   21.3720 C   0  0  0  0  0  2  0  0  0  0  0  0
  -26.0810  -29.4100   20.7100 C   0  0  0  0  0  0  0  0  0  0  0  0
  -27.2580  -28.5670   20.6890 C   0  0  0  0  0  3  0  0  0  0  0  0
  -26.0440  -26.8800   19.4700 C   0  0  0  0  0  3  0  0  0  0  0  0
  -24.8960  -27.7050   19.4710 C   0  0  0  0  0  3  0  0  0  0  0  0
  -23.6640  -29.8400   20.1700 C   0  0  0  0  0  2  0  0  0  0  0  0
  -24.7130  -31.0920   22.0950 N   0  0  0  0  0  0  0  0  0  0  0  0
  -23.5520  -32.1680   23.7350 O   0  0  0  0  0  0  0  0  0  0  0  0
  -22.7850  -29.4830   22.5150 C   0  0  0  0  0  0  0  0  0  0  0  0
  -21.4640  -29.2690   22.3720 N   0  0  0  0  0  0  0  0  0  0  0  0
  -23.4640  -28.8840   23.3530 O   0  0  0  0  0  0  0  0  0  0  0  0
  -20.9700  -29.8030   21.6720 H   0  0  0  0  0  0  0  0  0  0  0  0
  -18.1260  -27.9330   22.8120 C   0  0  0  0  0  0  0  0  0  0  0  0
  -20.6630  -28.3100   23.1390 C   0  0  0  0  0  3  0  0  0  0  0  0
  -20.8410  -26.8740   22.5900 C   0  0  0  0  0  2  0  0  0  0  0  0
  -19.7800  -26.4890   21.5540 C   0  0  0  0  0  2  0  0  0  0  0  0
  -18.3770  -26.5840   22.1620 C   0  0  0  0  0  2  0  0  0  0  0  0
  -19.2000  -28.7500   23.2570 C   0  0  0  0  0  0  0  0  0  0  0  0
  -18.9090  -30.0100   23.8250 C   0  0  0  0  0  3  0  0  0  0  0  0
  -17.5800  -30.4530   23.9550 C   0  0  0  0  0  3  0  0  0  0  0  0
  -16.5210  -29.6340   23.5260 C   0  0  0  0  0  3  0  0  0  0  0  0
  -16.7950  -28.3770   22.9600 C   0  0  0  0  0  3  0  0  0  0  0  0
  -25.9120  -32.5510   23.8190 C   0  0  0  0  0  3  0  0  0  0  0  0
  -25.5910  -33.9510   24.1440 N   0  0  0  0  0  0  0  0  0  0  0  0
  -25.9190  -35.0060   23.3880 C   0  0  0  0  0  0  0  0  0  0  0  0
  -26.5890  -34.9050   22.3570 O   0  0  0  0  0  0  0  0  0  0  0  0
  -24.9960  -34.1020   24.9450 H   0  0  0  0  0  0  0  0  0  0  0  0
  -24.1910  -36.8010   23.0270 C   0  0  0  0  0  1  0  0  0  0  0  0
  -25.4270  -36.3950   23.8450 C   0  0  0  0  0  3  0  0  0  0  0  0
  -27.5510  -37.2880   24.6970 C   0  0  0  0  0  1  0  0  0  0  0  0
  -26.4590  -37.4490   23.7390 N   0  0  0  0  0  0  0  0  0  0  0  0
  -26.0500  -38.3700   23.8770 H   0  0  0  0  0  0  0  0  0  0  0  0
  -26.4260  -31.7930   25.1060 C   0  0  1  0  0  0  0  0  0  0  0  0
  -25.3280  -31.5600   26.1710 C   0  0  0  0  0  1  0  0  0  0  0  0
  -27.0190  -30.4150   24.7340 C   0  0  0  0  0  1  0  0  0  0  0  0
  -27.5690  -32.6000   25.7660 C   0  0  0  0  0  1  0  0  0  0  0  0
  1 51  1  0
  1  2  1  0
  2  4  2  0
  3  2  1  0
  3  6  1  0
  5  3  1  0
  7  8  1  0
  7 12  1  0
  8  1  1  0
  9  7  2  0
 10  8  1  0
 12 11  1  0
 13 21  1  0
 14 19  1  0
 15 16  1  0
 15 14  1  0
 17 16  1  0
 17 26  1  0
 17 18  1  0
 19 13  1  0
 19 18  1  0
 20 13  2  0
 21 22  1  0
 21 12  2  0
 23 24  2  0
 24 43  1  0
 25 24  1  0
 25 28  1  0
 26 27  1  0
 26 23  1  0
 27 25  2  0
 28 29  1  0
 29 30  2  0
 31 34  1  0
 31 30  1  0
 32 31  2  0
 33 32  1  0
 33 28  2  0
 34 35  1  0
 35 36  1  0
 36 37  2  0
 38 37  1  0
 38 42  1  0
 39 38  2  0
 40 35  2  0
 40 39  1  0
 41 40  1  0
 43 44  1  0
 44 47  1  0
 44 46  1  0
 45 43  2  0
 48 49  1  0
 48 23  1  0
 50 48  1  0
 51 52  2  0
 53 55  1  0
 53 52  1  0
 54 65  2  0
 55 60  1  0
 56 64  1  0
 56 66  1  0
 57 63  1  0
 57 59  1  0
 58 64  1  0
 59 58  1  0
 60 59  2  0
 61 62  1  0
 61 55  2  0
 62 57  2  0
 63 56  1  0
 64 54  1  0
 66 68  2  0
 67 66  1  0
 69 67  1  0
 70 79  2  0
 70 75  1  0
 71 67  1  0
 71 75  1  0
 72 71  1  0
 73 74  1  0
 73 72  1  0
 74 70  1  0
 75 76  2  0
 76 77  1  0
 78 77  2  0
 79 78  1  0
 80 54  1  0
 80 81  1  0
 80 90  1  0
 81 84  1  0
 82 86  1  0
 82 81  1  0
 83 82  2  0
 86 85  1  0
 88 86  1  0
 88 89  1  0
 88 87  1  0
 90 93  1  1
 90 91  1  0
 92 90  1  0
M  ISO  4  13 100  21 100  52 101  53 101
M  END
>  <TORSDO>  (15) 
F 21

>  <SCORE>  (15) 
-14.563

>  <name>  (15) 
14

>  <ligand_id>  (15) 
14

>  <original_smiles>  (15) 
[H]c1c([H])c([H])c2c(c1[H])C([H])([H])C([H])([H])C([H])([H])C2([H])N([H])C(=O)C1([H])N(C(=O)C([H])(N([H])C(=O)C([H])(N([H])C([H])([H])[H])C([H])([H])[H])C(C([H])([H])[H])(C([H])([H])[H])C([H])([H])[H])C([H])([H])c2c([H])c(OC([H])([H])C([H])([H])C([H])(C(=O)N([H])[H])N([H])C(=O)C([H])(N([H])C(=O)N3C([H])([H])C([H])([H])C([H])([H])C([H])(n4nc(-c5c([H])c([H])c(Oc6c([H])c([H])c(F)c([H])c6F)c([H])c5[H])c(C(=O)N([H])[H])c4N([H])[H])C3([H])[H])C([H])([H])[H])c([H])c([H])c2C1([H])[H]

>  <smiles>  (15) 
[H]c1c([H])c([H])c2c(c1[H])C([H])([H])C([H])([H])C([H])([H])C2([H])N([H])C(=O)C1([H])N(C(=O)C([H])(N([H])C(=O)C([H])(N([H])C([H])([H])[H])C([H])([H])[H])C(C([H])([H])[H])(C([H])([H])[H])C([H])([H])[H])C([H])([H])c2c([H])c(OC([H])([H])C([H])([H])C([H])(C(=O)N([H])[H])N([H])C(=O)C([H])(N([H])C(=O)N3C([H])([H])C([H])([H])C([H])([H])C([H])(n4nc(-c5c([H])c([H])c(Oc6c([H])c([H])c(F)c([H])c6F)c([H])c5[H])c(C(=O)N([H])[H])c4N([H])[H])C3([H])[H])C([H])([H])[H])c([H])c([H])c2C1([H])[H]

$$$$
15:0:0
     RDKit          3D

 96103  0  0  1  0  0  0  0  0999 V2000
  -27.6690  -20.4130   21.8020 C   0  0  0  0  0  1  0  0  0  0  0  0
  -28.0550  -20.4750   20.3070 C   0  0  0  0  0  3  0  0  0  0  0  0
  -29.1630  -18.1370   20.3070 C   0  0  0  0  0  0  0  0  0  0  0  0
  -28.3960  -19.1820   18.2180 C   0  0  0  0  0  1  0  0  0  0  0  0
  -28.5560  -19.2000   19.6800 N   0  0  0  0  0  0  0  0  0  0  0  0
  -29.0760  -17.9520   21.5230 O   0  0  0  0  0  0  0  0  0  0  0  0
  -30.0830  -17.1340   19.5240 C   0  0  0  0  0  3  0  0  0  0  0  0
  -30.6480  -14.6290   19.6690 C   0  0  0  0  0  0  0  0  0  0  0  0
  -30.2800  -12.3950   18.7030 C   0  0  0  0  0  2  0  0  0  0  0  0
  -29.2460  -12.5380   17.5670 C   0  0  0  0  0  2  0  0  0  0  0  0
  -27.8180  -12.3920   18.1270 C   0  0  0  0  0  2  0  0  0  0  0  0
  -27.5740  -13.2570   19.3960 C   0  0  0  0  0  3  0  0  0  0  0  0
  -28.7350  -13.1400   20.4130 C   0  0  0  0  0  2  0  0  0  0  0  0
  -29.9870  -13.4370   19.7060 N   0  0  0  0  0  0  0  0  0  0  0  0
  -31.7360  -14.7230   19.1080 O   0  0  0  0  0  0  0  0  0  0  0  0
  -29.9730  -15.7350   20.0670 N   0  0  0  0  0  0  0  0  0  0  0  0
  -29.1360  -15.5670   20.6030 H   0  0  0  0  0  0  0  0  0  0  0  0
  -25.2630  -13.8100   20.3770 C   0  0  0  0  0  0  0  0  0  0  0  0
  -24.2450  -13.0150   20.8320 C   0  0  0  0  0  0  0  0  0  0  0  0
  -24.7140  -11.6710   20.7220 C   0  0  0  0  0  0  0  0  0  0  0  0
  -26.2830  -12.9480   20.0110 N   0  0  0  0  0  0  0  0  0  0  0  0
  -25.9650  -11.6540   20.2810 N   0  0  0  0  0  0  0  0  0  0  0  0
  -24.0200  -10.3950   20.9580 C   0  0  0  0  0  0  0  0  0  0  0  0
  -24.4990   -9.4580   21.8990 C   0  0  0  0  0  3  0  0  0  0  0  0
  -23.8050   -8.2500   22.1230 C   0  0  0  0  0  3  0  0  0  0  0  0
  -22.6170   -7.9700   21.4060 C   0  0  0  0  0  0  0  0  0  0  0  0
  -22.1580   -8.8960   20.4540 C   0  0  0  0  0  3  0  0  0  0  0  0
  -22.8540  -10.0960   20.2280 C   0  0  0  0  0  3  0  0  0  0  0  0
  -21.8920   -6.8110   21.5400 O   0  0  0  0  0  0  0  0  0  0  0  0
  -21.8160   -6.1420   22.7360 C   0  0  0  0  0  0  0  0  0  0  0  0
  -21.3240   -6.7600   23.9060 C   0  0  0  0  0  3  0  0  0  0  0  0
  -21.1980   -6.0160   25.0950 C   0  0  0  0  0  3  0  0  0  0  0  0
  -21.5530   -4.6540   25.1160 C   0  0  0  0  0  0  0  0  0  0  0  0
  -22.0350   -4.0350   23.9500 C   0  0  0  0  0  3  0  0  0  0  0  0
  -22.1640   -4.7780   22.7620 C   0  0  0  0  0  0  0  0  0  0  0  0
  -22.6110   -4.1700   21.6370 F   0  0  0  0  0  0  0  0  0  0  0  0
  -21.4210   -3.9360   26.2550 F   0  0  0  0  0  0  0  0  0  0  0  0
  -22.8810  -13.4710   21.2590 C   0  0  0  0  0  0  0  0  0  0  0  0
  -22.2580  -12.7550   22.1890 N   0  0  0  0  0  0  0  0  0  0  0  0
  -22.3790  -14.4990   20.8050 O   0  0  0  0  0  0  0  0  0  0  0  0
  -22.6800  -11.9270   22.5810 H   0  0  0  0  0  0  0  0  0  0  0  0
  -21.3470  -13.0420   22.5190 H   0  0  0  0  0  0  0  0  0  0  0  0
  -25.3960  -15.1880   20.2270 N   0  0  0  0  0  0  0  0  0  0  0  0
  -24.6530  -15.8300   20.4800 H   0  0  0  0  0  0  0  0  0  0  0  0
  -26.2040  -15.6530   19.8380 H   0  0  0  0  0  0  0  0  0  0  0  0
  -32.3950  -17.3890   20.7370 C   0  0  0  0  0  1  0  0  0  0  0  0
  -31.5370  -17.7480   19.5070 C   0  0  0  0  0  3  0  0  0  0  0  0
  -31.7620  -18.3210   16.9800 C   0  0  0  0  0  1  0  0  0  0  0  0
  -32.3410  -17.5780   18.1900 C   0  0  0  0  0  2  0  0  0  0  0  0
  -28.9170  -21.7340   19.9940 C   0  0  0  0  0  0  0  0  0  0  0  0
  -28.2950  -22.9320   19.9670 N   0  0  0  0  0  0  0  0  0  0  0  0
  -30.1240  -21.6180   19.7760 O   0  0  0  0  0  0  0  0  0  0  0  0
  -27.3070  -22.9290   20.1870 H   0  0  0  0  0  0  0  0  0  0  0  0
  -28.8580  -24.2450   19.5750 C   0  0  0  0  0  2  0  0  0  0  0  0
  -28.4230  -25.4020   20.5160 C   0  0  0  0  0  2  0  0  0  0  0  0
  -28.5820  -26.7360   19.9640 O   0  0  0  0  0  0  0  0  0  0  0  0
  -24.8280  -31.8380   23.2560 C   0  0  0  0  0  0  0  0  0  0  0  0
  -27.4420  -27.5190   19.9710 C   0  0  0  0  0  0  0  0  0  0  0  0
  -23.6110  -30.5060   21.5700 C   0  0  0  0  0  3  0  0  0  0  0  0
  -25.0530  -29.0420   20.0530 C   0  0  0  0  0  0  0  0  0  0  0  0
  -26.1320  -30.8800   21.3590 C   0  0  0  0  0  2  0  0  0  0  0  0
  -26.2160  -29.5360   20.6560 C   0  0  0  0  0  0  0  0  0  0  0  0
  -27.4170  -28.7860   20.6030 C   0  0  0  0  0  3  0  0  0  0  0  0
  -26.2630  -27.0540   19.3480 C   0  0  0  0  0  3  0  0  0  0  0  0
  -25.0740  -27.8040   19.3880 C   0  0  0  0  0  3  0  0  0  0  0  0
  -23.8050  -29.8920   20.1580 C   0  0  0  0  0  2  0  0  0  0  0  0
  -24.8770  -31.0880   22.1210 N   0  0  0  0  0  0  0  0  0  0  0  0
  -23.7530  -32.0770   23.8220 O   0  0  0  0  0  0  0  0  0  0  0  0
  -22.9750  -29.4360   22.4860 C   0  0  0  0  0  0  0  0  0  0  0  0
  -21.6550  -29.2280   22.3370 N   0  0  0  0  0  0  0  0  0  0  0  0
  -23.6650  -28.8020   23.2890 O   0  0  0  0  0  0  0  0  0  0  0  0
  -21.1570  -29.8010   21.6700 H   0  0  0  0  0  0  0  0  0  0  0  0
  -18.3100  -27.9110   22.7210 C   0  0  0  0  0  0  0  0  0  0  0  0
  -20.8510  -28.2440   23.0640 C   0  0  0  0  0  3  0  0  0  0  0  0
  -21.0160  -26.8330   22.4530 C   0  0  0  0  0  2  0  0  0  0  0  0
  -19.9520  -26.4990   21.4060 C   0  0  0  0  0  2  0  0  0  0  0  0
  -18.5490  -26.5850   22.0160 C   0  0  0  0  0  2  0  0  0  0  0  0
  -19.3920  -28.6970   23.1990 C   0  0  0  0  0  0  0  0  0  0  0  0
  -19.1160  -29.9410   23.8070 C   0  0  0  0  0  3  0  0  0  0  0  0
  -17.7910  -30.3970   23.9470 C   0  0  0  0  0  3  0  0  0  0  0  0
  -16.7240  -29.6040   23.4890 C   0  0  0  0  0  3  0  0  0  0  0  0
  -16.9850  -28.3650   22.8790 C   0  0  0  0  0  3  0  0  0  0  0  0
  -26.1180  -32.4480   23.8900 C   0  0  0  0  0  3  0  0  0  0  0  0
  -26.6400  -31.6320   25.1350 C   0  0  1  0  0  0  0  0  0  0  0  0
  -25.5520  -31.3530   26.1990 C   0  0  0  0  0  1  0  0  0  0  0  0
  -27.2240  -30.2720   24.6880 C   0  0  0  0  0  1  0  0  0  0  0  0
  -27.7930  -32.4030   25.8190 C   0  0  0  0  0  1  0  0  0  0  0  0
  -25.8120  -33.8340   24.2700 N   0  0  0  0  0  0  0  0  0  0  0  0
  -26.1370  -34.9110   23.5420 C   0  0  0  0  0  0  0  0  0  0  0  0
  -26.8020  -34.8420   22.5040 O   0  0  0  0  0  0  0  0  0  0  0  0
  -25.2210  -33.9560   25.0790 H   0  0  0  0  0  0  0  0  0  0  0  0
  -24.4030  -36.7100   23.2550 C   0  0  0  0  0  1  0  0  0  0  0  0
  -25.6500  -36.2830   24.0470 C   0  0  0  0  0  3  0  0  0  0  0  0
  -27.7890  -37.1440   24.8880 C   0  0  0  0  0  1  0  0  0  0  0  0
  -26.6810  -37.3410   23.9580 N   0  0  0  0  0  0  0  0  0  0  0  0
  -26.2770  -38.2570   24.1370 H   0  0  0  0  0  0  0  0  0  0  0  0
  2  1  1  0
  3  6  2  0
  4  5  1  0
  5  2  1  0
  5  3  1  0
  7 16  1  0
  7  3  1  0
  8 14  1  0
  8 16  1  0
  9 14  1  0
 10 11  1  0
 10  9  1  0
 12 11  1  0
 12 21  1  0
 12 13  1  0
 14 13  1  0
 15  8  2  0
 16 17  1  0
 18 19  2  0
 19 38  1  0
 20 19  1  0
 20 23  1  0
 21 22  1  0
 21 18  1  0
 22 20  2  0
 23 24  1  0
 24 25  2  0
 26 29  1  0
 26 25  1  0
 27 26  2  0
 28 27  1  0
 28 23  2  0
 29 30  1  0
 30 35  2  0
 30 31  1  0
 31 32  2  0
 32 33  1  0
 33 37  1  0
 34 33  2  0
 35 34  1  0
 36 35  1  0
 38 39  1  0
 39 42  1  0
 39 41  1  0
 40 38  2  0
 43 18  1  0
 43 44  1  0
 45 43  1  0
 47  7  1  0
 47 46  1  0
 48 49  1  0
 49 47  1  0
 50  2  1  0
 51 50  1  0
 51 53  1  0
 52 50  2  0
 54 51  1  0
 54 55  1  0
 56 58  1  0
 56 55  1  0
 57 68  2  0
 58 63  1  0
 59 67  1  0
 59 69  1  0
 60 66  1  0
 60 62  1  0
 61 67  1  0
 62 61  1  0
 63 62  2  0
 64 65  1  0
 64 58  2  0
 65 60  2  0
 66 59  1  0
 67 57  1  0
 69 71  2  0
 70 69  1  0
 72 70  1  0
 73 82  2  0
 73 78  1  0
 74 70  1  0
 74 78  1  0
 75 74  1  0
 76 77  1  0
 76 75  1  0
 77 73  1  0
 78 79  2  0
 79 80  1  0
 81 80  2  0
 82 81  1  0
 83 57  1  0
 83 88  1  0
 83 84  1  0
 84 87  1  1
 84 85  1  0
 86 84  1  0
 88 91  1  0
 89 93  1  0
 89 88  1  0
 90 89  2  0
 93 92  1  0
 95 93  1  0
 95 96  1  0
 95 94  1  0
M  ISO  4   8 100  16 100  55 101  56 101
M  END
>  <TORSDO>  (16) 
F 23

>  <SCORE>  (16) 
-9.893

>  <name>  (16) 
15

>  <ligand_id>  (16) 
15

>  <original_smiles>  (16) 
[H]c1c([H])c([H])c2c(c1[H])C([H])([H])C([H])([H])C([H])([H])C2([H])N([H])C(=O)C1([H])N(C(=O)C([H])(N([H])C(=O)C([H])(N([H])C([H])([H])[H])C([H])([H])[H])C(C([H])([H])[H])(C([H])([H])[H])C([H])([H])[H])C([H])([H])c2c([H])c(OC([H])([H])C([H])([H])N([H])C(=O)C([H])(N(C(=O)C([H])(N([H])C(=O)N3C([H])([H])C([H])([H])C([H])([H])C([H])(n4nc(-c5c([H])c([H])c(Oc6c([H])c([H])c(F)c([H])c6F)c([H])c5[H])c(C(=O)N([H])[H])c4N([H])[H])C3([H])[H])C([H])(C([H])([H])[H])C([H])([H])C([H])([H])[H])C([H])([H])[H])C([H])([H])[H])c([H])c([H])c2C1([H])[H]

>  <smiles>  (16) 
[H]c1c([H])c([H])c2c(c1[H])C([H])([H])C([H])([H])C([H])([H])C2([H])N([H])C(=O)C1([H])N(C(=O)C([H])(N([H])C(=O)C([H])(N([H])C([H])([H])[H])C([H])([H])[H])C(C([H])([H])[H])(C([H])([H])[H])C([H])([H])[H])C([H])([H])c2c([H])c(OC([H])([H])C([H])([H])N([H])C(=O)C([H])(N(C(=O)C([H])(N([H])C(=O)N3C([H])([H])C([H])([H])C([H])([H])C([H])(n4nc(-c5c([H])c([H])c(Oc6c([H])c([H])c(F)c([H])c6F)c([H])c5[H])c(C(=O)N([H])[H])c4N([H])[H])C3([H])[H])C([H])(C([H])([H])[H])C([H])([H])C([H])([H])[H])C([H])([H])[H])C([H])([H])[H])c([H])c([H])c2C1([H])[H]

$$$$
16:0:0
     RDKit          3D

 95102  0  0  1  0  0  0  0  0999 V2000
  -30.6610  -17.7920   21.1820 C   0  0  0  0  0  0  0  0  0  0  0  0
  -30.5030  -19.1460   21.0840 N   0  0  0  0  0  0  0  0  0  0  0  0
  -31.3550  -17.3670   22.1050 O   0  0  0  0  0  0  0  0  0  0  0  0
  -31.0300  -19.6420   21.7890 H   0  0  0  0  0  0  0  0  0  0  0  0
  -29.6910  -20.0500   20.2280 C   0  0  0  0  0  2  0  0  0  0  0  0
  -30.0770  -21.5710   20.3630 C   0  0  0  0  0  2  0  0  0  0  0  0
  -29.0940  -22.4960   19.8310 O   0  0  0  0  0  0  0  0  0  0  0  0
  -29.3740  -23.9150   19.9920 C   0  0  0  0  0  2  0  0  0  0  0  0
  -28.1690  -24.8270   19.5640 C   0  0  0  0  0  2  0  0  0  0  0  0
  -28.3010  -26.2680   19.7730 O   0  0  0  0  0  0  0  0  0  0  0  0
  -24.5870  -31.5110   22.9520 C   0  0  0  0  0  0  0  0  0  0  0  0
  -27.1450  -27.0520   19.7590 C   0  0  0  0  0  0  0  0  0  0  0  0
  -23.3430  -30.1500   21.3040 C   0  0  0  0  0  3  0  0  0  0  0  0
  -24.7630  -28.6230   19.8300 C   0  0  0  0  0  0  0  0  0  0  0  0
  -25.8730  -30.4770   21.0790 C   0  0  0  0  0  2  0  0  0  0  0  0
  -25.9380  -29.1110   20.4130 C   0  0  0  0  0  0  0  0  0  0  0  0
  -27.1270  -28.3350   20.3760 C   0  0  0  0  0  3  0  0  0  0  0  0
  -25.9470  -26.6050   19.1530 C   0  0  0  0  0  3  0  0  0  0  0  0
  -24.7660  -27.3710   19.1950 C   0  0  0  0  0  3  0  0  0  0  0  0
  -23.5280  -29.4940   19.9110 C   0  0  0  0  0  2  0  0  0  0  0  0
  -24.6210  -30.7280   21.8360 N   0  0  0  0  0  0  0  0  0  0  0  0
  -23.5150  -31.7830   23.5140 O   0  0  0  0  0  0  0  0  0  0  0  0
  -22.6960  -29.1190   22.2590 C   0  0  0  0  0  0  0  0  0  0  0  0
  -21.3630  -28.9730   22.1760 N   0  0  0  0  0  0  0  0  0  0  0  0
  -23.3900  -28.4540   23.0330 O   0  0  0  0  0  0  0  0  0  0  0  0
  -20.8630  -29.5650   21.5260 H   0  0  0  0  0  0  0  0  0  0  0  0
  -17.9790  -27.8470   22.7610 C   0  0  0  0  0  0  0  0  0  0  0  0
  -20.5500  -28.0350   22.9490 C   0  0  0  0  0  3  0  0  0  0  0  0
  -20.5950  -26.6180   22.3300 C   0  0  0  0  0  2  0  0  0  0  0  0
  -19.4520  -26.3540   21.3470 C   0  0  0  0  0  2  0  0  0  0  0  0
  -18.0970  -26.5140   22.0430 C   0  0  0  0  0  2  0  0  0  0  0  0
  -19.1310  -28.5680   23.1730 C   0  0  0  0  0  0  0  0  0  0  0  0
  -18.9650  -29.8190   23.8060 C   0  0  0  0  0  3  0  0  0  0  0  0
  -17.6810  -30.3480   24.0320 C   0  0  0  0  0  3  0  0  0  0  0  0
  -16.5430  -29.6230   23.6360 C   0  0  0  0  0  3  0  0  0  0  0  0
  -16.6940  -28.3740   23.0060 C   0  0  0  0  0  3  0  0  0  0  0  0
  -25.8870  -32.1220   23.5620 C   0  0  0  0  0  3  0  0  0  0  0  0
  -26.4610  -31.2850   24.7700 C   0  0  1  0  0  0  0  0  0  0  0  0
  -25.4170  -30.9880   25.8710 C   0  0  0  0  0  1  0  0  0  0  0  0
  -27.0290  -29.9320   24.2800 C   0  0  0  0  0  1  0  0  0  0  0  0
  -27.6370  -32.0470   25.4260 C   0  0  0  0  0  1  0  0  0  0  0  0
  -25.5750  -33.4940   23.9830 N   0  0  0  0  0  0  0  0  0  0  0  0
  -25.9220  -34.5960   23.3030 C   0  0  0  0  0  0  0  0  0  0  0  0
  -26.6060  -34.5630   22.2770 O   0  0  0  0  0  0  0  0  0  0  0  0
  -24.9660  -33.5960   24.7810 H   0  0  0  0  0  0  0  0  0  0  0  0
  -24.2060  -36.4180   23.0480 C   0  0  0  0  0  1  0  0  0  0  0  0
  -25.4300  -35.9500   23.8510 C   0  0  0  0  0  3  0  0  0  0  0  0
  -27.5510  -36.7640   24.7820 C   0  0  0  0  0  1  0  0  0  0  0  0
  -26.4670  -37.0040   23.8330 N   0  0  0  0  0  0  0  0  0  0  0  0
  -26.0610  -37.9130   24.0380 H   0  0  0  0  0  0  0  0  0  0  0  0
  -30.0430  -16.7390   20.1990 C   0  0  0  0  0  3  0  0  0  0  0  0
  -30.9390  -14.3170   20.3260 C   0  0  0  0  0  0  0  0  0  0  0  0
  -30.8350  -12.0940   19.2370 C   0  0  0  0  0  2  0  0  0  0  0  0
  -29.9710  -12.2330   17.9630 C   0  0  0  0  0  2  0  0  0  0  0  0
  -28.4740  -12.0530   18.2880 C   0  0  0  0  0  2  0  0  0  0  0  0
  -28.0210  -12.8960   19.5110 C   0  0  0  0  0  3  0  0  0  0  0  0
  -29.0050  -12.7290   20.6940 C   0  0  0  0  0  2  0  0  0  0  0  0
  -30.3560  -13.0830   20.2200 N   0  0  0  0  0  0  0  0  0  0  0  0
  -32.0870  -14.5400   19.9290 O   0  0  0  0  0  0  0  0  0  0  0  0
  -30.0900  -15.3180   20.6640 N   0  0  0  0  0  0  0  0  0  0  0  0
  -29.2250  -14.9860   21.0580 H   0  0  0  0  0  0  0  0  0  0  0  0
  -25.5320  -13.4140   19.9040 C   0  0  0  0  0  0  0  0  0  0  0  0
  -24.4780  -12.6300   20.2850 C   0  0  0  0  0  0  0  0  0  0  0  0
  -25.0160  -11.3230   20.4820 C   0  0  0  0  0  0  0  0  0  0  0  0
  -26.6440  -12.5880   19.8980 N   0  0  0  0  0  0  0  0  0  0  0  0
  -26.3310  -11.3310   20.3020 N   0  0  0  0  0  0  0  0  0  0  0  0
  -24.3440  -10.0510   20.7760 C   0  0  0  0  0  0  0  0  0  0  0  0
  -24.7320   -9.2490   21.8720 C   0  0  0  0  0  3  0  0  0  0  0  0
  -24.0600   -8.0370   22.1450 C   0  0  0  0  0  3  0  0  0  0  0  0
  -22.9870   -7.6210   21.3220 C   0  0  0  0  0  0  0  0  0  0  0  0
  -22.6220   -8.4110   20.2180 C   0  0  0  0  0  3  0  0  0  0  0  0
  -23.2940   -9.6120   19.9440 C   0  0  0  0  0  3  0  0  0  0  0  0
  -22.2950   -6.4460   21.4950 O   0  0  0  0  0  0  0  0  0  0  0  0
  -22.0870   -5.9120   22.7420 C   0  0  0  0  0  0  0  0  0  0  0  0
  -21.4480   -6.6430   23.7690 C   0  0  0  0  0  3  0  0  0  0  0  0
  -21.1920   -6.0320   25.0130 C   0  0  0  0  0  3  0  0  0  0  0  0
  -21.5620   -4.6910   25.2290 C   0  0  0  0  0  0  0  0  0  0  0  0
  -22.1940   -3.9600   24.2070 C   0  0  0  0  0  3  0  0  0  0  0  0
  -22.4510   -4.5690   22.9660 C   0  0  0  0  0  0  0  0  0  0  0  0
  -23.0390   -3.8550   21.9760 F   0  0  0  0  0  0  0  0  0  0  0  0
  -21.3100   -4.1000   26.4210 F   0  0  0  0  0  0  0  0  0  0  0  0
  -23.0370  -13.0440   20.3590 C   0  0  0  0  0  0  0  0  0  0  0  0
  -22.2700  -12.4370   21.2590 N   0  0  0  0  0  0  0  0  0  0  0  0
  -22.5910  -13.9440   19.6490 O   0  0  0  0  0  0  0  0  0  0  0  0
  -22.6390  -11.7150   21.8590 H   0  0  0  0  0  0  0  0  0  0  0  0
  -21.2980  -12.7000   21.3480 H   0  0  0  0  0  0  0  0  0  0  0  0
  -25.6300  -14.7480   19.5360 N   0  0  0  0  0  0  0  0  0  0  0  0
  -24.8130  -15.3460   19.4860 H   0  0  0  0  0  0  0  0  0  0  0  0
  -26.4610  -15.1740   19.1520 H   0  0  0  0  0  0  0  0  0  0  0  0
  -28.5400  -17.0280   19.9400 C   0  0  0  0  0  2  0  0  0  0  0  0
  -27.5480  -16.4390   20.9730 C   0  0  0  0  0  2  0  0  0  0  0  0
  -26.0970  -16.8940   20.7390 C   0  0  0  0  0  2  0  0  0  0  0  0
  -25.1670  -15.8810   21.1060 O   0  0  0  0  0  0  0  0  0  0  0  0
  -24.2670  -14.3530   22.7030 C   0  0  0  0  0  1  0  0  0  0  0  0
  -25.0770  -15.6330   22.5020 C   0  0  0  0  0  2  0  0  0  0  0  0
  1  3  2  0
  2  1  1  0
  2  4  1  0
  5  6  1  0
  5  2  1  0
  7  8  1  0
  7  6  1  0
  9 10  1  0
  9  8  1  0
 11 22  2  0
 12 10  1  0
 12 17  1  0
 13 21  1  0
 13 23  1  0
 14 20  1  0
 14 16  1  0
 15 21  1  0
 16 15  1  0
 17 16  2  0
 18 19  1  0
 18 12  2  0
 19 14  2  0
 20 13  1  0
 21 11  1  0
 23 25  2  0
 24 23  1  0
 26 24  1  0
 27 36  2  0
 27 32  1  0
 28 24  1  0
 28 32  1  0
 29 28  1  0
 30 31  1  0
 30 29  1  0
 31 27  1  0
 32 33  2  0
 33 34  1  0
 35 34  2  0
 36 35  1  0
 37 11  1  0
 37 42  1  0
 37 38  1  0
 38 41  1  1
 38 39  1  0
 40 38  1  0
 42 45  1  0
 43 47  1  0
 43 42  1  0
 44 43  2  0
 47 46  1  0
 49 47  1  0
 49 50  1  0
 49 48  1  0
 51 90  1  0
 51 60  1  0
 51  1  1  0
 52 60  1  0
 53 58  1  0
 54 55  1  0
 54 53  1  0
 56 55  1  0
 56 65  1  0
 56 57  1  0
 58 52  1  0
 58 57  1  0
 59 52  2  0
 60 61  1  0
 62 63  2  0
 63 82  1  0
 63 64  1  0
 64 67  1  0
 65 62  1  0
 65 66  1  0
 66 64  2  0
 67 68  1  0
 68 69  2  0
 70 73  1  0
 70 69  1  0
 71 70  2  0
 72 71  1  0
 72 67  2  0
 73 74  1  0
 74 79  2  0
 74 75  1  0
 75 76  2  0
 76 77  1  0
 77 81  1  0
 78 77  2  0
 79 78  1  0
 80 79  1  0
 82 83  1  0
 83 86  1  0
 83 85  1  0
 84 82  2  0
 87 62  1  0
 88 87  1  0
 89 87  1  0
 90 91  1  0
 92 91  1  0
 92 93  1  0
 93 95  1  0
 95 94  1  0
M  ISO  4   9 101  10 101  52 100  60 100
M  END
>  <TORSDO>  (17) 
F 27

>  <SCORE>  (17) 
-5.780

>  <name>  (17) 
16

>  <ligand_id>  (17) 
16

>  <original_smiles>  (17) 
[H]c1c([H])c([H])c2c(c1[H])C([H])([H])C([H])([H])C([H])([H])C2([H])N([H])C(=O)C1([H])N(C(=O)C([H])(N([H])C(=O)C([H])(N([H])C([H])([H])[H])C([H])([H])[H])C(C([H])([H])[H])(C([H])([H])[H])C([H])([H])[H])C([H])([H])c2c([H])c(OC([H])([H])C([H])([H])OC([H])([H])C([H])([H])N([H])C(=O)C([H])(N([H])C(=O)N3C([H])([H])C([H])([H])C([H])([H])C([H])(n4nc(-c5c([H])c([H])c(Oc6c([H])c([H])c(F)c([H])c6F)c([H])c5[H])c(C(=O)N([H])[H])c4N([H])[H])C3([H])[H])C([H])([H])C([H])([H])C([H])([H])OC([H])([H])C([H])([H])[H])c([H])c([H])c2C1([H])[H]

>  <smiles>  (17) 
[H]c1c([H])c([H])c2c(c1[H])C([H])([H])C([H])([H])C([H])([H])C2([H])N([H])C(=O)C1([H])N(C(=O)C([H])(N([H])C(=O)C([H])(N([H])C([H])([H])[H])C([H])([H])[H])C(C([H])([H])[H])(C([H])([H])[H])C([H])([H])[H])C([H])([H])c2c([H])c(OC([H])([H])C([H])([H])OC([H])([H])C([H])([H])N([H])C(=O)C([H])(N([H])C(=O)N3C([H])([H])C([H])([H])C([H])([H])C([H])(n4nc(-c5c([H])c([H])c(Oc6c([H])c([H])c(F)c([H])c6F)c([H])c5[H])c(C(=O)N([H])[H])c4N([H])[H])C3([H])[H])C([H])([H])C([H])([H])C([H])([H])OC([H])([H])C([H])([H])[H])c([H])c([H])c2C1([H])[H]

$$$$
17:0:0
     RDKit          3D

 93100  0  0  1  0  0  0  0  0999 V2000
  -28.3790  -22.9000   19.7700 C   0  0  0  0  0  0  0  0  0  0  0  0
  -27.5910  -21.9150   19.3250 N   0  0  0  0  0  0  0  0  0  0  0  0
  -29.4130  -22.6850   20.4100 O   0  0  0  0  0  0  0  0  0  0  0  0
  -26.7630  -22.1800   18.8080 H   0  0  0  0  0  0  0  0  0  0  0  0
  -27.7490  -20.4920   19.6140 C   0  0  0  0  0  2  0  0  0  0  0  0
  -28.3520  -19.7100   18.4320 C   0  0  0  0  0  2  0  0  0  0  0  0
  -29.6530  -20.2000   18.1070 O   0  0  0  0  0  0  0  0  0  0  0  0
  -30.6980  -19.2290   18.1100 C   0  0  0  0  0  2  0  0  0  0  0  0
  -31.0580  -18.8340   19.5540 C   0  0  0  0  0  2  0  0  0  0  0  0
  -30.1580  -17.8170   19.9760 O   0  0  0  0  0  0  0  0  0  0  0  0
  -29.9970  -17.7220   21.3810 C   0  0  0  0  0  2  0  0  0  0  0  0
  -30.7120  -16.4710   21.9020 C   0  0  0  0  0  2  0  0  0  0  0  0
  -30.8550  -14.4070   20.4680 C   0  0  0  0  0  0  0  0  0  0  0  0
  -30.5540  -12.3410   19.1360 C   0  0  0  0  0  2  0  0  0  0  0  0
  -29.5780  -12.5740   17.9640 C   0  0  0  0  0  2  0  0  0  0  0  0
  -28.1030  -12.4610   18.4010 C   0  0  0  0  0  2  0  0  0  0  0  0
  -27.8050  -13.2440   19.7090 C   0  0  0  0  0  3  0  0  0  0  0  0
  -28.8620  -12.9140   20.7800 C   0  0  0  0  0  2  0  0  0  0  0  0
  -30.1790  -13.2590   20.2200 N   0  0  0  0  0  0  0  0  0  0  0  0
  -31.9550  -14.6690   19.9700 O   0  0  0  0  0  0  0  0  0  0  0  0
  -30.2070  -15.2480   21.2810 N   0  0  0  0  0  0  0  0  0  0  0  0
  -29.2610  -14.9830   21.5140 H   0  0  0  0  0  0  0  0  0  0  0  0
  -25.4090  -13.9010   20.3930 C   0  0  0  0  0  0  0  0  0  0  0  0
  -24.3250  -13.1530   20.7670 C   0  0  0  0  0  0  0  0  0  0  0  0
  -24.7670  -11.7940   20.7670 C   0  0  0  0  0  0  0  0  0  0  0  0
  -26.4440  -12.9970   20.1890 N   0  0  0  0  0  0  0  0  0  0  0  0
  -26.0580  -11.7250   20.4650 N   0  0  0  0  0  0  0  0  0  0  0  0
  -24.0200  -10.5470   20.9780 C   0  0  0  0  0  0  0  0  0  0  0  0
  -24.4560   -9.5830   21.9110 C   0  0  0  0  0  3  0  0  0  0  0  0
  -23.7210   -8.3940   22.1110 C   0  0  0  0  0  3  0  0  0  0  0  0
  -22.5340   -8.1610   21.3740 C   0  0  0  0  0  0  0  0  0  0  0  0
  -22.1170   -9.1160   20.4300 C   0  0  0  0  0  3  0  0  0  0  0  0
  -22.8530  -10.2960   20.2290 C   0  0  0  0  0  3  0  0  0  0  0  0
  -21.7640   -7.0270   21.4820 O   0  0  0  0  0  0  0  0  0  0  0  0
  -21.7340   -6.2840   22.6340 C   0  0  0  0  0  0  0  0  0  0  0  0
  -21.3740   -6.8490   23.8780 C   0  0  0  0  0  3  0  0  0  0  0  0
  -21.2890   -6.0350   25.0240 C   0  0  0  0  0  3  0  0  0  0  0  0
  -21.5570   -4.6560   24.9290 C   0  0  0  0  0  0  0  0  0  0  0  0
  -21.9080   -4.0880   23.6910 C   0  0  0  0  0  3  0  0  0  0  0  0
  -21.9960   -4.9020   22.5470 C   0  0  0  0  0  0  0  0  0  0  0  0
  -22.3140   -4.3480   21.3540 F   0  0  0  0  0  0  0  0  0  0  0  0
  -21.4670   -3.8710   26.0270 F   0  0  0  0  0  0  0  0  0  0  0  0
  -22.9330  -13.6540   21.0200 C   0  0  0  0  0  0  0  0  0  0  0  0
  -22.1900  -12.9910   21.9000 N   0  0  0  0  0  0  0  0  0  0  0  0
  -22.5070  -14.6680   20.4660 O   0  0  0  0  0  0  0  0  0  0  0  0
  -22.5440  -12.1770   22.3800 H   0  0  0  0  0  0  0  0  0  0  0  0
  -21.2500  -13.3030   22.0920 H   0  0  0  0  0  0  0  0  0  0  0  0
  -25.6050  -15.2640   20.1860 N   0  0  0  0  0  0  0  0  0  0  0  0
  -24.8630  -15.9500   20.2630 H   0  0  0  0  0  0  0  0  0  0  0  0
  -26.4700  -15.6600   19.8380 H   0  0  0  0  0  0  0  0  0  0  0  0
  -27.9090  -24.3310   19.4780 C   0  0  0  0  0  2  0  0  0  0  0  0
  -28.4100  -25.3890   20.4970 C   0  0  0  0  0  2  0  0  0  0  0  0
  -28.3880  -26.7460   20.0440 O   0  0  0  0  0  0  0  0  0  0  0  0
  -24.6100  -31.8820   23.2290 C   0  0  0  0  0  0  0  0  0  0  0  0
  -27.1980  -27.4340   20.1160 C   0  0  0  0  0  0  0  0  0  0  0  0
  -23.3880  -30.4850   21.5990 C   0  0  0  0  0  3  0  0  0  0  0  0
  -24.8170  -28.9460   20.1630 C   0  0  0  0  0  0  0  0  0  0  0  0
  -25.9140  -30.8300   21.3840 C   0  0  0  0  0  2  0  0  0  0  0  0
  -25.9770  -29.4570   20.7490 C   0  0  0  0  0  0  0  0  0  0  0  0
  -27.1760  -28.7030   20.7320 C   0  0  0  0  0  3  0  0  0  0  0  0
  -26.0150  -26.9430   19.5170 C   0  0  0  0  0  3  0  0  0  0  0  0
  -24.8250  -27.6880   19.5430 C   0  0  0  0  0  3  0  0  0  0  0  0
  -23.5820  -29.8140   20.2140 C   0  0  0  0  0  2  0  0  0  0  0  0
  -24.6550  -31.0820   22.1270 N   0  0  0  0  0  0  0  0  0  0  0  0
  -23.5350  -32.1570   23.7760 O   0  0  0  0  0  0  0  0  0  0  0  0
  -22.7390  -29.4650   22.5650 C   0  0  0  0  0  0  0  0  0  0  0  0
  -21.4140  -29.2860   22.4470 N   0  0  0  0  0  0  0  0  0  0  0  0
  -23.4250  -28.8370   23.3780 O   0  0  0  0  0  0  0  0  0  0  0  0
  -20.9180  -29.8330   21.7550 H   0  0  0  0  0  0  0  0  0  0  0  0
  -18.0350  -28.1110   22.9550 C   0  0  0  0  0  0  0  0  0  0  0  0
  -20.5930  -28.3560   23.2230 C   0  0  0  0  0  3  0  0  0  0  0  0
  -20.6940  -26.9240   22.6480 C   0  0  0  0  0  2  0  0  0  0  0  0
  -19.5870  -26.6050   21.6400 C   0  0  0  0  0  2  0  0  0  0  0  0
  -18.2060  -26.7600   22.2860 C   0  0  0  0  0  2  0  0  0  0  0  0
  -19.1570  -28.8700   23.3800 C   0  0  0  0  0  0  0  0  0  0  0  0
  -18.9450  -30.1360   23.9650 C   0  0  0  0  0  3  0  0  0  0  0  0
  -17.6430  -30.6420   24.1370 C   0  0  0  0  0  3  0  0  0  0  0  0
  -16.5340  -29.8790   23.7300 C   0  0  0  0  0  3  0  0  0  0  0  0
  -16.7320  -28.6160   23.1430 C   0  0  0  0  0  3  0  0  0  0  0  0
  -25.9050  -32.5100   23.8390 C   0  0  0  0  0  3  0  0  0  0  0  0
  -26.4370  -31.7270   25.1020 C   0  0  1  0  0  0  0  0  0  0  0  0
  -25.3600  -31.4770   26.1820 C   0  0  0  0  0  1  0  0  0  0  0  0
  -27.0150  -30.3550   24.6880 C   0  0  0  0  0  1  0  0  0  0  0  0
  -27.6020  -32.5090   25.7530 C   0  0  0  0  0  1  0  0  0  0  0  0
  -25.5980  -33.9060   24.1820 N   0  0  0  0  0  0  0  0  0  0  0  0
  -25.9190  -34.9620   23.4250 C   0  0  0  0  0  0  0  0  0  0  0  0
  -26.5760  -34.8660   22.3840 O   0  0  0  0  0  0  0  0  0  0  0  0
  -25.0330  -34.0560   25.0050 H   0  0  0  0  0  0  0  0  0  0  0  0
  -24.1830  -36.7490   23.1010 C   0  0  0  0  0  1  0  0  0  0  0  0
  -25.4350  -36.3470   23.8960 C   0  0  0  0  0  3  0  0  0  0  0  0
  -27.5790  -37.2220   24.7020 C   0  0  0  0  0  1  0  0  0  0  0  0
  -26.4630  -37.4030   23.7780 N   0  0  0  0  0  0  0  0  0  0  0  0
  -26.0580  -38.3190   23.9550 H   0  0  0  0  0  0  0  0  0  0  0  0
  1  3  2  0
  2  5  1  0
  2  1  1  0
  4  2  1  0
  6  5  1  0
  7  8  1  0
  7  6  1  0
  8  9  1  0
  9 10  1  0
 10 11  1  0
 11 12  1  0
 13 21  1  0
 14 19  1  0
 15 16  1  0
 15 14  1  0
 17 16  1  0
 17 26  1  0
 17 18  1  0
 19 13  1  0
 19 18  1  0
 20 13  2  0
 21 22  1  0
 21 12  1  0
 23 24  2  0
 24 43  1  0
 25 24  1  0
 25 28  1  0
 26 23  1  0
 26 27  1  0
 27 25  2  0
 28 29  1  0
 29 30  2  0
 31 34  1  0
 31 30  1  0
 32 31  2  0
 33 32  1  0
 33 28  2  0
 34 35  1  0
 35 36  1  0
 36 37  2  0
 38 37  1  0
 38 42  1  0
 39 38  2  0
 40 35  2  0
 40 39  1  0
 41 40  1  0
 43 44  1  0
 44 47  1  0
 44 46  1  0
 45 43  2  0
 48 49  1  0
 48 23  1  0
 50 48  1  0
 51  1  1  0
 51 52  1  0
 53 55  1  0
 53 52  1  0
 54 65  2  0
 55 60  1  0
 56 64  1  0
 56 66  1  0
 57 63  1  0
 57 59  1  0
 58 64  1  0
 59 58  1  0
 60 59  2  0
 61 62  1  0
 61 55  2  0
 62 57  2  0
 63 56  1  0
 64 54  1  0
 66 68  2  0
 67 66  1  0
 69 67  1  0
 70 79  2  0
 70 75  1  0
 71 67  1  0
 71 75  1  0
 72 71  1  0
 73 74  1  0
 73 72  1  0
 74 70  1  0
 75 76  2  0
 76 77  1  0
 78 77  2  0
 79 78  1  0
 80 54  1  0
 80 85  1  0
 80 81  1  0
 81 84  1  1
 81 82  1  0
 83 81  1  0
 85 88  1  0
 86 90  1  0
 86 85  1  0
 87 86  2  0
 90 89  1  0
 92 90  1  0
 92 93  1  0
 92 91  1  0
M  ISO  4  13 100  21 100  52 101  53 101
M  END
>  <TORSDO>  (18) 
F 26

>  <SCORE>  (18) 
-11.925

>  <name>  (18) 
17

>  <ligand_id>  (18) 
17

>  <original_smiles>  (18) 
[H]c1c([H])c([H])c2c(c1[H])C([H])([H])C([H])([H])C([H])([H])C2([H])N([H])C(=O)C1([H])N(C(=O)C([H])(N([H])C(=O)C([H])(N([H])C([H])([H])[H])C([H])([H])[H])C(C([H])([H])[H])(C([H])([H])[H])C([H])([H])[H])C([H])([H])c2c([H])c(OC([H])([H])C([H])([H])C(=O)N([H])C([H])([H])C([H])([H])OC([H])([H])C([H])([H])OC([H])([H])C([H])([H])N([H])C(=O)N3C([H])([H])C([H])([H])C([H])([H])C([H])(n4nc(-c5c([H])c([H])c(Oc6c([H])c([H])c(F)c([H])c6F)c([H])c5[H])c(C(=O)N([H])[H])c4N([H])[H])C3([H])[H])c([H])c([H])c2C1([H])[H]

>  <smiles>  (18) 
[H]c1c([H])c([H])c2c(c1[H])C([H])([H])C([H])([H])C([H])([H])C2([H])N([H])C(=O)C1([H])N(C(=O)C([H])(N([H])C(=O)C([H])(N([H])C([H])([H])[H])C([H])([H])[H])C(C([H])([H])[H])(C([H])([H])[H])C([H])([H])[H])C([H])([H])c2c([H])c(OC([H])([H])C([H])([H])C(=O)N([H])C([H])([H])C([H])([H])OC([H])([H])C([H])([H])OC([H])([H])C([H])([H])N([H])C(=O)N3C([H])([H])C([H])([H])C([H])([H])C([H])(n4nc(-c5c([H])c([H])c(Oc6c([H])c([H])c(F)c([H])c6F)c([H])c5[H])c(C(=O)N([H])[H])c4N([H])[H])C3([H])[H])c([H])c([H])c2C1([H])[H]

$$$$
18:0:0
     RDKit          3D

 97104  0  0  1  0  0  0  0  0999 V2000
  -29.7190  -22.0830   19.5540 C   0  0  0  0  0  0  0  0  0  0  0  0
  -29.3210  -23.3890   19.6480 N   0  0  0  0  0  0  0  0  0  0  0  0
  -30.6280  -21.8270   18.7630 O   0  0  0  0  0  0  0  0  0  0  0  0
  -29.8570  -23.9960   19.0470 H   0  0  0  0  0  0  0  0  0  0  0  0
  -29.1320  -20.8740   20.3620 C   0  0  0  0  0  2  0  0  0  0  0  0
  -29.7670  -18.3650   20.3760 C   0  0  0  0  0  0  0  0  0  0  0  0
  -29.4790  -19.5460   19.7680 N   0  0  0  0  0  0  0  0  0  0  0  0
  -29.7610  -18.2430   21.6010 O   0  0  0  0  0  0  0  0  0  0  0  0
  -29.5660  -19.5640   18.7610 H   0  0  0  0  0  0  0  0  0  0  0  0
  -31.4200  -17.4300   18.7190 C   0  0  0  0  0  1  0  0  0  0  0  0
  -30.1030  -17.1290   19.4750 C   0  0  0  0  0  3  0  0  0  0  0  0
  -30.8710  -14.6840   19.9900 C   0  0  0  0  0  0  0  0  0  0  0  0
  -30.6060  -12.4400   19.0070 C   0  0  0  0  0  2  0  0  0  0  0  0
  -29.6440  -12.5680   17.8060 C   0  0  0  0  0  2  0  0  0  0  0  0
  -28.1810  -12.4170   18.2660 C   0  0  0  0  0  2  0  0  0  0  0  0
  -27.8470  -13.3000   19.4980 C   0  0  0  0  0  3  0  0  0  0  0  0
  -28.9280  -13.1760   20.5970 C   0  0  0  0  0  2  0  0  0  0  0  0
  -30.2300  -13.4780   19.9850 N   0  0  0  0  0  0  0  0  0  0  0  0
  -32.0370  -14.7830   19.6100 O   0  0  0  0  0  0  0  0  0  0  0  0
  -30.0740  -15.7800   20.1510 N   0  0  0  0  0  0  0  0  0  0  0  0
  -29.1870  -15.5750   20.5850 H   0  0  0  0  0  0  0  0  0  0  0  0
  -25.4720  -13.8960   20.2810 C   0  0  0  0  0  0  0  0  0  0  0  0
  -24.4180  -13.1200   20.6790 C   0  0  0  0  0  0  0  0  0  0  0  0
  -24.8800  -11.7680   20.6330 C   0  0  0  0  0  0  0  0  0  0  0  0
  -26.5120  -13.0180   20.0170 N   0  0  0  0  0  0  0  0  0  0  0  0
  -26.1620  -11.7340   20.2910 N   0  0  0  0  0  0  0  0  0  0  0  0
  -24.1620  -10.5050   20.8400 C   0  0  0  0  0  0  0  0  0  0  0  0
  -24.5570   -9.5860   21.8360 C   0  0  0  0  0  3  0  0  0  0  0  0
  -23.8380   -8.3860   22.0300 C   0  0  0  0  0  3  0  0  0  0  0  0
  -22.7110   -8.0970   21.2260 C   0  0  0  0  0  0  0  0  0  0  0  0
  -22.3340   -9.0040   20.2210 C   0  0  0  0  0  3  0  0  0  0  0  0
  -23.0540  -10.1960   20.0260 C   0  0  0  0  0  3  0  0  0  0  0  0
  -21.9680   -6.9440   21.3240 O   0  0  0  0  0  0  0  0  0  0  0  0
  -21.8070   -6.2920   22.5200 C   0  0  0  0  0  0  0  0  0  0  0  0
  -21.1870   -6.9100   23.6290 C   0  0  0  0  0  3  0  0  0  0  0  0
  -20.9800   -6.1810   24.8160 C   0  0  0  0  0  3  0  0  0  0  0  0
  -21.3820   -4.8330   24.8960 C   0  0  0  0  0  0  0  0  0  0  0  0
  -21.9930   -4.2140   23.7910 C   0  0  0  0  0  3  0  0  0  0  0  0
  -22.2020   -4.9420   22.6060 C   0  0  0  0  0  0  0  0  0  0  0  0
  -22.7730   -4.3350   21.5370 F   0  0  0  0  0  0  0  0  0  0  0  0
  -21.1760   -4.1290   26.0330 F   0  0  0  0  0  0  0  0  0  0  0  0
  -23.0270  -13.5940   20.9890 C   0  0  0  0  0  0  0  0  0  0  0  0
  -22.3180  -12.8860   21.8620 N   0  0  0  0  0  0  0  0  0  0  0  0
  -22.5780  -14.6250   20.4910 O   0  0  0  0  0  0  0  0  0  0  0  0
  -22.6920  -12.0520   22.2870 H   0  0  0  0  0  0  0  0  0  0  0  0
  -21.3850  -13.1840   22.1070 H   0  0  0  0  0  0  0  0  0  0  0  0
  -25.6300  -15.2680   20.1000 N   0  0  0  0  0  0  0  0  0  0  0  0
  -24.8630  -15.9180   20.2280 H   0  0  0  0  0  0  0  0  0  0  0  0
  -26.4650  -15.7090   19.7350 H   0  0  0  0  0  0  0  0  0  0  0  0
  -28.2630  -24.1380   20.3850 C   0  0  0  0  0  3  0  0  0  0  0  0
  -27.9140  -23.4700   21.7320 C   0  0  0  0  0  0  0  0  0  0  0  0
  -26.6520  -23.1320   21.9650 N   0  0  0  0  0  0  0  0  0  0  0  0
  -28.7890  -23.2470   22.5670 O   0  0  0  0  0  0  0  0  0  0  0  0
  -25.9310  -23.3230   21.2820 H   0  0  0  0  0  0  0  0  0  0  0  0
  -26.3980  -22.6860   22.8350 H   0  0  0  0  0  0  0  0  0  0  0  0
  -28.5930  -25.6780   20.6060 C   0  0  0  0  0  2  0  0  0  0  0  0
  -28.3490  -26.6750   19.5750 O   0  0  0  0  0  0  0  0  0  0  0  0
  -24.5660  -31.7530   23.0250 C   0  0  0  0  0  0  0  0  0  0  0  0
  -27.2080  -27.4570   19.6920 C   0  0  0  0  0  0  0  0  0  0  0  0
  -23.3580  -30.4340   21.3210 C   0  0  0  0  0  3  0  0  0  0  0  0
  -24.8130  -28.9810   19.8000 C   0  0  0  0  0  0  0  0  0  0  0  0
  -25.8840  -30.8100   21.1220 C   0  0  0  0  0  2  0  0  0  0  0  0
  -25.9770  -29.4700   20.4100 C   0  0  0  0  0  0  0  0  0  0  0  0
  -27.1800  -28.7160   20.3530 C   0  0  0  0  0  3  0  0  0  0  0  0
  -26.0300  -27.0000   19.0730 C   0  0  0  0  0  3  0  0  0  0  0  0
  -24.8370  -27.7480   19.1270 C   0  0  0  0  0  3  0  0  0  0  0  0
  -23.5630  -29.8320   19.9050 C   0  0  0  0  0  2  0  0  0  0  0  0
  -24.6220  -31.0120   21.8820 N   0  0  0  0  0  0  0  0  0  0  0  0
  -23.4880  -31.9870   23.5890 O   0  0  0  0  0  0  0  0  0  0  0  0
  -22.7210  -29.3570   22.2300 C   0  0  0  0  0  0  0  0  0  0  0  0
  -21.3930  -29.1830   22.1200 N   0  0  0  0  0  0  0  0  0  0  0  0
  -23.4190  -28.6820   22.9910 O   0  0  0  0  0  0  0  0  0  0  0  0
  -20.8890  -29.7850   21.4860 H   0  0  0  0  0  0  0  0  0  0  0  0
  -18.0280  -27.9680   22.6340 C   0  0  0  0  0  0  0  0  0  0  0  0
  -20.5950  -28.1920   22.8410 C   0  0  0  0  0  3  0  0  0  0  0  0
  -20.6700  -26.8080   22.1510 C   0  0  0  0  0  2  0  0  0  0  0  0
  -19.5310  -26.5620   21.1580 C   0  0  0  0  0  2  0  0  0  0  0  0
  -18.1710  -26.6720   21.8530 C   0  0  0  0  0  2  0  0  0  0  0  0
  -19.1660  -28.6880   23.0840 C   0  0  0  0  0  0  0  0  0  0  0  0
  -18.9770  -29.9040   23.7770 C   0  0  0  0  0  3  0  0  0  0  0  0
  -17.6830  -30.4000   24.0200 C   0  0  0  0  0  3  0  0  0  0  0  0
  -16.5600  -29.6760   23.5830 C   0  0  0  0  0  3  0  0  0  0  0  0
  -16.7330  -28.4600   22.8970 C   0  0  0  0  0  3  0  0  0  0  0  0
  -25.8510  -32.3620   23.6670 C   0  0  0  0  0  3  0  0  0  0  0  0
  -25.5440  -33.7490   24.0430 N   0  0  0  0  0  0  0  0  0  0  0  0
  -25.8770  -34.8250   23.3180 C   0  0  0  0  0  0  0  0  0  0  0  0
  -26.5450  -34.7540   22.2830 O   0  0  0  0  0  0  0  0  0  0  0  0
  -24.9480  -33.8770   24.8470 H   0  0  0  0  0  0  0  0  0  0  0  0
  -24.1490  -36.6290   23.0220 C   0  0  0  0  0  1  0  0  0  0  0  0
  -25.3900  -36.1990   23.8200 C   0  0  0  0  0  3  0  0  0  0  0  0
  -27.5180  -37.0620   24.6880 C   0  0  0  0  0  1  0  0  0  0  0  0
  -26.4240  -37.2530   23.7410 N   0  0  0  0  0  0  0  0  0  0  0  0
  -26.0170  -38.1700   23.9060 H   0  0  0  0  0  0  0  0  0  0  0  0
  -26.3670  -31.5480   24.9180 C   0  0  1  0  0  0  0  0  0  0  0  0
  -25.2720  -31.2760   25.9760 C   0  0  0  0  0  1  0  0  0  0  0  0
  -26.9510  -30.1850   24.4800 C   0  0  0  0  0  1  0  0  0  0  0  0
  -27.5160  -32.3210   25.6070 C   0  0  0  0  0  1  0  0  0  0  0  0
  1  2  1  0
  1  5  1  0
  2 50  1  0
  3  1  2  0
  4  2  1  0
  6  8  2  0
  7  5  1  0
  7  6  1  0
  9  7  1  0
 11 10  1  0
 11 20  1  0
 11  6  1  0
 12 20  1  0
 13 18  1  0
 14 15  1  0
 14 13  1  0
 16 15  1  0
 16 25  1  0
 16 17  1  0
 18 12  1  0
 18 17  1  0
 19 12  2  0
 20 21  1  0
 22 23  2  0
 23 42  1  0
 24 23  1  0
 24 27  1  0
 25 22  1  0
 25 26  1  0
 26 24  2  0
 27 28  1  0
 28 29  2  0
 30 33  1  0
 30 29  1  0
 31 30  2  0
 32 31  1  0
 32 27  2  0
 33 34  1  0
 34 39  2  0
 34 35  1  0
 35 36  2  0
 36 37  1  0
 37 41  1  0
 38 37  2  0
 39 38  1  0
 40 39  1  0
 42 43  1  0
 43 46  1  0
 43 45  1  0
 44 42  2  0
 47 48  1  0
 47 22  1  0
 49 47  1  0
 50 56  1  0
 50 51  1  0
 51 52  1  0
 51 53  2  0
 52 55  1  0
 54 52  1  0
 57 59  1  0
 57 56  1  0
 58 69  2  0
 59 64  1  0
 60 68  1  0
 60 70  1  0
 61 67  1  0
 61 63  1  0
 62 68  1  0
 63 62  1  0
 64 63  2  0
 65 66  1  0
 65 59  2  0
 66 61  2  0
 67 60  1  0
 68 58  1  0
 70 72  2  0
 71 70  1  0
 73 71  1  0
 74 83  2  0
 74 79  1  0
 75 71  1  0
 75 79  1  0
 76 75  1  0
 77 78  1  0
 77 76  1  0
 78 74  1  0
 79 80  2  0
 80 81  1  0
 82 81  2  0
 83 82  1  0
 84 58  1  0
 84 85  1  0
 84 94  1  0
 85 88  1  0
 86 90  1  0
 86 85  1  0
 87 86  2  0
 90 89  1  0
 92 90  1  0
 92 93  1  0
 92 91  1  0
 94 97  1  1
 94 95  1  0
 96 94  1  0
M  ISO  4  12 100  20 100  56 101  57 101
M  END
>  <TORSDO>  (19) 
F 22

>  <SCORE>  (19) 
-12.625

>  <name>  (19) 
18

>  <ligand_id>  (19) 
18

>  <original_smiles>  (19) 
[H]c1c([H])c([H])c2c(c1[H])C([H])([H])C([H])([H])C([H])([H])C2([H])N([H])C(=O)C1([H])N(C(=O)C([H])(N([H])C(=O)C([H])(N([H])C([H])([H])[H])C([H])([H])[H])C(C([H])([H])[H])(C([H])([H])[H])C([H])([H])[H])C([H])([H])c2c([H])c(OC([H])([H])C([H])(C(=O)N([H])[H])N([H])C(=O)C([H])([H])N([H])C(=O)C([H])(N([H])C(=O)N3C([H])([H])C([H])([H])C([H])([H])C([H])(n4nc(-c5c([H])c([H])c(Oc6c([H])c([H])c(F)c([H])c6F)c([H])c5[H])c(C(=O)N([H])[H])c4N([H])[H])C3([H])[H])C([H])([H])[H])c([H])c([H])c2C1([H])[H]

>  <smiles>  (19) 
[H]c1c([H])c([H])c2c(c1[H])C([H])([H])C([H])([H])C([H])([H])C2([H])N([H])C(=O)C1([H])N(C(=O)C([H])(N([H])C(=O)C([H])(N([H])C([H])([H])[H])C([H])([H])[H])C(C([H])([H])[H])(C([H])([H])[H])C([H])([H])[H])C([H])([H])c2c([H])c(OC([H])([H])C([H])(C(=O)N([H])[H])N([H])C(=O)C([H])([H])N([H])C(=O)C([H])(N([H])C(=O)N3C([H])([H])C([H])([H])C([H])([H])C([H])(n4nc(-c5c([H])c([H])c(Oc6c([H])c([H])c(F)c([H])c6F)c([H])c5[H])c(C(=O)N([H])[H])c4N([H])[H])C3([H])[H])C([H])([H])[H])c([H])c([H])c2C1([H])[H]

$$$$
19:0:0
     RDKit          3D

 98106  0  0  1  0  0  0  0  0999 V2000
  -29.7570  -20.7280   20.8790 C   0  0  0  0  0  0  0  0  0  0  0  0
  -29.9110  -19.5160   20.3110 N   0  0  0  0  0  0  0  0  0  0  0  0
  -29.7690  -20.8810   22.1020 O   0  0  0  0  0  0  0  0  0  0  0  0
  -29.9180  -19.4870   19.3020 H   0  0  0  0  0  0  0  0  0  0  0  0
  -31.7370  -22.9700   19.7430 C   0  0  0  0  0  2  0  0  0  0  0  0
  -30.7080  -22.1520   18.9610 C   0  0  0  0  0  2  0  0  0  0  0  0
  -30.9280  -23.6760   20.8470 C   0  0  0  0  0  2  0  0  0  0  0  0
  -29.5480  -21.9580   19.9490 C   0  0  0  0  0  3  0  0  0  0  0  0
  -29.5110  -23.2420   20.7120 N   0  0  2  0  0  4  0  0  0  0  0  0
  -29.1610  -22.9890   21.6300 H   0  0  0  0  0  0  0  0  0  0  0  0
  -28.6290  -24.2920   20.0960 C   0  0  0  0  0  2  0  0  0  0  0  0
  -28.3220  -25.5190   21.0010 C   0  0  0  0  0  2  0  0  0  0  0  0
  -28.4010  -26.7790   20.3000 O   0  0  0  0  0  0  0  0  0  0  0  0
  -24.5530  -31.9740   23.3030 C   0  0  0  0  0  0  0  0  0  0  0  0
  -27.2400  -27.5220   20.2800 C   0  0  0  0  0  0  0  0  0  0  0  0
  -23.3700  -30.5620   21.6570 C   0  0  0  0  0  3  0  0  0  0  0  0
  -24.8400  -29.0190   20.2560 C   0  0  0  0  0  0  0  0  0  0  0  0
  -25.8970  -30.9250   21.4820 C   0  0  0  0  0  2  0  0  0  0  0  0
  -25.9940  -29.5550   20.8400 C   0  0  0  0  0  0  0  0  0  0  0  0
  -27.2030  -28.8220   20.8320 C   0  0  0  0  0  3  0  0  0  0  0  0
  -26.0690  -26.9920   19.6960 C   0  0  0  0  0  3  0  0  0  0  0  0
  -24.8720  -27.7360   19.6790 C   0  0  0  0  0  3  0  0  0  0  0  0
  -23.5940  -29.8780   20.2820 C   0  0  0  0  0  2  0  0  0  0  0  0
  -24.6250  -31.1690   22.2050 N   0  0  0  0  0  0  0  0  0  0  0  0
  -23.4640  -32.2440   23.8300 O   0  0  0  0  0  0  0  0  0  0  0  0
  -22.7120  -29.5440   22.6170 C   0  0  0  0  0  0  0  0  0  0  0  0
  -21.3920  -29.3510   22.4690 N   0  0  0  0  0  0  0  0  0  0  0  0
  -23.3850  -28.9340   23.4520 O   0  0  0  0  0  0  0  0  0  0  0  0
  -20.9170  -29.8980   21.7650 H   0  0  0  0  0  0  0  0  0  0  0  0
  -18.0170  -28.1310   22.9110 C   0  0  0  0  0  0  0  0  0  0  0  0
  -20.5660  -28.4140   23.2310 C   0  0  0  0  0  3  0  0  0  0  0  0
  -20.6940  -26.9780   22.6720 C   0  0  0  0  0  2  0  0  0  0  0  0
  -19.6140  -26.6360   21.6410 C   0  0  0  0  0  2  0  0  0  0  0  0
  -18.2200  -26.7750   22.2560 C   0  0  0  0  0  2  0  0  0  0  0  0
  -19.1190  -28.9080   23.3550 C   0  0  0  0  0  0  0  0  0  0  0  0
  -18.8790  -30.1750   23.9280 C   0  0  0  0  0  3  0  0  0  0  0  0
  -17.5670  -30.6630   24.0710 C   0  0  0  0  0  3  0  0  0  0  0  0
  -16.4780  -29.8850   23.6430 C   0  0  0  0  0  3  0  0  0  0  0  0
  -16.7030  -28.6230   23.0630 C   0  0  0  0  0  3  0  0  0  0  0  0
  -25.8280  -32.6120   23.9380 C   0  0  0  0  0  3  0  0  0  0  0  0
  -25.5170  -34.0170   24.2210 N   0  0  0  0  0  0  0  0  0  0  0  0
  -25.8820  -35.0530   23.4530 C   0  0  0  0  0  0  0  0  0  0  0  0
  -26.5850  -34.9250   22.4460 O   0  0  0  0  0  0  0  0  0  0  0  0
  -24.8850  -34.1880   24.9890 H   0  0  0  0  0  0  0  0  0  0  0  0
  -24.1820  -36.8590   23.0080 C   0  0  0  0  0  1  0  0  0  0  0  0
  -25.3910  -36.4540   23.8680 C   0  0  0  0  0  3  0  0  0  0  0  0
  -27.5030  -37.3390   24.7570 C   0  0  0  0  0  1  0  0  0  0  0  0
  -26.4360  -37.4980   23.7720 N   0  0  0  0  0  0  0  0  0  0  0  0
  -26.0320  -38.4230   23.8900 H   0  0  0  0  0  0  0  0  0  0  0  0
  -26.3090  -31.8740   25.2480 C   0  0  1  0  0  0  0  0  0  0  0  0
  -25.1930  -31.6770   26.3020 C   0  0  0  0  0  1  0  0  0  0  0  0
  -26.8890  -30.4810   24.9080 C   0  0  0  0  0  1  0  0  0  0  0  0
  -27.4410  -32.6850   25.9200 C   0  0  0  0  0  1  0  0  0  0  0  0
  -30.0560  -18.2200   21.0090 C   0  0  0  0  0  2  0  0  0  0  0  0
  -30.0390  -16.9780   20.0450 C   0  0  0  0  0  3  0  0  0  0  0  0
  -30.6760  -14.6240   20.5240 C   0  0  0  0  0  0  0  0  0  0  0  0
  -30.4210  -12.4320   19.4480 C   0  0  0  0  0  2  0  0  0  0  0  0
  -29.5240  -12.6300   18.2090 C   0  0  0  0  0  2  0  0  0  0  0  0
  -28.0330  -12.4960   18.5850 C   0  0  0  0  0  2  0  0  0  0  0  0
  -27.6510  -13.3330   19.8380 C   0  0  0  0  0  3  0  0  0  0  0  0
  -28.6800  -13.1540   20.9820 C   0  0  0  0  0  2  0  0  0  0  0  0
  -30.0200  -13.4370   20.4440 N   0  0  0  0  0  0  0  0  0  0  0  0
  -31.8390  -14.7690   20.1340 O   0  0  0  0  0  0  0  0  0  0  0  0
  -29.9130  -15.7030   20.7820 N   0  0  0  0  0  0  0  0  0  0  0  0
  -28.9770  -15.5110   21.1090 H   0  0  0  0  0  0  0  0  0  0  0  0
  -25.2390  -13.9370   20.5100 C   0  0  0  0  0  0  0  0  0  0  0  0
  -24.1620  -13.1620   20.8530 C   0  0  0  0  0  0  0  0  0  0  0  0
  -24.6260  -11.8120   20.8360 C   0  0  0  0  0  0  0  0  0  0  0  0
  -26.2880  -13.0570   20.2920 N   0  0  0  0  0  0  0  0  0  0  0  0
  -25.9240  -11.7740   20.5520 N   0  0  0  0  0  0  0  0  0  0  0  0
  -23.8980  -10.5510   21.0180 C   0  0  0  0  0  0  0  0  0  0  0  0
  -24.3070   -9.5920   21.9710 C   0  0  0  0  0  3  0  0  0  0  0  0
  -23.5830   -8.3940   22.1370 C   0  0  0  0  0  3  0  0  0  0  0  0
  -22.4330   -8.1440   21.3510 C   0  0  0  0  0  0  0  0  0  0  0  0
  -22.0400   -9.0920   20.3910 C   0  0  0  0  0  3  0  0  0  0  0  0
  -22.7670  -10.2830   20.2220 C   0  0  0  0  0  3  0  0  0  0  0  0
  -21.6750   -7.0000   21.4310 O   0  0  0  0  0  0  0  0  0  0  0  0
  -21.5950   -6.2640   22.5860 C   0  0  0  0  0  0  0  0  0  0  0  0
  -21.1220   -6.8190   23.7960 C   0  0  0  0  0  3  0  0  0  0  0  0
  -20.9940   -6.0060   24.9410 C   0  0  0  0  0  3  0  0  0  0  0  0
  -21.3280   -4.6400   24.8780 C   0  0  0  0  0  0  0  0  0  0  0  0
  -21.7910   -4.0830   23.6730 C   0  0  0  0  0  3  0  0  0  0  0  0
  -21.9230   -4.8920   22.5300 C   0  0  0  0  0  0  0  0  0  0  0  0
  -22.3520   -4.3450   21.3660 F   0  0  0  0  0  0  0  0  0  0  0  0
  -21.1910   -3.8570   25.9740 F   0  0  0  0  0  0  0  0  0  0  0  0
  -22.7600  -13.6380   21.0960 C   0  0  0  0  0  0  0  0  0  0  0  0
  -22.0080  -12.9410   21.9410 N   0  0  0  0  0  0  0  0  0  0  0  0
  -22.3330  -14.6630   20.5640 O   0  0  0  0  0  0  0  0  0  0  0  0
  -22.3490  -12.1090   22.3990 H   0  0  0  0  0  0  0  0  0  0  0  0
  -21.0660  -13.2500   22.1290 H   0  0  0  0  0  0  0  0  0  0  0  0
  -25.4060  -15.3100   20.3530 N   0  0  0  0  0  0  0  0  0  0  0  0
  -24.6520  -15.9700   20.4970 H   0  0  0  0  0  0  0  0  0  0  0  0
  -26.2740  -15.7710   20.0750 H   0  0  0  0  0  0  0  0  0  0  0  0
  -28.7960  -16.9800   19.1310 C   0  0  0  0  0  0  0  0  0  0  0  0
  -28.9750  -16.9480   17.8140 N   0  0  0  0  0  0  0  0  0  0  0  0
  -27.6690  -16.9530   19.6210 O   0  0  0  0  0  0  0  0  0  0  0  0
  -29.9020  -16.9920   17.4130 H   0  0  0  0  0  0  0  0  0  0  0  0
  -28.1830  -16.8810   17.1900 H   0  0  0  0  0  0  0  0  0  0  0  0
  1  3  2  0
  2  1  1  0
  2 54  1  0
  4  2  1  0
  5  7  1  0
  6  5  1  0
  6  8  1  0
  8  9  1  0
  8  1  1  0
  9  7  1  0
  9 10  1  1
 11  9  1  0
 11 12  1  0
 13 12  1  0
 14 25  2  0
 15 13  1  0
 15 20  1  0
 16 24  1  0
 16 26  1  0
 17 23  1  0
 17 19  1  0
 18 24  1  0
 19 18  1  0
 20 19  2  0
 21 15  2  0
 22 21  1  0
 22 17  2  0
 23 16  1  0
 24 14  1  0
 26 28  2  0
 27 26  1  0
 29 27  1  0
 30 39  2  0
 30 35  1  0
 31 27  1  0
 31 35  1  0
 32 31  1  0
 33 34  1  0
 33 32  1  0
 34 30  1  0
 35 36  2  0
 36 37  1  0
 38 37  2  0
 39 38  1  0
 40 14  1  0
 40 41  1  0
 40 50  1  0
 41 44  1  0
 42 46  1  0
 42 41  1  0
 43 42  2  0
 46 45  1  0
 48 46  1  0
 48 49  1  0
 48 47  1  0
 50 53  1  1
 50 51  1  0
 52 50  1  0
 55 64  1  0
 55 54  1  0
 56 64  1  0
 57 62  1  0
 58 59  1  0
 58 57  1  0
 60 59  1  0
 60 69  1  0
 60 61  1  0
 62 56  1  0
 62 61  1  0
 63 56  2  0
 64 65  1  0
 66 67  2  0
 67 86  1  0
 68 67  1  0
 68 71  1  0
 69 66  1  0
 69 70  1  0
 70 68  2  0
 71 72  1  0
 72 73  2  0
 74 77  1  0
 74 73  1  0
 75 74  2  0
 76 75  1  0
 76 71  2  0
 77 78  1  0
 78 79  1  0
 79 80  2  0
 81 80  1  0
 81 85  1  0
 82 81  2  0
 83 78  2  0
 83 82  1  0
 84 83  1  0
 86 87  1  0
 87 90  1  0
 87 89  1  0
 88 86  2  0
 91 92  1  0
 91 66  1  0
 93 91  1  0
 94 96  2  0
 94 55  1  0
 95 94  1  0
 97 95  1  0
 98 95  1  0
M  ISO  4  12 101  13 101  56 100  64 100
M  END
>  <TORSDO>  (20) 
F 22

>  <SCORE>  (20) 
-12.998

>  <name>  (20) 
19

>  <ligand_id>  (20) 
19

>  <original_smiles>  (20) 
[H]c1c([H])c([H])c2c(c1[H])C([H])([H])C([H])([H])C([H])([H])C2([H])N([H])C(=O)C1([H])N(C(=O)C([H])(N([H])C(=O)C([H])(N([H])C([H])([H])[H])C([H])([H])[H])C(C([H])([H])[H])(C([H])([H])[H])C([H])([H])[H])C([H])([H])c2c([H])c(OC([H])([H])C([H])([H])[N+]3([H])C([H])([H])C([H])([H])C([H])([H])C3([H])C(=O)N([H])C([H])([H])C([H])(C(=O)N([H])[H])N([H])C(=O)N3C([H])([H])C([H])([H])C([H])([H])C([H])(n4nc(-c5c([H])c([H])c(Oc6c([H])c([H])c(F)c([H])c6F)c([H])c5[H])c(C(=O)N([H])[H])c4N([H])[H])C3([H])[H])c([H])c([H])c2C1([H])[H]

>  <smiles>  (20) 
[H]c1c([H])c([H])c2c(c1[H])C([H])([H])C([H])([H])C([H])([H])C2([H])N([H])C(=O)C1([H])N(C(=O)C([H])(N([H])C(=O)C([H])(N([H])C([H])([H])[H])C([H])([H])[H])C(C([H])([H])[H])(C([H])([H])[H])C([H])([H])[H])C([H])([H])c2c([H])c(OC([H])([H])C([H])([H])[N+]3([H])C([H])([H])C([H])([H])C([H])([H])C3([H])C(=O)N([H])C([H])([H])C([H])(C(=O)N([H])[H])N([H])C(=O)N3C([H])([H])C([H])([H])C([H])([H])C([H])(n4nc(-c5c([H])c([H])c(Oc6c([H])c([H])c(F)c([H])c6F)c([H])c5[H])c(C(=O)N([H])[H])c4N([H])[H])C3([H])[H])c([H])c([H])c2C1([H])[H]

$$$$
20:0:0
     RDKit          3D

105112  0  0  1  0  0  0  0  0999 V2000
  -30.8680  -20.7350   21.4330 C   0  0  0  0  0  3  0  0  0  0  0  0
  -30.3490  -18.2490   21.5330 C   0  0  0  0  0  0  0  0  0  0  0  0
  -30.2570  -19.4750   21.0070 N   0  0  0  0  0  0  0  0  0  0  0  0
  -30.8810  -18.0050   22.6170 O   0  0  0  0  0  0  0  0  0  0  0  0
  -29.8190  -19.5150   20.0980 H   0  0  0  0  0  0  0  0  0  0  0  0
  -29.7270  -17.1400   20.6600 C   0  0  0  0  0  0  0  0  0  0  0  0
  -30.7030  -14.7880   21.0240 C   0  0  0  0  0  0  0  0  0  0  0  0
  -30.6570  -12.5030   20.1000 C   0  0  0  0  0  2  0  0  0  0  0  0
  -29.8390  -12.5270   18.7900 C   0  0  0  0  0  2  0  0  0  0  0  0
  -28.3220  -12.4200   19.0570 C   0  0  0  0  0  2  0  0  0  0  0  0
  -27.8240  -13.3370   20.2070 C   0  0  0  0  0  3  0  0  0  0  0  0
  -28.7620  -13.2320   21.4310 C   0  0  0  0  0  2  0  0  0  0  0  0
  -30.1310  -13.5540   20.9840 N   0  0  0  0  0  0  0  0  0  0  0  0
  -31.8710  -15.0090   20.6960 O   0  0  0  0  0  0  0  0  0  0  0  0
  -29.8030  -15.7690   21.2030 N   0  0  0  0  0  4  0  0  0  0  0  0
  -28.9270  -15.4360   21.5710 H   0  0  0  0  0  0  0  0  0  0  0  0
  -25.3620  -13.9300   20.6840 C   0  0  0  0  0  0  0  0  0  0  0  0
  -24.2700  -13.1490   20.9530 C   0  0  0  0  0  0  0  0  0  0  0  0
  -24.7420  -11.8010   20.9620 C   0  0  0  0  0  0  0  0  0  0  0  0
  -26.4320  -13.0550   20.5530 N   0  0  0  0  0  0  0  0  0  0  0  0
  -26.0560  -11.7720   20.7770 N   0  0  0  0  0  0  0  0  0  0  0  0
  -24.0130  -10.5330   21.0810 C   0  0  0  0  0  0  0  0  0  0  0  0
  -24.4100   -9.5380   22.0010 C   0  0  0  0  0  3  0  0  0  0  0  0
  -23.6840   -8.3310   22.1070 C   0  0  0  0  0  3  0  0  0  0  0  0
  -22.5470   -8.1140   21.2930 C   0  0  0  0  0  0  0  0  0  0  0  0
  -22.1700   -9.0980   20.3620 C   0  0  0  0  0  3  0  0  0  0  0  0
  -22.8960  -10.2960   20.2540 C   0  0  0  0  0  3  0  0  0  0  0  0
  -21.7930   -6.9650   21.3120 O   0  0  0  0  0  0  0  0  0  0  0  0
  -21.7420   -6.1580   22.4200 C   0  0  0  0  0  0  0  0  0  0  0  0
  -21.3320   -6.6480   23.6800 C   0  0  0  0  0  3  0  0  0  0  0  0
  -21.2250   -5.7680   24.7750 C   0  0  0  0  0  3  0  0  0  0  0  0
  -21.5190   -4.4000   24.6120 C   0  0  0  0  0  0  0  0  0  0  0  0
  -21.9230   -3.9110   23.3570 C   0  0  0  0  0  3  0  0  0  0  0  0
  -22.0320   -4.7880   22.2640 C   0  0  0  0  0  0  0  0  0  0  0  0
  -22.4010   -4.3080   21.0520 F   0  0  0  0  0  0  0  0  0  0  0  0
  -21.4070   -3.5540   25.6620 F   0  0  0  0  0  0  0  0  0  0  0  0
  -22.8480  -13.6150   21.0990 C   0  0  0  0  0  0  0  0  0  0  0  0
  -22.0570  -12.9250   21.9150 N   0  0  0  0  0  0  0  0  0  0  0  0
  -22.4440  -14.6250   20.5260 O   0  0  0  0  0  0  0  0  0  0  0  0
  -22.3920  -12.1120   22.4070 H   0  0  0  0  0  0  0  0  0  0  0  0
  -21.1020  -13.2220   22.0530 H   0  0  0  0  0  0  0  0  0  0  0  0
  -25.5290  -15.3040   20.5240 N   0  0  0  0  0  0  0  0  0  0  0  0
  -24.7430  -15.9440   20.5640 H   0  0  0  0  0  0  0  0  0  0  0  0
  -26.3870  -15.7480   20.2250 H   0  0  0  0  0  0  0  0  0  0  0  0
  -30.1050  -16.0960   18.2360 C   0  0  0  0  0  1  0  0  0  0  0  0
  -28.8180  -18.2010   18.4910 C   0  0  0  0  0  1  0  0  0  0  0  0
  -29.9480  -17.3470   19.1120 C   0  0  0  0  0  3  0  0  0  0  0  0
  -32.3260  -20.7830   20.8930 C   0  0  0  0  0  0  0  0  0  0  0  0
  -32.8620  -21.9840   20.6360 N   0  0  0  0  0  0  0  0  0  0  0  0
  -32.9580  -19.7420   20.7010 O   0  0  0  0  0  0  0  0  0  0  0  0
  -32.2870  -22.7980   20.8050 H   0  0  0  0  0  0  0  0  0  0  0  0
  -34.1800  -22.2250   20.0590 C   0  0  0  0  0  2  0  0  0  0  0  0
  -34.4620  -23.7330   19.9370 C   0  0  0  0  0  2  0  0  0  0  0  0
  -33.3600  -24.4240   19.3510 O   0  0  0  0  0  0  0  0  0  0  0  0
  -33.3430  -25.8060   19.7140 C   0  0  0  0  0  2  0  0  0  0  0  0
  -32.1140  -26.5430   19.1490 C   0  0  0  0  0  2  0  0  0  0  0  0
  -30.9140  -25.8800   19.5350 O   0  0  0  0  0  0  0  0  0  0  0  0
  -26.8260  -29.8200   23.8600 C   0  0  0  0  0  0  0  0  0  0  0  0
  -29.7940  -26.6630   19.6980 C   0  0  0  0  0  0  0  0  0  0  0  0
  -25.8120  -29.1630   21.6990 C   0  0  0  0  0  3  0  0  0  0  0  0
  -27.4150  -28.1590   19.9870 C   0  0  0  0  0  0  0  0  0  0  0  0
  -28.3430  -29.4430   21.9220 C   0  0  0  0  0  2  0  0  0  0  0  0
  -28.4950  -28.3890   20.8470 C   0  0  0  0  0  0  0  0  0  0  0  0
  -29.6870  -27.6460   20.7080 C   0  0  0  0  0  3  0  0  0  0  0  0
  -28.6910  -26.4240   18.8530 C   0  0  0  0  0  3  0  0  0  0  0  0
  -27.5040  -27.1730   18.9870 C   0  0  0  0  0  3  0  0  0  0  0  0
  -26.1790  -29.0060   20.1990 C   0  0  0  0  0  2  0  0  0  0  0  0
  -27.0050  -29.4670   22.5560 N   0  0  0  0  0  0  0  0  0  0  0  0
  -25.6920  -29.9380   24.3420 O   0  0  0  0  0  0  0  0  0  0  0  0
  -25.0380  -27.9040   22.1520 C   0  0  0  0  0  0  0  0  0  0  0  0
  -23.7390  -27.8490   21.8190 N   0  0  0  0  0  0  0  0  0  0  0  0
  -25.6110  -26.9960   22.7590 O   0  0  0  0  0  0  0  0  0  0  0  0
  -23.3430  -28.6380   21.3270 H   0  0  0  0  0  0  0  0  0  0  0  0
  -20.3220  -26.7360   21.4570 C   0  0  0  0  0  0  0  0  0  0  0  0
  -22.8250  -26.7440   22.1050 C   0  0  0  0  0  3  0  0  0  0  0  0
  -22.9900  -25.6040   21.0740 C   0  0  0  0  0  2  0  0  0  0  0  0
  -22.0270  -25.7180   19.8880 C   0  0  0  0  0  2  0  0  0  0  0  0
  -20.5740  -25.7010   20.3730 C   0  0  0  0  0  2  0  0  0  0  0  0
  -21.3810  -27.2360   22.2590 C   0  0  0  0  0  0  0  0  0  0  0  0
  -21.0980  -28.2230   23.2290 C   0  0  0  0  0  3  0  0  0  0  0  0
  -19.7870  -28.7040   23.4050 C   0  0  0  0  0  3  0  0  0  0  0  0
  -18.7400  -28.1930   22.6190 C   0  0  0  0  0  3  0  0  0  0  0  0
  -19.0080  -27.2090   21.6510 C   0  0  0  0  0  3  0  0  0  0  0  0
  -28.0370  -30.1170   24.8010 C   0  0  0  0  0  3  0  0  0  0  0  0
  -27.6970  -31.3030   25.5960 N   0  0  0  0  0  0  0  0  0  0  0  0
  -28.1360  -32.5430   25.3380 C   0  0  0  0  0  0  0  0  0  0  0  0
  -28.9370  -32.7950   24.4330 O   0  0  0  0  0  0  0  0  0  0  0  0
  -27.0030  -31.1810   26.3190 H   0  0  0  0  0  0  0  0  0  0  0  0
  -26.4860  -34.4350   25.4780 C   0  0  0  0  0  1  0  0  0  0  0  0
  -27.6010  -33.6850   26.2230 C   0  0  0  0  0  3  0  0  0  0  0  0
  -29.6100  -34.0660   27.5820 C   0  0  0  0  0  1  0  0  0  0  0  0
  -28.6470  -34.6410   26.6460 N   0  0  0  0  0  0  0  0  0  0  0  0
  -28.2320  -35.4600   27.0810 H   0  0  0  0  0  0  0  0  0  0  0  0
  -28.4090  -28.9040   25.7390 C   0  0  1  0  0  0  0  0  0  0  0  0
  -27.2060  -28.3360   26.5280 C   0  0  0  0  0  1  0  0  0  0  0  0
  -29.0220  -27.7470   24.9160 C   0  0  0  0  0  1  0  0  0  0  0  0
  -29.4860  -29.3410   26.7590 C   0  0  0  0  0  1  0  0  0  0  0  0
  -30.0460  -21.8780   20.7760 C   0  0  0  0  0  2  0  0  0  0  0  0
  -28.5400  -21.8570   21.0890 C   0  0  0  0  0  2  0  0  0  0  0  0
  -27.7620  -22.8240   20.1790 C   0  0  0  0  0  2  0  0  0  0  0  0
  -26.2590  -22.8860   20.5080 C   0  0  0  0  0  2  0  0  0  0  0  0
  -25.5090  -23.6690   19.5120 N   0  0  0  0  0  4  0  0  0  0  0  0
  -25.8650  -24.6050   19.4480 H   0  0  0  0  0  0  0  0  0  0  0  0
  -24.5410  -23.7210   19.7780 H   0  0  0  0  0  0  0  0  0  0  0  0
  -25.5580  -23.2420   18.6050 H   0  0  0  0  0  0  0  0  0  0  0  0
  1 98  1  0
  2  4  2  0
  3  1  1  0
  3  2  1  0
  5  3  1  0
  6 15  2  3
  6  2  1  0
  7 15  1  0
  8 13  1  0
  9 10  1  0
  9  8  1  0
 11 10  1  0
 11 20  1  0
 11 12  1  0
 13  7  1  0
 13 12  1  0
 14  7  2  0
 15 16  1  0
 17 18  2  0
 18 19  1  0
 18 37  1  0
 19 22  1  0
 20 17  1  0
 20 21  1  0
 21 19  2  0
 22 23  1  0
 23 24  2  0
 25 28  1  0
 25 24  1  0
 26 25  2  0
 27 26  1  0
 27 22  2  0
 28 29  1  0
 29 30  1  0
 30 31  2  0
 32 31  1  0
 32 36  1  0
 33 32  2  0
 34 29  2  0
 34 33  1  0
 35 34  1  0
 37 38  1  0
 38 41  1  0
 38 40  1  0
 39 37  2  0
 42 43  1  0
 42 17  1  0
 44 42  1  0
 45 47  1  0
 46 47  1  0
 47  6  1  0
 48  1  1  0
 49 51  1  0
 49 48  1  0
 50 48  2  0
 52 49  1  0
 53 52  1  0
 54 55  1  0
 54 53  1  0
 56 57  1  0
 56 55  1  0
 57 59  1  0
 58 69  2  0
 59 64  1  0
 60 70  1  0
 60 68  1  0
 61 67  1  0
 61 63  1  0
 62 68  1  0
 63 62  1  0
 64 63  2  0
 65 66  1  0
 65 59  2  0
 66 61  2  0
 67 60  1  0
 68 58  1  0
 70 72  2  0
 71 70  1  0
 73 71  1  0
 74 83  2  0
 74 79  1  0
 75 71  1  0
 75 79  1  0
 76 75  1  0
 77 78  1  0
 77 76  1  0
 78 74  1  0
 79 80  2  0
 80 81  1  0
 82 81  2  0
 83 82  1  0
 84 58  1  0
 84 85  1  0
 84 94  1  0
 85 88  1  0
 86 85  1  0
 86 90  1  0
 87 86  2  0
 90 89  1  0
 90 92  1  0
 92 93  1  0
 92 91  1  0
 94 95  1  1
 94 97  1  0
 96 94  1  0
 98 99  1  0
100101  1  0
100 99  1  0
102104  1  0
102101  1  0
103102  1  0
105102  1  0
M  ISO  4   7 100  15 100  56 101  57 101
M  END
>  <TORSDO>  (21) 
F 30

>  <SCORE>  (21) 
-8.453

>  <name>  (21) 
20

>  <ligand_id>  (21) 
20

>  <original_smiles>  (21) 
[H]c1c([H])c([H])c2c(c1[H])C([H])([H])C([H])([H])C([H])([H])C2([H])N([H])C(=O)C1([H])N(C(=O)C([H])(N([H])C(=O)C([H])(N([H])C([H])([H])[H])C([H])([H])[H])C(C([H])([H])[H])(C([H])([H])[H])C([H])([H])[H])C([H])([H])c2c([H])c(OC([H])([H])C([H])([H])OC([H])([H])C([H])([H])N([H])C(=O)C([H])(N([H])C(=O)C([H])(N([H])C(=O)N3C([H])([H])C([H])([H])C([H])([H])C([H])(n4nc(-c5c([H])c([H])c(Oc6c([H])c([H])c(F)c([H])c6F)c([H])c5[H])c(C(=O)N([H])[H])c4N([H])[H])C3([H])[H])C([H])(C([H])([H])[H])C([H])([H])[H])C([H])([H])C([H])([H])C([H])([H])C([H])([H])[N+]([H])([H])[H])c([H])c([H])c2C1([H])[H]

>  <smiles>  (21) 
[H]c1c([H])c([H])c2c(c1[H])C([H])([H])C([H])([H])C([H])([H])C2([H])N([H])C(=O)C1([H])N(C(=O)C([H])(N([H])C(=O)C([H])(N([H])C([H])([H])[H])C([H])([H])[H])C(C([H])([H])[H])(C([H])([H])[H])C([H])([H])[H])C([H])([H])c2c([H])c(OC([H])([H])C([H])([H])OC([H])([H])C([H])([H])N([H])C(=O)C([H])(N([H])C(=O)C([H])(N([H])C(=O)N3C([H])([H])C([H])([H])C([H])([H])C([H])(n4nc(-c5c([H])c([H])c(Oc6c([H])c([H])c(F)c([H])c6F)c([H])c5[H])c(C(=O)N([H])[H])c4N([H])[H])C3([H])[H])C([H])(C([H])([H])[H])C([H])([H])[H])C([H])([H])C([H])([H])C([H])([H])C([H])([H])[N+]([H])([H])[H])c([H])c([H])c2C1([H])[H]

$$$$
21:0:0
     RDKit          3D

 95102  0  0  1  0  0  0  0  0999 V2000
  -29.5870  -21.6090   21.5400 C   0  0  0  0  0  3  0  0  0  0  0  0
  -29.7620  -22.9690   23.6490 C   0  0  0  0  0  0  0  0  0  0  0  0
  -30.7000  -23.4150   24.7610 C   0  0  0  0  0  1  0  0  0  0  0  0
  -30.2810  -22.1780   22.7060 N   0  0  0  0  0  0  0  0  0  0  0  0
  -28.5880  -23.3420   23.6410 O   0  0  0  0  0  0  0  0  0  0  0  0
  -31.2410  -21.8750   22.8130 H   0  0  0  0  0  0  0  0  0  0  0  0
  -30.2140  -20.1950   21.2820 C   0  0  0  0  0  0  0  0  0  0  0  0
  -29.3950  -19.1710   20.9620 N   0  0  0  0  0  0  0  0  0  0  0  0
  -31.4120  -20.0150   21.5120 O   0  0  0  0  0  0  0  0  0  0  0  0
  -28.4570  -19.4320   20.6920 H   0  0  0  0  0  0  0  0  0  0  0  0
  -29.5600  -17.7440   21.3480 C   0  0  0  0  0  2  0  0  0  0  0  0
  -30.7750  -14.4340   19.9440 C   0  0  0  0  0  0  0  0  0  0  0  0
  -30.4130  -12.2470   18.8550 C   0  0  0  0  0  2  0  0  0  0  0  0
  -29.3920  -12.4360   17.7130 C   0  0  0  0  0  2  0  0  0  0  0  0
  -27.9550  -12.2890   18.2430 C   0  0  0  0  0  2  0  0  0  0  0  0
  -27.6980  -13.1290   19.5220 C   0  0  0  0  0  3  0  0  0  0  0  0
  -28.8300  -12.9340   20.5580 C   0  0  0  0  0  2  0  0  0  0  0  0
  -30.1080  -13.2430   19.8990 N   0  0  0  0  0  0  0  0  0  0  0  0
  -31.8720  -14.5700   19.3950 O   0  0  0  0  0  0  0  0  0  0  0  0
  -30.3570  -16.8050   20.4090 C   0  0  0  0  0  0  0  0  0  0  0  0
  -30.1030  -15.4700   20.5100 N   0  0  0  0  0  0  0  0  0  0  0  0
  -31.1660  -17.3030   19.6200 O   0  0  0  0  0  0  0  0  0  0  0  0
  -29.2990  -15.2140   21.0560 H   0  0  0  0  0  0  0  0  0  0  0  0
  -25.3610  -13.7230   20.4160 C   0  0  0  0  0  0  0  0  0  0  0  0
  -24.3190  -12.9460   20.8460 C   0  0  0  0  0  0  0  0  0  0  0  0
  -24.7730  -11.5940   20.7560 C   0  0  0  0  0  0  0  0  0  0  0  0
  -26.3840  -12.8450   20.0930 N   0  0  0  0  0  0  0  0  0  0  0  0
  -26.0380  -11.5590   20.3550 N   0  0  0  0  0  0  0  0  0  0  0  0
  -24.0580  -10.3300   20.9720 C   0  0  0  0  0  0  0  0  0  0  0  0
  -24.4890   -9.3940   21.9390 C   0  0  0  0  0  3  0  0  0  0  0  0
  -23.7740   -8.1940   22.1440 C   0  0  0  0  0  3  0  0  0  0  0  0
  -22.6150   -7.9200   21.3790 C   0  0  0  0  0  0  0  0  0  0  0  0
  -22.2030   -8.8430   20.4020 C   0  0  0  0  0  3  0  0  0  0  0  0
  -22.9190  -10.0350   20.1960 C   0  0  0  0  0  3  0  0  0  0  0  0
  -21.8730   -6.7680   21.4900 O   0  0  0  0  0  0  0  0  0  0  0  0
  -21.7390   -6.1110   22.6860 C   0  0  0  0  0  0  0  0  0  0  0  0
  -21.1770   -6.7350   23.8210 C   0  0  0  0  0  3  0  0  0  0  0  0
  -20.9940   -6.0020   25.0100 C   0  0  0  0  0  3  0  0  0  0  0  0
  -21.3630   -4.6430   25.0640 C   0  0  0  0  0  0  0  0  0  0  0  0
  -21.9160   -4.0180   23.9330 C   0  0  0  0  0  3  0  0  0  0  0  0
  -22.1010   -4.7500   22.7460 C   0  0  0  0  0  0  0  0  0  0  0  0
  -22.6160   -4.1370   21.6530 F   0  0  0  0  0  0  0  0  0  0  0  0
  -21.1790   -3.9360   26.2030 F   0  0  0  0  0  0  0  0  0  0  0  0
  -22.9470  -13.4200   21.2290 C   0  0  0  0  0  0  0  0  0  0  0  0
  -22.2780  -12.7020   22.1250 N   0  0  0  0  0  0  0  0  0  0  0  0
  -22.4770  -14.4600   20.7700 O   0  0  0  0  0  0  0  0  0  0  0  0
  -22.6710  -11.8580   22.5170 H   0  0  0  0  0  0  0  0  0  0  0  0
  -21.3620  -13.0000   22.4260 H   0  0  0  0  0  0  0  0  0  0  0  0
  -25.5150  -15.0980   20.2520 N   0  0  0  0  0  0  0  0  0  0  0  0
  -24.7530  -15.7470   20.4110 H   0  0  0  0  0  0  0  0  0  0  0  0
  -26.3280  -15.5360   19.8370 H   0  0  0  0  0  0  0  0  0  0  0  0
  -29.4800  -22.6760   20.3610 C   0  0  0  0  0  2  0  0  0  0  0  0
  -29.6400  -24.2620   20.3870 C   0  0  0  0  0  3  0  0  0  0  0  0
  -28.4030  -25.1110   19.9410 C   0  0  0  0  0  3  0  0  0  0  0  0
  -28.5350  -26.5450   20.1360 O   0  0  0  0  0  0  0  0  0  0  0  0
  -24.6010  -31.6860   23.2000 C   0  0  0  0  0  0  0  0  0  0  0  0
  -27.3660  -27.3000   20.0920 C   0  0  0  0  0  0  0  0  0  0  0  0
  -23.4480  -30.2890   21.5210 C   0  0  0  0  0  3  0  0  0  0  0  0
  -24.9500  -28.8020   20.0890 C   0  0  0  0  0  0  0  0  0  0  0  0
  -25.9750  -30.6840   21.3710 C   0  0  0  0  0  2  0  0  0  0  0  0
  -26.0960  -29.3250   20.7030 C   0  0  0  0  0  0  0  0  0  0  0  0
  -27.3060  -28.5840   20.6960 C   0  0  0  0  0  3  0  0  0  0  0  0
  -26.1950  -26.8100   19.4650 C   0  0  0  0  0  3  0  0  0  0  0  0
  -24.9990  -27.5470   19.4670 C   0  0  0  0  0  3  0  0  0  0  0  0
  -23.6900  -29.6380   20.1340 C   0  0  0  0  0  2  0  0  0  0  0  0
  -24.6920  -30.9010   22.0890 N   0  0  0  0  0  0  0  0  0  0  0  0
  -23.5070  -31.9320   23.7270 O   0  0  0  0  0  0  0  0  0  0  0  0
  -22.8000  -29.2390   22.4540 C   0  0  0  0  0  0  0  0  0  0  0  0
  -21.4820  -29.0300   22.3010 N   0  0  0  0  0  0  0  0  0  0  0  0
  -23.4820  -28.6180   23.2730 O   0  0  0  0  0  0  0  0  0  0  0  0
  -20.9910  -29.5850   21.6150 H   0  0  0  0  0  0  0  0  0  0  0  0
  -18.1260  -27.7580   22.7240 C   0  0  0  0  0  0  0  0  0  0  0  0
  -20.6720  -28.0630   23.0450 C   0  0  0  0  0  3  0  0  0  0  0  0
  -20.8150  -26.6430   22.4490 C   0  0  0  0  0  2  0  0  0  0  0  0
  -19.7370  -26.3140   21.4120 C   0  0  0  0  0  2  0  0  0  0  0  0
  -18.3410  -26.4210   22.0340 C   0  0  0  0  0  2  0  0  0  0  0  0
  -19.2210  -28.5360   23.1840 C   0  0  0  0  0  0  0  0  0  0  0  0
  -18.9670  -29.7860   23.7870 C   0  0  0  0  0  3  0  0  0  0  0  0
  -17.6490  -30.2590   23.9400 C   0  0  0  0  0  3  0  0  0  0  0  0
  -16.5680  -29.4750   23.4990 C   0  0  0  0  0  3  0  0  0  0  0  0
  -16.8060  -28.2290   22.8940 C   0  0  0  0  0  3  0  0  0  0  0  0
  -25.8660  -32.3330   23.8460 C   0  0  0  0  0  3  0  0  0  0  0  0
  -25.5300  -33.7240   24.1760 N   0  0  0  0  0  0  0  0  0  0  0  0
  -25.8490  -34.7850   23.4210 C   0  0  0  0  0  0  0  0  0  0  0  0
  -26.5290  -34.6960   22.3950 O   0  0  0  0  0  0  0  0  0  0  0  0
  -24.9240  -33.8670   24.9710 H   0  0  0  0  0  0  0  0  0  0  0  0
  -24.0910  -36.5480   23.0610 C   0  0  0  0  0  1  0  0  0  0  0  0
  -25.3340  -36.1630   23.8790 C   0  0  0  0  0  3  0  0  0  0  0  0
  -27.4420  -37.0910   24.7290 C   0  0  0  0  0  1  0  0  0  0  0  0
  -26.3460  -37.2350   23.7730 N   0  0  0  0  0  0  0  0  0  0  0  0
  -25.9210  -38.1460   23.9180 H   0  0  0  0  0  0  0  0  0  0  0  0
  -26.3720  -31.5650   25.1290 C   0  0  1  0  0  0  0  0  0  0  0  0
  -25.2610  -31.3030   26.1740 C   0  0  0  0  0  1  0  0  0  0  0  0
  -26.9880  -30.2010   24.7420 C   0  0  0  0  0  1  0  0  0  0  0  0
  -27.4930  -32.3770   25.8190 C   0  0  0  0  0  1  0  0  0  0  0  0
  1 52  1  0
  1  4  1  0
  2  3  1  0
  4  6  1  0
  4  2  1  0
  5  2  2  0
  7  9  2  0
  7  1  1  0
  8  7  1  0
  8 11  1  0
 10  8  1  0
 12 21  1  0
 13 18  1  0
 14 15  1  0
 14 13  1  0
 16 15  1  0
 16 27  1  0
 16 17  1  0
 18 12  1  0
 18 17  1  0
 19 12  2  0
 20 21  1  0
 20 11  1  0
 21 23  1  0
 22 20  2  0
 24 25  2  0
 25 44  1  0
 26 25  1  0
 26 29  1  0
 27 28  1  0
 27 24  1  0
 28 26  2  0
 29 30  1  0
 30 31  2  0
 32 35  1  0
 32 31  1  0
 33 32  2  0
 34 33  1  0
 34 29  2  0
 35 36  1  0
 36 41  2  0
 36 37  1  0
 37 38  2  0
 38 39  1  0
 39 43  1  0
 40 39  2  0
 41 40  1  0
 42 41  1  0
 44 45  1  0
 45 48  1  0
 45 47  1  0
 46 44  2  0
 49 50  1  0
 49 24  1  0
 51 49  1  0
 52 53  1  0
 54 55  1  0
 54 53  2  0
 56 67  2  0
 57 55  1  0
 57 62  1  0
 58 66  1  0
 58 68  1  0
 59 65  1  0
 59 61  1  0
 60 66  1  0
 61 60  1  0
 62 61  2  0
 63 64  1  0
 63 57  2  0
 64 59  2  0
 65 58  1  0
 66 56  1  0
 68 70  2  0
 69 68  1  0
 71 69  1  0
 72 81  2  0
 72 77  1  0
 73 69  1  0
 73 77  1  0
 74 73  1  0
 75 76  1  0
 75 74  1  0
 76 72  1  0
 77 78  2  0
 78 79  1  0
 80 79  2  0
 81 80  1  0
 82 56  1  0
 82 83  1  0
 82 92  1  0
 83 86  1  0
 84 88  1  0
 84 83  1  0
 85 84  2  0
 88 87  1  0
 90 88  1  0
 90 91  1  0
 90 89  1  0
 92 95  1  1
 92 93  1  0
 94 92  1  0
M  ISO  4  12 100  21 100  54 101  55 101
M  END
>  <TORSDO>  (22) 
F 22

>  <SCORE>  (22) 
-10.533

>  <name>  (22) 
21

>  <ligand_id>  (22) 
21

>  <original_smiles>  (22) 
[H]c1c([H])c([H])c2c(c1[H])C([H])([H])C([H])([H])C([H])([H])C2([H])N([H])C(=O)C1([H])N(C(=O)C([H])(N([H])C(=O)C([H])(N([H])C([H])([H])[H])C([H])([H])[H])C(C([H])([H])[H])(C([H])([H])[H])C([H])([H])[H])C([H])([H])c2c([H])c(OC([H])([H])C([H])([H])C([H])([H])C([H])(C(=O)N([H])C([H])([H])C(=O)N([H])C(=O)N3C([H])([H])C([H])([H])C([H])([H])C([H])(n4nc(-c5c([H])c([H])c(Oc6c([H])c([H])c(F)c([H])c6F)c([H])c5[H])c(C(=O)N([H])[H])c4N([H])[H])C3([H])[H])N([H])C(=O)C([H])([H])[H])c([H])c([H])c2C1([H])[H]

>  <smiles>  (22) 
[H]c1c([H])c([H])c2c(c1[H])C([H])([H])C([H])([H])C([H])([H])C2([H])N([H])C(=O)C1([H])N(C(=O)C([H])(N([H])C(=O)C([H])(N([H])C([H])([H])[H])C([H])([H])[H])C(C([H])([H])[H])(C([H])([H])[H])C([H])([H])[H])C([H])([H])c2c([H])c(OC([H])([H])C([H])([H])C([H])([H])C([H])(C(=O)N([H])C([H])([H])C(=O)N([H])C(=O)N3C([H])([H])C([H])([H])C([H])([H])C([H])(n4nc(-c5c([H])c([H])c(Oc6c([H])c([H])c(F)c([H])c6F)c([H])c5[H])c(C(=O)N([H])[H])c4N([H])[H])C3([H])[H])N([H])C(=O)C([H])([H])[H])c([H])c([H])c2C1([H])[H]

$$$$
22:0:0
     RDKit          3D

 93100  0  0  1  0  0  0  0  0999 V2000
  -29.6910  -18.1260   20.1340 C   0  0  0  0  0  0  0  0  0  0  0  0
  -29.9900  -19.4420   20.0680 N   0  0  0  0  0  0  0  0  0  0  0  0
  -28.5230  -17.7300   20.0670 O   0  0  0  0  0  0  0  0  0  0  0  0
  -30.9690  -19.6930   20.1050 H   0  0  0  0  0  0  0  0  0  0  0  0
  -29.0090  -20.5480   20.0220 C   0  0  0  0  0  2  0  0  0  0  0  0
  -29.6090  -21.9810   20.1910 C   0  0  0  0  0  2  0  0  0  0  0  0
  -28.6450  -22.9940   19.8430 O   0  0  0  0  0  0  0  0  0  0  0  0
  -29.0350  -24.3680   20.0680 C   0  0  0  0  0  2  0  0  0  0  0  0
  -27.9000  -25.3370   19.6210 C   0  0  0  0  0  2  0  0  0  0  0  0
  -28.0570  -26.7520   19.9360 O   0  0  0  0  0  0  0  0  0  0  0  0
  -24.4050  -31.9800   23.2190 C   0  0  0  0  0  0  0  0  0  0  0  0
  -26.9060  -27.5390   19.9540 C   0  0  0  0  0  0  0  0  0  0  0  0
  -23.1340  -30.6020   21.6120 C   0  0  0  0  0  3  0  0  0  0  0  0
  -24.5230  -29.0940   20.0960 C   0  0  0  0  0  0  0  0  0  0  0  0
  -25.6580  -30.9450   21.3240 C   0  0  0  0  0  2  0  0  0  0  0  0
  -25.7120  -29.5860   20.6490 C   0  0  0  0  0  0  0  0  0  0  0  0
  -26.9030  -28.8170   20.5770 C   0  0  0  0  0  3  0  0  0  0  0  0
  -25.6910  -27.0900   19.3790 C   0  0  0  0  0  3  0  0  0  0  0  0
  -24.5110  -27.8460   19.4580 C   0  0  0  0  0  3  0  0  0  0  0  0
  -23.2850  -29.9520   20.2130 C   0  0  0  0  0  2  0  0  0  0  0  0
  -24.4200  -31.1910   22.1080 N   0  0  0  0  0  0  0  0  0  0  0  0
  -23.3460  -32.2460   23.8030 O   0  0  0  0  0  0  0  0  0  0  0  0
  -22.5220  -29.5620   22.5820 C   0  0  0  0  0  0  0  0  0  0  0  0
  -21.2070  -29.3210   22.4540 N   0  0  0  0  0  0  0  0  0  0  0  0
  -23.2290  -28.9770   23.4070 O   0  0  0  0  0  0  0  0  0  0  0  0
  -20.6930  -29.8520   21.7650 H   0  0  0  0  0  0  0  0  0  0  0  0
  -17.9020  -27.9310   22.9110 C   0  0  0  0  0  0  0  0  0  0  0  0
  -20.4300  -28.3570   23.2350 C   0  0  0  0  0  3  0  0  0  0  0  0
  -20.6350  -26.9180   22.7110 C   0  0  0  0  0  2  0  0  0  0  0  0
  -19.5820  -26.4940   21.6800 C   0  0  0  0  0  2  0  0  0  0  0  0
  -18.1790  -26.5740   22.2850 C   0  0  0  0  0  2  0  0  0  0  0  0
  -18.9590  -28.7740   23.3420 C   0  0  0  0  0  0  0  0  0  0  0  0
  -18.6480  -30.0400   23.8860 C   0  0  0  0  0  3  0  0  0  0  0  0
  -17.3110  -30.4650   24.0010 C   0  0  0  0  0  3  0  0  0  0  0  0
  -16.2670  -29.6200   23.5870 C   0  0  0  0  0  3  0  0  0  0  0  0
  -16.5630  -28.3540   23.0490 C   0  0  0  0  0  3  0  0  0  0  0  0
  -25.7130  -32.6050   23.7930 C   0  0  0  0  0  3  0  0  0  0  0  0
  -25.4240  -34.0070   24.1220 N   0  0  0  0  0  0  0  0  0  0  0  0
  -25.7250  -35.0510   23.3390 C   0  0  0  0  0  0  0  0  0  0  0  0
  -26.3470  -34.9340   22.2790 O   0  0  0  0  0  0  0  0  0  0  0  0
  -24.8640  -34.1730   24.9470 H   0  0  0  0  0  0  0  0  0  0  0  0
  -23.9800  -36.8400   23.0590 C   0  0  0  0  0  1  0  0  0  0  0  0
  -25.2650  -36.4450   23.8050 C   0  0  0  0  0  3  0  0  0  0  0  0
  -27.4380  -37.3420   24.5100 C   0  0  0  0  0  1  0  0  0  0  0  0
  -26.2890  -37.4950   23.6210 N   0  0  0  0  0  0  0  0  0  0  0  0
  -25.8910  -38.4180   23.7750 H   0  0  0  0  0  0  0  0  0  0  0  0
  -26.2680  -31.8400   25.0570 C   0  0  1  0  0  0  0  0  0  0  0  0
  -25.2040  -31.5940   26.1510 C   0  0  0  0  0  1  0  0  0  0  0  0
  -26.8570  -30.4680   24.6540 C   0  0  0  0  0  1  0  0  0  0  0  0
  -27.4250  -32.6480   25.6920 C   0  0  0  0  0  1  0  0  0  0  0  0
  -30.8420  -17.0840   20.3200 C   0  0  0  0  0  3  0  0  0  0  0  0
  -30.9740  -14.6910   19.4380 C   0  0  0  0  0  0  0  0  0  0  0  0
  -30.5430  -12.4810   18.4040 C   0  0  0  0  0  2  0  0  0  0  0  0
  -29.4550  -12.6220   17.3200 C   0  0  0  0  0  2  0  0  0  0  0  0
  -28.0470  -12.5080   17.9400 C   0  0  0  0  0  2  0  0  0  0  0  0
  -27.8670  -13.4110   19.1900 C   0  0  0  0  0  3  0  0  0  0  0  0
  -29.0490  -13.2300   20.1660 C   0  0  0  0  0  2  0  0  0  0  0  0
  -30.2890  -13.5110   19.4230 N   0  0  0  0  0  0  0  0  0  0  0  0
  -32.0370  -14.8510   18.8310 O   0  0  0  0  0  0  0  0  0  0  0  0
  -30.3540  -15.7100   20.0610 N   0  0  0  0  0  0  0  0  0  0  0  0
  -29.4390  -15.5140   20.4330 H   0  0  0  0  0  0  0  0  0  0  0  0
  -25.6420  -14.0920   20.2910 C   0  0  0  0  0  0  0  0  0  0  0  0
  -24.5860  -13.3540   20.7560 C   0  0  0  0  0  0  0  0  0  0  0  0
  -24.9460  -11.9850   20.5590 C   0  0  0  0  0  0  0  0  0  0  0  0
  -26.5800  -13.1760   19.8430 N   0  0  0  0  0  0  0  0  0  0  0  0
  -26.1740  -11.8990   20.0590 N   0  0  0  0  0  0  0  0  0  0  0  0
  -24.1740  -10.7520   20.7610 C   0  0  0  0  0  0  0  0  0  0  0  0
  -24.6460   -9.7120   21.5920 C   0  0  0  0  0  3  0  0  0  0  0  0
  -23.8750   -8.5460   21.7880 C   0  0  0  0  0  3  0  0  0  0  0  0
  -22.6180   -8.4120   21.1520 C   0  0  0  0  0  0  0  0  0  0  0  0
  -22.1620   -9.4410   20.3080 C   0  0  0  0  0  3  0  0  0  0  0  0
  -22.9340  -10.5990   20.1120 C   0  0  0  0  0  3  0  0  0  0  0  0
  -21.8130   -7.3030   21.2580 O   0  0  0  0  0  0  0  0  0  0  0  0
  -21.8090   -6.5250   22.3880 C   0  0  0  0  0  0  0  0  0  0  0  0
  -21.4760   -7.0530   23.6550 C   0  0  0  0  0  3  0  0  0  0  0  0
  -21.4140   -6.2020   24.7770 C   0  0  0  0  0  3  0  0  0  0  0  0
  -21.6780   -4.8270   24.6330 C   0  0  0  0  0  0  0  0  0  0  0  0
  -22.0080   -4.3000   23.3730 C   0  0  0  0  0  3  0  0  0  0  0  0
  -22.0700   -5.1460   22.2530 C   0  0  0  0  0  0  0  0  0  0  0  0
  -22.3660   -4.6310   21.0350 F   0  0  0  0  0  0  0  0  0  0  0  0
  -21.6130   -4.0090   25.7100 F   0  0  0  0  0  0  0  0  0  0  0  0
  -23.2780  -13.8850   21.2650 C   0  0  0  0  0  0  0  0  0  0  0  0
  -22.6460  -13.1740   22.1940 N   0  0  0  0  0  0  0  0  0  0  0  0
  -22.8310  -14.9620   20.8780 O   0  0  0  0  0  0  0  0  0  0  0  0
  -23.0250  -12.3030   22.5340 H   0  0  0  0  0  0  0  0  0  0  0  0
  -21.7750  -13.5120   22.5760 H   0  0  0  0  0  0  0  0  0  0  0  0
  -25.8710  -15.4610   20.1960 N   0  0  0  0  0  0  0  0  0  0  0  0
  -25.1730  -16.1430   20.4730 H   0  0  0  0  0  0  0  0  0  0  0  0
  -26.7050  -15.8880   19.8080 H   0  0  0  0  0  0  0  0  0  0  0  0
  -32.3410  -18.3790   21.9970 C   0  0  0  0  0  1  0  0  0  0  0  0
  -32.5000  -15.9140   21.8900 C   0  0  0  0  0  1  0  0  0  0  0  0
  -30.4570  -16.9940   22.8730 C   0  0  0  0  0  1  0  0  0  0  0  0
  -31.5140  -17.0980   21.7480 C   0  0  2  0  0  0  0  0  0  0  0  0
  2  4  1  0
  2  1  1  0
  3  1  2  0
  5  2  1  0
  5  6  1  0
  7  8  1  0
  7  6  1  0
  9 10  1  0
  9  8  1  0
 10 12  1  0
 11 22  2  0
 12 17  1  0
 13 21  1  0
 13 23  1  0
 14 20  1  0
 14 16  1  0
 15 21  1  0
 16 15  1  0
 17 16  2  0
 18 19  1  0
 18 12  2  0
 19 14  2  0
 20 13  1  0
 21 11  1  0
 23 25  2  0
 24 23  1  0
 26 24  1  0
 27 36  2  0
 27 32  1  0
 28 24  1  0
 28 32  1  0
 29 28  1  0
 30 31  1  0
 30 29  1  0
 31 27  1  0
 32 33  2  0
 33 34  1  0
 35 34  2  0
 36 35  1  0
 37 11  1  0
 37 38  1  0
 37 47  1  0
 38 41  1  0
 39 43  1  0
 39 38  1  0
 40 39  2  0
 43 42  1  0
 45 46  1  0
 45 43  1  0
 45 44  1  0
 47 50  1  1
 47 48  1  0
 49 47  1  0
 51  1  1  0
 51 93  1  0
 52 60  1  0
 53 58  1  0
 54 55  1  0
 54 53  1  0
 56 55  1  0
 56 65  1  0
 56 57  1  0
 58 52  1  0
 58 57  1  0
 59 52  2  0
 60 51  1  0
 60 61  1  0
 62 63  2  0
 63 82  1  0
 64 63  1  0
 64 67  1  0
 65 66  1  0
 65 62  1  0
 66 64  2  0
 67 68  1  0
 68 69  2  0
 70 73  1  0
 70 69  1  0
 71 70  2  0
 72 71  1  0
 72 67  2  0
 73 74  1  0
 74 75  1  0
 75 76  2  0
 77 76  1  0
 77 81  1  0
 78 77  2  0
 79 74  2  0
 79 78  1  0
 80 79  1  0
 82 83  1  0
 83 85  1  0
 83 86  1  0
 84 82  2  0
 87 62  1  0
 87 88  1  0
 89 87  1  0
 93 91  1  6
 93 90  1  0
 93 92  1  0
M  ISO  4   9 101  10 101  52 100  60 100
M  END
>  <TORSDO>  (23) 
F 23

>  <SCORE>  (23) 
-8.653

>  <name>  (23) 
22

>  <ligand_id>  (23) 
22

>  <original_smiles>  (23) 
[H]c1c([H])c([H])c2c(c1[H])C([H])([H])C([H])([H])C([H])([H])C2([H])N([H])C(=O)C1([H])N(C(=O)C([H])(N([H])C(=O)C([H])(N([H])C([H])([H])[H])C([H])([H])[H])C(C([H])([H])[H])(C([H])([H])[H])C([H])([H])[H])C([H])([H])c2c([H])c(OC([H])([H])C([H])([H])OC([H])([H])C([H])([H])N([H])C(=O)C([H])(N([H])C(=O)N3C([H])([H])C([H])([H])C([H])([H])C([H])(n4nc(-c5c([H])c([H])c(Oc6c([H])c([H])c(F)c([H])c6F)c([H])c5[H])c(C(=O)N([H])[H])c4N([H])[H])C3([H])[H])C(C([H])([H])[H])(C([H])([H])[H])C([H])([H])[H])c([H])c([H])c2C1([H])[H]

>  <smiles>  (23) 
[H]c1c([H])c([H])c2c(c1[H])C([H])([H])C([H])([H])C([H])([H])C2([H])N([H])C(=O)C1([H])N(C(=O)C([H])(N([H])C(=O)C([H])(N([H])C([H])([H])[H])C([H])([H])[H])C(C([H])([H])[H])(C([H])([H])[H])C([H])([H])[H])C([H])([H])c2c([H])c(OC([H])([H])C([H])([H])OC([H])([H])C([H])([H])N([H])C(=O)C([H])(N([H])C(=O)N3C([H])([H])C([H])([H])C([H])([H])C([H])(n4nc(-c5c([H])c([H])c(Oc6c([H])c([H])c(F)c([H])c6F)c([H])c5[H])c(C(=O)N([H])[H])c4N([H])[H])C3([H])[H])C(C([H])([H])[H])(C([H])([H])[H])C([H])([H])[H])c([H])c([H])c2C1([H])[H]

$$$$
23:0:0
     RDKit          3D

 92 99  0  0  1  0  0  0  0  0999 V2000
  -28.5580  -23.2590   20.3860 C   0  0  0  0  0  3  0  0  0  0  0  0
  -27.5570  -23.0690   21.4530 N   0  0  0  0  0  4  0  0  0  0  0  0
  -26.6500  -22.8930   21.0580 H   0  0  0  0  0  0  0  0  0  0  0  0
  -27.4890  -23.9080   22.0040 H   0  0  0  0  0  0  0  0  0  0  0  0
  -27.8000  -22.3100   22.0660 H   0  0  0  0  0  0  0  0  0  0  0  0
  -28.8480  -21.7580   19.6310 C   0  0  0  0  0  2  0  0  0  0  0  0
  -29.3330  -19.0360   19.8680 C   0  0  0  0  0  0  0  0  0  0  0  0
  -29.2130  -20.3760   20.3420 N   0  0  0  0  0  0  0  0  0  0  0  0
  -29.0160  -18.7970   18.7000 O   0  0  0  0  0  0  0  0  0  0  0  0
  -29.4890  -20.4720   21.3100 H   0  0  0  0  0  0  0  0  0  0  0  0
  -31.3530  -18.0160   21.1770 C   0  0  0  0  0  1  0  0  0  0  0  0
  -29.9030  -17.7370   20.7410 C   0  0  0  0  0  0  0  0  0  0  0  0
  -30.4940  -15.0010   20.3050 C   0  0  0  0  0  0  0  0  0  0  0  0
  -30.3970  -12.6390   19.3800 C   0  0  0  0  0  2  0  0  0  0  0  0
  -29.4640  -12.5310   18.1540 C   0  0  0  0  0  2  0  0  0  0  0  0
  -28.0150  -12.2860   18.6170 C   0  0  0  0  0  2  0  0  0  0  0  0
  -27.5820  -13.2560   19.7460 C   0  0  0  0  0  3  0  0  0  0  0  0
  -28.6310  -13.3320   20.8740 C   0  0  0  0  0  2  0  0  0  0  0  0
  -29.8970  -13.7410   20.2470 N   0  0  0  0  0  0  0  0  0  0  0  0
  -31.7080  -15.0510   20.0780 O   0  0  0  0  0  0  0  0  0  0  0  0
  -29.6970  -16.1750   20.4630 N   0  0  0  0  0  4  0  0  0  0  0  0
  -28.7180  -15.9340   20.4520 H   0  0  0  0  0  0  0  0  0  0  0  0
  -25.2000  -13.8430   20.4950 C   0  0  0  0  0  0  0  0  0  0  0  0
  -24.1410  -13.0690   20.8720 C   0  0  0  0  0  0  0  0  0  0  0  0
  -24.6070  -11.7200   20.8480 C   0  0  0  0  0  0  0  0  0  0  0  0
  -26.2470  -12.9650   20.2530 N   0  0  0  0  0  0  0  0  0  0  0  0
  -25.8990  -11.6840   20.5370 N   0  0  0  0  0  0  0  0  0  0  0  0
  -23.8870  -10.4570   21.0450 C   0  0  0  0  0  0  0  0  0  0  0  0
  -24.3370   -9.4880   21.9700 C   0  0  0  0  0  3  0  0  0  0  0  0
  -23.6150   -8.2900   22.1590 C   0  0  0  0  0  3  0  0  0  0  0  0
  -22.4320   -8.0500   21.4210 C   0  0  0  0  0  0  0  0  0  0  0  0
  -22.0000   -9.0100   20.4870 C   0  0  0  0  0  3  0  0  0  0  0  0
  -22.7220  -10.1990   20.2960 C   0  0  0  0  0  3  0  0  0  0  0  0
  -21.6830   -6.9030   21.5160 O   0  0  0  0  0  0  0  0  0  0  0  0
  -21.6710   -6.1410   22.6580 C   0  0  0  0  0  0  0  0  0  0  0  0
  -21.2980   -6.6800   23.9080 C   0  0  0  0  0  3  0  0  0  0  0  0
  -21.2330   -5.8480   25.0440 C   0  0  0  0  0  3  0  0  0  0  0  0
  -21.5280   -4.4770   24.9290 C   0  0  0  0  0  0  0  0  0  0  0  0
  -21.8910   -3.9360   23.6840 C   0  0  0  0  0  3  0  0  0  0  0  0
  -21.9610   -4.7660   22.5500 C   0  0  0  0  0  0  0  0  0  0  0  0
  -22.2900   -4.2330   21.3470 F   0  0  0  0  0  0  0  0  0  0  0  0
  -21.4580   -3.6760   26.0170 F   0  0  0  0  0  0  0  0  0  0  0  0
  -22.7410  -13.5470   21.1340 C   0  0  0  0  0  0  0  0  0  0  0  0
  -22.0040  -12.8610   21.9970 N   0  0  0  0  0  0  0  0  0  0  0  0
  -22.3070  -14.5670   20.5980 O   0  0  0  0  0  0  0  0  0  0  0  0
  -22.3620  -12.0380   22.4590 H   0  0  0  0  0  0  0  0  0  0  0  0
  -21.0650  -13.1710   22.2080 H   0  0  0  0  0  0  0  0  0  0  0  0
  -25.3560  -15.2150   20.3030 N   0  0  0  0  0  0  0  0  0  0  0  0
  -24.5810  -15.8560   20.4250 H   0  0  0  0  0  0  0  0  0  0  0  0
  -26.1680  -15.6580   19.8930 H   0  0  0  0  0  0  0  0  0  0  0  0
  -28.1340  -24.7010   19.6040 C   0  0  0  0  0  2  0  0  0  0  0  0
  -28.1800  -26.1600   20.1840 O   0  0  0  0  0  0  0  0  0  0  0  0
  -24.6090  -31.8670   23.2260 C   0  0  0  0  0  0  0  0  0  0  0  0
  -27.1240  -27.1490   20.1200 C   0  0  0  0  0  0  0  0  0  0  0  0
  -23.3890  -30.4900   21.6020 C   0  0  0  0  0  3  0  0  0  0  0  0
  -24.8150  -28.9240   20.1510 C   0  0  0  0  0  0  0  0  0  0  0  0
  -25.9500  -30.7420   21.4120 C   0  0  0  0  0  2  0  0  0  0  0  0
  -26.0080  -29.3560   20.7390 C   0  0  0  0  0  0  0  0  0  0  0  0
  -27.1630  -28.4830   20.7060 C   0  0  0  0  0  3  0  0  0  0  0  0
  -25.8950  -26.8260   19.5030 C   0  0  0  0  0  3  0  0  0  0  0  0
  -24.7690  -27.6690   19.5290 C   0  0  0  0  0  3  0  0  0  0  0  0
  -23.5910  -29.8270   20.2180 C   0  0  0  0  0  2  0  0  0  0  0  0
  -24.6720  -31.0540   22.1300 N   0  0  0  0  0  0  0  0  0  0  0  0
  -23.5290  -32.1470   23.7680 O   0  0  0  0  0  0  0  0  0  0  0  0
  -22.7220  -29.4680   22.5580 C   0  0  0  0  0  0  0  0  0  0  0  0
  -21.3930  -29.2980   22.4490 N   0  0  0  0  0  0  0  0  0  0  0  0
  -23.4050  -28.8240   23.3570 O   0  0  0  0  0  0  0  0  0  0  0  0
  -20.8830  -29.8780   21.7960 H   0  0  0  0  0  0  0  0  0  0  0  0
  -18.0280  -28.0810   22.9550 C   0  0  0  0  0  0  0  0  0  0  0  0
  -20.5860  -28.3520   23.2210 C   0  0  0  0  0  3  0  0  0  0  0  0
  -20.6970  -26.9200   22.6390 C   0  0  0  0  0  2  0  0  0  0  0  0
  -19.5910  -26.5940   21.6310 C   0  0  0  0  0  2  0  0  0  0  0  0
  -18.2020  -26.7420   22.2580 C   0  0  0  0  0  2  0  0  0  0  0  0
  -19.1420  -28.8470   23.3870 C   0  0  0  0  0  0  0  0  0  0  0  0
  -18.9180  -30.1130   23.9680 C   0  0  0  0  0  3  0  0  0  0  0  0
  -17.6080  -30.6080   24.1290 C   0  0  0  0  0  3  0  0  0  0  0  0
  -16.5090  -29.8360   23.7210 C   0  0  0  0  0  3  0  0  0  0  0  0
  -16.7210  -28.5760   23.1330 C   0  0  0  0  0  3  0  0  0  0  0  0
  -25.8920  -32.4980   23.8380 C   0  0  0  0  0  3  0  0  0  0  0  0
  -25.5800  -33.8950   24.1780 N   0  0  0  0  0  0  0  0  0  0  0  0
  -25.8920  -34.9550   23.4210 C   0  0  0  0  0  0  0  0  0  0  0  0
  -26.5460  -34.8650   22.3790 O   0  0  0  0  0  0  0  0  0  0  0  0
  -24.9960  -34.0360   24.9880 H   0  0  0  0  0  0  0  0  0  0  0  0
  -24.1490  -36.7440   23.1160 C   0  0  0  0  0  1  0  0  0  0  0  0
  -25.4050  -36.3370   23.8980 C   0  0  0  0  0  3  0  0  0  0  0  0
  -27.5480  -37.2310   24.6910 C   0  0  0  0  0  1  0  0  0  0  0  0
  -26.4280  -37.3970   23.7710 N   0  0  0  0  0  0  0  0  0  0  0  0
  -26.0190  -38.3130   23.9350 H   0  0  0  0  0  0  0  0  0  0  0  0
  -26.4150  -31.7240   25.1070 C   0  0  1  0  0  0  0  0  0  0  0  0
  -25.3300  -31.4880   26.1840 C   0  0  0  0  0  1  0  0  0  0  0  0
  -26.9990  -30.3440   24.7190 C   0  0  0  0  0  1  0  0  0  0  0  0
  -27.5660  -32.5190   25.7660 C   0  0  0  0  0  1  0  0  0  0  0  0
  1 51  1  0
  1  2  1  0
  2  4  1  0
  2  5  1  0
  3  2  1  0
  6  8  1  0
  6  1  1  0
  7  8  1  0
  7 12  1  0
  8 10  1  0
  9  7  2  0
 12 11  1  0
 13 21  1  0
 14 19  1  0
 15 16  1  0
 15 14  1  0
 17 16  1  0
 17 26  1  0
 17 18  1  0
 19 13  1  0
 19 18  1  0
 20 13  2  0
 21 12  2  0
 22 21  1  0
 23 24  2  0
 24 43  1  0
 25 24  1  0
 25 28  1  0
 26 23  1  0
 26 27  1  0
 27 25  2  0
 28 29  1  0
 29 30  2  0
 31 34  1  0
 31 30  1  0
 32 31  2  0
 33 32  1  0
 33 28  2  0
 34 35  1  0
 35 36  1  0
 36 37  2  0
 38 37  1  0
 38 42  1  0
 39 38  2  0
 40 35  2  0
 40 39  1  0
 41 40  1  0
 43 44  1  0
 44 47  1  0
 44 46  1  0
 45 43  2  0
 48 49  1  0
 48 23  1  0
 50 48  1  0
 51 52  1  0
 53 64  2  0
 54 52  1  0
 54 59  1  0
 55 63  1  0
 55 65  1  0
 56 62  1  0
 56 58  1  0
 57 63  1  0
 58 57  1  0
 59 58  2  0
 60 61  1  0
 60 54  2  0
 61 56  2  0
 62 55  1  0
 63 53  1  0
 65 67  2  0
 66 65  1  0
 68 66  1  0
 69 78  2  0
 69 74  1  0
 70 66  1  0
 70 74  1  0
 71 70  1  0
 72 73  1  0
 72 71  1  0
 73 69  1  0
 74 75  2  0
 75 76  1  0
 77 76  2  0
 78 77  1  0
 79 53  1  0
 79 80  1  0
 79 89  1  0
 80 83  1  0
 81 85  1  0
 81 80  1  0
 82 81  2  0
 85 84  1  0
 87 85  1  0
 87 88  1  0
 87 86  1  0
 89 92  1  1
 89 90  1  0
 91 89  1  0
M  ISO  4  13 100  21 100  51 101  52 101
M  END
>  <TORSDO>  (24) 
F 21

>  <SCORE>  (24) 
-15.061

>  <name>  (24) 
23

>  <ligand_id>  (24) 
23

>  <original_smiles>  (24) 
[H]c1c([H])c([H])c2c(c1[H])C([H])([H])C([H])([H])C([H])([H])C2([H])N([H])C(=O)C1([H])N(C(=O)C([H])(N([H])C(=O)C([H])(N([H])C([H])([H])[H])C([H])([H])[H])C(C([H])([H])[H])(C([H])([H])[H])C([H])([H])[H])C([H])([H])c2c([H])c(OC([H])([H])C([H])(C([H])([H])N([H])C(=O)C([H])(N([H])C(=O)N3C([H])([H])C([H])([H])C([H])([H])C([H])(n4nc(-c5c([H])c([H])c(Oc6c([H])c([H])c(F)c([H])c6F)c([H])c5[H])c(C(=O)N([H])[H])c4N([H])[H])C3([H])[H])C([H])([H])[H])[N+]([H])([H])[H])c([H])c([H])c2C1([H])[H]

>  <smiles>  (24) 
[H]c1c([H])c([H])c2c(c1[H])C([H])([H])C([H])([H])C([H])([H])C2([H])N([H])C(=O)C1([H])N(C(=O)C([H])(N([H])C(=O)C([H])(N([H])C([H])([H])[H])C([H])([H])[H])C(C([H])([H])[H])(C([H])([H])[H])C([H])([H])[H])C([H])([H])c2c([H])c(OC([H])([H])C([H])(C([H])([H])N([H])C(=O)C([H])(N([H])C(=O)N3C([H])([H])C([H])([H])C([H])([H])C([H])(n4nc(-c5c([H])c([H])c(Oc6c([H])c([H])c(F)c([H])c6F)c([H])c5[H])c(C(=O)N([H])[H])c4N([H])[H])C3([H])[H])C([H])([H])[H])[N+]([H])([H])[H])c([H])c([H])c2C1([H])[H]

$$$$
24:0:0
     RDKit          3D

 88 95  0  0  1  0  0  0  0  0999 V2000
  -28.5250  -21.6920   20.3140 C   0  0  0  0  0  2  0  0  0  0  0  0
  -29.1610  -19.0150   20.3440 C   0  0  0  0  0  0  0  0  0  0  0  0
  -29.4400  -20.4040   20.1660 N   0  0  0  0  0  0  0  0  0  0  0  0
  -28.0710  -18.7090   20.8230 O   0  0  0  0  0  0  0  0  0  0  0  0
  -30.3660  -20.5910   19.8040 H   0  0  0  0  0  0  0  0  0  0  0  0
  -30.4740  -17.8640   18.4420 C   0  0  0  0  0  1  0  0  0  0  0  0
  -30.1400  -17.7370   19.9470 C   0  0  0  0  0  3  0  0  0  0  0  0
  -30.5240  -14.9980   20.0800 C   0  0  0  0  0  0  0  0  0  0  0  0
  -30.3110  -12.6630   19.1080 C   0  0  0  0  0  2  0  0  0  0  0  0
  -29.3340  -12.6610   17.9120 C   0  0  0  0  0  2  0  0  0  0  0  0
  -27.8940  -12.4330   18.4000 C   0  0  0  0  0  2  0  0  0  0  0  0
  -27.5370  -13.3380   19.6050 C   0  0  0  0  0  3  0  0  0  0  0  0
  -28.6390  -13.3510   20.6920 C   0  0  0  0  0  2  0  0  0  0  0  0
  -29.8910  -13.7550   20.0350 N   0  0  0  0  0  0  0  0  0  0  0  0
  -31.7190  -15.0300   19.7730 O   0  0  0  0  0  0  0  0  0  0  0  0
  -29.7900  -16.2110   20.2250 N   0  0  0  0  0  0  0  0  0  0  0  0
  -28.8250  -16.0760   20.4860 H   0  0  0  0  0  0  0  0  0  0  0  0
  -25.1850  -13.8920   20.4410 C   0  0  0  0  0  0  0  0  0  0  0  0
  -24.1390  -13.1050   20.8410 C   0  0  0  0  0  0  0  0  0  0  0  0
  -24.6100  -11.7580   20.7810 C   0  0  0  0  0  0  0  0  0  0  0  0
  -26.2240  -13.0230   20.1580 N   0  0  0  0  0  0  0  0  0  0  0  0
  -25.8900  -11.7340   20.4300 N   0  0  0  0  0  0  0  0  0  0  0  0
  -23.8990  -10.4880   20.9810 C   0  0  0  0  0  0  0  0  0  0  0  0
  -24.3510   -9.5230   21.9070 C   0  0  0  0  0  3  0  0  0  0  0  0
  -23.6350   -8.3220   22.0960 C   0  0  0  0  0  3  0  0  0  0  0  0
  -22.4530   -8.0770   21.3590 C   0  0  0  0  0  0  0  0  0  0  0  0
  -22.0200   -9.0290   20.4190 C   0  0  0  0  0  3  0  0  0  0  0  0
  -22.7370  -10.2220   20.2290 C   0  0  0  0  0  3  0  0  0  0  0  0
  -21.7090   -6.9250   21.4530 O   0  0  0  0  0  0  0  0  0  0  0  0
  -21.6600   -6.1960   22.6140 C   0  0  0  0  0  0  0  0  0  0  0  0
  -21.2210   -6.7620   23.8310 C   0  0  0  0  0  3  0  0  0  0  0  0
  -21.1220   -5.9580   24.9860 C   0  0  0  0  0  3  0  0  0  0  0  0
  -21.4520   -4.5910   24.9220 C   0  0  0  0  0  0  0  0  0  0  0  0
  -21.8820   -4.0260   23.7090 C   0  0  0  0  0  3  0  0  0  0  0  0
  -21.9840   -4.8270   22.5590 C   0  0  0  0  0  0  0  0  0  0  0  0
  -22.3800   -4.2710   21.3880 F   0  0  0  0  0  0  0  0  0  0  0  0
  -21.3490   -3.8160   26.0280 F   0  0  0  0  0  0  0  0  0  0  0  0
  -22.7510  -13.5710   21.1640 C   0  0  0  0  0  0  0  0  0  0  0  0
  -22.0600  -12.8660   22.0530 N   0  0  0  0  0  0  0  0  0  0  0  0
  -22.2900  -14.5960   20.6630 O   0  0  0  0  0  0  0  0  0  0  0  0
  -22.4530  -12.0380   22.4750 H   0  0  0  0  0  0  0  0  0  0  0  0
  -21.1290  -13.1570   22.3140 H   0  0  0  0  0  0  0  0  0  0  0  0
  -25.3310  -15.2630   20.2610 N   0  0  0  0  0  0  0  0  0  0  0  0
  -24.5490  -15.9010   20.3580 H   0  0  0  0  0  0  0  0  0  0  0  0
  -26.1500  -15.7020   19.8620 H   0  0  0  0  0  0  0  0  0  0  0  0
  -29.0040  -23.3150   20.2250 C   0  0  0  0  0  3  0  0  0  0  0  0
  -27.9490  -24.6410   20.1820 C   0  0  0  0  0  3  0  0  0  0  0  0
  -28.2510  -26.1760   20.2470 O   0  0  0  0  0  0  0  0  0  0  0  0
  -24.6730  -31.9060   23.2570 C   0  0  0  0  0  0  0  0  0  0  0  0
  -27.1990  -27.1720   20.1990 C   0  0  0  0  0  0  0  0  0  0  0  0
  -23.4570  -30.5270   21.6140 C   0  0  0  0  0  3  0  0  0  0  0  0
  -24.8890  -28.9460   20.1850 C   0  0  0  0  0  0  0  0  0  0  0  0
  -26.0130  -30.7730   21.4330 C   0  0  0  0  0  2  0  0  0  0  0  0
  -26.0770  -29.3790   20.7860 C   0  0  0  0  0  0  0  0  0  0  0  0
  -27.2360  -28.5110   20.7700 C   0  0  0  0  0  3  0  0  0  0  0  0
  -25.9820  -26.8450   19.5650 C   0  0  0  0  0  3  0  0  0  0  0  0
  -24.8550  -27.6940   19.5570 C   0  0  0  0  0  3  0  0  0  0  0  0
  -23.6680  -29.8520   20.2340 C   0  0  0  0  0  2  0  0  0  0  0  0
  -24.7360  -31.0900   22.1600 N   0  0  0  0  0  0  0  0  0  0  0  0
  -23.5890  -32.1970   23.7880 O   0  0  0  0  0  0  0  0  0  0  0  0
  -22.7720  -29.5180   22.5730 C   0  0  0  0  0  0  0  0  0  0  0  0
  -21.4440  -29.3560   22.4500 N   0  0  0  0  0  0  0  0  0  0  0  0
  -23.4400  -28.8800   23.3940 O   0  0  0  0  0  0  0  0  0  0  0  0
  -20.9580  -29.9260   21.7720 H   0  0  0  0  0  0  0  0  0  0  0  0
  -18.0570  -28.1640   22.9450 C   0  0  0  0  0  0  0  0  0  0  0  0
  -20.6180  -28.4200   23.2190 C   0  0  0  0  0  3  0  0  0  0  0  0
  -20.7140  -26.9840   22.6500 C   0  0  0  0  0  2  0  0  0  0  0  0
  -19.6130  -26.6640   21.6320 C   0  0  0  0  0  2  0  0  0  0  0  0
  -18.2300  -26.8150   22.2710 C   0  0  0  0  0  2  0  0  0  0  0  0
  -19.1770  -28.9240   23.3780 C   0  0  0  0  0  0  0  0  0  0  0  0
  -18.9550  -30.1870   23.9700 C   0  0  0  0  0  3  0  0  0  0  0  0
  -17.6500  -30.6900   24.1310 C   0  0  0  0  0  3  0  0  0  0  0  0
  -16.5450  -29.9250   23.7120 C   0  0  0  0  0  3  0  0  0  0  0  0
  -16.7500  -28.6640   23.1260 C   0  0  0  0  0  3  0  0  0  0  0  0
  -25.9550  -32.5290   23.8840 C   0  0  0  0  0  3  0  0  0  0  0  0
  -26.4610  -31.7500   25.1620 C   0  0  1  0  0  0  0  0  0  0  0  0
  -25.3650  -31.5200   26.2300 C   0  0  0  0  0  1  0  0  0  0  0  0
  -27.0300  -30.3680   24.7680 C   0  0  0  0  0  1  0  0  0  0  0  0
  -27.6230  -32.5270   25.8280 C   0  0  0  0  0  1  0  0  0  0  0  0
  -25.6580  -33.9290   24.2270 N   0  0  0  0  0  0  0  0  0  0  0  0
  -25.9640  -34.9850   23.4610 C   0  0  0  0  0  0  0  0  0  0  0  0
  -26.6000  -34.8810   22.4100 O   0  0  0  0  0  0  0  0  0  0  0  0
  -25.0980  -34.0830   25.0540 H   0  0  0  0  0  0  0  0  0  0  0  0
  -24.2190  -36.7750   23.1820 C   0  0  0  0  0  1  0  0  0  0  0  0
  -25.4950  -36.3750   23.9370 C   0  0  0  0  0  3  0  0  0  0  0  0
  -27.6640  -37.2690   24.6660 C   0  0  0  0  0  1  0  0  0  0  0  0
  -26.5190  -37.4320   23.7740 N   0  0  0  0  0  0  0  0  0  0  0  0
  -26.1180  -38.3530   23.9330 H   0  0  0  0  0  0  0  0  0  0  0  0
  2  4  2  0
  3  1  1  0
  3  2  1  0
  5  3  1  0
  7  6  1  0
  7 16  1  0
  7  2  1  0
  8 16  1  0
  9 14  1  0
 10 11  1  0
 10  9  1  0
 12 11  1  0
 12 21  1  0
 12 13  1  0
 14  8  1  0
 14 13  1  0
 15  8  2  0
 16 17  1  0
 18 19  2  0
 19 38  1  0
 20 19  1  0
 20 23  1  0
 21 22  1  0
 21 18  1  0
 22 20  2  0
 23 24  1  0
 24 25  2  0
 26 29  1  0
 26 25  1  0
 27 26  2  0
 28 27  1  0
 28 23  2  0
 29 30  1  0
 30 31  1  0
 31 32  2  0
 33 32  1  0
 33 37  1  0
 34 33  2  0
 35 30  2  0
 35 34  1  0
 36 35  1  0
 38 39  1  0
 39 42  1  0
 39 41  1  0
 40 38  2  0
 43 44  1  0
 43 18  1  0
 45 43  1  0
 46  1  1  0
 47 46  2  0
 47 48  1  0
 49 60  2  0
 50 48  1  0
 50 55  1  0
 51 59  1  0
 51 61  1  0
 52 58  1  0
 52 54  1  0
 53 59  1  0
 54 53  1  0
 55 54  2  0
 56 50  2  0
 57 56  1  0
 57 52  2  0
 58 51  1  0
 59 49  1  0
 61 63  2  0
 62 61  1  0
 64 62  1  0
 65 74  2  0
 65 70  1  0
 66 62  1  0
 66 70  1  0
 67 66  1  0
 68 69  1  0
 68 67  1  0
 69 65  1  0
 70 71  2  0
 71 72  1  0
 73 72  2  0
 74 73  1  0
 75 49  1  0
 75 80  1  0
 75 76  1  0
 76 79  1  1
 76 77  1  0
 78 76  1  0
 80 83  1  0
 81 85  1  0
 81 80  1  0
 82 81  2  0
 85 84  1  0
 87 88  1  0
 87 85  1  0
 87 86  1  0
M  ISO  4   8 100  16 100  47 101  48 101
M  END
>  <TORSDO>  (25) 
F 20

>  <SCORE>  (25) 
-14.831

>  <name>  (25) 
24

>  <ligand_id>  (25) 
24

>  <original_smiles>  (25) 
[H]c1c([H])c([H])c2c(c1[H])C([H])([H])C([H])([H])C([H])([H])C2([H])N([H])C(=O)C1([H])N(C(=O)C([H])(N([H])C(=O)C([H])(N([H])C([H])([H])[H])C([H])([H])[H])C(C([H])([H])[H])(C([H])([H])[H])C([H])([H])[H])C([H])([H])c2c([H])c(OC([H])([H])C([H])([H])C([H])([H])N([H])C(=O)C([H])(N([H])C(=O)N3C([H])([H])C([H])([H])C([H])([H])C([H])(n4nc(-c5c([H])c([H])c(Oc6c([H])c([H])c(F)c([H])c6F)c([H])c5[H])c(C(=O)N([H])[H])c4N([H])[H])C3([H])[H])C([H])([H])[H])c([H])c([H])c2C1([H])[H]

>  <smiles>  (25) 
[H]c1c([H])c([H])c2c(c1[H])C([H])([H])C([H])([H])C([H])([H])C2([H])N([H])C(=O)C1([H])N(C(=O)C([H])(N([H])C(=O)C([H])(N([H])C([H])([H])[H])C([H])([H])[H])C(C([H])([H])[H])(C([H])([H])[H])C([H])([H])[H])C([H])([H])c2c([H])c(OC([H])([H])C([H])([H])C([H])([H])N([H])C(=O)C([H])(N([H])C(=O)N3C([H])([H])C([H])([H])C([H])([H])C([H])(n4nc(-c5c([H])c([H])c(Oc6c([H])c([H])c(F)c([H])c6F)c([H])c5[H])c(C(=O)N([H])[H])c4N([H])[H])C3([H])[H])C([H])([H])[H])c([H])c([H])c2C1([H])[H]

$$$$
25:0:0
     RDKit          3D

 95102  0  0  1  0  0  0  0  0999 V2000
  -30.3400  -18.1770   20.6930 C   0  0  0  0  0  0  0  0  0  0  0  0
  -29.7140  -19.3770   20.6340 N   0  0  0  0  0  0  0  0  0  0  0  0
  -31.5140  -18.0630   21.0460 O   0  0  0  0  0  0  0  0  0  0  0  0
  -28.7410  -19.3540   20.3530 H   0  0  0  0  0  0  0  0  0  0  0  0
  -30.3280  -20.7220   20.6860 C   0  0  0  0  0  2  0  0  0  0  0  0
  -29.3140  -21.8840   20.9570 C   0  0  0  0  0  2  0  0  0  0  0  0
  -29.8130  -23.1660   20.5120 O   0  0  0  0  0  0  0  0  0  0  0  0
  -29.1540  -24.3460   21.0310 C   0  0  0  0  0  2  0  0  0  0  0  0
  -28.6050  -25.3130   19.9330 C   0  0  0  0  0  2  0  0  0  0  0  0
  -28.5010  -26.7050   20.3550 O   0  0  0  0  0  0  0  0  0  0  0  0
  -24.5960  -31.9350   23.2740 C   0  0  0  0  0  0  0  0  0  0  0  0
  -27.3070  -27.4230   20.2920 C   0  0  0  0  0  0  0  0  0  0  0  0
  -23.4220  -30.5020   21.6400 C   0  0  0  0  0  3  0  0  0  0  0  0
  -24.9010  -28.9520   20.2560 C   0  0  0  0  0  0  0  0  0  0  0  0
  -25.9540  -30.8640   21.4690 C   0  0  0  0  0  2  0  0  0  0  0  0
  -26.0540  -29.4790   20.8490 C   0  0  0  0  0  0  0  0  0  0  0  0
  -27.2540  -28.7260   20.8580 C   0  0  0  0  0  3  0  0  0  0  0  0
  -26.1260  -26.9260   19.6870 C   0  0  0  0  0  3  0  0  0  0  0  0
  -24.9360  -27.6760   19.6730 C   0  0  0  0  0  3  0  0  0  0  0  0
  -23.6530  -29.8090   20.2720 C   0  0  0  0  0  2  0  0  0  0  0  0
  -24.6760  -31.1180   22.1860 N   0  0  0  0  0  0  0  0  0  0  0  0
  -23.5050  -32.2050   23.7970 O   0  0  0  0  0  0  0  0  0  0  0  0
  -22.7640  -29.4900   22.6070 C   0  0  0  0  0  0  0  0  0  0  0  0
  -21.4430  -29.2920   22.4640 N   0  0  0  0  0  0  0  0  0  0  0  0
  -23.4420  -28.8840   23.4420 O   0  0  0  0  0  0  0  0  0  0  0  0
  -20.9560  -29.8340   21.7650 H   0  0  0  0  0  0  0  0  0  0  0  0
  -18.0730  -28.0690   22.9290 C   0  0  0  0  0  0  0  0  0  0  0  0
  -20.6240  -28.3580   23.2380 C   0  0  0  0  0  3  0  0  0  0  0  0
  -20.7480  -26.9160   22.6890 C   0  0  0  0  0  2  0  0  0  0  0  0
  -19.6660  -26.5660   21.6630 C   0  0  0  0  0  2  0  0  0  0  0  0
  -18.2730  -26.7080   22.2820 C   0  0  0  0  0  2  0  0  0  0  0  0
  -19.1760  -28.8490   23.3640 C   0  0  0  0  0  0  0  0  0  0  0  0
  -18.9350  -30.1210   23.9280 C   0  0  0  0  0  3  0  0  0  0  0  0
  -17.6230  -30.6100   24.0660 C   0  0  0  0  0  3  0  0  0  0  0  0
  -16.5330  -29.8270   23.6460 C   0  0  0  0  0  3  0  0  0  0  0  0
  -16.7590  -28.5590   23.0810 C   0  0  0  0  0  3  0  0  0  0  0  0
  -25.8660  -32.5880   23.9030 C   0  0  0  0  0  3  0  0  0  0  0  0
  -25.5390  -33.9890   24.2050 N   0  0  0  0  0  0  0  0  0  0  0  0
  -25.8760  -35.0320   23.4360 C   0  0  0  0  0  0  0  0  0  0  0  0
  -26.5650  -34.9180   22.4180 O   0  0  0  0  0  0  0  0  0  0  0  0
  -24.9230  -34.1510   24.9880 H   0  0  0  0  0  0  0  0  0  0  0  0
  -24.1420  -36.8110   23.0240 C   0  0  0  0  0  1  0  0  0  0  0  0
  -25.3690  -36.4230   23.8630 C   0  0  0  0  0  3  0  0  0  0  0  0
  -27.4810  -37.3350   24.7260 C   0  0  0  0  0  1  0  0  0  0  0  0
  -26.3970  -37.4820   23.7580 N   0  0  0  0  0  0  0  0  0  0  0  0
  -25.9810  -38.4020   23.8840 H   0  0  0  0  0  0  0  0  0  0  0  0
  -26.3710  -31.8420   25.1980 C   0  0  1  0  0  0  0  0  0  0  0  0
  -25.2680  -31.6040   26.2550 C   0  0  0  0  0  1  0  0  0  0  0  0
  -26.9770  -30.4660   24.8330 C   0  0  0  0  0  1  0  0  0  0  0  0
  -27.4970  -32.6640   25.8690 C   0  0  0  0  0  1  0  0  0  0  0  0
  -29.5440  -16.9320   20.2060 C   0  0  0  0  0  3  0  0  0  0  0  0
  -30.6170  -14.6140   20.4390 C   0  0  0  0  0  0  0  0  0  0  0  0
  -30.3690  -12.4580   19.2690 C   0  0  0  0  0  2  0  0  0  0  0  0
  -29.4160  -12.7010   18.0770 C   0  0  0  0  0  2  0  0  0  0  0  0
  -27.9410  -12.5470   18.5020 C   0  0  0  0  0  2  0  0  0  0  0  0
  -27.6090  -13.3160   19.8080 C   0  0  0  0  0  3  0  0  0  0  0  0
  -28.6800  -13.0560   20.8950 C   0  0  0  0  0  2  0  0  0  0  0  0
  -30.0000  -13.3990   20.3380 N   0  0  0  0  0  0  0  0  0  0  0  0
  -31.7330  -14.8340   19.9620 O   0  0  0  0  0  0  0  0  0  0  0  0
  -29.8080  -15.6130   20.8570 N   0  0  0  0  0  0  0  0  0  0  0  0
  -29.0350  -15.2820   21.4100 H   0  0  0  0  0  0  0  0  0  0  0  0
  -25.2040  -13.8800   20.5290 C   0  0  0  0  0  0  0  0  0  0  0  0
  -24.1510  -13.0900   20.9030 C   0  0  0  0  0  0  0  0  0  0  0  0
  -24.6330  -11.7450   20.8610 C   0  0  0  0  0  0  0  0  0  0  0  0
  -26.2620  -13.0160   20.2880 N   0  0  0  0  0  0  0  0  0  0  0  0
  -25.9210  -11.7270   20.5450 N   0  0  0  0  0  0  0  0  0  0  0  0
  -23.9260  -10.4720   21.0500 C   0  0  0  0  0  0  0  0  0  0  0  0
  -24.3680   -9.5120   21.9850 C   0  0  0  0  0  3  0  0  0  0  0  0
  -23.6590   -8.3050   22.1620 C   0  0  0  0  0  3  0  0  0  0  0  0
  -22.4950   -8.0480   21.3990 C   0  0  0  0  0  0  0  0  0  0  0  0
  -22.0720   -8.9980   20.4530 C   0  0  0  0  0  3  0  0  0  0  0  0
  -22.7830  -10.1970   20.2750 C   0  0  0  0  0  3  0  0  0  0  0  0
  -21.7550   -6.8930   21.4860 O   0  0  0  0  0  0  0  0  0  0  0  0
  -21.7070   -6.1540   22.6410 C   0  0  0  0  0  0  0  0  0  0  0  0
  -21.2410   -6.7020   23.8570 C   0  0  0  0  0  3  0  0  0  0  0  0
  -21.1380   -5.8880   25.0030 C   0  0  0  0  0  3  0  0  0  0  0  0
  -21.4940   -4.5280   24.9330 C   0  0  0  0  0  0  0  0  0  0  0  0
  -21.9500   -3.9790   23.7240 C   0  0  0  0  0  3  0  0  0  0  0  0
  -22.0530   -4.7890   22.5790 C   0  0  0  0  0  0  0  0  0  0  0  0
  -22.4740   -4.2490   21.4100 F   0  0  0  0  0  0  0  0  0  0  0  0
  -21.3880   -3.7440   26.0340 F   0  0  0  0  0  0  0  0  0  0  0  0
  -22.7490  -13.5450   21.1870 C   0  0  0  0  0  0  0  0  0  0  0  0
  -22.0340  -12.8310   22.0510 N   0  0  0  0  0  0  0  0  0  0  0  0
  -22.2930  -14.5670   20.6800 O   0  0  0  0  0  0  0  0  0  0  0  0
  -22.4100  -12.0020   22.4870 H   0  0  0  0  0  0  0  0  0  0  0  0
  -21.0930  -13.1190   22.2800 H   0  0  0  0  0  0  0  0  0  0  0  0
  -25.3420  -15.2550   20.3580 N   0  0  0  0  0  0  0  0  0  0  0  0
  -24.5550  -15.8830   20.4720 H   0  0  0  0  0  0  0  0  0  0  0  0
  -26.1680  -15.7230   20.0110 H   0  0  0  0  0  0  0  0  0  0  0  0
  -29.4610  -16.8170   18.6530 C   0  0  0  0  0  2  0  0  0  0  0  0
  -28.8500  -18.0450   17.9680 C   0  0  0  0  0  0  0  0  0  0  0  0
  -29.6080  -18.7350   17.1250 N   0  0  0  0  0  0  0  0  0  0  0  0
  -27.7080  -18.4060   18.2350 O   0  0  0  0  0  0  0  0  0  0  0  0
  -30.5530  -18.4390   16.9170 H   0  0  0  0  0  0  0  0  0  0  0  0
  -29.2440  -19.5650   16.6780 H   0  0  0  0  0  0  0  0  0  0  0  0
  1  3  2  0
  2  5  1  0
  2  1  1  0
  4  2  1  0
  5  6  1  0
  7  6  1  0
  7  8  1  0
  9 10  1  0
  9  8  1  0
 11 22  2  0
 12 10  1  0
 12 17  1  0
 13 21  1  0
 13 23  1  0
 14 20  1  0
 14 16  1  0
 15 21  1  0
 16 17  2  0
 16 15  1  0
 18 12  2  0
 19 18  1  0
 19 14  2  0
 20 13  1  0
 21 11  1  0
 23 25  2  0
 24 23  1  0
 26 24  1  0
 27 36  2  0
 27 32  1  0
 28 24  1  0
 28 32  1  0
 29 28  1  0
 30 31  1  0
 30 29  1  0
 31 27  1  0
 32 33  2  0
 33 34  1  0
 35 34  2  0
 36 35  1  0
 37 11  1  0
 37 38  1  0
 37 47  1  0
 38 41  1  0
 39 43  1  0
 39 38  1  0
 40 39  2  0
 43 42  1  0
 45 43  1  0
 45 46  1  0
 45 44  1  0
 47 50  1  1
 47 48  1  0
 49 47  1  0
 51 90  1  0
 51  1  1  0
 51 60  1  0
 52 60  1  0
 53 58  1  0
 54 55  1  0
 54 53  1  0
 56 55  1  0
 56 65  1  0
 56 57  1  0
 58 52  1  0
 58 57  1  0
 59 52  2  0
 60 61  1  0
 62 63  2  0
 63 82  1  0
 64 63  1  0
 64 67  1  0
 65 62  1  0
 65 66  1  0
 66 64  2  0
 67 68  1  0
 68 69  2  0
 70 73  1  0
 70 69  1  0
 71 70  2  0
 72 71  1  0
 72 67  2  0
 73 74  1  0
 74 75  1  0
 75 76  2  0
 77 76  1  0
 77 81  1  0
 78 77  2  0
 79 74  2  0
 79 78  1  0
 80 79  1  0
 82 83  1  0
 83 86  1  0
 83 85  1  0
 84 82  2  0
 87 88  1  0
 87 62  1  0
 89 87  1  0
 91 93  2  0
 91 90  1  0
 92 91  1  0
 94 92  1  0
 95 92  1  0
M  ISO  4   9 101  10 101  52 100  60 100
M  END
>  <TORSDO>  (26) 
F 24

>  <SCORE>  (26) 
-12.631

>  <name>  (26) 
25

>  <ligand_id>  (26) 
25

>  <original_smiles>  (26) 
[H]c1c([H])c([H])c2c(c1[H])C([H])([H])C([H])([H])C([H])([H])C2([H])N([H])C(=O)C1([H])N(C(=O)C([H])(N([H])C(=O)C([H])(N([H])C([H])([H])[H])C([H])([H])[H])C(C([H])([H])[H])(C([H])([H])[H])C([H])([H])[H])C([H])([H])c2c([H])c(OC([H])([H])C([H])([H])OC([H])([H])C([H])([H])N([H])C(=O)C([H])(N([H])C(=O)N3C([H])([H])C([H])([H])C([H])([H])C([H])(n4nc(-c5c([H])c([H])c(Oc6c([H])c([H])c(F)c([H])c6F)c([H])c5[H])c(C(=O)N([H])[H])c4N([H])[H])C3([H])[H])C([H])([H])C(=O)N([H])[H])c([H])c([H])c2C1([H])[H]

>  <smiles>  (26) 
[H]c1c([H])c([H])c2c(c1[H])C([H])([H])C([H])([H])C([H])([H])C2([H])N([H])C(=O)C1([H])N(C(=O)C([H])(N([H])C(=O)C([H])(N([H])C([H])([H])[H])C([H])([H])[H])C(C([H])([H])[H])(C([H])([H])[H])C([H])([H])[H])C([H])([H])c2c([H])c(OC([H])([H])C([H])([H])OC([H])([H])C([H])([H])N([H])C(=O)C([H])(N([H])C(=O)N3C([H])([H])C([H])([H])C([H])([H])C([H])(n4nc(-c5c([H])c([H])c(Oc6c([H])c([H])c(F)c([H])c6F)c([H])c5[H])c(C(=O)N([H])[H])c4N([H])[H])C3([H])[H])C([H])([H])C(=O)N([H])[H])c([H])c([H])c2C1([H])[H]

$$$$
26:0:0
     RDKit          3D

 92 99  0  0  1  0  0  0  0  0999 V2000
  -29.4620  -21.9360   20.3690 C   0  0  0  0  0  2  0  0  0  0  0  0
  -28.8220  -23.1060   21.0190 N   0  0  0  0  0  4  0  0  0  0  0  0
  -29.2270  -23.2190   21.9370 H   0  0  0  0  0  0  0  0  0  0  0  0
  -27.8410  -22.9110   21.1420 H   0  0  0  0  0  0  0  0  0  0  0  0
  -28.9640  -24.3820   20.2680 C   0  0  0  0  0  2  0  0  0  0  0  0
  -28.3770  -25.5820   21.0320 C   0  0  0  0  0  2  0  0  0  0  0  0
  -28.4240  -26.7570   20.2170 O   0  0  0  0  0  0  0  0  0  0  0  0
  -24.5700  -31.8790   23.2640 C   0  0  0  0  0  0  0  0  0  0  0  0
  -27.2550  -27.4740   20.2070 C   0  0  0  0  0  0  0  0  0  0  0  0
  -23.3760  -30.4720   21.6120 C   0  0  0  0  0  3  0  0  0  0  0  0
  -24.8470  -28.9390   20.1990 C   0  0  0  0  0  0  0  0  0  0  0  0
  -25.8970  -30.8530   21.4230 C   0  0  0  0  0  2  0  0  0  0  0  0
  -25.9960  -29.4830   20.7890 C   0  0  0  0  0  0  0  0  0  0  0  0
  -27.2060  -28.7590   20.7880 C   0  0  0  0  0  3  0  0  0  0  0  0
  -26.0940  -26.9360   19.6130 C   0  0  0  0  0  3  0  0  0  0  0  0
  -24.8880  -27.6630   19.6100 C   0  0  0  0  0  3  0  0  0  0  0  0
  -23.5950  -29.7870   20.2350 C   0  0  0  0  0  2  0  0  0  0  0  0
  -24.6320  -31.0820   22.1590 N   0  0  0  0  0  0  0  0  0  0  0  0
  -23.4850  -32.1450   23.8010 O   0  0  0  0  0  0  0  0  0  0  0  0
  -22.7270  -29.4480   22.5710 C   0  0  0  0  0  0  0  0  0  0  0  0
  -21.4030  -29.2670   22.4410 N   0  0  0  0  0  0  0  0  0  0  0  0
  -23.4100  -28.8200   23.3840 O   0  0  0  0  0  0  0  0  0  0  0  0
  -20.9130  -29.8290   21.7590 H   0  0  0  0  0  0  0  0  0  0  0  0
  -18.0260  -28.0830   22.9340 C   0  0  0  0  0  0  0  0  0  0  0  0
  -20.5840  -28.3270   23.2060 C   0  0  0  0  0  3  0  0  0  0  0  0
  -20.6800  -26.8990   22.6230 C   0  0  0  0  0  2  0  0  0  0  0  0
  -19.5760  -26.5870   21.6070 C   0  0  0  0  0  2  0  0  0  0  0  0
  -18.1970  -26.7370   22.2530 C   0  0  0  0  0  2  0  0  0  0  0  0
  -19.1490  -28.8370   23.3680 C   0  0  0  0  0  0  0  0  0  0  0  0
  -18.9370  -30.0990   23.9650 C   0  0  0  0  0  3  0  0  0  0  0  0
  -17.6360  -30.6060   24.1350 C   0  0  0  0  0  3  0  0  0  0  0  0
  -16.5270  -29.8490   23.7190 C   0  0  0  0  0  3  0  0  0  0  0  0
  -16.7230  -28.5900   23.1250 C   0  0  0  0  0  3  0  0  0  0  0  0
  -25.8530  -32.5120   23.8900 C   0  0  0  0  0  3  0  0  0  0  0  0
  -26.3610  -31.7500   25.1750 C   0  0  1  0  0  0  0  0  0  0  0  0
  -25.2620  -31.5210   26.2380 C   0  0  0  0  0  1  0  0  0  0  0  0
  -26.9460  -30.3690   24.7930 C   0  0  0  0  0  1  0  0  0  0  0  0
  -27.5080  -32.5470   25.8400 C   0  0  0  0  0  1  0  0  0  0  0  0
  -25.5450  -33.9130   24.2030 N   0  0  0  0  0  0  0  0  0  0  0  0
  -25.8890  -34.9560   23.4370 C   0  0  0  0  0  0  0  0  0  0  0  0
  -26.5720  -34.8410   22.4140 O   0  0  0  0  0  0  0  0  0  0  0  0
  -24.9460  -34.0790   24.9990 H   0  0  0  0  0  0  0  0  0  0  0  0
  -24.1740  -36.7500   23.0370 C   0  0  0  0  0  1  0  0  0  0  0  0
  -25.3990  -36.3490   23.8740 C   0  0  0  0  0  3  0  0  0  0  0  0
  -27.5220  -37.2340   24.7330 C   0  0  0  0  0  1  0  0  0  0  0  0
  -26.4370  -37.3990   23.7700 N   0  0  0  0  0  0  0  0  0  0  0  0
  -26.0310  -38.3200   23.9040 H   0  0  0  0  0  0  0  0  0  0  0  0
  -29.1390  -20.5990   21.0820 C   0  0  0  0  0  2  0  0  0  0  0  0
  -29.9360  -19.4010   20.5180 C   0  0  0  0  0  2  0  0  0  0  0  0
  -29.5870  -18.0310   21.1660 C   0  0  0  0  0  2  0  0  0  0  0  0
  -30.6890  -14.4410   20.2850 C   0  0  0  0  0  0  0  0  0  0  0  0
  -30.3030  -12.3080   19.1350 C   0  0  0  0  0  2  0  0  0  0  0  0
  -29.3390  -12.5340   17.9520 C   0  0  0  0  0  2  0  0  0  0  0  0
  -27.8770  -12.4040   18.4190 C   0  0  0  0  0  2  0  0  0  0  0  0
  -27.5730  -13.2400   19.6930 C   0  0  0  0  0  3  0  0  0  0  0  0
  -28.6540  -13.0250   20.7780 C   0  0  0  0  0  2  0  0  0  0  0  0
  -29.9670  -13.2940   20.1750 N   0  0  0  0  0  0  0  0  0  0  0  0
  -31.8220  -14.5720   19.8020 O   0  0  0  0  0  0  0  0  0  0  0  0
  -30.4740  -16.9020   20.6750 C   0  0  0  0  0  0  0  0  0  0  0  0
  -30.0110  -15.6180   20.7730 N   0  0  0  0  0  0  0  0  0  0  0  0
  -31.6840  -17.2240   20.1600 N   0  0  0  0  0  4  0  0  0  0  0  0
  -29.0900  -15.5420   21.1710 H   0  0  0  0  0  0  0  0  0  0  0  0
  -32.0180  -18.1770   20.1060 H   0  0  0  0  0  0  0  0  0  0  0  0
  -32.2870  -16.4800   19.8140 H   0  0  0  0  0  0  0  0  0  0  0  0
  -25.1900  -13.8450   20.4550 C   0  0  0  0  0  0  0  0  0  0  0  0
  -24.1310  -13.0700   20.8480 C   0  0  0  0  0  0  0  0  0  0  0  0
  -24.5910  -11.7190   20.8000 C   0  0  0  0  0  0  0  0  0  0  0  0
  -26.2310  -12.9640   20.2010 N   0  0  0  0  0  0  0  0  0  0  0  0
  -25.8760  -11.6810   20.4670 N   0  0  0  0  0  0  0  0  0  0  0  0
  -23.8700  -10.4560   20.9990 C   0  0  0  0  0  0  0  0  0  0  0  0
  -24.3280   -9.4810   21.9130 C   0  0  0  0  0  3  0  0  0  0  0  0
  -23.6070   -8.2820   22.1010 C   0  0  0  0  0  3  0  0  0  0  0  0
  -22.4150   -8.0490   21.3770 C   0  0  0  0  0  0  0  0  0  0  0  0
  -21.9760   -9.0120   20.4520 C   0  0  0  0  0  3  0  0  0  0  0  0
  -22.6960  -10.2030   20.2620 C   0  0  0  0  0  3  0  0  0  0  0  0
  -21.6630   -6.9030   21.4750 O   0  0  0  0  0  0  0  0  0  0  0  0
  -21.6540   -6.1440   22.6180 C   0  0  0  0  0  0  0  0  0  0  0  0
  -21.2710   -6.6800   23.8670 C   0  0  0  0  0  3  0  0  0  0  0  0
  -21.2090   -5.8480   25.0020 C   0  0  0  0  0  3  0  0  0  0  0  0
  -21.5220   -4.4800   24.8900 C   0  0  0  0  0  0  0  0  0  0  0  0
  -21.8990   -3.9430   23.6470 C   0  0  0  0  0  3  0  0  0  0  0  0
  -21.9620   -4.7730   22.5130 C   0  0  0  0  0  0  0  0  0  0  0  0
  -22.3060   -4.2460   21.3130 F   0  0  0  0  0  0  0  0  0  0  0  0
  -21.4560   -3.6780   25.9780 F   0  0  0  0  0  0  0  0  0  0  0  0
  -22.7400  -13.5470   21.1480 C   0  0  0  0  0  0  0  0  0  0  0  0
  -22.0270  -12.8470   22.0250 N   0  0  0  0  0  0  0  0  0  0  0  0
  -22.2930  -14.5750   20.6410 O   0  0  0  0  0  0  0  0  0  0  0  0
  -22.4020  -12.0180   22.4620 H   0  0  0  0  0  0  0  0  0  0  0  0
  -21.0950  -13.1490   22.2680 H   0  0  0  0  0  0  0  0  0  0  0  0
  -25.3460  -15.2160   20.2710 N   0  0  0  0  0  0  0  0  0  0  0  0
  -24.5630  -15.8520   20.3780 H   0  0  0  0  0  0  0  0  0  0  0  0
  -26.1440  -15.6460   19.8240 H   0  0  0  0  0  0  0  0  0  0  0  0
  1  2  1  0
  1 48  1  0
  2  4  1  0
  2  3  1  0
  5  2  1  0
  5  6  1  0
  7  6  1  0
  8 19  2  0
  9  7  1  0
  9 14  1  0
 10 18  1  0
 10 20  1  0
 11 17  1  0
 11 13  1  0
 12 18  1  0
 13 12  1  0
 14 13  2  0
 15  9  2  0
 16 15  1  0
 16 11  2  0
 17 10  1  0
 18  8  1  0
 20 22  2  0
 21 20  1  0
 23 21  1  0
 24 33  2  0
 24 29  1  0
 25 21  1  0
 25 29  1  0
 26 25  1  0
 27 28  1  0
 27 26  1  0
 28 24  1  0
 29 30  2  0
 30 31  1  0
 32 31  2  0
 33 32  1  0
 34  8  1  0
 34 39  1  0
 34 35  1  0
 35 38  1  1
 35 36  1  0
 37 35  1  0
 39 42  1  0
 40 44  1  0
 40 39  1  0
 41 40  2  0
 44 43  1  0
 46 44  1  0
 46 47  1  0
 46 45  1  0
 49 48  1  0
 49 50  1  0
 51 60  1  0
 52 57  1  0
 53 54  1  0
 53 52  1  0
 55 54  1  0
 55 68  1  0
 55 56  1  0
 57 51  1  0
 57 56  1  0
 58 51  2  0
 59 60  1  0
 59 50  1  0
 60 62  1  0
 61 59  2  0
 63 61  1  0
 64 61  1  0
 65 66  2  0
 66 85  1  0
 67 66  1  0
 67 70  1  0
 68 65  1  0
 68 69  1  0
 69 67  2  0
 70 71  1  0
 71 72  2  0
 73 76  1  0
 73 72  1  0
 74 73  2  0
 75 74  1  0
 75 70  2  0
 76 77  1  0
 77 78  1  0
 78 79  2  0
 80 79  1  0
 80 84  1  0
 81 80  2  0
 82 77  2  0
 82 81  1  0
 83 82  1  0
 85 86  1  0
 86 89  1  0
 86 88  1  0
 87 85  2  0
 90 91  1  0
 90 65  1  0
 92 90  1  0
M  ISO  4   6 101   7 101  51 100  60 100
M  END
>  <TORSDO>  (27) 
F 22

>  <SCORE>  (27) 
-12.876

>  <name>  (27) 
26

>  <ligand_id>  (27) 
26

>  <original_smiles>  (27) 
[H]c1c([H])c([H])c2c(c1[H])C([H])([H])C([H])([H])C([H])([H])C2([H])N([H])C(=O)C1([H])N(C(=O)C([H])(N([H])C(=O)C([H])(N([H])C([H])([H])[H])C([H])([H])[H])C(C([H])([H])[H])(C([H])([H])[H])C([H])([H])[H])C([H])([H])c2c([H])c(OC([H])([H])C([H])([H])[N+]([H])([H])C([H])([H])C([H])([H])C([H])([H])C([H])([H])C(N([H])C(=O)N3C([H])([H])C([H])([H])C([H])([H])C([H])(n4nc(-c5c([H])c([H])c(Oc6c([H])c([H])c(F)c([H])c6F)c([H])c5[H])c(C(=O)N([H])[H])c4N([H])[H])C3([H])[H])=[N+]([H])[H])c([H])c([H])c2C1([H])[H]

>  <smiles>  (27) 
[H]c1c([H])c([H])c2c(c1[H])C([H])([H])C([H])([H])C([H])([H])C2([H])N([H])C(=O)C1([H])N(C(=O)C([H])(N([H])C(=O)C([H])(N([H])C([H])([H])[H])C([H])([H])[H])C(C([H])([H])[H])(C([H])([H])[H])C([H])([H])[H])C([H])([H])c2c([H])c(OC([H])([H])C([H])([H])[N+]([H])([H])C([H])([H])C([H])([H])C([H])([H])C([H])([H])C(N([H])C(=O)N3C([H])([H])C([H])([H])C([H])([H])C([H])(n4nc(-c5c([H])c([H])c(Oc6c([H])c([H])c(F)c([H])c6F)c([H])c5[H])c(C(=O)N([H])[H])c4N([H])[H])C3([H])[H])=[N+]([H])[H])c([H])c([H])c2C1([H])[H]

$$$$
27:0:0
     RDKit          3D

 89 96  0  0  1  0  0  0  0  0999 V2000
  -28.9810  -23.3930   20.1310 C   0  0  0  0  0  3  0  0  0  0  0  0
  -29.3100  -23.4450   18.6880 N   0  0  0  0  0  4  0  0  0  0  0  0
  -28.4950  -23.2990   18.1160 H   0  0  0  0  0  0  0  0  0  0  0  0
  -29.9840  -22.7340   18.4530 H   0  0  0  0  0  0  0  0  0  0  0  0
  -29.7050  -24.3370   18.4420 H   0  0  0  0  0  0  0  0  0  0  0  0
  -27.9640  -24.6930   20.4580 C   0  0  0  0  0  2  0  0  0  0  0  0
  -28.2450  -26.2090   20.2290 O   0  0  0  0  0  0  0  0  0  0  0  0
  -24.6170  -31.8780   23.2380 C   0  0  0  0  0  0  0  0  0  0  0  0
  -27.1820  -27.1820   20.1910 C   0  0  0  0  0  0  0  0  0  0  0  0
  -23.4090  -30.4830   21.6040 C   0  0  0  0  0  3  0  0  0  0  0  0
  -24.8510  -28.9170   20.1690 C   0  0  0  0  0  0  0  0  0  0  0  0
  -25.9600  -30.7580   21.4210 C   0  0  0  0  0  2  0  0  0  0  0  0
  -26.0330  -29.3670   20.7710 C   0  0  0  0  0  0  0  0  0  0  0  0
  -27.2000  -28.5160   20.7630 C   0  0  0  0  0  3  0  0  0  0  0  0
  -25.9780  -26.8400   19.5380 C   0  0  0  0  0  3  0  0  0  0  0  0
  -24.8360  -27.6670   19.5340 C   0  0  0  0  0  3  0  0  0  0  0  0
  -23.6220  -29.8090   20.2230 C   0  0  0  0  0  2  0  0  0  0  0  0
  -24.6830  -31.0610   22.1430 N   0  0  0  0  0  0  0  0  0  0  0  0
  -23.5340  -32.1600   23.7720 O   0  0  0  0  0  0  0  0  0  0  0  0
  -22.7370  -29.4730   22.5680 C   0  0  0  0  0  0  0  0  0  0  0  0
  -21.4110  -29.2980   22.4460 N   0  0  0  0  0  0  0  0  0  0  0  0
  -23.4140  -28.8480   23.3890 O   0  0  0  0  0  0  0  0  0  0  0  0
  -20.9220  -29.8540   21.7580 H   0  0  0  0  0  0  0  0  0  0  0  0
  -18.0330  -28.0890   22.9560 C   0  0  0  0  0  0  0  0  0  0  0  0
  -20.5930  -28.3590   23.2190 C   0  0  0  0  0  3  0  0  0  0  0  0
  -20.6970  -26.9270   22.6460 C   0  0  0  0  0  2  0  0  0  0  0  0
  -19.5950  -26.5990   21.6350 C   0  0  0  0  0  2  0  0  0  0  0  0
  -18.2140  -26.7410   22.2800 C   0  0  0  0  0  2  0  0  0  0  0  0
  -19.1500  -28.8570   23.3830 C   0  0  0  0  0  0  0  0  0  0  0  0
  -18.9270  -30.1180   23.9760 C   0  0  0  0  0  3  0  0  0  0  0  0
  -17.6210  -30.6130   24.1460 C   0  0  0  0  0  3  0  0  0  0  0  0
  -16.5190  -29.8430   23.7350 C   0  0  0  0  0  3  0  0  0  0  0  0
  -16.7260  -28.5840   23.1460 C   0  0  0  0  0  3  0  0  0  0  0  0
  -25.8990  -32.5120   23.8580 C   0  0  0  0  0  3  0  0  0  0  0  0
  -25.5910  -33.9130   24.1900 N   0  0  0  0  0  0  0  0  0  0  0  0
  -25.9170  -34.9670   23.4300 C   0  0  0  0  0  0  0  0  0  0  0  0
  -26.5780  -34.8630   22.3930 O   0  0  0  0  0  0  0  0  0  0  0  0
  -25.0050  -34.0660   24.9960 H   0  0  0  0  0  0  0  0  0  0  0  0
  -24.1900  -36.7670   23.0940 C   0  0  0  0  0  1  0  0  0  0  0  0
  -25.4370  -36.3570   23.8940 C   0  0  0  0  0  3  0  0  0  0  0  0
  -27.5800  -37.2400   24.7100 C   0  0  0  0  0  1  0  0  0  0  0  0
  -26.4710  -37.4080   23.7730 N   0  0  0  0  0  0  0  0  0  0  0  0
  -26.0680  -38.3300   23.9230 H   0  0  0  0  0  0  0  0  0  0  0  0
  -26.4130  -31.7440   25.1380 C   0  0  1  0  0  0  0  0  0  0  0  0
  -25.3190  -31.5150   26.2070 C   0  0  0  0  0  1  0  0  0  0  0  0
  -26.9910  -30.3620   24.7540 C   0  0  0  0  0  1  0  0  0  0  0  0
  -27.5670  -32.5370   25.7960 C   0  0  0  0  0  1  0  0  0  0  0  0
  -28.6170  -21.7890   20.5110 C   0  0  0  0  0  2  0  0  0  0  0  0
  -29.5120  -20.5620   20.2200 O   0  0  0  0  0  0  0  0  0  0  0  0
  -29.1340  -19.1110   20.5940 C   0  0  0  0  0  3  0  0  0  0  0  0
  -30.0650  -17.6960   20.3800 C   0  0  0  0  0  3  0  0  0  0  0  0
  -30.5430  -14.9680   20.3190 C   0  0  0  0  0  0  0  0  0  0  0  0
  -30.4170  -12.6240   19.3750 C   0  0  0  0  0  2  0  0  0  0  0  0
  -29.4860  -12.5950   18.1420 C   0  0  0  0  0  2  0  0  0  0  0  0
  -28.0160  -12.4030   18.5610 C   0  0  0  0  0  2  0  0  0  0  0  0
  -27.6130  -13.3090   19.7550 C   0  0  0  0  0  3  0  0  0  0  0  0
  -28.6700  -13.3070   20.8820 C   0  0  0  0  0  2  0  0  0  0  0  0
  -29.9430  -13.7130   20.2740 N   0  0  0  0  0  0  0  0  0  0  0  0
  -31.7420  -15.0460   20.0350 O   0  0  0  0  0  0  0  0  0  0  0  0
  -29.7630  -16.1420   20.4730 N   0  0  0  0  0  0  0  0  0  0  0  0
  -28.7930  -15.9320   20.6590 H   0  0  0  0  0  0  0  0  0  0  0  0
  -25.2240  -13.8670   20.4910 C   0  0  0  0  0  0  0  0  0  0  0  0
  -24.1670  -13.0830   20.8610 C   0  0  0  0  0  0  0  0  0  0  0  0
  -24.6430  -11.7360   20.8320 C   0  0  0  0  0  0  0  0  0  0  0  0
  -26.2760  -12.9990   20.2520 N   0  0  0  0  0  0  0  0  0  0  0  0
  -25.9350  -11.7120   20.5220 N   0  0  0  0  0  0  0  0  0  0  0  0
  -23.9240  -10.4690   21.0190 C   0  0  0  0  0  0  0  0  0  0  0  0
  -24.3440   -9.5130   21.9690 C   0  0  0  0  0  3  0  0  0  0  0  0
  -23.6230   -8.3130   22.1440 C   0  0  0  0  0  3  0  0  0  0  0  0
  -22.4680   -8.0590   21.3690 C   0  0  0  0  0  0  0  0  0  0  0  0
  -22.0670   -9.0030   20.4070 C   0  0  0  0  0  3  0  0  0  0  0  0
  -22.7890  -10.1950   20.2290 C   0  0  0  0  0  3  0  0  0  0  0  0
  -21.7190   -6.9100   21.4540 O   0  0  0  0  0  0  0  0  0  0  0  0
  -21.6380   -6.1870   22.6170 C   0  0  0  0  0  0  0  0  0  0  0  0
  -21.1540   -6.7550   23.8160 C   0  0  0  0  0  3  0  0  0  0  0  0
  -21.0230   -5.9580   24.9700 C   0  0  0  0  0  3  0  0  0  0  0  0
  -21.3650   -4.5940   24.9270 C   0  0  0  0  0  0  0  0  0  0  0  0
  -21.8410   -4.0240   23.7330 C   0  0  0  0  0  3  0  0  0  0  0  0
  -21.9740   -4.8190   22.5800 C   0  0  0  0  0  0  0  0  0  0  0  0
  -22.4130   -4.2600   21.4270 F   0  0  0  0  0  0  0  0  0  0  0  0
  -21.2310   -3.8260   26.0330 F   0  0  0  0  0  0  0  0  0  0  0  0
  -22.7640  -13.5490   21.1260 C   0  0  0  0  0  0  0  0  0  0  0  0
  -22.0390  -12.8510   21.9910 N   0  0  0  0  0  0  0  0  0  0  0  0
  -22.3220  -14.5700   20.6010 O   0  0  0  0  0  0  0  0  0  0  0  0
  -22.4090  -12.0250   22.4390 H   0  0  0  0  0  0  0  0  0  0  0  0
  -21.0970  -13.1420   22.2070 H   0  0  0  0  0  0  0  0  0  0  0  0
  -25.3720  -15.2400   20.3080 N   0  0  0  0  0  0  0  0  0  0  0  0
  -24.5930  -15.8790   20.4250 H   0  0  0  0  0  0  0  0  0  0  0  0
  -26.1910  -15.6860   19.9180 H   0  0  0  0  0  0  0  0  0  0  0  0
  1  6  1  0
  1 48  1  0
  2  1  1  0
  3  2  1  0
  4  2  1  0
  5  2  1  0
  7  6  1  0
  8 19  2  0
  9  7  1  0
  9 14  1  0
 10 18  1  0
 10 20  1  0
 11 17  1  0
 11 13  1  0
 12 18  1  0
 13 12  1  0
 14 13  2  0
 15  9  2  0
 16 15  1  0
 16 11  2  0
 17 10  1  0
 18  8  1  0
 20 22  2  0
 21 20  1  0
 23 21  1  0
 24 33  2  0
 24 29  1  0
 25 21  1  0
 25 29  1  0
 26 25  1  0
 27 28  1  0
 27 26  1  0
 28 24  1  0
 29 30  2  0
 30 31  1  0
 32 31  2  0
 33 32  1  0
 34  8  1  0
 34 35  1  0
 34 44  1  0
 35 38  1  0
 36 40  1  0
 36 35  1  0
 37 36  2  0
 40 39  1  0
 42 40  1  0
 42 43  1  0
 42 41  1  0
 44 47  1  1
 44 45  1  0
 46 44  1  0
 49 48  1  0
 49 50  1  0
 51 60  1  0
 51 50  2  0
 52 60  1  0
 53 58  1  0
 54 55  1  0
 54 53  1  0
 56 55  1  0
 56 65  1  0
 56 57  1  0
 58 52  1  0
 58 57  1  0
 59 52  2  0
 60 61  1  0
 62 63  2  0
 63 82  1  0
 64 63  1  0
 64 67  1  0
 65 62  1  0
 65 66  1  0
 66 64  2  0
 67 68  1  0
 68 69  2  0
 70 73  1  0
 70 69  1  0
 71 70  2  0
 72 71  1  0
 72 67  2  0
 73 74  1  0
 74 75  1  0
 75 76  2  0
 77 76  1  0
 77 81  1  0
 78 77  2  0
 79 74  2  0
 79 78  1  0
 80 79  1  0
 82 83  1  0
 83 86  1  0
 83 85  1  0
 84 82  2  0
 87 88  1  0
 87 62  1  0
 89 87  1  0
M  ISO  4   6 101   7 101  52 100  60 100
M  END
>  <TORSDO>  (28) 
F 22

>  <SCORE>  (28) 
-13.658

>  <name>  (28) 
27

>  <ligand_id>  (28) 
27

>  <original_smiles>  (28) 
[H]c1c([H])c([H])c2c(c1[H])C([H])([H])C([H])([H])C([H])([H])C2([H])N([H])C(=O)C1([H])N(C(=O)C([H])(N([H])C(=O)C([H])(N([H])C([H])([H])[H])C([H])([H])[H])C(C([H])([H])[H])(C([H])([H])[H])C([H])([H])[H])C([H])([H])c2c([H])c(OC([H])([H])C([H])(C([H])([H])OC([H])([H])C([H])([H])N([H])C(=O)N3C([H])([H])C([H])([H])C([H])([H])C([H])(n4nc(-c5c([H])c([H])c(Oc6c([H])c([H])c(F)c([H])c6F)c([H])c5[H])c(C(=O)N([H])[H])c4N([H])[H])C3([H])[H])[N+]([H])([H])[H])c([H])c([H])c2C1([H])[H]

>  <smiles>  (28) 
[H]c1c([H])c([H])c2c(c1[H])C([H])([H])C([H])([H])C([H])([H])C2([H])N([H])C(=O)C1([H])N(C(=O)C([H])(N([H])C(=O)C([H])(N([H])C([H])([H])[H])C([H])([H])[H])C(C([H])([H])[H])(C([H])([H])[H])C([H])([H])[H])C([H])([H])c2c([H])c(OC([H])([H])C([H])(C([H])([H])OC([H])([H])C([H])([H])N([H])C(=O)N3C([H])([H])C([H])([H])C([H])([H])C([H])(n4nc(-c5c([H])c([H])c(Oc6c([H])c([H])c(F)c([H])c6F)c([H])c5[H])c(C(=O)N([H])[H])c4N([H])[H])C3([H])[H])[N+]([H])([H])[H])c([H])c([H])c2C1([H])[H]

$$$$
28:0:0
     RDKit          3D

 97104  0  0  1  0  0  0  0  0999 V2000
  -31.1470  -19.3840   20.2230 N   0  0  0  0  0  4  0  0  0  0  0  0
  -31.0460  -19.4490   21.2240 H   0  0  0  0  0  0  0  0  0  0  0  0
  -32.0640  -19.7560   20.0310 H   0  0  0  0  0  0  0  0  0  0  0  0
  -32.6060  -17.5620   19.4500 C   0  0  0  0  0  1  0  0  0  0  0  0
  -31.1460  -17.9580   19.7300 C   0  0  0  0  0  3  0  0  0  0  0  0
  -30.4060  -16.9460   20.7050 C   0  0  0  0  0  3  0  0  0  0  0  0
  -30.8520  -14.5260   19.7870 C   0  0  0  0  0  0  0  0  0  0  0  0
  -30.4270  -12.4260   18.5410 C   0  0  0  0  0  2  0  0  0  0  0  0
  -29.3890  -12.6960   17.4310 C   0  0  0  0  0  2  0  0  0  0  0  0
  -27.9530  -12.5640   17.9810 C   0  0  0  0  0  2  0  0  0  0  0  0
  -27.7360  -13.3370   19.3090 C   0  0  0  0  0  3  0  0  0  0  0  0
  -28.8820  -13.0460   20.3060 C   0  0  0  0  0  2  0  0  0  0  0  0
  -30.1510  -13.3690   19.6360 N   0  0  0  0  0  0  0  0  0  0  0  0
  -32.0090  -14.6560   19.3930 O   0  0  0  0  0  0  0  0  0  0  0  0
  -30.1080  -15.5720   20.2140 N   0  0  0  0  0  0  0  0  0  0  0  0
  -29.1460  -15.3170   20.3790 H   0  0  0  0  0  0  0  0  0  0  0  0
  -25.4100  -13.9480   20.2080 C   0  0  0  0  0  0  0  0  0  0  0  0
  -24.3620  -13.1810   20.6370 C   0  0  0  0  0  0  0  0  0  0  0  0
  -24.8080  -11.8270   20.5520 C   0  0  0  0  0  0  0  0  0  0  0  0
  -26.4270  -13.0630   19.8890 N   0  0  0  0  0  0  0  0  0  0  0  0
  -26.0730  -11.7780   20.1540 N   0  0  0  0  0  0  0  0  0  0  0  0
  -24.0820  -10.5750   20.7770 C   0  0  0  0  0  0  0  0  0  0  0  0
  -24.5140   -9.6360   21.7390 C   0  0  0  0  0  3  0  0  0  0  0  0
  -23.7890   -8.4440   21.9510 C   0  0  0  0  0  3  0  0  0  0  0  0
  -22.6180   -8.1820   21.2020 C   0  0  0  0  0  0  0  0  0  0  0  0
  -22.2040   -9.1080   20.2290 C   0  0  0  0  0  3  0  0  0  0  0  0
  -22.9290  -10.2920   20.0160 C   0  0  0  0  0  3  0  0  0  0  0  0
  -21.8670   -7.0360   21.3230 O   0  0  0  0  0  0  0  0  0  0  0  0
  -21.7320   -6.3870   22.5250 C   0  0  0  0  0  0  0  0  0  0  0  0
  -21.1980   -7.0260   23.6640 C   0  0  0  0  0  3  0  0  0  0  0  0
  -21.0080   -6.2990   24.8550 C   0  0  0  0  0  3  0  0  0  0  0  0
  -21.3470   -4.9340   24.9110 C   0  0  0  0  0  0  0  0  0  0  0  0
  -21.8790   -4.2950   23.7770 C   0  0  0  0  0  3  0  0  0  0  0  0
  -22.0680   -5.0200   22.5870 C   0  0  0  0  0  0  0  0  0  0  0  0
  -22.5550   -4.3930   21.4910 F   0  0  0  0  0  0  0  0  0  0  0  0
  -21.1620   -4.2360   26.0550 F   0  0  0  0  0  0  0  0  0  0  0  0
  -22.9920  -13.6690   21.0030 C   0  0  0  0  0  0  0  0  0  0  0  0
  -22.3290  -12.9900   21.9330 N   0  0  0  0  0  0  0  0  0  0  0  0
  -22.5220  -14.6940   20.5070 O   0  0  0  0  0  0  0  0  0  0  0  0
  -22.7270  -12.1670   22.3600 H   0  0  0  0  0  0  0  0  0  0  0  0
  -21.4180  -13.3070   22.2290 H   0  0  0  0  0  0  0  0  0  0  0  0
  -25.5710  -15.3170   20.0420 N   0  0  0  0  0  0  0  0  0  0  0  0
  -24.8100  -15.9550   20.2530 H   0  0  0  0  0  0  0  0  0  0  0  0
  -26.3760  -15.7780   19.6400 H   0  0  0  0  0  0  0  0  0  0  0  0
  -29.0480  -17.5360   21.1320 C   0  0  0  0  0  0  0  0  0  0  0  0
  -28.7380  -17.8150   22.2890 O   0  0  0  0  0  0  0  0  0  0  0  0
  -28.2770  -17.7360   20.0420 O   0  0  0  0  0  0  0  0  0  0  0  0
  -26.6660  -18.8130   18.6580 C   0  0  0  0  0  1  0  0  0  0  0  0
  -27.1140  -18.5500   20.1020 C   0  0  0  0  0  2  0  0  0  0  0  0
  -30.2130  -20.3570   19.5720 C   0  0  0  0  0  2  0  0  0  0  0  0
  -30.5180  -21.8190   19.9700 C   0  0  0  0  0  0  0  0  0  0  0  0
  -29.6170  -22.7760   19.6740 N   0  0  0  0  0  0  0  0  0  0  0  0
  -31.5790  -22.0750   20.5460 O   0  0  0  0  0  0  0  0  0  0  0  0
  -28.7780  -22.4960   19.1830 H   0  0  0  0  0  0  0  0  0  0  0  0
  -29.7290  -24.2110   20.0200 C   0  0  0  0  0  2  0  0  0  0  0  0
  -28.4880  -25.0260   19.5680 C   0  0  0  0  0  2  0  0  0  0  0  0
  -28.5670  -26.4460   19.8350 O   0  0  0  0  0  0  0  0  0  0  0  0
  -24.5470  -31.4460   22.9890 C   0  0  0  0  0  0  0  0  0  0  0  0
  -27.3760  -27.1620   19.8090 C   0  0  0  0  0  0  0  0  0  0  0  0
  -23.4080  -30.0380   21.3090 C   0  0  0  0  0  3  0  0  0  0  0  0
  -24.9280  -28.6010   19.8440 C   0  0  0  0  0  0  0  0  0  0  0  0
  -25.9240  -30.4900   21.1390 C   0  0  0  0  0  2  0  0  0  0  0  0
  -26.0640  -29.1390   20.4600 C   0  0  0  0  0  0  0  0  0  0  0  0
  -27.2880  -28.4280   20.4410 C   0  0  0  0  0  3  0  0  0  0  0  0
  -26.2190  -26.6560   19.1700 C   0  0  0  0  0  3  0  0  0  0  0  0
  -25.0030  -27.3610   19.1900 C   0  0  0  0  0  3  0  0  0  0  0  0
  -23.6500  -29.4080   19.9110 C   0  0  0  0  0  2  0  0  0  0  0  0
  -24.6450  -30.6720   21.8700 N   0  0  0  0  0  0  0  0  0  0  0  0
  -23.4520  -31.6600   23.5280 O   0  0  0  0  0  0  0  0  0  0  0  0
  -22.7940  -28.9650   22.2370 C   0  0  0  0  0  0  0  0  0  0  0  0
  -21.4740  -28.7510   22.1180 N   0  0  0  0  0  0  0  0  0  0  0  0
  -23.5030  -28.3280   23.0210 O   0  0  0  0  0  0  0  0  0  0  0  0
  -20.9650  -29.3160   21.4520 H   0  0  0  0  0  0  0  0  0  0  0  0
  -18.1300  -27.4780   22.6330 C   0  0  0  0  0  0  0  0  0  0  0  0
  -20.6890  -27.7660   22.8610 C   0  0  0  0  0  3  0  0  0  0  0  0
  -20.8030  -26.3660   22.2150 C   0  0  0  0  0  2  0  0  0  0  0  0
  -19.6830  -26.0710   21.2140 C   0  0  0  0  0  2  0  0  0  0  0  0
  -18.3110  -26.1650   21.8910 C   0  0  0  0  0  2  0  0  0  0  0  0
  -19.2460  -28.2380   23.0740 C   0  0  0  0  0  0  0  0  0  0  0  0
  -19.0200  -29.4690   23.7280 C   0  0  0  0  0  3  0  0  0  0  0  0
  -17.7120  -29.9410   23.9420 C   0  0  0  0  0  3  0  0  0  0  0  0
  -16.6100  -29.1780   23.5180 C   0  0  0  0  0  3  0  0  0  0  0  0
  -16.8210  -27.9470   22.8710 C   0  0  0  0  0  3  0  0  0  0  0  0
  -25.8030  -32.1110   23.6330 C   0  0  0  0  0  3  0  0  0  0  0  0
  -26.3530  -31.3180   24.8810 C   0  0  1  0  0  0  0  0  0  0  0  0
  -25.2730  -30.9940   25.9390 C   0  0  0  0  0  1  0  0  0  0  0  0
  -26.9960  -29.9840   24.4370 C   0  0  0  0  0  1  0  0  0  0  0  0
  -27.4690  -32.1400   25.5670 C   0  0  0  0  0  1  0  0  0  0  0  0
  -25.4330  -33.4810   24.0110 N   0  0  0  0  0  0  0  0  0  0  0  0
  -25.7280  -34.5730   23.2920 C   0  0  0  0  0  0  0  0  0  0  0  0
  -26.4090  -34.5330   22.2630 O   0  0  0  0  0  0  0  0  0  0  0  0
  -24.8380  -33.5850   24.8200 H   0  0  0  0  0  0  0  0  0  0  0  0
  -23.9320  -36.3000   22.9710 C   0  0  0  0  0  1  0  0  0  0  0  0
  -25.1760  -35.9210   23.7910 C   0  0  0  0  0  3  0  0  0  0  0  0
  -27.2550  -36.8630   24.6940 C   0  0  0  0  0  1  0  0  0  0  0  0
  -26.1660  -37.0200   23.7330 N   0  0  0  0  0  0  0  0  0  0  0  0
  -25.7210  -37.9170   23.9020 H   0  0  0  0  0  0  0  0  0  0  0  0
  1  2  1  0
  3  1  1  0
  5  4  1  0
  5  1  1  0
  5  6  1  0
  6 45  1  0
  7 15  1  0
  8 13  1  0
  9 10  1  0
  9  8  1  0
 11 10  1  0
 11 20  1  0
 11 12  1  0
 13  7  1  0
 13 12  1  0
 14  7  2  0
 15 16  1  0
 15  6  1  0
 17 18  2  0
 18 37  1  0
 19 18  1  0
 19 22  1  0
 20 21  1  0
 20 17  1  0
 21 19  2  0
 22 23  1  0
 23 24  2  0
 25 28  1  0
 25 24  1  0
 26 25  2  0
 27 26  1  0
 27 22  2  0
 28 29  1  0
 29 34  2  0
 29 30  1  0
 30 31  2  0
 31 32  1  0
 32 36  1  0
 33 32  2  0
 34 33  1  0
 35 34  1  0
 37 38  1  0
 38 41  1  0
 38 40  1  0
 39 37  2  0
 42 17  1  0
 42 43  1  0
 44 42  1  0
 45 46  2  0
 47 49  1  0
 47 45  1  0
 48 49  1  0
 50 51  1  0
 50  1  1  0
 51 53  2  0
 52 51  1  0
 52 55  1  0
 54 52  1  0
 56 57  1  0
 56 55  1  0
 58 69  2  0
 59 57  1  0
 59 64  1  0
 60 68  1  0
 60 70  1  0
 61 67  1  0
 61 63  1  0
 62 68  1  0
 63 62  1  0
 64 63  2  0
 65 66  1  0
 65 59  2  0
 66 61  2  0
 67 60  1  0
 68 58  1  0
 70 72  2  0
 71 70  1  0
 73 71  1  0
 74 83  2  0
 74 79  1  0
 75 71  1  0
 75 79  1  0
 76 75  1  0
 77 78  1  0
 77 76  1  0
 78 74  1  0
 79 80  2  0
 80 81  1  0
 82 81  2  0
 83 82  1  0
 84 58  1  0
 84 89  1  0
 84 85  1  0
 85 88  1  1
 85 86  1  0
 87 85  1  0
 89 92  1  0
 90 94  1  0
 90 89  1  0
 91 90  2  0
 94 93  1  0
 96 94  1  0
 96 97  1  0
 96 95  1  0
M  ISO  4   7 100  15 100  56 101  57 101
M  END
>  <TORSDO>  (29) 
F 25

>  <SCORE>  (29) 
-9.162

>  <name>  (29) 
28

>  <ligand_id>  (29) 
28

>  <original_smiles>  (29) 
[H]c1c([H])c([H])c2c(c1[H])C([H])([H])C([H])([H])C([H])([H])C2([H])N([H])C(=O)C1([H])N(C(=O)C([H])(N([H])C(=O)C([H])(N([H])C([H])([H])[H])C([H])([H])[H])C(C([H])([H])[H])(C([H])([H])[H])C([H])([H])[H])C([H])([H])c2c([H])c(OC([H])([H])C([H])([H])N([H])C(=O)C([H])([H])[N+]([H])([H])C([H])(C([H])([H])[H])C([H])(C(=O)OC([H])([H])C([H])([H])[H])N([H])C(=O)N3C([H])([H])C([H])([H])C([H])([H])C([H])(n4nc(-c5c([H])c([H])c(Oc6c([H])c([H])c(F)c([H])c6F)c([H])c5[H])c(C(=O)N([H])[H])c4N([H])[H])C3([H])[H])c([H])c([H])c2C1([H])[H]

>  <smiles>  (29) 
[H]c1c([H])c([H])c2c(c1[H])C([H])([H])C([H])([H])C([H])([H])C2([H])N([H])C(=O)C1([H])N(C(=O)C([H])(N([H])C(=O)C([H])(N([H])C([H])([H])[H])C([H])([H])[H])C(C([H])([H])[H])(C([H])([H])[H])C([H])([H])[H])C([H])([H])c2c([H])c(OC([H])([H])C([H])([H])N([H])C(=O)C([H])([H])[N+]([H])([H])C([H])(C([H])([H])[H])C([H])(C(=O)OC([H])([H])C([H])([H])[H])N([H])C(=O)N3C([H])([H])C([H])([H])C([H])([H])C([H])(n4nc(-c5c([H])c([H])c(Oc6c([H])c([H])c(F)c([H])c6F)c([H])c5[H])c(C(=O)N([H])[H])c4N([H])[H])C3([H])[H])c([H])c([H])c2C1([H])[H]

$$$$
29:0:0
     RDKit          3D

 92 99  0  0  1  0  0  0  0  0999 V2000
  -28.8020  -22.7370   20.6230 C   0  0  0  0  0  3  0  0  0  0  0  0
  -30.1480  -23.0680   21.3000 C   0  0  0  0  0  0  0  0  0  0  0  0
  -30.6700  -22.1570   22.1120 N   0  0  0  0  0  0  0  0  0  0  0  0
  -30.7540  -24.1140   21.0710 O   0  0  0  0  0  0  0  0  0  0  0  0
  -30.1620  -21.2850   22.2440 H   0  0  0  0  0  0  0  0  0  0  0  0
  -31.5570  -22.3050   22.5680 H   0  0  0  0  0  0  0  0  0  0  0  0
  -29.2820  -19.8130   20.5030 C   0  0  0  0  0  0  0  0  0  0  0  0
  -29.0190  -21.1870   19.9800 N   0  0  0  0  0  0  0  0  0  0  0  0
  -29.1580  -19.7080   21.7230 O   0  0  0  0  0  0  0  0  0  0  0  0
  -29.1160  -21.2260   18.9750 H   0  0  0  0  0  0  0  0  0  0  0  0
  -29.4750  -18.3930   18.2460 C   0  0  0  0  0  1  0  0  0  0  0  0
  -29.7990  -18.3060   19.7450 C   0  0  0  0  0  0  0  0  0  0  0  0
  -30.4620  -15.4030   19.9490 C   0  0  0  0  0  0  0  0  0  0  0  0
  -30.3860  -12.9660   19.0410 C   0  0  0  0  0  2  0  0  0  0  0  0
  -29.4070  -12.7980   17.8500 C   0  0  0  0  0  2  0  0  0  0  0  0
  -27.9810  -12.5190   18.3540 C   0  0  0  0  0  2  0  0  0  0  0  0
  -27.5940  -13.4560   19.5250 C   0  0  0  0  0  3  0  0  0  0  0  0
  -28.6950  -13.5750   20.6010 C   0  0  0  0  0  2  0  0  0  0  0  0
  -29.8970  -14.0910   19.9270 N   0  0  0  0  0  0  0  0  0  0  0  0
  -31.6520  -15.4040   19.5980 O   0  0  0  0  0  0  0  0  0  0  0  0
  -29.7110  -16.6740   20.1540 N   0  0  0  0  0  4  0  0  0  0  0  0
  -28.8010  -16.4680   20.5410 H   0  0  0  0  0  0  0  0  0  0  0  0
  -25.2620  -14.0040   20.3940 C   0  0  0  0  0  0  0  0  0  0  0  0
  -24.2190  -13.2230   20.8040 C   0  0  0  0  0  0  0  0  0  0  0  0
  -24.6820  -11.8730   20.7360 C   0  0  0  0  0  0  0  0  0  0  0  0
  -26.2910  -13.1320   20.0910 N   0  0  0  0  0  0  0  0  0  0  0  0
  -25.9580  -11.8430   20.3650 N   0  0  0  0  0  0  0  0  0  0  0  0
  -23.9630  -10.6100   20.9460 C   0  0  0  0  0  0  0  0  0  0  0  0
  -24.4220   -9.6390   21.8630 C   0  0  0  0  0  3  0  0  0  0  0  0
  -23.6980   -8.4430   22.0620 C   0  0  0  0  0  3  0  0  0  0  0  0
  -22.5010   -8.2090   21.3450 C   0  0  0  0  0  0  0  0  0  0  0  0
  -22.0610   -9.1690   20.4160 C   0  0  0  0  0  3  0  0  0  0  0  0
  -22.7850  -10.3560   20.2150 C   0  0  0  0  0  3  0  0  0  0  0  0
  -21.7480   -7.0660   21.4550 O   0  0  0  0  0  0  0  0  0  0  0  0
  -21.7220   -6.3290   22.6120 C   0  0  0  0  0  0  0  0  0  0  0  0
  -21.3090   -6.8860   23.8410 C   0  0  0  0  0  3  0  0  0  0  0  0
  -21.2310   -6.0750   24.9910 C   0  0  0  0  0  3  0  0  0  0  0  0
  -21.5560   -4.7080   24.9120 C   0  0  0  0  0  0  0  0  0  0  0  0
  -21.9610   -4.1490   23.6870 C   0  0  0  0  0  3  0  0  0  0  0  0
  -22.0400   -4.9570   22.5400 C   0  0  0  0  0  0  0  0  0  0  0  0
  -22.4120   -4.4100   21.3570 F   0  0  0  0  0  0  0  0  0  0  0  0
  -21.4730   -3.9260   26.0150 F   0  0  0  0  0  0  0  0  0  0  0  0
  -22.8360  -13.6990   21.1410 C   0  0  0  0  0  0  0  0  0  0  0  0
  -22.1490  -13.0000   22.0360 N   0  0  0  0  0  0  0  0  0  0  0  0
  -22.3770  -14.7270   20.6440 O   0  0  0  0  0  0  0  0  0  0  0  0
  -22.5360  -12.1690   22.4590 H   0  0  0  0  0  0  0  0  0  0  0  0
  -21.2230  -13.3020   22.3060 H   0  0  0  0  0  0  0  0  0  0  0  0
  -25.4160  -15.3770   20.2220 N   0  0  0  0  0  0  0  0  0  0  0  0
  -24.6500  -16.0260   20.3660 H   0  0  0  0  0  0  0  0  0  0  0  0
  -26.2340  -15.8160   19.8190 H   0  0  0  0  0  0  0  0  0  0  0  0
  -28.1990  -24.2960   19.8910 C   0  0  0  0  0  2  0  0  0  0  0  0
  -28.2050  -25.9040   20.3360 O   0  0  0  0  0  0  0  0  0  0  0  0
  -24.6210  -31.8800   23.2440 C   0  0  0  0  0  0  0  0  0  0  0  0
  -27.1880  -26.9970   20.2200 C   0  0  0  0  0  0  0  0  0  0  0  0
  -23.4320  -30.4850   21.6010 C   0  0  0  0  0  3  0  0  0  0  0  0
  -24.8850  -28.8830   20.1730 C   0  0  0  0  0  0  0  0  0  0  0  0
  -25.9980  -30.6950   21.4590 C   0  0  0  0  0  2  0  0  0  0  0  0
  -26.0700  -29.2850   20.8000 C   0  0  0  0  0  0  0  0  0  0  0  0
  -27.2100  -28.3620   20.8030 C   0  0  0  0  0  3  0  0  0  0  0  0
  -25.9770  -26.7530   19.5330 C   0  0  0  0  0  3  0  0  0  0  0  0
  -24.8640  -27.6380   19.5190 C   0  0  0  0  0  3  0  0  0  0  0  0
  -23.6650  -29.8030   20.2230 C   0  0  0  0  0  2  0  0  0  0  0  0
  -24.7060  -31.0480   22.1550 N   0  0  0  0  0  0  0  0  0  0  0  0
  -23.5310  -32.1680   23.7630 O   0  0  0  0  0  0  0  0  0  0  0  0
  -22.7370  -29.4890   22.5650 C   0  0  0  0  0  0  0  0  0  0  0  0
  -21.4080  -29.3190   22.4340 N   0  0  0  0  0  0  0  0  0  0  0  0
  -23.4000  -28.8690   23.3990 O   0  0  0  0  0  0  0  0  0  0  0  0
  -20.9250  -29.8720   21.7400 H   0  0  0  0  0  0  0  0  0  0  0  0
  -18.0320  -28.0780   22.9150 C   0  0  0  0  0  0  0  0  0  0  0  0
  -20.5870  -28.3770   23.2020 C   0  0  0  0  0  3  0  0  0  0  0  0
  -20.7100  -26.9420   22.6390 C   0  0  0  0  0  2  0  0  0  0  0  0
  -19.6220  -26.6000   21.6150 C   0  0  0  0  0  2  0  0  0  0  0  0
  -18.2320  -26.7290   22.2440 C   0  0  0  0  0  2  0  0  0  0  0  0
  -19.1370  -28.8580   23.3500 C   0  0  0  0  0  0  0  0  0  0  0  0
  -18.8940  -30.1170   23.9410 C   0  0  0  0  0  3  0  0  0  0  0  0
  -17.5800  -30.5980   24.0980 C   0  0  0  0  0  3  0  0  0  0  0  0
  -16.4900  -29.8170   23.6770 C   0  0  0  0  0  3  0  0  0  0  0  0
  -16.7170  -28.5580   23.0910 C   0  0  0  0  0  3  0  0  0  0  0  0
  -25.8910  -32.5250   23.8800 C   0  0  0  0  0  3  0  0  0  0  0  0
  -26.3830  -31.7730   25.1770 C   0  0  1  0  0  0  0  0  0  0  0  0
  -25.2730  -31.5560   26.2320 C   0  0  0  0  0  1  0  0  0  0  0  0
  -26.9670  -30.3860   24.8230 C   0  0  0  0  0  1  0  0  0  0  0  0
  -27.5280  -32.5720   25.8440 C   0  0  0  0  0  1  0  0  0  0  0  0
  -25.5740  -33.9290   24.2000 N   0  0  0  0  0  0  0  0  0  0  0  0
  -25.9100  -34.9850   23.4460 C   0  0  0  0  0  0  0  0  0  0  0  0
  -26.5800  -34.8800   22.4150 O   0  0  0  0  0  0  0  0  0  0  0  0
  -24.9800  -34.0850   25.0010 H   0  0  0  0  0  0  0  0  0  0  0  0
  -24.1840  -36.7880   23.1070 C   0  0  0  0  0  1  0  0  0  0  0  0
  -25.4300  -36.3780   23.9070 C   0  0  0  0  0  3  0  0  0  0  0  0
  -27.5710  -37.2650   24.7220 C   0  0  0  0  0  1  0  0  0  0  0  0
  -26.4640  -37.4290   23.7840 N   0  0  0  0  0  0  0  0  0  0  0  0
  -26.0590  -38.3500   23.9300 H   0  0  0  0  0  0  0  0  0  0  0  0
  1 51  1  0
  1  2  1  0
  2  3  1  0
  3  5  1  0
  3  6  1  0
  4  2  2  0
  7  9  2  0
  8  7  1  0
  8  1  1  0
 10  8  1  0
 11 12  1  0
 12 21  2  0
 12  7  1  0
 13 21  1  0
 14 19  1  0
 15 16  1  0
 15 14  1  0
 17 16  1  0
 17 26  1  0
 17 18  1  0
 19 13  1  0
 19 18  1  0
 20 13  2  0
 21 22  1  0
 23 24  2  0
 24 43  1  0
 25 24  1  0
 25 28  1  0
 26 27  1  0
 26 23  1  0
 27 25  2  0
 28 29  1  0
 29 30  2  0
 31 34  1  0
 31 30  1  0
 32 31  2  0
 33 32  1  0
 33 28  2  0
 34 35  1  0
 35 36  1  0
 36 37  2  0
 38 37  1  0
 38 42  1  0
 39 38  2  0
 40 35  2  0
 40 39  1  0
 41 40  1  0
 43 44  1  0
 44 47  1  0
 44 46  1  0
 45 43  2  0
 48 49  1  0
 48 23  1  0
 50 48  1  0
 51 52  1  0
 53 64  2  0
 54 52  1  0
 54 59  1  0
 55 63  1  0
 55 65  1  0
 56 62  1  0
 56 58  1  0
 57 63  1  0
 58 59  2  0
 58 57  1  0
 60 54  2  0
 61 60  1  0
 61 56  2  0
 62 55  1  0
 63 53  1  0
 65 67  2  0
 66 65  1  0
 68 66  1  0
 69 78  2  0
 69 74  1  0
 70 66  1  0
 70 74  1  0
 71 70  1  0
 72 73  1  0
 72 71  1  0
 73 69  1  0
 74 75  2  0
 75 76  1  0
 77 76  2  0
 78 77  1  0
 79 53  1  0
 79 84  1  0
 79 80  1  0
 80 83  1  1
 80 81  1  0
 82 80  1  0
 84 87  1  0
 85 89  1  0
 85 84  1  0
 86 85  2  0
 89 88  1  0
 91 89  1  0
 91 92  1  0
 91 90  1  0
M  ISO  4  13 100  21 100  51 101  52 101
M  END
>  <TORSDO>  (30) 
F 20

>  <SCORE>  (30) 
-15.942

>  <name>  (30) 
29

>  <ligand_id>  (30) 
29

>  <original_smiles>  (30) 
[H]c1c([H])c([H])c2c(c1[H])C([H])([H])C([H])([H])C([H])([H])C2([H])N([H])C(=O)C1([H])N(C(=O)C([H])(N([H])C(=O)C([H])(N([H])C([H])([H])[H])C([H])([H])[H])C(C([H])([H])[H])(C([H])([H])[H])C([H])([H])[H])C([H])([H])c2c([H])c(OC([H])([H])C([H])(C(=O)N([H])[H])N([H])C(=O)C([H])(N([H])C(=O)N3C([H])([H])C([H])([H])C([H])([H])C([H])(n4nc(-c5c([H])c([H])c(Oc6c([H])c([H])c(F)c([H])c6F)c([H])c5[H])c(C(=O)N([H])[H])c4N([H])[H])C3([H])[H])C([H])([H])[H])c([H])c([H])c2C1([H])[H]

>  <smiles>  (30) 
[H]c1c([H])c([H])c2c(c1[H])C([H])([H])C([H])([H])C([H])([H])C2([H])N([H])C(=O)C1([H])N(C(=O)C([H])(N([H])C(=O)C([H])(N([H])C([H])([H])[H])C([H])([H])[H])C(C([H])([H])[H])(C([H])([H])[H])C([H])([H])[H])C([H])([H])c2c([H])c(OC([H])([H])C([H])(C(=O)N([H])[H])N([H])C(=O)C([H])(N([H])C(=O)N3C([H])([H])C([H])([H])C([H])([H])C([H])(n4nc(-c5c([H])c([H])c(Oc6c([H])c([H])c(F)c([H])c6F)c([H])c5[H])c(C(=O)N([H])[H])c4N([H])[H])C3([H])[H])C([H])([H])[H])c([H])c([H])c2C1([H])[H]

$$$$
30:0:0
     RDKit          3D

100107  0  0  1  0  0  0  0  0999 V2000
  -30.9750  -20.0140   24.0650 C   0  0  0  0  0  2  0  0  0  0  0  0
  -30.3650  -20.7680   23.0230 O   0  0  0  0  0  0  0  0  0  0  0  0
  -30.9950  -22.0280   22.8180 C   0  0  0  0  0  2  0  0  0  0  0  0
  -30.1690  -22.9040   21.8620 C   0  0  0  0  0  2  0  0  0  0  0  0
  -29.0220  -23.4070   22.5420 O   0  0  0  0  0  0  0  0  0  0  0  0
  -28.4790  -24.5990   21.9750 C   0  0  0  0  0  2  0  0  0  0  0  0
  -27.2830  -24.3350   21.0480 C   0  0  0  0  0  2  0  0  0  0  0  0
  -27.7360  -23.8580   19.7880 O   0  0  0  0  0  0  0  0  0  0  0  0
  -26.8060  -24.0770   18.7290 C   0  0  0  0  0  2  0  0  0  0  0  0
  -27.3000  -25.2250   17.8290 C   0  0  0  0  0  2  0  0  0  0  0  0
  -27.4410  -26.4510   18.5500 O   0  0  0  0  0  0  0  0  0  0  0  0
  -24.6000  -31.1720   23.0240 C   0  0  0  0  0  0  0  0  0  0  0  0
  -26.3320  -27.2240   18.8310 C   0  0  0  0  0  0  0  0  0  0  0  0
  -23.0630  -30.2790   21.3030 C   0  0  0  0  0  3  0  0  0  0  0  0
  -24.1530  -28.9260   19.4400 C   0  0  0  0  0  0  0  0  0  0  0  0
  -25.5770  -30.4080   20.8610 C   0  0  0  0  0  2  0  0  0  0  0  0
  -25.4210  -29.1950   19.9680 C   0  0  0  0  0  0  0  0  0  0  0  0
  -26.5110  -28.3500   19.6660 C   0  0  0  0  0  3  0  0  0  0  0  0
  -25.0400  -26.9610   18.3160 C   0  0  0  0  0  3  0  0  0  0  0  0
  -23.9560  -27.8070   18.6140 C   0  0  0  0  0  3  0  0  0  0  0  0
  -23.0420  -29.8870   19.8030 C   0  0  0  0  0  2  0  0  0  0  0  0
  -24.4410  -30.6200   21.7880 N   0  0  0  0  0  0  0  0  0  0  0  0
  -23.6230  -31.4350   23.7380 O   0  0  0  0  0  0  0  0  0  0  0  0
  -22.3910  -29.1510   22.1170 C   0  0  0  0  0  0  0  0  0  0  0  0
  -21.0480  -29.1300   22.1120 N   0  0  0  0  0  0  0  0  0  0  0  0
  -23.0690  -28.3080   22.7120 O   0  0  0  0  0  0  0  0  0  0  0  0
  -20.5670  -29.8630   21.6120 H   0  0  0  0  0  0  0  0  0  0  0  0
  -17.6180  -28.1820   22.7230 C   0  0  0  0  0  0  0  0  0  0  0  0
  -20.2010  -28.1410   22.7780 C   0  0  0  0  0  3  0  0  0  0  0  0
  -20.0960  -26.8420   21.9440 C   0  0  0  0  0  2  0  0  0  0  0  0
  -18.8870  -26.8250   21.0040 C   0  0  0  0  0  2  0  0  0  0  0  0
  -17.5870  -26.9760   21.7990 C   0  0  0  0  0  2  0  0  0  0  0  0
  -18.8450  -28.7380   23.1700 C   0  0  0  0  0  0  0  0  0  0  0  0
  -18.8170  -29.8820   23.9980 C   0  0  0  0  0  3  0  0  0  0  0  0
  -17.5940  -30.4650   24.3810 C   0  0  0  0  0  3  0  0  0  0  0  0
  -16.3810  -29.9000   23.9480 C   0  0  0  0  0  3  0  0  0  0  0  0
  -16.3950  -28.7600   23.1250 C   0  0  0  0  0  3  0  0  0  0  0  0
  -26.0130  -31.5240   23.5900 C   0  0  0  0  0  3  0  0  0  0  0  0
  -25.9330  -32.8670   24.1790 N   0  0  0  0  0  0  0  0  0  0  0  0
  -26.3820  -33.9830   23.5890 C   0  0  0  0  0  0  0  0  0  0  0  0
  -26.9790  -33.9730   22.5090 O   0  0  0  0  0  0  0  0  0  0  0  0
  -25.4170  -32.9510   25.0430 H   0  0  0  0  0  0  0  0  0  0  0  0
  -24.9600  -36.0540   23.6310 C   0  0  0  0  0  1  0  0  0  0  0  0
  -26.1290  -35.3220   24.3100 C   0  0  0  0  0  3  0  0  0  0  0  0
  -28.3790  -35.6950   25.2170 C   0  0  0  0  0  1  0  0  0  0  0  0
  -27.3180  -36.2020   24.3510 N   0  0  0  0  0  0  0  0  0  0  0  0
  -27.0670  -37.1330   24.6730 H   0  0  0  0  0  0  0  0  0  0  0  0
  -26.5320  -30.4800   24.6520 C   0  0  1  0  0  0  0  0  0  0  0  0
  -25.5400  -30.2130   25.8080 C   0  0  0  0  0  1  0  0  0  0  0  0
  -26.8400  -29.1270   23.9690 C   0  0  0  0  0  1  0  0  0  0  0  0
  -27.8590  -30.9790   25.2730 C   0  0  0  0  0  1  0  0  0  0  0  0
  -30.4030  -18.5940   24.0510 C   0  0  0  0  0  2  0  0  0  0  0  0
  -30.5450  -16.7700   22.3900 C   0  0  0  0  0  0  0  0  0  0  0  0
  -31.0900  -17.7940   23.0470 N   0  0  0  0  0  0  0  0  0  0  0  0
  -29.3920  -16.3820   22.5930 O   0  0  0  0  0  0  0  0  0  0  0  0
  -32.0360  -18.0680   22.8200 H   0  0  0  0  0  0  0  0  0  0  0  0
  -31.4210  -16.0770   21.3410 C   0  0  0  0  0  3  0  0  0  0  0  0
  -31.2070  -13.9700   19.9960 C   0  0  0  0  0  0  0  0  0  0  0  0
  -30.5920  -12.0100   18.6410 C   0  0  0  0  0  2  0  0  0  0  0  0
  -29.5690  -12.4120   17.5620 C   0  0  0  0  0  2  0  0  0  0  0  0
  -28.1330  -12.3430   18.1180 C   0  0  0  0  0  2  0  0  0  0  0  0
  -27.9810  -13.0780   19.4760 C   0  0  0  0  0  3  0  0  0  0  0  0
  -29.1030  -12.6590   20.4540 C   0  0  0  0  0  2  0  0  0  0  0  0
  -30.4030  -12.8950   19.7970 N   0  0  0  0  0  0  0  0  0  0  0  0
  -32.2220  -14.2020   19.3350 O   0  0  0  0  0  0  0  0  0  0  0  0
  -30.7940  -14.8170   20.9370 N   0  0  0  0  0  0  0  0  0  0  0  0
  -29.9850  -14.5490   21.4820 H   0  0  0  0  0  0  0  0  0  0  0  0
  -25.6820  -13.7870   20.4020 C   0  0  0  0  0  0  0  0  0  0  0  0
  -24.6020  -13.0580   20.8210 C   0  0  0  0  0  0  0  0  0  0  0  0
  -24.9790  -11.6860   20.6970 C   0  0  0  0  0  0  0  0  0  0  0  0
  -26.6540  -12.8610   20.0520 N   0  0  0  0  0  0  0  0  0  0  0  0
  -26.2360  -11.5890   20.2840 N   0  0  0  0  0  0  0  0  0  0  0  0
  -24.1970  -10.4580   20.8960 C   0  0  0  0  0  0  0  0  0  0  0  0
  -24.6150   -9.4540   21.7970 C   0  0  0  0  0  3  0  0  0  0  0  0
  -23.8360   -8.2920   21.9840 C   0  0  0  0  0  3  0  0  0  0  0  0
  -22.6260   -8.1260   21.2710 C   0  0  0  0  0  0  0  0  0  0  0  0
  -22.2270   -9.1180   20.3580 C   0  0  0  0  0  3  0  0  0  0  0  0
  -23.0050  -10.2710   20.1690 C   0  0  0  0  0  3  0  0  0  0  0  0
  -21.8190   -7.0180   21.3680 O   0  0  0  0  0  0  0  0  0  0  0  0
  -21.6830   -6.3270   22.5450 C   0  0  0  0  0  0  0  0  0  0  0  0
  -21.2150   -6.9470   23.7240 C   0  0  0  0  0  3  0  0  0  0  0  0
  -21.0250   -6.1840   24.8940 C   0  0  0  0  0  3  0  0  0  0  0  0
  -21.2930   -4.8020   24.8850 C   0  0  0  0  0  0  0  0  0  0  0  0
  -21.7550   -4.1810   23.7110 C   0  0  0  0  0  3  0  0  0  0  0  0
  -21.9470   -4.9420   22.5430 C   0  0  0  0  0  0  0  0  0  0  0  0
  -22.3710   -4.3350   21.4090 F   0  0  0  0  0  0  0  0  0  0  0  0
  -21.1030   -4.0670   26.0060 F   0  0  0  0  0  0  0  0  0  0  0  0
  -23.2620  -13.5980   21.2310 C   0  0  0  0  0  0  0  0  0  0  0  0
  -22.5930  -12.9340   22.1680 N   0  0  0  0  0  0  0  0  0  0  0  0
  -22.8230  -14.6460   20.7590 O   0  0  0  0  0  0  0  0  0  0  0  0
  -22.9630  -12.0860   22.5710 H   0  0  0  0  0  0  0  0  0  0  0  0
  -21.6990  -13.2800   22.4860 H   0  0  0  0  0  0  0  0  0  0  0  0
  -25.9090  -15.1540   20.2760 N   0  0  0  0  0  0  0  0  0  0  0  0
  -25.2030  -15.8380   20.5210 H   0  0  0  0  0  0  0  0  0  0  0  0
  -26.8060  -15.5860   20.0550 H   0  0  0  0  0  0  0  0  0  0  0  0
  -31.8130  -16.9750   20.1380 C   0  0  0  0  0  2  0  0  0  0  0  0
  -31.1300  -18.1820   17.6240 C   0  0  0  0  0  1  0  0  0  0  0  0
  -29.4260  -16.5890   18.9300 O   0  0  0  0  0  0  0  0  0  0  0  0
  -29.9020  -18.8900   19.8790 O   0  0  0  0  0  0  0  0  0  0  0  0
  -30.3830  -17.6740   19.2060 S   0  0  1  0  0  0  0  0  0  0  0  0
  2  1  1  0
  3  2  1  0
  4  5  1  0
  4  3  1  0
  6  5  1  0
  7  6  1  0
  8  7  1  0
  9  8  1  0
 10 11  1  0
 10  9  1  0
 11 13  1  0
 12 23  2  0
 13 18  1  0
 14 22  1  0
 14 24  1  0
 15 21  1  0
 15 17  1  0
 16 22  1  0
 17 16  1  0
 18 17  2  0
 19 20  1  0
 19 13  2  0
 20 15  2  0
 21 14  1  0
 22 12  1  0
 24 26  2  0
 25 24  1  0
 27 25  1  0
 28 37  2  0
 28 33  1  0
 29 25  1  0
 29 33  1  0
 30 29  1  0
 31 32  1  0
 31 30  1  0
 32 28  1  0
 33 34  2  0
 34 35  1  0
 36 35  2  0
 37 36  1  0
 38 12  1  0
 38 39  1  0
 38 48  1  0
 39 42  1  0
 40 39  1  0
 40 44  1  0
 41 40  2  0
 44 43  1  0
 44 46  1  0
 46 47  1  0
 46 45  1  0
 48 51  1  1
 48 49  1  0
 50 48  1  0
 52  1  1  0
 53 55  2  0
 53 54  1  0
 54 52  1  0
 56 54  1  0
 57 96  1  0
 57 53  1  0
 58 66  1  0
 59 64  1  0
 60 61  1  0
 60 59  1  0
 62 61  1  0
 62 71  1  0
 62 63  1  0
 64 58  1  0
 64 63  1  0
 65 58  2  0
 66 57  1  0
 66 67  1  0
 68 69  2  0
 69 88  1  0
 70 69  1  0
 70 73  1  0
 71 72  1  0
 71 68  1  0
 72 70  2  0
 73 74  1  0
 74 75  2  0
 76 79  1  0
 76 75  1  0
 77 76  2  0
 78 77  1  0
 78 73  2  0
 79 80  1  0
 80 81  1  0
 81 82  2  0
 83 82  1  0
 83 87  1  0
 84 83  2  0
 85 80  2  0
 85 84  1  0
 86 85  1  0
 88 89  1  0
 89 92  1  0
 89 91  1  0
 90 88  2  0
 93 68  1  0
 93 94  1  0
 95 93  1  0
100 97  1  6
 98100  2  0
100 99  2  0
100 96  1  0
M  ISO  4  10 101  11 101  58 100  66 100
M  END
>  <TORSDO>  (31) 
F 30

>  <SCORE>  (31) 
-8.164

>  <name>  (31) 
30

>  <ligand_id>  (31) 
30

>  <original_smiles>  (31) 
[H]c1c([H])c([H])c2c(c1[H])C([H])([H])C([H])([H])C([H])([H])C2([H])N([H])C(=O)C1([H])N(C(=O)C([H])(N([H])C(=O)C([H])(N([H])C([H])([H])[H])C([H])([H])[H])C(C([H])([H])[H])(C([H])([H])[H])C([H])([H])[H])C([H])([H])c2c([H])c(OC([H])([H])C([H])([H])OC([H])([H])C([H])([H])OC([H])([H])C([H])([H])OC([H])([H])C([H])([H])N([H])C(=O)C([H])(N([H])C(=O)N3C([H])([H])C([H])([H])C([H])([H])C([H])(n4nc(-c5c([H])c([H])c(Oc6c([H])c([H])c(F)c([H])c6F)c([H])c5[H])c(C(=O)N([H])[H])c4N([H])[H])C3([H])[H])C([H])([H])S(=O)(=O)C([H])([H])[H])c([H])c([H])c2C1([H])[H]

>  <smiles>  (31) 
[H]c1c([H])c([H])c2c(c1[H])C([H])([H])C([H])([H])C([H])([H])C2([H])N([H])C(=O)C1([H])N(C(=O)C([H])(N([H])C(=O)C([H])(N([H])C([H])([H])[H])C([H])([H])[H])C(C([H])([H])[H])(C([H])([H])[H])C([H])([H])[H])C([H])([H])c2c([H])c(OC([H])([H])C([H])([H])OC([H])([H])C([H])([H])OC([H])([H])C([H])([H])OC([H])([H])C([H])([H])N([H])C(=O)C([H])(N([H])C(=O)N3C([H])([H])C([H])([H])C([H])([H])C([H])(n4nc(-c5c([H])c([H])c(Oc6c([H])c([H])c(F)c([H])c6F)c([H])c5[H])c(C(=O)N([H])[H])c4N([H])[H])C3([H])[H])C([H])([H])S(=O)(=O)C([H])([H])[H])c([H])c([H])c2C1([H])[H]

$$$$
31:0:0
     RDKit          3D

 95102  0  0  1  0  0  0  0  0999 V2000
  -29.9360  -21.9490   20.7810 C   0  0  0  0  0  3  0  0  0  0  0  0
  -29.3830  -20.5740   20.9440 N   0  0  0  0  0  4  0  0  0  0  0  0
  -29.3270  -20.3730   21.9310 H   0  0  0  0  0  0  0  0  0  0  0  0
  -28.4550  -20.5230   20.5630 H   0  0  0  0  0  0  0  0  0  0  0  0
  -30.1940  -19.5010   20.3110 C   0  0  0  0  0  2  0  0  0  0  0  0
  -29.6020  -18.1010   20.5920 C   0  0  0  0  0  0  0  0  0  0  0  0
  -28.6320  -17.9650   21.3440 O   0  0  0  0  0  0  0  0  0  0  0  0
  -29.9410  -16.8880   18.3580 C   0  0  0  0  0  1  0  0  0  0  0  0
  -30.2700  -16.9040   19.8670 C   0  0  0  0  0  3  0  0  0  0  0  0
  -30.6980  -14.4710   20.2140 C   0  0  0  0  0  0  0  0  0  0  0  0
  -30.3380  -12.3160   19.1030 C   0  0  0  0  0  2  0  0  0  0  0  0
  -29.3790  -12.5570   17.9170 C   0  0  0  0  0  2  0  0  0  0  0  0
  -27.9130  -12.4350   18.3760 C   0  0  0  0  0  2  0  0  0  0  0  0
  -27.6130  -13.2600   19.6580 C   0  0  0  0  0  3  0  0  0  0  0  0
  -28.6930  -13.0340   20.7420 C   0  0  0  0  0  2  0  0  0  0  0  0
  -30.0060  -13.3040   20.1400 N   0  0  0  0  0  0  0  0  0  0  0  0
  -31.8550  -14.5860   19.8050 O   0  0  0  0  0  0  0  0  0  0  0  0
  -29.9560  -15.5740   20.4470 N   0  0  0  0  0  0  0  0  0  0  0  0
  -29.0250  -15.4440   20.8140 H   0  0  0  0  0  0  0  0  0  0  0  0
  -25.2360  -13.8780   20.4210 C   0  0  0  0  0  0  0  0  0  0  0  0
  -24.1700  -13.1110   20.8070 C   0  0  0  0  0  0  0  0  0  0  0  0
  -24.6210  -11.7570   20.7590 C   0  0  0  0  0  0  0  0  0  0  0  0
  -26.2690  -12.9910   20.1640 N   0  0  0  0  0  0  0  0  0  0  0  0
  -25.9050  -11.7090   20.4270 N   0  0  0  0  0  0  0  0  0  0  0  0
  -23.8880  -10.4990   20.9560 C   0  0  0  0  0  0  0  0  0  0  0  0
  -24.3140   -9.5360   21.8970 C   0  0  0  0  0  3  0  0  0  0  0  0
  -23.5840   -8.3430   22.0810 C   0  0  0  0  0  3  0  0  0  0  0  0
  -22.4130   -8.1030   21.3230 C   0  0  0  0  0  0  0  0  0  0  0  0
  -22.0070   -9.0540   20.3710 C   0  0  0  0  0  3  0  0  0  0  0  0
  -22.7380  -10.2390   20.1860 C   0  0  0  0  0  3  0  0  0  0  0  0
  -21.6540   -6.9620   21.4160 O   0  0  0  0  0  0  0  0  0  0  0  0
  -21.5760   -6.2410   22.5810 C   0  0  0  0  0  0  0  0  0  0  0  0
  -21.1150   -6.8180   23.7840 C   0  0  0  0  0  3  0  0  0  0  0  0
  -20.9850   -6.0240   24.9410 C   0  0  0  0  0  3  0  0  0  0  0  0
  -21.3080   -4.6550   24.8960 C   0  0  0  0  0  0  0  0  0  0  0  0
  -21.7620   -4.0770   23.6970 C   0  0  0  0  0  3  0  0  0  0  0  0
  -21.8930   -4.8680   22.5420 C   0  0  0  0  0  0  0  0  0  0  0  0
  -22.3110   -4.3030   21.3840 F   0  0  0  0  0  0  0  0  0  0  0  0
  -21.1750   -3.8890   26.0040 F   0  0  0  0  0  0  0  0  0  0  0  0
  -22.7820  -13.5980   21.1110 C   0  0  0  0  0  0  0  0  0  0  0  0
  -22.0660  -12.8980   21.9830 N   0  0  0  0  0  0  0  0  0  0  0  0
  -22.3430  -14.6320   20.6100 O   0  0  0  0  0  0  0  0  0  0  0  0
  -22.4350  -12.0610   22.4100 H   0  0  0  0  0  0  0  0  0  0  0  0
  -21.1350  -13.2050   22.2300 H   0  0  0  0  0  0  0  0  0  0  0  0
  -25.4070  -15.2490   20.2470 N   0  0  0  0  0  0  0  0  0  0  0  0
  -24.6450  -15.9060   20.3770 H   0  0  0  0  0  0  0  0  0  0  0  0
  -26.2490  -15.6860   19.8960 H   0  0  0  0  0  0  0  0  0  0  0  0
  -31.0160  -22.1300   21.8620 C   0  0  0  0  0  0  0  0  0  0  0  0
  -30.6230  -22.3760   23.0220 O   0  0  0  0  0  1  0  0  0  0  0  0
  -32.2140  -22.0120   21.5450 O   0  0  0  0  0  0  0  0  0  0  0  0
  -28.9040  -22.9720   21.0070 N   0  0  0  0  0  0  0  0  0  0  0  0
  -29.0130  -23.1040   22.0180 H   0  0  0  0  0  0  0  0  0  0  0  0
  -29.2200  -24.2790   20.4020 C   0  0  0  0  0  2  0  0  0  0  0  0
  -28.1810  -25.3450   20.8320 C   0  0  0  0  0  2  0  0  0  0  0  0
  -28.3690  -26.6390   20.2190 O   0  0  0  0  0  0  0  0  0  0  0  0
  -24.5590  -31.8660   23.2250 C   0  0  0  0  0  0  0  0  0  0  0  0
  -27.2280  -27.4130   20.1800 C   0  0  0  0  0  0  0  0  0  0  0  0
  -23.3690  -30.4620   21.5730 C   0  0  0  0  0  3  0  0  0  0  0  0
  -24.8380  -28.9290   20.1590 C   0  0  0  0  0  0  0  0  0  0  0  0
  -25.8980  -30.8220   21.3980 C   0  0  0  0  0  2  0  0  0  0  0  0
  -25.9910  -29.4510   20.7580 C   0  0  0  0  0  0  0  0  0  0  0  0
  -27.1930  -28.7020   20.7630 C   0  0  0  0  0  3  0  0  0  0  0  0
  -26.0620  -26.9190   19.5550 C   0  0  0  0  0  3  0  0  0  0  0  0
  -24.8690  -27.6630   19.5510 C   0  0  0  0  0  3  0  0  0  0  0  0
  -23.5930  -29.7850   20.1950 C   0  0  0  0  0  2  0  0  0  0  0  0
  -24.6270  -31.0650   22.1240 N   0  0  0  0  0  0  0  0  0  0  0  0
  -23.4720  -32.1370   23.7550 O   0  0  0  0  0  0  0  0  0  0  0  0
  -22.7110  -29.4400   22.5270 C   0  0  0  0  0  0  0  0  0  0  0  0
  -21.3860  -29.2600   22.3910 N   0  0  0  0  0  0  0  0  0  0  0  0
  -23.3870  -28.8120   23.3450 O   0  0  0  0  0  0  0  0  0  0  0  0
  -20.9020  -29.8190   21.7030 H   0  0  0  0  0  0  0  0  0  0  0  0
  -18.0050  -28.0800   22.8730 C   0  0  0  0  0  0  0  0  0  0  0  0
  -20.5630  -28.3230   23.1550 C   0  0  0  0  0  3  0  0  0  0  0  0
  -20.6600  -26.8940   22.5720 C   0  0  0  0  0  2  0  0  0  0  0  0
  -19.5590  -26.5820   21.5530 C   0  0  0  0  0  2  0  0  0  0  0  0
  -18.1770  -26.7330   22.1930 C   0  0  0  0  0  2  0  0  0  0  0  0
  -19.1260  -28.8340   23.3110 C   0  0  0  0  0  0  0  0  0  0  0  0
  -18.9130  -30.0960   23.9060 C   0  0  0  0  0  3  0  0  0  0  0  0
  -17.6110  -30.6050   24.0700 C   0  0  0  0  0  3  0  0  0  0  0  0
  -16.5030  -29.8480   23.6490 C   0  0  0  0  0  3  0  0  0  0  0  0
  -16.7010  -28.5870   23.0570 C   0  0  0  0  0  3  0  0  0  0  0  0
  -25.8390  -32.4990   23.8560 C   0  0  0  0  0  3  0  0  0  0  0  0
  -25.5260  -33.8960   24.1810 N   0  0  0  0  0  0  0  0  0  0  0  0
  -25.8670  -34.9470   23.4240 C   0  0  0  0  0  0  0  0  0  0  0  0
  -26.5480  -34.8430   22.4000 O   0  0  0  0  0  0  0  0  0  0  0  0
  -24.9220  -34.0520   24.9750 H   0  0  0  0  0  0  0  0  0  0  0  0
  -24.1470  -36.7420   23.0390 C   0  0  0  0  0  1  0  0  0  0  0  0
  -25.3730  -36.3360   23.8730 C   0  0  0  0  0  3  0  0  0  0  0  0
  -27.4920  -37.2180   24.7430 C   0  0  0  0  0  1  0  0  0  0  0  0
  -26.4080  -37.3870   23.7800 N   0  0  0  0  0  0  0  0  0  0  0  0
  -26.0000  -38.3080   23.9210 H   0  0  0  0  0  0  0  0  0  0  0  0
  -26.3480  -31.7280   25.1350 C   0  0  1  0  0  0  0  0  0  0  0  0
  -25.2470  -31.4870   26.1940 C   0  0  0  0  0  1  0  0  0  0  0  0
  -26.9370  -30.3520   24.7450 C   0  0  0  0  0  1  0  0  0  0  0  0
  -27.4910  -32.5240   25.8060 C   0  0  0  0  0  1  0  0  0  0  0  0
  1  2  1  0
  1 51  1  0
  1 48  1  0
  2  3  1  0
  4  2  1  0
  5  6  1  0
  5  2  1  0
  6  7  2  0
  9  8  1  0
  9 18  1  0
  9  6  1  0
 10 18  1  0
 11 16  1  0
 12 13  1  0
 12 11  1  0
 14 13  1  0
 14 23  1  0
 14 15  1  0
 16 10  1  0
 16 15  1  0
 17 10  2  0
 18 19  1  0
 20 21  2  0
 21 40  1  0
 22 21  1  0
 22 25  1  0
 23 20  1  0
 23 24  1  0
 24 22  2  0
 25 26  1  0
 26 27  2  0
 28 31  1  0
 28 27  1  0
 29 28  2  0
 30 29  1  0
 30 25  2  0
 31 32  1  0
 32 33  1  0
 33 34  2  0
 35 34  1  0
 35 39  1  0
 36 35  2  0
 37 32  2  0
 37 36  1  0
 38 37  1  0
 40 41  1  0
 41 44  1  0
 41 43  1  0
 42 40  2  0
 45 46  1  0
 45 20  1  0
 47 45  1  0
 48 49  1  0
 50 48  2  0
 51 52  1  0
 53 54  1  0
 53 51  1  0
 55 54  1  0
 56 67  2  0
 57 55  1  0
 57 62  1  0
 58 66  1  0
 58 68  1  0
 59 65  1  0
 59 61  1  0
 60 66  1  0
 61 62  2  0
 61 60  1  0
 63 57  2  0
 64 63  1  0
 64 59  2  0
 65 58  1  0
 66 56  1  0
 68 70  2  0
 69 68  1  0
 71 69  1  0
 72 81  2  0
 72 77  1  0
 73 69  1  0
 73 77  1  0
 74 73  1  0
 75 76  1  0
 75 74  1  0
 76 72  1  0
 77 78  2  0
 78 79  1  0
 80 79  2  0
 81 80  1  0
 82 56  1  0
 82 83  1  0
 82 92  1  0
 83 86  1  0
 84 88  1  0
 84 83  1  0
 85 84  2  0
 88 87  1  0
 90 88  1  0
 90 91  1  0
 90 89  1  0
 92 95  1  1
 92 93  1  0
 94 92  1  0
M  ISO  4  10 100  18 100  54 101  55 101
M  END
>  <TORSDO>  (32) 
F 24

>  <SCORE>  (32) 
-12.091

>  <name>  (32) 
31

>  <ligand_id>  (32) 
31

>  <original_smiles>  (32) 
[H]c1c([H])c([H])c2c(c1[H])C([H])([H])C([H])([H])C([H])([H])C2([H])N([H])C(=O)C1([H])N(C(=O)C([H])(N([H])C(=O)C([H])(N([H])C([H])([H])[H])C([H])([H])[H])C(C([H])([H])[H])(C([H])([H])[H])C([H])([H])[H])C([H])([H])c2c([H])c(OC([H])([H])C([H])([H])N([H])C([H])(C(=O)[O-])[N+]([H])([H])C([H])([H])C(=O)C([H])(N([H])C(=O)N3C([H])([H])C([H])([H])C([H])([H])C([H])(n4nc(-c5c([H])c([H])c(Oc6c([H])c([H])c(F)c([H])c6F)c([H])c5[H])c(C(=O)N([H])[H])c4N([H])[H])C3([H])[H])C([H])([H])[H])c([H])c([H])c2C1([H])[H]

>  <smiles>  (32) 
[H]c1c([H])c([H])c2c(c1[H])C([H])([H])C([H])([H])C([H])([H])C2([H])N([H])C(=O)C1([H])N(C(=O)C([H])(N([H])C(=O)C([H])(N([H])C([H])([H])[H])C([H])([H])[H])C(C([H])([H])[H])(C([H])([H])[H])C([H])([H])[H])C([H])([H])c2c([H])c(OC([H])([H])C([H])([H])N([H])C([H])(C(=O)[O-])[N+]([H])([H])C([H])([H])C(=O)C([H])(N([H])C(=O)N3C([H])([H])C([H])([H])C([H])([H])C([H])(n4nc(-c5c([H])c([H])c(Oc6c([H])c([H])c(F)c([H])c6F)c([H])c5[H])c(C(=O)N([H])[H])c4N([H])[H])C3([H])[H])C([H])([H])[H])c([H])c([H])c2C1([H])[H]

$$$$
32:0:0
     RDKit          3D

 93100  0  0  1  0  0  0  0  0999 V2000
  -29.1750  -19.0920   20.2510 C   0  0  0  0  0  0  0  0  0  0  0  0
  -29.4370  -20.4930   20.3600 N   0  0  0  0  0  0  0  0  0  0  0  0
  -28.0020  -18.7390   20.1370 O   0  0  0  0  0  0  0  0  0  0  0  0
  -30.4160  -20.7200   20.4770 H   0  0  0  0  0  0  0  0  0  0  0  0
  -28.5000  -21.7690   20.2420 C   0  0  0  0  0  2  0  0  0  0  0  0
  -28.9630  -23.3900   20.4250 C   0  0  0  0  0  3  0  0  0  0  0  0
  -27.9420  -24.7220   20.2010 C   0  0  0  0  0  3  0  0  0  0  0  0
  -28.2320  -26.2430   20.3870 O   0  0  0  0  0  0  0  0  0  0  0  0
  -24.6350  -31.9850   23.3130 C   0  0  0  0  0  0  0  0  0  0  0  0
  -27.1830  -27.2340   20.3140 C   0  0  0  0  0  0  0  0  0  0  0  0
  -23.4300  -30.5930   21.6750 C   0  0  0  0  0  3  0  0  0  0  0  0
  -24.8690  -28.9980   20.2670 C   0  0  0  0  0  0  0  0  0  0  0  0
  -25.9870  -30.8350   21.5180 C   0  0  0  0  0  2  0  0  0  0  0  0
  -26.0500  -29.4370   20.8780 C   0  0  0  0  0  0  0  0  0  0  0  0
  -27.2080  -28.5710   20.8850 C   0  0  0  0  0  3  0  0  0  0  0  0
  -25.9740  -26.8970   19.6630 C   0  0  0  0  0  3  0  0  0  0  0  0
  -24.8430  -27.7410   19.6460 C   0  0  0  0  0  3  0  0  0  0  0  0
  -23.6520  -29.9100   20.2990 C   0  0  0  0  0  2  0  0  0  0  0  0
  -24.7040  -31.1580   22.2240 N   0  0  0  0  0  0  0  0  0  0  0  0
  -23.5490  -32.2810   23.8340 O   0  0  0  0  0  0  0  0  0  0  0  0
  -22.7380  -29.5960   22.6380 C   0  0  0  0  0  0  0  0  0  0  0  0
  -21.4110  -29.4240   22.4930 N   0  0  0  0  0  0  0  0  0  0  0  0
  -23.3970  -28.9800   23.4790 O   0  0  0  0  0  0  0  0  0  0  0  0
  -20.9350  -29.9750   21.7930 H   0  0  0  0  0  0  0  0  0  0  0  0
  -18.0220  -28.2320   22.9620 C   0  0  0  0  0  0  0  0  0  0  0  0
  -20.5770  -28.4960   23.2640 C   0  0  0  0  0  3  0  0  0  0  0  0
  -20.6860  -27.0570   22.7080 C   0  0  0  0  0  2  0  0  0  0  0  0
  -19.5990  -26.7220   21.6830 C   0  0  0  0  0  2  0  0  0  0  0  0
  -18.2080  -26.8750   22.3050 C   0  0  0  0  0  2  0  0  0  0  0  0
  -19.1340  -28.9990   23.3990 C   0  0  0  0  0  0  0  0  0  0  0  0
  -18.9080  -30.2670   23.9770 C   0  0  0  0  0  3  0  0  0  0  0  0
  -17.6010  -30.7690   24.1220 C   0  0  0  0  0  3  0  0  0  0  0  0
  -16.5020  -30.0000   23.6990 C   0  0  0  0  0  3  0  0  0  0  0  0
  -16.7140  -28.7330   23.1260 C   0  0  0  0  0  3  0  0  0  0  0  0
  -25.9160  -32.6130   23.9430 C   0  0  0  0  0  3  0  0  0  0  0  0
  -25.6130  -34.0160   24.2700 N   0  0  0  0  0  0  0  0  0  0  0  0
  -25.9220  -35.0640   23.4940 C   0  0  0  0  0  0  0  0  0  0  0  0
  -26.5590  -34.9520   22.4430 O   0  0  0  0  0  0  0  0  0  0  0  0
  -25.0440  -34.1770   25.0860 H   0  0  0  0  0  0  0  0  0  0  0  0
  -24.1760  -36.8540   23.2010 C   0  0  0  0  0  1  0  0  0  0  0  0
  -25.4540  -36.4600   23.9580 C   0  0  0  0  0  3  0  0  0  0  0  0
  -27.6160  -37.3690   24.6860 C   0  0  0  0  0  1  0  0  0  0  0  0
  -26.4790  -37.5130   23.7820 N   0  0  0  0  0  0  0  0  0  0  0  0
  -26.0740  -38.4350   23.9250 H   0  0  0  0  0  0  0  0  0  0  0  0
  -26.4120  -31.8440   25.2290 C   0  0  1  0  0  0  0  0  0  0  0  0
  -25.3050  -31.6170   26.2860 C   0  0  0  0  0  1  0  0  0  0  0  0
  -26.9930  -30.4620   24.8530 C   0  0  0  0  0  1  0  0  0  0  0  0
  -27.5560  -32.6350   25.9030 C   0  0  0  0  0  1  0  0  0  0  0  0
  -30.2880  -17.8490   20.2450 C   0  0  0  0  0  3  0  0  0  0  0  0
  -30.5530  -15.0640   20.2930 C   0  0  0  0  0  0  0  0  0  0  0  0
  -30.3780  -12.7180   19.3580 C   0  0  0  0  0  2  0  0  0  0  0  0
  -29.4320  -12.6590   18.1380 C   0  0  0  0  0  2  0  0  0  0  0  0
  -27.9820  -12.4250   18.5980 C   0  0  0  0  0  2  0  0  0  0  0  0
  -27.5770  -13.3620   19.7690 C   0  0  0  0  0  3  0  0  0  0  0  0
  -28.6520  -13.4210   20.8780 C   0  0  0  0  0  2  0  0  0  0  0  0
  -29.9080  -13.8270   20.2370 N   0  0  0  0  0  0  0  0  0  0  0  0
  -31.7660  -15.0590   20.0720 O   0  0  0  0  0  0  0  0  0  0  0  0
  -29.8530  -16.3080   20.3330 N   0  0  0  0  0  0  0  0  0  0  0  0
  -28.8560  -16.2060   20.4380 H   0  0  0  0  0  0  0  0  0  0  0  0
  -25.2100  -13.9090   20.5670 C   0  0  0  0  0  0  0  0  0  0  0  0
  -24.1560  -13.1220   20.9410 C   0  0  0  0  0  0  0  0  0  0  0  0
  -24.6290  -11.7740   20.8850 C   0  0  0  0  0  0  0  0  0  0  0  0
  -26.2540  -13.0420   20.2960 N   0  0  0  0  0  0  0  0  0  0  0  0
  -25.9160  -11.7530   20.5560 N   0  0  0  0  0  0  0  0  0  0  0  0
  -23.9130  -10.5050   21.0660 C   0  0  0  0  0  0  0  0  0  0  0  0
  -24.3490   -9.5360   21.9950 C   0  0  0  0  0  3  0  0  0  0  0  0
  -23.6300   -8.3330   22.1660 C   0  0  0  0  0  3  0  0  0  0  0  0
  -22.4610   -8.0920   21.4070 C   0  0  0  0  0  0  0  0  0  0  0  0
  -22.0440   -9.0510   20.4670 C   0  0  0  0  0  3  0  0  0  0  0  0
  -22.7640  -10.2440   20.2940 C   0  0  0  0  0  3  0  0  0  0  0  0
  -21.7110   -6.9450   21.4890 O   0  0  0  0  0  0  0  0  0  0  0  0
  -21.6430   -6.2070   22.6450 C   0  0  0  0  0  0  0  0  0  0  0  0
  -21.1270   -6.7480   23.8420 C   0  0  0  0  0  3  0  0  0  0  0  0
  -21.0110   -5.9370   24.9890 C   0  0  0  0  0  3  0  0  0  0  0  0
  -21.4010   -4.5850   24.9370 C   0  0  0  0  0  0  0  0  0  0  0  0
  -21.9080   -4.0440   23.7430 C   0  0  0  0  0  3  0  0  0  0  0  0
  -22.0260   -4.8530   22.5990 C   0  0  0  0  0  0  0  0  0  0  0  0
  -22.4970   -4.3190   21.4460 F   0  0  0  0  0  0  0  0  0  0  0  0
  -21.2820   -3.8030   26.0350 F   0  0  0  0  0  0  0  0  0  0  0  0
  -22.7600  -13.5880   21.2340 C   0  0  0  0  0  0  0  0  0  0  0  0
  -22.0470  -12.8820   22.1030 N   0  0  0  0  0  0  0  0  0  0  0  0
  -22.3110  -14.6140   20.7250 O   0  0  0  0  0  0  0  0  0  0  0  0
  -22.4230  -12.0530   22.5380 H   0  0  0  0  0  0  0  0  0  0  0  0
  -21.1100  -13.1780   22.3410 H   0  0  0  0  0  0  0  0  0  0  0  0
  -25.3580  -15.2830   20.4050 N   0  0  0  0  0  0  0  0  0  0  0  0
  -24.5830  -15.9240   20.5460 H   0  0  0  0  0  0  0  0  0  0  0  0
  -26.1840  -15.7460   20.0470 H   0  0  0  0  0  0  0  0  0  0  0  0
  -31.4280  -19.3820   18.3430 C   0  0  0  0  0  1  0  0  0  0  0  0
  -31.3090  -18.0080   19.0440 C   0  0  0  0  0  3  0  0  0  0  0  0
  -32.6720  -17.6160   19.4580 N   0  0  0  0  0  4  0  0  0  0  0  0
  -33.0400  -18.2170   20.1740 H   0  0  0  0  0  0  0  0  0  0  0  0
  -33.3040  -17.6150   18.6770 H   0  0  0  0  0  0  0  0  0  0  0  0
  -32.6260  -16.6650   19.8290 H   0  0  0  0  0  0  0  0  0  0  0  0
  1  2  1  0
  2  4  1  0
  3  1  2  0
  5  2  1  0
  5  6  1  0
  7  8  1  0
  7  6  2  0
  9 20  2  0
 10  8  1  0
 10 15  1  0
 11 19  1  0
 11 21  1  0
 12 18  1  0
 12 14  1  0
 13 19  1  0
 14 15  2  0
 14 13  1  0
 16 10  2  0
 17 16  1  0
 17 12  2  0
 18 11  1  0
 19  9  1  0
 21 23  2  0
 22 21  1  0
 24 22  1  0
 25 34  2  0
 25 30  1  0
 26 22  1  0
 26 30  1  0
 27 26  1  0
 28 29  1  0
 28 27  1  0
 29 25  1  0
 30 31  2  0
 31 32  1  0
 33 32  2  0
 34 33  1  0
 35  9  1  0
 35 36  1  0
 35 45  1  0
 36 39  1  0
 37 41  1  0
 37 36  1  0
 38 37  2  0
 41 40  1  0
 43 44  1  0
 43 41  1  0
 43 42  1  0
 45 48  1  1
 45 46  1  0
 47 45  1  0
 49  1  1  0
 49 58  1  0
 50 58  1  0
 51 56  1  0
 52 53  1  0
 52 51  1  0
 54 53  1  0
 54 63  1  0
 54 55  1  0
 56 50  1  0
 56 55  1  0
 57 50  2  0
 58 59  1  0
 60 61  2  0
 61 80  1  0
 62 61  1  0
 62 65  1  0
 63 64  1  0
 63 60  1  0
 64 62  2  0
 65 66  1  0
 66 67  2  0
 68 71  1  0
 68 67  1  0
 69 68  2  0
 70 69  1  0
 70 65  2  0
 71 72  1  0
 72 73  1  0
 73 74  2  0
 75 74  1  0
 75 79  1  0
 76 75  2  0
 77 72  2  0
 77 76  1  0
 78 77  1  0
 80 81  1  0
 81 84  1  0
 81 83  1  0
 82 80  2  0
 85 86  1  0
 85 60  1  0
 87 85  1  0
 89 88  1  0
 89 90  1  0
 89 49  1  0
 90 93  1  0
 90 91  1  0
 92 90  1  0
M  ISO  4   7 101   8 101  50 100  58 100
M  END
>  <TORSDO>  (33) 
F 22

>  <SCORE>  (33) 
-14.041

>  <name>  (33) 
32

>  <ligand_id>  (33) 
32

>  <original_smiles>  (33) 
[H]c1c([H])c([H])c2c(c1[H])C([H])([H])C([H])([H])C([H])([H])C2([H])N([H])C(=O)C1([H])N(C(=O)C([H])(N([H])C(=O)C([H])(N([H])C([H])([H])[H])C([H])([H])[H])C(C([H])([H])[H])(C([H])([H])[H])C([H])([H])[H])C([H])([H])c2c([H])c(OC([H])([H])C([H])([H])C([H])([H])N([H])C(=O)C([H])(N([H])C(=O)N3C([H])([H])C([H])([H])C([H])([H])C([H])(n4nc(-c5c([H])c([H])c(Oc6c([H])c([H])c(F)c([H])c6F)c([H])c5[H])c(C(=O)N([H])[H])c4N([H])[H])C3([H])[H])C([H])(C([H])([H])[H])[N+]([H])([H])[H])c([H])c([H])c2C1([H])[H]

>  <smiles>  (33) 
[H]c1c([H])c([H])c2c(c1[H])C([H])([H])C([H])([H])C([H])([H])C2([H])N([H])C(=O)C1([H])N(C(=O)C([H])(N([H])C(=O)C([H])(N([H])C([H])([H])[H])C([H])([H])[H])C(C([H])([H])[H])(C([H])([H])[H])C([H])([H])[H])C([H])([H])c2c([H])c(OC([H])([H])C([H])([H])C([H])([H])N([H])C(=O)C([H])(N([H])C(=O)N3C([H])([H])C([H])([H])C([H])([H])C([H])(n4nc(-c5c([H])c([H])c(Oc6c([H])c([H])c(F)c([H])c6F)c([H])c5[H])c(C(=O)N([H])[H])c4N([H])[H])C3([H])[H])C([H])(C([H])([H])[H])[N+]([H])([H])[H])c([H])c([H])c2C1([H])[H]

$$$$
33:0:0
     RDKit          3D

 91 98  0  0  1  0  0  0  0  0999 V2000
  -28.6640  -20.4690   21.1310 C   0  0  0  0  0  2  0  0  0  0  0  0
  -29.2650  -18.0420   20.7650 C   0  0  0  0  0  0  0  0  0  0  0  0
  -29.5730  -19.3090   21.1110 N   0  0  0  0  0  0  0  0  0  0  0  0
  -28.1010  -17.6690   20.5910 O   0  0  0  0  0  0  0  0  0  0  0  0
  -30.5530  -19.5080   21.2540 H   0  0  0  0  0  0  0  0  0  0  0  0
  -30.4350  -17.0550   20.5150 C   0  0  0  0  0  3  0  0  0  0  0  0
  -30.6840  -14.5240   20.3940 C   0  0  0  0  0  0  0  0  0  0  0  0
  -30.3690  -12.3320   19.3220 C   0  0  0  0  0  2  0  0  0  0  0  0
  -29.4470  -12.5150   18.1020 C   0  0  0  0  0  2  0  0  0  0  0  0
  -27.9680  -12.3940   18.5190 C   0  0  0  0  0  2  0  0  0  0  0  0
  -27.6180  -13.2550   19.7630 C   0  0  0  0  0  3  0  0  0  0  0  0
  -28.6680  -13.0910   20.8850 C   0  0  0  0  0  2  0  0  0  0  0  0
  -29.9880  -13.3610   20.3020 N   0  0  0  0  0  0  0  0  0  0  0  0
  -31.8800  -14.5920   20.1050 O   0  0  0  0  0  0  0  0  0  0  0  0
  -29.9570  -15.6490   20.5700 N   0  0  0  0  0  0  0  0  0  0  0  0
  -28.9610  -15.5500   20.7030 H   0  0  0  0  0  0  0  0  0  0  0  0
  -25.2230  -13.8660   20.4620 C   0  0  0  0  0  0  0  0  0  0  0  0
  -24.1510  -13.0970   20.8270 C   0  0  0  0  0  0  0  0  0  0  0  0
  -24.6100  -11.7440   20.8100 C   0  0  0  0  0  0  0  0  0  0  0  0
  -26.2660  -12.9810   20.2420 N   0  0  0  0  0  0  0  0  0  0  0  0
  -25.9010  -11.7000   20.5090 N   0  0  0  0  0  0  0  0  0  0  0  0
  -23.8800  -10.4840   21.0020 C   0  0  0  0  0  0  0  0  0  0  0  0
  -24.3010   -9.5210   21.9460 C   0  0  0  0  0  3  0  0  0  0  0  0
  -23.5680   -8.3260   22.1240 C   0  0  0  0  0  3  0  0  0  0  0  0
  -22.4010   -8.0880   21.3590 C   0  0  0  0  0  0  0  0  0  0  0  0
  -22.0020   -9.0390   20.4040 C   0  0  0  0  0  3  0  0  0  0  0  0
  -22.7350  -10.2240   20.2250 C   0  0  0  0  0  3  0  0  0  0  0  0
  -21.6450   -6.9430   21.4470 O   0  0  0  0  0  0  0  0  0  0  0  0
  -21.5740   -6.2140   22.6050 C   0  0  0  0  0  0  0  0  0  0  0  0
  -21.1310   -6.7830   23.8190 C   0  0  0  0  0  3  0  0  0  0  0  0
  -21.0070   -5.9790   24.9710 C   0  0  0  0  0  3  0  0  0  0  0  0
  -21.3170   -4.6070   24.9100 C   0  0  0  0  0  0  0  0  0  0  0  0
  -21.7520   -4.0370   23.7010 C   0  0  0  0  0  3  0  0  0  0  0  0
  -21.8780   -4.8380   22.5510 C   0  0  0  0  0  0  0  0  0  0  0  0
  -22.2780   -4.2780   21.3840 F   0  0  0  0  0  0  0  0  0  0  0  0
  -21.1920   -3.8340   26.0130 F   0  0  0  0  0  0  0  0  0  0  0  0
  -22.7530  -13.5780   21.0890 C   0  0  0  0  0  0  0  0  0  0  0  0
  -22.0230  -12.8860   21.9590 N   0  0  0  0  0  0  0  0  0  0  0  0
  -22.3190  -14.5990   20.5620 O   0  0  0  0  0  0  0  0  0  0  0  0
  -22.3880  -12.0550   22.4010 H   0  0  0  0  0  0  0  0  0  0  0  0
  -21.0880  -13.1900   22.1850 H   0  0  0  0  0  0  0  0  0  0  0  0
  -25.3920  -15.2360   20.2800 N   0  0  0  0  0  0  0  0  0  0  0  0
  -24.6310  -15.8970   20.3960 H   0  0  0  0  0  0  0  0  0  0  0  0
  -26.2560  -15.6840   19.9950 H   0  0  0  0  0  0  0  0  0  0  0  0
  -31.8680  -18.7270   19.0910 C   0  0  0  0  0  1  0  0  0  0  0  0
  -31.0980  -17.3920   19.1380 C   0  0  0  0  0  2  0  0  0  0  0  0
  -29.4180  -21.8320   21.0570 C   0  0  0  0  0  2  0  0  0  0  0  0
  -28.5370  -22.9120   20.7210 O   0  0  0  0  0  0  0  0  0  0  0  0
  -29.1300  -24.2250   20.6800 C   0  0  0  0  0  2  0  0  0  0  0  0
  -28.1000  -25.2100   20.0710 C   0  0  0  0  0  2  0  0  0  0  0  0
  -28.3530  -26.6350   20.1910 O   0  0  0  0  0  0  0  0  0  0  0  0
  -24.6230  -31.8990   23.2470 C   0  0  0  0  0  0  0  0  0  0  0  0
  -27.2210  -27.4400   20.1310 C   0  0  0  0  0  0  0  0  0  0  0  0
  -23.4040  -30.5120   21.6040 C   0  0  0  0  0  3  0  0  0  0  0  0
  -24.8440  -28.9920   20.1550 C   0  0  0  0  0  0  0  0  0  0  0  0
  -25.9350  -30.8640   21.3930 C   0  0  0  0  0  2  0  0  0  0  0  0
  -26.0140  -29.4990   20.7360 C   0  0  0  0  0  0  0  0  0  0  0  0
  -27.2090  -28.7340   20.7160 C   0  0  0  0  0  3  0  0  0  0  0  0
  -26.0310  -26.9790   19.5160 C   0  0  0  0  0  3  0  0  0  0  0  0
  -24.8490  -27.7350   19.5380 C   0  0  0  0  0  3  0  0  0  0  0  0
  -23.6030  -29.8530   20.2180 C   0  0  0  0  0  2  0  0  0  0  0  0
  -24.6730  -31.1040   22.1400 N   0  0  0  0  0  0  0  0  0  0  0  0
  -23.5440  -32.1690   23.7950 O   0  0  0  0  0  0  0  0  0  0  0  0
  -22.7570  -29.4810   22.5590 C   0  0  0  0  0  0  0  0  0  0  0  0
  -21.4320  -29.3010   22.4390 N   0  0  0  0  0  0  0  0  0  0  0  0
  -23.4450  -28.8500   23.3650 O   0  0  0  0  0  0  0  0  0  0  0  0
  -20.9380  -29.8620   21.7600 H   0  0  0  0  0  0  0  0  0  0  0  0
  -18.0610  -28.1040   22.9490 C   0  0  0  0  0  0  0  0  0  0  0  0
  -20.6200  -28.3580   23.2080 C   0  0  0  0  0  3  0  0  0  0  0  0
  -20.7170  -26.9300   22.6230 C   0  0  0  0  0  2  0  0  0  0  0  0
  -19.6100  -26.6130   21.6130 C   0  0  0  0  0  2  0  0  0  0  0  0
  -18.2320  -26.7580   22.2650 C   0  0  0  0  0  2  0  0  0  0  0  0
  -19.1820  -28.8630   23.3780 C   0  0  0  0  0  0  0  0  0  0  0  0
  -18.9670  -30.1240   23.9750 C   0  0  0  0  0  3  0  0  0  0  0  0
  -17.6640  -30.6250   24.1470 C   0  0  0  0  0  3  0  0  0  0  0  0
  -16.5560  -29.8650   23.7340 C   0  0  0  0  0  3  0  0  0  0  0  0
  -16.7560  -28.6040   23.1410 C   0  0  0  0  0  3  0  0  0  0  0  0
  -25.9120  -32.5240   23.8640 C   0  0  0  0  0  3  0  0  0  0  0  0
  -25.6040  -33.9180   24.2070 N   0  0  0  0  0  0  0  0  0  0  0  0
  -25.9130  -34.9750   23.4460 C   0  0  0  0  0  0  0  0  0  0  0  0
  -26.5590  -34.8810   22.3980 O   0  0  0  0  0  0  0  0  0  0  0  0
  -25.0220  -34.0640   25.0180 H   0  0  0  0  0  0  0  0  0  0  0  0
  -24.1570  -36.7520   23.1540 C   0  0  0  0  0  1  0  0  0  0  0  0
  -25.4300  -36.3590   23.9210 C   0  0  0  0  0  3  0  0  0  0  0  0
  -27.5850  -37.2610   24.6740 C   0  0  0  0  0  1  0  0  0  0  0  0
  -26.4490  -37.4200   23.7710 N   0  0  0  0  0  0  0  0  0  0  0  0
  -26.0420  -38.3370   23.9340 H   0  0  0  0  0  0  0  0  0  0  0  0
  -26.4420  -31.7410   25.1250 C   0  0  1  0  0  0  0  0  0  0  0  0
  -25.3600  -31.4880   26.2020 C   0  0  0  0  0  1  0  0  0  0  0  0
  -27.0240  -30.3700   24.7100 C   0  0  0  0  0  1  0  0  0  0  0  0
  -27.5970  -32.5310   25.7850 C   0  0  0  0  0  1  0  0  0  0  0  0
  2  3  1  0
  3  1  1  0
  3  5  1  0
  4  2  2  0
  6 46  1  0
  6 15  1  0
  6  2  1  0
  7 15  1  0
  8 13  1  0
  9 10  1  0
  9  8  1  0
 11 10  1  0
 11 20  1  0
 11 12  1  0
 13  7  1  0
 13 12  1  0
 14  7  2  0
 15 16  1  0
 17 18  2  0
 18 37  1  0
 19 18  1  0
 19 22  1  0
 20 17  1  0
 20 21  1  0
 21 19  2  0
 22 23  1  0
 23 24  2  0
 25 28  1  0
 25 24  1  0
 26 25  2  0
 27 26  1  0
 27 22  2  0
 28 29  1  0
 29 30  1  0
 30 31  2  0
 32 31  1  0
 32 36  1  0
 33 32  2  0
 34 29  2  0
 34 33  1  0
 35 34  1  0
 37 38  1  0
 38 41  1  0
 38 40  1  0
 39 37  2  0
 42 43  1  0
 42 17  1  0
 44 42  1  0
 45 46  1  0
 47  1  1  0
 48 47  1  0
 49 48  1  0
 50 51  1  0
 50 49  1  0
 52 63  2  0
 53 51  1  0
 53 58  1  0
 54 62  1  0
 54 64  1  0
 55 61  1  0
 55 57  1  0
 56 62  1  0
 57 56  1  0
 58 57  2  0
 59 60  1  0
 59 53  2  0
 60 55  2  0
 61 54  1  0
 62 52  1  0
 64 66  2  0
 65 64  1  0
 67 65  1  0
 68 77  2  0
 68 73  1  0
 69 65  1  0
 69 73  1  0
 70 69  1  0
 71 72  1  0
 71 70  1  0
 72 68  1  0
 73 74  2  0
 74 75  1  0
 76 75  2  0
 77 76  1  0
 78 52  1  0
 78 79  1  0
 78 88  1  0
 79 82  1  0
 80 84  1  0
 80 79  1  0
 81 80  2  0
 84 83  1  0
 86 84  1  0
 86 87  1  0
 86 85  1  0
 88 91  1  1
 88 89  1  0
 90 88  1  0
M  ISO  4   7 100  15 100  50 101  51 101
M  END
>  <TORSDO>  (34) 
F 23

>  <SCORE>  (34) 
-12.815

>  <name>  (34) 
33

>  <ligand_id>  (34) 
33

>  <original_smiles>  (34) 
[H]c1c([H])c([H])c2c(c1[H])C([H])([H])C([H])([H])C([H])([H])C2([H])N([H])C(=O)C1([H])N(C(=O)C([H])(N([H])C(=O)C([H])(N([H])C([H])([H])[H])C([H])([H])[H])C(C([H])([H])[H])(C([H])([H])[H])C([H])([H])[H])C([H])([H])c2c([H])c(OC([H])([H])C([H])([H])OC([H])([H])C([H])([H])N([H])C(=O)C([H])(N([H])C(=O)N3C([H])([H])C([H])([H])C([H])([H])C([H])(n4nc(-c5c([H])c([H])c(Oc6c([H])c([H])c(F)c([H])c6F)c([H])c5[H])c(C(=O)N([H])[H])c4N([H])[H])C3([H])[H])C([H])([H])C([H])([H])[H])c([H])c([H])c2C1([H])[H]

>  <smiles>  (34) 
[H]c1c([H])c([H])c2c(c1[H])C([H])([H])C([H])([H])C([H])([H])C2([H])N([H])C(=O)C1([H])N(C(=O)C([H])(N([H])C(=O)C([H])(N([H])C([H])([H])[H])C([H])([H])[H])C(C([H])([H])[H])(C([H])([H])[H])C([H])([H])[H])C([H])([H])c2c([H])c(OC([H])([H])C([H])([H])OC([H])([H])C([H])([H])N([H])C(=O)C([H])(N([H])C(=O)N3C([H])([H])C([H])([H])C([H])([H])C([H])(n4nc(-c5c([H])c([H])c(Oc6c([H])c([H])c(F)c([H])c6F)c([H])c5[H])c(C(=O)N([H])[H])c4N([H])[H])C3([H])[H])C([H])([H])C([H])([H])[H])c([H])c([H])c2C1([H])[H]

$$$$
34:0:0
     RDKit          3D

 99106  0  0  1  0  0  0  0  0999 V2000
  -30.7060  -21.0450   19.1130 C   0  0  0  0  0  0  0  0  0  0  0  0
  -30.2420  -22.0460   18.3560 N   0  0  0  0  0  0  0  0  0  0  0  0
  -31.8910  -20.9700   19.4530 O   0  0  0  0  0  0  0  0  0  0  0  0
  -29.2520  -22.0530   18.1410 H   0  0  0  0  0  0  0  0  0  0  0  0
  -28.6820  -20.4880   20.5880 C   0  0  0  0  0  1  0  0  0  0  0  0
  -29.7040  -19.9670   19.5600 C   0  0  0  0  0  3  0  0  0  0  0  0
  -30.0080  -17.5540   20.1910 C   0  0  0  0  0  0  0  0  0  0  0  0
  -30.4310  -18.8200   20.1000 N   0  0  0  0  0  0  0  0  0  0  0  0
  -28.9110  -17.1930   19.7530 O   0  0  0  0  0  0  0  0  0  0  0  0
  -31.3710  -19.0350   20.4110 H   0  0  0  0  0  0  0  0  0  0  0  0
  -30.9580  -16.5420   20.8780 C   0  0  0  0  0  3  0  0  0  0  0  0
  -30.8340  -14.3160   19.7570 C   0  0  0  0  0  0  0  0  0  0  0  0
  -30.3280  -12.2100   18.5810 C   0  0  0  0  0  2  0  0  0  0  0  0
  -29.3180  -12.4540   17.4440 C   0  0  0  0  0  2  0  0  0  0  0  0
  -27.8750  -12.3740   17.9760 C   0  0  0  0  0  2  0  0  0  0  0  0
  -27.6560  -13.2360   19.2460 C   0  0  0  0  0  3  0  0  0  0  0  0
  -28.7660  -12.9660   20.2850 C   0  0  0  0  0  2  0  0  0  0  0  0
  -30.0730  -13.1980   19.6390 N   0  0  0  0  0  0  0  0  0  0  0  0
  -31.8350  -14.5310   19.0680 O   0  0  0  0  0  0  0  0  0  0  0  0
  -30.4180  -15.1970   20.6680 N   0  0  0  0  0  0  0  0  0  0  0  0
  -29.5710  -14.9770   21.1680 H   0  0  0  0  0  0  0  0  0  0  0  0
  -25.3110  -13.9410   20.0520 C   0  0  0  0  0  0  0  0  0  0  0  0
  -24.2480  -13.2150   20.5190 C   0  0  0  0  0  0  0  0  0  0  0  0
  -24.6780  -11.8530   20.5360 C   0  0  0  0  0  0  0  0  0  0  0  0
  -26.3230  -13.0240   19.8120 N   0  0  0  0  0  0  0  0  0  0  0  0
  -25.9470  -11.7660   20.1570 N   0  0  0  0  0  0  0  0  0  0  0  0
  -23.9390  -10.6190   20.8360 C   0  0  0  0  0  0  0  0  0  0  0  0
  -24.3770   -9.7180   21.8320 C   0  0  0  0  0  3  0  0  0  0  0  0
  -23.6390   -8.5490   22.1140 C   0  0  0  0  0  3  0  0  0  0  0  0
  -22.4470   -8.2710   21.4020 C   0  0  0  0  0  0  0  0  0  0  0  0
  -22.0270   -9.1610   20.3980 C   0  0  0  0  0  3  0  0  0  0  0  0
  -22.7650  -10.3220   20.1140 C   0  0  0  0  0  3  0  0  0  0  0  0
  -21.6810   -7.1460   21.5900 O   0  0  0  0  0  0  0  0  0  0  0  0
  -21.6220   -6.5120   22.8040 C   0  0  0  0  0  0  0  0  0  0  0  0
  -21.1980   -7.1780   23.9740 C   0  0  0  0  0  3  0  0  0  0  0  0
  -21.0840   -6.4680   25.1870 C   0  0  0  0  0  3  0  0  0  0  0  0
  -21.3850   -5.0930   25.2300 C   0  0  0  0  0  0  0  0  0  0  0  0
  -21.8040   -4.4280   24.0640 C   0  0  0  0  0  3  0  0  0  0  0  0
  -21.9180   -5.1350   22.8550 C   0  0  0  0  0  0  0  0  0  0  0  0
  -22.3010   -4.4830   21.7300 F   0  0  0  0  0  0  0  0  0  0  0  0
  -21.2700   -4.4110   26.3930 F   0  0  0  0  0  0  0  0  0  0  0  0
  -22.8780  -13.7390   20.8440 C   0  0  0  0  0  0  0  0  0  0  0  0
  -22.1910  -13.1160   21.7960 N   0  0  0  0  0  0  0  0  0  0  0  0
  -22.4260  -14.7400   20.2880 O   0  0  0  0  0  0  0  0  0  0  0  0
  -22.5690  -12.3090   22.2700 H   0  0  0  0  0  0  0  0  0  0  0  0
  -21.2760  -13.4540   22.0570 H   0  0  0  0  0  0  0  0  0  0  0  0
  -25.4970  -15.2960   19.7970 N   0  0  0  0  0  0  0  0  0  0  0  0
  -24.7630  -15.9810   19.9380 H   0  0  0  0  0  0  0  0  0  0  0  0
  -26.3660  -15.7070   19.4740 H   0  0  0  0  0  0  0  0  0  0  0  0
  -31.9180  -18.0790   22.7060 C   0  0  0  0  0  1  0  0  0  0  0  0
  -31.9600  -15.6180   23.0190 C   0  0  0  0  0  1  0  0  0  0  0  0
  -29.7820  -16.8560   23.1710 C   0  0  0  0  0  1  0  0  0  0  0  0
  -31.1320  -16.7800   22.4220 C   0  0  2  0  0  0  0  0  0  0  0  0
  -31.0580  -23.1090   17.7710 C   0  0  0  0  0  2  0  0  0  0  0  0
  -31.3310  -24.2660   18.7490 C   0  0  0  0  0  2  0  0  0  0  0  0
  -30.2090  -25.1420   18.8180 O   0  0  0  0  0  0  0  0  0  0  0  0
  -30.4890  -26.3220   19.5750 C   0  0  0  0  0  2  0  0  0  0  0  0
  -29.3240  -27.3230   19.4920 C   0  0  0  0  0  2  0  0  0  0  0  0
  -28.2250  -26.7950   20.2170 O   0  0  0  0  0  0  0  0  0  0  0  0
  -24.3960  -31.9430   23.3190 C   0  0  0  0  0  0  0  0  0  0  0  0
  -27.0870  -27.5590   20.2180 C   0  0  0  0  0  0  0  0  0  0  0  0
  -23.1990  -30.5270   21.6810 C   0  0  0  0  0  3  0  0  0  0  0  0
  -24.6670  -29.0090   20.2500 C   0  0  0  0  0  0  0  0  0  0  0  0
  -25.7170  -30.9250   21.4690 C   0  0  0  0  0  2  0  0  0  0  0  0
  -25.8190  -29.5570   20.8290 C   0  0  0  0  0  0  0  0  0  0  0  0
  -27.0350  -28.8390   20.8130 C   0  0  0  0  0  3  0  0  0  0  0  0
  -25.9190  -27.0100   19.6560 C   0  0  0  0  0  3  0  0  0  0  0  0
  -24.7100  -27.7310   19.6620 C   0  0  0  0  0  3  0  0  0  0  0  0
  -23.4110  -29.8480   20.3010 C   0  0  0  0  0  2  0  0  0  0  0  0
  -24.4550  -31.1450   22.2150 N   0  0  0  0  0  0  0  0  0  0  0  0
  -23.3140  -32.2030   23.8640 O   0  0  0  0  0  0  0  0  0  0  0  0
  -22.5630  -29.5000   22.6440 C   0  0  0  0  0  0  0  0  0  0  0  0
  -21.2480  -29.2720   22.4910 N   0  0  0  0  0  0  0  0  0  0  0  0
  -23.2490  -28.9090   23.4820 O   0  0  0  0  0  0  0  0  0  0  0  0
  -20.7550  -29.8020   21.7870 H   0  0  0  0  0  0  0  0  0  0  0  0
  -17.9150  -27.9400   22.8980 C   0  0  0  0  0  0  0  0  0  0  0  0
  -20.4460  -28.3200   23.2580 C   0  0  0  0  0  3  0  0  0  0  0  0
  -20.6330  -26.8790   22.7270 C   0  0  0  0  0  2  0  0  0  0  0  0
  -19.5860  -26.4810   21.6830 C   0  0  0  0  0  2  0  0  0  0  0  0
  -18.1760  -26.5810   22.2690 C   0  0  0  0  0  2  0  0  0  0  0  0
  -18.9820  -28.7630   23.3480 C   0  0  0  0  0  0  0  0  0  0  0  0
  -18.6860  -30.0310   23.8910 C   0  0  0  0  0  3  0  0  0  0  0  0
  -17.3550  -30.4800   23.9920 C   0  0  0  0  0  3  0  0  0  0  0  0
  -16.3030  -29.6540   23.5600 C   0  0  0  0  0  3  0  0  0  0  0  0
  -16.5820  -28.3870   23.0190 C   0  0  0  0  0  3  0  0  0  0  0  0
  -25.6770  -32.5870   23.9330 C   0  0  0  0  0  3  0  0  0  0  0  0
  -26.1900  -31.8410   25.2250 C   0  0  1  0  0  0  0  0  0  0  0  0
  -25.0900  -31.6060   26.2880 C   0  0  0  0  0  1  0  0  0  0  0  0
  -26.7910  -30.4640   24.8560 C   0  0  0  0  0  1  0  0  0  0  0  0
  -27.3270  -32.6560   25.8870 C   0  0  0  0  0  1  0  0  0  0  0  0
  -25.3670  -33.9910   24.2320 N   0  0  0  0  0  0  0  0  0  0  0  0
  -25.7120  -35.0270   23.4560 C   0  0  0  0  0  0  0  0  0  0  0  0
  -26.3970  -34.9020   22.4370 O   0  0  0  0  0  0  0  0  0  0  0  0
  -24.7610  -34.1620   25.0210 H   0  0  0  0  0  0  0  0  0  0  0  0
  -23.9900  -36.8130   23.0390 C   0  0  0  0  0  1  0  0  0  0  0  0
  -25.2200  -36.4250   23.8770 C   0  0  0  0  0  3  0  0  0  0  0  0
  -27.3450  -37.3220   24.7170 C   0  0  0  0  0  1  0  0  0  0  0  0
  -26.2550  -37.4740   23.7580 N   0  0  0  0  0  0  0  0  0  0  0  0
  -25.8480  -38.3970   23.8830 H   0  0  0  0  0  0  0  0  0  0  0  0
  1  3  2  0
  1  6  1  0
  2  1  1  0
  4  2  1  0
  6  8  1  0
  6  5  1  0
  8  7  1  0
  8 10  1  0
  9  7  2  0
 11  7  1  0
 11 53  1  0
 12 20  1  0
 13 18  1  0
 14 15  1  0
 14 13  1  0
 16 15  1  0
 16 25  1  0
 16 17  1  0
 18 12  1  0
 18 17  1  0
 19 12  2  0
 20 11  1  0
 20 21  1  0
 22 23  2  0
 23 24  1  0
 23 42  1  0
 24 27  1  0
 25 22  1  0
 25 26  1  0
 26 24  2  0
 27 28  1  0
 28 29  2  0
 30 33  1  0
 30 29  1  0
 31 30  2  0
 32 31  1  0
 32 27  2  0
 33 34  1  0
 34 39  2  0
 34 35  1  0
 35 36  2  0
 36 37  1  0
 37 41  1  0
 38 37  2  0
 39 38  1  0
 40 39  1  0
 42 43  1  0
 43 46  1  0
 43 45  1  0
 44 42  2  0
 47 48  1  0
 47 22  1  0
 49 47  1  0
 53 50  1  6
 53 51  1  0
 53 52  1  0
 54  2  1  0
 54 55  1  0
 55 56  1  0
 56 57  1  0
 58 57  1  0
 58 59  1  0
 59 61  1  0
 60 71  2  0
 61 66  1  0
 62 70  1  0
 62 72  1  0
 63 69  1  0
 63 65  1  0
 64 70  1  0
 65 64  1  0
 66 65  2  0
 67 68  1  0
 67 61  2  0
 68 63  2  0
 69 62  1  0
 70 60  1  0
 72 74  2  0
 73 72  1  0
 75 73  1  0
 76 85  2  0
 76 81  1  0
 77 73  1  0
 77 81  1  0
 78 77  1  0
 79 80  1  0
 79 78  1  0
 80 76  1  0
 81 82  2  0
 82 83  1  0
 84 83  2  0
 85 84  1  0
 86 60  1  0
 86 91  1  0
 86 87  1  0
 87 90  1  1
 87 88  1  0
 89 87  1  0
 91 94  1  0
 92 96  1  0
 92 91  1  0
 93 92  2  0
 96 95  1  0
 98 96  1  0
 98 99  1  0
 98 97  1  0
M  ISO  4  12 100  20 100  58 101  59 101
M  END
>  <TORSDO>  (35) 
F 25

>  <SCORE>  (35) 
-6.394

>  <name>  (35) 
34

>  <ligand_id>  (35) 
34

>  <original_smiles>  (35) 
[H]c1c([H])c([H])c2c(c1[H])C([H])([H])C([H])([H])C([H])([H])C2([H])N([H])C(=O)C1([H])N(C(=O)C([H])(N([H])C(=O)C([H])(N([H])C([H])([H])[H])C([H])([H])[H])C(C([H])([H])[H])(C([H])([H])[H])C([H])([H])[H])C([H])([H])c2c([H])c(OC([H])([H])C([H])([H])OC([H])([H])C([H])([H])N([H])C(=O)C([H])(N([H])C(=O)C([H])(N([H])C(=O)N3C([H])([H])C([H])([H])C([H])([H])C([H])(n4nc(-c5c([H])c([H])c(Oc6c([H])c([H])c(F)c([H])c6F)c([H])c5[H])c(C(=O)N([H])[H])c4N([H])[H])C3([H])[H])C(C([H])([H])[H])(C([H])([H])[H])C([H])([H])[H])C([H])([H])[H])c([H])c([H])c2C1([H])[H]

>  <smiles>  (35) 
[H]c1c([H])c([H])c2c(c1[H])C([H])([H])C([H])([H])C([H])([H])C2([H])N([H])C(=O)C1([H])N(C(=O)C([H])(N([H])C(=O)C([H])(N([H])C([H])([H])[H])C([H])([H])[H])C(C([H])([H])[H])(C([H])([H])[H])C([H])([H])[H])C([H])([H])c2c([H])c(OC([H])([H])C([H])([H])OC([H])([H])C([H])([H])N([H])C(=O)C([H])(N([H])C(=O)C([H])(N([H])C(=O)N3C([H])([H])C([H])([H])C([H])([H])C([H])(n4nc(-c5c([H])c([H])c(Oc6c([H])c([H])c(F)c([H])c6F)c([H])c5[H])c(C(=O)N([H])[H])c4N([H])[H])C3([H])[H])C(C([H])([H])[H])(C([H])([H])[H])C([H])([H])[H])C([H])([H])[H])c([H])c([H])c2C1([H])[H]

$$$$
35:0:0
     RDKit          3D

 89 96  0  0  1  0  0  0  0  0999 V2000
  -29.1880  -19.1180   20.4590 C   0  0  0  0  0  0  0  0  0  0  0  0
  -29.4790  -20.5090   20.3280 N   0  0  0  0  0  0  0  0  0  0  0  0
  -28.0320  -18.7930   20.7290 O   0  0  0  0  0  0  0  0  0  0  0  0
  -30.4490  -20.7060   20.1210 H   0  0  0  0  0  0  0  0  0  0  0  0
  -28.5400  -21.7920   20.3280 C   0  0  0  0  0  2  0  0  0  0  0  0
  -29.0150  -23.4220   20.3390 C   0  0  0  0  0  3  0  0  0  0  0  0
  -27.9780  -24.7450   20.1040 C   0  0  0  0  0  3  0  0  0  0  0  0
  -28.2500  -26.2820   20.2240 O   0  0  0  0  0  0  0  0  0  0  0  0
  -24.6000  -31.9660   23.2280 C   0  0  0  0  0  0  0  0  0  0  0  0
  -27.1830  -27.2590   20.1760 C   0  0  0  0  0  0  0  0  0  0  0  0
  -23.3930  -30.5530   21.6090 C   0  0  0  0  0  3  0  0  0  0  0  0
  -24.8370  -28.9860   20.1720 C   0  0  0  0  0  0  0  0  0  0  0  0
  -25.9410  -30.8410   21.4100 C   0  0  0  0  0  2  0  0  0  0  0  0
  -26.0220  -29.4460   20.7610 C   0  0  0  0  0  0  0  0  0  0  0  0
  -27.1960  -28.6000   20.7440 C   0  0  0  0  0  3  0  0  0  0  0  0
  -25.9680  -26.9030   19.5510 C   0  0  0  0  0  3  0  0  0  0  0  0
  -24.8220  -27.7280   19.5540 C   0  0  0  0  0  3  0  0  0  0  0  0
  -23.6040  -29.8730   20.2300 C   0  0  0  0  0  2  0  0  0  0  0  0
  -24.6650  -31.1430   22.1360 N   0  0  0  0  0  0  0  0  0  0  0  0
  -23.5180  -32.2440   23.7680 O   0  0  0  0  0  0  0  0  0  0  0  0
  -22.7350  -29.5420   22.5830 C   0  0  0  0  0  0  0  0  0  0  0  0
  -21.4120  -29.3350   22.4490 N   0  0  0  0  0  0  0  0  0  0  0  0
  -23.4170  -28.9490   23.4240 O   0  0  0  0  0  0  0  0  0  0  0  0
  -20.9190  -29.8670   21.7460 H   0  0  0  0  0  0  0  0  0  0  0  0
  -18.0570  -28.0640   22.9620 C   0  0  0  0  0  0  0  0  0  0  0  0
  -20.6100  -28.3860   23.2270 C   0  0  0  0  0  3  0  0  0  0  0  0
  -20.7430  -26.9520   22.6650 C   0  0  0  0  0  2  0  0  0  0  0  0
  -19.6490  -26.5940   21.6540 C   0  0  0  0  0  2  0  0  0  0  0  0
  -18.2640  -26.7140   22.2970 C   0  0  0  0  0  2  0  0  0  0  0  0
  -19.1590  -28.8570   23.3840 C   0  0  0  0  0  0  0  0  0  0  0  0
  -18.9120  -30.1170   23.9680 C   0  0  0  0  0  3  0  0  0  0  0  0
  -17.5970  -30.5900   24.1310 C   0  0  0  0  0  3  0  0  0  0  0  0
  -16.5100  -29.7970   23.7250 C   0  0  0  0  0  3  0  0  0  0  0  0
  -16.7410  -28.5360   23.1480 C   0  0  0  0  0  3  0  0  0  0  0  0
  -25.8820  -32.6120   23.8380 C   0  0  0  0  0  3  0  0  0  0  0  0
  -25.5600  -34.0090   24.1770 N   0  0  0  0  0  0  0  0  0  0  0  0
  -25.8870  -35.0710   23.4290 C   0  0  0  0  0  0  0  0  0  0  0  0
  -26.5580  -34.9790   22.3990 O   0  0  0  0  0  0  0  0  0  0  0  0
  -24.9610  -34.1510   24.9780 H   0  0  0  0  0  0  0  0  0  0  0  0
  -24.1770  -36.8800   23.0650 C   0  0  0  0  0  1  0  0  0  0  0  0
  -25.3950  -36.4540   23.8990 C   0  0  0  0  0  3  0  0  0  0  0  0
  -27.5020  -37.3280   24.8120 C   0  0  0  0  0  1  0  0  0  0  0  0
  -26.4350  -37.5030   23.8290 N   0  0  0  0  0  0  0  0  0  0  0  0
  -26.0270  -38.4240   23.9660 H   0  0  0  0  0  0  0  0  0  0  0  0
  -26.4160  -31.8480   25.1120 C   0  0  1  0  0  0  0  0  0  0  0  0
  -25.3300  -31.5870   26.1840 C   0  0  0  0  0  1  0  0  0  0  0  0
  -27.0260  -30.4830   24.7200 C   0  0  0  0  0  1  0  0  0  0  0  0
  -27.5540  -32.6630   25.7700 C   0  0  0  0  0  1  0  0  0  0  0  0
  -30.2490  -17.8540   20.2490 C   0  0  0  0  0  3  0  0  0  0  0  0
  -30.6480  -15.1210   20.3260 C   0  0  0  0  0  0  0  0  0  0  0  0
  -30.4950  -12.8030   19.3190 C   0  0  0  0  0  2  0  0  0  0  0  0
  -29.5480  -12.8040   18.0960 C   0  0  0  0  0  2  0  0  0  0  0  0
  -28.0940  -12.5700   18.5450 C   0  0  0  0  0  2  0  0  0  0  0  0
  -27.7000  -13.4590   19.7530 C   0  0  0  0  0  3  0  0  0  0  0  0
  -28.7690  -13.4470   20.8670 C   0  0  0  0  0  2  0  0  0  0  0  0
  -30.0320  -13.8730   20.2500 N   0  0  0  0  0  0  0  0  0  0  0  0
  -31.8500  -15.1660   20.0490 O   0  0  0  0  0  0  0  0  0  0  0  0
  -29.8950  -16.3220   20.4690 N   0  0  0  0  0  0  0  0  0  0  0  0
  -28.9200  -16.1760   20.6830 H   0  0  0  0  0  0  0  0  0  0  0  0
  -25.3210  -13.9970   20.5240 C   0  0  0  0  0  0  0  0  0  0  0  0
  -24.2680  -13.2030   20.8880 C   0  0  0  0  0  0  0  0  0  0  0  0
  -24.7470  -11.8580   20.8270 C   0  0  0  0  0  0  0  0  0  0  0  0
  -26.3710  -13.1340   20.2580 N   0  0  0  0  0  0  0  0  0  0  0  0
  -26.0360  -11.8420   20.5070 N   0  0  0  0  0  0  0  0  0  0  0  0
  -24.0330  -10.5850   20.9980 C   0  0  0  0  0  0  0  0  0  0  0  0
  -24.4550   -9.6210   21.9400 C   0  0  0  0  0  3  0  0  0  0  0  0
  -23.7390   -8.4140   22.1000 C   0  0  0  0  0  3  0  0  0  0  0  0
  -22.5880   -8.1630   21.3170 C   0  0  0  0  0  0  0  0  0  0  0  0
  -22.1850   -9.1170   20.3640 C   0  0  0  0  0  3  0  0  0  0  0  0
  -22.9020  -10.3150   20.2040 C   0  0  0  0  0  3  0  0  0  0  0  0
  -21.8450   -7.0090   21.3860 O   0  0  0  0  0  0  0  0  0  0  0  0
  -21.7420   -6.2880   22.5480 C   0  0  0  0  0  0  0  0  0  0  0  0
  -21.1670   -6.8350   23.7150 C   0  0  0  0  0  3  0  0  0  0  0  0
  -21.0170   -6.0370   24.8670 C   0  0  0  0  0  3  0  0  0  0  0  0
  -21.4300   -4.6920   24.8510 C   0  0  0  0  0  0  0  0  0  0  0  0
  -21.9970   -4.1420   23.6880 C   0  0  0  0  0  3  0  0  0  0  0  0
  -22.1490   -4.9380   22.5390 C   0  0  0  0  0  0  0  0  0  0  0  0
  -22.6760   -4.3980   21.4120 F   0  0  0  0  0  0  0  0  0  0  0  0
  -21.2780   -3.9220   25.9540 F   0  0  0  0  0  0  0  0  0  0  0  0
  -22.8690  -13.6620   21.1780 C   0  0  0  0  0  0  0  0  0  0  0  0
  -22.1490  -12.9360   22.0250 N   0  0  0  0  0  0  0  0  0  0  0  0
  -22.4230  -14.6990   20.6900 O   0  0  0  0  0  0  0  0  0  0  0  0
  -22.5200  -12.0940   22.4410 H   0  0  0  0  0  0  0  0  0  0  0  0
  -21.2130  -13.2280   22.2660 H   0  0  0  0  0  0  0  0  0  0  0  0
  -25.4650  -15.3720   20.3700 N   0  0  0  0  0  0  0  0  0  0  0  0
  -24.6880  -16.0100   20.4990 H   0  0  0  0  0  0  0  0  0  0  0  0
  -26.3020  -15.8340   20.0380 H   0  0  0  0  0  0  0  0  0  0  0  0
  -29.9030  -17.7600   17.6750 C   0  0  0  0  0  1  0  0  0  0  0  0
  -30.8870  -17.9850   18.8410 C   0  0  0  0  0  2  0  0  0  0  0  0
  1  3  2  0
  2  5  1  0
  2  1  1  0
  4  2  1  0
  5  6  1  0
  7  8  1  0
  7  6  2  0
  9 20  2  0
 10  8  1  0
 10 15  1  0
 11 19  1  0
 11 21  1  0
 12 18  1  0
 12 14  1  0
 13 19  1  0
 14 13  1  0
 15 14  2  0
 16 17  1  0
 16 10  2  0
 17 12  2  0
 18 11  1  0
 19  9  1  0
 21 23  2  0
 22 21  1  0
 24 22  1  0
 25 34  2  0
 25 30  1  0
 26 22  1  0
 26 30  1  0
 27 26  1  0
 28 29  1  0
 28 27  1  0
 29 25  1  0
 30 31  2  0
 31 32  1  0
 33 32  2  0
 34 33  1  0
 35  9  1  0
 35 36  1  0
 35 45  1  0
 36 39  1  0
 37 41  1  0
 37 36  1  0
 38 37  2  0
 41 40  1  0
 43 41  1  0
 43 44  1  0
 43 42  1  0
 45 48  1  1
 45 46  1  0
 47 45  1  0
 49 89  1  0
 49  1  1  0
 49 58  1  0
 50 58  1  0
 51 56  1  0
 52 53  1  0
 52 51  1  0
 54 53  1  0
 54 63  1  0
 54 55  1  0
 56 50  1  0
 56 55  1  0
 57 50  2  0
 58 59  1  0
 60 61  2  0
 61 80  1  0
 62 61  1  0
 62 65  1  0
 63 64  1  0
 63 60  1  0
 64 62  2  0
 65 66  1  0
 66 67  2  0
 68 71  1  0
 68 67  1  0
 69 68  2  0
 70 69  1  0
 70 65  2  0
 71 72  1  0
 72 73  1  0
 73 74  2  0
 75 74  1  0
 75 79  1  0
 76 75  2  0
 77 72  2  0
 77 76  1  0
 78 77  1  0
 80 81  1  0
 81 84  1  0
 81 83  1  0
 82 80  2  0
 85 86  1  0
 85 60  1  0
 87 85  1  0
 88 89  1  0
M  ISO  4   7 101   8 101  50 100  58 100
M  END
>  <TORSDO>  (36) 
F 21

>  <SCORE>  (36) 
-14.305

>  <name>  (36) 
35

>  <ligand_id>  (36) 
35

>  <original_smiles>  (36) 
[H]c1c([H])c([H])c2c(c1[H])C([H])([H])C([H])([H])C([H])([H])C2([H])N([H])C(=O)C1([H])N(C(=O)C([H])(N([H])C(=O)C([H])(N([H])C([H])([H])[H])C([H])([H])[H])C(C([H])([H])[H])(C([H])([H])[H])C([H])([H])[H])C([H])([H])c2c([H])c(OC([H])([H])C([H])([H])C([H])([H])N([H])C(=O)C([H])(N([H])C(=O)N3C([H])([H])C([H])([H])C([H])([H])C([H])(n4nc(-c5c([H])c([H])c(Oc6c([H])c([H])c(F)c([H])c6F)c([H])c5[H])c(C(=O)N([H])[H])c4N([H])[H])C3([H])[H])C([H])([H])C([H])([H])[H])c([H])c([H])c2C1([H])[H]

>  <smiles>  (36) 
[H]c1c([H])c([H])c2c(c1[H])C([H])([H])C([H])([H])C([H])([H])C2([H])N([H])C(=O)C1([H])N(C(=O)C([H])(N([H])C(=O)C([H])(N([H])C([H])([H])[H])C([H])([H])[H])C(C([H])([H])[H])(C([H])([H])[H])C([H])([H])[H])C([H])([H])c2c([H])c(OC([H])([H])C([H])([H])C([H])([H])N([H])C(=O)C([H])(N([H])C(=O)N3C([H])([H])C([H])([H])C([H])([H])C([H])(n4nc(-c5c([H])c([H])c(Oc6c([H])c([H])c(F)c([H])c6F)c([H])c5[H])c(C(=O)N([H])[H])c4N([H])[H])C3([H])[H])C([H])([H])C([H])([H])[H])c([H])c([H])c2C1([H])[H]

$$$$
37:0:0
     RDKit          3D

 96103  0  0  1  0  0  0  0  0999 V2000
  -31.7600  -21.0200   21.5030 C   0  0  0  0  0  1  0  0  0  0  0  0
  -30.2280  -20.8290   21.5230 C   0  0  0  0  0  3  0  0  0  0  0  0
  -30.2300  -18.2400   21.3170 C   0  0  0  0  0  0  0  0  0  0  0  0
  -29.8610  -19.4990   20.9880 N   0  0  0  0  0  0  0  0  0  0  0  0
  -30.9910  -17.9910   22.2530 O   0  0  0  0  0  0  0  0  0  0  0  0
  -29.2520  -19.5770   20.1830 H   0  0  0  0  0  0  0  0  0  0  0  0
  -29.5990  -17.0750   20.4960 C   0  0  0  0  0  0  0  0  0  0  0  0
  -30.5340  -14.7280   21.1790 C   0  0  0  0  0  0  0  0  0  0  0  0
  -30.5360  -12.4240   20.2970 C   0  0  0  0  0  2  0  0  0  0  0  0
  -29.7330  -12.4040   18.9760 C   0  0  0  0  0  2  0  0  0  0  0  0
  -28.2120  -12.2840   19.2340 C   0  0  0  0  0  2  0  0  0  0  0  0
  -27.6870  -13.1940   20.3800 C   0  0  0  0  0  3  0  0  0  0  0  0
  -28.6250  -13.1390   21.6080 C   0  0  0  0  0  2  0  0  0  0  0  0
  -29.9810  -13.4820   21.1540 N   0  0  0  0  0  0  0  0  0  0  0  0
  -31.7360  -14.9180   20.9930 O   0  0  0  0  0  0  0  0  0  0  0  0
  -29.6210  -15.7300   21.1540 N   0  0  0  0  0  4  0  0  0  0  0  0
  -28.7080  -15.4240   21.4450 H   0  0  0  0  0  0  0  0  0  0  0  0
  -25.2170  -13.7350   20.8570 C   0  0  0  0  0  0  0  0  0  0  0  0
  -24.1410  -12.9330   21.1290 C   0  0  0  0  0  0  0  0  0  0  0  0
  -24.6440  -11.5960   21.1550 C   0  0  0  0  0  0  0  0  0  0  0  0
  -26.3050  -12.8840   20.7340 N   0  0  0  0  0  0  0  0  0  0  0  0
  -25.9590  -11.5940   20.9760 N   0  0  0  0  0  0  0  0  0  0  0  0
  -23.9420  -10.3130   21.2840 C   0  0  0  0  0  0  0  0  0  0  0  0
  -24.3360   -9.3500   22.2390 C   0  0  0  0  0  3  0  0  0  0  0  0
  -23.6350   -8.1300   22.3550 C   0  0  0  0  0  3  0  0  0  0  0  0
  -22.5260   -7.8660   21.5160 C   0  0  0  0  0  0  0  0  0  0  0  0
  -22.1540   -8.8180   20.5510 C   0  0  0  0  0  3  0  0  0  0  0  0
  -22.8560  -10.0300   20.4320 C   0  0  0  0  0  3  0  0  0  0  0  0
  -21.8020   -6.6980   21.5400 O   0  0  0  0  0  0  0  0  0  0  0  0
  -21.7190   -5.9270   22.6710 C   0  0  0  0  0  0  0  0  0  0  0  0
  -21.2160   -6.4380   23.8870 C   0  0  0  0  0  3  0  0  0  0  0  0
  -21.0840   -5.5910   25.0060 C   0  0  0  0  0  3  0  0  0  0  0  0
  -21.4450   -4.2340   24.9080 C   0  0  0  0  0  0  0  0  0  0  0  0
  -21.9430   -3.7230   23.6970 C   0  0  0  0  0  3  0  0  0  0  0  0
  -22.0770   -4.5670   22.5800 C   0  0  0  0  0  0  0  0  0  0  0  0
  -22.5360   -4.0650   21.4090 F   0  0  0  0  0  0  0  0  0  0  0  0
  -21.3110   -3.4180   25.9790 F   0  0  0  0  0  0  0  0  0  0  0  0
  -22.7100  -13.3680   21.2550 C   0  0  0  0  0  0  0  0  0  0  0  0
  -21.9210  -12.6570   22.0540 N   0  0  0  0  0  0  0  0  0  0  0  0
  -22.2930  -14.3750   20.6830 O   0  0  0  0  0  0  0  0  0  0  0  0
  -22.2670  -11.8460   22.5430 H   0  0  0  0  0  0  0  0  0  0  0  0
  -20.9570  -12.9320   22.1800 H   0  0  0  0  0  0  0  0  0  0  0  0
  -25.3560  -15.1090   20.6810 N   0  0  0  0  0  0  0  0  0  0  0  0
  -24.5550  -15.7310   20.7010 H   0  0  0  0  0  0  0  0  0  0  0  0
  -26.2030  -15.5680   20.3780 H   0  0  0  0  0  0  0  0  0  0  0  0
  -29.4090  -18.4590   18.2760 C   0  0  0  0  0  1  0  0  0  0  0  0
  -28.6590  -16.1480   18.3040 C   0  0  0  0  0  1  0  0  0  0  0  0
  -31.1210  -16.6820   18.3930 C   0  0  0  0  0  1  0  0  0  0  0  0
  -29.7230  -17.0820   18.9090 C   0  0  2  0  0  0  0  0  0  0  0  0
  -29.5780  -21.9400   20.6410 C   0  0  0  0  0  0  0  0  0  0  0  0
  -29.6240  -23.2230   21.0610 N   0  0  0  0  0  0  0  0  0  0  0  0
  -29.0680  -21.6330   19.5600 O   0  0  0  0  0  0  0  0  0  0  0  0
  -30.0380  -23.3840   21.9690 H   0  0  0  0  0  0  0  0  0  0  0  0
  -29.3230  -24.4310   20.2530 C   0  0  0  0  0  2  0  0  0  0  0  0
  -28.3430  -25.4440   20.9140 C   0  0  0  0  0  2  0  0  0  0  0  0
  -28.4160  -26.7600   20.3120 O   0  0  0  0  0  0  0  0  0  0  0  0
  -24.6050  -31.9800   23.3630 C   0  0  0  0  0  0  0  0  0  0  0  0
  -27.2550  -27.5130   20.3110 C   0  0  0  0  0  0  0  0  0  0  0  0
  -23.4100  -30.5940   21.7010 C   0  0  0  0  0  3  0  0  0  0  0  0
  -24.8720  -29.0500   20.2880 C   0  0  0  0  0  0  0  0  0  0  0  0
  -25.9410  -30.9340   21.5330 C   0  0  0  0  0  2  0  0  0  0  0  0
  -26.0270  -29.5620   20.8910 C   0  0  0  0  0  0  0  0  0  0  0  0
  -27.2240  -28.8050   20.8920 C   0  0  0  0  0  3  0  0  0  0  0  0
  -26.0840  -27.0220   19.6950 C   0  0  0  0  0  3  0  0  0  0  0  0
  -24.8960  -27.7790   19.6850 C   0  0  0  0  0  3  0  0  0  0  0  0
  -23.6320  -29.9170   20.3220 C   0  0  0  0  0  2  0  0  0  0  0  0
  -24.6710  -31.1850   22.2570 N   0  0  0  0  0  0  0  0  0  0  0  0
  -23.5200  -32.2570   23.8920 O   0  0  0  0  0  0  0  0  0  0  0  0
  -22.7400  -29.5740   22.6490 C   0  0  0  0  0  0  0  0  0  0  0  0
  -21.4160  -29.4000   22.5050 N   0  0  0  0  0  0  0  0  0  0  0  0
  -23.4090  -28.9410   23.4710 O   0  0  0  0  0  0  0  0  0  0  0  0
  -20.9380  -29.9610   21.8150 H   0  0  0  0  0  0  0  0  0  0  0  0
  -18.0310  -28.2150   22.9500 C   0  0  0  0  0  0  0  0  0  0  0  0
  -20.5850  -28.4630   23.2610 C   0  0  0  0  0  3  0  0  0  0  0  0
  -20.6920  -27.0330   22.6840 C   0  0  0  0  0  2  0  0  0  0  0  0
  -19.6050  -26.7170   21.6530 C   0  0  0  0  0  2  0  0  0  0  0  0
  -18.2130  -26.8660   22.2750 C   0  0  0  0  0  2  0  0  0  0  0  0
  -19.1460  -28.9720   23.3990 C   0  0  0  0  0  0  0  0  0  0  0  0
  -18.9220  -30.2360   23.9880 C   0  0  0  0  0  3  0  0  0  0  0  0
  -17.6160  -30.7420   24.1330 C   0  0  0  0  0  3  0  0  0  0  0  0
  -16.5170  -29.9820   23.7000 C   0  0  0  0  0  3  0  0  0  0  0  0
  -16.7250  -28.7210   23.1140 C   0  0  0  0  0  3  0  0  0  0  0  0
  -25.8880  -32.6010   24.0000 C   0  0  0  0  0  3  0  0  0  0  0  0
  -25.5810  -33.9950   24.3450 N   0  0  0  0  0  0  0  0  0  0  0  0
  -25.9280  -35.0560   23.6030 C   0  0  0  0  0  0  0  0  0  0  0  0
  -26.6100  -34.9620   22.5790 O   0  0  0  0  0  0  0  0  0  0  0  0
  -24.9760  -34.1420   25.1390 H   0  0  0  0  0  0  0  0  0  0  0  0
  -24.2140  -36.8620   23.2460 C   0  0  0  0  0  1  0  0  0  0  0  0
  -25.4400  -36.4400   24.0720 C   0  0  0  0  0  3  0  0  0  0  0  0
  -27.5640  -37.3010   24.9510 C   0  0  0  0  0  1  0  0  0  0  0  0
  -26.4790  -37.4880   23.9920 N   0  0  0  0  0  0  0  0  0  0  0  0
  -26.0750  -38.4080   24.1450 H   0  0  0  0  0  0  0  0  0  0  0  0
  -26.3960  -31.8110   25.2690 C   0  0  1  0  0  0  0  0  0  0  0  0
  -25.2970  -31.5630   26.3270 C   0  0  0  0  0  1  0  0  0  0  0  0
  -26.9780  -30.4380   24.8610 C   0  0  0  0  0  1  0  0  0  0  0  0
  -27.5460  -32.5940   25.9480 C   0  0  0  0  0  1  0  0  0  0  0  0
  2  1  1  0
  3  5  2  0
  4  3  1  0
  4  2  1  0
  6  4  1  0
  7 16  2  3
  7  3  1  0
  9 14  1  0
 10 11  1  0
 10  9  1  0
 12 11  1  0
 12 21  1  0
 12 13  1  0
 14  8  1  0
 14 13  1  0
 15  8  2  0
 16  8  1  0
 16 17  1  0
 18 19  2  0
 19 20  1  0
 19 38  1  0
 20 23  1  0
 21 18  1  0
 21 22  1  0
 22 20  2  0
 23 24  1  0
 24 25  2  0
 26 29  1  0
 26 25  1  0
 27 26  2  0
 28 27  1  0
 28 23  2  0
 29 30  1  0
 30 31  1  0
 31 32  2  0
 33 32  1  0
 33 37  1  0
 34 33  2  0
 35 30  2  0
 35 34  1  0
 36 35  1  0
 38 39  1  0
 39 42  1  0
 39 41  1  0
 40 38  2  0
 43 44  1  0
 43 18  1  0
 45 43  1  0
 49 46  1  6
 47 49  1  0
 48 49  1  0
 49  7  1  0
 50 51  1  0
 50  2  1  0
 51 53  1  0
 52 50  2  0
 54 55  1  0
 54 51  1  0
 56 55  1  0
 57 68  2  0
 58 56  1  0
 58 63  1  0
 59 67  1  0
 59 69  1  0
 60 66  1  0
 60 62  1  0
 61 67  1  0
 62 63  2  0
 62 61  1  0
 64 58  2  0
 65 64  1  0
 65 60  2  0
 66 59  1  0
 67 57  1  0
 69 71  2  0
 70 69  1  0
 72 70  1  0
 73 82  2  0
 73 78  1  0
 74 70  1  0
 74 78  1  0
 75 74  1  0
 76 77  1  0
 76 75  1  0
 77 73  1  0
 78 79  2  0
 79 80  1  0
 81 80  2  0
 82 81  1  0
 83 57  1  0
 83 84  1  0
 83 93  1  0
 84 87  1  0
 85 89  1  0
 85 84  1  0
 86 85  2  0
 89 88  1  0
 91 89  1  0
 91 92  1  0
 91 90  1  0
 93 96  1  1
 93 94  1  0
 95 93  1  0
M  ISO  4   8 100  16 100  55 101  56 101
M  END
>  <TORSDO>  (37) 
F 22

>  <SCORE>  (37) 
-12.275

>  <name>  (37) 
37

>  <ligand_id>  (37) 
37

>  <original_smiles>  (37) 
[H]c1c([H])c([H])c2c(c1[H])C([H])([H])C([H])([H])C([H])([H])C2([H])N([H])C(=O)C1([H])N(C(=O)C([H])(N([H])C(=O)C([H])(N([H])C([H])([H])[H])C([H])([H])[H])C(C([H])([H])[H])(C([H])([H])[H])C([H])([H])[H])C([H])([H])c2c([H])c(OC([H])([H])C([H])([H])N([H])C(=O)C([H])(N([H])C(=O)C([H])(N([H])C(=O)N3C([H])([H])C([H])([H])C([H])([H])C([H])(n4nc(-c5c([H])c([H])c(Oc6c([H])c([H])c(F)c([H])c6F)c([H])c5[H])c(C(=O)N([H])[H])c4N([H])[H])C3([H])[H])C(C([H])([H])[H])(C([H])([H])[H])C([H])([H])[H])C([H])([H])[H])c([H])c([H])c2C1([H])[H]

>  <smiles>  (37) 
[H]c1c([H])c([H])c2c(c1[H])C([H])([H])C([H])([H])C([H])([H])C2([H])N([H])C(=O)C1([H])N(C(=O)C([H])(N([H])C(=O)C([H])(N([H])C([H])([H])[H])C([H])([H])[H])C(C([H])([H])[H])(C([H])([H])[H])C([H])([H])[H])C([H])([H])c2c([H])c(OC([H])([H])C([H])([H])N([H])C(=O)C([H])(N([H])C(=O)C([H])(N([H])C(=O)N3C([H])([H])C([H])([H])C([H])([H])C([H])(n4nc(-c5c([H])c([H])c(Oc6c([H])c([H])c(F)c([H])c6F)c([H])c5[H])c(C(=O)N([H])[H])c4N([H])[H])C3([H])[H])C(C([H])([H])[H])(C([H])([H])[H])C([H])([H])[H])C([H])([H])[H])c([H])c([H])c2C1([H])[H]

$$$$
38:0:0
     RDKit          3D

 91 99  0  0  1  0  0  0  0  0999 V2000
  -29.1610  -20.2180   19.9010 C   0  0  0  0  0  2  0  0  0  0  0  0
  -30.7450  -14.6950   20.3130 C   0  0  0  0  0  0  0  0  0  0  0  0
  -30.3950  -12.4820   19.2380 C   0  0  0  0  0  2  0  0  0  0  0  0
  -29.4550  -12.5290   18.0170 C   0  0  0  0  0  2  0  0  0  0  0  0
  -28.0040  -12.3210   18.4760 C   0  0  0  0  0  2  0  0  0  0  0  0
  -27.6270  -13.2530   19.6600 C   0  0  0  0  0  3  0  0  0  0  0  0
  -28.6910  -13.2080   20.7850 C   0  0  0  0  0  2  0  0  0  0  0  0
  -29.9820  -13.5530   20.1830 N   0  0  0  0  0  0  0  0  0  0  0  0
  -31.9180  -14.6380   19.9380 O   0  0  0  0  0  0  0  0  0  0  0  0
  -28.4940  -17.8680   20.5430 C   0  0  0  0  0  0  0  0  0  0  0  0
  -28.8880  -16.4260   21.0140 C   0  0  0  0  0  2  0  0  0  0  0  0
  -31.2340  -17.0790   20.5840 C   0  0  0  0  0  2  0  0  0  0  0  0
  -30.7680  -18.5000   21.0400 C   0  0  0  0  0  3  0  0  0  0  0  0
  -29.4250  -18.8650   20.5330 N   0  0  0  0  0  0  0  0  0  0  0  0
  -30.2530  -15.9590   20.6620 N   0  0  0  0  0  0  0  0  0  0  0  0
  -27.3350  -18.0450   20.1540 O   0  0  0  0  0  0  0  0  0  0  0  0
  -25.2510  -13.8500   20.4200 C   0  0  0  0  0  0  0  0  0  0  0  0
  -24.1950  -13.0720   20.8050 C   0  0  0  0  0  0  0  0  0  0  0  0
  -24.6630  -11.7240   20.7800 C   0  0  0  0  0  0  0  0  0  0  0  0
  -26.2950  -12.9730   20.1720 N   0  0  0  0  0  0  0  0  0  0  0  0
  -25.9510  -11.6910   20.4610 N   0  0  0  0  0  0  0  0  0  0  0  0
  -23.9520  -10.4550   20.9810 C   0  0  0  0  0  0  0  0  0  0  0  0
  -24.3990   -9.4980   21.9180 C   0  0  0  0  0  3  0  0  0  0  0  0
  -23.6810   -8.2970   22.1080 C   0  0  0  0  0  3  0  0  0  0  0  0
  -22.5050   -8.0470   21.3620 C   0  0  0  0  0  0  0  0  0  0  0  0
  -22.0770   -8.9960   20.4160 C   0  0  0  0  0  3  0  0  0  0  0  0
  -22.7950  -10.1880   20.2240 C   0  0  0  0  0  3  0  0  0  0  0  0
  -21.7570   -6.9000   21.4610 O   0  0  0  0  0  0  0  0  0  0  0  0
  -21.7180   -6.1630   22.6180 C   0  0  0  0  0  0  0  0  0  0  0  0
  -21.2940   -6.7260   23.8430 C   0  0  0  0  0  3  0  0  0  0  0  0
  -21.2020   -5.9170   24.9930 C   0  0  0  0  0  3  0  0  0  0  0  0
  -21.5270   -4.5480   24.9200 C   0  0  0  0  0  0  0  0  0  0  0  0
  -21.9470   -3.9870   23.7010 C   0  0  0  0  0  3  0  0  0  0  0  0
  -22.0390   -4.7930   22.5530 C   0  0  0  0  0  0  0  0  0  0  0  0
  -22.4230   -4.2440   21.3750 F   0  0  0  0  0  0  0  0  0  0  0  0
  -21.4310   -3.7700   26.0230 F   0  0  0  0  0  0  0  0  0  0  0  0
  -22.7940  -13.5430   21.0740 C   0  0  0  0  0  0  0  0  0  0  0  0
  -22.0680  -12.8570   21.9500 N   0  0  0  0  0  0  0  0  0  0  0  0
  -22.3510  -14.5600   20.5430 O   0  0  0  0  0  0  0  0  0  0  0  0
  -22.4340  -12.0410   22.4170 H   0  0  0  0  0  0  0  0  0  0  0  0
  -21.1310  -13.1640   22.1690 H   0  0  0  0  0  0  0  0  0  0  0  0
  -25.3980  -15.2210   20.2350 N   0  0  0  0  0  0  0  0  0  0  0  0
  -24.6280  -15.8620   20.3950 H   0  0  0  0  0  0  0  0  0  0  0  0
  -26.2230  -15.6870   19.8800 H   0  0  0  0  0  0  0  0  0  0  0  0
  -32.7530  -20.0020   21.5550 C   0  0  0  0  0  2  0  0  0  0  0  0
  -31.8580  -19.5010   20.6870 C   0  0  0  0  0  3  0  0  0  0  0  0
  -29.2750  -21.5390   20.7640 C   0  0  0  0  0  2  0  0  0  0  0  0
  -28.7750  -22.7010   20.0450 O   0  0  0  0  0  0  0  0  0  0  0  0
  -29.0830  -24.0350   20.5490 C   0  0  0  0  0  2  0  0  0  0  0  0
  -28.2060  -25.1380   19.8500 C   0  0  0  0  0  2  0  0  0  0  0  0
  -28.3360  -26.5450   20.2610 O   0  0  0  0  0  0  0  0  0  0  0  0
  -24.5910  -31.9080   23.2510 C   0  0  0  0  0  0  0  0  0  0  0  0
  -27.2040  -27.3700   20.1890 C   0  0  0  0  0  0  0  0  0  0  0  0
  -23.3890  -30.5140   21.6080 C   0  0  0  0  0  3  0  0  0  0  0  0
  -24.8390  -28.9670   20.1830 C   0  0  0  0  0  0  0  0  0  0  0  0
  -25.9300  -30.8250   21.4400 C   0  0  0  0  0  2  0  0  0  0  0  0
  -26.0030  -29.4540   20.7890 C   0  0  0  0  0  0  0  0  0  0  0  0
  -27.1870  -28.6610   20.7900 C   0  0  0  0  0  3  0  0  0  0  0  0
  -26.0200  -26.9450   19.5380 C   0  0  0  0  0  3  0  0  0  0  0  0
  -24.8450  -27.7170   19.5530 C   0  0  0  0  0  3  0  0  0  0  0  0
  -23.6050  -29.8440   20.2260 C   0  0  0  0  0  2  0  0  0  0  0  0
  -24.6550  -31.0980   22.1560 N   0  0  0  0  0  0  0  0  0  0  0  0
  -23.5060  -32.1920   23.7770 O   0  0  0  0  0  0  0  0  0  0  0  0
  -22.7240  -29.4920   22.5620 C   0  0  0  0  0  0  0  0  0  0  0  0
  -21.3990  -29.3180   22.4270 N   0  0  0  0  0  0  0  0  0  0  0  0
  -23.3980  -28.8640   23.3830 O   0  0  0  0  0  0  0  0  0  0  0  0
  -20.9140  -29.8790   21.7410 H   0  0  0  0  0  0  0  0  0  0  0  0
  -18.0130  -28.1460   22.9170 C   0  0  0  0  0  0  0  0  0  0  0  0
  -20.5720  -28.3860   23.1980 C   0  0  0  0  0  3  0  0  0  0  0  0
  -20.6660  -26.9540   22.6250 C   0  0  0  0  0  2  0  0  0  0  0  0
  -19.5650  -26.6370   21.6070 C   0  0  0  0  0  2  0  0  0  0  0  0
  -18.1820  -26.7940   22.2460 C   0  0  0  0  0  2  0  0  0  0  0  0
  -19.1350  -28.9000   23.3510 C   0  0  0  0  0  0  0  0  0  0  0  0
  -18.9240  -30.1650   23.9410 C   0  0  0  0  0  3  0  0  0  0  0  0
  -17.6220  -30.6770   24.1020 C   0  0  0  0  0  3  0  0  0  0  0  0
  -16.5140  -29.9190   23.6840 C   0  0  0  0  0  3  0  0  0  0  0  0
  -16.7090  -28.6570   23.0960 C   0  0  0  0  0  3  0  0  0  0  0  0
  -25.8730  -32.5360   23.8780 C   0  0  0  0  0  3  0  0  0  0  0  0
  -25.5660  -33.9380   24.1950 N   0  0  0  0  0  0  0  0  0  0  0  0
  -25.9070  -34.9850   23.4320 C   0  0  0  0  0  0  0  0  0  0  0  0
  -26.5800  -34.8730   22.4050 O   0  0  0  0  0  0  0  0  0  0  0  0
  -24.9590  -34.1010   24.9850 H   0  0  0  0  0  0  0  0  0  0  0  0
  -24.1840  -36.7800   23.0640 C   0  0  0  0  0  1  0  0  0  0  0  0
  -25.4210  -36.3760   23.8810 C   0  0  0  0  0  3  0  0  0  0  0  0
  -27.5590  -37.2560   24.7120 C   0  0  0  0  0  1  0  0  0  0  0  0
  -26.4580  -37.4260   23.7680 N   0  0  0  0  0  0  0  0  0  0  0  0
  -26.0530  -38.3460   23.9170 H   0  0  0  0  0  0  0  0  0  0  0  0
  -26.3790  -31.7700   25.1630 C   0  0  1  0  0  0  0  0  0  0  0  0
  -25.2770  -31.5480   26.2240 C   0  0  0  0  0  1  0  0  0  0  0  0
  -26.9570  -30.3860   24.7870 C   0  0  0  0  0  1  0  0  0  0  0  0
  -27.5260  -32.5670   25.8280 C   0  0  0  0  0  1  0  0  0  0  0  0
  1 14  1  0
  1 47  1  0
  2 15  1  0
  3  8  1  0
  4  5  1  0
  4  3  1  0
  6  5  1  0
  6 20  1  0
  6  7  1  0
  8  2  1  0
  8  7  1  0
  9  2  2  0
 10 11  1  0
 12 15  1  0
 12 13  1  0
 13 46  1  0
 14 10  1  0
 14 13  1  0
 15 11  1  0
 16 10  2  0
 17 18  2  0
 18 37  1  0
 19 18  1  0
 19 22  1  0
 20 17  1  0
 20 21  1  0
 21 19  2  0
 22 23  1  0
 23 24  2  0
 25 28  1  0
 25 24  1  0
 26 25  2  0
 27 26  1  0
 27 22  2  0
 28 29  1  0
 29 30  1  0
 30 31  2  0
 32 31  1  0
 32 36  1  0
 33 32  2  0
 34 29  2  0
 34 33  1  0
 35 34  1  0
 37 38  1  0
 38 41  1  0
 38 40  1  0
 39 37  2  0
 42 43  1  0
 42 17  1  0
 44 42  1  0
 46 45  2  0
 48 49  1  0
 48 47  1  0
 50 51  1  0
 50 49  1  0
 52 63  2  0
 53 51  1  0
 53 58  1  0
 54 62  1  0
 54 64  1  0
 55 61  1  0
 55 57  1  0
 56 62  1  0
 57 58  2  0
 57 56  1  0
 59 60  1  0
 59 53  2  0
 60 55  2  0
 61 54  1  0
 62 52  1  0
 64 66  2  0
 65 64  1  0
 67 65  1  0
 68 77  2  0
 68 73  1  0
 69 65  1  0
 69 73  1  0
 70 69  1  0
 71 72  1  0
 71 70  1  0
 72 68  1  0
 73 74  2  0
 74 75  1  0
 76 75  2  0
 77 76  1  0
 78 52  1  0
 78 79  1  0
 78 88  1  0
 79 82  1  0
 80 84  1  0
 80 79  1  0
 81 80  2  0
 84 83  1  0
 86 84  1  0
 86 87  1  0
 86 85  1  0
 88 91  1  1
 88 89  1  0
 90 88  1  0
M  ISO  4   2 100  15 100  50 101  51 101
M  END
>  <TORSDO>  (38) 
F 21

>  <SCORE>  (38) 
-13.838

>  <name>  (38) 
38

>  <ligand_id>  (38) 
38

>  <original_smiles>  (38) 
[H]C([H])=C([H])C1([H])N(C([H])([H])C([H])([H])OC([H])([H])C([H])([H])Oc2c([H])c([H])c3c(c2[H])C([H])([H])N(C(=O)C([H])(N([H])C(=O)C([H])(N([H])C([H])([H])[H])C([H])([H])[H])C(C([H])([H])[H])(C([H])([H])[H])C([H])([H])[H])C([H])(C(=O)N([H])C2([H])c4c([H])c([H])c([H])c([H])c4C([H])([H])C([H])([H])C2([H])[H])C3([H])[H])C(=O)C([H])([H])N(C(=O)N2C([H])([H])C([H])([H])C([H])([H])C([H])(n3nc(-c4c([H])c([H])c(Oc5c([H])c([H])c(F)c([H])c5F)c([H])c4[H])c(C(=O)N([H])[H])c3N([H])[H])C2([H])[H])C1([H])[H]

>  <smiles>  (38) 
[H]C([H])=C([H])C1([H])N(C([H])([H])C([H])([H])OC([H])([H])C([H])([H])Oc2c([H])c([H])c3c(c2[H])C([H])([H])N(C(=O)C([H])(N([H])C(=O)C([H])(N([H])C([H])([H])[H])C([H])([H])[H])C(C([H])([H])[H])(C([H])([H])[H])C([H])([H])[H])C([H])(C(=O)N([H])C2([H])c4c([H])c([H])c([H])c([H])c4C([H])([H])C([H])([H])C2([H])[H])C3([H])[H])C(=O)C([H])([H])N(C(=O)N2C([H])([H])C([H])([H])C([H])([H])C([H])(n3nc(-c4c([H])c([H])c(Oc5c([H])c([H])c(F)c([H])c5F)c([H])c4[H])c(C(=O)N([H])[H])c3N([H])[H])C2([H])[H])C1([H])[H]

$$$$
39:0:0
     RDKit          3D

 88 95  0  0  1  0  0  0  0  0999 V2000
  -29.2940  -19.8060   20.5030 C   0  0  0  0  0  0  0  0  0  0  0  0
  -29.0990  -21.1820   19.9590 N   0  0  0  0  0  0  0  0  0  0  0  0
  -29.0840  -19.6950   21.7100 O   0  0  0  0  0  0  0  0  0  0  0  0
  -29.2750  -21.2000   18.9610 H   0  0  0  0  0  0  0  0  0  0  0  0
  -28.8280  -22.7370   20.5580 C   0  0  0  0  0  3  0  0  0  0  0  0
  -28.1620  -24.2940   19.8840 C   0  0  0  0  0  3  0  0  0  0  0  0
  -28.2080  -25.9040   20.3070 O   0  0  0  0  0  0  0  0  0  0  0  0
  -24.5930  -31.8700   23.2180 C   0  0  0  0  0  0  0  0  0  0  0  0
  -27.1890  -26.9990   20.1970 C   0  0  0  0  0  0  0  0  0  0  0  0
  -23.4150  -30.4750   21.5660 C   0  0  0  0  0  3  0  0  0  0  0  0
  -24.8790  -28.8780   20.1420 C   0  0  0  0  0  0  0  0  0  0  0  0
  -25.9810  -30.6890   21.4420 C   0  0  0  0  0  2  0  0  0  0  0  0
  -26.0600  -29.2830   20.7770 C   0  0  0  0  0  0  0  0  0  0  0  0
  -27.2040  -28.3620   20.7810 C   0  0  0  0  0  3  0  0  0  0  0  0
  -25.9790  -26.7530   19.5050 C   0  0  0  0  0  3  0  0  0  0  0  0
  -24.8650  -27.6360   19.4870 C   0  0  0  0  0  3  0  0  0  0  0  0
  -23.6560  -29.7960   20.1890 C   0  0  0  0  0  2  0  0  0  0  0  0
  -24.6850  -31.0390   22.1290 N   0  0  0  0  0  0  0  0  0  0  0  0
  -23.4990  -32.1540   23.7330 O   0  0  0  0  0  0  0  0  0  0  0  0
  -22.7160  -29.4740   22.5260 C   0  0  0  0  0  0  0  0  0  0  0  0
  -21.3860  -29.3140   22.3950 N   0  0  0  0  0  0  0  0  0  0  0  0
  -23.3780  -28.8450   23.3540 O   0  0  0  0  0  0  0  0  0  0  0  0
  -20.9060  -29.8720   21.7030 H   0  0  0  0  0  0  0  0  0  0  0  0
  -17.9990  -28.1140   22.8970 C   0  0  0  0  0  0  0  0  0  0  0  0
  -20.5600  -28.3750   23.1610 C   0  0  0  0  0  3  0  0  0  0  0  0
  -20.6580  -26.9470   22.5760 C   0  0  0  0  0  2  0  0  0  0  0  0
  -19.5550  -26.6340   21.5610 C   0  0  0  0  0  2  0  0  0  0  0  0
  -18.1740  -26.7710   22.2060 C   0  0  0  0  0  2  0  0  0  0  0  0
  -19.1180  -28.8730   23.3310 C   0  0  0  0  0  0  0  0  0  0  0  0
  -18.8970  -30.1280   23.9410 C   0  0  0  0  0  3  0  0  0  0  0  0
  -17.5910  -30.6210   24.1200 C   0  0  0  0  0  3  0  0  0  0  0  0
  -16.4870  -29.8600   23.7000 C   0  0  0  0  0  3  0  0  0  0  0  0
  -16.6910  -28.6080   23.0930 C   0  0  0  0  0  3  0  0  0  0  0  0
  -25.8560  -32.5170   23.8640 C   0  0  0  0  0  3  0  0  0  0  0  0
  -26.3340  -31.7640   25.1670 C   0  0  1  0  0  0  0  0  0  0  0  0
  -25.2130  -31.5550   26.2130 C   0  0  0  0  0  1  0  0  0  0  0  0
  -26.9150  -30.3740   24.8220 C   0  0  0  0  0  1  0  0  0  0  0  0
  -27.4730  -32.5630   25.8440 C   0  0  0  0  0  1  0  0  0  0  0  0
  -25.5390  -33.9220   24.1780 N   0  0  0  0  0  0  0  0  0  0  0  0
  -25.8870  -34.9750   23.4260 C   0  0  0  0  0  0  0  0  0  0  0  0
  -26.5730  -34.8650   22.4070 O   0  0  0  0  0  0  0  0  0  0  0  0
  -24.9310  -34.0790   24.9680 H   0  0  0  0  0  0  0  0  0  0  0  0
  -24.1780  -36.7860   23.0480 C   0  0  0  0  0  1  0  0  0  0  0  0
  -25.4050  -36.3700   23.8760 C   0  0  0  0  0  3  0  0  0  0  0  0
  -27.5280  -37.2490   24.7430 C   0  0  0  0  0  1  0  0  0  0  0  0
  -26.4470  -37.4160   23.7760 N   0  0  0  0  0  0  0  0  0  0  0  0
  -26.0450  -38.3400   23.9070 H   0  0  0  0  0  0  0  0  0  0  0  0
  -29.8000  -18.2950   19.7500 C   0  0  0  0  0  0  0  0  0  0  0  0
  -30.4550  -15.3880   20.0850 C   0  0  0  0  0  0  0  0  0  0  0  0
  -30.3980  -12.9360   19.2240 C   0  0  0  0  0  2  0  0  0  0  0  0
  -29.4620  -12.7470   18.0030 C   0  0  0  0  0  2  0  0  0  0  0  0
  -28.0160  -12.4850   18.4580 C   0  0  0  0  0  2  0  0  0  0  0  0
  -27.5860  -13.4350   19.6050 C   0  0  0  0  0  3  0  0  0  0  0  0
  -28.6550  -13.5750   20.7110 C   0  0  0  0  0  2  0  0  0  0  0  0
  -29.8800  -14.0810   20.0630 N   0  0  0  0  0  0  0  0  0  0  0  0
  -31.6660  -15.3710   19.8180 O   0  0  0  0  0  0  0  0  0  0  0  0
  -29.6930  -16.6660   20.1760 N   0  0  0  0  0  4  0  0  0  0  0  0
  -28.7480  -16.4620   20.4640 H   0  0  0  0  0  0  0  0  0  0  0  0
  -25.2240  -13.9820   20.3920 C   0  0  0  0  0  0  0  0  0  0  0  0
  -24.1700  -13.2050   20.7800 C   0  0  0  0  0  0  0  0  0  0  0  0
  -24.6420  -11.8560   20.7490 C   0  0  0  0  0  0  0  0  0  0  0  0
  -26.2670  -13.1110   20.1350 N   0  0  0  0  0  0  0  0  0  0  0  0
  -25.9300  -11.8240   20.4180 N   0  0  0  0  0  0  0  0  0  0  0  0
  -23.9200  -10.5930   20.9560 C   0  0  0  0  0  0  0  0  0  0  0  0
  -24.3570   -9.6380   21.9000 C   0  0  0  0  0  3  0  0  0  0  0  0
  -23.6320   -8.4410   22.0950 C   0  0  0  0  0  3  0  0  0  0  0  0
  -22.4560   -8.1920   21.3470 C   0  0  0  0  0  0  0  0  0  0  0  0
  -22.0390   -9.1370   20.3930 C   0  0  0  0  0  3  0  0  0  0  0  0
  -22.7630  -10.3250   20.1960 C   0  0  0  0  0  3  0  0  0  0  0  0
  -21.7030   -7.0470   21.4520 O   0  0  0  0  0  0  0  0  0  0  0  0
  -21.6520   -6.3230   22.6150 C   0  0  0  0  0  0  0  0  0  0  0  0
  -21.2010   -6.8890   23.8280 C   0  0  0  0  0  3  0  0  0  0  0  0
  -21.1000   -6.0890   24.9830 C   0  0  0  0  0  3  0  0  0  0  0  0
  -21.4360   -4.7230   24.9280 C   0  0  0  0  0  0  0  0  0  0  0  0
  -21.8760   -4.1560   23.7190 C   0  0  0  0  0  3  0  0  0  0  0  0
  -21.9800   -4.9520   22.5650 C   0  0  0  0  0  0  0  0  0  0  0  0
  -22.3870   -4.3950   21.4000 F   0  0  0  0  0  0  0  0  0  0  0  0
  -21.3300   -3.9530   26.0350 F   0  0  0  0  0  0  0  0  0  0  0  0
  -22.7750  -13.6800   21.0610 C   0  0  0  0  0  0  0  0  0  0  0  0
  -22.0560  -12.9880   21.9380 N   0  0  0  0  0  0  0  0  0  0  0  0
  -22.3310  -14.7010   20.5380 O   0  0  0  0  0  0  0  0  0  0  0  0
  -22.4300  -12.1670   22.3920 H   0  0  0  0  0  0  0  0  0  0  0  0
  -21.1180  -13.2870   22.1640 H   0  0  0  0  0  0  0  0  0  0  0  0
  -25.3760  -15.3520   20.2030 N   0  0  0  0  0  0  0  0  0  0  0  0
  -24.6010  -15.9960   20.3130 H   0  0  0  0  0  0  0  0  0  0  0  0
  -26.1980  -15.7890   19.8080 H   0  0  0  0  0  0  0  0  0  0  0  0
  -31.3830  -18.8780   17.8390 C   0  0  0  0  0  2  0  0  0  0  0  0
  -31.1680  -18.4820   19.1070 C   0  0  0  0  0  3  0  0  0  0  0  0
  1  3  2  0
  2  1  1  0
  2  5  1  0
  4  2  1  0
  6  7  1  0
  6  5  2  0
  8 19  2  0
  9  7  1  0
  9 14  1  0
 10 18  1  0
 10 20  1  0
 11 17  1  0
 11 13  1  0
 12 18  1  0
 13 14  2  0
 13 12  1  0
 15  9  2  0
 16 15  1  0
 16 11  2  0
 17 10  1  0
 18  8  1  0
 20 22  2  0
 21 20  1  0
 23 21  1  0
 24 33  2  0
 24 29  1  0
 25 21  1  0
 25 29  1  0
 26 25  1  0
 27 28  1  0
 27 26  1  0
 28 24  1  0
 29 30  2  0
 30 31  1  0
 32 31  2  0
 33 32  1  0
 34  8  1  0
 34 39  1  0
 34 35  1  0
 35 38  1  1
 35 36  1  0
 37 35  1  0
 39 42  1  0
 40 44  1  0
 40 39  1  0
 41 40  2  0
 44 43  1  0
 46 44  1  0
 46 47  1  0
 46 45  1  0
 48 57  2  0
 48  1  1  0
 49 57  1  0
 50 55  1  0
 51 52  1  0
 51 50  1  0
 53 52  1  0
 53 62  1  0
 53 54  1  0
 55 49  1  0
 55 54  1  0
 56 49  2  0
 57 58  1  0
 59 60  2  0
 60 79  1  0
 61 60  1  0
 61 64  1  0
 62 59  1  0
 62 63  1  0
 63 61  2  0
 64 65  1  0
 65 66  2  0
 67 70  1  0
 67 66  1  0
 68 67  2  0
 69 68  1  0
 69 64  2  0
 70 71  1  0
 71 72  1  0
 72 73  2  0
 74 73  1  0
 74 78  1  0
 75 74  2  0
 76 71  2  0
 76 75  1  0
 77 76  1  0
 79 80  1  0
 80 83  1  0
 80 82  1  0
 81 79  2  0
 84 85  1  0
 84 59  1  0
 86 84  1  0
 87 88  2  0
 88 48  1  0
M  ISO  4   6 101   7 101  49 100  57 100
M  END
>  <TORSDO>  (39) 
F 20

>  <SCORE>  (39) 
-15.682

>  <name>  (39) 
39

>  <ligand_id>  (39) 
39

>  <original_smiles>  (39) 
[H]C([H])=C([H])C([H])(C(=O)N([H])C([H])([H])C([H])([H])Oc1c([H])c([H])c2c(c1[H])C([H])([H])N(C(=O)C([H])(N([H])C(=O)C([H])(N([H])C([H])([H])[H])C([H])([H])[H])C(C([H])([H])[H])(C([H])([H])[H])C([H])([H])[H])C([H])(C(=O)N([H])C1([H])c3c([H])c([H])c([H])c([H])c3C([H])([H])C([H])([H])C1([H])[H])C2([H])[H])N([H])C(=O)N1C([H])([H])C([H])([H])C([H])([H])C([H])(n2nc(-c3c([H])c([H])c(Oc4c([H])c([H])c(F)c([H])c4F)c([H])c3[H])c(C(=O)N([H])[H])c2N([H])[H])C1([H])[H]

>  <smiles>  (39) 
[H]C([H])=C([H])C([H])(C(=O)N([H])C([H])([H])C([H])([H])Oc1c([H])c([H])c2c(c1[H])C([H])([H])N(C(=O)C([H])(N([H])C(=O)C([H])(N([H])C([H])([H])[H])C([H])([H])[H])C(C([H])([H])[H])(C([H])([H])[H])C([H])([H])[H])C([H])(C(=O)N([H])C1([H])c3c([H])c([H])c([H])c([H])c3C([H])([H])C([H])([H])C1([H])[H])C2([H])[H])N([H])C(=O)N1C([H])([H])C([H])([H])C([H])([H])C([H])(n2nc(-c3c([H])c([H])c(Oc4c([H])c([H])c(F)c([H])c4F)c([H])c3[H])c(C(=O)N([H])[H])c2N([H])[H])C1([H])[H]

$$$$
40:0:0
     RDKit          3D

 97104  0  0  1  0  0  0  0  0999 V2000
  -27.5770  -21.3590   20.0850 N   0  0  0  0  0  4  0  0  0  0  0  0
  -28.4150  -21.0320   20.5340 H   0  0  0  0  0  0  0  0  0  0  0  0
  -27.8360  -21.9230   19.2870 H   0  0  0  0  0  0  0  0  0  0  0  0
  -26.8160  -22.2020   21.0390 C   0  0  0  0  0  2  0  0  0  0  0  0
  -27.7510  -23.1730   21.7650 C   0  0  0  0  0  2  0  0  0  0  0  0
  -28.4810  -23.8960   20.7790 O   0  0  0  0  0  0  0  0  0  0  0  0
  -29.5080  -24.7260   21.3170 C   0  0  0  0  0  2  0  0  0  0  0  0
  -28.9810  -26.1370   21.6140 C   0  0  0  0  0  2  0  0  0  0  0  0
  -28.6970  -26.7520   20.3650 O   0  0  0  0  0  0  0  0  0  0  0  0
  -24.6050  -31.8190   23.2230 C   0  0  0  0  0  0  0  0  0  0  0  0
  -27.5200  -27.4490   20.3380 C   0  0  0  0  0  0  0  0  0  0  0  0
  -23.5150  -30.3570   21.5460 C   0  0  0  0  0  3  0  0  0  0  0  0
  -25.0790  -28.8420   20.2190 C   0  0  0  0  0  0  0  0  0  0  0  0
  -26.0310  -30.7950   21.4600 C   0  0  0  0  0  2  0  0  0  0  0  0
  -26.1880  -29.4180   20.8540 C   0  0  0  0  0  0  0  0  0  0  0  0
  -27.4120  -28.7270   20.9230 C   0  0  0  0  0  3  0  0  0  0  0  0
  -26.4090  -26.8750   19.6950 C   0  0  0  0  0  3  0  0  0  0  0  0
  -25.1810  -27.5620   19.6400 C   0  0  0  0  0  3  0  0  0  0  0  0
  -23.8090  -29.6590   20.1890 C   0  0  0  0  0  2  0  0  0  0  0  0
  -24.7320  -31.0080   22.1340 N   0  0  0  0  0  0  0  0  0  0  0  0
  -23.4960  -32.0690   23.7100 O   0  0  0  0  0  0  0  0  0  0  0  0
  -22.8500  -29.3330   22.4940 C   0  0  0  0  0  0  0  0  0  0  0  0
  -21.5360  -29.1230   22.3170 N   0  0  0  0  0  0  0  0  0  0  0  0
  -23.5150  -28.7300   23.3420 O   0  0  0  0  0  0  0  0  0  0  0  0
  -21.0590  -29.6710   21.6150 H   0  0  0  0  0  0  0  0  0  0  0  0
  -18.1620  -27.8910   22.7160 C   0  0  0  0  0  0  0  0  0  0  0  0
  -20.7090  -28.1740   23.0610 C   0  0  0  0  0  3  0  0  0  0  0  0
  -20.8430  -26.7440   22.4890 C   0  0  0  0  0  2  0  0  0  0  0  0
  -19.7740  -26.4060   21.4460 C   0  0  0  0  0  2  0  0  0  0  0  0
  -18.3730  -26.5410   22.0490 C   0  0  0  0  0  2  0  0  0  0  0  0
  -19.2620  -28.6640   23.1760 C   0  0  0  0  0  0  0  0  0  0  0  0
  -19.0130  -29.9290   23.7530 C   0  0  0  0  0  3  0  0  0  0  0  0
  -17.7000  -30.4180   23.8800 C   0  0  0  0  0  3  0  0  0  0  0  0
  -16.6150  -29.6410   23.4380 C   0  0  0  0  0  3  0  0  0  0  0  0
  -16.8470  -28.3800   22.8610 C   0  0  0  0  0  3  0  0  0  0  0  0
  -25.8490  -32.4920   23.8880 C   0  0  0  0  0  3  0  0  0  0  0  0
  -25.4820  -33.8780   24.2100 N   0  0  0  0  0  0  0  0  0  0  0  0
  -25.7940  -34.9410   23.4560 C   0  0  0  0  0  0  0  0  0  0  0  0
  -26.4950  -34.8630   22.4440 O   0  0  0  0  0  0  0  0  0  0  0  0
  -24.8690  -34.0130   25.0010 H   0  0  0  0  0  0  0  0  0  0  0  0
  -24.0050  -36.6600   23.0570 C   0  0  0  0  0  1  0  0  0  0  0  0
  -25.2410  -36.3100   23.8970 C   0  0  0  0  0  3  0  0  0  0  0  0
  -27.3210  -37.2840   24.7710 C   0  0  0  0  0  1  0  0  0  0  0  0
  -26.2340  -37.4030   23.8010 N   0  0  0  0  0  0  0  0  0  0  0  0
  -25.7880  -38.3060   23.9370 H   0  0  0  0  0  0  0  0  0  0  0  0
  -26.3550  -31.7320   25.1760 C   0  0  1  0  0  0  0  0  0  0  0  0
  -25.2330  -31.4210   26.1930 C   0  0  0  0  0  1  0  0  0  0  0  0
  -27.0280  -30.3940   24.7910 C   0  0  0  0  0  1  0  0  0  0  0  0
  -27.4310  -32.5780   25.8930 C   0  0  0  0  0  1  0  0  0  0  0  0
  -26.8540  -20.1830   19.5620 C   0  0  0  0  0  3  0  0  0  0  0  0
  -26.0340  -20.5810   18.3240 C   0  0  0  0  0  0  0  0  0  0  0  0
  -24.9650  -19.8520   18.0210 N   0  0  0  0  0  0  0  0  0  0  0  0
  -26.3750  -21.5390   17.6330 O   0  0  0  0  0  0  0  0  0  0  0  0
  -24.7070  -19.0530   18.5840 H   0  0  0  0  0  0  0  0  0  0  0  0
  -24.4000  -20.0880   17.2180 H   0  0  0  0  0  0  0  0  0  0  0  0
  -27.8470  -19.0610   19.1900 C   0  0  0  0  0  2  0  0  0  0  0  0
  -28.8270  -18.6870   20.3240 C   0  0  0  0  0  2  0  0  0  0  0  0
  -29.3740  -17.2690   20.1530 C   0  0  0  0  0  2  0  0  0  0  0  0
  -30.4720  -16.8880   21.1660 C   0  0  0  0  0  2  0  0  0  0  0  0
  -31.0810  -14.5600   20.5020 C   0  0  0  0  0  0  0  0  0  0  0  0
  -30.7490  -12.4190   19.3350 C   0  0  0  0  0  2  0  0  0  0  0  0
  -29.8060  -12.6280   18.1330 C   0  0  0  0  0  2  0  0  0  0  0  0
  -28.3280  -12.5290   18.5600 C   0  0  0  0  0  2  0  0  0  0  0  0
  -28.0070  -13.3940   19.8040 C   0  0  0  0  0  3  0  0  0  0  0  0
  -29.0440  -13.1420   20.9200 C   0  0  0  0  0  2  0  0  0  0  0  0
  -30.3970  -13.3940   20.3770 N   0  0  0  0  0  0  0  0  0  0  0  0
  -32.1060  -14.8350   19.8710 O   0  0  0  0  0  0  0  0  0  0  0  0
  -30.4880  -15.4400   21.3160 N   0  0  0  0  0  0  0  0  0  0  0  0
  -29.7520  -15.0510   21.8860 H   0  0  0  0  0  0  0  0  0  0  0  0
  -25.6320  -14.0880   20.5250 C   0  0  0  0  0  0  0  0  0  0  0  0
  -24.5360  -13.3470   20.8870 C   0  0  0  0  0  0  0  0  0  0  0  0
  -24.9430  -11.9790   20.8220 C   0  0  0  0  0  0  0  0  0  0  0  0
  -26.6410  -13.1680   20.2760 N   0  0  0  0  0  0  0  0  0  0  0  0
  -26.2270  -11.8950   20.5040 N   0  0  0  0  0  0  0  0  0  0  0  0
  -24.1670  -10.7420   20.9870 C   0  0  0  0  0  0  0  0  0  0  0  0
  -24.5470   -9.7440   21.9120 C   0  0  0  0  0  3  0  0  0  0  0  0
  -23.7680   -8.5760   22.0650 C   0  0  0  0  0  3  0  0  0  0  0  0
  -22.5970   -8.3960   21.2910 C   0  0  0  0  0  0  0  0  0  0  0  0
  -22.2370   -9.3810   20.3550 C   0  0  0  0  0  3  0  0  0  0  0  0
  -23.0160  -10.5400   20.2000 C   0  0  0  0  0  3  0  0  0  0  0  0
  -21.7970   -7.2810   21.3540 O   0  0  0  0  0  0  0  0  0  0  0  0
  -21.6790   -6.5440   22.5060 C   0  0  0  0  0  0  0  0  0  0  0  0
  -21.2280   -7.1170   23.7140 C   0  0  0  0  0  3  0  0  0  0  0  0
  -21.0600   -6.3110   24.8570 C   0  0  0  0  0  3  0  0  0  0  0  0
  -21.3260   -4.9300   24.7920 C   0  0  0  0  0  0  0  0  0  0  0  0
  -21.7680   -4.3560   23.5880 C   0  0  0  0  0  3  0  0  0  0  0  0
  -21.9410   -5.1590   22.4480 C   0  0  0  0  0  0  0  0  0  0  0  0
  -22.3460   -4.5960   21.2830 F   0  0  0  0  0  0  0  0  0  0  0  0
  -21.1570   -4.1530   25.8870 F   0  0  0  0  0  0  0  0  0  0  0  0
  -23.1610  -13.8700   21.1850 C   0  0  0  0  0  0  0  0  0  0  0  0
  -22.4160  -13.1890   22.0530 N   0  0  0  0  0  0  0  0  0  0  0  0
  -22.7540  -14.9170   20.6830 O   0  0  0  0  0  0  0  0  0  0  0  0
  -22.7540  -12.3400   22.4830 H   0  0  0  0  0  0  0  0  0  0  0  0
  -21.4900  -13.5130   22.2850 H   0  0  0  0  0  0  0  0  0  0  0  0
  -25.8530  -15.4520   20.3610 N   0  0  0  0  0  0  0  0  0  0  0  0
  -25.1160  -16.1450   20.4370 H   0  0  0  0  0  0  0  0  0  0  0  0
  -26.7260  -15.8440   20.0340 H   0  0  0  0  0  0  0  0  0  0  0  0
  1  2  1  0
  1  4  1  0
  3  1  1  0
  4  5  1  0
  6  7  1  0
  6  5  1  0
  7  8  1  0
  9  8  1  0
 10 21  2  0
 11  9  1  0
 11 16  1  0
 12 20  1  0
 12 22  1  0
 13 15  1  0
 14 20  1  0
 15 16  2  0
 15 14  1  0
 17 11  2  0
 18 17  1  0
 18 13  2  0
 19 13  1  0
 19 12  1  0
 20 10  1  0
 22 24  2  0
 23 22  1  0
 25 23  1  0
 26 35  2  0
 26 31  1  0
 27 23  1  0
 27 31  1  0
 28 27  1  0
 29 30  1  0
 29 28  1  0
 30 26  1  0
 31 32  2  0
 32 33  1  0
 34 33  2  0
 35 34  1  0
 36 10  1  0
 36 37  1  0
 36 46  1  0
 37 40  1  0
 38 42  1  0
 38 37  1  0
 39 38  2  0
 42 41  1  0
 44 42  1  0
 44 45  1  0
 44 43  1  0
 46 49  1  1
 46 47  1  0
 48 46  1  0
 50 56  1  0
 50  1  1  0
 51 50  1  0
 52 51  1  0
 52 54  1  0
 53 51  2  0
 55 52  1  0
 56 57  1  0
 58 57  1  0
 58 59  1  0
 59 68  1  0
 60 68  1  0
 61 66  1  0
 62 63  1  0
 62 61  1  0
 64 63  1  0
 64 73  1  0
 64 65  1  0
 66 60  1  0
 66 65  1  0
 67 60  2  0
 68 69  1  0
 70 71  2  0
 71 90  1  0
 72 71  1  0
 72 75  1  0
 73 74  1  0
 73 70  1  0
 74 72  2  0
 75 76  1  0
 76 77  2  0
 78 81  1  0
 78 77  1  0
 79 78  2  0
 80 79  1  0
 80 75  2  0
 81 82  1  0
 82 83  1  0
 83 84  2  0
 85 84  1  0
 85 89  1  0
 86 85  2  0
 87 82  2  0
 87 86  1  0
 88 87  1  0
 90 91  1  0
 91 94  1  0
 91 93  1  0
 92 90  2  0
 95 96  1  0
 95 70  1  0
 97 95  1  0
M  ISO  4   8 101   9 101  60 100  68 100
M  END
>  <TORSDO>  (40) 
F 27

>  <SCORE>  (40) 
-10.994

>  <name>  (40) 
40

>  <ligand_id>  (40) 
40

>  <original_smiles>  (40) 
[H]c1c([H])c([H])c2c(c1[H])C([H])([H])C([H])([H])C([H])([H])C2([H])N([H])C(=O)C1([H])N(C(=O)C([H])(N([H])C(=O)C([H])(N([H])C([H])([H])[H])C([H])([H])[H])C(C([H])([H])[H])(C([H])([H])[H])C([H])([H])[H])C([H])([H])c2c([H])c(OC([H])([H])C([H])([H])OC([H])([H])C([H])([H])[N+]([H])([H])C([H])(C(=O)N([H])[H])C([H])([H])C([H])([H])C([H])([H])C([H])([H])N([H])C(=O)N3C([H])([H])C([H])([H])C([H])([H])C([H])(n4nc(-c5c([H])c([H])c(Oc6c([H])c([H])c(F)c([H])c6F)c([H])c5[H])c(C(=O)N([H])[H])c4N([H])[H])C3([H])[H])c([H])c([H])c2C1([H])[H]

>  <smiles>  (40) 
[H]c1c([H])c([H])c2c(c1[H])C([H])([H])C([H])([H])C([H])([H])C2([H])N([H])C(=O)C1([H])N(C(=O)C([H])(N([H])C(=O)C([H])(N([H])C([H])([H])[H])C([H])([H])[H])C(C([H])([H])[H])(C([H])([H])[H])C([H])([H])[H])C([H])([H])c2c([H])c(OC([H])([H])C([H])([H])OC([H])([H])C([H])([H])[N+]([H])([H])C([H])(C(=O)N([H])[H])C([H])([H])C([H])([H])C([H])([H])C([H])([H])N([H])C(=O)N3C([H])([H])C([H])([H])C([H])([H])C([H])(n4nc(-c5c([H])c([H])c(Oc6c([H])c([H])c(F)c([H])c6F)c([H])c5[H])c(C(=O)N([H])[H])c4N([H])[H])C3([H])[H])c([H])c([H])c2C1([H])[H]

$$$$
41:0:0
     RDKit          3D

 93100  0  0  1  0  0  0  0  0999 V2000
  -29.7730  -21.9650   20.4900 C   0  0  0  0  0  0  0  0  0  0  0  0
  -28.9140  -23.0010   20.5760 N   0  0  0  0  0  0  0  0  0  0  0  0
  -30.7790  -22.0080   19.7770 O   0  0  0  0  0  0  0  0  0  0  0  0
  -28.1220  -22.8720   21.1910 H   0  0  0  0  0  0  0  0  0  0  0  0
  -29.6730  -20.9170   22.8450 C   0  0  0  0  0  1  0  0  0  0  0  0
  -29.4730  -20.6950   21.3350 C   0  0  0  0  0  3  0  0  0  0  0  0
  -29.8090  -18.2460   20.7510 C   0  0  0  0  0  0  0  0  0  0  0  0
  -30.2450  -19.5140   20.8950 N   0  0  0  0  0  0  0  0  0  0  0  0
  -28.6570  -17.9000   21.0190 O   0  0  0  0  0  0  0  0  0  0  0  0
  -31.1920  -19.7180   20.6010 H   0  0  0  0  0  0  0  0  0  0  0  0
  -31.0750  -17.5890   18.6900 C   0  0  0  0  0  1  0  0  0  0  0  0
  -30.8090  -17.2160   20.1730 C   0  0  0  0  0  3  0  0  0  0  0  0
  -31.0490  -14.7010   20.0310 C   0  0  0  0  0  0  0  0  0  0  0  0
  -30.7150  -12.4930   19.0000 C   0  0  0  0  0  2  0  0  0  0  0  0
  -29.7260  -12.6470   17.8260 C   0  0  0  0  0  2  0  0  0  0  0  0
  -28.2740  -12.5000   18.3190 C   0  0  0  0  0  2  0  0  0  0  0  0
  -27.9710  -13.3710   19.5660 C   0  0  0  0  0  3  0  0  0  0  0  0
  -29.0790  -13.2310   20.6330 C   0  0  0  0  0  2  0  0  0  0  0  0
  -30.3690  -13.5240   19.9920 N   0  0  0  0  0  0  0  0  0  0  0  0
  -32.2080  -14.7990   19.6250 O   0  0  0  0  0  0  0  0  0  0  0  0
  -30.3350  -15.8130   20.3110 N   0  0  0  0  0  0  0  0  0  0  0  0
  -29.3790  -15.6990   20.6170 H   0  0  0  0  0  0  0  0  0  0  0  0
  -25.6120  -13.9550   20.4220 C   0  0  0  0  0  0  0  0  0  0  0  0
  -24.5660  -13.1710   20.8290 C   0  0  0  0  0  0  0  0  0  0  0  0
  -25.0280  -11.8220   20.7490 C   0  0  0  0  0  0  0  0  0  0  0  0
  -26.6460  -13.0820   20.1160 N   0  0  0  0  0  0  0  0  0  0  0  0
  -26.3010  -11.7940   20.3720 N   0  0  0  0  0  0  0  0  0  0  0  0
  -24.3150  -10.5560   20.9550 C   0  0  0  0  0  0  0  0  0  0  0  0
  -24.7490   -9.6070   21.9060 C   0  0  0  0  0  3  0  0  0  0  0  0
  -24.0320   -8.4060   22.0990 C   0  0  0  0  0  3  0  0  0  0  0  0
  -22.8690   -8.1430   21.3380 C   0  0  0  0  0  0  0  0  0  0  0  0
  -22.4540   -9.0800   20.3750 C   0  0  0  0  0  3  0  0  0  0  0  0
  -23.1720  -10.2710   20.1810 C   0  0  0  0  0  3  0  0  0  0  0  0
  -22.1240   -6.9930   21.4380 O   0  0  0  0  0  0  0  0  0  0  0  0
  -22.0190   -6.3040   22.6190 C   0  0  0  0  0  0  0  0  0  0  0  0
  -21.4800   -6.8970   23.7810 C   0  0  0  0  0  3  0  0  0  0  0  0
  -21.3240   -6.1300   24.9530 C   0  0  0  0  0  3  0  0  0  0  0  0
  -21.6990   -4.7740   24.9630 C   0  0  0  0  0  0  0  0  0  0  0  0
  -22.2310   -4.1810   23.8050 C   0  0  0  0  0  3  0  0  0  0  0  0
  -22.3880   -4.9430   22.6350 C   0  0  0  0  0  0  0  0  0  0  0  0
  -22.8810   -4.3610   21.5160 F   0  0  0  0  0  0  0  0  0  0  0  0
  -21.5410   -4.0360   26.0870 F   0  0  0  0  0  0  0  0  0  0  0  0
  -23.1840  -13.6420   21.1800 C   0  0  0  0  0  0  0  0  0  0  0  0
  -22.5030  -12.9280   22.0680 N   0  0  0  0  0  0  0  0  0  0  0  0
  -22.7220  -14.6810   20.7080 O   0  0  0  0  0  0  0  0  0  0  0  0
  -22.8940  -12.0920   22.4730 H   0  0  0  0  0  0  0  0  0  0  0  0
  -21.5760  -13.2240   22.3460 H   0  0  0  0  0  0  0  0  0  0  0  0
  -25.7630  -15.3290   20.2690 N   0  0  0  0  0  0  0  0  0  0  0  0
  -25.0020  -15.9750   20.4530 H   0  0  0  0  0  0  0  0  0  0  0  0
  -26.6130  -15.7960   19.9750 H   0  0  0  0  0  0  0  0  0  0  0  0
  -28.9770  -24.2910   19.8560 C   0  0  0  0  0  2  0  0  0  0  0  0
  -28.3260  -25.4650   20.6420 C   0  0  0  0  0  2  0  0  0  0  0  0
  -28.4200  -26.7530   19.9890 O   0  0  0  0  0  0  0  0  0  0  0  0
  -24.5760  -31.8540   23.1950 C   0  0  0  0  0  0  0  0  0  0  0  0
  -27.2580  -27.5010   20.0070 C   0  0  0  0  0  0  0  0  0  0  0  0
  -23.3770  -30.4580   21.5500 C   0  0  0  0  0  3  0  0  0  0  0  0
  -24.8390  -28.9790   20.0630 C   0  0  0  0  0  0  0  0  0  0  0  0
  -25.8940  -30.8610   21.3230 C   0  0  0  0  0  2  0  0  0  0  0  0
  -25.9960  -29.5060   20.6530 C   0  0  0  0  0  0  0  0  0  0  0  0
  -27.2090  -28.7800   20.6120 C   0  0  0  0  0  3  0  0  0  0  0  0
  -26.0880  -26.9940   19.4070 C   0  0  0  0  0  3  0  0  0  0  0  0
  -24.8840  -27.7270   19.4290 C   0  0  0  0  0  3  0  0  0  0  0  0
  -23.5810  -29.8150   20.1520 C   0  0  0  0  0  2  0  0  0  0  0  0
  -24.6340  -31.0750   22.0790 N   0  0  0  0  0  0  0  0  0  0  0  0
  -23.4950  -32.0960   23.7530 O   0  0  0  0  0  0  0  0  0  0  0  0
  -22.7600  -29.4040   22.4980 C   0  0  0  0  0  0  0  0  0  0  0  0
  -21.4350  -29.2080   22.3960 N   0  0  0  0  0  0  0  0  0  0  0  0
  -23.4690  -28.7700   23.2830 O   0  0  0  0  0  0  0  0  0  0  0  0
  -20.9260  -29.7890   21.7450 H   0  0  0  0  0  0  0  0  0  0  0  0
  -18.0800  -27.9770   22.9360 C   0  0  0  0  0  0  0  0  0  0  0  0
  -20.6430  -28.2420   23.1550 C   0  0  0  0  0  3  0  0  0  0  0  0
  -20.7390  -26.8290   22.5330 C   0  0  0  0  0  2  0  0  0  0  0  0
  -19.6150  -26.5330   21.5340 C   0  0  0  0  0  2  0  0  0  0  0  0
  -18.2470  -26.6500   22.2130 C   0  0  0  0  0  2  0  0  0  0  0  0
  -19.2050  -28.7330   23.3610 C   0  0  0  0  0  0  0  0  0  0  0  0
  -18.9970  -29.9800   23.9910 C   0  0  0  0  0  3  0  0  0  0  0  0
  -17.6930  -30.4700   24.2020 C   0  0  0  0  0  3  0  0  0  0  0  0
  -16.5840  -29.7090   23.7940 C   0  0  0  0  0  3  0  0  0  0  0  0
  -16.7770  -28.4650   23.1670 C   0  0  0  0  0  3  0  0  0  0  0  0
  -25.8570  -32.4960   23.8090 C   0  0  0  0  0  3  0  0  0  0  0  0
  -25.5350  -33.8900   24.1460 N   0  0  0  0  0  0  0  0  0  0  0  0
  -25.8600  -34.9480   23.3910 C   0  0  0  0  0  0  0  0  0  0  0  0
  -26.5310  -34.8530   22.3580 O   0  0  0  0  0  0  0  0  0  0  0  0
  -24.9410  -34.0350   24.9490 H   0  0  0  0  0  0  0  0  0  0  0  0
  -24.1170  -36.7250   23.0360 C   0  0  0  0  0  1  0  0  0  0  0  0
  -25.3580  -36.3300   23.8520 C   0  0  0  0  0  3  0  0  0  0  0  0
  -27.4830  -37.2300   24.6980 C   0  0  0  0  0  1  0  0  0  0  0  0
  -26.3870  -37.3890   23.7440 N   0  0  0  0  0  0  0  0  0  0  0  0
  -25.9760  -38.3090   23.8800 H   0  0  0  0  0  0  0  0  0  0  0  0
  -26.3860  -31.7230   25.0780 C   0  0  1  0  0  0  0  0  0  0  0  0
  -25.3000  -31.4670   26.1470 C   0  0  0  0  0  1  0  0  0  0  0  0
  -26.9830  -30.3540   24.6770 C   0  0  0  0  0  1  0  0  0  0  0  0
  -27.5300  -32.5230   25.7420 C   0  0  0  0  0  1  0  0  0  0  0  0
  1  2  1  0
  1  6  1  0
  2  4  1  0
  3  1  2  0
  6  5  1  0
  7  8  1  0
  7  9  2  0
  8  6  1  0
 10  8  1  0
 12 11  1  0
 12 21  1  0
 12  7  1  0
 13 21  1  0
 14 19  1  0
 15 16  1  0
 15 14  1  0
 17 16  1  0
 17 26  1  0
 17 18  1  0
 19 13  1  0
 19 18  1  0
 20 13  2  0
 21 22  1  0
 23 24  2  0
 24 43  1  0
 25 24  1  0
 25 28  1  0
 26 27  1  0
 26 23  1  0
 27 25  2  0
 28 29  1  0
 29 30  2  0
 31 34  1  0
 31 30  1  0
 32 31  2  0
 33 32  1  0
 33 28  2  0
 34 35  1  0
 35 40  2  0
 35 36  1  0
 36 37  2  0
 37 38  1  0
 38 42  1  0
 39 38  2  0
 40 39  1  0
 41 40  1  0
 43 44  1  0
 44 47  1  0
 44 46  1  0
 45 43  2  0
 48 23  1  0
 48 49  1  0
 50 48  1  0
 51  2  1  0
 51 52  1  0
 53 55  1  0
 53 52  1  0
 54 65  2  0
 55 60  1  0
 56 64  1  0
 56 66  1  0
 57 63  1  0
 57 59  1  0
 58 64  1  0
 59 58  1  0
 60 59  2  0
 61 62  1  0
 61 55  2  0
 62 57  2  0
 63 56  1  0
 64 54  1  0
 66 68  2  0
 67 66  1  0
 69 67  1  0
 70 79  2  0
 70 75  1  0
 71 67  1  0
 71 75  1  0
 72 71  1  0
 73 74  1  0
 73 72  1  0
 74 70  1  0
 75 76  2  0
 76 77  1  0
 78 77  2  0
 79 78  1  0
 80 54  1  0
 80 81  1  0
 80 90  1  0
 81 84  1  0
 82 86  1  0
 82 81  1  0
 83 82  2  0
 86 85  1  0
 88 86  1  0
 88 89  1  0
 88 87  1  0
 90 93  1  1
 90 91  1  0
 92 90  1  0
M  ISO  4  13 100  21 100  52 101  53 101
M  END
>  <TORSDO>  (41) 
F 21

>  <SCORE>  (41) 
-12.650

>  <name>  (41) 
41

>  <ligand_id>  (41) 
41

>  <original_smiles>  (41) 
[H]c1c([H])c([H])c2c(c1[H])C([H])([H])C([H])([H])C([H])([H])C2([H])N([H])C(=O)C1([H])N(C(=O)C([H])(N([H])C(=O)C([H])(N([H])C([H])([H])[H])C([H])([H])[H])C(C([H])([H])[H])(C([H])([H])[H])C([H])([H])[H])C([H])([H])c2c([H])c(OC([H])([H])C([H])([H])N([H])C(=O)C([H])(N([H])C(=O)C([H])(N([H])C(=O)N3C([H])([H])C([H])([H])C([H])([H])C([H])(n4nc(-c5c([H])c([H])c(Oc6c([H])c([H])c(F)c([H])c6F)c([H])c5[H])c(C(=O)N([H])[H])c4N([H])[H])C3([H])[H])C([H])([H])[H])C([H])([H])[H])c([H])c([H])c2C1([H])[H]

>  <smiles>  (41) 
[H]c1c([H])c([H])c2c(c1[H])C([H])([H])C([H])([H])C([H])([H])C2([H])N([H])C(=O)C1([H])N(C(=O)C([H])(N([H])C(=O)C([H])(N([H])C([H])([H])[H])C([H])([H])[H])C(C([H])([H])[H])(C([H])([H])[H])C([H])([H])[H])C([H])([H])c2c([H])c(OC([H])([H])C([H])([H])N([H])C(=O)C([H])(N([H])C(=O)C([H])(N([H])C(=O)N3C([H])([H])C([H])([H])C([H])([H])C([H])(n4nc(-c5c([H])c([H])c(Oc6c([H])c([H])c(F)c([H])c6F)c([H])c5[H])c(C(=O)N([H])[H])c4N([H])[H])C3([H])[H])C([H])([H])[H])C([H])([H])[H])c([H])c([H])c2C1([H])[H]

$$$$
42:0:0
     RDKit          3D

 90 97  0  0  1  0  0  0  0  0999 V2000
  -29.0830  -19.8480   20.3340 C   0  0  0  0  0  0  0  0  0  0  0  0
  -29.0600  -21.2610   19.8580 N   0  0  0  0  0  0  0  0  0  0  0  0
  -28.3850  -19.6210   21.3220 O   0  0  0  0  0  0  0  0  0  0  0  0
  -29.5530  -21.3440   18.9780 H   0  0  0  0  0  0  0  0  0  0  0  0
  -28.6940  -22.7870   20.4680 C   0  0  0  0  0  2  0  0  0  0  0  0
  -28.1000  -24.3570   19.7830 C   0  0  0  0  0  2  0  0  0  0  0  0
  -28.1640  -25.9520   20.2380 O   0  0  0  0  0  0  0  0  0  0  0  0
  -24.5840  -31.8980   23.2100 C   0  0  0  0  0  0  0  0  0  0  0  0
  -27.1510  -27.0470   20.1440 C   0  0  0  0  0  0  0  0  0  0  0  0
  -23.3940  -30.5150   21.5580 C   0  0  0  0  0  3  0  0  0  0  0  0
  -24.8460  -28.9260   20.1170 C   0  0  0  0  0  0  0  0  0  0  0  0
  -25.9600  -30.7290   21.4180 C   0  0  0  0  0  2  0  0  0  0  0  0
  -26.0310  -29.3260   20.7470 C   0  0  0  0  0  0  0  0  0  0  0  0
  -27.1740  -28.4060   20.7400 C   0  0  0  0  0  3  0  0  0  0  0  0
  -25.9390  -26.8060   19.4590 C   0  0  0  0  0  3  0  0  0  0  0  0
  -24.8250  -27.6880   19.4550 C   0  0  0  0  0  3  0  0  0  0  0  0
  -23.6240  -29.8420   20.1760 C   0  0  0  0  0  2  0  0  0  0  0  0
  -24.6670  -31.0750   22.1160 N   0  0  0  0  0  0  0  0  0  0  0  0
  -23.4930  -32.1820   23.7330 O   0  0  0  0  0  0  0  0  0  0  0  0
  -22.6990  -29.5110   22.5150 C   0  0  0  0  0  0  0  0  0  0  0  0
  -21.3680  -29.3490   22.3910 N   0  0  0  0  0  0  0  0  0  0  0  0
  -23.3640  -28.8770   23.3380 O   0  0  0  0  0  0  0  0  0  0  0  0
  -20.8830  -29.9100   21.7040 H   0  0  0  0  0  0  0  0  0  0  0  0
  -17.9830  -28.1520   22.9080 C   0  0  0  0  0  0  0  0  0  0  0  0
  -20.5460  -28.4050   23.1550 C   0  0  0  0  0  3  0  0  0  0  0  0
  -20.6370  -26.9810   22.5580 C   0  0  0  0  0  2  0  0  0  0  0  0
  -19.5270  -26.6780   21.5480 C   0  0  0  0  0  2  0  0  0  0  0  0
  -18.1500  -26.8150   22.2060 C   0  0  0  0  0  2  0  0  0  0  0  0
  -19.1070  -28.9060   23.3390 C   0  0  0  0  0  0  0  0  0  0  0  0
  -18.8940  -30.1560   23.9600 C   0  0  0  0  0  3  0  0  0  0  0  0
  -17.5910  -30.6530   24.1500 C   0  0  0  0  0  3  0  0  0  0  0  0
  -16.4820  -29.8970   23.7330 C   0  0  0  0  0  3  0  0  0  0  0  0
  -16.6790  -28.6480   23.1180 C   0  0  0  0  0  3  0  0  0  0  0  0
  -25.8530  -32.5380   23.8510 C   0  0  0  0  0  3  0  0  0  0  0  0
  -26.3390  -31.7800   25.1490 C   0  0  1  0  0  0  0  0  0  0  0  0
  -25.2230  -31.5650   26.1990 C   0  0  0  0  0  1  0  0  0  0  0  0
  -26.9200  -30.3930   24.7970 C   0  0  0  0  0  1  0  0  0  0  0  0
  -27.4820  -32.5770   25.8210 C   0  0  0  0  0  1  0  0  0  0  0  0
  -25.5410  -33.9420   24.1710 N   0  0  0  0  0  0  0  0  0  0  0  0
  -25.8880  -34.9960   23.4220 C   0  0  0  0  0  0  0  0  0  0  0  0
  -26.5660  -34.8890   22.3970 O   0  0  0  0  0  0  0  0  0  0  0  0
  -24.9370  -34.0990   24.9640 H   0  0  0  0  0  0  0  0  0  0  0  0
  -24.1850  -36.8150   23.0530 C   0  0  0  0  0  1  0  0  0  0  0  0
  -25.4100  -36.3910   23.8780 C   0  0  0  0  0  3  0  0  0  0  0  0
  -27.5380  -37.2590   24.7470 C   0  0  0  0  0  1  0  0  0  0  0  0
  -26.4560  -37.4330   23.7820 N   0  0  0  0  0  0  0  0  0  0  0  0
  -26.0580  -38.3590   23.9160 H   0  0  0  0  0  0  0  0  0  0  0  0
  -30.0050  -18.4350   19.7950 C   0  0  0  0  0  3  0  0  0  0  0  0
  -30.4520  -15.4470   19.8640 C   0  0  0  0  0  0  0  0  0  0  0  0
  -30.3270  -13.0170   18.9500 C   0  0  0  0  0  2  0  0  0  0  0  0
  -29.3240  -12.8210   17.7860 C   0  0  0  0  0  2  0  0  0  0  0  0
  -27.9180  -12.5300   18.3350 C   0  0  0  0  0  2  0  0  0  0  0  0
  -27.5460  -13.4750   19.5040 C   0  0  0  0  0  3  0  0  0  0  0  0
  -28.6740  -13.6280   20.5500 C   0  0  0  0  0  2  0  0  0  0  0  0
  -29.8470  -14.1520   19.8300 N   0  0  0  0  0  0  0  0  0  0  0  0
  -31.6470  -15.3670   19.5520 O   0  0  0  0  0  0  0  0  0  0  0  0
  -29.7650  -16.7680   20.0550 N   0  0  0  0  0  0  0  0  0  0  0  0
  -28.8070  -16.6110   20.3310 H   0  0  0  0  0  0  0  0  0  0  0  0
  -25.2380  -13.9990   20.4430 C   0  0  0  0  0  0  0  0  0  0  0  0
  -24.2070  -13.2080   20.8660 C   0  0  0  0  0  0  0  0  0  0  0  0
  -24.6760  -11.8620   20.7700 C   0  0  0  0  0  0  0  0  0  0  0  0
  -26.2630  -13.1360   20.1040 N   0  0  0  0  0  0  0  0  0  0  0  0
  -25.9430  -11.8430   20.3690 N   0  0  0  0  0  0  0  0  0  0  0  0
  -23.9670  -10.5910   20.9760 C   0  0  0  0  0  0  0  0  0  0  0  0
  -24.4360   -9.6230   21.8920 C   0  0  0  0  0  3  0  0  0  0  0  0
  -23.7230   -8.4210   22.0900 C   0  0  0  0  0  3  0  0  0  0  0  0
  -22.5280   -8.1780   21.3720 C   0  0  0  0  0  0  0  0  0  0  0  0
  -22.0790   -9.1350   20.4440 C   0  0  0  0  0  3  0  0  0  0  0  0
  -22.7930  -10.3280   20.2450 C   0  0  0  0  0  3  0  0  0  0  0  0
  -21.7840   -7.0280   21.4790 O   0  0  0  0  0  0  0  0  0  0  0  0
  -21.7490   -6.2980   22.6410 C   0  0  0  0  0  0  0  0  0  0  0  0
  -21.2870   -6.8530   23.8560 C   0  0  0  0  0  3  0  0  0  0  0  0
  -21.2020   -6.0480   25.0090 C   0  0  0  0  0  3  0  0  0  0  0  0
  -21.5680   -4.6910   24.9510 C   0  0  0  0  0  0  0  0  0  0  0  0
  -22.0230   -4.1350   23.7420 C   0  0  0  0  0  3  0  0  0  0  0  0
  -22.1090   -4.9360   22.5900 C   0  0  0  0  0  0  0  0  0  0  0  0
  -22.5270   -4.3910   21.4210 F   0  0  0  0  0  0  0  0  0  0  0  0
  -21.4790   -3.9160   26.0570 F   0  0  0  0  0  0  0  0  0  0  0  0
  -22.8300  -13.6730   21.2370 C   0  0  0  0  0  0  0  0  0  0  0  0
  -22.1590  -12.9530   22.1280 N   0  0  0  0  0  0  0  0  0  0  0  0
  -22.3600  -14.7100   20.7720 O   0  0  0  0  0  0  0  0  0  0  0  0
  -22.5530  -12.1140   22.5270 H   0  0  0  0  0  0  0  0  0  0  0  0
  -21.2360  -13.2470   22.4160 H   0  0  0  0  0  0  0  0  0  0  0  0
  -25.3810  -15.3760   20.2870 N   0  0  0  0  0  0  0  0  0  0  0  0
  -24.6250  -16.0220   20.4790 H   0  0  0  0  0  0  0  0  0  0  0  0
  -26.1940  -15.8270   19.8880 H   0  0  0  0  0  0  0  0  0  0  0  0
  -31.9510  -20.2420   20.1130 C   0  0  0  0  0  1  0  0  0  0  0  0
  -32.4500  -18.1220   19.0250 C   0  0  0  0  0  1  0  0  0  0  0  0
  -31.8990  -18.2470   21.5380 C   0  0  0  0  0  1  0  0  0  0  0  0
  -31.5370  -18.7430   20.1150 C   0  0  2  0  0  0  0  0  0  0  0  0
  1  3  2  0
  2  1  1  0
  2  5  1  0
  4  2  1  0
  6  7  1  0
  6  5  1  0
  8 19  2  0
  9  7  1  0
  9 14  1  0
 10 18  1  0
 10 20  1  0
 11 17  1  0
 11 13  1  0
 12 18  1  0
 13 12  1  0
 14 13  2  0
 15  9  2  0
 16 15  1  0
 16 11  2  0
 17 10  1  0
 18  8  1  0
 20 22  2  0
 21 20  1  0
 23 21  1  0
 24 33  2  0
 24 29  1  0
 25 21  1  0
 25 29  1  0
 26 25  1  0
 27 28  1  0
 27 26  1  0
 28 24  1  0
 29 30  2  0
 30 31  1  0
 32 31  2  0
 33 32  1  0
 34  8  1  0
 34 39  1  0
 34 35  1  0
 35 38  1  1
 35 36  1  0
 37 35  1  0
 39 42  1  0
 40 44  1  0
 40 39  1  0
 41 40  2  0
 44 43  1  0
 46 44  1  0
 46 47  1  0
 46 45  1  0
 48 57  1  0
 48 90  1  0
 48  1  1  0
 49 57  1  0
 50 55  1  0
 51 52  1  0
 51 50  1  0
 53 52  1  0
 53 62  1  0
 53 54  1  0
 55 49  1  0
 55 54  1  0
 56 49  2  0
 57 58  1  0
 59 60  2  0
 60 79  1  0
 61 60  1  0
 61 64  1  0
 62 63  1  0
 62 59  1  0
 63 61  2  0
 64 65  1  0
 65 66  2  0
 67 70  1  0
 67 66  1  0
 68 67  2  0
 69 68  1  0
 69 64  2  0
 70 71  1  0
 71 72  1  0
 72 73  2  0
 74 73  1  0
 74 78  1  0
 75 74  2  0
 76 71  2  0
 76 75  1  0
 77 76  1  0
 79 80  1  0
 80 83  1  0
 80 82  1  0
 81 79  2  0
 84 59  1  0
 84 85  1  0
 86 84  1  0
 90 87  1  1
 88 90  1  0
 90 89  1  0
M  ISO  4   6 101   7 101  49 100  57 100
M  END
>  <TORSDO>  (42) 
F 20

>  <SCORE>  (42) 
-15.783

>  <name>  (42) 
42

>  <ligand_id>  (42) 
42

>  <original_smiles>  (42) 
[H]c1c([H])c([H])c2c(c1[H])C([H])([H])C([H])([H])C([H])([H])C2([H])N([H])C(=O)C1([H])N(C(=O)C([H])(N([H])C(=O)C([H])(N([H])C([H])([H])[H])C([H])([H])[H])C(C([H])([H])[H])(C([H])([H])[H])C([H])([H])[H])C([H])([H])c2c([H])c(OC([H])([H])C([H])([H])N([H])C(=O)C([H])(N([H])C(=O)N3C([H])([H])C([H])([H])C([H])([H])C([H])(n4nc(-c5c([H])c([H])c(Oc6c([H])c([H])c(F)c([H])c6F)c([H])c5[H])c(C(=O)N([H])[H])c4N([H])[H])C3([H])[H])C(C([H])([H])[H])(C([H])([H])[H])C([H])([H])[H])c([H])c([H])c2C1([H])[H]

>  <smiles>  (42) 
[H]c1c([H])c([H])c2c(c1[H])C([H])([H])C([H])([H])C([H])([H])C2([H])N([H])C(=O)C1([H])N(C(=O)C([H])(N([H])C(=O)C([H])(N([H])C([H])([H])[H])C([H])([H])[H])C(C([H])([H])[H])(C([H])([H])[H])C([H])([H])[H])C([H])([H])c2c([H])c(OC([H])([H])C([H])([H])N([H])C(=O)C([H])(N([H])C(=O)N3C([H])([H])C([H])([H])C([H])([H])C([H])(n4nc(-c5c([H])c([H])c(Oc6c([H])c([H])c(F)c([H])c6F)c([H])c5[H])c(C(=O)N([H])[H])c4N([H])[H])C3([H])[H])C(C([H])([H])[H])(C([H])([H])[H])C([H])([H])[H])c([H])c([H])c2C1([H])[H]

$$$$
43:0:0
     RDKit          3D

 93100  0  0  1  0  0  0  0  0999 V2000
  -30.4760  -22.4100   20.8850 C   0  0  0  0  0  2  0  0  0  0  0  0
  -29.3010  -23.2020   20.4590 N   0  0  0  0  0  4  0  0  0  0  0  0
  -28.5450  -23.0000   21.0960 H   0  0  0  0  0  0  0  0  0  0  0  0
  -29.0200  -22.8790   19.5460 H   0  0  0  0  0  0  0  0  0  0  0  0
  -29.5070  -24.6710   20.4190 C   0  0  0  0  0  2  0  0  0  0  0  0
  -28.2460  -25.3960   19.9170 C   0  0  0  0  0  2  0  0  0  0  0  0
  -28.3360  -26.8070   20.1340 O   0  0  0  0  0  0  0  0  0  0  0  0
  -24.5130  -31.8990   23.2820 C   0  0  0  0  0  0  0  0  0  0  0  0
  -27.1490  -27.5100   20.1290 C   0  0  0  0  0  0  0  0  0  0  0  0
  -23.2990  -30.5160   21.6310 C   0  0  0  0  0  3  0  0  0  0  0  0
  -24.7450  -29.0030   20.1760 C   0  0  0  0  0  0  0  0  0  0  0  0
  -25.8220  -30.8880   21.4130 C   0  0  0  0  0  2  0  0  0  0  0  0
  -25.9050  -29.5240   20.7610 C   0  0  0  0  0  0  0  0  0  0  0  0
  -27.1090  -28.7850   20.7340 C   0  0  0  0  0  3  0  0  0  0  0  0
  -25.9660  -27.0020   19.5370 C   0  0  0  0  0  3  0  0  0  0  0  0
  -24.7690  -27.7400   19.5630 C   0  0  0  0  0  3  0  0  0  0  0  0
  -23.5000  -29.8580   20.2410 C   0  0  0  0  0  2  0  0  0  0  0  0
  -24.5640  -31.1130   22.1690 N   0  0  0  0  0  0  0  0  0  0  0  0
  -23.4350  -32.1630   23.8310 O   0  0  0  0  0  0  0  0  0  0  0  0
  -22.6570  -29.4780   22.5790 C   0  0  0  0  0  0  0  0  0  0  0  0
  -21.3390  -29.2720   22.4360 N   0  0  0  0  0  0  0  0  0  0  0  0
  -23.3420  -28.8610   23.4010 O   0  0  0  0  0  0  0  0  0  0  0  0
  -20.8460  -29.8250   21.7480 H   0  0  0  0  0  0  0  0  0  0  0  0
  -17.9790  -28.0170   22.8790 C   0  0  0  0  0  0  0  0  0  0  0  0
  -20.5280  -28.3200   23.1950 C   0  0  0  0  0  3  0  0  0  0  0  0
  -20.6670  -26.8910   22.6220 C   0  0  0  0  0  2  0  0  0  0  0  0
  -19.5870  -26.5480   21.5900 C   0  0  0  0  0  2  0  0  0  0  0  0
  -18.1910  -26.6690   22.2100 C   0  0  0  0  0  2  0  0  0  0  0  0
  -19.0780  -28.7990   23.3260 C   0  0  0  0  0  0  0  0  0  0  0  0
  -18.8280  -30.0580   23.9120 C   0  0  0  0  0  3  0  0  0  0  0  0
  -17.5130  -30.5380   24.0560 C   0  0  0  0  0  3  0  0  0  0  0  0
  -16.4290  -29.7550   23.6250 C   0  0  0  0  0  3  0  0  0  0  0  0
  -16.6620  -28.4960   23.0410 C   0  0  0  0  0  3  0  0  0  0  0  0
  -25.8010  -32.5250   23.9000 C   0  0  0  0  0  3  0  0  0  0  0  0
  -25.5100  -33.9330   24.1960 N   0  0  0  0  0  0  0  0  0  0  0  0
  -25.8480  -34.9620   23.4070 C   0  0  0  0  0  0  0  0  0  0  0  0
  -26.5090  -34.8240   22.3750 O   0  0  0  0  0  0  0  0  0  0  0  0
  -24.9230  -34.1160   24.9970 H   0  0  0  0  0  0  0  0  0  0  0  0
  -24.1250  -36.7540   23.0250 C   0  0  0  0  0  1  0  0  0  0  0  0
  -25.3760  -36.3660   23.8310 C   0  0  0  0  0  3  0  0  0  0  0  0
  -27.5240  -37.2600   24.6070 C   0  0  0  0  0  1  0  0  0  0  0  0
  -26.4130  -37.4090   23.6730 N   0  0  0  0  0  0  0  0  0  0  0  0
  -26.0150  -38.3360   23.7970 H   0  0  0  0  0  0  0  0  0  0  0  0
  -26.2950  -31.7720   25.1950 C   0  0  1  0  0  0  0  0  0  0  0  0
  -25.1870  -31.5660   26.2550 C   0  0  0  0  0  1  0  0  0  0  0  0
  -26.8670  -30.3830   24.8270 C   0  0  0  0  0  1  0  0  0  0  0  0
  -27.4430  -32.5670   25.8580 C   0  0  0  0  0  1  0  0  0  0  0  0
  -30.1360  -20.9120   21.0330 C   0  0  0  0  0  2  0  0  0  0  0  0
  -31.3670  -20.0510   21.3750 C   0  0  0  0  0  2  0  0  0  0  0  0
  -30.5700  -17.6650   21.2210 C   0  0  0  0  0  0  0  0  0  0  0  0
  -31.0290  -18.7260   21.8990 N   0  0  0  0  0  0  0  0  0  0  0  0
  -30.2440  -17.7230   20.0340 O   0  0  0  0  0  0  0  0  0  0  0  0
  -31.2480  -18.5650   22.8720 H   0  0  0  0  0  0  0  0  0  0  0  0
  -31.8210  -15.9270   22.6620 C   0  0  0  0  0  1  0  0  0  0  0  0
  -30.4820  -16.3480   22.0200 C   0  0  0  0  0  3  0  0  0  0  0  0
  -30.3390  -14.5130   20.2760 C   0  0  0  0  0  0  0  0  0  0  0  0
  -29.9580  -12.5200   18.8620 C   0  0  0  0  0  2  0  0  0  0  0  0
  -28.9250  -12.8180   17.7590 C   0  0  0  0  0  2  0  0  0  0  0  0
  -27.4910  -12.5960   18.2770 C   0  0  0  0  0  2  0  0  0  0  0  0
  -27.2330  -13.3000   19.6360 C   0  0  0  0  0  3  0  0  0  0  0  0
  -28.3640  -12.9840   20.6360 C   0  0  0  0  0  2  0  0  0  0  0  0
  -29.6440  -13.3740   20.0160 N   0  0  0  0  0  0  0  0  0  0  0  0
  -31.3460  -14.8480   19.6460 O   0  0  0  0  0  0  0  0  0  0  0  0
  -29.8530  -15.2390   21.2930 N   0  0  0  0  0  0  0  0  0  0  0  0
  -28.9860  -14.8990   21.6820 H   0  0  0  0  0  0  0  0  0  0  0  0
  -24.8520  -13.7760   20.4960 C   0  0  0  0  0  0  0  0  0  0  0  0
  -23.8440  -12.9440   20.9020 C   0  0  0  0  0  0  0  0  0  0  0  0
  -24.3630  -11.6170   20.8060 C   0  0  0  0  0  0  0  0  0  0  0  0
  -25.9210  -12.9510   20.1790 N   0  0  0  0  0  0  0  0  0  0  0  0
  -25.6320  -11.6460   20.4220 N   0  0  0  0  0  0  0  0  0  0  0  0
  -23.7080  -10.3180   21.0030 C   0  0  0  0  0  0  0  0  0  0  0  0
  -24.2120   -9.3690   21.9200 C   0  0  0  0  0  3  0  0  0  0  0  0
  -23.5570   -8.1330   22.1040 C   0  0  0  0  0  3  0  0  0  0  0  0
  -22.3840   -7.8350   21.3690 C   0  0  0  0  0  0  0  0  0  0  0  0
  -21.9000   -8.7730   20.4400 C   0  0  0  0  0  3  0  0  0  0  0  0
  -22.5570  -10.0010   20.2550 C   0  0  0  0  0  3  0  0  0  0  0  0
  -21.6960   -6.6490   21.4630 O   0  0  0  0  0  0  0  0  0  0  0  0
  -21.6860   -5.9130   22.6200 C   0  0  0  0  0  0  0  0  0  0  0  0
  -21.2230   -6.4500   23.8410 C   0  0  0  0  0  3  0  0  0  0  0  0
  -21.1640   -5.6360   24.9910 C   0  0  0  0  0  3  0  0  0  0  0  0
  -21.5580   -4.2870   24.9200 C   0  0  0  0  0  0  0  0  0  0  0  0
  -22.0130   -3.7490   23.7030 C   0  0  0  0  0  3  0  0  0  0  0  0
  -22.0740   -4.5590   22.5560 C   0  0  0  0  0  0  0  0  0  0  0  0
  -22.4940   -4.0310   21.3810 F   0  0  0  0  0  0  0  0  0  0  0  0
  -21.4930   -3.5020   26.0210 F   0  0  0  0  0  0  0  0  0  0  0  0
  -22.4440  -13.3470   21.2710 C   0  0  0  0  0  0  0  0  0  0  0  0
  -21.8030  -12.5930   22.1570 N   0  0  0  0  0  0  0  0  0  0  0  0
  -21.9280  -14.3640   20.8100 O   0  0  0  0  0  0  0  0  0  0  0  0
  -22.2310  -11.7690   22.5520 H   0  0  0  0  0  0  0  0  0  0  0  0
  -20.8660  -12.8430   22.4430 H   0  0  0  0  0  0  0  0  0  0  0  0
  -24.9460  -15.1570   20.3490 N   0  0  0  0  0  0  0  0  0  0  0  0
  -24.1630  -15.7790   20.5160 H   0  0  0  0  0  0  0  0  0  0  0  0
  -25.7620  -15.6370   19.9880 H   0  0  0  0  0  0  0  0  0  0  0  0
  1 48  1  0
  2  1  1  0
  2  3  1  0
  4  2  1  0
  5  2  1  0
  6  7  1  0
  6  5  1  0
  8 19  2  0
  9  7  1  0
  9 14  1  0
 10 18  1  0
 10 20  1  0
 11 17  1  0
 11 13  1  0
 12 18  1  0
 13 12  1  0
 14 13  2  0
 15 16  1  0
 15  9  2  0
 16 11  2  0
 17 10  1  0
 18  8  1  0
 20 22  2  0
 21 20  1  0
 23 21  1  0
 24 33  2  0
 24 29  1  0
 25 21  1  0
 25 29  1  0
 26 25  1  0
 27 28  1  0
 27 26  1  0
 28 24  1  0
 29 30  2  0
 30 31  1  0
 32 31  2  0
 33 32  1  0
 34  8  1  0
 34 35  1  0
 34 44  1  0
 35 38  1  0
 36 40  1  0
 36 35  1  0
 37 36  2  0
 40 39  1  0
 42 43  1  0
 42 40  1  0
 42 41  1  0
 44 47  1  1
 44 45  1  0
 46 44  1  0
 48 49  1  0
 49 51  1  0
 50 51  1  0
 50 55  1  0
 51 53  1  0
 52 50  2  0
 55 54  1  0
 56 64  1  0
 57 62  1  0
 58 59  1  0
 58 57  1  0
 60 59  1  0
 60 69  1  0
 60 61  1  0
 62 56  1  0
 62 61  1  0
 63 56  2  0
 64 65  1  0
 64 55  1  0
 66 67  2  0
 67 86  1  0
 68 67  1  0
 68 71  1  0
 69 70  1  0
 69 66  1  0
 70 68  2  0
 71 72  1  0
 72 73  2  0
 74 77  1  0
 74 73  1  0
 75 74  2  0
 76 75  1  0
 76 71  2  0
 77 78  1  0
 78 79  1  0
 79 80  2  0
 81 80  1  0
 81 85  1  0
 82 81  2  0
 83 78  2  0
 83 82  1  0
 84 83  1  0
 86 87  1  0
 87 90  1  0
 87 89  1  0
 88 86  2  0
 91 66  1  0
 91 92  1  0
 93 91  1  0
M  ISO  4   6 101   7 101  56 100  64 100
M  END
>  <TORSDO>  (43) 
F 23

>  <SCORE>  (43) 
-10.870

>  <name>  (43) 
43

>  <ligand_id>  (43) 
43

>  <original_smiles>  (43) 
[H]c1c([H])c([H])c2c(c1[H])C([H])([H])C([H])([H])C([H])([H])C2([H])N([H])C(=O)C1([H])N(C(=O)C([H])(N([H])C(=O)C([H])(N([H])C([H])([H])[H])C([H])([H])[H])C(C([H])([H])[H])(C([H])([H])[H])C([H])([H])[H])C([H])([H])c2c([H])c(OC([H])([H])C([H])([H])[N+]([H])([H])C([H])([H])C([H])([H])C([H])([H])N([H])C(=O)C([H])(N([H])C(=O)N3C([H])([H])C([H])([H])C([H])([H])C([H])(n4nc(-c5c([H])c([H])c(Oc6c([H])c([H])c(F)c([H])c6F)c([H])c5[H])c(C(=O)N([H])[H])c4N([H])[H])C3([H])[H])C([H])([H])[H])c([H])c([H])c2C1([H])[H]

>  <smiles>  (43) 
[H]c1c([H])c([H])c2c(c1[H])C([H])([H])C([H])([H])C([H])([H])C2([H])N([H])C(=O)C1([H])N(C(=O)C([H])(N([H])C(=O)C([H])(N([H])C([H])([H])[H])C([H])([H])[H])C(C([H])([H])[H])(C([H])([H])[H])C([H])([H])[H])C([H])([H])c2c([H])c(OC([H])([H])C([H])([H])[N+]([H])([H])C([H])([H])C([H])([H])C([H])([H])N([H])C(=O)C([H])(N([H])C(=O)N3C([H])([H])C([H])([H])C([H])([H])C([H])(n4nc(-c5c([H])c([H])c(Oc6c([H])c([H])c(F)c([H])c6F)c([H])c5[H])c(C(=O)N([H])[H])c4N([H])[H])C3([H])[H])C([H])([H])[H])c([H])c([H])c2C1([H])[H]

$$$$
44:0:0
     RDKit          3D

102109  0  0  1  0  0  0  0  0999 V2000
  -28.9830  -22.3620   20.3880 C   0  0  0  0  0  3  0  0  0  0  0  0
  -29.7110  -19.6720   20.3570 C   0  0  0  0  0  0  0  0  0  0  0  0
  -29.3230  -20.9240   19.7800 N   0  0  0  0  0  0  0  0  0  0  0  0
  -29.8810  -19.6140   21.5740 O   0  0  0  0  0  0  0  0  0  0  0  0
  -29.2020  -20.8590   18.7790 H   0  0  0  0  0  0  0  0  0  0  0  0
  -30.0540  -18.2600   19.5470 C   0  0  0  0  0  3  0  0  0  0  0  0
  -30.7400  -15.6220   20.1020 C   0  0  0  0  0  0  0  0  0  0  0  0
  -30.7550  -13.1750   19.4470 C   0  0  0  0  0  2  0  0  0  0  0  0
  -29.8590  -12.9520   18.2070 C   0  0  0  0  0  2  0  0  0  0  0  0
  -28.4020  -12.7020   18.6340 C   0  0  0  0  0  2  0  0  0  0  0  0
  -27.9190  -13.7170   19.7050 C   0  0  0  0  0  3  0  0  0  0  0  0
  -28.9470  -13.9250   20.8410 C   0  0  0  0  0  2  0  0  0  0  0  0
  -30.2070  -14.3370   20.2120 N   0  0  0  0  0  0  0  0  0  0  0  0
  -31.9230  -15.6860   19.7540 O   0  0  0  0  0  0  0  0  0  0  0  0
  -29.9280  -16.7930   20.1650 N   0  0  0  0  0  0  0  0  0  0  0  0
  -29.0140  -16.6270   20.5560 H   0  0  0  0  0  0  0  0  0  0  0  0
  -25.5480  -14.2390   20.5090 C   0  0  0  0  0  0  0  0  0  0  0  0
  -24.4990  -13.4390   20.8680 C   0  0  0  0  0  0  0  0  0  0  0  0
  -24.9740  -12.0960   20.7710 C   0  0  0  0  0  0  0  0  0  0  0  0
  -26.5950  -13.3820   20.2150 N   0  0  0  0  0  0  0  0  0  0  0  0
  -26.2590  -12.0840   20.4350 N   0  0  0  0  0  0  0  0  0  0  0  0
  -24.2610  -10.8190   20.9210 C   0  0  0  0  0  0  0  0  0  0  0  0
  -24.6510   -9.8610   21.8830 C   0  0  0  0  0  3  0  0  0  0  0  0
  -23.9350   -8.6520   22.0230 C   0  0  0  0  0  3  0  0  0  0  0  0
  -22.8140   -8.3920   21.1990 C   0  0  0  0  0  0  0  0  0  0  0  0
  -22.4420   -9.3390   20.2290 C   0  0  0  0  0  3  0  0  0  0  0  0
  -23.1590  -10.5390   20.0870 C   0  0  0  0  0  3  0  0  0  0  0  0
  -22.0740   -7.2350   21.2470 O   0  0  0  0  0  0  0  0  0  0  0  0
  -21.8870   -6.5470   22.4180 C   0  0  0  0  0  0  0  0  0  0  0  0
  -21.2770   -7.1420   23.5430 C   0  0  0  0  0  3  0  0  0  0  0  0
  -21.0410   -6.3780   24.7030 C   0  0  0  0  0  3  0  0  0  0  0  0
  -21.4070   -5.0200   24.7380 C   0  0  0  0  0  0  0  0  0  0  0  0
  -22.0110   -4.4230   23.6170 C   0  0  0  0  0  3  0  0  0  0  0  0
  -22.2480   -5.1840   22.4600 C   0  0  0  0  0  0  0  0  0  0  0  0
  -22.8100   -4.6000   21.3730 F   0  0  0  0  0  0  0  0  0  0  0  0
  -21.1760   -4.2840   25.8490 F   0  0  0  0  0  0  0  0  0  0  0  0
  -23.1040  -13.8920   21.1870 C   0  0  0  0  0  0  0  0  0  0  0  0
  -22.4070  -13.1650   22.0530 N   0  0  0  0  0  0  0  0  0  0  0  0
  -22.6420  -14.9230   20.7030 O   0  0  0  0  0  0  0  0  0  0  0  0
  -22.7950  -12.3290   22.4650 H   0  0  0  0  0  0  0  0  0  0  0  0
  -21.4720  -13.4480   22.3070 H   0  0  0  0  0  0  0  0  0  0  0  0
  -25.6950  -15.6160   20.3830 N   0  0  0  0  0  0  0  0  0  0  0  0
  -24.9160  -16.2530   20.5090 H   0  0  0  0  0  0  0  0  0  0  0  0
  -26.5200  -16.0720   20.0190 H   0  0  0  0  0  0  0  0  0  0  0  0
  -31.4940  -18.4390   19.0000 C   0  0  0  0  0  2  0  0  0  0  0  0
  -32.4840  -18.3090   20.0150 O   0  0  0  0  0  0  0  0  0  0  0  0
  -32.2680  -18.9140   20.7180 H   0  0  0  0  0  0  0  0  0  0  0  0
  -27.6090  -22.3100   21.1150 C   0  0  0  0  0  2  0  0  0  0  0  0
  -27.4810  -23.1620   22.3930 C   0  0  0  0  0  2  0  0  0  0  0  0
  -26.5510  -24.3760   22.2280 C   0  0  0  0  0  2  0  0  0  0  0  0
  -26.8470  -25.4880   23.2520 C   0  0  0  0  0  2  0  0  0  0  0  0
  -26.2590  -26.7800   22.8540 N   0  0  0  0  0  4  0  0  0  0  0  0
  -26.6170  -27.0750   21.9640 H   0  0  0  0  0  0  0  0  0  0  0  0
  -26.4920  -27.4850   23.5280 H   0  0  0  0  0  0  0  0  0  0  0  0
  -25.2570  -26.7220   22.8000 H   0  0  0  0  0  0  0  0  0  0  0  0
  -29.0510  -23.8370   19.5340 C   0  0  0  0  0  3  0  0  0  0  0  0
  -28.8370  -23.5570   18.1000 N   0  0  0  0  0  4  0  0  0  0  0  0
  -27.9220  -23.1780   17.9220 H   0  0  0  0  0  0  0  0  0  0  0  0
  -29.5270  -22.9140   17.7540 H   0  0  0  0  0  0  0  0  0  0  0  0
  -28.9290  -24.4060   17.5700 H   0  0  0  0  0  0  0  0  0  0  0  0
  -28.1720  -25.2360   19.9490 C   0  0  0  0  0  2  0  0  0  0  0  0
  -28.3190  -26.7230   19.4760 O   0  0  0  0  0  0  0  0  0  0  0  0
  -24.7240  -32.0050   23.2040 C   0  0  0  0  0  0  0  0  0  0  0  0
  -27.2360  -27.6700   19.6000 C   0  0  0  0  0  0  0  0  0  0  0  0
  -23.4600  -30.7030   21.5370 C   0  0  0  0  0  3  0  0  0  0  0  0
  -24.8560  -29.3240   19.8820 C   0  0  0  0  0  0  0  0  0  0  0  0
  -25.9850  -31.0870   21.2210 C   0  0  0  0  0  2  0  0  0  0  0  0
  -26.0610  -29.7580   20.4470 C   0  0  0  0  0  0  0  0  0  0  0  0
  -27.2510  -28.9490   20.2910 C   0  0  0  0  0  3  0  0  0  0  0  0
  -26.0010  -27.3520   18.9920 C   0  0  0  0  0  3  0  0  0  0  0  0
  -24.8380  -28.1370   19.1350 C   0  0  0  0  0  3  0  0  0  0  0  0
  -23.6030  -30.1610   20.0920 C   0  0  0  0  0  2  0  0  0  0  0  0
  -24.7470  -31.2840   22.0410 N   0  0  0  0  0  0  0  0  0  0  0  0
  -23.6690  -32.1970   23.8280 O   0  0  0  0  0  0  0  0  0  0  0  0
  -22.8910  -29.5880   22.4490 C   0  0  0  0  0  0  0  0  0  0  0  0
  -21.5890  -29.2820   22.3030 N   0  0  0  0  0  0  0  0  0  0  0  0
  -23.6210  -29.0000   23.2500 O   0  0  0  0  0  0  0  0  0  0  0  0
  -21.0490  -29.8160   21.6360 H   0  0  0  0  0  0  0  0  0  0  0  0
  -18.3760  -27.6440   22.6590 C   0  0  0  0  0  0  0  0  0  0  0  0
  -20.8670  -28.2330   23.0280 C   0  0  0  0  0  3  0  0  0  0  0  0
  -21.1770  -26.8350   22.4430 C   0  0  0  0  0  2  0  0  0  0  0  0
  -20.1670  -26.3920   21.3820 C   0  0  0  0  0  2  0  0  0  0  0  0
  -18.7540  -26.3420   21.9730 C   0  0  0  0  0  2  0  0  0  0  0  0
  -19.3690  -28.5390   23.1400 C   0  0  0  0  0  0  0  0  0  0  0  0
  -18.9630  -29.7480   23.7430 C   0  0  0  0  0  3  0  0  0  0  0  0
  -17.5980  -30.0690   23.8710 C   0  0  0  0  0  3  0  0  0  0  0  0
  -16.6200  -29.1730   23.4040 C   0  0  0  0  0  3  0  0  0  0  0  0
  -17.0100  -27.9630   22.8030 C   0  0  0  0  0  3  0  0  0  0  0  0
  -26.0190  -32.6400   23.7930 C   0  0  0  0  0  3  0  0  0  0  0  0
  -25.6920  -34.0120   24.2120 N   0  0  0  0  0  0  0  0  0  0  0  0
  -25.9640  -35.1140   23.5000 C   0  0  0  0  0  0  0  0  0  0  0  0
  -26.5810  -35.0810   22.4320 O   0  0  0  0  0  0  0  0  0  0  0  0
  -25.1350  -34.1070   25.0480 H   0  0  0  0  0  0  0  0  0  0  0  0
  -24.1780  -36.8810   23.3450 C   0  0  0  0  0  1  0  0  0  0  0  0
  -25.4750  -36.4650   24.0590 C   0  0  0  0  0  3  0  0  0  0  0  0
  -27.6310  -37.3670   24.8110 C   0  0  0  0  0  1  0  0  0  0  0  0
  -26.4750  -37.5490   23.9390 N   0  0  0  0  0  0  0  0  0  0  0  0
  -26.0580  -38.4520   24.1520 H   0  0  0  0  0  0  0  0  0  0  0  0
  -26.6110  -31.8230   25.0080 C   0  0  1  0  0  0  0  0  0  0  0  0
  -25.5740  -31.5090   26.1130 C   0  0  0  0  0  1  0  0  0  0  0  0
  -27.2040  -30.4760   24.5290 C   0  0  0  0  0  1  0  0  0  0  0  0
  -27.7760  -32.6110   25.6490 C   0  0  0  0  0  1  0  0  0  0  0  0
  1 48  1  0
  2  4  2  0
  3  2  1  0
  3  1  1  0
  5  3  1  0
  6 45  1  0
  6 15  1  0
  6  2  1  0
  7 15  1  0
  7 13  1  0
  8 13  1  0
  9 10  1  0
  9  8  1  0
 11 10  1  0
 11 20  1  0
 11 12  1  0
 13 12  1  0
 14  7  2  0
 15 16  1  0
 17 18  2  0
 18 37  1  0
 19 18  1  0
 19 22  1  0
 20 21  1  0
 20 17  1  0
 21 19  2  0
 22 23  1  0
 23 24  2  0
 25 28  1  0
 25 24  1  0
 26 25  2  0
 27 26  1  0
 27 22  2  0
 28 29  1  0
 29 34  2  0
 29 30  1  0
 30 31  2  0
 31 32  1  0
 32 36  1  0
 33 32  2  0
 34 33  1  0
 35 34  1  0
 37 38  1  0
 38 41  1  0
 38 40  1  0
 39 37  2  0
 42 17  1  0
 42 43  1  0
 44 42  1  0
 45 46  1  0
 46 47  1  0
 48 49  1  0
 50 49  1  0
 50 51  1  0
 52 51  1  0
 52 54  1  0
 53 52  1  0
 55 52  1  0
 56 61  1  0
 56  1  1  0
 57 56  1  0
 58 57  1  0
 59 57  1  0
 60 57  1  0
 62 64  1  0
 62 61  1  0
 63 74  2  0
 64 69  1  0
 65 73  1  0
 65 75  1  0
 66 72  1  0
 66 68  1  0
 67 73  1  0
 68 67  1  0
 69 68  2  0
 70 71  1  0
 70 64  2  0
 71 66  2  0
 72 65  1  0
 73 63  1  0
 75 77  2  0
 76 75  1  0
 78 76  1  0
 79 88  2  0
 79 84  1  0
 80 76  1  0
 80 84  1  0
 81 80  1  0
 82 83  1  0
 82 81  1  0
 83 79  1  0
 84 85  2  0
 85 86  1  0
 87 86  2  0
 88 87  1  0
 89 63  1  0
 89 90  1  0
 89 99  1  0
 90 93  1  0
 91 95  1  0
 91 90  1  0
 92 91  2  0
 95 94  1  0
 97 95  1  0
 97 98  1  0
 97 96  1  0
 99102  1  1
 99100  1  0
101 99  1  0
M  ISO  4   7 100  15 100  61 101  62 101
M  END
>  <TORSDO>  (44) 
F 28

>  <SCORE>  (44) 
-11.091

>  <name>  (44) 
44

>  <ligand_id>  (44) 
44

>  <original_smiles>  (44) 
[H]OC([H])([H])C([H])(C(=O)N([H])C([H])(C([H])([H])C([H])([H])C([H])([H])C([H])([H])[N+]([H])([H])[H])C([H])(C([H])([H])Oc1c([H])c([H])c2c(c1[H])C([H])([H])N(C(=O)C([H])(N([H])C(=O)C([H])(N([H])C([H])([H])[H])C([H])([H])[H])C(C([H])([H])[H])(C([H])([H])[H])C([H])([H])[H])C([H])(C(=O)N([H])C1([H])c3c([H])c([H])c([H])c([H])c3C([H])([H])C([H])([H])C1([H])[H])C2([H])[H])[N+]([H])([H])[H])N([H])C(=O)N1C([H])([H])C([H])([H])C([H])([H])C([H])(n2nc(-c3c([H])c([H])c(Oc4c([H])c([H])c(F)c([H])c4F)c([H])c3[H])c(C(=O)N([H])[H])c2N([H])[H])C1([H])[H]

>  <smiles>  (44) 
[H]OC([H])([H])C([H])(C(=O)N([H])C([H])(C([H])([H])C([H])([H])C([H])([H])C([H])([H])[N+]([H])([H])[H])C([H])(C([H])([H])Oc1c([H])c([H])c2c(c1[H])C([H])([H])N(C(=O)C([H])(N([H])C(=O)C([H])(N([H])C([H])([H])[H])C([H])([H])[H])C(C([H])([H])[H])(C([H])([H])[H])C([H])([H])[H])C([H])(C(=O)N([H])C1([H])c3c([H])c([H])c([H])c([H])c3C([H])([H])C([H])([H])C1([H])[H])C2([H])[H])[N+]([H])([H])[H])N([H])C(=O)N1C([H])([H])C([H])([H])C([H])([H])C([H])(n2nc(-c3c([H])c([H])c(Oc4c([H])c([H])c(F)c([H])c4F)c([H])c3[H])c(C(=O)N([H])[H])c2N([H])[H])C1([H])[H]

$$$$
45:0:0
     RDKit          3D

 96104  0  0  1  0  0  0  0  0999 V2000
  -36.9860  -23.9850   14.6710 C   0  0  0  0  0  3  0  0  0  0  0  0
  -37.6240  -22.8170   15.1340 C   0  0  0  0  0  3  0  0  0  0  0  0
  -37.2900  -25.2340   15.2460 C   0  0  0  0  0  3  0  0  0  0  0  0
  -38.8730  -24.1470   16.7450 C   0  0  0  0  0  3  0  0  0  0  0  0
  -38.5700  -22.8910   16.1820 C   0  0  0  0  0  0  0  0  0  0  0  0
  -38.2560  -25.3210   16.2770 C   0  0  0  0  0  0  0  0  0  0  0  0
  -37.9720  -27.2280   17.8430 C   0  0  0  0  0  0  0  0  0  0  0  0
  -38.6340  -26.5300   16.9100 N   0  0  0  0  0  0  0  0  0  0  0  0
  -36.9330  -26.8420   18.3840 O   0  0  0  0  0  0  0  0  0  0  0  0
  -39.4390  -26.9980   16.5180 H   0  0  0  0  0  0  0  0  0  0  0  0
  -38.5910  -28.5840   18.2010 C   0  0  0  0  0  2  0  0  0  0  0  0
  -39.5790  -28.5190   19.3750 C   0  0  0  0  0  2  0  0  0  0  0  0
  -39.0550  -29.2700   20.4600 O   0  0  0  0  0  0  0  0  0  0  0  0
  -41.0340  -29.9970   27.3000 C   0  0  0  0  0  0  0  0  0  0  0  0
  -39.1960  -28.7540   21.7230 C   0  0  0  0  0  0  0  0  0  0  0  0
  -40.3470  -27.7270   26.5880 C   0  0  0  0  0  3  0  0  0  0  0  0
  -39.2840  -27.5710   24.2790 C   0  0  0  0  0  0  0  0  0  0  0  0
  -39.4330  -29.7990   25.4060 C   0  0  0  0  0  2  0  0  0  0  0  0
  -39.3440  -28.9630   24.1490 C   0  0  0  0  0  0  0  0  0  0  0  0
  -39.3070  -29.5630   22.8760 C   0  0  0  0  0  3  0  0  0  0  0  0
  -39.1420  -27.3550   21.8630 C   0  0  0  0  0  3  0  0  0  0  0  0
  -39.1940  -26.7560   23.1370 C   0  0  0  0  0  3  0  0  0  0  0  0
  -39.3070  -27.0130   25.6820 C   0  0  0  0  0  2  0  0  0  0  0  0
  -40.3160  -29.2180   26.4420 N   0  0  0  0  0  0  0  0  0  0  0  0
  -41.6790  -29.4960   28.2310 O   0  0  0  0  0  0  0  0  0  0  0  0
  -41.7370  -27.1150   26.3080 C   0  0  0  0  0  0  0  0  0  0  0  0
  -42.0480  -26.0050   26.9950 N   0  0  0  0  0  0  0  0  0  0  0  0
  -42.4910  -27.6160   25.4690 O   0  0  0  0  0  0  0  0  0  0  0  0
  -41.3740  -25.6580   27.6630 H   0  0  0  0  0  0  0  0  0  0  0  0
  -44.2170  -23.6930   28.7220 C   0  0  0  0  0  0  0  0  0  0  0  0
  -43.2830  -25.2340   26.8680 C   0  0  0  0  0  3  0  0  0  0  0  0
  -43.0490  -23.9420   26.0510 C   0  0  0  0  0  2  0  0  0  0  0  0
  -42.7180  -22.7290   26.9240 C   0  0  0  0  0  2  0  0  0  0  0  0
  -43.8500  -22.4560   27.9190 C   0  0  0  0  0  2  0  0  0  0  0  0
  -43.9360  -24.9970   28.2360 C   0  0  0  0  0  0  0  0  0  0  0  0
  -44.2630  -26.1120   29.0370 C   0  0  0  0  0  3  0  0  0  0  0  0
  -44.8640  -25.9400   30.2980 C   0  0  0  0  0  3  0  0  0  0  0  0
  -45.1550  -24.6490   30.7670 C   0  0  0  0  0  3  0  0  0  0  0  0
  -44.8350  -23.5290   29.9790 C   0  0  0  0  0  3  0  0  0  0  0  0
  -41.0580  -31.5520   27.1660 C   0  0  0  0  0  3  0  0  0  0  0  0
  -39.6800  -32.0290   27.3400 N   0  0  0  0  0  0  0  0  0  0  0  0
  -39.0660  -32.8920   26.5190 C   0  0  0  0  0  0  0  0  0  0  0  0
  -39.6340  -33.4310   25.5650 O   0  0  0  0  0  0  0  0  0  0  0  0
  -39.1380  -31.5920   28.0700 H   0  0  0  0  0  0  0  0  0  0  0  0
  -36.7090  -32.5920   25.6960 C   0  0  0  0  0  1  0  0  0  0  0  0
  -37.5840  -33.2060   26.8000 C   0  0  0  0  0  3  0  0  0  0  0  0
  -37.8640  -35.2580   28.1180 C   0  0  0  0  0  1  0  0  0  0  0  0
  -37.3000  -34.6520   26.9140 N   0  0  0  0  0  0  0  0  0  0  0  0
  -36.2980  -34.8220   26.9140 H   0  0  0  0  0  0  0  0  0  0  0  0
  -42.0280  -32.2510   28.1970 C   0  0  1  0  0  0  0  0  0  0  0  0
  -41.8410  -31.7660   29.6510 C   0  0  0  0  0  1  0  0  0  0  0  0
  -43.5060  -32.0110   27.8050 C   0  0  0  0  0  1  0  0  0  0  0  0
  -41.8050  -33.7820   28.1710 C   0  0  0  0  0  1  0  0  0  0  0  0
  -39.2830  -21.6770   16.7680 C   0  0  0  0  0  2  0  0  0  0  0  0
  -39.8470  -20.6360   15.7910 C   0  0  0  0  0  2  0  0  0  0  0  0
  -41.1980  -20.3260   16.0950 O   0  0  0  0  0  0  0  0  0  0  0  0
  -41.5370  -19.0030   15.7020 C   0  0  0  0  0  2  0  0  0  0  0  0
  -41.8020  -18.9910   14.1960 C   0  0  0  0  0  2  0  0  0  0  0  0
  -40.6470  -20.1880   12.4150 C   0  0  0  0  0  0  0  0  0  0  0  0
  -38.6190  -19.5580   11.1710 C   0  0  0  0  0  2  0  0  0  0  0  0
  -37.5680  -20.6850   11.1810 C   0  0  0  0  0  2  0  0  0  0  0  0
  -36.6830  -20.5960   12.4390 C   0  0  0  0  0  2  0  0  0  0  0  0
  -37.5080  -20.4520   13.7420 C   0  0  0  0  0  3  0  0  0  0  0  0
  -38.5720  -19.3460   13.5940 C   0  0  0  0  0  2  0  0  0  0  0  0
  -39.4040  -19.6360   12.4090 N   0  0  0  0  0  0  0  0  0  0  0  0
  -41.1820  -20.6900   11.4260 O   0  0  0  0  0  0  0  0  0  0  0  0
  -41.2850  -20.2110   13.5840 N   0  0  0  0  0  0  0  0  0  0  0  0
  -41.9600  -20.9600   13.6410 H   0  0  0  0  0  0  0  0  0  0  0  0
  -36.9800  -19.8260   16.1860 C   0  0  0  0  0  0  0  0  0  0  0  0
  -35.8100  -19.8090   16.8940 C   0  0  0  0  0  0  0  0  0  0  0  0
  -34.7880  -20.2020   15.9760 C   0  0  0  0  0  0  0  0  0  0  0  0
  -36.6420  -20.2100   14.8970 N   0  0  0  0  0  0  0  0  0  0  0  0
  -35.3020  -20.3850   14.7670 N   0  0  0  0  0  0  0  0  0  0  0  0
  -33.3610  -20.4730   16.1920 C   0  0  0  0  0  0  0  0  0  0  0  0
  -32.6230  -19.7890   17.1830 C   0  0  0  0  0  3  0  0  0  0  0  0
  -31.2560  -20.0790   17.3820 C   0  0  0  0  0  3  0  0  0  0  0  0
  -30.6170  -21.0630   16.5910 C   0  0  0  0  0  0  0  0  0  0  0  0
  -31.3510  -21.7230   15.5910 C   0  0  0  0  0  3  0  0  0  0  0  0
  -32.7100  -21.4290   15.3900 C   0  0  0  0  0  3  0  0  0  0  0  0
  -29.2860  -21.3910   16.6980 O   0  0  0  0  0  0  0  0  0  0  0  0
  -28.8790  -22.6770   16.9450 C   0  0  0  0  0  0  0  0  0  0  0  0
  -29.0840  -23.7170   16.0110 C   0  0  0  0  0  3  0  0  0  0  0  0
  -28.5870  -25.0090   16.2750 C   0  0  0  0  0  3  0  0  0  0  0  0
  -27.8780  -25.2620   17.4640 C   0  0  0  0  0  0  0  0  0  0  0  0
  -27.6680  -24.2270   18.3940 C   0  0  0  0  0  3  0  0  0  0  0  0
  -28.1660  -22.9380   18.1310 C   0  0  0  0  0  0  0  0  0  0  0  0
  -27.9410  -21.9400   19.0200 F   0  0  0  0  0  0  0  0  0  0  0  0
  -27.3950  -26.5010   17.7160 F   0  0  0  0  0  0  0  0  0  0  0  0
  -35.6560  -19.5380   18.3640 C   0  0  0  0  0  0  0  0  0  0  0  0
  -34.4670  -19.1300   18.7920 N   0  0  0  0  0  0  0  0  0  0  0  0
  -36.6100  -19.6420   19.1360 O   0  0  0  0  0  0  0  0  0  0  0  0
  -33.6880  -19.0250   18.1580 H   0  0  0  0  0  0  0  0  0  0  0  0
  -34.3340  -18.9170   19.7690 H   0  0  0  0  0  0  0  0  0  0  0  0
  -38.3040  -19.5640   16.5320 N   0  0  0  0  0  0  0  0  0  0  0  0
  -38.5760  -19.3130   17.4770 H   0  0  0  0  0  0  0  0  0  0  0  0
  -39.0910  -19.6590   15.9040 H   0  0  0  0  0  0  0  0  0  0  0  0
  1  2  2  0
  1  3  1  0
  2  5  1  0
  3  6  2  0
  5  4  2  0
  5 54  1  0
  6  4  1  0
  6  8  1  0
  7 11  1  0
  7  9  2  0
  8  7  1  0
 10  8  1  0
 11 12  1  0
 12 13  1  0
 13 15  1  0
 14 25  2  0
 15 21  2  0
 15 20  1  0
 16 26  1  0
 17 23  1  0
 18 24  1  0
 19 17  1  0
 19 18  1  0
 20 19  2  0
 21 22  1  0
 22 17  2  0
 23 16  1  0
 24 16  1  0
 24 14  1  0
 26 27  1  0
 27 29  1  0
 28 26  2  0
 30 39  1  0
 31 27  1  0
 31 35  1  0
 32 31  1  0
 32 33  1  0
 33 34  1  0
 34 30  1  0
 35 30  2  0
 35 36  1  0
 36 37  2  0
 37 38  1  0
 39 38  2  0
 40 14  1  0
 40 41  1  0
 40 50  1  0
 41 44  1  0
 42 46  1  0
 42 41  1  0
 43 42  2  0
 46 45  1  0
 46 48  1  0
 48 49  1  0
 48 47  1  0
 50 51  1  1
 52 50  1  0
 53 50  1  0
 55 56  1  0
 55 54  1  0
 57 56  1  0
 58 57  1  0
 59 67  1  0
 60 61  1  0
 60 65  1  0
 61 62  1  0
 63 62  1  0
 63 72  1  0
 64 63  1  0
 65 59  1  0
 65 64  1  0
 66 59  2  0
 67 68  1  0
 67 58  1  0
 69 94  1  0
 69 70  2  0
 70 89  1  0
 71 74  1  0
 71 70  1  0
 72 69  1  0
 73 72  1  0
 73 71  2  0
 74 75  1  0
 75 76  2  0
 77 80  1  0
 77 76  1  0
 78 77  2  0
 79 78  1  0
 79 74  2  0
 80 81  1  0
 81 86  1  0
 82 83  1  0
 82 81  2  0
 83 84  2  0
 84 88  1  0
 84 85  1  0
 86 85  2  0
 86 87  1  0
 89 90  1  0
 89 91  2  0
 90 93  1  0
 92 90  1  0
 94 95  1  0
 96 94  1  0
M  ISO  4  12 101  13 101  59 100  67 100
M  END
>  <TORSDO>  (45) 
F 24

>  <SCORE>  (45) 
4.100

>  <name>  (45) 
45

>  <ligand_id>  (45) 
45

>  <original_smiles>  (45) 
[H]c1c([H])c(N([H])C(=O)C([H])([H])C([H])([H])Oc2c([H])c([H])c3c(c2[H])C([H])([H])N(C(=O)C([H])(N([H])C(=O)C([H])(N([H])C([H])([H])[H])C([H])([H])[H])C(C([H])([H])[H])(C([H])([H])[H])C([H])([H])[H])C([H])(C(=O)N([H])C2([H])c4c([H])c([H])c([H])c([H])c4C([H])([H])C([H])([H])C2([H])[H])C3([H])[H])c([H])c(C([H])([H])C([H])([H])OC([H])([H])C([H])([H])N([H])C(=O)N2C([H])([H])C([H])([H])C([H])([H])C([H])(n3nc(-c4c([H])c([H])c(Oc5c([H])c([H])c(F)c([H])c5F)c([H])c4[H])c(C(=O)N([H])[H])c3N([H])[H])C2([H])[H])c1[H]

>  <smiles>  (45) 
[H]c1c([H])c(N([H])C(=O)C([H])([H])C([H])([H])Oc2c([H])c([H])c3c(c2[H])C([H])([H])N(C(=O)C([H])(N([H])C(=O)C([H])(N([H])C([H])([H])[H])C([H])([H])[H])C(C([H])([H])[H])(C([H])([H])[H])C([H])([H])[H])C([H])(C(=O)N([H])C2([H])c4c([H])c([H])c([H])c([H])c4C([H])([H])C([H])([H])C2([H])[H])C3([H])[H])c([H])c(C([H])([H])C([H])([H])OC([H])([H])C([H])([H])N([H])C(=O)N2C([H])([H])C([H])([H])C([H])([H])C([H])(n3nc(-c4c([H])c([H])c(Oc5c([H])c([H])c(F)c([H])c5F)c([H])c4[H])c(C(=O)N([H])[H])c3N([H])[H])C2([H])[H])c1[H]

$$$$
46:0:0
     RDKit          3D

 95102  0  0  1  0  0  0  0  0999 V2000
  -29.9190  -18.1980   20.3790 C   0  0  0  0  0  0  0  0  0  0  0  0
  -29.3000  -19.3630   20.7140 N   0  0  0  0  0  0  0  0  0  0  0  0
  -30.6410  -18.1170   19.3850 O   0  0  0  0  0  0  0  0  0  0  0  0
  -28.6160  -19.3320   21.4590 H   0  0  0  0  0  0  0  0  0  0  0  0
  -29.6210  -20.7230   20.1940 C   0  0  0  0  0  2  0  0  0  0  0  0
  -28.4760  -21.7960   20.2830 C   0  0  0  0  0  2  0  0  0  0  0  0
  -28.9780  -23.1450   20.4440 O   0  0  0  0  0  0  0  0  0  0  0  0
  -28.0870  -24.2330   20.0820 C   0  0  0  0  0  2  0  0  0  0  0  0
  -28.4220  -25.5850   20.8030 C   0  0  0  0  0  2  0  0  0  0  0  0
  -28.3250  -26.8070   20.0330 O   0  0  0  0  0  0  0  0  0  0  0  0
  -24.5610  -31.9870   23.2590 C   0  0  0  0  0  0  0  0  0  0  0  0
  -27.1540  -27.5370   20.1210 C   0  0  0  0  0  0  0  0  0  0  0  0
  -23.3290  -30.5950   21.6270 C   0  0  0  0  0  3  0  0  0  0  0  0
  -24.7590  -29.0560   20.1730 C   0  0  0  0  0  0  0  0  0  0  0  0
  -25.8520  -30.9480   21.3900 C   0  0  0  0  0  2  0  0  0  0  0  0
  -25.9270  -29.5780   20.7420 C   0  0  0  0  0  0  0  0  0  0  0  0
  -27.1300  -28.8290   20.7050 C   0  0  0  0  0  3  0  0  0  0  0  0
  -25.9660  -27.0300   19.5550 C   0  0  0  0  0  3  0  0  0  0  0  0
  -24.7730  -27.7830   19.5760 C   0  0  0  0  0  3  0  0  0  0  0  0
  -23.5170  -29.9200   20.2420 C   0  0  0  0  0  2  0  0  0  0  0  0
  -24.6010  -31.1930   22.1510 N   0  0  0  0  0  0  0  0  0  0  0  0
  -23.4890  -32.2570   23.8190 O   0  0  0  0  0  0  0  0  0  0  0  0
  -22.6920  -29.5710   22.5940 C   0  0  0  0  0  0  0  0  0  0  0  0
  -21.3710  -29.3660   22.4630 N   0  0  0  0  0  0  0  0  0  0  0  0
  -23.3800  -28.9640   23.4170 O   0  0  0  0  0  0  0  0  0  0  0  0
  -20.8760  -29.9070   21.7690 H   0  0  0  0  0  0  0  0  0  0  0  0
  -18.0200  -28.0990   22.9420 C   0  0  0  0  0  0  0  0  0  0  0  0
  -20.5690  -28.4180   23.2350 C   0  0  0  0  0  3  0  0  0  0  0  0
  -20.7100  -26.9850   22.6730 C   0  0  0  0  0  2  0  0  0  0  0  0
  -19.6240  -26.6270   21.6530 C   0  0  0  0  0  2  0  0  0  0  0  0
  -18.2330  -26.7470   22.2810 C   0  0  0  0  0  2  0  0  0  0  0  0
  -19.1170  -28.8890   23.3760 C   0  0  0  0  0  0  0  0  0  0  0  0
  -18.8650  -30.1530   23.9530 C   0  0  0  0  0  3  0  0  0  0  0  0
  -17.5490  -30.6280   24.1030 C   0  0  0  0  0  3  0  0  0  0  0  0
  -16.4660  -29.8340   23.6860 C   0  0  0  0  0  3  0  0  0  0  0  0
  -16.7020  -28.5730   23.1110 C   0  0  0  0  0  3  0  0  0  0  0  0
  -25.8570  -32.6120   23.8630 C   0  0  0  0  0  3  0  0  0  0  0  0
  -25.5610  -34.0140   24.1880 N   0  0  0  0  0  0  0  0  0  0  0  0
  -25.8900  -35.0600   23.4200 C   0  0  0  0  0  0  0  0  0  0  0  0
  -26.5470  -34.9480   22.3810 O   0  0  0  0  0  0  0  0  0  0  0  0
  -24.9750  -34.1780   24.9950 H   0  0  0  0  0  0  0  0  0  0  0  0
  -24.1600  -36.8560   23.0850 C   0  0  0  0  0  1  0  0  0  0  0  0
  -25.4160  -36.4540   23.8760 C   0  0  0  0  0  3  0  0  0  0  0  0
  -27.5650  -37.3380   24.6640 C   0  0  0  0  0  1  0  0  0  0  0  0
  -26.4510  -37.5010   23.7350 N   0  0  0  0  0  0  0  0  0  0  0  0
  -26.0500  -38.4240   23.8790 H   0  0  0  0  0  0  0  0  0  0  0  0
  -26.3840  -31.8450   25.1370 C   0  0  1  0  0  0  0  0  0  0  0  0
  -25.2980  -31.6060   26.2130 C   0  0  0  0  0  1  0  0  0  0  0  0
  -26.9690  -30.4700   24.7410 C   0  0  0  0  0  1  0  0  0  0  0  0
  -27.5350  -32.6460   25.7890 C   0  0  0  0  0  1  0  0  0  0  0  0
  -29.7930  -16.9650   21.3390 C   0  0  0  0  0  0  0  0  0  0  0  0
  -30.3040  -14.6940   20.1130 C   0  0  0  0  0  0  0  0  0  0  0  0
  -30.0360  -12.5550   18.8790 C   0  0  0  0  0  2  0  0  0  0  0  0
  -28.9750  -12.7240   17.7680 C   0  0  0  0  0  2  0  0  0  0  0  0
  -27.5520  -12.5070   18.3200 C   0  0  0  0  0  2  0  0  0  0  0  0
  -27.2900  -13.2840   19.6370 C   0  0  0  0  0  3  0  0  0  0  0  0
  -28.4460  -13.0710   20.6390 C   0  0  0  0  0  2  0  0  0  0  0  0
  -29.6920  -13.4830   19.9680 N   0  0  0  0  0  0  0  0  0  0  0  0
  -31.3990  -14.9420   19.6070 O   0  0  0  0  0  0  0  0  0  0  0  0
  -29.5400  -15.6330   20.7150 N   0  0  0  0  0  4  0  0  0  0  0  0
  -28.6190  -15.2780   20.9240 H   0  0  0  0  0  0  0  0  0  0  0  0
  -24.9480  -13.7800   20.5800 C   0  0  0  0  0  0  0  0  0  0  0  0
  -23.9380  -12.9580   21.0000 C   0  0  0  0  0  0  0  0  0  0  0  0
  -24.4330  -11.6260   20.8630 C   0  0  0  0  0  0  0  0  0  0  0  0
  -25.9930  -12.9450   20.2170 N   0  0  0  0  0  0  0  0  0  0  0  0
  -25.6920  -11.6410   20.4450 N   0  0  0  0  0  0  0  0  0  0  0  0
  -23.7640  -10.3330   21.0470 C   0  0  0  0  0  0  0  0  0  0  0  0
  -24.2660   -9.3630   21.9420 C   0  0  0  0  0  3  0  0  0  0  0  0
  -23.5970   -8.1330   22.1150 C   0  0  0  0  0  3  0  0  0  0  0  0
  -22.4090   -7.8650   21.3960 C   0  0  0  0  0  0  0  0  0  0  0  0
  -21.9230   -8.8240   20.4890 C   0  0  0  0  0  3  0  0  0  0  0  0
  -22.5930  -10.0460   20.3140 C   0  0  0  0  0  3  0  0  0  0  0  0
  -21.7020   -6.6890   21.4860 O   0  0  0  0  0  0  0  0  0  0  0  0
  -21.6920   -5.9410   22.6350 C   0  0  0  0  0  0  0  0  0  0  0  0
  -21.2270   -6.4640   23.8610 C   0  0  0  0  0  3  0  0  0  0  0  0
  -21.1690   -5.6370   25.0030 C   0  0  0  0  0  3  0  0  0  0  0  0
  -21.5640   -4.2890   24.9160 C   0  0  0  0  0  0  0  0  0  0  0  0
  -22.0210   -3.7660   23.6940 C   0  0  0  0  0  3  0  0  0  0  0  0
  -22.0820   -4.5890   22.5570 C   0  0  0  0  0  0  0  0  0  0  0  0
  -22.5020   -4.0740   21.3770 F   0  0  0  0  0  0  0  0  0  0  0  0
  -21.5010   -3.4920   26.0090 F   0  0  0  0  0  0  0  0  0  0  0  0
  -22.5570  -13.3750   21.4120 C   0  0  0  0  0  0  0  0  0  0  0  0
  -21.9270  -12.6170   22.3040 N   0  0  0  0  0  0  0  0  0  0  0  0
  -22.0460  -14.4080   20.9830 O   0  0  0  0  0  0  0  0  0  0  0  0
  -22.3530  -11.7810   22.6750 H   0  0  0  0  0  0  0  0  0  0  0  0
  -21.0020  -12.8760   22.6190 H   0  0  0  0  0  0  0  0  0  0  0  0
  -25.0570  -15.1630   20.4560 N   0  0  0  0  0  0  0  0  0  0  0  0
  -24.2750  -15.7790   20.6500 H   0  0  0  0  0  0  0  0  0  0  0  0
  -25.8380  -15.6390   20.0210 H   0  0  0  0  0  0  0  0  0  0  0  0
  -32.2990  -17.0200   22.1990 C   0  0  0  0  0  1  0  0  0  0  0  0
  -30.7970  -16.9210   22.5510 C   0  0  0  0  0  3  0  0  0  0  0  0
  -30.4870  -17.9600   23.5610 N   0  0  0  0  0  4  0  0  0  0  0  0
  -30.5870  -18.8900   23.1960 H   0  0  0  0  0  0  0  0  0  0  0  0
  -31.1150  -17.8760   24.3400 H   0  0  0  0  0  0  0  0  0  0  0  0
  -29.5550  -17.8460   23.9220 H   0  0  0  0  0  0  0  0  0  0  0  0
  1  2  1  0
  1 51  1  0
  2  4  1  0
  3  1  2  0
  5  6  1  0
  5  2  1  0
  6  7  1  0
  8  7  1  0
  8  9  1  0
 10 12  1  0
 10  9  1  0
 11 22  2  0
 12 17  1  0
 13 21  1  0
 13 23  1  0
 14 20  1  0
 14 16  1  0
 15 21  1  0
 16 15  1  0
 17 16  2  0
 18 19  1  0
 18 12  2  0
 19 14  2  0
 20 13  1  0
 21 11  1  0
 23 25  2  0
 24 23  1  0
 26 24  1  0
 27 36  2  0
 27 32  1  0
 28 24  1  0
 28 32  1  0
 29 28  1  0
 30 31  1  0
 30 29  1  0
 31 27  1  0
 32 33  2  0
 33 34  1  0
 35 34  2  0
 36 35  1  0
 37 11  1  0
 37 38  1  0
 37 47  1  0
 38 41  1  0
 39 43  1  0
 39 38  1  0
 40 39  2  0
 43 42  1  0
 45 43  1  0
 45 46  1  0
 45 44  1  0
 47 50  1  1
 47 48  1  0
 49 47  1  0
 51 91  1  0
 52 60  1  0
 53 58  1  0
 54 55  1  0
 54 53  1  0
 56 55  1  0
 56 65  1  0
 56 57  1  0
 58 52  1  0
 58 57  1  0
 59 52  2  0
 60 61  1  0
 60 51  2  3
 62 63  2  0
 63 82  1  0
 64 63  1  0
 64 67  1  0
 65 66  1  0
 65 62  1  0
 66 64  2  0
 67 68  1  0
 68 69  2  0
 70 73  1  0
 70 69  1  0
 71 70  2  0
 72 71  1  0
 72 67  2  0
 73 74  1  0
 74 75  1  0
 75 76  2  0
 77 76  1  0
 77 81  1  0
 78 77  2  0
 79 74  2  0
 79 78  1  0
 80 79  1  0
 82 83  1  0
 83 86  1  0
 83 85  1  0
 84 82  2  0
 87 62  1  0
 87 88  1  0
 89 87  1  0
 91 90  1  0
 91 92  1  0
 92 95  1  0
 92 94  1  0
 93 92  1  0
M  ISO  4   9 101  10 101  52 100  60 100
M  END
>  <TORSDO>  (46) 
F 24

>  <SCORE>  (46) 
-10.711

>  <name>  (46) 
46

>  <ligand_id>  (46) 
46

>  <original_smiles>  (46) 
[H]c1c([H])c([H])c2c(c1[H])C([H])([H])C([H])([H])C([H])([H])C2([H])N([H])C(=O)C1([H])N(C(=O)C([H])(N([H])C(=O)C([H])(N([H])C([H])([H])[H])C([H])([H])[H])C(C([H])([H])[H])(C([H])([H])[H])C([H])([H])[H])C([H])([H])c2c([H])c(OC([H])([H])C([H])([H])OC([H])([H])C([H])([H])N([H])C(=O)C([H])(N([H])C(=O)N3C([H])([H])C([H])([H])C([H])([H])C([H])(n4nc(-c5c([H])c([H])c(Oc6c([H])c([H])c(F)c([H])c6F)c([H])c5[H])c(C(=O)N([H])[H])c4N([H])[H])C3([H])[H])C([H])(C([H])([H])[H])[N+]([H])([H])[H])c([H])c([H])c2C1([H])[H]

>  <smiles>  (46) 
[H]c1c([H])c([H])c2c(c1[H])C([H])([H])C([H])([H])C([H])([H])C2([H])N([H])C(=O)C1([H])N(C(=O)C([H])(N([H])C(=O)C([H])(N([H])C([H])([H])[H])C([H])([H])[H])C(C([H])([H])[H])(C([H])([H])[H])C([H])([H])[H])C([H])([H])c2c([H])c(OC([H])([H])C([H])([H])OC([H])([H])C([H])([H])N([H])C(=O)C([H])(N([H])C(=O)N3C([H])([H])C([H])([H])C([H])([H])C([H])(n4nc(-c5c([H])c([H])c(Oc6c([H])c([H])c(F)c([H])c6F)c([H])c5[H])c(C(=O)N([H])[H])c4N([H])[H])C3([H])[H])C([H])(C([H])([H])[H])[N+]([H])([H])[H])c([H])c([H])c2C1([H])[H]

$$$$
47:0:0
     RDKit          3D

 88 95  0  0  1  0  0  0  0  0999 V2000
  -28.9510  -22.4480   19.8040 C   0  0  0  0  0  3  0  0  0  0  0  0
  -28.7330  -21.1010   20.4990 N   0  0  0  0  0  4  0  0  0  0  0  0
  -28.9560  -21.2090   21.4760 H   0  0  0  0  0  0  0  0  0  0  0  0
  -27.7520  -20.8830   20.4400 H   0  0  0  0  0  0  0  0  0  0  0  0
  -29.5220  -19.8970   19.9780 C   0  0  0  0  0  2  0  0  0  0  0  0
  -29.1700  -18.4220   20.5200 C   0  0  0  0  0  3  0  0  0  0  0  0
  -30.1670  -17.2220   20.1370 C   0  0  0  0  0  3  0  0  0  0  0  0
  -30.5810  -14.6710   20.3000 C   0  0  0  0  0  0  0  0  0  0  0  0
  -30.3530  -12.4160   19.2820 C   0  0  0  0  0  2  0  0  0  0  0  0
  -29.4060  -12.5250   18.0680 C   0  0  0  0  0  2  0  0  0  0  0  0
  -27.9380  -12.3710   18.5090 C   0  0  0  0  0  2  0  0  0  0  0  0
  -27.5850  -13.2520   19.7380 C   0  0  0  0  0  3  0  0  0  0  0  0
  -28.6490  -13.1310   20.8520 C   0  0  0  0  0  2  0  0  0  0  0  0
  -29.9480  -13.4570   20.2510 N   0  0  0  0  0  0  0  0  0  0  0  0
  -31.7610  -14.7830   19.9580 O   0  0  0  0  0  0  0  0  0  0  0  0
  -29.8020  -15.7920   20.4840 N   0  0  0  0  0  0  0  0  0  0  0  0
  -28.8380  -15.6150   20.7250 H   0  0  0  0  0  0  0  0  0  0  0  0
  -25.1970  -13.8510   20.4680 C   0  0  0  0  0  0  0  0  0  0  0  0
  -24.1340  -13.0790   20.8480 C   0  0  0  0  0  0  0  0  0  0  0  0
  -24.5990  -11.7290   20.8270 C   0  0  0  0  0  0  0  0  0  0  0  0
  -26.2420  -12.9720   20.2350 N   0  0  0  0  0  0  0  0  0  0  0  0
  -25.8890  -11.6900   20.5150 N   0  0  0  0  0  0  0  0  0  0  0  0
  -23.8740  -10.4660   21.0250 C   0  0  0  0  0  0  0  0  0  0  0  0
  -24.3170   -9.4980   21.9530 C   0  0  0  0  0  3  0  0  0  0  0  0
  -23.5920   -8.3020   22.1400 C   0  0  0  0  0  3  0  0  0  0  0  0
  -22.4110   -8.0650   21.3990 C   0  0  0  0  0  0  0  0  0  0  0  0
  -21.9870   -9.0200   20.4590 C   0  0  0  0  0  3  0  0  0  0  0  0
  -22.7140  -10.2080   20.2700 C   0  0  0  0  0  3  0  0  0  0  0  0
  -21.6560   -6.9200   21.4990 O   0  0  0  0  0  0  0  0  0  0  0  0
  -21.6320   -6.1710   22.6470 C   0  0  0  0  0  0  0  0  0  0  0  0
  -21.2390   -6.7200   23.8870 C   0  0  0  0  0  3  0  0  0  0  0  0
  -21.1590   -5.8970   25.0270 C   0  0  0  0  0  3  0  0  0  0  0  0
  -21.4630   -4.5270   24.9310 C   0  0  0  0  0  0  0  0  0  0  0  0
  -21.8490   -3.9770   23.6960 C   0  0  0  0  0  3  0  0  0  0  0  0
  -21.9310   -4.7970   22.5570 C   0  0  0  0  0  0  0  0  0  0  0  0
  -22.2830   -4.2560   21.3650 F   0  0  0  0  0  0  0  0  0  0  0  0
  -21.3790   -3.7330   26.0240 F   0  0  0  0  0  0  0  0  0  0  0  0
  -22.7360  -13.5560   21.1160 C   0  0  0  0  0  0  0  0  0  0  0  0
  -22.0080  -12.8680   21.9890 N   0  0  0  0  0  0  0  0  0  0  0  0
  -22.2970  -14.5770   20.5890 O   0  0  0  0  0  0  0  0  0  0  0  0
  -22.3730  -12.0410   22.4380 H   0  0  0  0  0  0  0  0  0  0  0  0
  -21.0690  -13.1710   22.2100 H   0  0  0  0  0  0  0  0  0  0  0  0
  -25.3550  -15.2210   20.2790 N   0  0  0  0  0  0  0  0  0  0  0  0
  -24.5790  -15.8640   20.3900 H   0  0  0  0  0  0  0  0  0  0  0  0
  -26.1820  -15.6630   19.8970 H   0  0  0  0  0  0  0  0  0  0  0  0
  -28.3480  -23.7930   20.4560 C   0  0  0  0  0  3  0  0  0  0  0  0
  -28.4470  -25.1430   19.5950 C   0  0  0  0  0  2  0  0  0  0  0  0
  -28.3450  -26.4900   20.2200 O   0  0  0  0  0  0  0  0  0  0  0  0
  -24.6090  -31.8690   23.2340 C   0  0  0  0  0  0  0  0  0  0  0  0
  -27.2010  -27.3020   20.1620 C   0  0  0  0  0  0  0  0  0  0  0  0
  -23.3970  -30.4720   21.5990 C   0  0  0  0  0  3  0  0  0  0  0  0
  -24.8380  -28.9190   20.1650 C   0  0  0  0  0  0  0  0  0  0  0  0
  -25.9370  -30.7880   21.4040 C   0  0  0  0  0  2  0  0  0  0  0  0
  -26.0100  -29.4080   20.7560 C   0  0  0  0  0  0  0  0  0  0  0  0
  -27.1920  -28.6100   20.7430 C   0  0  0  0  0  3  0  0  0  0  0  0
  -25.9990  -26.8580   19.5660 C   0  0  0  0  0  3  0  0  0  0  0  0
  -24.8360  -27.6520   19.5640 C   0  0  0  0  0  3  0  0  0  0  0  0
  -23.6040  -29.7950   20.2180 C   0  0  0  0  0  2  0  0  0  0  0  0
  -24.6680  -31.0610   22.1350 N   0  0  0  0  0  0  0  0  0  0  0  0
  -23.5270  -32.1460   23.7740 O   0  0  0  0  0  0  0  0  0  0  0  0
  -22.7400  -29.4540   22.5620 C   0  0  0  0  0  0  0  0  0  0  0  0
  -21.4140  -29.2740   22.4360 N   0  0  0  0  0  0  0  0  0  0  0  0
  -23.4220  -28.8290   23.3770 O   0  0  0  0  0  0  0  0  0  0  0  0
  -20.9220  -29.8340   21.7540 H   0  0  0  0  0  0  0  0  0  0  0  0
  -18.0400  -28.0750   22.9410 C   0  0  0  0  0  0  0  0  0  0  0  0
  -20.5980  -28.3370   23.2100 C   0  0  0  0  0  3  0  0  0  0  0  0
  -20.7020  -26.9050   22.6370 C   0  0  0  0  0  2  0  0  0  0  0  0
  -19.6010  -26.5810   21.6230 C   0  0  0  0  0  2  0  0  0  0  0  0
  -18.2180  -26.7250   22.2670 C   0  0  0  0  0  2  0  0  0  0  0  0
  -19.1570  -28.8390   23.3690 C   0  0  0  0  0  0  0  0  0  0  0  0
  -18.9350  -30.1040   23.9570 C   0  0  0  0  0  3  0  0  0  0  0  0
  -17.6290  -30.6030   24.1230 C   0  0  0  0  0  3  0  0  0  0  0  0
  -16.5260  -29.8350   23.7080 C   0  0  0  0  0  3  0  0  0  0  0  0
  -16.7320  -28.5730   23.1240 C   0  0  0  0  0  3  0  0  0  0  0  0
  -25.8950  -32.5000   23.8540 C   0  0  0  0  0  3  0  0  0  0  0  0
  -26.4160  -31.7280   25.1280 C   0  0  1  0  0  0  0  0  0  0  0  0
  -25.3280  -31.4910   26.2000 C   0  0  0  0  0  1  0  0  0  0  0  0
  -26.9950  -30.3500   24.7330 C   0  0  0  0  0  1  0  0  0  0  0  0
  -27.5710  -32.5200   25.7850 C   0  0  0  0  0  1  0  0  0  0  0  0
  -25.5860  -33.8980   24.1880 N   0  0  0  0  0  0  0  0  0  0  0  0
  -25.9150  -34.9520   23.4300 C   0  0  0  0  0  0  0  0  0  0  0  0
  -26.5790  -34.8500   22.3940 O   0  0  0  0  0  0  0  0  0  0  0  0
  -25.0010  -34.0510   24.9950 H   0  0  0  0  0  0  0  0  0  0  0  0
  -24.1860  -36.7450   23.0890 C   0  0  0  0  0  1  0  0  0  0  0  0
  -25.4320  -36.3400   23.8930 C   0  0  0  0  0  3  0  0  0  0  0  0
  -27.5710  -37.2230   24.7130 C   0  0  0  0  0  1  0  0  0  0  0  0
  -26.4630  -37.3930   23.7760 N   0  0  0  0  0  0  0  0  0  0  0  0
  -26.0590  -38.3130   23.9290 H   0  0  0  0  0  0  0  0  0  0  0  0
  1 46  2  0
  1  2  1  0
  2  3  1  0
  4  2  1  0
  5  2  1  0
  5  6  1  0
  7 16  1  0
  7  6  2  0
  8 16  1  0
  9 14  1  0
 10 11  1  0
 10  9  1  0
 12 11  1  0
 12 21  1  0
 12 13  1  0
 14  8  1  0
 14 13  1  0
 15  8  2  0
 16 17  1  0
 18 19  2  0
 19 38  1  0
 20 19  1  0
 20 23  1  0
 21 18  1  0
 21 22  1  0
 22 20  2  0
 23 24  1  0
 24 25  2  0
 26 29  1  0
 26 25  1  0
 27 26  2  0
 28 27  1  0
 28 23  2  0
 29 30  1  0
 30 31  1  0
 31 32  2  0
 33 32  1  0
 33 37  1  0
 34 33  2  0
 35 30  2  0
 35 34  1  0
 36 35  1  0
 38 39  1  0
 39 42  1  0
 39 41  1  0
 40 38  2  0
 43 44  1  0
 43 18  1  0
 45 43  1  0
 47 48  1  0
 47 46  1  0
 49 60  2  0
 50 48  1  0
 50 55  1  0
 51 59  1  0
 51 61  1  0
 52 58  1  0
 52 54  1  0
 53 59  1  0
 54 53  1  0
 55 54  2  0
 56 50  2  0
 57 56  1  0
 57 52  2  0
 58 51  1  0
 59 49  1  0
 61 63  2  0
 62 61  1  0
 64 62  1  0
 65 74  2  0
 65 70  1  0
 66 62  1  0
 66 70  1  0
 67 66  1  0
 68 69  1  0
 68 67  1  0
 69 65  1  0
 70 71  2  0
 71 72  1  0
 73 72  2  0
 74 73  1  0
 75 49  1  0
 75 80  1  0
 75 76  1  0
 76 79  1  1
 76 77  1  0
 78 76  1  0
 80 83  1  0
 81 85  1  0
 81 80  1  0
 82 81  2  0
 85 84  1  0
 87 85  1  0
 87 88  1  0
 87 86  1  0
M  ISO  4   8 100  16 100  47 101  48 101
M  END
>  <TORSDO>  (47) 
F 22

>  <SCORE>  (47) 
-12.828

>  <name>  (47) 
47

>  <ligand_id>  (47) 
47

>  <original_smiles>  (47) 
[H]c1c([H])c([H])c2c(c1[H])C([H])([H])C([H])([H])C([H])([H])C2([H])N([H])C(=O)C1([H])N(C(=O)C([H])(N([H])C(=O)C([H])(N([H])C([H])([H])[H])C([H])([H])[H])C(C([H])([H])[H])(C([H])([H])[H])C([H])([H])[H])C([H])([H])c2c([H])c(OC([H])([H])C([H])([H])C([H])([H])[N+]([H])([H])C([H])([H])C([H])([H])C([H])([H])N([H])C(=O)N3C([H])([H])C([H])([H])C([H])([H])C([H])(n4nc(-c5c([H])c([H])c(Oc6c([H])c([H])c(F)c([H])c6F)c([H])c5[H])c(C(=O)N([H])[H])c4N([H])[H])C3([H])[H])c([H])c([H])c2C1([H])[H]

>  <smiles>  (47) 
[H]c1c([H])c([H])c2c(c1[H])C([H])([H])C([H])([H])C([H])([H])C2([H])N([H])C(=O)C1([H])N(C(=O)C([H])(N([H])C(=O)C([H])(N([H])C([H])([H])[H])C([H])([H])[H])C(C([H])([H])[H])(C([H])([H])[H])C([H])([H])[H])C([H])([H])c2c([H])c(OC([H])([H])C([H])([H])C([H])([H])[N+]([H])([H])C([H])([H])C([H])([H])C([H])([H])N([H])C(=O)N3C([H])([H])C([H])([H])C([H])([H])C([H])(n4nc(-c5c([H])c([H])c(Oc6c([H])c([H])c(F)c([H])c6F)c([H])c5[H])c(C(=O)N([H])[H])c4N([H])[H])C3([H])[H])c([H])c([H])c2C1([H])[H]

$$$$
48:0:0
     RDKit          3D

 97104  0  0  1  0  0  0  0  0999 V2000
  -29.9100  -21.1920   19.5600 C   0  0  0  0  0  0  0  0  0  0  0  0
  -29.2090  -20.0710   19.7450 N   0  0  0  0  0  0  0  0  0  0  0  0
  -30.7710  -21.3110   18.6860 O   0  0  0  0  0  0  0  0  0  0  0  0
  -28.5340  -20.0730   20.4970 H   0  0  0  0  0  0  0  0  0  0  0  0
  -29.5180  -22.3880   20.4270 C   0  0  0  0  0  2  0  0  0  0  0  0
  -29.1660  -23.4550   19.5560 O   0  0  0  0  0  0  0  0  0  0  0  0
  -28.6090  -24.5720   20.2280 C   0  0  0  0  0  2  0  0  0  0  0  0
  -28.7560  -25.7910   19.3140 C   0  0  0  0  0  2  0  0  0  0  0  0
  -28.5800  -26.9820   20.0670 O   0  0  0  0  0  0  0  0  0  0  0  0
  -24.7160  -31.9250   23.3540 C   0  0  0  0  0  0  0  0  0  0  0  0
  -27.3540  -27.6050   20.1120 C   0  0  0  0  0  0  0  0  0  0  0  0
  -23.4960  -30.5670   21.6810 C   0  0  0  0  0  3  0  0  0  0  0  0
  -24.9380  -29.0690   20.2060 C   0  0  0  0  0  0  0  0  0  0  0  0
  -26.0160  -30.9390   21.4720 C   0  0  0  0  0  2  0  0  0  0  0  0
  -26.0960  -29.5880   20.7990 C   0  0  0  0  0  0  0  0  0  0  0  0
  -27.3000  -28.8580   20.7550 C   0  0  0  0  0  3  0  0  0  0  0  0
  -26.1720  -27.0780   19.5400 C   0  0  0  0  0  3  0  0  0  0  0  0
  -24.9680  -27.8090   19.5810 C   0  0  0  0  0  3  0  0  0  0  0  0
  -23.6930  -29.9200   20.2820 C   0  0  0  0  0  2  0  0  0  0  0  0
  -24.7620  -31.1570   22.2280 N   0  0  0  0  0  0  0  0  0  0  0  0
  -23.6400  -32.1830   23.9100 O   0  0  0  0  0  0  0  0  0  0  0  0
  -22.8560  -29.5210   22.6180 C   0  0  0  0  0  0  0  0  0  0  0  0
  -21.5330  -29.3310   22.4830 N   0  0  0  0  0  0  0  0  0  0  0  0
  -23.5430  -28.8830   23.4190 O   0  0  0  0  0  0  0  0  0  0  0  0
  -21.0410  -29.9000   21.8090 H   0  0  0  0  0  0  0  0  0  0  0  0
  -18.1710  -28.0890   22.9190 C   0  0  0  0  0  0  0  0  0  0  0  0
  -20.7210  -28.3700   23.2270 C   0  0  0  0  0  3  0  0  0  0  0  0
  -20.8470  -26.9510   22.6250 C   0  0  0  0  0  2  0  0  0  0  0  0
  -19.7610  -26.6350   21.5940 C   0  0  0  0  0  2  0  0  0  0  0  0
  -18.3710  -26.7530   22.2240 C   0  0  0  0  0  2  0  0  0  0  0  0
  -19.2750  -28.8560   23.3760 C   0  0  0  0  0  0  0  0  0  0  0  0
  -19.0360  -30.1080   23.9830 C   0  0  0  0  0  3  0  0  0  0  0  0
  -17.7250  -30.5920   24.1400 C   0  0  0  0  0  3  0  0  0  0  0  0
  -16.6340  -29.8220   23.7030 C   0  0  0  0  0  3  0  0  0  0  0  0
  -16.8570  -28.5720   23.0980 C   0  0  0  0  0  3  0  0  0  0  0  0
  -26.0090  -32.5350   23.9810 C   0  0  0  0  0  3  0  0  0  0  0  0
  -25.7060  -33.9240   24.3490 N   0  0  0  0  0  0  0  0  0  0  0  0
  -26.0490  -34.9950   23.6210 C   0  0  0  0  0  0  0  0  0  0  0  0
  -26.7250  -34.9170   22.5910 O   0  0  0  0  0  0  0  0  0  0  0  0
  -25.1070  -34.0600   25.1500 H   0  0  0  0  0  0  0  0  0  0  0  0
  -24.3390  -36.8100   23.2940 C   0  0  0  0  0  1  0  0  0  0  0  0
  -25.5640  -36.3720   24.1140 C   0  0  0  0  0  3  0  0  0  0  0  0
  -27.6920  -37.2130   25.0050 C   0  0  0  0  0  1  0  0  0  0  0  0
  -26.6060  -37.4200   24.0500 N   0  0  0  0  0  0  0  0  0  0  0  0
  -26.2040  -38.3380   24.2190 H   0  0  0  0  0  0  0  0  0  0  0  0
  -26.5360  -31.7270   25.2300 C   0  0  1  0  0  0  0  0  0  0  0  0
  -25.4520  -31.4600   26.3000 C   0  0  0  0  0  1  0  0  0  0  0  0
  -27.1130  -30.3610   24.7910 C   0  0  0  0  0  1  0  0  0  0  0  0
  -27.6930  -32.5010   25.9050 C   0  0  0  0  0  1  0  0  0  0  0  0
  -29.1100  -18.9860   18.7770 C   0  0  0  0  0  2  0  0  0  0  0  0
  -27.6660  -17.7150   20.4050 C   0  0  0  0  0  1  0  0  0  0  0  0
  -28.4540  -16.6570   18.2620 C   0  0  0  0  0  1  0  0  0  0  0  0
  -28.8590  -17.5950   19.4280 C   0  0  1  0  0  0  0  0  0  0  0  0
  -30.1110  -17.0360   20.2050 C   0  0  0  0  0  3  0  0  0  0  0  0
  -30.6440  -14.5610   20.7050 C   0  0  0  0  0  0  0  0  0  0  0  0
  -30.3880  -12.3870   19.6290 C   0  0  0  0  0  2  0  0  0  0  0  0
  -29.4750  -12.5930   18.4020 C   0  0  0  0  0  2  0  0  0  0  0  0
  -27.9920  -12.4330   18.7950 C   0  0  0  0  0  2  0  0  0  0  0  0
  -27.6000  -13.2500   20.0560 C   0  0  0  0  0  3  0  0  0  0  0  0
  -28.6490  -13.0910   21.1840 C   0  0  0  0  0  2  0  0  0  0  0  0
  -29.9790  -13.3810   20.6280 N   0  0  0  0  0  0  0  0  0  0  0  0
  -31.8590  -14.6490   20.5520 O   0  0  0  0  0  0  0  0  0  0  0  0
  -29.8400  -15.6320   20.6050 N   0  0  0  0  0  0  0  0  0  0  0  0
  -28.8640  -15.4130   20.7010 H   0  0  0  0  0  0  0  0  0  0  0  0
  -25.1650  -13.7780   20.7070 C   0  0  0  0  0  0  0  0  0  0  0  0
  -24.1140  -12.9740   21.0460 C   0  0  0  0  0  0  0  0  0  0  0  0
  -24.6190  -11.6390   21.0190 C   0  0  0  0  0  0  0  0  0  0  0  0
  -26.2470  -12.9330   20.5040 N   0  0  0  0  0  0  0  0  0  0  0  0
  -25.9190  -11.6400   20.7510 N   0  0  0  0  0  0  0  0  0  0  0  0
  -23.9230  -10.3570   21.1760 C   0  0  0  0  0  0  0  0  0  0  0  0
  -24.3620   -9.3900   22.1070 C   0  0  0  0  0  3  0  0  0  0  0  0
  -23.6640   -8.1720   22.2550 C   0  0  0  0  0  3  0  0  0  0  0  0
  -22.5140   -7.9140   21.4710 C   0  0  0  0  0  0  0  0  0  0  0  0
  -22.0950   -8.8700   20.5300 C   0  0  0  0  0  3  0  0  0  0  0  0
  -22.7930  -10.0800   20.3800 C   0  0  0  0  0  3  0  0  0  0  0  0
  -21.7880   -6.7480   21.5280 O   0  0  0  0  0  0  0  0  0  0  0  0
  -21.7420   -5.9860   22.6670 C   0  0  0  0  0  0  0  0  0  0  0  0
  -21.2730   -6.5070   23.8930 C   0  0  0  0  0  3  0  0  0  0  0  0
  -21.1770   -5.6690   25.0230 C   0  0  0  0  0  3  0  0  0  0  0  0
  -21.5420   -4.3120   24.9260 C   0  0  0  0  0  0  0  0  0  0  0  0
  -22.0050   -3.7920   23.7050 C   0  0  0  0  0  3  0  0  0  0  0  0
  -22.1030   -4.6280   22.5790 C   0  0  0  0  0  0  0  0  0  0  0  0
  -22.5300   -4.1160   21.3980 F   0  0  0  0  0  0  0  0  0  0  0  0
  -21.4420   -3.5050   26.0070 F   0  0  0  0  0  0  0  0  0  0  0  0
  -22.6970  -13.4120   21.2810 C   0  0  0  0  0  0  0  0  0  0  0  0
  -21.9650  -12.6900   22.1210 N   0  0  0  0  0  0  0  0  0  0  0  0
  -22.2460  -14.4290   20.7550 O   0  0  0  0  0  0  0  0  0  0  0  0
  -22.3410  -11.8670   22.5680 H   0  0  0  0  0  0  0  0  0  0  0  0
  -21.0130  -12.9650   22.3200 H   0  0  0  0  0  0  0  0  0  0  0  0
  -25.2700  -15.1510   20.5270 N   0  0  0  0  0  0  0  0  0  0  0  0
  -24.4570  -15.7520   20.5970 H   0  0  0  0  0  0  0  0  0  0  0  0
  -26.0770  -15.6220   20.1440 H   0  0  0  0  0  0  0  0  0  0  0  0
  -31.4710  -17.2980   19.5000 C   0  0  0  0  0  0  0  0  0  0  0  0
  -32.3530  -18.0690   20.1240 N   0  0  0  0  0  0  0  0  0  0  0  0
  -31.7210  -16.8280   18.3920 O   0  0  0  0  0  0  0  0  0  0  0  0
  -32.1460  -18.4640   21.0310 H   0  0  0  0  0  0  0  0  0  0  0  0
  -33.2460  -18.2680   19.6950 H   0  0  0  0  0  0  0  0  0  0  0  0
  1  2  1  0
  1  5  1  0
  2  4  1  0
  3  1  2  0
  6  7  1  0
  6  5  1  0
  8  9  1  0
  8  7  1  0
  9 11  1  0
 10 21  2  0
 11 16  1  0
 12 20  1  0
 12 22  1  0
 13 19  1  0
 13 15  1  0
 14 20  1  0
 15 14  1  0
 16 15  2  0
 17 18  1  0
 17 11  2  0
 18 13  2  0
 19 12  1  0
 20 10  1  0
 22 24  2  0
 23 22  1  0
 25 23  1  0
 26 35  2  0
 26 31  1  0
 27 23  1  0
 27 31  1  0
 28 27  1  0
 29 30  1  0
 29 28  1  0
 30 26  1  0
 31 32  2  0
 32 33  1  0
 34 33  2  0
 35 34  1  0
 36 10  1  0
 36 37  1  0
 36 46  1  0
 37 40  1  0
 38 42  1  0
 38 37  1  0
 39 38  2  0
 42 41  1  0
 44 42  1  0
 44 45  1  0
 44 43  1  0
 46 49  1  1
 46 47  1  0
 48 46  1  0
 50 53  1  0
 50  2  1  0
 53 52  1  6
 53 54  1  0
 53 51  1  0
 54 93  1  0
 54 63  1  0
 56 61  1  0
 57 58  1  0
 57 56  1  0
 59 58  1  0
 59 68  1  0
 59 60  1  0
 61 55  1  0
 61 60  1  0
 62 55  2  0
 63 64  1  0
 63 55  1  0
 65 66  2  0
 66 85  1  0
 67 66  1  0
 67 70  1  0
 68 65  1  0
 68 69  1  0
 69 67  2  0
 70 71  1  0
 71 72  2  0
 73 76  1  0
 73 72  1  0
 74 73  2  0
 75 74  1  0
 75 70  2  0
 76 77  1  0
 77 78  1  0
 78 79  2  0
 80 79  1  0
 80 84  1  0
 81 80  2  0
 82 77  2  0
 82 81  1  0
 83 82  1  0
 85 86  1  0
 86 89  1  0
 86 88  1  0
 87 85  2  0
 90 91  1  0
 90 65  1  0
 92 90  1  0
 93 94  1  0
 94 96  1  0
 95 93  2  0
 97 94  1  0
M  ISO  4   8 101   9 101  55 100  63 100
M  END
>  <TORSDO>  (48) 
F 24

>  <SCORE>  (48) 
-12.013

>  <name>  (48) 
48

>  <ligand_id>  (48) 
48

>  <original_smiles>  (48) 
[H]c1c([H])c([H])c2c(c1[H])C([H])([H])C([H])([H])C([H])([H])C2([H])N([H])C(=O)C1([H])N(C(=O)C([H])(N([H])C(=O)C([H])(N([H])C([H])([H])[H])C([H])([H])[H])C(C([H])([H])[H])(C([H])([H])[H])C([H])([H])[H])C([H])([H])c2c([H])c(OC([H])([H])C([H])([H])OC([H])([H])C(=O)N([H])C([H])([H])C(C([H])([H])[H])(C([H])([H])[H])C([H])(C(=O)N([H])[H])N([H])C(=O)N3C([H])([H])C([H])([H])C([H])([H])C([H])(n4nc(-c5c([H])c([H])c(Oc6c([H])c([H])c(F)c([H])c6F)c([H])c5[H])c(C(=O)N([H])[H])c4N([H])[H])C3([H])[H])c([H])c([H])c2C1([H])[H]

>  <smiles>  (48) 
[H]c1c([H])c([H])c2c(c1[H])C([H])([H])C([H])([H])C([H])([H])C2([H])N([H])C(=O)C1([H])N(C(=O)C([H])(N([H])C(=O)C([H])(N([H])C([H])([H])[H])C([H])([H])[H])C(C([H])([H])[H])(C([H])([H])[H])C([H])([H])[H])C([H])([H])c2c([H])c(OC([H])([H])C([H])([H])OC([H])([H])C(=O)N([H])C([H])([H])C(C([H])([H])[H])(C([H])([H])[H])C([H])(C(=O)N([H])[H])N([H])C(=O)N3C([H])([H])C([H])([H])C([H])([H])C([H])(n4nc(-c5c([H])c([H])c(Oc6c([H])c([H])c(F)c([H])c6F)c([H])c5[H])c(C(=O)N([H])[H])c4N([H])[H])C3([H])[H])c([H])c([H])c2C1([H])[H]

$$$$
49:0:0
     RDKit          3D

100107  0  0  1  0  0  0  0  0999 V2000
  -28.2930  -21.4680   20.5240 C   0  0  0  0  0  0  0  0  0  0  0  0
  -28.8330  -20.3300   20.0730 N   0  0  0  0  0  0  0  0  0  0  0  0
  -27.9980  -21.6320   21.7120 O   0  0  0  0  0  0  0  0  0  0  0  0
  -29.0750  -20.2720   19.0950 H   0  0  0  0  0  0  0  0  0  0  0  0
  -28.0420  -22.5910   19.4990 C   0  0  0  0  0  3  0  0  0  0  0  0
  -28.0420  -23.8870   20.2140 N   0  0  0  0  0  4  0  0  0  0  0  0
  -27.1640  -23.9000   20.7080 H   0  0  0  0  0  0  0  0  0  0  0  0
  -28.7610  -23.8300   20.9170 H   0  0  0  0  0  0  0  0  0  0  0  0
  -28.1940  -25.1360   19.4210 C   0  0  0  0  0  2  0  0  0  0  0  0
  -28.3620  -26.3550   20.3470 C   0  0  0  0  0  2  0  0  0  0  0  0
  -28.2770  -27.5780   19.6160 O   0  0  0  0  0  0  0  0  0  0  0  0
  -24.6940  -32.1230   23.7130 C   0  0  0  0  0  0  0  0  0  0  0  0
  -27.1000  -28.2520   19.8210 C   0  0  0  0  0  0  0  0  0  0  0  0
  -23.3530  -30.9180   22.0170 C   0  0  0  0  0  3  0  0  0  0  0  0
  -24.6830  -29.6320   20.2660 C   0  0  0  0  0  0  0  0  0  0  0  0
  -25.8330  -31.3950   21.6190 C   0  0  0  0  0  2  0  0  0  0  0  0
  -25.8810  -30.1220   20.8020 C   0  0  0  0  0  0  0  0  0  0  0  0
  -27.0950  -29.4420   20.5780 C   0  0  0  0  0  3  0  0  0  0  0  0
  -25.8900  -27.7630   19.2860 C   0  0  0  0  0  3  0  0  0  0  0  0
  -24.6810  -28.4480   19.5070 C   0  0  0  0  0  3  0  0  0  0  0  0
  -23.4310  -30.4310   20.5460 C   0  0  0  0  0  2  0  0  0  0  0  0
  -24.6500  -31.4850   22.5080 N   0  0  0  0  0  0  0  0  0  0  0  0
  -23.6710  -32.2820   24.3900 O   0  0  0  0  0  0  0  0  0  0  0  0
  -22.8210  -29.7590   22.8890 C   0  0  0  0  0  0  0  0  0  0  0  0
  -21.5430  -29.3980   22.6950 N   0  0  0  0  0  0  0  0  0  0  0  0
  -23.5590  -29.1850   23.6950 O   0  0  0  0  0  0  0  0  0  0  0  0
  -21.0000  -29.9240   22.0220 H   0  0  0  0  0  0  0  0  0  0  0  0
  -18.4410  -27.5520   22.7820 C   0  0  0  0  0  0  0  0  0  0  0  0
  -20.8410  -28.3090   23.3710 C   0  0  0  0  0  3  0  0  0  0  0  0
  -21.3010  -26.9330   22.8360 C   0  0  0  0  0  2  0  0  0  0  0  0
  -20.4210  -26.4070   21.6980 C   0  0  0  0  0  2  0  0  0  0  0  0
  -18.9660  -26.2710   22.1570 C   0  0  0  0  0  2  0  0  0  0  0  0
  -19.3220  -28.5170   23.3380 C   0  0  0  0  0  0  0  0  0  0  0  0
  -18.7850  -29.7100   23.8670 C   0  0  0  0  0  3  0  0  0  0  0  0
  -17.3970  -29.9410   23.8580 C   0  0  0  0  0  3  0  0  0  0  0  0
  -16.5280  -28.9750   23.3220 C   0  0  0  0  0  3  0  0  0  0  0  0
  -17.0500  -27.7830   22.7880 C   0  0  0  0  0  3  0  0  0  0  0  0
  -26.0270  -32.7030   24.2850 C   0  0  0  0  0  3  0  0  0  0  0  0
  -25.7880  -34.1160   24.6130 N   0  0  0  0  0  0  0  0  0  0  0  0
  -26.1660  -35.1470   23.8470 C   0  0  0  0  0  0  0  0  0  0  0  0
  -26.8250  -35.0100   22.8120 O   0  0  0  0  0  0  0  0  0  0  0  0
  -25.2140  -34.3030   25.4220 H   0  0  0  0  0  0  0  0  0  0  0  0
  -24.5230  -37.0140   23.4940 C   0  0  0  0  0  1  0  0  0  0  0  0
  -25.7460  -36.5550   24.3050 C   0  0  0  0  0  3  0  0  0  0  0  0
  -27.9230  -37.3370   25.1250 C   0  0  0  0  0  1  0  0  0  0  0  0
  -26.8250  -37.5590   24.1870 N   0  0  0  0  0  0  0  0  0  0  0  0
  -26.4610  -38.4950   24.3390 H   0  0  0  0  0  0  0  0  0  0  0  0
  -26.5560  -31.9190   25.5460 C   0  0  1  0  0  0  0  0  0  0  0  0
  -25.4850  -31.7120   26.6410 C   0  0  0  0  0  1  0  0  0  0  0  0
  -27.0950  -30.5310   25.1360 C   0  0  0  0  0  1  0  0  0  0  0  0
  -27.7390  -32.6860   26.1830 C   0  0  0  0  0  1  0  0  0  0  0  0
  -26.7450  -22.3660   18.6750 C   0  0  0  0  0  2  0  0  0  0  0  0
  -25.5500  -22.4320   19.4520 O   0  0  0  0  0  0  0  0  0  0  0  0
  -25.4480  -21.6130   19.9290 H   0  0  0  0  0  0  0  0  0  0  0  0
  -29.1820  -19.1700   20.8920 C   0  0  0  0  0  2  0  0  0  0  0  0
  -30.6980  -19.0850   21.1170 C   0  0  0  0  0  2  0  0  0  0  0  0
  -31.2680  -18.4290   19.9960 O   0  0  0  0  0  0  0  0  0  0  0  0
  -32.6880  -18.4410   19.9830 C   0  0  0  0  0  2  0  0  0  0  0  0
  -33.1430  -17.1780   19.2470 C   0  0  0  0  0  2  0  0  0  0  0  0
  -32.8840  -16.0600   20.0840 O   0  0  0  0  0  0  0  0  0  0  0  0
  -33.5030  -14.8720   19.6210 C   0  0  0  0  0  2  0  0  0  0  0  0
  -33.6310  -13.9130   20.8070 C   0  0  0  0  0  2  0  0  0  0  0  0
  -32.6510  -11.6460   20.6210 C   0  0  0  0  0  0  0  0  0  0  0  0
  -32.0860   -9.5320   21.7420 C   0  0  0  0  0  2  0  0  0  0  0  0
  -31.3330   -8.5170   20.8700 C   0  0  0  0  0  2  0  0  0  0  0  0
  -29.8210   -8.7720   20.9460 C   0  0  0  0  0  2  0  0  0  0  0  0
  -29.4580  -10.2500   20.6600 C   0  0  0  0  0  3  0  0  0  0  0  0
  -30.3290  -11.2220   21.4890 C   0  0  0  0  0  2  0  0  0  0  0  0
  -31.7520  -10.8890   21.2930 N   0  0  0  0  0  0  0  0  0  0  0  0
  -33.6580  -11.1970   20.0670 O   0  0  0  0  0  0  0  0  0  0  0  0
  -32.5300  -12.9520   20.8700 N   0  0  0  0  0  0  0  0  0  0  0  0
  -31.6890  -13.2470   21.3460 H   0  0  0  0  0  0  0  0  0  0  0  0
  -27.3080  -11.6660   20.7240 C   0  0  0  0  0  0  0  0  0  0  0  0
  -26.0010  -11.3370   20.9670 C   0  0  0  0  0  0  0  0  0  0  0  0
  -25.9930   -9.9370   21.2470 C   0  0  0  0  0  0  0  0  0  0  0  0
  -28.0310  -10.4920   20.8690 N   0  0  0  0  0  0  0  0  0  0  0  0
  -27.2310   -9.4580   21.2370 N   0  0  0  0  0  0  0  0  0  0  0  0
  -24.8720   -9.0120   21.4680 C   0  0  0  0  0  0  0  0  0  0  0  0
  -24.6590   -8.3970   22.7210 C   0  0  0  0  0  3  0  0  0  0  0  0
  -23.5640   -7.5260   22.9130 C   0  0  0  0  0  3  0  0  0  0  0  0
  -22.6690   -7.2650   21.8480 C   0  0  0  0  0  0  0  0  0  0  0  0
  -22.9000   -7.8610   20.5960 C   0  0  0  0  0  3  0  0  0  0  0  0
  -23.9940   -8.7240   20.4050 C   0  0  0  0  0  3  0  0  0  0  0  0
  -21.5950   -6.4130   21.9350 O   0  0  0  0  0  0  0  0  0  0  0  0
  -20.8450   -6.3140   23.0800 C   0  0  0  0  0  0  0  0  0  0  0  0
  -20.1350   -7.4170   23.6040 C   0  0  0  0  0  3  0  0  0  0  0  0
  -19.3230   -7.2530   24.7430 C   0  0  0  0  0  3  0  0  0  0  0  0
  -19.2110   -5.9900   25.3530 C   0  0  0  0  0  0  0  0  0  0  0  0
  -19.9120   -4.8910   24.8310 C   0  0  0  0  0  3  0  0  0  0  0  0
  -20.7250   -5.0510   23.6950 C   0  0  0  0  0  0  0  0  0  0  0  0
  -21.3820   -3.9830   23.1820 F   0  0  0  0  0  0  0  0  0  0  0  0
  -18.4230   -5.8310   26.4430 F   0  0  0  0  0  0  0  0  0  0  0  0
  -24.8120  -12.2470   20.8520 C   0  0  0  0  0  0  0  0  0  0  0  0
  -23.7820  -12.0140   21.6580 N   0  0  0  0  0  0  0  0  0  0  0  0
  -24.8090  -13.2030   20.0770 O   0  0  0  0  0  0  0  0  0  0  0  0
  -23.7910  -11.2380   22.3030 H   0  0  0  0  0  0  0  0  0  0  0  0
  -22.9710  -12.6150   21.6260 H   0  0  0  0  0  0  0  0  0  0  0  0
  -27.9360  -12.8570   20.3710 N   0  0  0  0  0  0  0  0  0  0  0  0
  -27.4160  -13.7060   20.1770 H   0  0  0  0  0  0  0  0  0  0  0  0
  -28.9230  -12.9380   20.1610 H   0  0  0  0  0  0  0  0  0  0  0  0
  1  3  2  0
  2  1  1  0
  2 55  1  0
  4  2  1  0
  5 52  1  0
  5  6  1  0
  5  1  1  0
  6  7  1  0
  6  8  1  0
  9  6  1  0
  9 10  1  0
 11 13  1  0
 11 10  1  0
 12 23  2  0
 13 18  1  0
 14 22  1  0
 14 24  1  0
 15 21  1  0
 15 17  1  0
 16 22  1  0
 17 16  1  0
 18 17  2  0
 19 20  1  0
 19 13  2  0
 20 15  2  0
 21 14  1  0
 22 12  1  0
 24 26  2  0
 25 24  1  0
 27 25  1  0
 28 37  2  0
 28 33  1  0
 29 25  1  0
 30 29  1  0
 31 32  1  0
 31 30  1  0
 32 28  1  0
 33 29  1  0
 33 34  2  0
 35 34  1  0
 36 35  2  0
 37 36  1  0
 38 12  1  0
 38 39  1  0
 38 48  1  0
 39 42  1  0
 40 44  1  0
 40 39  1  0
 41 40  2  0
 44 43  1  0
 46 44  1  0
 46 47  1  0
 46 45  1  0
 48 51  1  1
 48 49  1  0
 50 48  1  0
 52 53  1  0
 53 54  1  0
 55 56  1  0
 57 56  1  0
 58 57  1  0
 59 58  1  0
 59 60  1  0
 61 60  1  0
 61 62  1  0
 62 71  1  0
 63 71  1  0
 63 69  1  0
 65 66  1  0
 65 64  1  0
 67 76  1  0
 67 66  1  0
 67 68  1  0
 69 68  1  0
 69 64  1  0
 70 63  2  0
 71 72  1  0
 73 76  1  0
 73 74  2  0
 74 75  1  0
 75 78  1  0
 76 77  1  0
 77 75  2  0
 78 79  1  0
 79 80  2  0
 81 84  1  0
 81 80  1  0
 82 81  2  0
 83 82  1  0
 83 78  2  0
 84 85  1  0
 85 86  2  0
 85 90  1  0
 86 87  1  0
 87 88  2  0
 88 92  1  0
 89 88  1  0
 90 89  2  0
 91 90  1  0
 93 74  1  0
 93 94  1  0
 94 96  1  0
 95 93  2  0
 97 94  1  0
 98 73  1  0
 99 98  1  0
100 98  1  0
M  ISO  4  10 101  11 101  63 100  71 100
M  END
>  <TORSDO>  (49) 
F 30

>  <SCORE>  (49) 
-7.194

>  <name>  (49) 
49

>  <ligand_id>  (49) 
49

>  <original_smiles>  (49) 
[H]OC([H])([H])C([H])(C(=O)N([H])C([H])([H])C([H])([H])OC([H])([H])C([H])([H])OC([H])([H])C([H])([H])N([H])C(=O)N1C([H])([H])C([H])([H])C([H])([H])C([H])(n2nc(-c3c([H])c([H])c(Oc4c([H])c([H])c(F)c([H])c4F)c([H])c3[H])c(C(=O)N([H])[H])c2N([H])[H])C1([H])[H])[N+]([H])([H])C([H])([H])C([H])([H])Oc1c([H])c([H])c2c(c1[H])C([H])([H])N(C(=O)C([H])(N([H])C(=O)C([H])(N([H])C([H])([H])[H])C([H])([H])[H])C(C([H])([H])[H])(C([H])([H])[H])C([H])([H])[H])C([H])(C(=O)N([H])C1([H])c3c([H])c([H])c([H])c([H])c3C([H])([H])C([H])([H])C1([H])[H])C2([H])[H]

>  <smiles>  (49) 
[H]OC([H])([H])C([H])(C(=O)N([H])C([H])([H])C([H])([H])OC([H])([H])C([H])([H])OC([H])([H])C([H])([H])N([H])C(=O)N1C([H])([H])C([H])([H])C([H])([H])C([H])(n2nc(-c3c([H])c([H])c(Oc4c([H])c([H])c(F)c([H])c4F)c([H])c3[H])c(C(=O)N([H])[H])c2N([H])[H])C1([H])[H])[N+]([H])([H])C([H])([H])C([H])([H])Oc1c([H])c([H])c2c(c1[H])C([H])([H])N(C(=O)C([H])(N([H])C(=O)C([H])(N([H])C([H])([H])[H])C([H])([H])[H])C(C([H])([H])[H])(C([H])([H])[H])C([H])([H])[H])C([H])(C(=O)N([H])C1([H])c3c([H])c([H])c([H])c([H])c3C([H])([H])C([H])([H])C1([H])[H])C2([H])[H]

$$$$
50:0:0
     RDKit          3D

 91 98  0  0  1  0  0  0  0  0999 V2000
  -29.6440  -20.5280   20.5420 C   0  0  0  0  0  0  0  0  0  0  0  0
  -29.3150  -19.1380   20.4890 N   0  0  0  0  0  0  0  0  0  0  0  0
  -30.8350  -20.8360   20.5890 O   0  0  0  0  0  0  0  0  0  0  0  0
  -28.3190  -18.9720   20.5250 H   0  0  0  0  0  0  0  0  0  0  0  0
  -28.5870  -21.8100   20.4850 C   0  0  0  0  0  2  0  0  0  0  0  0
  -28.9990  -23.4600   20.4940 C   0  0  0  0  0  3  0  0  0  0  0  0
  -27.9410  -24.7640   20.2690 C   0  0  0  0  0  3  0  0  0  0  0  0
  -28.2150  -26.3030   20.3550 O   0  0  0  0  0  0  0  0  0  0  0  0
  -24.5260  -31.9950   23.2760 C   0  0  0  0  0  0  0  0  0  0  0  0
  -27.1510  -27.2790   20.2830 C   0  0  0  0  0  0  0  0  0  0  0  0
  -23.3410  -30.5740   21.6490 C   0  0  0  0  0  3  0  0  0  0  0  0
  -24.8050  -29.0050   20.2350 C   0  0  0  0  0  0  0  0  0  0  0  0
  -25.8920  -30.8660   21.4790 C   0  0  0  0  0  2  0  0  0  0  0  0
  -25.9810  -29.4690   20.8380 C   0  0  0  0  0  0  0  0  0  0  0  0
  -27.1550  -28.6230   20.8420 C   0  0  0  0  0  3  0  0  0  0  0  0
  -25.9450  -26.9210   19.6400 C   0  0  0  0  0  3  0  0  0  0  0  0
  -24.8000  -27.7460   19.6190 C   0  0  0  0  0  3  0  0  0  0  0  0
  -23.5680  -29.8900   20.2760 C   0  0  0  0  0  2  0  0  0  0  0  0
  -24.6060  -31.1670   22.1890 N   0  0  0  0  0  0  0  0  0  0  0  0
  -23.4380  -32.2720   23.8020 O   0  0  0  0  0  0  0  0  0  0  0  0
  -22.6730  -29.5670   22.6200 C   0  0  0  0  0  0  0  0  0  0  0  0
  -21.3510  -29.3650   22.4800 N   0  0  0  0  0  0  0  0  0  0  0  0
  -23.3480  -28.9700   23.4630 O   0  0  0  0  0  0  0  0  0  0  0  0
  -20.8620  -29.8980   21.7760 H   0  0  0  0  0  0  0  0  0  0  0  0
  -17.9920  -28.0970   22.9630 C   0  0  0  0  0  0  0  0  0  0  0  0
  -20.5410  -28.4230   23.2570 C   0  0  0  0  0  3  0  0  0  0  0  0
  -20.6820  -26.9830   22.7100 C   0  0  0  0  0  2  0  0  0  0  0  0
  -19.6000  -26.6180   21.6880 C   0  0  0  0  0  2  0  0  0  0  0  0
  -18.2080  -26.7410   22.3120 C   0  0  0  0  0  2  0  0  0  0  0  0
  -19.0860  -28.8930   23.3930 C   0  0  0  0  0  0  0  0  0  0  0  0
  -18.8300  -30.1590   23.9630 C   0  0  0  0  0  3  0  0  0  0  0  0
  -17.5120  -30.6290   24.1070 C   0  0  0  0  0  3  0  0  0  0  0  0
  -16.4310  -29.8310   23.6930 C   0  0  0  0  0  3  0  0  0  0  0  0
  -16.6720  -28.5670   23.1270 C   0  0  0  0  0  3  0  0  0  0  0  0
  -25.7980  -32.6500   23.8960 C   0  0  0  0  0  3  0  0  0  0  0  0
  -25.4740  -34.0530   24.2030 N   0  0  0  0  0  0  0  0  0  0  0  0
  -25.8070  -35.1000   23.4350 C   0  0  0  0  0  0  0  0  0  0  0  0
  -26.4840  -34.9870   22.4100 O   0  0  0  0  0  0  0  0  0  0  0  0
  -24.8750  -34.2140   24.9990 H   0  0  0  0  0  0  0  0  0  0  0  0
  -24.0810  -36.8910   23.0420 C   0  0  0  0  0  1  0  0  0  0  0  0
  -25.3110  -36.4930   23.8740 C   0  0  0  0  0  3  0  0  0  0  0  0
  -27.4290  -37.3940   24.7320 C   0  0  0  0  0  1  0  0  0  0  0  0
  -26.3440  -37.5470   23.7660 N   0  0  0  0  0  0  0  0  0  0  0  0
  -25.9330  -38.4670   23.8940 H   0  0  0  0  0  0  0  0  0  0  0  0
  -26.3070  -31.9090   25.1940 C   0  0  1  0  0  0  0  0  0  0  0  0
  -25.2030  -31.6790   26.2540 C   0  0  0  0  0  1  0  0  0  0  0  0
  -26.9080  -30.5290   24.8400 C   0  0  0  0  0  1  0  0  0  0  0  0
  -27.4410  -32.7250   25.8540 C   0  0  0  0  0  1  0  0  0  0  0  0
  -30.1560  -17.8430   20.0760 C   0  0  0  0  0  3  0  0  0  0  0  0
  -30.6310  -15.1530   20.5860 C   0  0  0  0  0  0  0  0  0  0  0  0
  -30.5400  -12.8030   19.6460 C   0  0  0  0  0  2  0  0  0  0  0  0
  -29.6550  -12.7520   18.3790 C   0  0  0  0  0  2  0  0  0  0  0  0
  -28.1790  -12.5340   18.7590 C   0  0  0  0  0  2  0  0  0  0  0  0
  -27.7230  -13.4560   19.9190 C   0  0  0  0  0  3  0  0  0  0  0  0
  -28.7360  -13.4840   21.0830 C   0  0  0  0  0  2  0  0  0  0  0  0
  -30.0250  -13.8980   20.5180 N   0  0  0  0  0  0  0  0  0  0  0  0
  -31.8530  -15.1840   20.4080 O   0  0  0  0  0  0  0  0  0  0  0  0
  -29.8590  -16.3570   20.5820 N   0  0  0  0  0  0  0  0  0  0  0  0
  -28.8830  -16.1830   20.7590 H   0  0  0  0  0  0  0  0  0  0  0  0
  -25.3110  -14.0150   20.5630 C   0  0  0  0  0  0  0  0  0  0  0  0
  -24.2400  -13.2320   20.8930 C   0  0  0  0  0  0  0  0  0  0  0  0
  -24.7180  -11.8850   20.8850 C   0  0  0  0  0  0  0  0  0  0  0  0
  -26.3710  -13.1460   20.3670 N   0  0  0  0  0  0  0  0  0  0  0  0
  -26.0210  -11.8600   20.6290 N   0  0  0  0  0  0  0  0  0  0  0  0
  -23.9950  -10.6170   21.0470 C   0  0  0  0  0  0  0  0  0  0  0  0
  -24.4070   -9.6450   21.9860 C   0  0  0  0  0  3  0  0  0  0  0  0
  -23.6820   -8.4430   22.1380 C   0  0  0  0  0  3  0  0  0  0  0  0
  -22.5300   -8.2040   21.3510 C   0  0  0  0  0  0  0  0  0  0  0  0
  -22.1370   -9.1650   20.4020 C   0  0  0  0  0  3  0  0  0  0  0  0
  -22.8630  -10.3580   20.2480 C   0  0  0  0  0  3  0  0  0  0  0  0
  -21.7800   -7.0560   21.4110 O   0  0  0  0  0  0  0  0  0  0  0  0
  -21.7170   -6.2960   22.5520 C   0  0  0  0  0  0  0  0  0  0  0  0
  -21.2430   -6.8220   23.7730 C   0  0  0  0  0  3  0  0  0  0  0  0
  -21.1310   -5.9870   24.9020 C   0  0  0  0  0  3  0  0  0  0  0  0
  -21.4820   -4.6280   24.8130 C   0  0  0  0  0  0  0  0  0  0  0  0
  -21.9500   -4.1010   23.5960 C   0  0  0  0  0  3  0  0  0  0  0  0
  -22.0640   -4.9320   22.4670 C   0  0  0  0  0  0  0  0  0  0  0  0
  -22.4950   -4.4140   21.2920 F   0  0  0  0  0  0  0  0  0  0  0  0
  -21.3680   -3.8230   25.8950 F   0  0  0  0  0  0  0  0  0  0  0  0
  -22.8290  -13.6980   21.1020 C   0  0  0  0  0  0  0  0  0  0  0  0
  -22.0720  -13.0020   21.9430 N   0  0  0  0  0  0  0  0  0  0  0  0
  -22.4050  -14.7140   20.5540 O   0  0  0  0  0  0  0  0  0  0  0  0
  -22.4280  -12.1800   22.4070 H   0  0  0  0  0  0  0  0  0  0  0  0
  -21.1240  -13.2960   22.1250 H   0  0  0  0  0  0  0  0  0  0  0  0
  -25.4680  -15.3870   20.3850 N   0  0  0  0  0  0  0  0  0  0  0  0
  -24.6850  -16.0270   20.4560 H   0  0  0  0  0  0  0  0  0  0  0  0
  -26.3100  -15.8300   20.0460 H   0  0  0  0  0  0  0  0  0  0  0  0
  -31.1400  -16.7500   17.9080 C   0  0  0  0  0  1  0  0  0  0  0  0
  -30.6320  -19.1480   17.8530 C   0  0  0  0  0  1  0  0  0  0  0  0
  -28.7600  -17.5030   17.9520 C   0  0  0  0  0  1  0  0  0  0  0  0
  -30.1760  -17.8110   18.4850 C   0  0  2  0  0  0  0  0  0  0  0  0
  1  3  2  0
  2  4  1  0
  2  1  1  0
  5  6  1  0
  5  1  1  0
  7  8  1  0
  7  6  2  0
  9 20  2  0
 10  8  1  0
 10 15  1  0
 11 19  1  0
 11 21  1  0
 12 18  1  0
 12 14  1  0
 13 19  1  0
 14 15  2  0
 14 13  1  0
 16 10  2  0
 17 16  1  0
 17 12  2  0
 18 11  1  0
 19  9  1  0
 21 23  2  0
 22 21  1  0
 24 22  1  0
 25 34  2  0
 25 30  1  0
 26 22  1  0
 26 30  1  0
 27 26  1  0
 28 29  1  0
 28 27  1  0
 29 25  1  0
 30 31  2  0
 31 32  1  0
 33 32  2  0
 34 33  1  0
 35  9  1  0
 35 36  1  0
 35 45  1  0
 36 39  1  0
 37 41  1  0
 37 36  1  0
 38 37  2  0
 41 40  1  0
 43 41  1  0
 43 44  1  0
 43 42  1  0
 45 48  1  1
 45 46  1  0
 47 45  1  0
 49 91  1  0
 49  2  1  0
 49 58  1  0
 51 56  1  0
 52 53  1  0
 52 51  1  0
 54 53  1  0
 54 63  1  0
 54 55  1  0
 56 50  1  0
 56 55  1  0
 57 50  2  0
 58 50  1  0
 58 59  1  0
 60 61  2  0
 61 80  1  0
 62 61  1  0
 62 65  1  0
 63 60  1  0
 63 64  1  0
 64 62  2  0
 65 66  1  0
 66 67  2  0
 68 71  1  0
 68 67  1  0
 69 68  2  0
 70 69  1  0
 70 65  2  0
 71 72  1  0
 72 73  1  0
 73 74  2  0
 75 74  1  0
 75 79  1  0
 76 75  2  0
 77 72  2  0
 77 76  1  0
 78 77  1  0
 80 81  1  0
 81 84  1  0
 81 83  1  0
 82 80  2  0
 85 86  1  0
 85 60  1  0
 87 85  1  0
 91 88  1  1
 89 91  1  0
 90 91  1  0
M  ISO  4   7 101   8 101  50 100  58 100
M  END
>  <TORSDO>  (50) 
F 21

>  <SCORE>  (50) 
-14.280

>  <name>  (50) 
50

>  <ligand_id>  (50) 
50

>  <original_smiles>  (50) 
[H]c1c([H])c([H])c2c(c1[H])C([H])([H])C([H])([H])C([H])([H])C2([H])N([H])C(=O)C1([H])N(C(=O)C([H])(N([H])C(=O)C([H])(N([H])C([H])([H])[H])C([H])([H])[H])C(C([H])([H])[H])(C([H])([H])[H])C([H])([H])[H])C([H])([H])c2c([H])c(OC([H])([H])C([H])([H])C([H])([H])C(=O)N([H])C([H])(N([H])C(=O)N3C([H])([H])C([H])([H])C([H])([H])C([H])(n4nc(-c5c([H])c([H])c(Oc6c([H])c([H])c(F)c([H])c6F)c([H])c5[H])c(C(=O)N([H])[H])c4N([H])[H])C3([H])[H])C(C([H])([H])[H])(C([H])([H])[H])C([H])([H])[H])c([H])c([H])c2C1([H])[H]

>  <smiles>  (50) 
[H]c1c([H])c([H])c2c(c1[H])C([H])([H])C([H])([H])C([H])([H])C2([H])N([H])C(=O)C1([H])N(C(=O)C([H])(N([H])C(=O)C([H])(N([H])C([H])([H])[H])C([H])([H])[H])C(C([H])([H])[H])(C([H])([H])[H])C([H])([H])[H])C([H])([H])c2c([H])c(OC([H])([H])C([H])([H])C([H])([H])C(=O)N([H])C([H])(N([H])C(=O)N3C([H])([H])C([H])([H])C([H])([H])C([H])(n4nc(-c5c([H])c([H])c(Oc6c([H])c([H])c(F)c([H])c6F)c([H])c5[H])c(C(=O)N([H])[H])c4N([H])[H])C3([H])[H])C(C([H])([H])[H])(C([H])([H])[H])C([H])([H])[H])c([H])c([H])c2C1([H])[H]

$$$$
51:0:0
     RDKit          3D

 90 97  0  0  1  0  0  0  0  0999 V2000
  -29.1350  -22.7500   20.3660 N   0  0  0  0  0  4  0  0  0  0  0  0
  -28.3540  -22.5190   20.9630 H   0  0  0  0  0  0  0  0  0  0  0  0
  -28.8460  -22.5750   19.4170 H   0  0  0  0  0  0  0  0  0  0  0  0
  -30.2490  -21.7870   20.6940 C   0  0  0  0  0  2  0  0  0  0  0  0
  -29.9040  -20.2530   20.5010 C   0  0  0  0  0  3  0  0  0  0  0  0
  -31.0090  -19.2390   20.9780 C   0  0  0  0  0  3  0  0  0  0  0  0
  -30.6460  -14.5480   20.5160 C   0  0  0  0  0  0  0  0  0  0  0  0
  -30.3820  -12.3840   19.3200 C   0  0  0  0  0  2  0  0  0  0  0  0
  -29.4390  -12.5660   18.1090 C   0  0  0  0  0  2  0  0  0  0  0  0
  -27.9610  -12.4310   18.5270 C   0  0  0  0  0  2  0  0  0  0  0  0
  -27.6170  -13.2640   19.7890 C   0  0  0  0  0  3  0  0  0  0  0  0
  -28.6630  -13.0270   20.9040 C   0  0  0  0  0  2  0  0  0  0  0  0
  -29.9980  -13.3530   20.3630 N   0  0  0  0  0  0  0  0  0  0  0  0
  -31.7010  -14.8310   19.9290 O   0  0  0  0  0  0  0  0  0  0  0  0
  -30.1520  -16.8850   21.4680 C   0  0  0  0  0  2  0  0  0  0  0  0
  -29.9990  -15.5250   21.3680 N   0  0  0  0  0  0  0  0  0  0  0  0
  -30.7980  -17.7810   20.6670 N   0  0  0  0  0  0  0  0  0  0  0  0
  -29.2610  -15.2020   21.9690 H   0  0  0  0  0  0  0  0  0  0  0  0
  -31.2760  -17.4350   19.8440 H   0  0  0  0  0  0  0  0  0  0  0  0
  -25.2140  -13.8910   20.4710 C   0  0  0  0  0  0  0  0  0  0  0  0
  -24.1380  -13.1300   20.8450 C   0  0  0  0  0  0  0  0  0  0  0  0
  -24.5900  -11.7740   20.8290 C   0  0  0  0  0  0  0  0  0  0  0  0
  -26.2550  -13.0010   20.2540 N   0  0  0  0  0  0  0  0  0  0  0  0
  -25.8810  -11.7240   20.5240 N   0  0  0  0  0  0  0  0  0  0  0  0
  -23.8540  -10.5190   21.0250 C   0  0  0  0  0  0  0  0  0  0  0  0
  -24.2860   -9.5490   21.9570 C   0  0  0  0  0  3  0  0  0  0  0  0
  -23.5510   -8.3590   22.1420 C   0  0  0  0  0  3  0  0  0  0  0  0
  -22.3700   -8.1290   21.3950 C   0  0  0  0  0  0  0  0  0  0  0  0
  -21.9580   -9.0870   20.4530 C   0  0  0  0  0  3  0  0  0  0  0  0
  -22.6940  -10.2680   20.2650 C   0  0  0  0  0  3  0  0  0  0  0  0
  -21.6080   -6.9880   21.4880 O   0  0  0  0  0  0  0  0  0  0  0  0
  -21.5660   -6.2430   22.6380 C   0  0  0  0  0  0  0  0  0  0  0  0
  -21.1670   -6.7980   23.8740 C   0  0  0  0  0  3  0  0  0  0  0  0
  -21.0720   -5.9780   25.0160 C   0  0  0  0  0  3  0  0  0  0  0  0
  -21.3680   -4.6060   24.9250 C   0  0  0  0  0  0  0  0  0  0  0  0
  -21.7640   -4.0500   23.6960 C   0  0  0  0  0  3  0  0  0  0  0  0
  -21.8590   -4.8670   22.5550 C   0  0  0  0  0  0  0  0  0  0  0  0
  -22.2200   -4.3230   21.3680 F   0  0  0  0  0  0  0  0  0  0  0  0
  -21.2700   -3.8150   26.0210 F   0  0  0  0  0  0  0  0  0  0  0  0
  -22.7420  -13.6190   21.1050 C   0  0  0  0  0  0  0  0  0  0  0  0
  -22.0040  -12.9390   21.9750 N   0  0  0  0  0  0  0  0  0  0  0  0
  -22.3140  -14.6400   20.5700 O   0  0  0  0  0  0  0  0  0  0  0  0
  -22.3630  -12.1170   22.4350 H   0  0  0  0  0  0  0  0  0  0  0  0
  -21.0660  -13.2500   22.1910 H   0  0  0  0  0  0  0  0  0  0  0  0
  -25.3880  -15.2580   20.2800 N   0  0  0  0  0  0  0  0  0  0  0  0
  -24.6180  -15.9150   20.3580 H   0  0  0  0  0  0  0  0  0  0  0  0
  -26.2260  -15.6830   19.9030 H   0  0  0  0  0  0  0  0  0  0  0  0
  -29.4170  -24.2310   20.5050 C   0  0  0  0  0  2  0  0  0  0  0  0
  -28.2030  -25.1530   20.1140 C   0  0  0  0  0  2  0  0  0  0  0  0
  -28.3710  -26.6020   20.2420 O   0  0  0  0  0  0  0  0  0  0  0  0
  -24.6030  -31.9150   23.2450 C   0  0  0  0  0  0  0  0  0  0  0  0
  -27.2200  -27.3930   20.1890 C   0  0  0  0  0  0  0  0  0  0  0  0
  -23.3940  -30.5190   21.6040 C   0  0  0  0  0  3  0  0  0  0  0  0
  -24.8430  -28.9690   20.1830 C   0  0  0  0  0  0  0  0  0  0  0  0
  -25.9290  -30.8450   21.4150 C   0  0  0  0  0  2  0  0  0  0  0  0
  -26.0080  -29.4690   20.7750 C   0  0  0  0  0  0  0  0  0  0  0  0
  -27.1980  -28.6930   20.7700 C   0  0  0  0  0  3  0  0  0  0  0  0
  -26.0270  -26.9290   19.5800 C   0  0  0  0  0  3  0  0  0  0  0  0
  -24.8510  -27.7020   19.5790 C   0  0  0  0  0  3  0  0  0  0  0  0
  -23.6060  -29.8400   20.2250 C   0  0  0  0  0  2  0  0  0  0  0  0
  -24.6620  -31.1080   22.1470 N   0  0  0  0  0  0  0  0  0  0  0  0
  -23.5220  -32.1940   23.7810 O   0  0  0  0  0  0  0  0  0  0  0  0
  -22.7300  -29.5030   22.5650 C   0  0  0  0  0  0  0  0  0  0  0  0
  -21.4020  -29.3380   22.4420 N   0  0  0  0  0  0  0  0  0  0  0  0
  -23.4070  -28.8690   23.3770 O   0  0  0  0  0  0  0  0  0  0  0  0
  -20.9160  -29.8980   21.7570 H   0  0  0  0  0  0  0  0  0  0  0  0
  -18.0150  -28.1810   22.9520 C   0  0  0  0  0  0  0  0  0  0  0  0
  -20.5770  -28.4080   23.2140 C   0  0  0  0  0  3  0  0  0  0  0  0
  -20.6620  -26.9780   22.6330 C   0  0  0  0  0  2  0  0  0  0  0  0
  -19.5520  -26.6710   21.6230 C   0  0  0  0  0  2  0  0  0  0  0  0
  -18.1740  -26.8310   22.2720 C   0  0  0  0  0  2  0  0  0  0  0  0
  -19.1440  -28.9290   23.3800 C   0  0  0  0  0  0  0  0  0  0  0  0
  -18.9420  -30.1930   23.9750 C   0  0  0  0  0  3  0  0  0  0  0  0
  -17.6430  -30.7090   24.1460 C   0  0  0  0  0  3  0  0  0  0  0  0
  -16.5290  -29.9580   23.7350 C   0  0  0  0  0  3  0  0  0  0  0  0
  -16.7160  -28.6950   23.1440 C   0  0  0  0  0  3  0  0  0  0  0  0
  -25.8910  -32.5420   23.8670 C   0  0  0  0  0  3  0  0  0  0  0  0
  -25.5870  -33.9390   24.2040 N   0  0  0  0  0  0  0  0  0  0  0  0
  -25.9100  -34.9930   23.4430 C   0  0  0  0  0  0  0  0  0  0  0  0
  -26.5650  -34.8900   22.4010 O   0  0  0  0  0  0  0  0  0  0  0  0
  -25.0070  -34.0940   25.0160 H   0  0  0  0  0  0  0  0  0  0  0  0
  -24.1720  -36.7800   23.1250 C   0  0  0  0  0  1  0  0  0  0  0  0
  -25.4310  -36.3810   23.9090 C   0  0  0  0  0  3  0  0  0  0  0  0
  -27.5810  -37.2670   24.6950 C   0  0  0  0  0  1  0  0  0  0  0  0
  -26.4600  -37.4340   23.7750 N   0  0  0  0  0  0  0  0  0  0  0  0
  -26.0560  -38.3530   23.9340 H   0  0  0  0  0  0  0  0  0  0  0  0
  -26.4100  -31.7630   25.1360 C   0  0  1  0  0  0  0  0  0  0  0  0
  -25.3190  -31.5230   26.2060 C   0  0  0  0  0  1  0  0  0  0  0  0
  -26.9850  -30.3860   24.7320 C   0  0  0  0  0  1  0  0  0  0  0  0
  -27.5670  -32.5490   25.7980 C   0  0  0  0  0  1  0  0  0  0  0  0
  1 48  1  0
  1  4  1  0
  1  2  1  0
  3  1  1  0
  5  4  1  0
  5  6  2  0
  7 16  1  0
  8 13  1  0
  9 10  1  0
  9  8  1  0
 11 10  1  0
 11 23  1  0
 11 12  1  0
 13  7  1  0
 13 12  1  0
 14  7  2  0
 16 15  1  0
 16 18  1  0
 17  6  1  0
 17 15  1  0
 19 17  1  0
 20 21  2  0
 21 40  1  0
 22 21  1  0
 22 25  1  0
 23 20  1  0
 23 24  1  0
 24 22  2  0
 25 26  1  0
 26 27  2  0
 28 31  1  0
 28 27  1  0
 29 28  2  0
 30 29  1  0
 30 25  2  0
 31 32  1  0
 32 33  1  0
 33 34  2  0
 35 34  1  0
 35 39  1  0
 36 35  2  0
 37 32  2  0
 37 36  1  0
 38 37  1  0
 40 41  1  0
 41 44  1  0
 41 43  1  0
 42 40  2  0
 45 46  1  0
 45 20  1  0
 47 45  1  0
 49 50  1  0
 49 48  1  0
 51 62  2  0
 52 50  1  0
 52 57  1  0
 53 61  1  0
 53 63  1  0
 54 60  1  0
 54 56  1  0
 55 61  1  0
 56 55  1  0
 57 56  2  0
 58 52  2  0
 59 58  1  0
 59 54  2  0
 60 53  1  0
 61 51  1  0
 63 65  2  0
 64 63  1  0
 66 64  1  0
 67 76  2  0
 67 72  1  0
 68 64  1  0
 68 72  1  0
 69 68  1  0
 70 71  1  0
 70 69  1  0
 71 67  1  0
 72 73  2  0
 73 74  1  0
 75 74  2  0
 76 75  1  0
 77 51  1  0
 77 78  1  0
 77 87  1  0
 78 81  1  0
 79 83  1  0
 79 78  1  0
 80 79  2  0
 83 82  1  0
 85 83  1  0
 85 86  1  0
 85 84  1  0
 87 90  1  1
 87 88  1  0
 89 87  1  0
M  ISO  4   7 100  16 100  49 101  50 101
M  END
>  <TORSDO>  (51) 
F 21

>  <SCORE>  (51) 
-13.322

>  <name>  (51) 
51

>  <ligand_id>  (51) 
51

>  <original_smiles>  (51) 
[H]C(N([H])C(=O)N1C([H])([H])C([H])([H])C([H])([H])C([H])(n2nc(-c3c([H])c([H])c(Oc4c([H])c([H])c(F)c([H])c4F)c([H])c3[H])c(C(=O)N([H])[H])c2N([H])[H])C1([H])[H])=[N+]([H])C([H])([H])C([H])([H])C([H])([H])[N+]([H])([H])C([H])([H])C([H])([H])Oc1c([H])c([H])c2c(c1[H])C([H])([H])N(C(=O)C([H])(N([H])C(=O)C([H])(N([H])C([H])([H])[H])C([H])([H])[H])C(C([H])([H])[H])(C([H])([H])[H])C([H])([H])[H])C([H])(C(=O)N([H])C1([H])c3c([H])c([H])c([H])c([H])c3C([H])([H])C([H])([H])C1([H])[H])C2([H])[H]

>  <smiles>  (51) 
[H]C(N([H])C(=O)N1C([H])([H])C([H])([H])C([H])([H])C([H])(n2nc(-c3c([H])c([H])c(Oc4c([H])c([H])c(F)c([H])c4F)c([H])c3[H])c(C(=O)N([H])[H])c2N([H])[H])C1([H])[H])=[N+]([H])C([H])([H])C([H])([H])C([H])([H])[N+]([H])([H])C([H])([H])C([H])([H])Oc1c([H])c([H])c2c(c1[H])C([H])([H])N(C(=O)C([H])(N([H])C(=O)C([H])(N([H])C([H])([H])[H])C([H])([H])[H])C(C([H])([H])[H])(C([H])([H])[H])C([H])([H])[H])C([H])(C(=O)N([H])C1([H])c3c([H])c([H])c([H])c([H])c3C([H])([H])C([H])([H])C1([H])[H])C2([H])[H]

$$$$
52:0:0
     RDKit          3D

 89 96  0  0  1  0  0  0  0  0999 V2000
  -29.1290  -19.8420   20.4030 C   0  0  0  0  0  0  0  0  0  0  0  0
  -29.0930  -21.2510   19.9180 N   0  0  0  0  0  0  0  0  0  0  0  0
  -28.5030  -19.6410   21.4440 O   0  0  0  0  0  0  0  0  0  0  0  0
  -29.5610  -21.3290   19.0230 H   0  0  0  0  0  0  0  0  0  0  0  0
  -28.7070  -22.7760   20.5230 C   0  0  0  0  0  2  0  0  0  0  0  0
  -28.1280  -24.3490   19.8220 C   0  0  0  0  0  2  0  0  0  0  0  0
  -28.1790  -25.9520   20.2640 O   0  0  0  0  0  0  0  0  0  0  0  0
  -24.5810  -31.9000   23.2140 C   0  0  0  0  0  0  0  0  0  0  0  0
  -27.1650  -27.0490   20.1590 C   0  0  0  0  0  0  0  0  0  0  0  0
  -23.3980  -30.5140   21.5590 C   0  0  0  0  0  3  0  0  0  0  0  0
  -24.8590  -28.9280   20.1200 C   0  0  0  0  0  0  0  0  0  0  0  0
  -25.9640  -30.7330   21.4250 C   0  0  0  0  0  2  0  0  0  0  0  0
  -26.0410  -29.3300   20.7540 C   0  0  0  0  0  0  0  0  0  0  0  0
  -27.1840  -28.4090   20.7520 C   0  0  0  0  0  3  0  0  0  0  0  0
  -25.9560  -26.8090   19.4680 C   0  0  0  0  0  3  0  0  0  0  0  0
  -24.8420  -27.6910   19.4570 C   0  0  0  0  0  3  0  0  0  0  0  0
  -23.6350  -29.8450   20.1760 C   0  0  0  0  0  2  0  0  0  0  0  0
  -24.6700  -31.0770   22.1190 N   0  0  0  0  0  0  0  0  0  0  0  0
  -23.4890  -32.1820   23.7340 O   0  0  0  0  0  0  0  0  0  0  0  0
  -22.7050  -29.5080   22.5140 C   0  0  0  0  0  0  0  0  0  0  0  0
  -21.3770  -29.3340   22.3790 N   0  0  0  0  0  0  0  0  0  0  0  0
  -23.3690  -28.8850   23.3450 O   0  0  0  0  0  0  0  0  0  0  0  0
  -20.8940  -29.8880   21.6860 H   0  0  0  0  0  0  0  0  0  0  0  0
  -18.0010  -28.0920   22.8580 C   0  0  0  0  0  0  0  0  0  0  0  0
  -20.5570  -28.3830   23.1390 C   0  0  0  0  0  3  0  0  0  0  0  0
  -20.6770  -26.9560   22.5570 C   0  0  0  0  0  2  0  0  0  0  0  0
  -19.5840  -26.6280   21.5340 C   0  0  0  0  0  2  0  0  0  0  0  0
  -18.1970  -26.7510   22.1700 C   0  0  0  0  0  2  0  0  0  0  0  0
  -19.1090  -28.8650   23.2980 C   0  0  0  0  0  0  0  0  0  0  0  0
  -18.8700  -30.1170   23.9050 C   0  0  0  0  0  3  0  0  0  0  0  0
  -17.5570  -30.5980   24.0720 C   0  0  0  0  0  3  0  0  0  0  0  0
  -16.4650  -29.8230   23.6450 C   0  0  0  0  0  3  0  0  0  0  0  0
  -16.6870  -28.5720   23.0440 C   0  0  0  0  0  3  0  0  0  0  0  0
  -25.8470  -32.5440   23.8570 C   0  0  0  0  0  3  0  0  0  0  0  0
  -26.3230  -31.7990   25.1660 C   0  0  1  0  0  0  0  0  0  0  0  0
  -25.2000  -31.5960   26.2110 C   0  0  0  0  0  1  0  0  0  0  0  0
  -26.9040  -30.4060   24.8310 C   0  0  0  0  0  1  0  0  0  0  0  0
  -27.4630  -32.6000   25.8390 C   0  0  0  0  0  1  0  0  0  0  0  0
  -25.5360  -33.9520   24.1620 N   0  0  0  0  0  0  0  0  0  0  0  0
  -25.8930  -34.9990   23.4060 C   0  0  0  0  0  0  0  0  0  0  0  0
  -26.5810  -34.8810   22.3880 O   0  0  0  0  0  0  0  0  0  0  0  0
  -24.9270  -34.1170   24.9490 H   0  0  0  0  0  0  0  0  0  0  0  0
  -24.1960  -36.8180   23.0100 C   0  0  0  0  0  1  0  0  0  0  0  0
  -25.4160  -36.3990   23.8470 C   0  0  0  0  0  3  0  0  0  0  0  0
  -27.5380  -37.2730   24.7230 C   0  0  0  0  0  1  0  0  0  0  0  0
  -26.4640  -37.4390   23.7480 N   0  0  0  0  0  0  0  0  0  0  0  0
  -26.0650  -38.3660   23.8700 H   0  0  0  0  0  0  0  0  0  0  0  0
  -29.9600  -18.3950   19.8110 C   0  0  0  0  0  3  0  0  0  0  0  0
  -30.4580  -15.4500   19.8890 C   0  0  0  0  0  0  0  0  0  0  0  0
  -30.3550  -13.0210   18.9630 C   0  0  0  0  0  2  0  0  0  0  0  0
  -29.3670  -12.8510   17.7830 C   0  0  0  0  0  2  0  0  0  0  0  0
  -27.9480  -12.5670   18.3020 C   0  0  0  0  0  2  0  0  0  0  0  0
  -27.5690  -13.4960   19.4810 C   0  0  0  0  0  3  0  0  0  0  0  0
  -28.6840  -13.6230   20.5440 C   0  0  0  0  0  2  0  0  0  0  0  0
  -29.8730  -14.1470   19.8540 N   0  0  0  0  0  0  0  0  0  0  0  0
  -31.6460  -15.4180   19.5400 O   0  0  0  0  0  0  0  0  0  0  0  0
  -29.7480  -16.7460   20.1160 N   0  0  0  0  0  0  0  0  0  0  0  0
  -28.8090  -16.5760   20.4450 H   0  0  0  0  0  0  0  0  0  0  0  0
  -25.2450  -14.0250   20.3820 C   0  0  0  0  0  0  0  0  0  0  0  0
  -24.2110  -13.2360   20.7990 C   0  0  0  0  0  0  0  0  0  0  0  0
  -24.6820  -11.8890   20.7170 C   0  0  0  0  0  0  0  0  0  0  0  0
  -26.2770  -13.1600   20.0620 N   0  0  0  0  0  0  0  0  0  0  0  0
  -25.9540  -11.8680   20.3310 N   0  0  0  0  0  0  0  0  0  0  0  0
  -23.9720  -10.6200   20.9250 C   0  0  0  0  0  0  0  0  0  0  0  0
  -24.4370   -9.6530   21.8440 C   0  0  0  0  0  3  0  0  0  0  0  0
  -23.7230   -8.4520   22.0420 C   0  0  0  0  0  3  0  0  0  0  0  0
  -22.5290   -8.2070   21.3230 C   0  0  0  0  0  0  0  0  0  0  0  0
  -22.0830   -9.1630   20.3930 C   0  0  0  0  0  3  0  0  0  0  0  0
  -22.7980  -10.3550   20.1920 C   0  0  0  0  0  3  0  0  0  0  0  0
  -21.7840   -7.0580   21.4320 O   0  0  0  0  0  0  0  0  0  0  0  0
  -21.7550   -6.3270   22.5920 C   0  0  0  0  0  0  0  0  0  0  0  0
  -21.2990   -6.8780   23.8090 C   0  0  0  0  0  3  0  0  0  0  0  0
  -21.2200   -6.0700   24.9620 C   0  0  0  0  0  3  0  0  0  0  0  0
  -21.5870   -4.7130   24.8980 C   0  0  0  0  0  0  0  0  0  0  0  0
  -22.0350   -4.1610   23.6850 C   0  0  0  0  0  3  0  0  0  0  0  0
  -22.1150   -4.9660   22.5350 C   0  0  0  0  0  0  0  0  0  0  0  0
  -22.5280   -4.4230   21.3640 F   0  0  0  0  0  0  0  0  0  0  0  0
  -21.5030   -3.9350   26.0030 F   0  0  0  0  0  0  0  0  0  0  0  0
  -22.8300  -13.7010   21.1530 C   0  0  0  0  0  0  0  0  0  0  0  0
  -22.1510  -12.9850   22.0420 N   0  0  0  0  0  0  0  0  0  0  0  0
  -22.3640  -14.7360   20.6770 O   0  0  0  0  0  0  0  0  0  0  0  0
  -22.5430  -12.1480   22.4470 H   0  0  0  0  0  0  0  0  0  0  0  0
  -21.2260  -13.2780   22.3220 H   0  0  0  0  0  0  0  0  0  0  0  0
  -25.3890  -15.4000   20.2180 N   0  0  0  0  0  0  0  0  0  0  0  0
  -24.6220  -16.0430   20.3800 H   0  0  0  0  0  0  0  0  0  0  0  0
  -26.2010  -15.8480   19.8140 H   0  0  0  0  0  0  0  0  0  0  0  0
  -31.8640  -18.6960   21.5400 C   0  0  0  0  0  1  0  0  0  0  0  0
  -32.0780  -19.8620   19.3010 C   0  0  0  0  0  1  0  0  0  0  0  0
  -31.4850  -18.6510   20.0470 C   0  0  0  0  0  3  0  0  0  0  0  0
  1  3  2  0
  2  1  1  0
  2  5  1  0
  4  2  1  0
  6  7  1  0
  6  5  1  0
  8 19  2  0
  9  7  1  0
  9 14  1  0
 10 18  1  0
 10 20  1  0
 11 17  1  0
 11 13  1  0
 12 18  1  0
 13 12  1  0
 14 13  2  0
 15  9  2  0
 16 15  1  0
 16 11  2  0
 17 10  1  0
 18  8  1  0
 20 22  2  0
 21 20  1  0
 23 21  1  0
 24 33  2  0
 24 29  1  0
 25 21  1  0
 25 29  1  0
 26 25  1  0
 27 28  1  0
 27 26  1  0
 28 24  1  0
 29 30  2  0
 30 31  1  0
 32 31  2  0
 33 32  1  0
 34  8  1  0
 34 39  1  0
 34 35  1  0
 35 38  1  1
 35 36  1  0
 37 35  1  0
 39 42  1  0
 40 44  1  0
 40 39  1  0
 41 40  2  0
 44 43  1  0
 46 44  1  0
 46 47  1  0
 46 45  1  0
 48 89  1  0
 48 57  1  0
 48  1  1  0
 49 57  1  0
 50 55  1  0
 51 52  1  0
 51 50  1  0
 53 52  1  0
 53 62  1  0
 53 54  1  0
 55 49  1  0
 55 54  1  0
 56 49  2  0
 57 58  1  0
 59 60  2  0
 60 79  1  0
 61 60  1  0
 61 64  1  0
 62 63  1  0
 62 59  1  0
 63 61  2  0
 64 65  1  0
 65 66  2  0
 67 70  1  0
 67 66  1  0
 68 67  2  0
 69 68  1  0
 69 64  2  0
 70 71  1  0
 71 72  1  0
 72 73  2  0
 74 73  1  0
 74 78  1  0
 75 74  2  0
 76 71  2  0
 76 75  1  0
 77 76  1  0
 79 80  1  0
 80 83  1  0
 80 82  1  0
 81 79  2  0
 84 85  1  0
 84 59  1  0
 86 84  1  0
 88 89  1  0
 89 87  1  0
M  ISO  4   6 101   7 101  49 100  57 100
M  END
>  <TORSDO>  (52) 
F 20

>  <SCORE>  (52) 
-15.647

>  <name>  (52) 
52

>  <ligand_id>  (52) 
52

>  <original_smiles>  (52) 
[H]c1c([H])c([H])c2c(c1[H])C([H])([H])C([H])([H])C([H])([H])C2([H])N([H])C(=O)C1([H])N(C(=O)C([H])(N([H])C(=O)C([H])(N([H])C([H])([H])[H])C([H])([H])[H])C(C([H])([H])[H])(C([H])([H])[H])C([H])([H])[H])C([H])([H])c2c([H])c(OC([H])([H])C([H])([H])N([H])C(=O)C([H])(N([H])C(=O)N3C([H])([H])C([H])([H])C([H])([H])C([H])(n4nc(-c5c([H])c([H])c(Oc6c([H])c([H])c(F)c([H])c6F)c([H])c5[H])c(C(=O)N([H])[H])c4N([H])[H])C3([H])[H])C([H])(C([H])([H])[H])C([H])([H])[H])c([H])c([H])c2C1([H])[H]

>  <smiles>  (52) 
[H]c1c([H])c([H])c2c(c1[H])C([H])([H])C([H])([H])C([H])([H])C2([H])N([H])C(=O)C1([H])N(C(=O)C([H])(N([H])C(=O)C([H])(N([H])C([H])([H])[H])C([H])([H])[H])C(C([H])([H])[H])(C([H])([H])[H])C([H])([H])[H])C([H])([H])c2c([H])c(OC([H])([H])C([H])([H])N([H])C(=O)C([H])(N([H])C(=O)N3C([H])([H])C([H])([H])C([H])([H])C([H])(n4nc(-c5c([H])c([H])c(Oc6c([H])c([H])c(F)c([H])c6F)c([H])c5[H])c(C(=O)N([H])[H])c4N([H])[H])C3([H])[H])C([H])(C([H])([H])[H])C([H])([H])[H])c([H])c([H])c2C1([H])[H]

$$$$
53:0:0
     RDKit          3D

 98105  0  0  1  0  0  0  0  0999 V2000
  -29.4830  -23.8910   20.7050 C   0  0  0  0  0  0  0  0  0  0  0  0
  -30.1870  -23.2370   19.7710 N   0  0  0  0  0  0  0  0  0  0  0  0
  -28.5270  -23.3780   21.2880 O   0  0  0  0  0  0  0  0  0  0  0  0
  -30.9990  -23.6930   19.3700 H   0  0  0  0  0  0  0  0  0  0  0  0
  -29.1020  -21.7740   18.1100 C   0  0  0  0  0  1  0  0  0  0  0  0
  -30.0160  -21.8360   19.3540 C   0  0  0  0  0  3  0  0  0  0  0  0
  -31.4040  -21.1850   19.1320 C   0  0  0  0  0  0  0  0  0  0  0  0
  -32.8590  -19.2750   18.6680 C   0  0  0  0  0  1  0  0  0  0  0  0
  -31.5590  -19.8320   19.0710 N   0  0  0  0  0  0  0  0  0  0  0  0
  -32.3690  -21.9460   18.9840 O   0  0  0  0  0  0  0  0  0  0  0  0
  -30.4930  -18.8240   19.2320 C   0  0  0  0  0  2  0  0  0  0  0  0
  -30.8050  -17.7430   20.2960 C   0  0  0  0  0  2  0  0  0  0  0  0
  -29.6380  -16.7370   20.4000 C   0  0  0  0  0  2  0  0  0  0  0  0
  -30.6550  -14.4760   20.5040 C   0  0  0  0  0  0  0  0  0  0  0  0
  -30.3640  -12.3370   19.3340 C   0  0  0  0  0  2  0  0  0  0  0  0
  -29.4290  -12.5990   18.1340 C   0  0  0  0  0  2  0  0  0  0  0  0
  -27.9490  -12.4770   18.5500 C   0  0  0  0  0  2  0  0  0  0  0  0
  -27.6210  -13.2730   19.8430 C   0  0  0  0  0  3  0  0  0  0  0  0
  -28.6700  -12.9890   20.9440 C   0  0  0  0  0  2  0  0  0  0  0  0
  -30.0080  -13.2860   20.3960 N   0  0  0  0  0  0  0  0  0  0  0  0
  -31.7440  -14.7040   19.9720 O   0  0  0  0  0  0  0  0  0  0  0  0
  -29.9160  -15.4510   21.0530 N   0  0  0  0  0  0  0  0  0  0  0  0
  -29.1400  -15.0940   21.5930 H   0  0  0  0  0  0  0  0  0  0  0  0
  -25.2120  -13.8880   20.5280 C   0  0  0  0  0  0  0  0  0  0  0  0
  -24.1380  -13.1190   20.8950 C   0  0  0  0  0  0  0  0  0  0  0  0
  -24.6010  -11.7660   20.8660 C   0  0  0  0  0  0  0  0  0  0  0  0
  -26.2600  -13.0060   20.3090 N   0  0  0  0  0  0  0  0  0  0  0  0
  -25.8910  -11.7250   20.5620 N   0  0  0  0  0  0  0  0  0  0  0  0
  -23.8730  -10.5050   21.0540 C   0  0  0  0  0  0  0  0  0  0  0  0
  -24.3010   -9.5380   21.9900 C   0  0  0  0  0  3  0  0  0  0  0  0
  -23.5750   -8.3400   22.1650 C   0  0  0  0  0  3  0  0  0  0  0  0
  -22.4050   -8.1050   21.4060 C   0  0  0  0  0  0  0  0  0  0  0  0
  -21.9950   -9.0610   20.4600 C   0  0  0  0  0  3  0  0  0  0  0  0
  -22.7220  -10.2490   20.2820 C   0  0  0  0  0  3  0  0  0  0  0  0
  -21.6500   -6.9590   21.4900 O   0  0  0  0  0  0  0  0  0  0  0  0
  -21.5950   -6.2140   22.6410 C   0  0  0  0  0  0  0  0  0  0  0  0
  -21.1590   -6.7630   23.8660 C   0  0  0  0  0  3  0  0  0  0  0  0
  -21.0530   -5.9450   25.0080 C   0  0  0  0  0  3  0  0  0  0  0  0
  -21.3730   -4.5770   24.9260 C   0  0  0  0  0  0  0  0  0  0  0  0
  -21.8020   -4.0260   23.7050 C   0  0  0  0  0  3  0  0  0  0  0  0
  -21.9090   -4.8410   22.5660 C   0  0  0  0  0  0  0  0  0  0  0  0
  -22.3010   -4.3000   21.3870 F   0  0  0  0  0  0  0  0  0  0  0  0
  -21.2680   -3.7880   26.0200 F   0  0  0  0  0  0  0  0  0  0  0  0
  -22.7400  -13.5970   21.1620 C   0  0  0  0  0  0  0  0  0  0  0  0
  -22.0020  -12.9020   22.0210 N   0  0  0  0  0  0  0  0  0  0  0  0
  -22.3070  -14.6280   20.6470 O   0  0  0  0  0  0  0  0  0  0  0  0
  -22.3610  -12.0720   22.4670 H   0  0  0  0  0  0  0  0  0  0  0  0
  -21.0640  -13.2120   22.2360 H   0  0  0  0  0  0  0  0  0  0  0  0
  -25.3760  -15.2580   20.3490 N   0  0  0  0  0  0  0  0  0  0  0  0
  -24.6150  -15.9190   20.4570 H   0  0  0  0  0  0  0  0  0  0  0  0
  -26.2340  -15.6960   20.0360 H   0  0  0  0  0  0  0  0  0  0  0  0
  -29.9800  -25.2820   21.1230 C   0  0  0  0  0  3  0  0  0  0  0  0
  -30.7150  -25.1200   22.3910 N   0  0  0  0  0  4  0  0  0  0  0  0
  -30.1100  -24.7090   23.0830 H   0  0  0  0  0  0  0  0  0  0  0  0
  -31.0650  -25.9970   22.7360 H   0  0  0  0  0  0  0  0  0  0  0  0
  -31.4920  -24.4980   22.2590 H   0  0  0  0  0  0  0  0  0  0  0  0
  -28.8370  -26.3180   21.2890 C   0  0  0  0  0  2  0  0  0  0  0  0
  -28.3070  -26.7170   20.0270 O   0  0  0  0  0  0  0  0  0  0  0  0
  -24.5590  -31.8950   23.2210 C   0  0  0  0  0  0  0  0  0  0  0  0
  -27.1610  -27.4710   20.1000 C   0  0  0  0  0  0  0  0  0  0  0  0
  -23.3260  -30.4990   21.5910 C   0  0  0  0  0  3  0  0  0  0  0  0
  -24.7600  -28.9550   20.1520 C   0  0  0  0  0  0  0  0  0  0  0  0
  -25.8450  -30.8570   21.3600 C   0  0  0  0  0  2  0  0  0  0  0  0
  -25.9230  -29.4830   20.7290 C   0  0  0  0  0  0  0  0  0  0  0  0
  -27.1260  -28.7470   20.7090 C   0  0  0  0  0  3  0  0  0  0  0  0
  -25.9890  -26.9550   19.5130 C   0  0  0  0  0  3  0  0  0  0  0  0
  -24.7870  -27.6870   19.5440 C   0  0  0  0  0  3  0  0  0  0  0  0
  -23.5190  -29.8190   20.2080 C   0  0  0  0  0  2  0  0  0  0  0  0
  -24.5950  -31.0980   22.1180 N   0  0  0  0  0  0  0  0  0  0  0  0
  -23.4850  -32.1700   23.7780 O   0  0  0  0  0  0  0  0  0  0  0  0
  -22.6840  -29.4800   22.5600 C   0  0  0  0  0  0  0  0  0  0  0  0
  -21.3580  -29.2990   22.4450 N   0  0  0  0  0  0  0  0  0  0  0  0
  -23.3750  -28.8540   23.3670 O   0  0  0  0  0  0  0  0  0  0  0  0
  -20.8620  -29.8590   21.7660 H   0  0  0  0  0  0  0  0  0  0  0  0
  -17.9890  -28.1080   22.9740 C   0  0  0  0  0  0  0  0  0  0  0  0
  -20.5480  -28.3630   23.2240 C   0  0  0  0  0  3  0  0  0  0  0  0
  -20.6440  -26.9310   22.6490 C   0  0  0  0  0  2  0  0  0  0  0  0
  -19.5330  -26.6080   21.6440 C   0  0  0  0  0  2  0  0  0  0  0  0
  -18.1570  -26.7570   22.2990 C   0  0  0  0  0  2  0  0  0  0  0  0
  -19.1120  -28.8690   23.3930 C   0  0  0  0  0  0  0  0  0  0  0  0
  -18.9010  -30.1350   23.9830 C   0  0  0  0  0  3  0  0  0  0  0  0
  -17.5990  -30.6380   24.1580 C   0  0  0  0  0  3  0  0  0  0  0  0
  -16.4890  -29.8760   23.7560 C   0  0  0  0  0  3  0  0  0  0  0  0
  -16.6860  -28.6120   23.1680 C   0  0  0  0  0  3  0  0  0  0  0  0
  -25.8560  -32.5190   23.8260 C   0  0  0  0  0  3  0  0  0  0  0  0
  -26.3910  -31.7420   25.0910 C   0  0  1  0  0  0  0  0  0  0  0  0
  -25.3150  -31.5060   26.1750 C   0  0  0  0  0  1  0  0  0  0  0  0
  -26.9640  -30.3650   24.6810 C   0  0  0  0  0  1  0  0  0  0  0  0
  -27.5540  -32.5300   25.7370 C   0  0  0  0  0  1  0  0  0  0  0  0
  -25.5600  -33.9160   24.1610 N   0  0  0  0  0  0  0  0  0  0  0  0
  -25.8970  -34.9680   23.4020 C   0  0  0  0  0  0  0  0  0  0  0  0
  -26.5630  -34.8620   22.3690 O   0  0  0  0  0  0  0  0  0  0  0  0
  -24.9710  -34.0740   24.9660 H   0  0  0  0  0  0  0  0  0  0  0  0
  -24.1910  -36.7780   23.0380 C   0  0  0  0  0  1  0  0  0  0  0  0
  -25.4170  -36.3580   23.8630 C   0  0  0  0  0  3  0  0  0  0  0  0
  -27.5530  -37.2130   24.7230 C   0  0  0  0  0  1  0  0  0  0  0  0
  -26.4630  -37.4020   23.7690 N   0  0  0  0  0  0  0  0  0  0  0  0
  -26.0640  -38.3250   23.9200 H   0  0  0  0  0  0  0  0  0  0  0  0
  1 52  1  0
  1  3  2  0
  2  1  1  0
  4  2  1  0
  6  5  1  0
  6  2  1  0
  7  6  1  0
  8  9  1  0
  9  7  1  0
  9 11  1  0
 10  7  2  0
 11 12  1  0
 12 13  1  0
 13 22  1  0
 14 22  1  0
 15 20  1  0
 16 17  1  0
 16 15  1  0
 18 17  1  0
 18 27  1  0
 18 19  1  0
 20 14  1  0
 20 19  1  0
 21 14  2  0
 22 23  1  0
 24 25  2  0
 25 44  1  0
 26 25  1  0
 26 29  1  0
 27 24  1  0
 27 28  1  0
 28 26  2  0
 29 30  1  0
 30 31  2  0
 32 35  1  0
 32 31  1  0
 33 32  2  0
 34 33  1  0
 34 29  2  0
 35 36  1  0
 36 37  1  0
 37 38  2  0
 39 38  1  0
 39 43  1  0
 40 39  2  0
 41 36  2  0
 41 40  1  0
 42 41  1  0
 44 45  1  0
 45 48  1  0
 45 47  1  0
 46 44  2  0
 49 50  1  0
 49 24  1  0
 51 49  1  0
 52 57  1  0
 52 53  1  0
 53 55  1  0
 53 54  1  0
 56 53  1  0
 58 60  1  0
 58 57  1  0
 59 70  2  0
 60 65  1  0
 61 69  1  0
 61 71  1  0
 62 68  1  0
 62 64  1  0
 63 69  1  0
 64 63  1  0
 65 64  2  0
 66 67  1  0
 66 60  2  0
 67 62  2  0
 68 61  1  0
 69 59  1  0
 71 73  2  0
 72 71  1  0
 74 72  1  0
 75 84  2  0
 75 80  1  0
 76 72  1  0
 76 80  1  0
 77 76  1  0
 78 79  1  0
 78 77  1  0
 79 75  1  0
 80 81  2  0
 81 82  1  0
 83 82  2  0
 84 83  1  0
 85 59  1  0
 85 90  1  0
 85 86  1  0
 86 89  1  1
 86 87  1  0
 88 86  1  0
 90 93  1  0
 91 95  1  0
 91 90  1  0
 92 91  2  0
 95 94  1  0
 97 95  1  0
 97 98  1  0
 97 96  1  0
M  ISO  4  14 100  22 100  57 101  58 101
M  END
>  <TORSDO>  (53) 
F 24

>  <SCORE>  (53) 
-12.635

>  <name>  (53) 
53

>  <ligand_id>  (53) 
53

>  <original_smiles>  (53) 
[H]c1c([H])c([H])c2c(c1[H])C([H])([H])C([H])([H])C([H])([H])C2([H])N([H])C(=O)C1([H])N(C(=O)C([H])(N([H])C(=O)C([H])(N([H])C([H])([H])[H])C([H])([H])[H])C(C([H])([H])[H])(C([H])([H])[H])C([H])([H])[H])C([H])([H])c2c([H])c(OC([H])([H])C([H])(C(=O)N([H])C([H])(C(=O)N(C([H])([H])[H])C([H])([H])C([H])([H])C([H])([H])N([H])C(=O)N3C([H])([H])C([H])([H])C([H])([H])C([H])(n4nc(-c5c([H])c([H])c(Oc6c([H])c([H])c(F)c([H])c6F)c([H])c5[H])c(C(=O)N([H])[H])c4N([H])[H])C3([H])[H])C([H])([H])[H])[N+]([H])([H])[H])c([H])c([H])c2C1([H])[H]

>  <smiles>  (53) 
[H]c1c([H])c([H])c2c(c1[H])C([H])([H])C([H])([H])C([H])([H])C2([H])N([H])C(=O)C1([H])N(C(=O)C([H])(N([H])C(=O)C([H])(N([H])C([H])([H])[H])C([H])([H])[H])C(C([H])([H])[H])(C([H])([H])[H])C([H])([H])[H])C([H])([H])c2c([H])c(OC([H])([H])C([H])(C(=O)N([H])C([H])(C(=O)N(C([H])([H])[H])C([H])([H])C([H])([H])C([H])([H])N([H])C(=O)N3C([H])([H])C([H])([H])C([H])([H])C([H])(n4nc(-c5c([H])c([H])c(Oc6c([H])c([H])c(F)c([H])c6F)c([H])c5[H])c(C(=O)N([H])[H])c4N([H])[H])C3([H])[H])C([H])([H])[H])[N+]([H])([H])[H])c([H])c([H])c2C1([H])[H]

$$$$
54:0:0
     RDKit          3D

 96104  0  0  1  0  0  0  0  0999 V2000
  -26.4610  -21.3140   20.3530 C   0  0  0  0  0  2  0  0  0  0  0  0
  -28.7260  -21.7740   21.4120 C   0  0  0  0  0  2  0  0  0  0  0  0
  -26.8050  -22.3290   19.2470 C   0  0  0  0  0  2  0  0  0  0  0  0
  -28.3040  -23.2120   21.0510 C   0  0  0  0  0  2  0  0  0  0  0  0
  -27.7270  -20.6790   20.9580 C   0  0  0  0  0  3  0  0  0  0  0  0
  -27.8550  -23.3180   19.6310 N   0  0  2  0  0  4  0  0  0  0  0  0
  -28.6630  -23.0870   19.0710 H   0  0  0  0  0  0  0  0  0  0  0  0
  -28.3620  -19.6920   19.9590 C   0  0  0  0  0  2  0  0  0  0  0  0
  -30.0820  -17.9500   19.8850 C   0  0  0  0  0  0  0  0  0  0  0  0
  -29.5050  -18.9780   20.5130 N   0  0  0  0  0  0  0  0  0  0  0  0
  -29.8110  -17.6790   18.7120 O   0  0  0  0  0  0  0  0  0  0  0  0
  -29.8120  -19.1930   21.4510 H   0  0  0  0  0  0  0  0  0  0  0  0
  -31.0600  -17.0620   20.6660 C   0  0  0  0  0  3  0  0  0  0  0  0
  -31.2770  -14.6960   19.8290 C   0  0  0  0  0  0  0  0  0  0  0  0
  -30.9550  -12.4110   18.9480 C   0  0  0  0  0  2  0  0  0  0  0  0
  -29.9680  -12.4110   17.7660 C   0  0  0  0  0  2  0  0  0  0  0  0
  -28.5120  -12.3310   18.2630 C   0  0  0  0  0  2  0  0  0  0  0  0
  -28.2020  -13.3590   19.3830 C   0  0  0  0  0  3  0  0  0  0  0  0
  -29.2850  -13.3000   20.4810 C   0  0  0  0  0  2  0  0  0  0  0  0
  -30.5960  -13.5210   19.8370 N   0  0  0  0  0  0  0  0  0  0  0  0
  -32.3670  -14.8520   19.2660 O   0  0  0  0  0  0  0  0  0  0  0  0
  -30.6270  -15.6960   20.4260 N   0  0  0  0  0  0  0  0  0  0  0  0
  -29.6900  -15.4770   20.7300 H   0  0  0  0  0  0  0  0  0  0  0  0
  -25.8960  -14.1030   20.2480 C   0  0  0  0  0  0  0  0  0  0  0  0
  -24.8030  -13.3930   20.6710 C   0  0  0  0  0  0  0  0  0  0  0  0
  -25.1750  -12.0170   20.5880 C   0  0  0  0  0  0  0  0  0  0  0  0
  -26.8650  -13.1640   19.9390 N   0  0  0  0  0  0  0  0  0  0  0  0
  -26.4370  -11.9020   20.1950 N   0  0  0  0  0  0  0  0  0  0  0  0
  -24.3790  -10.7990   20.7980 C   0  0  0  0  0  0  0  0  0  0  0  0
  -24.7400   -9.8400   21.7720 C   0  0  0  0  0  3  0  0  0  0  0  0
  -23.9550   -8.6810   21.9670 C   0  0  0  0  0  3  0  0  0  0  0  0
  -22.7930   -8.4740   21.1870 C   0  0  0  0  0  0  0  0  0  0  0  0
  -22.4500   -9.4150   20.2010 C   0  0  0  0  0  3  0  0  0  0  0  0
  -23.2350  -10.5650   20.0060 C   0  0  0  0  0  3  0  0  0  0  0  0
  -21.9850   -7.3670   21.2910 O   0  0  0  0  0  0  0  0  0  0  0  0
  -21.7830   -6.7350   22.4890 C   0  0  0  0  0  0  0  0  0  0  0  0
  -21.2480   -7.4090   23.6110 C   0  0  0  0  0  3  0  0  0  0  0  0
  -20.9930   -6.7030   24.8020 C   0  0  0  0  0  3  0  0  0  0  0  0
  -21.2600   -5.3220   24.8730 C   0  0  0  0  0  0  0  0  0  0  0  0
  -21.7870   -4.6470   23.7560 C   0  0  0  0  0  3  0  0  0  0  0  0
  -22.0440   -5.3520   22.5680 C   0  0  0  0  0  0  0  0  0  0  0  0
  -22.5340   -4.6920   21.4900 F   0  0  0  0  0  0  0  0  0  0  0  0
  -21.0050   -4.6420   26.0140 F   0  0  0  0  0  0  0  0  0  0  0  0
  -23.4590  -13.9470   21.0370 C   0  0  0  0  0  0  0  0  0  0  0  0
  -22.7520  -13.2880   21.9520 N   0  0  0  0  0  0  0  0  0  0  0  0
  -23.0440  -14.9980   20.5490 O   0  0  0  0  0  0  0  0  0  0  0  0
  -23.0990  -12.4360   22.3650 H   0  0  0  0  0  0  0  0  0  0  0  0
  -21.8510  -13.6430   22.2410 H   0  0  0  0  0  0  0  0  0  0  0  0
  -26.1330  -15.4610   20.0740 N   0  0  0  0  0  0  0  0  0  0  0  0
  -25.3930  -16.1470   20.1690 H   0  0  0  0  0  0  0  0  0  0  0  0
  -26.9530  -15.8260   19.6050 H   0  0  0  0  0  0  0  0  0  0  0  0
  -32.0040  -17.9740   22.8600 C   0  0  0  0  0  2  0  0  0  0  0  0
  -31.0900  -17.2720   22.1740 C   0  0  0  0  0  3  0  0  0  0  0  0
  -27.4490  -24.6870   19.2250 C   0  0  0  0  0  2  0  0  0  0  0  0
  -28.4560  -25.8130   19.5690 C   0  0  0  0  0  2  0  0  0  0  0  0
  -28.2270  -27.0520   18.8960 O   0  0  0  0  0  0  0  0  0  0  0  0
  -24.5830  -31.6020   23.0160 C   0  0  0  0  0  0  0  0  0  0  0  0
  -27.0420  -27.7030   19.1490 C   0  0  0  0  0  0  0  0  0  0  0  0
  -23.2740  -30.4100   21.2870 C   0  0  0  0  0  3  0  0  0  0  0  0
  -24.6370  -29.1250   19.5670 C   0  0  0  0  0  0  0  0  0  0  0  0
  -25.7760  -30.8400   20.9710 C   0  0  0  0  0  2  0  0  0  0  0  0
  -25.8290  -29.5740   20.1480 C   0  0  0  0  0  0  0  0  0  0  0  0
  -27.0310  -28.8630   19.9550 C   0  0  0  0  0  3  0  0  0  0  0  0
  -25.8380  -27.2980   18.5290 C   0  0  0  0  0  3  0  0  0  0  0  0
  -24.6350  -27.9820   18.7540 C   0  0  0  0  0  3  0  0  0  0  0  0
  -23.3940  -29.9460   19.8130 C   0  0  0  0  0  2  0  0  0  0  0  0
  -24.5660  -30.9600   21.8150 N   0  0  0  0  0  0  0  0  0  0  0  0
  -23.5370  -31.7780   23.6570 O   0  0  0  0  0  0  0  0  0  0  0  0
  -22.7090  -29.2430   22.1300 C   0  0  0  0  0  0  0  0  0  0  0  0
  -21.3840  -29.0310   22.0470 N   0  0  0  0  0  0  0  0  0  0  0  0
  -23.4590  -28.5350   22.8070 O   0  0  0  0  0  0  0  0  0  0  0  0
  -20.8410  -29.6510   21.4610 H   0  0  0  0  0  0  0  0  0  0  0  0
  -18.0730  -27.6970   22.5660 C   0  0  0  0  0  0  0  0  0  0  0  0
  -20.6330  -27.9800   22.7380 C   0  0  0  0  0  3  0  0  0  0  0  0
  -20.7270  -26.6350   21.9800 C   0  0  0  0  0  2  0  0  0  0  0  0
  -19.5810  -26.4040   20.9930 C   0  0  0  0  0  2  0  0  0  0  0  0
  -18.2270  -26.4570   21.7040 C   0  0  0  0  0  2  0  0  0  0  0  0
  -19.1970  -28.4270   23.0290 C   0  0  0  0  0  0  0  0  0  0  0  0
  -18.9980  -29.6060   23.7730 C   0  0  0  0  0  3  0  0  0  0  0  0
  -17.6950  -30.0600   24.0600 C   0  0  0  0  0  3  0  0  0  0  0  0
  -16.5810  -29.3250   23.6220 C   0  0  0  0  0  3  0  0  0  0  0  0
  -16.7740  -28.1400   22.8840 C   0  0  0  0  0  3  0  0  0  0  0  0
  -25.9090  -32.1640   23.6210 C   0  0  0  0  0  3  0  0  0  0  0  0
  -25.6180  -33.5020   24.1480 N   0  0  0  0  0  0  0  0  0  0  0  0
  -25.9350  -34.6460   23.5290 C   0  0  0  0  0  0  0  0  0  0  0  0
  -26.5760  -34.6820   22.4780 O   0  0  0  0  0  0  0  0  0  0  0  0
  -25.0400  -33.5460   24.9740 H   0  0  0  0  0  0  0  0  0  0  0  0
  -24.2200  -36.4820   23.4400 C   0  0  0  0  0  1  0  0  0  0  0  0
  -25.4630  -35.9590   24.1760 C   0  0  0  0  0  3  0  0  0  0  0  0
  -27.6080  -36.7040   25.1060 C   0  0  0  0  0  1  0  0  0  0  0  0
  -26.5010  -37.0110   24.2030 N   0  0  0  0  0  0  0  0  0  0  0  0
  -26.1030  -37.9020   24.4870 H   0  0  0  0  0  0  0  0  0  0  0  0
  -26.5180  -31.2390   24.7450 C   0  0  1  0  0  0  0  0  0  0  0  0
  -25.5010  -30.8560   25.8460 C   0  0  0  0  0  1  0  0  0  0  0  0
  -27.0790  -29.9310   24.1330 C   0  0  0  0  0  1  0  0  0  0  0  0
  -27.7150  -31.9510   25.4150 C   0  0  0  0  0  1  0  0  0  0  0  0
  1  5  1  0
  3  6  1  0
  3  1  1  0
  4  2  1  0
  5  8  1  0
  5  2  1  0
  6  4  1  0
  6  7  1  6
  8 10  1  0
  9 10  1  0
  9 13  1  0
 10 12  1  0
 11  9  2  0
 13 53  1  0
 14 20  1  0
 14 22  1  0
 15 20  1  0
 16 17  1  0
 16 15  1  0
 18 17  1  0
 18 27  1  0
 18 19  1  0
 20 19  1  0
 21 14  2  0
 22 13  1  0
 22 23  1  0
 24 25  2  0
 25 44  1  0
 26 25  1  0
 26 29  1  0
 27 28  1  0
 27 24  1  0
 28 26  2  0
 29 30  1  0
 30 31  2  0
 32 35  1  0
 32 31  1  0
 33 32  2  0
 34 33  1  0
 34 29  2  0
 35 36  1  0
 36 41  2  0
 36 37  1  0
 37 38  2  0
 38 39  1  0
 39 43  1  0
 40 39  2  0
 41 40  1  0
 42 41  1  0
 44 45  1  0
 45 48  1  0
 45 47  1  0
 46 44  2  0
 49 50  1  0
 49 24  1  0
 51 49  1  0
 53 52  2  0
 54 55  1  0
 54  6  1  0
 56 58  1  0
 56 55  1  0
 57 68  2  0
 58 63  1  0
 59 67  1  0
 59 69  1  0
 60 66  1  0
 60 62  1  0
 61 67  1  0
 62 61  1  0
 63 62  2  0
 64 65  1  0
 64 58  2  0
 65 60  2  0
 66 59  1  0
 67 57  1  0
 69 71  2  0
 70 69  1  0
 72 70  1  0
 73 82  2  0
 73 78  1  0
 74 70  1  0
 74 78  1  0
 75 74  1  0
 76 77  1  0
 76 75  1  0
 77 73  1  0
 78 79  2  0
 79 80  1  0
 81 80  2  0
 82 81  1  0
 83 57  1  0
 83 84  1  0
 83 93  1  0
 84 87  1  0
 85 84  1  0
 85 89  1  0
 86 85  2  0
 89 88  1  0
 89 91  1  0
 91 92  1  0
 91 90  1  0
 93 96  1  1
 93 94  1  0
 95 93  1  0
M  ISO  4  14 100  22 100  55 101  56 101
M  END
>  <TORSDO>  (54) 
F 22

>  <SCORE>  (54) 
-9.247

>  <name>  (54) 
54

>  <ligand_id>  (54) 
54

>  <original_smiles>  (54) 
[H]C([H])=C([H])C([H])(C(=O)N([H])C([H])([H])C1([H])C([H])([H])C([H])([H])[N+]([H])(C([H])([H])C([H])([H])Oc2c([H])c([H])c3c(c2[H])C([H])([H])N(C(=O)C([H])(N([H])C(=O)C([H])(N([H])C([H])([H])[H])C([H])([H])[H])C(C([H])([H])[H])(C([H])([H])[H])C([H])([H])[H])C([H])(C(=O)N([H])C2([H])c4c([H])c([H])c([H])c([H])c4C([H])([H])C([H])([H])C2([H])[H])C3([H])[H])C([H])([H])C1([H])[H])N([H])C(=O)N1C([H])([H])C([H])([H])C([H])([H])C([H])(n2nc(-c3c([H])c([H])c(Oc4c([H])c([H])c(F)c([H])c4F)c([H])c3[H])c(C(=O)N([H])[H])c2N([H])[H])C1([H])[H]

>  <smiles>  (54) 
[H]C([H])=C([H])C([H])(C(=O)N([H])C([H])([H])C1([H])C([H])([H])C([H])([H])[N+]([H])(C([H])([H])C([H])([H])Oc2c([H])c([H])c3c(c2[H])C([H])([H])N(C(=O)C([H])(N([H])C(=O)C([H])(N([H])C([H])([H])[H])C([H])([H])[H])C(C([H])([H])[H])(C([H])([H])[H])C([H])([H])[H])C([H])(C(=O)N([H])C2([H])c4c([H])c([H])c([H])c([H])c4C([H])([H])C([H])([H])C2([H])[H])C3([H])[H])C([H])([H])C1([H])[H])N([H])C(=O)N1C([H])([H])C([H])([H])C([H])([H])C([H])(n2nc(-c3c([H])c([H])c(Oc4c([H])c([H])c(F)c([H])c4F)c([H])c3[H])c(C(=O)N([H])[H])c2N([H])[H])C1([H])[H]

$$$$
55:0:0
     RDKit          3D

 96103  0  0  1  0  0  0  0  0999 V2000
  -29.8670  -18.3930   19.8720 C   0  0  0  0  0  0  0  0  0  0  0  0
  -30.4860  -15.5300   20.3830 C   0  0  0  0  0  0  0  0  0  0  0  0
  -30.5650  -13.0280   19.7140 C   0  0  0  0  0  2  0  0  0  0  0  0
  -29.7290  -12.7110   18.4490 C   0  0  0  0  0  2  0  0  0  0  0  0
  -28.2690  -12.4130   18.8270 C   0  0  0  0  0  2  0  0  0  0  0  0
  -27.7210  -13.4340   19.8550 C   0  0  0  0  0  3  0  0  0  0  0  0
  -28.6970  -13.7170   21.0200 C   0  0  0  0  0  2  0  0  0  0  0  0
  -29.9470  -14.2120   20.4190 N   0  0  0  0  0  0  0  0  0  0  0  0
  -31.7080  -15.5190   20.2070 O   0  0  0  0  0  0  0  0  0  0  0  0
  -29.7040  -16.7930   20.3610 N   0  0  0  0  0  4  0  0  0  0  0  0
  -28.7340  -16.5890   20.5580 H   0  0  0  0  0  0  0  0  0  0  0  0
  -25.3170  -13.9540   20.5180 C   0  0  0  0  0  0  0  0  0  0  0  0
  -24.2560  -13.1610   20.8560 C   0  0  0  0  0  0  0  0  0  0  0  0
  -24.7490  -11.8190   20.8540 C   0  0  0  0  0  0  0  0  0  0  0  0
  -26.3820  -13.0950   20.3210 N   0  0  0  0  0  0  0  0  0  0  0  0
  -26.0510  -11.8060   20.5920 N   0  0  0  0  0  0  0  0  0  0  0  0
  -24.0370  -10.5460   21.0290 C   0  0  0  0  0  0  0  0  0  0  0  0
  -24.4540   -9.5920   21.9850 C   0  0  0  0  0  3  0  0  0  0  0  0
  -23.7410   -8.3840   22.1500 C   0  0  0  0  0  3  0  0  0  0  0  0
  -22.5970   -8.1210   21.3590 C   0  0  0  0  0  0  0  0  0  0  0  0
  -22.1990   -9.0630   20.3930 C   0  0  0  0  0  3  0  0  0  0  0  0
  -22.9130  -10.2620   20.2260 C   0  0  0  0  0  3  0  0  0  0  0  0
  -21.8580   -6.9650   21.4310 O   0  0  0  0  0  0  0  0  0  0  0  0
  -21.7470   -6.2540   22.5990 C   0  0  0  0  0  0  0  0  0  0  0  0
  -21.2370   -6.8330   23.7800 C   0  0  0  0  0  3  0  0  0  0  0  0
  -21.0760   -6.0480   24.9390 C   0  0  0  0  0  3  0  0  0  0  0  0
  -21.4140   -4.6810   24.9160 C   0  0  0  0  0  0  0  0  0  0  0  0
  -21.9160   -4.1010   23.7380 C   0  0  0  0  0  3  0  0  0  0  0  0
  -22.0800   -4.8840   22.5830 C   0  0  0  0  0  0  0  0  0  0  0  0
  -22.5440   -4.3130   21.4460 F   0  0  0  0  0  0  0  0  0  0  0  0
  -21.2520   -3.9240   26.0260 F   0  0  0  0  0  0  0  0  0  0  0  0
  -22.8420  -13.6130   21.0650 C   0  0  0  0  0  0  0  0  0  0  0  0
  -22.0980  -12.9210   21.9200 N   0  0  0  0  0  0  0  0  0  0  0  0
  -22.4020  -14.6160   20.5030 O   0  0  0  0  0  0  0  0  0  0  0  0
  -22.4700  -12.1150   22.3980 H   0  0  0  0  0  0  0  0  0  0  0  0
  -21.1440  -13.2040   22.0990 H   0  0  0  0  0  0  0  0  0  0  0  0
  -25.4590  -15.3280   20.3320 N   0  0  0  0  0  0  0  0  0  0  0  0
  -24.6730  -15.9640   20.3930 H   0  0  0  0  0  0  0  0  0  0  0  0
  -26.3060  -15.7760   20.0080 H   0  0  0  0  0  0  0  0  0  0  0  0
  -32.1800  -17.7620   18.8200 C   0  0  0  0  0  1  0  0  0  0  0  0
  -31.3700  -18.7490   19.6910 C   0  0  0  0  0  3  0  0  0  0  0  0
  -33.0500  -19.7700   21.2510 C   0  0  0  0  0  0  0  0  0  0  0  0
  -31.9820  -19.0020   20.9970 N   0  0  0  0  0  0  0  0  0  0  0  0
  -33.7080  -20.3300   20.3670 O   0  0  0  0  0  0  0  0  0  0  0  0
  -31.4960  -18.6040   21.7910 H   0  0  0  0  0  0  0  0  0  0  0  0
  -32.3220  -20.7640   23.4340 C   0  0  0  0  0  1  0  0  0  0  0  0
  -33.4390  -19.9780   22.7200 C   0  0  0  0  0  3  0  0  0  0  0  0
  -35.9300  -19.8910   22.8680 C   0  0  0  0  0  1  0  0  0  0  0  0
  -34.7120  -20.7240   22.7720 N   0  0  0  0  0  4  0  0  0  0  0  0
  -34.7370  -21.2390   21.9010 H   0  0  0  0  0  0  0  0  0  0  0  0
  -34.6970  -21.3730   23.5400 H   0  0  0  0  0  0  0  0  0  0  0  0
  -29.1170  -19.9330   20.4460 C   0  0  0  0  0  2  0  0  0  0  0  0
  -28.9730  -21.4290   19.7760 O   0  0  0  0  0  0  0  0  0  0  0  0
  -28.7650  -22.9490   20.3660 C   0  0  0  0  0  2  0  0  0  0  0  0
  -28.1120  -24.5050   19.7140 C   0  0  0  0  0  2  0  0  0  0  0  0
  -28.2300  -26.1130   20.0770 O   0  0  0  0  0  0  0  0  0  0  0  0
  -24.5730  -31.9260   23.1940 C   0  0  0  0  0  0  0  0  0  0  0  0
  -27.2010  -27.1910   20.0140 C   0  0  0  0  0  0  0  0  0  0  0  0
  -23.3980  -30.5570   21.5200 C   0  0  0  0  0  3  0  0  0  0  0  0
  -24.8660  -29.0260   20.0390 C   0  0  0  0  0  0  0  0  0  0  0  0
  -25.9580  -30.8200   21.3700 C   0  0  0  0  0  2  0  0  0  0  0  0
  -26.0470  -29.4320   20.6700 C   0  0  0  0  0  0  0  0  0  0  0  0
  -27.2060  -28.5340   20.6370 C   0  0  0  0  0  3  0  0  0  0  0  0
  -25.9900  -26.9410   19.3300 C   0  0  0  0  0  3  0  0  0  0  0  0
  -24.8600  -27.8010   19.3520 C   0  0  0  0  0  3  0  0  0  0  0  0
  -23.6320  -29.9230   20.1200 C   0  0  0  0  0  2  0  0  0  0  0  0
  -24.6640  -31.1270   22.0820 N   0  0  0  0  0  0  0  0  0  0  0  0
  -23.4810  -32.1840   23.7250 O   0  0  0  0  0  0  0  0  0  0  0  0
  -22.7250  -29.5210   22.4570 C   0  0  0  0  0  0  0  0  0  0  0  0
  -21.3950  -29.3480   22.3390 N   0  0  0  0  0  0  0  0  0  0  0  0
  -23.4050  -28.8760   23.2590 O   0  0  0  0  0  0  0  0  0  0  0  0
  -20.8990  -29.9270   21.6750 H   0  0  0  0  0  0  0  0  0  0  0  0
  -18.0290  -28.0820   22.8300 C   0  0  0  0  0  0  0  0  0  0  0  0
  -20.5880  -28.3750   23.0840 C   0  0  0  0  0  3  0  0  0  0  0  0
  -20.7020  -26.9640   22.4620 C   0  0  0  0  0  2  0  0  0  0  0  0
  -19.5960  -26.6590   21.4470 C   0  0  0  0  0  2  0  0  0  0  0  0
  -18.2190  -26.7600   22.1060 C   0  0  0  0  0  2  0  0  0  0  0  0
  -19.1400  -28.8470   23.2740 C   0  0  0  0  0  0  0  0  0  0  0  0
  -18.9050  -30.0820   23.9160 C   0  0  0  0  0  3  0  0  0  0  0  0
  -17.5930  -30.5530   24.1140 C   0  0  0  0  0  3  0  0  0  0  0  0
  -16.4980  -29.7850   23.6830 C   0  0  0  0  0  3  0  0  0  0  0  0
  -16.7160  -28.5520   23.0450 C   0  0  0  0  0  3  0  0  0  0  0  0
  -25.8350  -32.5700   23.8460 C   0  0  0  0  0  3  0  0  0  0  0  0
  -26.3130  -31.8140   25.1480 C   0  0  1  0  0  0  0  0  0  0  0  0
  -25.1950  -31.6060   26.1970 C   0  0  0  0  0  1  0  0  0  0  0  0
  -26.8900  -30.4220   24.8010 C   0  0  0  0  0  1  0  0  0  0  0  0
  -27.4580  -32.6070   25.8210 C   0  0  0  0  0  1  0  0  0  0  0  0
  -25.5170  -33.9730   24.1610 N   0  0  0  0  0  0  0  0  0  0  0  0
  -25.8830  -35.0280   23.4210 C   0  0  0  0  0  0  0  0  0  0  0  0
  -26.5860  -34.9220   22.4130 O   0  0  0  0  0  0  0  0  0  0  0  0
  -24.8930  -34.1330   24.9400 H   0  0  0  0  0  0  0  0  0  0  0  0
  -24.1860  -36.8430   23.0150 C   0  0  0  0  0  1  0  0  0  0  0  0
  -25.3940  -36.4220   23.8670 C   0  0  0  0  0  3  0  0  0  0  0  0
  -27.5060  -37.2870   24.7750 C   0  0  0  0  0  1  0  0  0  0  0  0
  -26.4400  -37.4660   23.7930 N   0  0  0  0  0  0  0  0  0  0  0  0
  -26.0390  -38.3900   23.9240 H   0  0  0  0  0  0  0  0  0  0  0  0
  1 10  2  0
  1 52  1  0
  2  8  1  0
  3  8  1  0
  4  5  1  0
  4  3  1  0
  6  5  1  0
  6 15  1  0
  6  7  1  0
  8  7  1  0
  9  2  2  0
 10  2  1  0
 10 11  1  0
 12 13  2  0
 13 32  1  0
 14 13  1  0
 14 17  1  0
 15 12  1  0
 15 16  1  0
 16 14  2  0
 17 18  1  0
 18 19  2  0
 20 23  1  0
 20 19  1  0
 21 20  2  0
 22 21  1  0
 22 17  2  0
 23 24  1  0
 24 25  1  0
 25 26  2  0
 27 26  1  0
 27 31  1  0
 28 27  2  0
 29 24  2  0
 29 28  1  0
 30 29  1  0
 32 33  1  0
 33 36  1  0
 33 35  1  0
 34 32  2  0
 37 38  1  0
 37 12  1  0
 39 37  1  0
 41 40  1  0
 41  1  1  0
 41 43  1  0
 42 47  1  0
 43 42  1  0
 43 45  1  0
 44 42  2  0
 47 49  1  0
 47 46  1  0
 49 48  1  0
 49 51  1  0
 50 49  1  0
 53 54  1  0
 53 52  1  0
 55 56  1  0
 55 54  1  0
 57 68  2  0
 58 56  1  0
 58 63  1  0
 59 67  1  0
 59 69  1  0
 60 66  1  0
 60 62  1  0
 61 67  1  0
 62 61  1  0
 63 62  2  0
 64 65  1  0
 64 58  2  0
 65 60  2  0
 66 59  1  0
 67 57  1  0
 69 71  2  0
 70 69  1  0
 72 70  1  0
 73 82  2  0
 73 78  1  0
 74 70  1  0
 74 78  1  0
 75 74  1  0
 76 77  1  0
 76 75  1  0
 77 73  1  0
 78 79  2  0
 79 80  1  0
 81 80  2  0
 82 81  1  0
 83 57  1  0
 83 88  1  0
 83 84  1  0
 84 87  1  1
 84 85  1  0
 86 84  1  0
 88 91  1  0
 89 93  1  0
 89 88  1  0
 90 89  2  0
 93 92  1  0
 95 93  1  0
 95 96  1  0
 95 94  1  0
M  ISO  4   2 100  10 100  55 101  56 101
M  END
>  <TORSDO>  (55) 
F 24

>  <SCORE>  (55) 
-15.143

>  <name>  (55) 
55

>  <ligand_id>  (55) 
55

>  <original_smiles>  (55) 
[H]c1c([H])c([H])c2c(c1[H])C([H])([H])C([H])([H])C([H])([H])C2([H])N([H])C(=O)C1([H])N(C(=O)C([H])(N([H])C(=O)C([H])(N([H])C([H])([H])[H])C([H])([H])[H])C(C([H])([H])[H])(C([H])([H])[H])C([H])([H])[H])C([H])([H])c2c([H])c(OC([H])([H])C([H])([H])OC([H])([H])C([H])(N([H])C(=O)N3C([H])([H])C([H])([H])C([H])([H])C([H])(n4nc(-c5c([H])c([H])c(Oc6c([H])c([H])c(F)c([H])c6F)c([H])c5[H])c(C(=O)N([H])[H])c4N([H])[H])C3([H])[H])C([H])(N([H])C(=O)C([H])(C([H])([H])[H])[N+]([H])([H])C([H])([H])[H])C([H])([H])[H])c([H])c([H])c2C1([H])[H]

>  <smiles>  (55) 
[H]c1c([H])c([H])c2c(c1[H])C([H])([H])C([H])([H])C([H])([H])C2([H])N([H])C(=O)C1([H])N(C(=O)C([H])(N([H])C(=O)C([H])(N([H])C([H])([H])[H])C([H])([H])[H])C(C([H])([H])[H])(C([H])([H])[H])C([H])([H])[H])C([H])([H])c2c([H])c(OC([H])([H])C([H])([H])OC([H])([H])C([H])(N([H])C(=O)N3C([H])([H])C([H])([H])C([H])([H])C([H])(n4nc(-c5c([H])c([H])c(Oc6c([H])c([H])c(F)c([H])c6F)c([H])c5[H])c(C(=O)N([H])[H])c4N([H])[H])C3([H])[H])C([H])(N([H])C(=O)C([H])(C([H])([H])[H])[N+]([H])([H])C([H])([H])[H])C([H])([H])[H])c([H])c([H])c2C1([H])[H]

$$$$
56:0:0
     RDKit          3D

 94101  0  0  1  0  0  0  0  0999 V2000
  -29.8410  -20.8470   20.3010 C   0  0  0  0  0  0  0  0  0  0  0  0
  -30.5580  -19.9820   19.5720 N   0  0  0  0  0  0  0  0  0  0  0  0
  -29.7540  -20.7550   21.5290 O   0  0  0  0  0  0  0  0  0  0  0  0
  -30.5470  -20.0940   18.5680 H   0  0  0  0  0  0  0  0  0  0  0  0
  -29.1460  -21.9960   19.5480 C   0  0  0  0  0  2  0  0  0  0  0  0
  -28.9850  -23.1170   20.4190 O   0  0  0  0  0  0  0  0  0  0  0  0
  -28.5260  -24.2950   19.7600 C   0  0  0  0  0  2  0  0  0  0  0  0
  -28.3560  -25.4180   20.7990 C   0  0  0  0  0  2  0  0  0  0  0  0
  -28.4110  -26.7210   20.2140 O   0  0  0  0  0  0  0  0  0  0  0  0
  -24.5630  -31.8840   23.2230 C   0  0  0  0  0  0  0  0  0  0  0  0
  -27.2310  -27.4240   20.2140 C   0  0  0  0  0  0  0  0  0  0  0  0
  -23.3700  -30.4720   21.5770 C   0  0  0  0  0  3  0  0  0  0  0  0
  -24.8340  -28.9130   20.1870 C   0  0  0  0  0  0  0  0  0  0  0  0
  -25.8960  -30.8270   21.4020 C   0  0  0  0  0  2  0  0  0  0  0  0
  -25.9850  -29.4500   20.7780 C   0  0  0  0  0  0  0  0  0  0  0  0
  -27.1890  -28.7140   20.7830 C   0  0  0  0  0  3  0  0  0  0  0  0
  -26.0650  -26.8890   19.6280 C   0  0  0  0  0  3  0  0  0  0  0  0
  -24.8670  -27.6300   19.6110 C   0  0  0  0  0  3  0  0  0  0  0  0
  -23.5910  -29.7730   20.2070 C   0  0  0  0  0  2  0  0  0  0  0  0
  -24.6270  -31.0760   22.1260 N   0  0  0  0  0  0  0  0  0  0  0  0
  -23.4770  -32.1640   23.7490 O   0  0  0  0  0  0  0  0  0  0  0  0
  -22.7040  -29.4630   22.5400 C   0  0  0  0  0  0  0  0  0  0  0  0
  -21.3850  -29.2690   22.3830 N   0  0  0  0  0  0  0  0  0  0  0  0
  -23.3730  -28.8560   23.3800 O   0  0  0  0  0  0  0  0  0  0  0  0
  -20.9080  -29.8120   21.6760 H   0  0  0  0  0  0  0  0  0  0  0  0
  -18.0120  -28.0450   22.7960 C   0  0  0  0  0  0  0  0  0  0  0  0
  -20.5550  -28.3400   23.1490 C   0  0  0  0  0  3  0  0  0  0  0  0
  -20.6940  -26.8970   22.6110 C   0  0  0  0  0  2  0  0  0  0  0  0
  -19.6320  -26.5380   21.5670 C   0  0  0  0  0  2  0  0  0  0  0  0
  -18.2270  -26.6840   22.1580 C   0  0  0  0  0  2  0  0  0  0  0  0
  -19.1060  -28.8300   23.2460 C   0  0  0  0  0  0  0  0  0  0  0  0
  -18.8540  -30.1050   23.8000 C   0  0  0  0  0  3  0  0  0  0  0  0
  -17.5390  -30.5940   23.9070 C   0  0  0  0  0  3  0  0  0  0  0  0
  -16.4580  -29.8070   23.4750 C   0  0  0  0  0  3  0  0  0  0  0  0
  -16.6950  -28.5340   22.9260 C   0  0  0  0  0  3  0  0  0  0  0  0
  -25.8460  -32.5130   23.8520 C   0  0  0  0  0  3  0  0  0  0  0  0
  -25.5370  -33.9110   24.1790 N   0  0  0  0  0  0  0  0  0  0  0  0
  -25.8780  -34.9620   23.4200 C   0  0  0  0  0  0  0  0  0  0  0  0
  -26.5540  -34.8570   22.3930 O   0  0  0  0  0  0  0  0  0  0  0  0
  -24.9400  -34.0680   24.9770 H   0  0  0  0  0  0  0  0  0  0  0  0
  -24.1510  -36.7510   23.0520 C   0  0  0  0  0  1  0  0  0  0  0  0
  -25.3880  -36.3510   23.8710 C   0  0  0  0  0  3  0  0  0  0  0  0
  -27.5190  -37.2370   24.7100 C   0  0  0  0  0  1  0  0  0  0  0  0
  -26.4210  -37.4040   23.7620 N   0  0  0  0  0  0  0  0  0  0  0  0
  -26.0140  -38.3240   23.9080 H   0  0  0  0  0  0  0  0  0  0  0  0
  -26.3560  -31.7410   25.1300 C   0  0  1  0  0  0  0  0  0  0  0  0
  -25.2570  -31.5000   26.1920 C   0  0  0  0  0  1  0  0  0  0  0  0
  -26.9410  -30.3650   24.7360 C   0  0  0  0  0  1  0  0  0  0  0  0
  -27.5010  -32.5350   25.8010 C   0  0  0  0  0  1  0  0  0  0  0  0
  -31.3700  -18.8820   20.1100 C   0  0  0  0  0  3  0  0  0  0  0  0
  -33.4850  -19.6720   18.8690 C   0  0  0  0  0  1  0  0  0  0  0  0
  -32.4640  -18.5410   19.0720 C   0  0  0  0  0  2  0  0  0  0  0  0
  -30.5200  -17.6050   20.3330 C   0  0  0  0  0  0  0  0  0  0  0  0
  -29.4730  -17.3930   19.7130 O   0  0  0  0  0  0  0  0  0  0  0  0
  -30.5820  -17.0300   22.7680 C   0  0  0  0  0  1  0  0  0  0  0  0
  -31.0670  -16.5970   21.3730 C   0  0  0  0  0  3  0  0  0  0  0  0
  -31.0840  -14.3730   20.2410 C   0  0  0  0  0  0  0  0  0  0  0  0
  -30.6660  -12.2990   18.9730 C   0  0  0  0  0  2  0  0  0  0  0  0
  -29.6990  -12.5780   17.8040 C   0  0  0  0  0  2  0  0  0  0  0  0
  -28.2330  -12.4750   18.2670 C   0  0  0  0  0  2  0  0  0  0  0  0
  -27.9590  -13.2850   19.5630 C   0  0  0  0  0  3  0  0  0  0  0  0
  -29.0250  -12.9700   20.6360 C   0  0  0  0  0  2  0  0  0  0  0  0
  -30.3540  -13.2430   20.0540 N   0  0  0  0  0  0  0  0  0  0  0  0
  -32.1310  -14.6180   19.6340 O   0  0  0  0  0  0  0  0  0  0  0  0
  -30.5620  -15.2450   21.1130 N   0  0  0  0  0  0  0  0  0  0  0  0
  -29.6900  -14.9840   21.5460 H   0  0  0  0  0  0  0  0  0  0  0  0
  -25.5850  -13.9580   20.3010 C   0  0  0  0  0  0  0  0  0  0  0  0
  -24.5040  -13.2140   20.6930 C   0  0  0  0  0  0  0  0  0  0  0  0
  -24.9330  -11.8510   20.6660 C   0  0  0  0  0  0  0  0  0  0  0  0
  -26.6050  -13.0500   20.0620 N   0  0  0  0  0  0  0  0  0  0  0  0
  -26.2150  -11.7790   20.3360 N   0  0  0  0  0  0  0  0  0  0  0  0
  -24.1810  -10.6080   20.8800 C   0  0  0  0  0  0  0  0  0  0  0  0
  -24.5890   -9.6540   21.8370 C   0  0  0  0  0  3  0  0  0  0  0  0
  -23.8390   -8.4750   22.0370 C   0  0  0  0  0  3  0  0  0  0  0  0
  -22.6670   -8.2420   21.2800 C   0  0  0  0  0  0  0  0  0  0  0  0
  -22.2780   -9.1840   20.3120 C   0  0  0  0  0  3  0  0  0  0  0  0
  -23.0280  -10.3550   20.1110 C   0  0  0  0  0  3  0  0  0  0  0  0
  -21.8920   -7.1130   21.3870 O   0  0  0  0  0  0  0  0  0  0  0  0
  -21.7910   -6.4180   22.5660 C   0  0  0  0  0  0  0  0  0  0  0  0
  -21.3290   -7.0280   23.7530 C   0  0  0  0  0  3  0  0  0  0  0  0
  -21.1750   -6.2600   24.9240 C   0  0  0  0  0  3  0  0  0  0  0  0
  -21.4710   -4.8840   24.9090 C   0  0  0  0  0  0  0  0  0  0  0  0
  -21.9240   -4.2730   23.7260 C   0  0  0  0  0  3  0  0  0  0  0  0
  -22.0800   -5.0390   22.5570 C   0  0  0  0  0  0  0  0  0  0  0  0
  -22.4970   -4.4420   21.4150 F   0  0  0  0  0  0  0  0  0  0  0  0
  -21.3160   -4.1440   26.0310 F   0  0  0  0  0  0  0  0  0  0  0  0
  -23.1240  -13.7270   20.9890 C   0  0  0  0  0  0  0  0  0  0  0  0
  -22.4000  -13.0600   21.8800 N   0  0  0  0  0  0  0  0  0  0  0  0
  -22.6970  -14.7550   20.4650 O   0  0  0  0  0  0  0  0  0  0  0  0
  -22.7560  -12.2260   22.3240 H   0  0  0  0  0  0  0  0  0  0  0  0
  -21.4750  -13.3870   22.1210 H   0  0  0  0  0  0  0  0  0  0  0  0
  -25.7790  -15.3230   20.1100 N   0  0  0  0  0  0  0  0  0  0  0  0
  -25.0320  -15.9980   20.2270 H   0  0  0  0  0  0  0  0  0  0  0  0
  -26.6420  -15.7410   19.7800 H   0  0  0  0  0  0  0  0  0  0  0  0
  1  3  2  0
  2 50  1  0
  2  1  1  0
  4  2  1  0
  5  1  1  0
  5  6  1  0
  7  6  1  0
  7  8  1  0
  9  8  1  0
 10 21  2  0
 11  9  1  0
 11 16  1  0
 12 20  1  0
 12 22  1  0
 13 19  1  0
 13 15  1  0
 14 20  1  0
 15 16  2  0
 15 14  1  0
 17 11  2  0
 18 17  1  0
 18 13  2  0
 19 12  1  0
 20 10  1  0
 22 24  2  0
 23 22  1  0
 25 23  1  0
 26 35  2  0
 26 31  1  0
 27 23  1  0
 27 31  1  0
 28 27  1  0
 29 30  1  0
 29 28  1  0
 30 26  1  0
 31 32  2  0
 32 33  1  0
 34 33  2  0
 35 34  1  0
 36 10  1  0
 36 37  1  0
 36 46  1  0
 37 40  1  0
 38 42  1  0
 38 37  1  0
 39 38  2  0
 42 41  1  0
 44 42  1  0
 44 45  1  0
 44 43  1  0
 46 49  1  1
 46 47  1  0
 48 46  1  0
 50 52  1  0
 50 53  1  0
 51 52  1  0
 53 56  1  0
 54 53  2  0
 56 55  1  0
 57 65  1  0
 58 63  1  0
 59 60  1  0
 59 58  1  0
 61 60  1  0
 61 70  1  0
 61 62  1  0
 63 57  1  0
 63 62  1  0
 64 57  2  0
 65 56  1  0
 65 66  1  0
 67 68  2  0
 68 87  1  0
 69 68  1  0
 69 72  1  0
 70 67  1  0
 70 71  1  0
 71 69  2  0
 72 73  1  0
 73 74  2  0
 75 78  1  0
 75 74  1  0
 76 75  2  0
 77 76  1  0
 77 72  2  0
 78 79  1  0
 79 80  1  0
 80 81  2  0
 82 81  1  0
 82 86  1  0
 83 82  2  0
 84 79  2  0
 84 83  1  0
 85 84  1  0
 87 88  1  0
 88 91  1  0
 88 90  1  0
 89 87  2  0
 92 93  1  0
 92 67  1  0
 94 92  1  0
M  ISO  4   8 101   9 101  57 100  65 100
M  END
>  <TORSDO>  (56) 
F 24

>  <SCORE>  (56) 
-12.420

>  <name>  (56) 
56

>  <ligand_id>  (56) 
56

>  <original_smiles>  (56) 
[H]c1c([H])c([H])c2c(c1[H])C([H])([H])C([H])([H])C([H])([H])C2([H])N([H])C(=O)C1([H])N(C(=O)C([H])(N([H])C(=O)C([H])(N([H])C([H])([H])[H])C([H])([H])[H])C(C([H])([H])[H])(C([H])([H])[H])C([H])([H])[H])C([H])([H])c2c([H])c(OC([H])([H])C([H])([H])OC([H])([H])C(=O)N([H])C([H])(C(=O)C([H])(N([H])C(=O)N3C([H])([H])C([H])([H])C([H])([H])C([H])(n4nc(-c5c([H])c([H])c(Oc6c([H])c([H])c(F)c([H])c6F)c([H])c5[H])c(C(=O)N([H])[H])c4N([H])[H])C3([H])[H])C([H])([H])[H])C([H])([H])C([H])([H])[H])c([H])c([H])c2C1([H])[H]

>  <smiles>  (56) 
[H]c1c([H])c([H])c2c(c1[H])C([H])([H])C([H])([H])C([H])([H])C2([H])N([H])C(=O)C1([H])N(C(=O)C([H])(N([H])C(=O)C([H])(N([H])C([H])([H])[H])C([H])([H])[H])C(C([H])([H])[H])(C([H])([H])[H])C([H])([H])[H])C([H])([H])c2c([H])c(OC([H])([H])C([H])([H])OC([H])([H])C(=O)N([H])C([H])(C(=O)C([H])(N([H])C(=O)N3C([H])([H])C([H])([H])C([H])([H])C([H])(n4nc(-c5c([H])c([H])c(Oc6c([H])c([H])c(F)c([H])c6F)c([H])c5[H])c(C(=O)N([H])[H])c4N([H])[H])C3([H])[H])C([H])([H])[H])C([H])([H])C([H])([H])[H])c([H])c([H])c2C1([H])[H]

$$$$
57:0:0
     RDKit          3D

 97104  0  0  1  0  0  0  0  0999 V2000
  -29.0530  -23.1050   21.7590 C   0  0  0  0  0  0  0  0  0  0  0  0
  -29.9120  -22.2640   21.1630 N   0  0  0  0  0  0  0  0  0  0  0  0
  -29.1420  -23.3690   22.9580 O   0  0  0  0  0  0  0  0  0  0  0  0
  -29.8020  -22.0640   20.1820 H   0  0  0  0  0  0  0  0  0  0  0  0
  -26.6120  -22.9540   21.2270 C   0  0  0  0  0  1  0  0  0  0  0  0
  -27.9090  -23.7280   20.9270 C   0  0  0  0  0  3  0  0  0  0  0  0
  -28.1600  -23.7600   19.4630 N   0  0  0  0  0  4  0  0  0  0  0  0
  -28.4500  -22.8410   19.1730 H   0  0  0  0  0  0  0  0  0  0  0  0
  -27.2820  -23.9390   19.0030 H   0  0  0  0  0  0  0  0  0  0  0  0
  -29.1410  -24.7620   18.9750 C   0  0  0  0  0  2  0  0  0  0  0  0
  -28.5210  -26.1430   18.6840 C   0  0  0  0  0  2  0  0  0  0  0  0
  -28.1940  -26.8150   19.9040 O   0  0  0  0  0  0  0  0  0  0  0  0
  -24.5270  -31.9160   23.2290 C   0  0  0  0  0  0  0  0  0  0  0  0
  -27.0090  -27.5120   19.9610 C   0  0  0  0  0  0  0  0  0  0  0  0
  -23.2380  -30.5450   21.6240 C   0  0  0  0  0  3  0  0  0  0  0  0
  -24.6150  -29.0090   20.1240 C   0  0  0  0  0  0  0  0  0  0  0  0
  -25.7540  -30.8850   21.3210 C   0  0  0  0  0  2  0  0  0  0  0  0
  -25.8000  -29.5200   20.6700 C   0  0  0  0  0  0  0  0  0  0  0  0
  -26.9930  -28.7700   20.6020 C   0  0  0  0  0  3  0  0  0  0  0  0
  -25.7990  -26.9970   19.4360 C   0  0  0  0  0  3  0  0  0  0  0  0
  -24.6070  -27.7410   19.5150 C   0  0  0  0  0  3  0  0  0  0  0  0
  -23.3790  -29.8740   20.2320 C   0  0  0  0  0  2  0  0  0  0  0  0
  -24.5270  -31.1270   22.1180 N   0  0  0  0  0  0  0  0  0  0  0  0
  -23.4740  -32.1930   23.8180 O   0  0  0  0  0  0  0  0  0  0  0  0
  -22.6190  -29.5200   22.6000 C   0  0  0  0  0  0  0  0  0  0  0  0
  -21.2970  -29.3110   22.4870 N   0  0  0  0  0  0  0  0  0  0  0  0
  -23.3230  -28.9130   23.4110 O   0  0  0  0  0  0  0  0  0  0  0  0
  -20.7910  -29.8500   21.7990 H   0  0  0  0  0  0  0  0  0  0  0  0
  -17.9640  -28.0120   22.9750 C   0  0  0  0  0  0  0  0  0  0  0  0
  -20.5060  -28.3660   23.2730 C   0  0  0  0  0  3  0  0  0  0  0  0
  -20.6670  -26.9260   22.7350 C   0  0  0  0  0  2  0  0  0  0  0  0
  -19.5910  -26.5390   21.7160 C   0  0  0  0  0  2  0  0  0  0  0  0
  -18.1960  -26.6520   22.3400 C   0  0  0  0  0  2  0  0  0  0  0  0
  -19.0490  -28.8230   23.3980 C   0  0  0  0  0  0  0  0  0  0  0  0
  -18.7790  -30.0950   23.9500 C   0  0  0  0  0  3  0  0  0  0  0  0
  -17.4570  -30.5570   24.0830 C   0  0  0  0  0  3  0  0  0  0  0  0
  -16.3840  -29.7420   23.6770 C   0  0  0  0  0  3  0  0  0  0  0  0
  -16.6380  -28.4720   23.1290 C   0  0  0  0  0  3  0  0  0  0  0  0
  -25.8470  -32.5260   23.7990 C   0  0  0  0  0  3  0  0  0  0  0  0
  -25.5700  -33.9240   24.1470 N   0  0  0  0  0  0  0  0  0  0  0  0
  -25.8990  -34.9780   23.3890 C   0  0  0  0  0  0  0  0  0  0  0  0
  -26.5360  -34.8730   22.3370 O   0  0  0  0  0  0  0  0  0  0  0  0
  -24.9940  -34.0790   24.9640 H   0  0  0  0  0  0  0  0  0  0  0  0
  -24.1890  -36.7980   23.0950 C   0  0  0  0  0  1  0  0  0  0  0  0
  -25.4450  -36.3680   23.8710 C   0  0  0  0  0  3  0  0  0  0  0  0
  -27.6170  -37.2110   24.6490 C   0  0  0  0  0  1  0  0  0  0  0  0
  -26.4900  -37.4070   23.7380 N   0  0  0  0  0  0  0  0  0  0  0  0
  -26.1050  -38.3320   23.9040 H   0  0  0  0  0  0  0  0  0  0  0  0
  -26.4110  -31.7380   25.0420 C   0  0  1  0  0  0  0  0  0  0  0  0
  -25.3620  -31.4950   26.1520 C   0  0  0  0  0  1  0  0  0  0  0  0
  -26.9630  -30.3590   24.6110 C   0  0  0  0  0  1  0  0  0  0  0  0
  -27.5950  -32.5170   25.6610 C   0  0  0  0  0  1  0  0  0  0  0  0
  -30.8220  -21.3580   21.8700 C   0  0  0  0  0  2  0  0  0  0  0  0
  -30.1710  -19.9790   22.0620 C   0  0  0  0  0  0  0  0  0  0  0  0
  -30.9690  -18.9860   22.4760 N   0  0  0  0  0  0  0  0  0  0  0  0
  -28.9760  -19.8070   21.8050 O   0  0  0  0  0  0  0  0  0  0  0  0
  -31.9260  -19.2310   22.6920 H   0  0  0  0  0  0  0  0  0  0  0  0
  -30.6230  -17.5670   22.5270 C   0  0  0  0  0  2  0  0  0  0  0  0
  -31.3140  -16.8210   21.3670 C   0  0  0  0  0  2  0  0  0  0  0  0
  -31.2470  -14.6180   20.2380 C   0  0  0  0  0  0  0  0  0  0  0  0
  -30.8130  -12.5460   18.9710 C   0  0  0  0  0  2  0  0  0  0  0  0
  -29.8550  -12.8110   17.7930 C   0  0  0  0  0  2  0  0  0  0  0  0
  -28.3890  -12.7070   18.2590 C   0  0  0  0  0  2  0  0  0  0  0  0
  -28.1070  -13.5470   19.5310 C   0  0  0  0  0  3  0  0  0  0  0  0
  -29.1660  -13.2500   20.6180 C   0  0  0  0  0  2  0  0  0  0  0  0
  -30.5030  -13.4990   20.0480 N   0  0  0  0  0  0  0  0  0  0  0  0
  -32.2840  -14.8580   19.6090 O   0  0  0  0  0  0  0  0  0  0  0  0
  -30.7680  -15.4830   21.1400 N   0  0  0  0  0  0  0  0  0  0  0  0
  -29.9230  -15.2230   21.6270 H   0  0  0  0  0  0  0  0  0  0  0  0
  -25.7410  -14.2410   20.2810 C   0  0  0  0  0  0  0  0  0  0  0  0
  -24.6510  -13.5040   20.6620 C   0  0  0  0  0  0  0  0  0  0  0  0
  -25.0640  -12.1370   20.6090 C   0  0  0  0  0  0  0  0  0  0  0  0
  -26.7490  -13.3230   20.0230 N   0  0  0  0  0  0  0  0  0  0  0  0
  -26.3450  -12.0530   20.2790 N   0  0  0  0  0  0  0  0  0  0  0  0
  -24.2950  -10.9010   20.7990 C   0  0  0  0  0  0  0  0  0  0  0  0
  -24.6910   -9.9200   21.7370 C   0  0  0  0  0  3  0  0  0  0  0  0
  -23.9250   -8.7470   21.9090 C   0  0  0  0  0  3  0  0  0  0  0  0
  -22.7490   -8.5480   21.1500 C   0  0  0  0  0  0  0  0  0  0  0  0
  -22.3720   -9.5170   20.2020 C   0  0  0  0  0  3  0  0  0  0  0  0
  -23.1380  -10.6820   20.0250 C   0  0  0  0  0  3  0  0  0  0  0  0
  -21.9560   -7.4270   21.2340 O   0  0  0  0  0  0  0  0  0  0  0  0
  -21.8460   -6.7110   22.4000 C   0  0  0  0  0  0  0  0  0  0  0  0
  -21.4180   -7.3100   23.6050 C   0  0  0  0  0  3  0  0  0  0  0  0
  -21.2490   -6.5230   24.7610 C   0  0  0  0  0  3  0  0  0  0  0  0
  -21.4980   -5.1370   24.7150 C   0  0  0  0  0  0  0  0  0  0  0  0
  -21.9230   -4.5400   23.5150 C   0  0  0  0  0  3  0  0  0  0  0  0
  -22.0920   -5.3240   22.3610 C   0  0  0  0  0  0  0  0  0  0  0  0
  -22.4780   -4.7370   21.2010 F   0  0  0  0  0  0  0  0  0  0  0  0
  -21.3320   -4.3790   25.8250 F   0  0  0  0  0  0  0  0  0  0  0  0
  -23.2770  -14.0310   20.9680 C   0  0  0  0  0  0  0  0  0  0  0  0
  -22.5480  -13.3610   21.8530 N   0  0  0  0  0  0  0  0  0  0  0  0
  -22.8630  -15.0720   20.4570 O   0  0  0  0  0  0  0  0  0  0  0  0
  -22.8930  -12.5190   22.2840 H   0  0  0  0  0  0  0  0  0  0  0  0
  -21.6310  -13.7040   22.1070 H   0  0  0  0  0  0  0  0  0  0  0  0
  -25.9560  -15.6060   20.1160 N   0  0  0  0  0  0  0  0  0  0  0  0
  -25.2220  -16.2920   20.2520 H   0  0  0  0  0  0  0  0  0  0  0  0
  -26.8210  -16.0190   19.7860 H   0  0  0  0  0  0  0  0  0  0  0  0
  1  3  2  0
  2  1  1  0
  2 53  1  0
  4  2  1  0
  6  5  1  0
  6  1  1  0
  7  6  1  0
  8  7  1  0
  9  7  1  0
 10  7  1  0
 11 10  1  0
 11 12  1  0
 12 14  1  0
 13 24  2  0
 14 19  1  0
 15 23  1  0
 15 25  1  0
 16 22  1  0
 16 18  1  0
 17 23  1  0
 18 17  1  0
 19 18  2  0
 20 21  1  0
 20 14  2  0
 21 16  2  0
 22 15  1  0
 23 13  1  0
 25 27  2  0
 26 25  1  0
 28 26  1  0
 29 38  2  0
 29 34  1  0
 30 26  1  0
 30 34  1  0
 31 30  1  0
 32 33  1  0
 32 31  1  0
 33 29  1  0
 34 35  2  0
 35 36  1  0
 37 36  2  0
 38 37  1  0
 39 13  1  0
 39 40  1  0
 39 49  1  0
 40 43  1  0
 41 45  1  0
 41 40  1  0
 42 41  2  0
 45 44  1  0
 47 45  1  0
 47 48  1  0
 47 46  1  0
 49 52  1  1
 49 50  1  0
 51 49  1  0
 53 54  1  0
 54 55  1  0
 55 58  1  0
 55 57  1  0
 56 54  2  0
 59 58  1  0
 60 68  1  0
 61 66  1  0
 62 63  1  0
 62 61  1  0
 64 63  1  0
 64 73  1  0
 64 65  1  0
 66 60  1  0
 66 65  1  0
 67 60  2  0
 68 59  1  0
 68 69  1  0
 70 71  2  0
 71 90  1  0
 72 71  1  0
 72 75  1  0
 73 74  1  0
 73 70  1  0
 74 72  2  0
 75 76  1  0
 76 77  2  0
 78 81  1  0
 78 77  1  0
 79 78  2  0
 80 79  1  0
 80 75  2  0
 81 82  1  0
 82 83  1  0
 83 84  2  0
 85 84  1  0
 85 89  1  0
 86 85  2  0
 87 82  2  0
 87 86  1  0
 88 87  1  0
 90 91  1  0
 91 94  1  0
 91 93  1  0
 92 90  2  0
 95 96  1  0
 95 70  1  0
 97 95  1  0
M  ISO  4  11 101  12 101  60 100  68 100
M  END
>  <TORSDO>  (57) 
F 24

>  <SCORE>  (57) 
-11.240

>  <name>  (57) 
57

>  <ligand_id>  (57) 
57

>  <original_smiles>  (57) 
[H]c1c([H])c([H])c2c(c1[H])C([H])([H])C([H])([H])C([H])([H])C2([H])N([H])C(=O)C1([H])N(C(=O)C([H])(N([H])C(=O)C([H])(N([H])C([H])([H])[H])C([H])([H])[H])C(C([H])([H])[H])(C([H])([H])[H])C([H])([H])[H])C([H])([H])c2c([H])c(OC([H])([H])C([H])([H])[N+]([H])([H])C([H])(C(=O)N([H])C([H])([H])C(=O)N([H])C([H])([H])C([H])([H])N([H])C(=O)N3C([H])([H])C([H])([H])C([H])([H])C([H])(n4nc(-c5c([H])c([H])c(Oc6c([H])c([H])c(F)c([H])c6F)c([H])c5[H])c(C(=O)N([H])[H])c4N([H])[H])C3([H])[H])C([H])([H])[H])c([H])c([H])c2C1([H])[H]

>  <smiles>  (57) 
[H]c1c([H])c([H])c2c(c1[H])C([H])([H])C([H])([H])C([H])([H])C2([H])N([H])C(=O)C1([H])N(C(=O)C([H])(N([H])C(=O)C([H])(N([H])C([H])([H])[H])C([H])([H])[H])C(C([H])([H])[H])(C([H])([H])[H])C([H])([H])[H])C([H])([H])c2c([H])c(OC([H])([H])C([H])([H])[N+]([H])([H])C([H])(C(=O)N([H])C([H])([H])C(=O)N([H])C([H])([H])C([H])([H])N([H])C(=O)N3C([H])([H])C([H])([H])C([H])([H])C([H])(n4nc(-c5c([H])c([H])c(Oc6c([H])c([H])c(F)c([H])c6F)c([H])c5[H])c(C(=O)N([H])[H])c4N([H])[H])C3([H])[H])C([H])([H])[H])c([H])c([H])c2C1([H])[H]

$$$$
58:0:0
     RDKit          3D

 93100  0  0  1  0  0  0  0  0999 V2000
  -29.0100  -23.2390   20.2570 C   0  0  0  0  0  3  0  0  0  0  0  0
  -29.3780  -23.2020   21.6850 N   0  0  0  0  0  4  0  0  0  0  0  0
  -28.6040  -22.8820   22.2400 H   0  0  0  0  0  0  0  0  0  0  0  0
  -29.6390  -24.1190   22.0030 H   0  0  0  0  0  0  0  0  0  0  0  0
  -30.1560  -22.5870   21.8420 H   0  0  0  0  0  0  0  0  0  0  0  0
  -28.6820  -21.6720   19.7590 C   0  0  0  0  0  0  0  0  0  0  0  0
  -29.4240  -20.4710   20.0260 N   0  0  0  0  0  0  0  0  0  0  0  0
  -27.6520  -21.5470   19.0980 O   0  0  0  0  0  0  0  0  0  0  0  0
  -30.3060  -20.5970   20.5060 H   0  0  0  0  0  0  0  0  0  0  0  0
  -27.8120  -18.5330   20.3980 C   0  0  0  0  0  1  0  0  0  0  0  0
  -29.1310  -18.9300   19.7050 C   0  0  0  0  0  3  0  0  0  0  0  0
  -30.6990  -15.0800   19.9880 C   0  0  0  0  0  0  0  0  0  0  0  0
  -30.5790  -12.6520   19.2300 C   0  0  0  0  0  2  0  0  0  0  0  0
  -29.6310  -12.4980   18.0180 C   0  0  0  0  0  2  0  0  0  0  0  0
  -28.1770  -12.3090   18.4890 C   0  0  0  0  0  2  0  0  0  0  0  0
  -27.7770  -13.3180   19.5960 C   0  0  0  0  0  3  0  0  0  0  0  0
  -28.8480  -13.4370   20.7000 C   0  0  0  0  0  2  0  0  0  0  0  0
  -30.1000  -13.8170   20.0340 N   0  0  0  0  0  0  0  0  0  0  0  0
  -31.9100  -15.0860   19.7410 O   0  0  0  0  0  0  0  0  0  0  0  0
  -30.2270  -17.6780   19.8810 C   0  0  0  0  0  0  0  0  0  0  0  0
  -29.9120  -16.2810   19.9950 N   0  0  0  0  0  0  0  0  0  0  0  0
  -31.4070  -18.0410   19.8990 O   0  0  0  0  0  0  0  0  0  0  0  0
  -28.9250  -16.1060   20.0560 H   0  0  0  0  0  0  0  0  0  0  0  0
  -25.4390  -13.9530   20.4140 C   0  0  0  0  0  0  0  0  0  0  0  0
  -24.3650  -13.2050   20.8130 C   0  0  0  0  0  0  0  0  0  0  0  0
  -24.7930  -11.8420   20.7590 C   0  0  0  0  0  0  0  0  0  0  0  0
  -26.4500  -13.0490   20.1370 N   0  0  0  0  0  0  0  0  0  0  0  0
  -26.0740  -11.7730   20.4110 N   0  0  0  0  0  0  0  0  0  0  0  0
  -24.0380  -10.5990   20.9620 C   0  0  0  0  0  0  0  0  0  0  0  0
  -24.4550   -9.6240   21.8940 C   0  0  0  0  0  3  0  0  0  0  0  0
  -23.6990   -8.4470   22.0850 C   0  0  0  0  0  3  0  0  0  0  0  0
  -22.5130   -8.2360   21.3430 C   0  0  0  0  0  0  0  0  0  0  0  0
  -22.1140   -9.2000   20.4010 C   0  0  0  0  0  3  0  0  0  0  0  0
  -22.8700  -10.3690   20.2070 C   0  0  0  0  0  3  0  0  0  0  0  0
  -21.7310   -7.1120   21.4420 O   0  0  0  0  0  0  0  0  0  0  0  0
  -21.6590   -6.3850   22.6040 C   0  0  0  0  0  0  0  0  0  0  0  0
  -21.2340   -6.9630   23.8190 C   0  0  0  0  0  3  0  0  0  0  0  0
  -21.1090   -6.1650   24.9730 C   0  0  0  0  0  3  0  0  0  0  0  0
  -21.3990   -4.7890   24.9130 C   0  0  0  0  0  0  0  0  0  0  0  0
  -21.8150   -4.2090   23.7020 C   0  0  0  0  0  3  0  0  0  0  0  0
  -21.9420   -5.0050   22.5490 C   0  0  0  0  0  0  0  0  0  0  0  0
  -22.3240   -4.4370   21.3810 F   0  0  0  0  0  0  0  0  0  0  0  0
  -21.2720   -4.0190   26.0200 F   0  0  0  0  0  0  0  0  0  0  0  0
  -22.9900  -13.7190   21.1220 C   0  0  0  0  0  0  0  0  0  0  0  0
  -22.2700  -13.0470   22.0140 N   0  0  0  0  0  0  0  0  0  0  0  0
  -22.5650  -14.7540   20.6100 O   0  0  0  0  0  0  0  0  0  0  0  0
  -22.6290  -12.2100   22.4490 H   0  0  0  0  0  0  0  0  0  0  0  0
  -21.3500  -13.3760   22.2650 H   0  0  0  0  0  0  0  0  0  0  0  0
  -25.6320  -15.3190   20.2360 N   0  0  0  0  0  0  0  0  0  0  0  0
  -24.8760  -15.9860   20.3550 H   0  0  0  0  0  0  0  0  0  0  0  0
  -26.4510  -15.7280   19.8090 H   0  0  0  0  0  0  0  0  0  0  0  0
  -27.9940  -24.5900   19.9950 C   0  0  0  0  0  2  0  0  0  0  0  0
  -28.2530  -26.1230   20.2800 O   0  0  0  0  0  0  0  0  0  0  0  0
  -24.6370  -31.8700   23.2450 C   0  0  0  0  0  0  0  0  0  0  0  0
  -27.2060  -27.1280   20.2120 C   0  0  0  0  0  0  0  0  0  0  0  0
  -23.4350  -30.4720   21.6100 C   0  0  0  0  0  3  0  0  0  0  0  0
  -24.8830  -28.8950   20.1820 C   0  0  0  0  0  0  0  0  0  0  0  0
  -25.9920  -30.7280   21.4470 C   0  0  0  0  0  2  0  0  0  0  0  0
  -26.0640  -29.3340   20.7930 C   0  0  0  0  0  0  0  0  0  0  0  0
  -27.2260  -28.4660   20.7900 C   0  0  0  0  0  3  0  0  0  0  0  0
  -25.9960  -26.8030   19.5590 C   0  0  0  0  0  3  0  0  0  0  0  0
  -24.8620  -27.6450   19.5480 C   0  0  0  0  0  3  0  0  0  0  0  0
  -23.6560  -29.7960   20.2320 C   0  0  0  0  0  2  0  0  0  0  0  0
  -24.7080  -31.0470   22.1550 N   0  0  0  0  0  0  0  0  0  0  0  0
  -23.5490  -32.1570   23.7710 O   0  0  0  0  0  0  0  0  0  0  0  0
  -22.7560  -29.4680   22.5740 C   0  0  0  0  0  0  0  0  0  0  0  0
  -21.4300  -29.2890   22.4400 N   0  0  0  0  0  0  0  0  0  0  0  0
  -23.4260  -28.8490   23.4070 O   0  0  0  0  0  0  0  0  0  0  0  0
  -20.9460  -29.8400   21.7460 H   0  0  0  0  0  0  0  0  0  0  0  0
  -18.0570  -28.0570   22.9220 C   0  0  0  0  0  0  0  0  0  0  0  0
  -20.6110  -28.3490   23.2090 C   0  0  0  0  0  3  0  0  0  0  0  0
  -20.7330  -26.9150   22.6460 C   0  0  0  0  0  2  0  0  0  0  0  0
  -19.6420  -26.5680   21.6280 C   0  0  0  0  0  2  0  0  0  0  0  0
  -18.2530  -26.7030   22.2610 C   0  0  0  0  0  2  0  0  0  0  0  0
  -19.1630  -28.8360   23.3530 C   0  0  0  0  0  0  0  0  0  0  0  0
  -18.9260  -30.1000   23.9340 C   0  0  0  0  0  3  0  0  0  0  0  0
  -17.6140  -30.5870   24.0880 C   0  0  0  0  0  3  0  0  0  0  0  0
  -16.5210  -29.8060   23.6720 C   0  0  0  0  0  3  0  0  0  0  0  0
  -16.7440  -28.5420   23.0970 C   0  0  0  0  0  3  0  0  0  0  0  0
  -25.9130  -32.5090   23.8720 C   0  0  0  0  0  3  0  0  0  0  0  0
  -26.4110  -31.7540   25.1660 C   0  0  1  0  0  0  0  0  0  0  0  0
  -25.3050  -31.5400   26.2250 C   0  0  0  0  0  1  0  0  0  0  0  0
  -26.9910  -30.3670   24.8070 C   0  0  0  0  0  1  0  0  0  0  0  0
  -27.5600  -32.5520   25.8270 C   0  0  0  0  0  1  0  0  0  0  0  0
  -25.6060  -33.9140   24.1850 N   0  0  0  0  0  0  0  0  0  0  0  0
  -25.9290  -34.9590   23.4130 C   0  0  0  0  0  0  0  0  0  0  0  0
  -26.5840  -34.8420   22.3730 O   0  0  0  0  0  0  0  0  0  0  0  0
  -25.0240  -34.0790   24.9930 H   0  0  0  0  0  0  0  0  0  0  0  0
  -24.1860  -36.7460   23.0840 C   0  0  0  0  0  1  0  0  0  0  0  0
  -25.4530  -36.3550   23.8630 C   0  0  0  0  0  3  0  0  0  0  0  0
  -27.6060  -37.2620   24.6180 C   0  0  0  0  0  1  0  0  0  0  0  0
  -26.4790  -37.4080   23.7010 N   0  0  0  0  0  0  0  0  0  0  0  0
  -26.0740  -38.3300   23.8390 H   0  0  0  0  0  0  0  0  0  0  0  0
  1 52  1  0
  1  2  1  0
  2  5  1  0
  2  4  1  0
  2  3  1  0
  6  7  1  0
  6  1  1  0
  7  9  1  0
  8  6  2  0
 11 20  1  0
 11  7  1  0
 11 10  1  0
 12 21  1  0
 12 18  1  0
 13 18  1  0
 14 15  1  0
 14 13  1  0
 16 15  1  0
 16 27  1  0
 16 17  1  0
 18 17  1  0
 19 12  2  0
 20 22  2  0
 20 21  1  0
 21 23  1  0
 24 25  2  0
 25 44  1  0
 26 25  1  0
 26 29  1  0
 27 28  1  0
 27 24  1  0
 28 26  2  0
 29 30  1  0
 30 31  2  0
 32 35  1  0
 32 31  1  0
 33 32  2  0
 34 33  1  0
 34 29  2  0
 35 36  1  0
 36 37  1  0
 37 38  2  0
 39 38  1  0
 39 43  1  0
 40 39  2  0
 41 36  2  0
 41 40  1  0
 42 41  1  0
 44 45  1  0
 45 48  1  0
 45 47  1  0
 46 44  2  0
 49 50  1  0
 49 24  1  0
 51 49  1  0
 52 53  1  0
 54 65  2  0
 55 53  1  0
 55 60  1  0
 56 64  1  0
 56 66  1  0
 57 63  1  0
 57 59  1  0
 58 64  1  0
 59 58  1  0
 60 59  2  0
 61 55  2  0
 62 61  1  0
 62 57  2  0
 63 56  1  0
 64 54  1  0
 66 68  2  0
 67 66  1  0
 69 67  1  0
 70 79  2  0
 70 75  1  0
 71 67  1  0
 71 75  1  0
 72 71  1  0
 73 74  1  0
 73 72  1  0
 74 70  1  0
 75 76  2  0
 76 77  1  0
 78 77  2  0
 79 78  1  0
 80 54  1  0
 80 85  1  0
 80 81  1  0
 81 84  1  1
 81 82  1  0
 83 81  1  0
 85 88  1  0
 86 90  1  0
 86 85  1  0
 87 86  2  0
 90 89  1  0
 92 93  1  0
 92 90  1  0
 92 91  1  0
M  ISO  4  12 100  21 100  52 101  53 101
M  END
>  <TORSDO>  (58) 
F 20

>  <SCORE>  (58) 
-14.513

>  <name>  (58) 
58

>  <ligand_id>  (58) 
58

>  <original_smiles>  (58) 
[H]c1c([H])c([H])c2c(c1[H])C([H])([H])C([H])([H])C([H])([H])C2([H])N([H])C(=O)C1([H])N(C(=O)C([H])(N([H])C(=O)C([H])(N([H])C([H])([H])[H])C([H])([H])[H])C(C([H])([H])[H])(C([H])([H])[H])C([H])([H])[H])C([H])([H])c2c([H])c(OC([H])([H])C([H])(C(=O)N([H])C([H])(C(=O)N([H])C(=O)N3C([H])([H])C([H])([H])C([H])([H])C([H])(n4nc(-c5c([H])c([H])c(Oc6c([H])c([H])c(F)c([H])c6F)c([H])c5[H])c(C(=O)N([H])[H])c4N([H])[H])C3([H])[H])C([H])([H])[H])[N+]([H])([H])[H])c([H])c([H])c2C1([H])[H]

>  <smiles>  (58) 
[H]c1c([H])c([H])c2c(c1[H])C([H])([H])C([H])([H])C([H])([H])C2([H])N([H])C(=O)C1([H])N(C(=O)C([H])(N([H])C(=O)C([H])(N([H])C([H])([H])[H])C([H])([H])[H])C(C([H])([H])[H])(C([H])([H])[H])C([H])([H])[H])C([H])([H])c2c([H])c(OC([H])([H])C([H])(C(=O)N([H])C([H])(C(=O)N([H])C(=O)N3C([H])([H])C([H])([H])C([H])([H])C([H])(n4nc(-c5c([H])c([H])c(Oc6c([H])c([H])c(F)c([H])c6F)c([H])c5[H])c(C(=O)N([H])[H])c4N([H])[H])C3([H])[H])C([H])([H])[H])[N+]([H])([H])[H])c([H])c([H])c2C1([H])[H]

$$$$
59:0:0
     RDKit          3D

 92 99  0  0  1  0  0  0  0  0999 V2000
  -29.0600  -19.8660   19.7060 C   0  0  0  0  0  0  0  0  0  0  0  0
  -28.9810  -21.2510   20.2540 N   0  0  0  0  0  0  0  0  0  0  0  0
  -28.5970  -19.7370   18.5730 O   0  0  0  0  0  0  0  0  0  0  0  0
  -29.3160  -21.2750   21.2100 H   0  0  0  0  0  0  0  0  0  0  0  0
  -28.6990  -22.8160   19.6890 C   0  0  0  0  0  2  0  0  0  0  0  0
  -27.9930  -24.3450   20.3730 C   0  0  0  0  0  2  0  0  0  0  0  0
  -28.1480  -25.9810   20.1090 O   0  0  0  0  0  0  0  0  0  0  0  0
  -24.5820  -31.9230   23.2180 C   0  0  0  0  0  0  0  0  0  0  0  0
  -27.1140  -27.0620   20.1410 C   0  0  0  0  0  0  0  0  0  0  0  0
  -23.3700  -30.5320   21.5880 C   0  0  0  0  0  3  0  0  0  0  0  0
  -24.8050  -28.9380   20.1390 C   0  0  0  0  0  0  0  0  0  0  0  0
  -25.9340  -30.7530   21.4050 C   0  0  0  0  0  2  0  0  0  0  0  0
  -26.0020  -29.3450   20.7420 C   0  0  0  0  0  0  0  0  0  0  0  0
  -27.1520  -28.4320   20.7100 C   0  0  0  0  0  3  0  0  0  0  0  0
  -25.8810  -26.8050   19.5010 C   0  0  0  0  0  3  0  0  0  0  0  0
  -24.7690  -27.6880   19.4980 C   0  0  0  0  0  3  0  0  0  0  0  0
  -23.5840  -29.8560   20.2060 C   0  0  0  0  0  2  0  0  0  0  0  0
  -24.6520  -31.0970   22.1240 N   0  0  0  0  0  0  0  0  0  0  0  0
  -23.4990  -32.2030   23.7570 O   0  0  0  0  0  0  0  0  0  0  0  0
  -22.6940  -29.5280   22.5580 C   0  0  0  0  0  0  0  0  0  0  0  0
  -21.3670  -29.3410   22.4350 N   0  0  0  0  0  0  0  0  0  0  0  0
  -23.3710  -28.9170   23.3890 O   0  0  0  0  0  0  0  0  0  0  0  0
  -20.8730  -29.8850   21.7420 H   0  0  0  0  0  0  0  0  0  0  0  0
  -18.0090  -28.0620   22.9420 C   0  0  0  0  0  0  0  0  0  0  0  0
  -20.5620  -28.3900   23.2100 C   0  0  0  0  0  3  0  0  0  0  0  0
  -20.6980  -26.9570   22.6450 C   0  0  0  0  0  2  0  0  0  0  0  0
  -19.6060  -26.6020   21.6300 C   0  0  0  0  0  2  0  0  0  0  0  0
  -18.2200  -26.7150   22.2700 C   0  0  0  0  0  2  0  0  0  0  0  0
  -19.1070  -28.8550   23.3690 C   0  0  0  0  0  0  0  0  0  0  0  0
  -18.8540  -30.1110   23.9590 C   0  0  0  0  0  3  0  0  0  0  0  0
  -17.5360  -30.5770   24.1260 C   0  0  0  0  0  3  0  0  0  0  0  0
  -16.4520  -29.7830   23.7130 C   0  0  0  0  0  3  0  0  0  0  0  0
  -16.6890  -28.5270   23.1270 C   0  0  0  0  0  3  0  0  0  0  0  0
  -25.8590  -32.5680   23.8380 C   0  0  0  0  0  3  0  0  0  0  0  0
  -25.5480  -33.9720   24.1580 N   0  0  0  0  0  0  0  0  0  0  0  0
  -25.8930  -35.0260   23.4070 C   0  0  0  0  0  0  0  0  0  0  0  0
  -26.5680  -34.9180   22.3800 O   0  0  0  0  0  0  0  0  0  0  0  0
  -24.9490  -34.1300   24.9560 H   0  0  0  0  0  0  0  0  0  0  0  0
  -24.1940  -36.8490   23.0380 C   0  0  0  0  0  1  0  0  0  0  0  0
  -25.4160  -36.4210   23.8650 C   0  0  0  0  0  3  0  0  0  0  0  0
  -27.5430  -37.2840   24.7410 C   0  0  0  0  0  1  0  0  0  0  0  0
  -26.4650  -37.4620   23.7720 N   0  0  0  0  0  0  0  0  0  0  0  0
  -26.0660  -38.3880   23.9080 H   0  0  0  0  0  0  0  0  0  0  0  0
  -26.3660  -31.8170   25.1310 C   0  0  1  0  0  0  0  0  0  0  0  0
  -25.2670  -31.6000   26.1980 C   0  0  0  0  0  1  0  0  0  0  0  0
  -26.9480  -30.4310   24.7730 C   0  0  0  0  0  1  0  0  0  0  0  0
  -27.5150  -32.6200   25.7850 C   0  0  0  0  0  1  0  0  0  0  0  0
  -29.7520  -18.3680   20.3320 C   0  0  0  0  0  0  0  0  0  0  0  0
  -30.3340  -15.4620   19.8720 C   0  0  0  0  0  0  0  0  0  0  0  0
  -30.2880  -13.0240   18.9530 C   0  0  0  0  0  2  0  0  0  0  0  0
  -29.2870  -12.7920   17.7920 C   0  0  0  0  0  2  0  0  0  0  0  0
  -27.8770  -12.4960   18.3320 C   0  0  0  0  0  2  0  0  0  0  0  0
  -27.4880  -13.4500   19.4890 C   0  0  0  0  0  3  0  0  0  0  0  0
  -28.6090  -13.6150   20.5360 C   0  0  0  0  0  2  0  0  0  0  0  0
  -29.7740  -14.1520   19.8130 N   0  0  0  0  0  0  0  0  0  0  0  0
  -31.5510  -15.4650   19.6390 O   0  0  0  0  0  0  0  0  0  0  0  0
  -29.5530  -16.7260   19.9950 N   0  0  0  0  0  4  0  0  0  0  0  0
  -28.5690  -16.5080   19.9690 H   0  0  0  0  0  0  0  0  0  0  0  0
  -25.1830  -13.9770   20.4400 C   0  0  0  0  0  0  0  0  0  0  0  0
  -24.1500  -13.1860   20.8570 C   0  0  0  0  0  0  0  0  0  0  0  0
  -24.6120  -11.8380   20.7420 C   0  0  0  0  0  0  0  0  0  0  0  0
  -26.2030  -13.1130   20.0870 N   0  0  0  0  0  0  0  0  0  0  0  0
  -25.8780  -11.8180   20.3380 N   0  0  0  0  0  0  0  0  0  0  0  0
  -23.8970  -10.5700   20.9350 C   0  0  0  0  0  0  0  0  0  0  0  0
  -24.3690   -9.5830   21.8290 C   0  0  0  0  0  3  0  0  0  0  0  0
  -23.6510   -8.3820   22.0130 C   0  0  0  0  0  3  0  0  0  0  0  0
  -22.4470   -8.1580   21.3040 C   0  0  0  0  0  0  0  0  0  0  0  0
  -21.9950   -9.1330   20.3980 C   0  0  0  0  0  3  0  0  0  0  0  0
  -22.7120  -10.3260   20.2120 C   0  0  0  0  0  3  0  0  0  0  0  0
  -21.6970   -7.0110   21.3990 O   0  0  0  0  0  0  0  0  0  0  0  0
  -21.6690   -6.2640   22.5500 C   0  0  0  0  0  0  0  0  0  0  0  0
  -21.2340   -6.8050   23.7790 C   0  0  0  0  0  3  0  0  0  0  0  0
  -21.1550   -5.9830   24.9210 C   0  0  0  0  0  3  0  0  0  0  0  0
  -21.5000   -4.6220   24.8350 C   0  0  0  0  0  0  0  0  0  0  0  0
  -21.9280   -4.0790   23.6100 C   0  0  0  0  0  3  0  0  0  0  0  0
  -22.0080   -4.8990   22.4700 C   0  0  0  0  0  0  0  0  0  0  0  0
  -22.4010   -4.3660   21.2880 F   0  0  0  0  0  0  0  0  0  0  0  0
  -21.4170   -3.8300   25.9290 F   0  0  0  0  0  0  0  0  0  0  0  0
  -22.7760  -13.6520   21.2380 C   0  0  0  0  0  0  0  0  0  0  0  0
  -22.1050  -12.9220   22.1210 N   0  0  0  0  0  0  0  0  0  0  0  0
  -22.3100  -14.6990   20.7880 O   0  0  0  0  0  0  0  0  0  0  0  0
  -22.4990  -12.0760   22.5050 H   0  0  0  0  0  0  0  0  0  0  0  0
  -21.1860  -13.2160   22.4200 H   0  0  0  0  0  0  0  0  0  0  0  0
  -25.3310  -15.3540   20.2990 N   0  0  0  0  0  0  0  0  0  0  0  0
  -24.5620  -15.9930   20.4730 H   0  0  0  0  0  0  0  0  0  0  0  0
  -26.1280  -15.8050   19.8720 H   0  0  0  0  0  0  0  0  0  0  0  0
  -29.8990  -18.5220   21.8690 C   0  0  0  0  0  2  0  0  0  0  0  0
  -31.2650  -18.1090   22.4220 C   0  0  0  0  0  0  0  0  0  0  0  0
  -31.3240  -17.0340   23.1990 N   0  0  0  0  0  0  0  0  0  0  0  0
  -32.2750  -18.7540   22.1460 O   0  0  0  0  0  0  0  0  0  0  0  0
  -30.4860  -16.5190   23.4340 H   0  0  0  0  0  0  0  0  0  0  0  0
  -32.2080  -16.7300   23.5830 H   0  0  0  0  0  0  0  0  0  0  0  0
  1  2  1  0
  1 48  1  0
  2  4  1  0
  3  1  2  0
  5  2  1  0
  5  6  1  0
  7  9  1  0
  7  6  1  0
  8 19  2  0
  9 14  1  0
 10 18  1  0
 10 20  1  0
 11 17  1  0
 11 13  1  0
 12 18  1  0
 13 12  1  0
 14 13  2  0
 15  9  2  0
 16 15  1  0
 16 11  2  0
 17 10  1  0
 18  8  1  0
 20 22  2  0
 21 20  1  0
 23 21  1  0
 24 33  2  0
 24 29  1  0
 25 21  1  0
 25 29  1  0
 26 25  1  0
 27 28  1  0
 27 26  1  0
 28 24  1  0
 29 30  2  0
 30 31  1  0
 32 31  2  0
 33 32  1  0
 34  8  1  0
 34 35  1  0
 34 44  1  0
 35 38  1  0
 36 40  1  0
 36 35  1  0
 37 36  2  0
 40 39  1  0
 42 40  1  0
 42 43  1  0
 42 41  1  0
 44 47  1  1
 44 45  1  0
 46 44  1  0
 48 87  1  0
 49 57  1  0
 50 55  1  0
 51 52  1  0
 51 50  1  0
 53 52  1  0
 53 62  1  0
 53 54  1  0
 55 49  1  0
 55 54  1  0
 56 49  2  0
 57 48  2  0
 58 57  1  0
 59 60  2  0
 60 79  1  0
 61 60  1  0
 61 64  1  0
 62 63  1  0
 62 59  1  0
 63 61  2  0
 64 65  1  0
 65 66  2  0
 67 70  1  0
 67 66  1  0
 68 67  2  0
 69 68  1  0
 69 64  2  0
 70 71  1  0
 71 72  1  0
 72 73  2  0
 74 73  1  0
 74 78  1  0
 75 74  2  0
 76 71  2  0
 76 75  1  0
 77 76  1  0
 79 80  1  0
 80 83  1  0
 80 82  1  0
 81 79  2  0
 84 59  1  0
 84 85  1  0
 86 84  1  0
 87 88  1  0
 88 89  1  0
 89 91  1  0
 89 92  1  0
 90 88  2  0
M  ISO  4   6 101   7 101  49 100  57 100
M  END
>  <TORSDO>  (59) 
F 21

>  <SCORE>  (59) 
-14.370

>  <name>  (59) 
59

>  <ligand_id>  (59) 
59

>  <original_smiles>  (59) 
[H]c1c([H])c([H])c2c(c1[H])C([H])([H])C([H])([H])C([H])([H])C2([H])N([H])C(=O)C1([H])N(C(=O)C([H])(N([H])C(=O)C([H])(N([H])C([H])([H])[H])C([H])([H])[H])C(C([H])([H])[H])(C([H])([H])[H])C([H])([H])[H])C([H])([H])c2c([H])c(OC([H])([H])C([H])([H])N([H])C(=O)C([H])(N([H])C(=O)N3C([H])([H])C([H])([H])C([H])([H])C([H])(n4nc(-c5c([H])c([H])c(Oc6c([H])c([H])c(F)c([H])c6F)c([H])c5[H])c(C(=O)N([H])[H])c4N([H])[H])C3([H])[H])C([H])([H])C(=O)N([H])[H])c([H])c([H])c2C1([H])[H]

>  <smiles>  (59) 
[H]c1c([H])c([H])c2c(c1[H])C([H])([H])C([H])([H])C([H])([H])C2([H])N([H])C(=O)C1([H])N(C(=O)C([H])(N([H])C(=O)C([H])(N([H])C([H])([H])[H])C([H])([H])[H])C(C([H])([H])[H])(C([H])([H])[H])C([H])([H])[H])C([H])([H])c2c([H])c(OC([H])([H])C([H])([H])N([H])C(=O)C([H])(N([H])C(=O)N3C([H])([H])C([H])([H])C([H])([H])C([H])(n4nc(-c5c([H])c([H])c(Oc6c([H])c([H])c(F)c([H])c6F)c([H])c5[H])c(C(=O)N([H])[H])c4N([H])[H])C3([H])[H])C([H])([H])C(=O)N([H])[H])c([H])c([H])c2C1([H])[H]

$$$$
60:0:0
     RDKit          3D

 93100  0  0  1  0  0  0  0  0999 V2000
  -29.3760  -20.5880   20.3190 C   0  0  0  0  0  0  0  0  0  0  0  0
  -30.1710  -19.5110   20.4800 N   0  0  0  0  0  0  0  0  0  0  0  0
  -28.2180  -20.4680   19.9050 O   0  0  0  0  0  0  0  0  0  0  0  0
  -31.1250  -19.6800   20.7750 H   0  0  0  0  0  0  0  0  0  0  0  0
  -29.9390  -21.9990   20.6250 C   0  0  0  0  0  2  0  0  0  0  0  0
  -29.0290  -23.0040   20.1540 O   0  0  0  0  0  0  0  0  0  0  0  0
  -29.3980  -24.3690   20.4040 C   0  0  0  0  0  2  0  0  0  0  0  0
  -28.2380  -25.2720   19.9160 C   0  0  0  0  0  2  0  0  0  0  0  0
  -28.3550  -26.6780   20.2220 O   0  0  0  0  0  0  0  0  0  0  0  0
  -24.5650  -31.9190   23.2460 C   0  0  0  0  0  0  0  0  0  0  0  0
  -27.1860  -27.4300   20.1860 C   0  0  0  0  0  0  0  0  0  0  0  0
  -23.3500  -30.5130   21.6180 C   0  0  0  0  0  3  0  0  0  0  0  0
  -24.7950  -28.9620   20.1990 C   0  0  0  0  0  0  0  0  0  0  0  0
  -25.8810  -30.8550   21.4130 C   0  0  0  0  0  2  0  0  0  0  0  0
  -25.9590  -29.4780   20.7810 C   0  0  0  0  0  0  0  0  0  0  0  0
  -27.1560  -28.7210   20.7700 C   0  0  0  0  0  3  0  0  0  0  0  0
  -25.9970  -26.9430   19.5880 C   0  0  0  0  0  3  0  0  0  0  0  0
  -24.8080  -27.6930   19.6020 C   0  0  0  0  0  3  0  0  0  0  0  0
  -23.5550  -29.8280   20.2410 C   0  0  0  0  0  2  0  0  0  0  0  0
  -24.6170  -31.1120   22.1490 N   0  0  0  0  0  0  0  0  0  0  0  0
  -23.4840  -32.2000   23.7860 O   0  0  0  0  0  0  0  0  0  0  0  0
  -22.6970  -29.4990   22.5830 C   0  0  0  0  0  0  0  0  0  0  0  0
  -21.3700  -29.3250   22.4610 N   0  0  0  0  0  0  0  0  0  0  0  0
  -23.3780  -28.8730   23.3990 O   0  0  0  0  0  0  0  0  0  0  0  0
  -20.8820  -29.8830   21.7770 H   0  0  0  0  0  0  0  0  0  0  0  0
  -17.9890  -28.1500   22.9710 C   0  0  0  0  0  0  0  0  0  0  0  0
  -20.5490  -28.3950   23.2380 C   0  0  0  0  0  3  0  0  0  0  0  0
  -20.6420  -26.9590   22.6720 C   0  0  0  0  0  2  0  0  0  0  0  0
  -19.5370  -26.6350   21.6610 C   0  0  0  0  0  2  0  0  0  0  0  0
  -18.1570  -26.7940   22.3060 C   0  0  0  0  0  2  0  0  0  0  0  0
  -19.1120  -28.9080   23.3950 C   0  0  0  0  0  0  0  0  0  0  0  0
  -18.9030  -30.1760   23.9780 C   0  0  0  0  0  3  0  0  0  0  0  0
  -17.6020  -30.6870   24.1410 C   0  0  0  0  0  3  0  0  0  0  0  0
  -16.4920  -29.9260   23.7340 C   0  0  0  0  0  3  0  0  0  0  0  0
  -16.6860  -28.6590   23.1560 C   0  0  0  0  0  3  0  0  0  0  0  0
  -25.8540  -32.5490   23.8610 C   0  0  0  0  0  3  0  0  0  0  0  0
  -25.5510  -33.9480   24.1870 N   0  0  0  0  0  0  0  0  0  0  0  0
  -25.8870  -34.9960   23.4210 C   0  0  0  0  0  0  0  0  0  0  0  0
  -26.5540  -34.8840   22.3900 O   0  0  0  0  0  0  0  0  0  0  0  0
  -24.9590  -34.1100   24.9880 H   0  0  0  0  0  0  0  0  0  0  0  0
  -24.1660  -36.7940   23.0550 C   0  0  0  0  0  1  0  0  0  0  0  0
  -25.4040  -36.3880   23.8720 C   0  0  0  0  0  3  0  0  0  0  0  0
  -27.5410  -37.2630   24.7010 C   0  0  0  0  0  1  0  0  0  0  0  0
  -26.4410  -37.4360   23.7570 N   0  0  0  0  0  0  0  0  0  0  0  0
  -26.0390  -38.3570   23.9040 H   0  0  0  0  0  0  0  0  0  0  0  0
  -26.3750  -31.7780   25.1360 C   0  0  1  0  0  0  0  0  0  0  0  0
  -25.2870  -31.5460   26.2120 C   0  0  0  0  0  1  0  0  0  0  0  0
  -26.9530  -30.3990   24.7420 C   0  0  0  0  0  1  0  0  0  0  0  0
  -27.5330  -32.5690   25.7900 C   0  0  0  0  0  1  0  0  0  0  0  0
  -29.8190  -18.1090   20.1580 C   0  0  0  0  0  3  0  0  0  0  0  0
  -30.0800  -17.8550   18.6510 C   0  0  0  0  0  0  0  0  0  0  0  0
  -29.5030  -18.6780   17.7840 N   0  0  0  0  0  0  0  0  0  0  0  0
  -30.8140  -16.9550   18.2510 O   0  0  0  0  0  0  0  0  0  0  0  0
  -28.8970  -19.4080   18.1400 H   0  0  0  0  0  0  0  0  0  0  0  0
  -29.6540  -18.5810   16.7900 H   0  0  0  0  0  0  0  0  0  0  0  0
  -30.6330  -17.1260   21.0680 C   0  0  0  0  0  2  0  0  0  0  0  0
  -30.0270  -15.6910   21.2550 C   0  0  0  0  0  2  0  0  0  0  0  0
  -30.7190  -14.5030   20.5290 C   0  0  0  0  0  0  0  0  0  0  0  0
  -30.4270  -12.3570   19.3300 C   0  0  0  0  0  2  0  0  0  0  0  0
  -29.5020  -12.5820   18.1150 C   0  0  0  0  0  2  0  0  0  0  0  0
  -28.0180  -12.4560   18.5180 C   0  0  0  0  0  2  0  0  0  0  0  0
  -27.6730  -13.2810   19.7860 C   0  0  0  0  0  3  0  0  0  0  0  0
  -28.7110  -13.0350   20.9040 C   0  0  0  0  0  2  0  0  0  0  0  0
  -30.0450  -13.3320   20.3610 N   0  0  0  0  0  0  0  0  0  0  0  0
  -31.8490  -14.6690   20.0590 O   0  0  0  0  0  0  0  0  0  0  0  0
  -25.2650  -13.9170   20.4360 C   0  0  0  0  0  0  0  0  0  0  0  0
  -24.1830  -13.1590   20.7960 C   0  0  0  0  0  0  0  0  0  0  0  0
  -24.6330  -11.8040   20.7970 C   0  0  0  0  0  0  0  0  0  0  0  0
  -26.3080  -13.0230   20.2420 N   0  0  0  0  0  0  0  0  0  0  0  0
  -25.9300  -11.7480   20.5160 N   0  0  0  0  0  0  0  0  0  0  0  0
  -23.8940  -10.5510   20.9940 C   0  0  0  0  0  0  0  0  0  0  0  0
  -24.3130   -9.5910   21.9400 C   0  0  0  0  0  3  0  0  0  0  0  0
  -23.5780   -8.4000   22.1240 C   0  0  0  0  0  3  0  0  0  0  0  0
  -22.4080   -8.1620   21.3660 C   0  0  0  0  0  0  0  0  0  0  0  0
  -22.0050   -9.1150   20.4120 C   0  0  0  0  0  3  0  0  0  0  0  0
  -22.7400  -10.2960   20.2250 C   0  0  0  0  0  3  0  0  0  0  0  0
  -21.6420   -7.0250   21.4610 O   0  0  0  0  0  0  0  0  0  0  0  0
  -21.5880   -6.2880   22.6170 C   0  0  0  0  0  0  0  0  0  0  0  0
  -21.1850   -6.8540   23.8470 C   0  0  0  0  0  3  0  0  0  0  0  0
  -21.0790   -6.0440   24.9940 C   0  0  0  0  0  3  0  0  0  0  0  0
  -21.3650   -4.6680   24.9130 C   0  0  0  0  0  0  0  0  0  0  0  0
  -21.7590   -4.1000   23.6880 C   0  0  0  0  0  3  0  0  0  0  0  0
  -21.8690   -4.9090   22.5430 C   0  0  0  0  0  0  0  0  0  0  0  0
  -22.2290   -4.3540   21.3620 F   0  0  0  0  0  0  0  0  0  0  0  0
  -21.2550   -3.8860   26.0130 F   0  0  0  0  0  0  0  0  0  0  0  0
  -22.7830  -13.6510   21.0340 C   0  0  0  0  0  0  0  0  0  0  0  0
  -22.0360  -12.9770   21.8990 N   0  0  0  0  0  0  0  0  0  0  0  0
  -22.3640  -14.6700   20.4860 O   0  0  0  0  0  0  0  0  0  0  0  0
  -22.3850  -12.1550   22.3690 H   0  0  0  0  0  0  0  0  0  0  0  0
  -21.0960  -13.2870   22.0960 H   0  0  0  0  0  0  0  0  0  0  0  0
  -25.4460  -15.2820   20.2380 N   0  0  0  0  0  0  0  0  0  0  0  0
  -24.6850  -15.9460   20.3180 H   0  0  0  0  0  0  0  0  0  0  0  0
  -26.3110  -15.7060   19.9240 H   0  0  0  0  0  0  0  0  0  0  0  0
  1  2  1  0
  1  5  1  0
  2  4  1  0
  3  1  2  0
  6  7  1  0
  6  5  1  0
  8  9  1  0
  8  7  1  0
 10 21  2  0
 11  9  1  0
 11 16  1  0
 12 20  1  0
 12 22  1  0
 13 19  1  0
 13 15  1  0
 14 20  1  0
 15 14  1  0
 16 15  2  0
 17 18  1  0
 17 11  2  0
 18 13  2  0
 19 12  1  0
 20 10  1  0
 22 24  2  0
 23 22  1  0
 25 23  1  0
 26 35  2  0
 26 31  1  0
 27 23  1  0
 27 31  1  0
 28 27  1  0
 29 30  1  0
 29 28  1  0
 30 26  1  0
 31 32  2  0
 32 33  1  0
 34 33  2  0
 35 34  1  0
 36 10  1  0
 36 37  1  0
 36 46  1  0
 37 40  1  0
 38 42  1  0
 38 37  1  0
 39 38  2  0
 42 41  1  0
 44 42  1  0
 44 45  1  0
 44 43  1  0
 46 49  1  1
 46 47  1  0
 48 46  1  0
 50  2  1  0
 50 56  1  0
 51 50  1  0
 52 54  1  0
 52 51  1  0
 53 51  2  0
 55 52  1  0
 56 57  1  0
 58 57  1  0
 59 64  1  0
 60 61  1  0
 60 59  1  0
 62 61  1  0
 62 69  1  0
 62 63  1  0
 64 58  1  0
 64 63  1  0
 65 58  2  0
 66 67  2  0
 67 68  1  0
 67 86  1  0
 68 71  1  0
 69 66  1  0
 69 70  1  0
 70 68  2  0
 71 72  1  0
 72 73  2  0
 74 77  1  0
 74 73  1  0
 75 74  2  0
 76 75  1  0
 76 71  2  0
 77 78  1  0
 78 79  1  0
 79 80  2  0
 81 80  1  0
 81 85  1  0
 82 81  2  0
 83 78  2  0
 83 82  1  0
 84 83  1  0
 86 87  1  0
 87 90  1  0
 87 89  1  0
 88 86  2  0
 91 92  1  0
 91 66  1  0
 93 91  1  0
M  ISO  4   8 101   9 101  57 100  58 100
M  END
>  <TORSDO>  (60) 
F 24

>  <SCORE>  (60) 
-12.591

>  <name>  (60) 
60

>  <ligand_id>  (60) 
60

>  <original_smiles>  (60) 
[H]c1c([H])c([H])c2c(c1[H])C([H])([H])C([H])([H])C([H])([H])C2([H])N([H])C(=O)C1([H])N(C(=O)C([H])(N([H])C(=O)C([H])(N([H])C([H])([H])[H])C([H])([H])[H])C(C([H])([H])[H])(C([H])([H])[H])C([H])([H])[H])C([H])([H])c2c([H])c(OC([H])([H])C([H])([H])OC([H])([H])C(=O)N([H])C([H])(C(=O)N([H])[H])C([H])([H])C([H])([H])C(=O)N3C([H])([H])C([H])([H])C([H])([H])C([H])(n4nc(-c5c([H])c([H])c(Oc6c([H])c([H])c(F)c([H])c6F)c([H])c5[H])c(C(=O)N([H])[H])c4N([H])[H])C3([H])[H])c([H])c([H])c2C1([H])[H]

>  <smiles>  (60) 
[H]c1c([H])c([H])c2c(c1[H])C([H])([H])C([H])([H])C([H])([H])C2([H])N([H])C(=O)C1([H])N(C(=O)C([H])(N([H])C(=O)C([H])(N([H])C([H])([H])[H])C([H])([H])[H])C(C([H])([H])[H])(C([H])([H])[H])C([H])([H])[H])C([H])([H])c2c([H])c(OC([H])([H])C([H])([H])OC([H])([H])C(=O)N([H])C([H])(C(=O)N([H])[H])C([H])([H])C([H])([H])C(=O)N3C([H])([H])C([H])([H])C([H])([H])C([H])(n4nc(-c5c([H])c([H])c(Oc6c([H])c([H])c(F)c([H])c6F)c([H])c5[H])c(C(=O)N([H])[H])c4N([H])[H])C3([H])[H])c([H])c([H])c2C1([H])[H]

$$$$
61:0:0
     RDKit          3D

 96105  0  0  1  0  0  0  0  0999 V2000
  -29.4750  -19.8670   21.8370 C   0  0  0  0  0  3  0  0  0  0  0  0
  -29.7280  -19.8030   20.5200 C   0  0  0  0  0  0  0  0  0  0  0  0
  -29.9600  -18.7810   22.7750 C   0  0  0  0  0  2  0  0  0  0  0  0
  -31.3970  -18.3100   22.4180 C   0  0  0  0  0  2  0  0  0  0  0  0
  -31.2550  -19.9040   17.9230 C   0  0  0  0  0  2  0  0  0  0  0  0
  -30.0350  -20.7080   17.3860 C   0  0  0  0  0  2  0  0  0  0  0  0
  -31.7980  -18.4970   20.9250 C   0  0  0  0  0  2  0  0  0  0  0  0
  -30.9700  -18.5000   18.4930 C   0  0  0  0  0  2  0  0  0  0  0  0
  -28.9570  -21.1740   18.4060 C   0  0  0  0  0  3  0  0  0  0  0  0
  -30.5710  -18.3660   19.9890 C   0  0  2  0  0  0  0  0  0  0  0  0
  -29.5790  -21.3480   19.7360 N   0  0  1  0  0  4  0  0  0  0  0  0
  -30.5250  -21.5270   19.4320 H   0  0  0  0  0  0  0  0  0  0  0  0
  -30.8870  -15.4210   19.9450 C   0  0  0  0  0  0  0  0  0  0  0  0
  -30.7200  -13.0190   18.9750 C   0  0  0  0  0  2  0  0  0  0  0  0
  -29.7480  -12.9060   17.7750 C   0  0  0  0  0  2  0  0  0  0  0  0
  -28.3120  -12.6570   18.2660 C   0  0  0  0  0  2  0  0  0  0  0  0
  -27.9410  -13.5830   19.4530 C   0  0  0  0  0  3  0  0  0  0  0  0
  -29.0390  -13.6560   20.5360 C   0  0  0  0  0  2  0  0  0  0  0  0
  -30.2590  -14.1440   19.8740 N   0  0  0  0  0  0  0  0  0  0  0  0
  -32.0830  -15.3640   19.6280 O   0  0  0  0  0  0  0  0  0  0  0  0
  -30.2100  -16.7300   20.1670 N   0  0  0  0  0  0  0  0  0  0  0  0
  -29.2430  -16.5910   20.4180 H   0  0  0  0  0  0  0  0  0  0  0  0
  -25.6140  -14.1670   20.3080 C   0  0  0  0  0  0  0  0  0  0  0  0
  -24.5510  -13.4020   20.7010 C   0  0  0  0  0  0  0  0  0  0  0  0
  -24.9900  -12.0440   20.6230 C   0  0  0  0  0  0  0  0  0  0  0  0
  -26.6290  -13.2790   20.0060 N   0  0  0  0  0  0  0  0  0  0  0  0
  -26.2690  -11.9930   20.2630 N   0  0  0  0  0  0  0  0  0  0  0  0
  -24.2460  -10.7910   20.8120 C   0  0  0  0  0  0  0  0  0  0  0  0
  -24.6650   -9.8140   21.7400 C   0  0  0  0  0  3  0  0  0  0  0  0
  -23.9180   -8.6290   21.9190 C   0  0  0  0  0  3  0  0  0  0  0  0
  -22.7370   -8.4130   21.1700 C   0  0  0  0  0  0  0  0  0  0  0  0
  -22.3370   -9.3800   20.2300 C   0  0  0  0  0  3  0  0  0  0  0  0
  -23.0840  -10.5550   20.0490 C   0  0  0  0  0  3  0  0  0  0  0  0
  -21.9630   -7.2820   21.2580 O   0  0  0  0  0  0  0  0  0  0  0  0
  -21.8630   -6.5670   22.4240 C   0  0  0  0  0  0  0  0  0  0  0  0
  -21.3960   -7.1550   23.6210 C   0  0  0  0  0  3  0  0  0  0  0  0
  -21.2430   -6.3670   24.7790 C   0  0  0  0  0  3  0  0  0  0  0  0
  -21.5460   -4.9930   24.7420 C   0  0  0  0  0  0  0  0  0  0  0  0
  -22.0060   -4.4050   23.5500 C   0  0  0  0  0  3  0  0  0  0  0  0
  -22.1600   -5.1890   22.3950 C   0  0  0  0  0  0  0  0  0  0  0  0
  -22.5830   -4.6140   21.2430 F   0  0  0  0  0  0  0  0  0  0  0  0
  -21.3920   -4.2340   25.8520 F   0  0  0  0  0  0  0  0  0  0  0  0
  -23.1750  -13.8990   21.0300 C   0  0  0  0  0  0  0  0  0  0  0  0
  -22.4690  -13.2080   21.9170 N   0  0  0  0  0  0  0  0  0  0  0  0
  -22.7370  -14.9380   20.5360 O   0  0  0  0  0  0  0  0  0  0  0  0
  -22.8390  -12.3690   22.3390 H   0  0  0  0  0  0  0  0  0  0  0  0
  -21.5460  -13.5230   22.1800 H   0  0  0  0  0  0  0  0  0  0  0  0
  -25.7940  -15.5380   20.1540 N   0  0  0  0  0  0  0  0  0  0  0  0
  -25.0400  -16.1980   20.3050 H   0  0  0  0  0  0  0  0  0  0  0  0
  -26.6260  -15.9680   19.7720 H   0  0  0  0  0  0  0  0  0  0  0  0
  -27.5200  -19.0970   17.9960 C   0  0  0  0  0  2  0  0  0  0  0  0
  -27.6640  -20.3430   18.4860 C   0  0  0  0  0  0  0  0  0  0  0  0
  -26.4920  -21.0310   19.1690 C   0  0  0  0  0  1  0  0  0  0  0  0
  -29.2610  -22.8670   20.3820 C   0  0  0  0  0  3  0  0  0  0  0  0
  -28.6840  -24.4110   19.6400 C   0  0  0  0  0  3  0  0  0  0  0  0
  -28.6660  -26.0090   20.0750 O   0  0  0  0  0  0  0  0  0  0  0  0
  -24.7430  -31.7090   23.0600 C   0  0  0  0  0  0  0  0  0  0  0  0
  -27.5970  -27.0450   19.9730 C   0  0  0  0  0  0  0  0  0  0  0  0
  -23.6470  -30.2880   21.3740 C   0  0  0  0  0  3  0  0  0  0  0  0
  -25.1990  -28.7970   19.9340 C   0  0  0  0  0  0  0  0  0  0  0  0
  -26.2000  -30.6390   21.2710 C   0  0  0  0  0  2  0  0  0  0  0  0
  -26.3520  -29.2500   20.5850 C   0  0  0  0  0  0  0  0  0  0  0  0
  -27.5420  -28.3940   20.5840 C   0  0  0  0  0  3  0  0  0  0  0  0
  -26.4110  -26.7480   19.2650 C   0  0  0  0  0  3  0  0  0  0  0  0
  -25.2520  -27.5680   19.2560 C   0  0  0  0  0  3  0  0  0  0  0  0
  -23.9310  -29.6490   19.9850 C   0  0  0  0  0  2  0  0  0  0  0  0
  -24.8820  -30.9070   21.9550 N   0  0  0  0  0  0  0  0  0  0  0  0
  -23.6330  -31.9280   23.5730 O   0  0  0  0  0  0  0  0  0  0  0  0
  -22.9960  -29.2360   22.3080 C   0  0  0  0  0  0  0  0  0  0  0  0
  -21.6720  -29.0270   22.1840 N   0  0  0  0  0  0  0  0  0  0  0  0
  -23.6880  -28.6090   23.1140 O   0  0  0  0  0  0  0  0  0  0  0  0
  -21.1620  -29.5870   21.5130 H   0  0  0  0  0  0  0  0  0  0  0  0
  -18.3350  -27.6950   22.6870 C   0  0  0  0  0  0  0  0  0  0  0  0
  -20.8890  -28.0350   22.9270 C   0  0  0  0  0  3  0  0  0  0  0  0
  -21.0280  -26.6300   22.2960 C   0  0  0  0  0  2  0  0  0  0  0  0
  -19.9240  -26.3110   21.2830 C   0  0  0  0  0  2  0  0  0  0  0  0
  -18.5470  -26.3820   21.9500 C   0  0  0  0  0  2  0  0  0  0  0  0
  -19.4350  -28.4770   23.1320 C   0  0  0  0  0  0  0  0  0  0  0  0
  -19.1800  -29.7030   23.7850 C   0  0  0  0  0  3  0  0  0  0  0  0
  -17.8610  -30.1490   23.9940 C   0  0  0  0  0  3  0  0  0  0  0  0
  -16.7770  -29.3640   23.5610 C   0  0  0  0  0  3  0  0  0  0  0  0
  -17.0150  -28.1380   22.9150 C   0  0  0  0  0  3  0  0  0  0  0  0
  -25.9690  -32.4050   23.7240 C   0  0  0  0  0  3  0  0  0  0  0  0
  -26.4950  -31.6450   25.0050 C   0  0  1  0  0  0  0  0  0  0  0  0
  -25.3940  -31.3420   26.0480 C   0  0  0  0  0  1  0  0  0  0  0  0
  -27.1530  -30.3000   24.6200 C   0  0  0  0  0  1  0  0  0  0  0  0
  -27.5910  -32.4860   25.7000 C   0  0  0  0  0  1  0  0  0  0  0  0
  -25.5740  -33.7800   24.0790 N   0  0  0  0  0  0  0  0  0  0  0  0
  -25.8620  -34.8730   23.3610 C   0  0  0  0  0  0  0  0  0  0  0  0
  -26.5520  -34.8340   22.3380 O   0  0  0  0  0  0  0  0  0  0  0  0
  -24.9610  -33.8800   24.8750 H   0  0  0  0  0  0  0  0  0  0  0  0
  -24.0420  -36.5850   23.0470 C   0  0  0  0  0  1  0  0  0  0  0  0
  -25.3000  -36.2220   23.8510 C   0  0  0  0  0  3  0  0  0  0  0  0
  -27.3770  -37.2090   24.7180 C   0  0  0  0  0  1  0  0  0  0  0  0
  -26.2740  -37.3330   23.7690 N   0  0  0  0  0  0  0  0  0  0  0  0
  -25.8160  -38.2270   23.9300 H   0  0  0  0  0  0  0  0  0  0  0  0
  1  3  1  0
  2  1  2  0
  4  3  1  0
  5  8  1  0
  6  5  1  0
  6  9  1  0
  7  4  1  0
  8 10  1  0
  9 52  1  0
  9 11  1  0
 10 21  1  6
 10  2  1  0
 10  7  1  0
 11 54  1  0
 11  2  1  0
 11 12  1  6
 13 21  1  0
 14 19  1  0
 15 16  1  0
 15 14  1  0
 17 16  1  0
 17 26  1  0
 17 18  1  0
 19 13  1  0
 19 18  1  0
 20 13  2  0
 21 22  1  0
 23 24  2  0
 24 43  1  0
 25 24  1  0
 25 28  1  0
 26 27  1  0
 26 23  1  0
 27 25  2  0
 28 29  1  0
 29 30  2  0
 31 34  1  0
 31 30  1  0
 32 31  2  0
 33 32  1  0
 33 28  2  0
 34 35  1  0
 35 36  1  0
 36 37  2  0
 38 37  1  0
 38 42  1  0
 39 38  2  0
 40 35  2  0
 40 39  1  0
 41 40  1  0
 43 44  1  0
 44 47  1  0
 44 46  1  0
 45 43  2  0
 48 49  1  0
 48 23  1  0
 50 48  1  0
 51 52  2  0
 52 53  1  0
 55 56  1  0
 55 54  2  0
 57 68  2  0
 58 56  1  0
 58 63  1  0
 59 67  1  0
 59 69  1  0
 60 66  1  0
 60 62  1  0
 61 67  1  0
 62 61  1  0
 63 62  2  0
 64 58  2  0
 65 64  1  0
 65 60  2  0
 66 59  1  0
 67 57  1  0
 69 71  2  0
 70 69  1  0
 72 70  1  0
 73 82  2  0
 73 78  1  0
 74 70  1  0
 74 78  1  0
 75 74  1  0
 76 77  1  0
 76 75  1  0
 77 73  1  0
 78 79  2  0
 79 80  1  0
 81 80  2  0
 82 81  1  0
 83 57  1  0
 83 88  1  0
 83 84  1  0
 84 87  1  1
 84 85  1  0
 86 84  1  0
 88 91  1  0
 89 93  1  0
 89 88  1  0
 90 89  2  0
 93 92  1  0
 95 93  1  0
 95 96  1  0
 95 94  1  0
M  ISO  4  13 100  21 100  55 101  56 101
M  END
>  <TORSDO>  (61) 
F 19

>  <SCORE>  (61) 
-13.296

>  <name>  (61) 
61

>  <ligand_id>  (61) 
61

>  <original_smiles>  (61) 
[H]C([H])=C(C([H])([H])[H])C1([H])C([H])([H])C([H])([H])C([H])([H])C2(N([H])C(=O)N3C([H])([H])C([H])([H])C([H])([H])C([H])(n4nc(-c5c([H])c([H])c(Oc6c([H])c([H])c(F)c([H])c6F)c([H])c5[H])c(C(=O)N([H])[H])c4N([H])[H])C3([H])[H])C(=C([H])C([H])([H])C([H])([H])C2([H])[H])[N+]1([H])C([H])([H])C([H])([H])Oc1c([H])c([H])c2c(c1[H])C([H])([H])N(C(=O)C([H])(N([H])C(=O)C([H])(N([H])C([H])([H])[H])C([H])([H])[H])C(C([H])([H])[H])(C([H])([H])[H])C([H])([H])[H])C([H])(C(=O)N([H])C1([H])c3c([H])c([H])c([H])c([H])c3C([H])([H])C([H])([H])C1([H])[H])C2([H])[H]

>  <smiles>  (61) 
[H]C([H])=C(C([H])([H])[H])C1([H])C([H])([H])C([H])([H])C([H])([H])C2(N([H])C(=O)N3C([H])([H])C([H])([H])C([H])([H])C([H])(n4nc(-c5c([H])c([H])c(Oc6c([H])c([H])c(F)c([H])c6F)c([H])c5[H])c(C(=O)N([H])[H])c4N([H])[H])C3([H])[H])C(=C([H])C([H])([H])C([H])([H])C2([H])[H])[N+]1([H])C([H])([H])C([H])([H])Oc1c([H])c([H])c2c(c1[H])C([H])([H])N(C(=O)C([H])(N([H])C(=O)C([H])(N([H])C([H])([H])[H])C([H])([H])[H])C(C([H])([H])[H])(C([H])([H])[H])C([H])([H])[H])C([H])(C(=O)N([H])C1([H])c3c([H])c([H])c([H])c([H])c3C([H])([H])C([H])([H])C1([H])[H])C2([H])[H]

$$$$
62:0:0
     RDKit          3D

 94101  0  0  1  0  0  0  0  0999 V2000
  -30.2260  -20.6840   21.3440 C   0  0  0  0  0  2  0  0  0  0  0  0
  -29.6630  -19.2540   21.0330 C   0  0  0  0  0  2  0  0  0  0  0  0
  -30.5970  -17.9710   21.0210 C   0  0  0  0  0  2  0  0  0  0  0  0
  -29.8000  -16.6120   21.1670 C   0  0  0  0  0  3  0  0  0  0  0  0
  -30.7820  -14.5010   20.0360 C   0  0  0  0  0  0  0  0  0  0  0  0
  -30.3960  -12.3120   18.9200 C   0  0  0  0  0  2  0  0  0  0  0  0
  -29.3940  -12.4280   17.7530 C   0  0  0  0  0  2  0  0  0  0  0  0
  -27.9550  -12.2370   18.2600 C   0  0  0  0  0  2  0  0  0  0  0  0
  -27.6450  -13.1300   19.4870 C   0  0  0  0  0  3  0  0  0  0  0  0
  -28.7610  -13.0250   20.5630 C   0  0  0  0  0  2  0  0  0  0  0  0
  -30.0640  -13.3330   19.9400 N   0  0  0  0  0  0  0  0  0  0  0  0
  -31.7530  -14.7230   19.3130 O   0  0  0  0  0  0  0  0  0  0  0  0
  -30.5620  -15.3260   21.0910 N   0  0  0  0  0  0  0  0  0  0  0  0
  -31.4010  -15.3980   21.6470 H   0  0  0  0  0  0  0  0  0  0  0  0
  -25.2670  -13.7290   20.2880 C   0  0  0  0  0  0  0  0  0  0  0  0
  -24.2340  -12.9620   20.7480 C   0  0  0  0  0  0  0  0  0  0  0  0
  -24.6980  -11.6150   20.6950 C   0  0  0  0  0  0  0  0  0  0  0  0
  -26.3160  -12.8560   20.0320 N   0  0  0  0  0  0  0  0  0  0  0  0
  -25.9720  -11.5760   20.3230 N   0  0  0  0  0  0  0  0  0  0  0  0
  -23.9780  -10.3560   20.9110 C   0  0  0  0  0  0  0  0  0  0  0  0
  -24.4340   -9.3970   21.8410 C   0  0  0  0  0  3  0  0  0  0  0  0
  -23.7110   -8.2020   22.0460 C   0  0  0  0  0  3  0  0  0  0  0  0
  -22.5210   -7.9600   21.3230 C   0  0  0  0  0  0  0  0  0  0  0  0
  -22.0810   -8.9090   20.3840 C   0  0  0  0  0  3  0  0  0  0  0  0
  -22.8040  -10.0950   20.1760 C   0  0  0  0  0  3  0  0  0  0  0  0
  -21.7680   -6.8160   21.4410 O   0  0  0  0  0  0  0  0  0  0  0  0
  -21.7180   -6.1090   22.6150 C   0  0  0  0  0  0  0  0  0  0  0  0
  -21.2840   -6.6990   23.8220 C   0  0  0  0  0  3  0  0  0  0  0  0
  -21.1870   -5.9160   24.9900 C   0  0  0  0  0  3  0  0  0  0  0  0
  -21.5100   -4.5460   24.9500 C   0  0  0  0  0  0  0  0  0  0  0  0
  -21.9380   -3.9580   23.7470 C   0  0  0  0  0  3  0  0  0  0  0  0
  -22.0410   -4.7370   22.5820 C   0  0  0  0  0  0  0  0  0  0  0  0
  -22.4330   -4.1620   21.4200 F   0  0  0  0  0  0  0  0  0  0  0  0
  -21.4060   -3.7940   26.0700 F   0  0  0  0  0  0  0  0  0  0  0  0
  -22.8580  -13.4460   21.0970 C   0  0  0  0  0  0  0  0  0  0  0  0
  -22.1820  -12.7650   22.0170 N   0  0  0  0  0  0  0  0  0  0  0  0
  -22.3930  -14.4650   20.5900 O   0  0  0  0  0  0  0  0  0  0  0  0
  -22.5710  -11.9410   22.4490 H   0  0  0  0  0  0  0  0  0  0  0  0
  -21.2620  -13.0760   22.2950 H   0  0  0  0  0  0  0  0  0  0  0  0
  -25.3580  -15.0880   20.0190 N   0  0  0  0  0  0  0  0  0  0  0  0
  -24.4520  -15.5470   19.9770 H   0  0  0  0  0  0  0  0  0  0  0  0
  -25.9240  -15.3170   19.2080 H   0  0  0  0  0  0  0  0  0  0  0  0
  -28.6610  -16.5710   20.1600 C   0  0  0  0  0  0  0  0  0  0  0  0
  -27.4760  -16.2830   20.6600 N   0  0  0  0  0  0  0  0  0  0  0  0
  -28.8530  -16.7670   18.9610 O   0  0  0  0  0  0  0  0  0  0  0  0
  -27.3530  -16.1360   21.6500 H   0  0  0  0  0  0  0  0  0  0  0  0
  -26.7040  -16.0660   20.0160 H   0  0  0  0  0  0  0  0  0  0  0  0
  -29.4580  -21.8570   20.6200 C   0  0  0  0  0  2  0  0  0  0  0  0
  -29.5740  -23.2030   21.2260 N   0  0  0  0  0  4  0  0  0  0  0  0
  -29.1060  -23.1910   22.1210 H   0  0  0  0  0  0  0  0  0  0  0  0
  -30.5380  -23.3910   21.4500 H   0  0  0  0  0  0  0  0  0  0  0  0
  -29.0360  -24.2960   20.3700 C   0  0  0  0  0  2  0  0  0  0  0  0
  -28.8650  -25.6760   21.1040 C   0  0  0  0  0  2  0  0  0  0  0  0
  -28.7020  -26.8200   20.2280 O   0  0  0  0  0  0  0  0  0  0  0  0
  -24.6870  -31.9570   23.2410 C   0  0  0  0  0  0  0  0  0  0  0  0
  -27.5080  -27.5230   20.2780 C   0  0  0  0  0  0  0  0  0  0  0  0
  -23.5470  -30.5070   21.5920 C   0  0  0  0  0  3  0  0  0  0  0  0
  -25.0700  -28.9800   20.2200 C   0  0  0  0  0  0  0  0  0  0  0  0
  -26.0670  -30.9220   21.4360 C   0  0  0  0  0  2  0  0  0  0  0  0
  -26.2030  -29.5400   20.8230 C   0  0  0  0  0  0  0  0  0  0  0  0
  -27.4260  -28.8200   20.8470 C   0  0  0  0  0  3  0  0  0  0  0  0
  -26.3580  -26.9820   19.6670 C   0  0  0  0  0  3  0  0  0  0  0  0
  -25.1420  -27.6990   19.6410 C   0  0  0  0  0  3  0  0  0  0  0  0
  -23.8030  -29.8100   20.2270 C   0  0  0  0  0  2  0  0  0  0  0  0
  -24.7830  -31.1490   22.1470 N   0  0  0  0  0  0  0  0  0  0  0  0
  -23.5890  -32.2080   23.7590 O   0  0  0  0  0  0  0  0  0  0  0  0
  -22.9010  -29.4850   22.5530 C   0  0  0  0  0  0  0  0  0  0  0  0
  -21.5780  -29.2920   22.4220 N   0  0  0  0  0  0  0  0  0  0  0  0
  -23.5890  -28.8650   23.3700 O   0  0  0  0  0  0  0  0  0  0  0  0
  -21.0910  -29.8430   21.7310 H   0  0  0  0  0  0  0  0  0  0  0  0
  -18.2080  -28.0960   22.9420 C   0  0  0  0  0  0  0  0  0  0  0  0
  -20.7670  -28.3480   23.1920 C   0  0  0  0  0  3  0  0  0  0  0  0
  -20.8620  -26.9230   22.6020 C   0  0  0  0  0  2  0  0  0  0  0  0
  -19.7530  -26.6160   21.5900 C   0  0  0  0  0  2  0  0  0  0  0  0
  -18.3750  -26.7560   22.2440 C   0  0  0  0  0  2  0  0  0  0  0  0
  -19.3320  -28.8510   23.3720 C   0  0  0  0  0  0  0  0  0  0  0  0
  -19.1220  -30.1050   23.9820 C   0  0  0  0  0  3  0  0  0  0  0  0
  -17.8200  -30.6060   24.1690 C   0  0  0  0  0  3  0  0  0  0  0  0
  -16.7100  -29.8500   23.7570 C   0  0  0  0  0  3  0  0  0  0  0  0
  -16.9040  -28.5970   23.1470 C   0  0  0  0  0  3  0  0  0  0  0  0
  -25.9460  -32.6260   23.8770 C   0  0  0  0  0  3  0  0  0  0  0  0
  -25.6040  -34.0220   24.1770 N   0  0  0  0  0  0  0  0  0  0  0  0
  -25.9160  -35.0660   23.3950 C   0  0  0  0  0  0  0  0  0  0  0  0
  -26.5920  -34.9550   22.3690 O   0  0  0  0  0  0  0  0  0  0  0  0
  -25.0010  -34.1800   24.9710 H   0  0  0  0  0  0  0  0  0  0  0  0
  -24.1360  -36.7990   23.0030 C   0  0  0  0  0  1  0  0  0  0  0  0
  -25.3930  -36.4500   23.8160 C   0  0  0  0  0  3  0  0  0  0  0  0
  -27.5050  -37.4180   24.6130 C   0  0  0  0  0  1  0  0  0  0  0  0
  -26.3960  -37.5270   23.6680 N   0  0  0  0  0  0  0  0  0  0  0  0
  -25.9640  -38.4400   23.7910 H   0  0  0  0  0  0  0  0  0  0  0  0
  -26.4520  -31.8870   25.1770 C   0  0  1  0  0  0  0  0  0  0  0  0
  -25.3420  -31.6390   26.2260 C   0  0  0  0  0  1  0  0  0  0  0  0
  -27.0750  -30.5180   24.8180 C   0  0  0  0  0  1  0  0  0  0  0  0
  -27.5680  -32.7200   25.8500 C   0  0  0  0  0  1  0  0  0  0  0  0
  2  1  1  0
  3  2  1  0
  4  3  1  0
  5 13  1  0
  6 11  1  0
  7  8  1  0
  7  6  1  0
  9  8  1  0
  9 18  1  0
  9 10  1  0
 11  5  1  0
 11 10  1  0
 12  5  2  0
 13  4  1  0
 13 14  1  0
 15 16  2  0
 16 35  1  0
 17 16  1  0
 17 20  1  0
 18 15  1  0
 18 19  1  0
 19 17  2  0
 20 21  1  0
 21 22  2  0
 23 26  1  0
 23 22  1  0
 24 23  2  0
 25 24  1  0
 25 20  2  0
 26 27  1  0
 27 28  1  0
 28 29  2  0
 30 29  1  0
 30 34  1  0
 31 30  2  0
 32 27  2  0
 32 31  1  0
 33 32  1  0
 35 36  1  0
 36 39  1  0
 36 38  1  0
 37 35  2  0
 40 15  1  0
 41 40  1  0
 42 40  1  0
 43 44  1  0
 43  4  1  0
 44 46  1  0
 45 43  2  0
 47 44  1  0
 48 49  1  0
 48  1  1  0
 49 51  1  0
 49 50  1  0
 52 53  1  0
 52 49  1  0
 54 56  1  0
 54 53  1  0
 55 66  2  0
 56 61  1  0
 57 65  1  0
 57 67  1  0
 58 64  1  0
 58 60  1  0
 59 65  1  0
 60 61  2  0
 60 59  1  0
 62 56  2  0
 63 62  1  0
 63 58  2  0
 64 57  1  0
 65 55  1  0
 67 69  2  0
 68 67  1  0
 70 68  1  0
 71 80  2  0
 71 76  1  0
 72 68  1  0
 72 76  1  0
 73 72  1  0
 74 75  1  0
 74 73  1  0
 75 71  1  0
 76 77  2  0
 77 78  1  0
 79 78  2  0
 80 79  1  0
 81 55  1  0
 81 82  1  0
 81 91  1  0
 82 85  1  0
 83 87  1  0
 83 82  1  0
 84 83  2  0
 87 86  1  0
 89 90  1  0
 89 87  1  0
 89 88  1  0
 91 94  1  1
 91 92  1  0
 93 91  1  0
M  ISO  4   5 100  13 100  53 101  54 101
M  END
>  <TORSDO>  (62) 
F 24

>  <SCORE>  (62) 
-12.053

>  <name>  (62) 
62

>  <ligand_id>  (62) 
62

>  <original_smiles>  (62) 
[H]c1c([H])c([H])c2c(c1[H])C([H])([H])C([H])([H])C([H])([H])C2([H])N([H])C(=O)C1([H])N(C(=O)C([H])(N([H])C(=O)C([H])(N([H])C([H])([H])[H])C([H])([H])[H])C(C([H])([H])[H])(C([H])([H])[H])C([H])([H])[H])C([H])([H])c2c([H])c(OC([H])([H])C([H])([H])[N+]([H])([H])C([H])([H])C([H])([H])C([H])([H])C([H])([H])C([H])(C(=O)N([H])[H])N([H])C(=O)N3C([H])([H])C([H])([H])C([H])([H])C([H])(n4nc(-c5c([H])c([H])c(Oc6c([H])c([H])c(F)c([H])c6F)c([H])c5[H])c(C(=O)N([H])[H])c4N([H])[H])C3([H])[H])c([H])c([H])c2C1([H])[H]

>  <smiles>  (62) 
[H]c1c([H])c([H])c2c(c1[H])C([H])([H])C([H])([H])C([H])([H])C2([H])N([H])C(=O)C1([H])N(C(=O)C([H])(N([H])C(=O)C([H])(N([H])C([H])([H])[H])C([H])([H])[H])C(C([H])([H])[H])(C([H])([H])[H])C([H])([H])[H])C([H])([H])c2c([H])c(OC([H])([H])C([H])([H])[N+]([H])([H])C([H])([H])C([H])([H])C([H])([H])C([H])([H])C([H])(C(=O)N([H])[H])N([H])C(=O)N3C([H])([H])C([H])([H])C([H])([H])C([H])(n4nc(-c5c([H])c([H])c(Oc6c([H])c([H])c(F)c([H])c6F)c([H])c5[H])c(C(=O)N([H])[H])c4N([H])[H])C3([H])[H])c([H])c([H])c2C1([H])[H]

$$$$
63:0:0
     RDKit          3D

 92 99  0  0  1  0  0  0  0  0999 V2000
  -29.5110  -19.1310   20.6400 C   0  0  0  0  0  0  0  0  0  0  0  0
  -29.2230  -20.4260   20.1010 N   0  0  0  0  0  0  0  0  0  0  0  0
  -29.5240  -19.0200   21.8660 O   0  0  0  0  0  0  0  0  0  0  0  0
  -29.2010  -20.4450   19.0890 H   0  0  0  0  0  0  0  0  0  0  0  0
  -28.7350  -21.7890   20.7640 C   0  0  0  0  0  2  0  0  0  0  0  0
  -28.8770  -23.3500   20.1170 C   0  0  0  0  0  3  0  0  0  0  0  0
  -28.1300  -24.7540   20.7170 C   0  0  0  0  0  3  0  0  0  0  0  0
  -28.3650  -26.2520   20.3430 O   0  0  0  0  0  0  0  0  0  0  0  0
  -24.6050  -31.9200   23.1980 C   0  0  0  0  0  0  0  0  0  0  0  0
  -27.2930  -27.2170   20.2870 C   0  0  0  0  0  0  0  0  0  0  0  0
  -23.4660  -30.5190   21.5230 C   0  0  0  0  0  3  0  0  0  0  0  0
  -24.9690  -28.9540   20.1390 C   0  0  0  0  0  0  0  0  0  0  0  0
  -26.0220  -30.7990   21.4330 C   0  0  0  0  0  2  0  0  0  0  0  0
  -26.1200  -29.4060   20.7950 C   0  0  0  0  0  0  0  0  0  0  0  0
  -27.2920  -28.5580   20.8430 C   0  0  0  0  0  3  0  0  0  0  0  0
  -26.1190  -26.8580   19.5960 C   0  0  0  0  0  3  0  0  0  0  0  0
  -24.9830  -27.6960   19.5160 C   0  0  0  0  0  3  0  0  0  0  0  0
  -23.7310  -29.8420   20.1500 C   0  0  0  0  0  2  0  0  0  0  0  0
  -24.7170  -31.1030   22.1060 N   0  0  0  0  0  0  0  0  0  0  0  0
  -23.5000  -32.1920   23.6940 O   0  0  0  0  0  0  0  0  0  0  0  0
  -22.7700  -29.5030   22.4660 C   0  0  0  0  0  0  0  0  0  0  0  0
  -21.4450  -29.3300   22.3160 N   0  0  0  0  0  0  0  0  0  0  0  0
  -23.4250  -28.8670   23.2960 O   0  0  0  0  0  0  0  0  0  0  0  0
  -20.9690  -29.9040   21.6340 H   0  0  0  0  0  0  0  0  0  0  0  0
  -18.0410  -28.1730   22.7860 C   0  0  0  0  0  0  0  0  0  0  0  0
  -20.6060  -28.3880   23.0630 C   0  0  0  0  0  3  0  0  0  0  0  0
  -20.6810  -26.9640   22.4590 C   0  0  0  0  0  2  0  0  0  0  0  0
  -19.5750  -26.6820   21.4370 C   0  0  0  0  0  2  0  0  0  0  0  0
  -18.1940  -26.8380   22.0800 C   0  0  0  0  0  2  0  0  0  0  0  0
  -19.1720  -28.9100   23.2340 C   0  0  0  0  0  0  0  0  0  0  0  0
  -18.9700  -30.1640   23.8500 C   0  0  0  0  0  3  0  0  0  0  0  0
  -17.6710  -30.6790   24.0220 C   0  0  0  0  0  3  0  0  0  0  0  0
  -16.5560  -29.9410   23.5860 C   0  0  0  0  0  3  0  0  0  0  0  0
  -16.7440  -28.6900   22.9750 C   0  0  0  0  0  3  0  0  0  0  0  0
  -25.8570  -32.5670   23.8650 C   0  0  0  0  0  3  0  0  0  0  0  0
  -25.5310  -33.9680   24.1680 N   0  0  0  0  0  0  0  0  0  0  0  0
  -25.8880  -35.0190   23.4160 C   0  0  0  0  0  0  0  0  0  0  0  0
  -26.5940  -34.9100   22.4100 O   0  0  0  0  0  0  0  0  0  0  0  0
  -24.9130  -34.1260   24.9510 H   0  0  0  0  0  0  0  0  0  0  0  0
  -24.1850  -36.8180   22.9790 C   0  0  0  0  0  1  0  0  0  0  0  0
  -25.3830  -36.4080   23.8490 C   0  0  0  0  0  3  0  0  0  0  0  0
  -27.4750  -37.3000   24.7780 C   0  0  0  0  0  1  0  0  0  0  0  0
  -26.4210  -37.4600   23.7800 N   0  0  0  0  0  0  0  0  0  0  0  0
  -26.0070  -38.3820   23.8930 H   0  0  0  0  0  0  0  0  0  0  0  0
  -26.3180  -31.8170   25.1750 C   0  0  1  0  0  0  0  0  0  0  0  0
  -25.1870  -31.5910   26.2030 C   0  0  0  0  0  1  0  0  0  0  0  0
  -26.9190  -30.4360   24.8250 C   0  0  0  0  0  1  0  0  0  0  0  0
  -27.4300  -32.6300   25.8770 C   0  0  0  0  0  1  0  0  0  0  0  0
  -29.7370  -17.7110   19.7970 C   0  0  0  0  0  0  0  0  0  0  0  0
  -30.5960  -15.0600   20.1170 C   0  0  0  0  0  0  0  0  0  0  0  0
  -30.4580  -12.7080   19.1820 C   0  0  0  0  0  2  0  0  0  0  0  0
  -29.5050  -12.7310   17.9660 C   0  0  0  0  0  2  0  0  0  0  0  0
  -28.0470  -12.5300   18.4230 C   0  0  0  0  0  2  0  0  0  0  0  0
  -27.6830  -13.3940   19.6630 C   0  0  0  0  0  3  0  0  0  0  0  0
  -28.7740  -13.3540   20.7530 C   0  0  0  0  0  2  0  0  0  0  0  0
  -30.0320  -13.7810   20.1270 N   0  0  0  0  0  0  0  0  0  0  0  0
  -31.7590  -15.1550   19.7180 O   0  0  0  0  0  0  0  0  0  0  0  0
  -29.7980  -16.2130   20.3420 N   0  0  0  0  0  4  0  0  0  0  0  0
  -28.9260  -15.9730   20.7900 H   0  0  0  0  0  0  0  0  0  0  0  0
  -25.3130  -13.9390   20.4610 C   0  0  0  0  0  0  0  0  0  0  0  0
  -24.2670  -13.1520   20.8500 C   0  0  0  0  0  0  0  0  0  0  0  0
  -24.7390  -11.8060   20.7870 C   0  0  0  0  0  0  0  0  0  0  0  0
  -26.3580  -13.0750   20.1840 N   0  0  0  0  0  0  0  0  0  0  0  0
  -26.0210  -11.7840   20.4430 N   0  0  0  0  0  0  0  0  0  0  0  0
  -24.0240  -10.5360   20.9740 C   0  0  0  0  0  0  0  0  0  0  0  0
  -24.4660   -9.5680   21.9020 C   0  0  0  0  0  3  0  0  0  0  0  0
  -23.7440   -8.3660   22.0820 C   0  0  0  0  0  3  0  0  0  0  0  0
  -22.5660   -8.1260   21.3380 C   0  0  0  0  0  0  0  0  0  0  0  0
  -22.1460   -9.0800   20.3980 C   0  0  0  0  0  3  0  0  0  0  0  0
  -22.8660  -10.2740   20.2150 C   0  0  0  0  0  3  0  0  0  0  0  0
  -21.8150   -6.9780   21.4260 O   0  0  0  0  0  0  0  0  0  0  0  0
  -21.7550   -6.2430   22.5820 C   0  0  0  0  0  0  0  0  0  0  0  0
  -21.2810   -6.7960   23.7940 C   0  0  0  0  0  3  0  0  0  0  0  0
  -21.1800   -5.9890   24.9430 C   0  0  0  0  0  3  0  0  0  0  0  0
  -21.5360   -4.6280   24.8830 C   0  0  0  0  0  0  0  0  0  0  0  0
  -22.0000   -4.0740   23.6780 C   0  0  0  0  0  3  0  0  0  0  0  0
  -22.1070   -4.8790   22.5310 C   0  0  0  0  0  0  0  0  0  0  0  0
  -22.5370   -4.3350   21.3660 F   0  0  0  0  0  0  0  0  0  0  0  0
  -21.4290   -3.8500   25.9860 F   0  0  0  0  0  0  0  0  0  0  0  0
  -22.8760  -13.6160   21.1690 C   0  0  0  0  0  0  0  0  0  0  0  0
  -22.1690  -12.8990   22.0360 N   0  0  0  0  0  0  0  0  0  0  0  0
  -22.4250  -14.6480   20.6760 O   0  0  0  0  0  0  0  0  0  0  0  0
  -22.5510  -12.0660   22.4580 H   0  0  0  0  0  0  0  0  0  0  0  0
  -21.2320  -13.1870   22.2840 H   0  0  0  0  0  0  0  0  0  0  0  0
  -25.4620  -15.3120   20.2910 N   0  0  0  0  0  0  0  0  0  0  0  0
  -24.6830  -15.9550   20.4100 H   0  0  0  0  0  0  0  0  0  0  0  0
  -26.2790  -15.7570   19.8920 H   0  0  0  0  0  0  0  0  0  0  0  0
  -30.6430  -17.9950   18.5730 C   0  0  0  0  0  0  0  0  0  0  0  0
  -32.6480  -18.9960   17.5620 C   0  0  0  0  0  1  0  0  0  0  0  0
  -32.7190  -18.3500   19.9390 C   0  0  0  0  0  1  0  0  0  0  0  0
  -31.9220  -18.4330   18.7080 N   0  0  0  0  0  0  0  0  0  0  0  0
  -30.1330  -17.8510   17.4560 O   0  0  0  0  0  0  0  0  0  0  0  0
  1  3  2  0
  2  1  1  0
  2  5  1  0
  4  2  1  0
  6  7  2  0
  6  5  1  0
  8  7  1  0
  9 20  2  0
 10  8  1  0
 10 15  1  0
 11 19  1  0
 11 21  1  0
 12 18  1  0
 12 14  1  0
 13 19  1  0
 14 15  2  0
 14 13  1  0
 16 10  2  0
 17 16  1  0
 17 12  2  0
 18 11  1  0
 19  9  1  0
 21 23  2  0
 22 21  1  0
 24 22  1  0
 25 34  2  0
 25 30  1  0
 26 22  1  0
 26 30  1  0
 27 26  1  0
 28 29  1  0
 28 27  1  0
 29 25  1  0
 30 31  2  0
 31 32  1  0
 33 32  2  0
 34 33  1  0
 35  9  1  0
 35 36  1  0
 35 45  1  0
 36 39  1  0
 37 41  1  0
 37 36  1  0
 38 37  2  0
 41 40  1  0
 43 41  1  0
 43 44  1  0
 43 42  1  0
 45 48  1  1
 45 46  1  0
 47 45  1  0
 49 58  2  0
 49  1  1  0
 50 56  1  0
 50 58  1  0
 51 56  1  0
 52 53  1  0
 52 51  1  0
 54 53  1  0
 54 63  1  0
 54 55  1  0
 56 55  1  0
 57 50  2  0
 58 59  1  0
 60 61  2  0
 61 80  1  0
 62 61  1  0
 62 65  1  0
 63 64  1  0
 63 60  1  0
 64 62  2  0
 65 66  1  0
 66 67  2  0
 68 71  1  0
 68 67  1  0
 69 68  2  0
 70 69  1  0
 70 65  2  0
 71 72  1  0
 72 73  1  0
 73 74  2  0
 75 74  1  0
 75 79  1  0
 76 75  2  0
 77 72  2  0
 77 76  1  0
 78 77  1  0
 80 81  1  0
 81 84  1  0
 81 83  1  0
 82 80  2  0
 85 86  1  0
 85 60  1  0
 87 85  1  0
 88 91  1  0
 88 49  1  0
 89 91  1  0
 91 90  1  0
 92 88  2  0
M  ISO  4   7 101   8 101  50 100  58 100
M  END
>  <TORSDO>  (63) 
F 21

>  <SCORE>  (63) 
-14.055

>  <name>  (63) 
63

>  <ligand_id>  (63) 
63

>  <original_smiles>  (63) 
[H]c1c([H])c([H])c2c(c1[H])C([H])([H])C([H])([H])C([H])([H])C2([H])N([H])C(=O)C1([H])N(C(=O)C([H])(N([H])C(=O)C([H])(N([H])C([H])([H])[H])C([H])([H])[H])C(C([H])([H])[H])(C([H])([H])[H])C([H])([H])[H])C([H])([H])c2c([H])c(OC([H])([H])C([H])([H])C([H])([H])N([H])C(=O)C([H])(C(=O)N(C([H])([H])[H])C([H])([H])[H])N([H])C(=O)N3C([H])([H])C([H])([H])C([H])([H])C([H])(n4nc(-c5c([H])c([H])c(Oc6c([H])c([H])c(F)c([H])c6F)c([H])c5[H])c(C(=O)N([H])[H])c4N([H])[H])C3([H])[H])c([H])c([H])c2C1([H])[H]

>  <smiles>  (63) 
[H]c1c([H])c([H])c2c(c1[H])C([H])([H])C([H])([H])C([H])([H])C2([H])N([H])C(=O)C1([H])N(C(=O)C([H])(N([H])C(=O)C([H])(N([H])C([H])([H])[H])C([H])([H])[H])C(C([H])([H])[H])(C([H])([H])[H])C([H])([H])[H])C([H])([H])c2c([H])c(OC([H])([H])C([H])([H])C([H])([H])N([H])C(=O)C([H])(C(=O)N(C([H])([H])[H])C([H])([H])[H])N([H])C(=O)N3C([H])([H])C([H])([H])C([H])([H])C([H])(n4nc(-c5c([H])c([H])c(Oc6c([H])c([H])c(F)c([H])c6F)c([H])c5[H])c(C(=O)N([H])[H])c4N([H])[H])C3([H])[H])c([H])c([H])c2C1([H])[H]

$$$$
64:0:0
     RDKit          3D

105113  0  0  1  0  0  0  0  0999 V2000
  -29.0450  -21.1740   22.5250 N   0  0  0  0  0  4  0  0  0  0  0  0
  -29.3590  -21.2420   23.4810 H   0  0  0  0  0  0  0  0  0  0  0  0
  -28.0750  -20.9130   22.5750 H   0  0  0  0  0  0  0  0  0  0  0  0
  -29.1280  -22.5230   21.9080 C   0  0  0  0  0  2  0  0  0  0  0  0
  -30.0000  -22.8180   19.5300 C   0  0  0  0  0  3  0  0  0  0  0  0
  -31.6070  -22.9410   21.2790 C   0  0  0  0  0  3  0  0  0  0  0  0
  -30.2670  -22.7430   20.9060 C   0  0  0  0  0  0  0  0  0  0  0  0
  -32.2020  -23.1710   19.0900 C   0  0  0  0  0  0  0  0  0  0  0  0
  -30.9780  -23.0170   18.6280 N   0  0  0  0  0  0  0  0  0  0  0  0
  -32.5740  -23.1350   20.3610 N   0  0  0  0  0  0  0  0  0  0  0  0
  -33.1380  -23.4330   18.1260 N   0  0  0  0  0  0  0  0  0  0  0  0
  -32.7910  -23.4190   17.1760 H   0  0  0  0  0  0  0  0  0  0  0  0
  -34.5050  -23.9010   18.3320 C   0  0  0  0  0  2  0  0  0  0  0  0
  -34.6440  -24.9760   19.4280 C   0  0  0  0  0  2  0  0  0  0  0  0
  -34.4660  -26.2750   18.8730 O   0  0  0  0  0  0  0  0  0  0  0  0
  -29.1080  -28.8740   22.6990 C   0  0  0  0  0  0  0  0  0  0  0  0
  -33.1660  -26.7120   18.8600 C   0  0  0  0  0  0  0  0  0  0  0  0
  -28.5260  -28.1710   20.3970 C   0  0  0  0  0  3  0  0  0  0  0  0
  -30.5070  -27.6440   18.8750 C   0  0  0  0  0  0  0  0  0  0  0  0
  -30.8880  -28.9640   20.9660 C   0  0  0  0  0  2  0  0  0  0  0  0
  -31.3960  -28.0430   19.8790 C   0  0  0  0  0  0  0  0  0  0  0  0
  -32.7300  -27.5890   19.8710 C   0  0  0  0  0  3  0  0  0  0  0  0
  -32.2620  -26.3000   17.8560 C   0  0  0  0  0  3  0  0  0  0  0  0
  -30.9330  -26.7670   17.8600 C   0  0  0  0  0  3  0  0  0  0  0  0
  -29.1000  -28.1970   18.9530 C   0  0  0  0  0  2  0  0  0  0  0  0
  -29.5110  -28.6570   21.4160 N   0  0  0  0  0  0  0  0  0  0  0  0
  -27.9250  -28.7170   23.0320 O   0  0  0  0  0  0  0  0  0  0  0  0
  -27.9940  -26.7490   20.6880 C   0  0  0  0  0  0  0  0  0  0  0  0
  -26.9320  -26.3490   19.9700 N   0  0  0  0  0  0  0  0  0  0  0  0
  -28.5480  -26.0230   21.5190 O   0  0  0  0  0  0  0  0  0  0  0  0
  -26.5260  -27.0090   19.3210 H   0  0  0  0  0  0  0  0  0  0  0  0
  -24.3090  -24.3120   18.5590 C   0  0  0  0  0  0  0  0  0  0  0  0
  -26.2890  -25.0380   20.0500 C   0  0  0  0  0  3  0  0  0  0  0  0
  -27.1120  -23.9660   19.2990 C   0  0  0  0  0  2  0  0  0  0  0  0
  -26.6740  -23.7750   17.8430 C   0  0  0  0  0  2  0  0  0  0  0  0
  -25.2010  -23.3630   17.7780 C   0  0  0  0  0  2  0  0  0  0  0  0
  -24.8210  -25.1080   19.6180 C   0  0  0  0  0  0  0  0  0  0  0  0
  -23.9540  -25.9950   20.2880 C   0  0  0  0  0  3  0  0  0  0  0  0
  -22.5990  -26.0910   19.9210 C   0  0  0  0  0  3  0  0  0  0  0  0
  -22.0910  -25.2880   18.8860 C   0  0  0  0  0  3  0  0  0  0  0  0
  -22.9460  -24.4010   18.2080 C   0  0  0  0  0  3  0  0  0  0  0  0
  -30.1030  -29.3510   23.8040 C   0  0  0  0  0  3  0  0  0  0  0  0
  -30.2810  -28.3080   24.9750 C   0  0  1  0  0  0  0  0  0  0  0  0
  -28.9450  -27.7650   25.5310 C   0  0  0  0  0  1  0  0  0  0  0  0
  -31.1250  -27.1010   24.5050 C   0  0  0  0  0  1  0  0  0  0  0  0
  -31.0550  -28.9600   26.1450 C   0  0  0  0  0  1  0  0  0  0  0  0
  -29.6080  -30.6340   24.3200 N   0  0  0  0  0  0  0  0  0  0  0  0
  -30.1040  -31.8320   23.9810 C   0  0  0  0  0  0  0  0  0  0  0  0
  -31.0850  -31.9670   23.2440 O   0  0  0  0  0  0  0  0  0  0  0  0
  -28.7770  -30.6060   24.8940 H   0  0  0  0  0  0  0  0  0  0  0  0
  -28.4730  -33.6770   23.4760 C   0  0  0  0  0  1  0  0  0  0  0  0
  -29.3970  -33.0780   24.5470 C   0  0  0  0  0  3  0  0  0  0  0  0
  -31.0700  -33.7160   26.2270 C   0  0  0  0  0  1  0  0  0  0  0  0
  -30.3350  -34.1150   25.0320 N   0  0  0  0  0  0  0  0  0  0  0  0
  -29.8410  -34.9800   25.2370 H   0  0  0  0  0  0  0  0  0  0  0  0
  -29.8160  -20.0790   21.8980 C   0  0  0  0  0  2  0  0  0  0  0  0
  -29.3660  -19.7200   20.4660 C   0  0  0  0  0  2  0  0  0  0  0  0
  -31.3690  -18.2350   20.3940 C   0  0  0  0  0  0  0  0  0  0  0  0
  -30.3330  -18.8470   19.8160 N   0  0  0  0  0  0  0  0  0  0  0  0
  -31.5670  -18.2600   21.6130 O   0  0  0  0  0  0  0  0  0  0  0  0
  -30.2310  -18.7280   18.8160 H   0  0  0  0  0  0  0  0  0  0  0  0
  -32.3170  -17.4720   19.4550 C   0  0  0  0  0  3  0  0  0  0  0  0
  -33.2310  -15.1840   19.6340 C   0  0  0  0  0  0  0  0  0  0  0  0
  -33.0750  -12.7410   19.4570 C   0  0  0  0  0  2  0  0  0  0  0  0
  -32.1940  -12.3610   18.2530 C   0  0  0  0  0  2  0  0  0  0  0  0
  -30.7140  -12.2990   18.6710 C   0  0  0  0  0  2  0  0  0  0  0  0
  -30.2570  -13.5740   19.4280 C   0  0  0  0  0  3  0  0  0  0  0  0
  -31.2550  -13.9220   20.5590 C   0  0  0  0  0  2  0  0  0  0  0  0
  -32.6110  -14.0310   19.9830 N   0  0  0  0  0  0  0  0  0  0  0  0
  -34.2220  -15.2240   18.9040 O   0  0  0  0  0  0  0  0  0  0  0  0
  -32.7250  -16.2800   20.1870 N   0  0  0  0  0  0  0  0  0  0  0  0
  -32.1250  -16.1070   20.9810 H   0  0  0  0  0  0  0  0  0  0  0  0
  -27.9080  -14.3790   20.1240 C   0  0  0  0  0  0  0  0  0  0  0  0
  -26.8060  -13.7010   20.5730 C   0  0  0  0  0  0  0  0  0  0  0  0
  -27.1860  -12.3250   20.6320 C   0  0  0  0  0  0  0  0  0  0  0  0
  -28.8970  -13.4230   19.9420 N   0  0  0  0  0  0  0  0  0  0  0  0
  -28.4630  -12.1870   20.2990 N   0  0  0  0  0  0  0  0  0  0  0  0
  -26.3910  -11.1250   20.9260 C   0  0  0  0  0  0  0  0  0  0  0  0
  -26.5000  -10.4530   22.1640 C   0  0  0  0  0  3  0  0  0  0  0  0
  -25.7130   -9.3120   22.4310 C   0  0  0  0  0  3  0  0  0  0  0  0
  -24.8040   -8.8340   21.4580 C   0  0  0  0  0  0  0  0  0  0  0  0
  -24.7140   -9.4920   20.2190 C   0  0  0  0  0  3  0  0  0  0  0  0
  -25.5010  -10.6250   19.9530 C   0  0  0  0  0  3  0  0  0  0  0  0
  -24.0180   -7.7190   21.6200 O   0  0  0  0  0  0  0  0  0  0  0  0
  -23.1470   -7.6000   22.6740 C   0  0  0  0  0  0  0  0  0  0  0  0
  -22.2200   -8.6150   22.9940 C   0  0  0  0  0  3  0  0  0  0  0  0
  -21.2960   -8.4210   24.0400 C   0  0  0  0  0  3  0  0  0  0  0  0
  -21.2910   -7.2120   24.7610 C   0  0  0  0  0  0  0  0  0  0  0  0
  -22.2120   -6.1970   24.4410 C   0  0  0  0  0  3  0  0  0  0  0  0
  -23.1360   -6.3900   23.3980 C   0  0  0  0  0  0  0  0  0  0  0  0
  -24.0050   -5.4020   23.0810 F   0  0  0  0  0  0  0  0  0  0  0  0
  -20.4000   -7.0210   25.7620 F   0  0  0  0  0  0  0  0  0  0  0  0
  -25.4460  -14.2800   20.8390 C   0  0  0  0  0  0  0  0  0  0  0  0
  -24.7540  -13.7760   21.8570 N   0  0  0  0  0  0  0  0  0  0  0  0
  -25.0100  -15.2190   20.1770 O   0  0  0  0  0  0  0  0  0  0  0  0
  -25.1210  -13.0170   22.4120 H   0  0  0  0  0  0  0  0  0  0  0  0
  -23.8450  -14.1550   22.0820 H   0  0  0  0  0  0  0  0  0  0  0  0
  -28.1490  -15.7180   19.8380 N   0  0  0  0  0  0  0  0  0  0  0  0
  -27.4070  -16.4060   19.8550 H   0  0  0  0  0  0  0  0  0  0  0  0
  -28.9750  -16.0390   19.3500 H   0  0  0  0  0  0  0  0  0  0  0  0
  -33.0130  -19.6940   18.3130 C   0  0  0  0  0  1  0  0  0  0  0  0
  -34.7320  -18.4460   19.6590 C   0  0  0  0  0  1  0  0  0  0  0  0
  -33.4750  -18.2980   18.7840 C   0  0  1  0  0  0  0  0  0  0  0  0
  -33.8360  -17.6680   17.5660 O   0  0  0  0  0  0  0  0  0  0  0  0
  -34.6950  -17.9860   17.3080 H   0  0  0  0  0  0  0  0  0  0  0  0
  1  3  1  0
  1  2  1  0
  4  1  1  0
  5  7  2  0
  7  6  1  0
  7  4  1  0
  8 10  1  0
  9  8  2  0
  9  5  1  0
 10  6  2  0
 11 13  1  0
 11  8  1  0
 12 11  1  0
 13 14  1  0
 15 14  1  0
 16 27  2  0
 17 15  1  0
 17 22  1  0
 18 28  1  0
 18 26  1  0
 19 25  1  0
 19 21  1  0
 20 26  1  0
 21 20  1  0
 22 21  2  0
 23 24  1  0
 23 17  2  0
 24 19  2  0
 25 18  1  0
 26 16  1  0
 28 30  2  0
 29 28  1  0
 31 29  1  0
 32 37  1  0
 33 29  1  0
 34 33  1  0
 35 34  1  0
 36 35  1  0
 36 32  1  0
 37 33  1  0
 37 38  2  0
 39 38  1  0
 40 39  2  0
 41 32  2  0
 41 40  1  0
 42 16  1  0
 42 47  1  0
 42 43  1  0
 43 44  1  1
 43 46  1  0
 45 43  1  0
 47 50  1  0
 48 47  1  0
 48 52  1  0
 49 48  2  0
 52 51  1  0
 52 54  1  0
 54 55  1  0
 54 53  1  0
 56  1  1  0
 57 56  1  0
 58 60  2  0
 59 58  1  0
 59 57  1  0
 61 59  1  0
 62 71  1  0
 62 58  1  0
 63 69  1  0
 63 71  1  0
 64 69  1  0
 65 66  1  0
 65 64  1  0
 67 66  1  0
 67 76  1  0
 67 68  1  0
 69 68  1  0
 70 63  2  0
 71 72  1  0
 73 74  2  0
 74 75  1  0
 74 93  1  0
 75 78  1  0
 76 73  1  0
 76 77  1  0
 77 75  2  0
 78 79  1  0
 79 80  2  0
 81 84  1  0
 81 80  1  0
 82 81  2  0
 83 82  1  0
 83 78  2  0
 84 85  1  0
 85 86  2  0
 85 90  1  0
 86 87  1  0
 87 88  2  0
 88 92  1  0
 89 88  1  0
 90 89  2  0
 91 90  1  0
 93 94  1  0
 94 97  1  0
 94 96  1  0
 95 93  2  0
 98 99  1  0
 98 73  1  0
100 98  1  0
103101  1  6
103 62  1  0
103102  1  0
104103  1  0
105104  1  0
M  ISO  4  14 101  15 101  63 100  71 100
M  END
>  <TORSDO>  (64) 
F 26

>  <SCORE>  (64) 
-3.694

>  <name>  (64) 
64

>  <ligand_id>  (64) 
64

>  <original_smiles>  (64) 
[H]OC(C([H])([H])[H])(C([H])([H])[H])C([H])(C(=O)N([H])C([H])([H])C([H])([H])[N+]([H])([H])C([H])([H])c1c([H])nc(N([H])C([H])([H])C([H])([H])Oc2c([H])c([H])c3c(c2[H])C([H])([H])N(C(=O)C([H])(N([H])C(=O)C([H])(N([H])C([H])([H])[H])C([H])([H])[H])C(C([H])([H])[H])(C([H])([H])[H])C([H])([H])[H])C([H])(C(=O)N([H])C2([H])c4c([H])c([H])c([H])c([H])c4C([H])([H])C([H])([H])C2([H])[H])C3([H])[H])nc1[H])N([H])C(=O)N1C([H])([H])C([H])([H])C([H])([H])C([H])(n2nc(-c3c([H])c([H])c(Oc4c([H])c([H])c(F)c([H])c4F)c([H])c3[H])c(C(=O)N([H])[H])c2N([H])[H])C1([H])[H]

>  <smiles>  (64) 
[H]OC(C([H])([H])[H])(C([H])([H])[H])C([H])(C(=O)N([H])C([H])([H])C([H])([H])[N+]([H])([H])C([H])([H])c1c([H])nc(N([H])C([H])([H])C([H])([H])Oc2c([H])c([H])c3c(c2[H])C([H])([H])N(C(=O)C([H])(N([H])C(=O)C([H])(N([H])C([H])([H])[H])C([H])([H])[H])C(C([H])([H])[H])(C([H])([H])[H])C([H])([H])[H])C([H])(C(=O)N([H])C2([H])c4c([H])c([H])c([H])c([H])c4C([H])([H])C([H])([H])C2([H])[H])C3([H])[H])nc1[H])N([H])C(=O)N1C([H])([H])C([H])([H])C([H])([H])C([H])(n2nc(-c3c([H])c([H])c(Oc4c([H])c([H])c(F)c([H])c4F)c([H])c3[H])c(C(=O)N([H])[H])c2N([H])[H])C1([H])[H]

$$$$
65:0:0
     RDKit          3D

 90 97  0  0  1  0  0  0  0  0999 V2000
  -28.6910  -19.6670   20.2450 C   0  0  0  0  0  0  0  0  0  0  0  0
  -27.4070  -18.9130   19.9530 C   0  0  0  0  0  1  0  0  0  0  0  0
  -28.4120  -21.0810   20.2390 N   0  0  0  0  0  0  0  0  0  0  0  0
  -28.9240  -22.6680   20.4230 C   0  0  0  0  0  3  0  0  0  0  0  0
  -27.9400  -24.2020   20.2210 C   0  0  0  0  0  3  0  0  0  0  0  0
  -28.1800  -25.8470   20.3710 O   0  0  0  0  0  0  0  0  0  0  0  0
  -24.6420  -31.8910   23.2760 C   0  0  0  0  0  0  0  0  0  0  0  0
  -27.1780  -26.9620   20.2950 C   0  0  0  0  0  0  0  0  0  0  0  0
  -23.4470  -30.4960   21.6370 C   0  0  0  0  0  3  0  0  0  0  0  0
  -24.8900  -28.8720   20.2270 C   0  0  0  0  0  0  0  0  0  0  0  0
  -26.0160  -30.6840   21.5020 C   0  0  0  0  0  2  0  0  0  0  0  0
  -26.0800  -29.2680   20.8510 C   0  0  0  0  0  0  0  0  0  0  0  0
  -27.2180  -28.3370   20.8570 C   0  0  0  0  0  3  0  0  0  0  0  0
  -25.9590  -26.7230   19.6210 C   0  0  0  0  0  3  0  0  0  0  0  0
  -24.8570  -27.6200   19.5920 C   0  0  0  0  0  3  0  0  0  0  0  0
  -23.6780  -29.8030   20.2660 C   0  0  0  0  0  2  0  0  0  0  0  0
  -24.7240  -31.0510   22.1910 N   0  0  0  0  0  0  0  0  0  0  0  0
  -23.5520  -32.1900   23.7900 O   0  0  0  0  0  0  0  0  0  0  0  0
  -22.7410  -29.5110   22.6060 C   0  0  0  0  0  0  0  0  0  0  0  0
  -21.4110  -29.3470   22.4720 N   0  0  0  0  0  0  0  0  0  0  0  0
  -23.3980  -28.8910   23.4470 O   0  0  0  0  0  0  0  0  0  0  0  0
  -20.9350  -29.8970   21.7700 H   0  0  0  0  0  0  0  0  0  0  0  0
  -18.0220  -28.1440   22.9640 C   0  0  0  0  0  0  0  0  0  0  0  0
  -20.5800  -28.4150   23.2430 C   0  0  0  0  0  3  0  0  0  0  0  0
  -20.6860  -26.9780   22.6790 C   0  0  0  0  0  2  0  0  0  0  0  0
  -19.5910  -26.6480   21.6590 C   0  0  0  0  0  2  0  0  0  0  0  0
  -18.2050  -26.7940   22.2940 C   0  0  0  0  0  2  0  0  0  0  0  0
  -19.1370  -28.9130   23.3950 C   0  0  0  0  0  0  0  0  0  0  0  0
  -18.9100  -30.1750   23.9860 C   0  0  0  0  0  3  0  0  0  0  0  0
  -17.6020  -30.6700   24.1470 C   0  0  0  0  0  3  0  0  0  0  0  0
  -16.5020  -29.9000   23.7290 C   0  0  0  0  0  3  0  0  0  0  0  0
  -16.7130  -28.6390   23.1440 C   0  0  0  0  0  3  0  0  0  0  0  0
  -25.9140  -32.5310   23.9110 C   0  0  0  0  0  3  0  0  0  0  0  0
  -26.3950  -31.7820   25.2160 C   0  0  1  0  0  0  0  0  0  0  0  0
  -25.2780  -31.5830   26.2680 C   0  0  0  0  0  1  0  0  0  0  0  0
  -26.9690  -30.3880   24.8760 C   0  0  0  0  0  1  0  0  0  0  0  0
  -27.5430  -32.5780   25.8830 C   0  0  0  0  0  1  0  0  0  0  0  0
  -25.6070  -33.9390   24.2230 N   0  0  0  0  0  0  0  0  0  0  0  0
  -25.9400  -34.9860   23.4550 C   0  0  0  0  0  0  0  0  0  0  0  0
  -26.6000  -34.8670   22.4190 O   0  0  0  0  0  0  0  0  0  0  0  0
  -25.0200  -34.1030   25.0260 H   0  0  0  0  0  0  0  0  0  0  0  0
  -24.2200  -36.7940   23.1120 C   0  0  0  0  0  1  0  0  0  0  0  0
  -25.4720  -36.3850   23.9060 C   0  0  0  0  0  3  0  0  0  0  0  0
  -27.6200  -37.2750   24.6990 C   0  0  0  0  0  1  0  0  0  0  0  0
  -26.5110  -37.4290   23.7620 N   0  0  0  0  0  0  0  0  0  0  0  0
  -26.1120  -38.3550   23.8890 H   0  0  0  0  0  0  0  0  0  0  0  0
  -29.8610  -18.3200   20.4550 C   0  0  0  0  0  0  0  0  0  0  0  0
  -30.3980  -15.3780   20.3010 C   0  0  0  0  0  0  0  0  0  0  0  0
  -30.4080  -12.9190   19.4280 C   0  0  0  0  0  2  0  0  0  0  0  0
  -29.4900  -12.6790   18.2030 C   0  0  0  0  0  2  0  0  0  0  0  0
  -28.0460  -12.3890   18.6470 C   0  0  0  0  0  2  0  0  0  0  0  0
  -27.5840  -13.3520   19.7690 C   0  0  0  0  0  3  0  0  0  0  0  0
  -28.6330  -13.5290   20.8890 C   0  0  0  0  0  2  0  0  0  0  0  0
  -29.8480  -14.0600   20.2490 N   0  0  0  0  0  0  0  0  0  0  0  0
  -31.6170  -15.3730   20.0680 O   0  0  0  0  0  0  0  0  0  0  0  0
  -29.6280  -16.6460   20.4650 N   0  0  0  0  0  4  0  0  0  0  0  0
  -28.6540  -16.4340   20.6030 H   0  0  0  0  0  0  0  0  0  0  0  0
  -25.2180  -13.8860   20.5490 C   0  0  0  0  0  0  0  0  0  0  0  0
  -24.1630  -13.1000   20.9160 C   0  0  0  0  0  0  0  0  0  0  0  0
  -24.6380  -11.7530   20.8670 C   0  0  0  0  0  0  0  0  0  0  0  0
  -26.2640  -13.0200   20.2860 N   0  0  0  0  0  0  0  0  0  0  0  0
  -25.9280  -11.7290   20.5470 N   0  0  0  0  0  0  0  0  0  0  0  0
  -23.9170  -10.4840   21.0470 C   0  0  0  0  0  0  0  0  0  0  0  0
  -24.3470   -9.5160   21.9810 C   0  0  0  0  0  3  0  0  0  0  0  0
  -23.6240   -8.3150   22.1510 C   0  0  0  0  0  3  0  0  0  0  0  0
  -22.4580   -8.0740   21.3860 C   0  0  0  0  0  0  0  0  0  0  0  0
  -22.0480   -9.0310   20.4420 C   0  0  0  0  0  3  0  0  0  0  0  0
  -22.7710  -10.2240   20.2700 C   0  0  0  0  0  3  0  0  0  0  0  0
  -21.7060   -6.9260   21.4650 O   0  0  0  0  0  0  0  0  0  0  0  0
  -21.6320   -6.1920   22.6210 C   0  0  0  0  0  0  0  0  0  0  0  0
  -21.1350   -6.7430   23.8230 C   0  0  0  0  0  3  0  0  0  0  0  0
  -21.0110   -5.9350   24.9700 C   0  0  0  0  0  3  0  0  0  0  0  0
  -21.3730   -4.5760   24.9170 C   0  0  0  0  0  0  0  0  0  0  0  0
  -21.8630   -4.0240   23.7210 C   0  0  0  0  0  3  0  0  0  0  0  0
  -21.9890   -4.8290   22.5760 C   0  0  0  0  0  0  0  0  0  0  0  0
  -22.4420   -4.2870   21.4200 F   0  0  0  0  0  0  0  0  0  0  0  0
  -21.2460   -3.7970   26.0170 F   0  0  0  0  0  0  0  0  0  0  0  0
  -22.7640  -13.5660   21.1930 C   0  0  0  0  0  0  0  0  0  0  0  0
  -22.0440  -12.8650   22.0600 N   0  0  0  0  0  0  0  0  0  0  0  0
  -22.3190  -14.5900   20.6740 O   0  0  0  0  0  0  0  0  0  0  0  0
  -22.4180  -12.0380   22.5020 H   0  0  0  0  0  0  0  0  0  0  0  0
  -21.1050  -13.1620   22.2860 H   0  0  0  0  0  0  0  0  0  0  0  0
  -25.3710  -15.2600   20.3810 N   0  0  0  0  0  0  0  0  0  0  0  0
  -24.5940  -15.9030   20.4980 H   0  0  0  0  0  0  0  0  0  0  0  0
  -26.1900  -15.6970   19.9820 H   0  0  0  0  0  0  0  0  0  0  0  0
  -31.1040  -18.6000   19.6000 C   0  0  0  0  0  0  0  0  0  0  0  0
  -32.1450  -19.1980   20.1680 N   0  0  0  0  0  0  0  0  0  0  0  0
  -31.1330  -18.2630   18.4170 O   0  0  0  0  0  0  0  0  0  0  0  0
  -32.1210  -19.4590   21.1450 H   0  0  0  0  0  0  0  0  0  0  0  0
  -32.9790  -19.3900   19.6310 H   0  0  0  0  0  0  0  0  0  0  0  0
  1 47  1  0
  2  1  1  0
  3  1  2  0
  3  4  1  0
  5  6  1  0
  5  4  2  0
  7 18  2  0
  8  6  1  0
  8 13  1  0
  9 17  1  0
  9 19  1  0
 10 16  1  0
 10 12  1  0
 11 17  1  0
 12 13  2  0
 12 11  1  0
 14  8  2  0
 15 14  1  0
 15 10  2  0
 16  9  1  0
 17  7  1  0
 19 21  2  0
 20 19  1  0
 22 20  1  0
 23 32  2  0
 23 28  1  0
 24 20  1  0
 24 28  1  0
 25 24  1  0
 26 27  1  0
 26 25  1  0
 27 23  1  0
 28 29  2  0
 29 30  1  0
 31 30  2  0
 32 31  1  0
 33  7  1  0
 33 38  1  0
 33 34  1  0
 34 37  1  1
 34 35  1  0
 36 34  1  0
 38 41  1  0
 39 43  1  0
 39 38  1  0
 40 39  2  0
 43 42  1  0
 45 46  1  0
 45 43  1  0
 45 44  1  0
 47 56  2  0
 48 56  1  0
 49 54  1  0
 50 51  1  0
 50 49  1  0
 52 51  1  0
 52 61  1  0
 52 53  1  0
 54 48  1  0
 54 53  1  0
 55 48  2  0
 56 57  1  0
 58 59  2  0
 59 78  1  0
 60 59  1  0
 60 63  1  0
 61 62  1  0
 61 58  1  0
 62 60  2  0
 63 64  1  0
 64 65  2  0
 66 69  1  0
 66 65  1  0
 67 66  2  0
 68 67  1  0
 68 63  2  0
 69 70  1  0
 70 71  1  0
 71 72  2  0
 73 72  1  0
 73 77  1  0
 74 73  2  0
 75 70  2  0
 75 74  1  0
 76 75  1  0
 78 79  1  0
 79 82  1  0
 79 81  1  0
 80 78  2  0
 83 84  1  0
 83 58  1  0
 85 83  1  0
 86 87  1  0
 86 47  1  0
 87 89  1  0
 88 86  2  0
 90 87  1  0
M  ISO  4   5 101   6 101  48 100  56 100
M  END
>  <TORSDO>  (65) 
F 20

>  <SCORE>  (65) 
-16.384

>  <name>  (65) 
65

>  <ligand_id>  (65) 
65

>  <original_smiles>  (65) 
[H]c1c([H])c([H])c2c(c1[H])C([H])([H])C([H])([H])C([H])([H])C2([H])N([H])C(=O)C1([H])N(C(=O)C([H])(N([H])C(=O)C([H])(N([H])C([H])([H])[H])C([H])([H])[H])C(C([H])([H])[H])(C([H])([H])[H])C([H])([H])[H])C([H])([H])c2c([H])c(OC([H])([H])C([H])([H])N=C(C([H])([H])[H])C([H])(C(=O)N([H])[H])N([H])C(=O)N3C([H])([H])C([H])([H])C([H])([H])C([H])(n4nc(-c5c([H])c([H])c(Oc6c([H])c([H])c(F)c([H])c6F)c([H])c5[H])c(C(=O)N([H])[H])c4N([H])[H])C3([H])[H])c([H])c([H])c2C1([H])[H]

>  <smiles>  (65) 
[H]c1c([H])c([H])c2c(c1[H])C([H])([H])C([H])([H])C([H])([H])C2([H])N([H])C(=O)C1([H])N(C(=O)C([H])(N([H])C(=O)C([H])(N([H])C([H])([H])[H])C([H])([H])[H])C(C([H])([H])[H])(C([H])([H])[H])C([H])([H])[H])C([H])([H])c2c([H])c(OC([H])([H])C([H])([H])N=C(C([H])([H])[H])C([H])(C(=O)N([H])[H])N([H])C(=O)N3C([H])([H])C([H])([H])C([H])([H])C([H])(n4nc(-c5c([H])c([H])c(Oc6c([H])c([H])c(F)c([H])c6F)c([H])c5[H])c(C(=O)N([H])[H])c4N([H])[H])C3([H])[H])c([H])c([H])c2C1([H])[H]

$$$$
66:0:0
     RDKit          3D

 96103  0  0  1  0  0  0  0  0999 V2000
  -30.1000  -19.3830   20.9450 N   0  0  0  0  0  4  0  0  0  0  0  0
  -30.9430  -19.9350   20.9600 H   0  0  0  0  0  0  0  0  0  0  0  0
  -30.0100  -18.9860   20.0220 H   0  0  0  0  0  0  0  0  0  0  0  0
  -28.9240  -20.3000   21.2100 C   0  0  0  0  0  2  0  0  0  0  0  0
  -28.7390  -21.5200   20.2310 C   0  0  0  0  0  2  0  0  0  0  0  0
  -29.2210  -22.8070   20.6970 O   0  0  0  0  0  0  0  0  0  0  0  0
  -28.2860  -23.8970   20.9490 C   0  0  0  0  0  2  0  0  0  0  0  0
  -27.8820  -24.8180   19.7280 C   0  0  0  0  0  2  0  0  0  0  0  0
  -27.9570  -26.2750   19.9450 O   0  0  0  0  0  0  0  0  0  0  0  0
  -24.5680  -31.7400   23.1250 C   0  0  0  0  0  0  0  0  0  0  0  0
  -26.8280  -27.0980   19.9540 C   0  0  0  0  0  0  0  0  0  0  0  0
  -23.2240  -30.4080   21.5390 C   0  0  0  0  0  3  0  0  0  0  0  0
  -24.5360  -28.7920   20.0570 C   0  0  0  0  0  0  0  0  0  0  0  0
  -25.7620  -30.6120   21.2420 C   0  0  0  0  0  2  0  0  0  0  0  0
  -25.7480  -29.2330   20.6030 C   0  0  0  0  0  0  0  0  0  0  0  0
  -26.8930  -28.3910   20.5510 C   0  0  0  0  0  3  0  0  0  0  0  0
  -25.5920  -26.7080   19.3830 C   0  0  0  0  0  3  0  0  0  0  0  0
  -24.4560  -27.5350   19.4480 C   0  0  0  0  0  3  0  0  0  0  0  0
  -23.3420  -29.7170   20.1550 C   0  0  0  0  0  2  0  0  0  0  0  0
  -24.5410  -30.9340   22.0240 N   0  0  0  0  0  0  0  0  0  0  0  0
  -23.5240  -32.0650   23.7090 O   0  0  0  0  0  0  0  0  0  0  0  0
  -22.5670  -29.4150   22.5300 C   0  0  0  0  0  0  0  0  0  0  0  0
  -21.2380  -29.2540   22.4320 N   0  0  0  0  0  0  0  0  0  0  0  0
  -23.2520  -28.7940   23.3470 O   0  0  0  0  0  0  0  0  0  0  0  0
  -20.7320  -29.8280   21.7680 H   0  0  0  0  0  0  0  0  0  0  0  0
  -17.8830  -28.0040   22.9090 C   0  0  0  0  0  0  0  0  0  0  0  0
  -20.4260  -28.3290   23.2230 C   0  0  0  0  0  3  0  0  0  0  0  0
  -20.5800  -26.8820   22.6950 C   0  0  0  0  0  2  0  0  0  0  0  0
  -19.4990  -26.5040   21.6770 C   0  0  0  0  0  2  0  0  0  0  0  0
  -18.1030  -26.6310   22.2930 C   0  0  0  0  0  2  0  0  0  0  0  0
  -18.9730  -28.8070   23.3300 C   0  0  0  0  0  0  0  0  0  0  0  0
  -18.7160  -30.0940   23.8450 C   0  0  0  0  0  3  0  0  0  0  0  0
  -17.3990  -30.5830   23.9450 C   0  0  0  0  0  3  0  0  0  0  0  0
  -16.3220  -29.7710   23.5530 C   0  0  0  0  0  3  0  0  0  0  0  0
  -16.5660  -28.4880   23.0330 C   0  0  0  0  0  3  0  0  0  0  0  0
  -25.9080  -32.3120   23.6820 C   0  0  0  0  0  3  0  0  0  0  0  0
  -26.4830  -31.4800   24.8940 C   0  0  1  0  0  0  0  0  0  0  0  0
  -25.4550  -31.2370   26.0210 C   0  0  0  0  0  1  0  0  0  0  0  0
  -27.0030  -30.1020   24.4220 C   0  0  0  0  0  1  0  0  0  0  0  0
  -27.6950  -32.2160   25.5120 C   0  0  0  0  0  1  0  0  0  0  0  0
  -25.6670  -33.7070   24.0790 N   0  0  0  0  0  0  0  0  0  0  0  0
  -25.9920  -34.7780   23.3430 C   0  0  0  0  0  0  0  0  0  0  0  0
  -26.5980  -34.6890   22.2720 O   0  0  0  0  0  0  0  0  0  0  0  0
  -25.1300  -33.8500   24.9210 H   0  0  0  0  0  0  0  0  0  0  0  0
  -24.3060  -36.6370   23.1450 C   0  0  0  0  0  1  0  0  0  0  0  0
  -25.5720  -36.1610   23.8750 C   0  0  0  0  0  3  0  0  0  0  0  0
  -27.7740  -36.9490   24.6240 C   0  0  0  0  0  1  0  0  0  0  0  0
  -26.6290  -37.1850   23.7470 N   0  0  0  0  0  0  0  0  0  0  0  0
  -26.2640  -38.1100   23.9540 H   0  0  0  0  0  0  0  0  0  0  0  0
  -30.3340  -18.2470   21.9080 C   0  0  0  0  0  3  0  0  0  0  0  0
  -30.8960  -18.7540   23.2620 C   0  0  0  0  0  0  0  0  0  0  0  0
  -30.5580  -18.0940   24.3690 N   0  0  0  0  0  0  0  0  0  0  0  0
  -31.6400  -19.7350   23.3140 O   0  0  0  0  0  0  0  0  0  0  0  0
  -29.9410  -17.2960   24.3230 H   0  0  0  0  0  0  0  0  0  0  0  0
  -30.9090  -18.3740   25.2760 H   0  0  0  0  0  0  0  0  0  0  0  0
  -31.2660  -17.0850   21.3240 C   0  0  0  0  0  3  0  0  0  0  0  0
  -32.5330  -17.5810   20.7730 N   0  0  0  0  0  0  0  0  0  0  0  0
  -32.4440  -17.9730   19.8410 H   0  0  0  0  0  0  0  0  0  0  0  0
  -32.9750  -18.2950   21.3490 H   0  0  0  0  0  0  0  0  0  0  0  0
  -30.5720  -15.9890   20.4410 C   0  0  0  0  0  2  0  0  0  0  0  0
  -31.2760  -14.6070   20.1830 C   0  0  0  0  0  0  0  0  0  0  0  0
  -30.8320  -12.5020   18.9800 C   0  0  0  0  0  2  0  0  0  0  0  0
  -29.8910  -12.8300   17.8020 C   0  0  0  0  0  2  0  0  0  0  0  0
  -28.4170  -12.7700   18.2440 C   0  0  0  0  0  2  0  0  0  0  0  0
  -28.1500  -13.5530   19.5540 C   0  0  0  0  0  3  0  0  0  0  0  0
  -29.2140  -13.2300   20.6270 C   0  0  0  0  0  2  0  0  0  0  0  0
  -30.5430  -13.4660   20.0510 N   0  0  0  0  0  0  0  0  0  0  0  0
  -32.4540  -14.6420   19.8190 O   0  0  0  0  0  0  0  0  0  0  0  0
  -25.7900  -14.2620   20.2970 C   0  0  0  0  0  0  0  0  0  0  0  0
  -24.6880  -13.5360   20.6620 C   0  0  0  0  0  0  0  0  0  0  0  0
  -25.0920  -12.1660   20.6420 C   0  0  0  0  0  0  0  0  0  0  0  0
  -26.7940  -13.3340   20.0550 N   0  0  0  0  0  0  0  0  0  0  0  0
  -26.3820  -12.0720   20.3320 N   0  0  0  0  0  0  0  0  0  0  0  0
  -24.3150  -10.9370   20.8400 C   0  0  0  0  0  0  0  0  0  0  0  0
  -24.6830   -9.9800   21.8080 C   0  0  0  0  0  3  0  0  0  0  0  0
  -23.9070   -8.8130   21.9960 C   0  0  0  0  0  3  0  0  0  0  0  0
  -22.7490   -8.5970   21.2130 C   0  0  0  0  0  0  0  0  0  0  0  0
  -22.3980   -9.5450   20.2350 C   0  0  0  0  0  3  0  0  0  0  0  0
  -23.1750  -10.7010   20.0480 C   0  0  0  0  0  3  0  0  0  0  0  0
  -21.9460   -7.4870   21.3080 O   0  0  0  0  0  0  0  0  0  0  0  0
  -21.8010   -6.8020   22.4870 C   0  0  0  0  0  0  0  0  0  0  0  0
  -21.3410   -7.4300   23.6670 C   0  0  0  0  0  3  0  0  0  0  0  0
  -21.1480   -6.6700   24.8360 C   0  0  0  0  0  3  0  0  0  0  0  0
  -21.3950   -5.2830   24.8300 C   0  0  0  0  0  0  0  0  0  0  0  0
  -21.8440   -4.6570   23.6540 C   0  0  0  0  0  3  0  0  0  0  0  0
  -22.0390   -5.4110   22.4870 C   0  0  0  0  0  0  0  0  0  0  0  0
  -22.4520   -4.7990   21.3510 F   0  0  0  0  0  0  0  0  0  0  0  0
  -21.2000   -4.5510   25.9530 F   0  0  0  0  0  0  0  0  0  0  0  0
  -23.3150  -14.0750   20.9350 C   0  0  0  0  0  0  0  0  0  0  0  0
  -22.5690  -13.4370   21.8280 N   0  0  0  0  0  0  0  0  0  0  0  0
  -22.9120  -15.1010   20.3880 O   0  0  0  0  0  0  0  0  0  0  0  0
  -22.9070  -12.6120   22.3070 H   0  0  0  0  0  0  0  0  0  0  0  0
  -21.6470  -13.7850   22.0480 H   0  0  0  0  0  0  0  0  0  0  0  0
  -26.0110  -15.6270   20.1390 N   0  0  0  0  0  0  0  0  0  0  0  0
  -25.2620  -16.3020   20.2580 H   0  0  0  0  0  0  0  0  0  0  0  0
  -26.8870  -16.0510   19.8700 H   0  0  0  0  0  0  0  0  0  0  0  0
  1  2  1  0
  1  4  1  0
  1 50  1  0
  3  1  1  0
  5  6  1  0
  5  4  1  0
  6  7  1  0
  8  9  1  0
  8  7  1  0
  9 11  1  0
 10 21  2  0
 11 16  1  0
 12 20  1  0
 12 22  1  0
 13 19  1  0
 13 15  1  0
 14 20  1  0
 15 14  1  0
 16 15  2  0
 17 18  1  0
 17 11  2  0
 18 13  2  0
 19 12  1  0
 20 10  1  0
 22 24  2  0
 23 22  1  0
 25 23  1  0
 26 35  2  0
 26 31  1  0
 27 23  1  0
 27 31  1  0
 28 27  1  0
 29 30  1  0
 29 28  1  0
 30 26  1  0
 31 32  2  0
 32 33  1  0
 34 33  2  0
 35 34  1  0
 36 10  1  0
 36 41  1  0
 36 37  1  0
 37 40  1  1
 37 38  1  0
 39 37  1  0
 41 44  1  0
 42 46  1  0
 42 41  1  0
 43 42  2  0
 46 45  1  0
 48 46  1  0
 48 49  1  0
 48 47  1  0
 50 51  1  0
 51 53  2  0
 51 52  1  0
 52 55  1  0
 54 52  1  0
 56 60  1  0
 56 50  1  0
 57 56  1  0
 57 59  1  0
 58 57  1  0
 61 60  1  0
 62 67  1  0
 63 64  1  0
 63 62  1  0
 65 64  1  0
 65 72  1  0
 65 66  1  0
 67 61  1  0
 67 66  1  0
 68 61  2  0
 69 70  2  0
 70 89  1  0
 71 70  1  0
 71 74  1  0
 72 69  1  0
 72 73  1  0
 73 71  2  0
 74 75  1  0
 75 76  2  0
 77 80  1  0
 77 76  1  0
 78 77  2  0
 79 78  1  0
 79 74  2  0
 80 81  1  0
 81 82  1  0
 82 83  2  0
 84 83  1  0
 84 88  1  0
 85 84  2  0
 86 81  2  0
 86 85  1  0
 87 86  1  0
 89 90  1  0
 90 93  1  0
 90 92  1  0
 91 89  2  0
 94 95  1  0
 94 69  1  0
 96 94  1  0
M  ISO  4   8 101   9 101  60 100  61 100
M  END
>  <TORSDO>  (66) 
F 26

>  <SCORE>  (66) 
-10.833

>  <name>  (66) 
66

>  <ligand_id>  (66) 
66

>  <original_smiles>  (66) 
[H]c1c([H])c([H])c2c(c1[H])C([H])([H])C([H])([H])C([H])([H])C2([H])N([H])C(=O)C1([H])N(C(=O)C([H])(N([H])C(=O)C([H])(N([H])C([H])([H])[H])C([H])([H])[H])C(C([H])([H])[H])(C([H])([H])[H])C([H])([H])[H])C([H])([H])c2c([H])c(OC([H])([H])C([H])([H])OC([H])([H])C([H])([H])[N+]([H])([H])C([H])(C(=O)N([H])[H])C([H])(N([H])[H])C([H])([H])C(=O)N3C([H])([H])C([H])([H])C([H])([H])C([H])(n4nc(-c5c([H])c([H])c(Oc6c([H])c([H])c(F)c([H])c6F)c([H])c5[H])c(C(=O)N([H])[H])c4N([H])[H])C3([H])[H])c([H])c([H])c2C1([H])[H]

>  <smiles>  (66) 
[H]c1c([H])c([H])c2c(c1[H])C([H])([H])C([H])([H])C([H])([H])C2([H])N([H])C(=O)C1([H])N(C(=O)C([H])(N([H])C(=O)C([H])(N([H])C([H])([H])[H])C([H])([H])[H])C(C([H])([H])[H])(C([H])([H])[H])C([H])([H])[H])C([H])([H])c2c([H])c(OC([H])([H])C([H])([H])OC([H])([H])C([H])([H])[N+]([H])([H])C([H])(C(=O)N([H])[H])C([H])(N([H])[H])C([H])([H])C(=O)N3C([H])([H])C([H])([H])C([H])([H])C([H])(n4nc(-c5c([H])c([H])c(Oc6c([H])c([H])c(F)c([H])c6F)c([H])c5[H])c(C(=O)N([H])[H])c4N([H])[H])C3([H])[H])c([H])c([H])c2C1([H])[H]

$$$$
67:0:0
     RDKit          3D

 95102  0  0  1  0  0  0  0  0999 V2000
  -28.2250  -21.9930   21.0370 C   0  0  0  0  0  0  0  0  0  0  0  0
  -28.7430  -22.0030   22.2780 N   0  0  0  0  0  4  0  0  0  0  0  0
  -27.9490  -23.1340   20.3650 N   0  0  0  0  0  0  0  0  0  0  0  0
  -28.8880  -21.1280   22.7650 H   0  0  0  0  0  0  0  0  0  0  0  0
  -28.9560  -22.8440   22.7910 H   0  0  0  0  0  0  0  0  0  0  0  0
  -27.5340  -23.0410   19.4460 H   0  0  0  0  0  0  0  0  0  0  0  0
  -27.9480  -20.6560   20.3960 C   0  0  0  0  0  2  0  0  0  0  0  0
  -29.0290  -18.4140   20.4380 C   0  0  0  0  0  0  0  0  0  0  0  0
  -29.0830  -19.7490   20.5620 N   0  0  0  0  0  0  0  0  0  0  0  0
  -27.9760  -17.8140   20.2140 O   0  0  0  0  0  0  0  0  0  0  0  0
  -29.9750  -20.1930   20.7310 H   0  0  0  0  0  0  0  0  0  0  0  0
  -30.3530  -17.6350   20.5630 C   0  0  0  0  0  2  0  0  0  0  0  0
  -31.7600  -16.4180   22.3360 C   0  0  0  0  0  1  0  0  0  0  0  0
  -30.3800  -16.5230   21.6550 C   0  0  0  0  0  3  0  0  0  0  0  0
  -30.4250  -14.3670   20.2920 C   0  0  0  0  0  0  0  0  0  0  0  0
  -30.1080  -12.2410   19.0720 C   0  0  0  0  0  2  0  0  0  0  0  0
  -29.1120  -12.4210   17.9100 C   0  0  0  0  0  2  0  0  0  0  0  0
  -27.6620  -12.2370   18.3970 C   0  0  0  0  0  2  0  0  0  0  0  0
  -27.3530  -13.0680   19.6700 C   0  0  0  0  0  3  0  0  0  0  0  0
  -28.4490  -12.8610   20.7380 C   0  0  0  0  0  2  0  0  0  0  0  0
  -29.7520  -13.1970   20.1320 N   0  0  0  0  0  0  0  0  0  0  0  0
  -31.4380  -14.6540   19.6480 O   0  0  0  0  0  0  0  0  0  0  0  0
  -29.9010  -15.2020   21.2060 N   0  0  0  0  0  0  0  0  0  0  0  0
  -29.0670  -14.8600   21.6610 H   0  0  0  0  0  0  0  0  0  0  0  0
  -24.9720  -13.6230   20.4830 C   0  0  0  0  0  0  0  0  0  0  0  0
  -23.9340  -12.8250   20.8820 C   0  0  0  0  0  0  0  0  0  0  0  0
  -24.4180  -11.4820   20.8130 C   0  0  0  0  0  0  0  0  0  0  0  0
  -26.0230  -12.7650   20.1970 N   0  0  0  0  0  0  0  0  0  0  0  0
  -25.6940  -11.4720   20.4500 N   0  0  0  0  0  0  0  0  0  0  0  0
  -23.7240  -10.2040   21.0150 C   0  0  0  0  0  0  0  0  0  0  0  0
  -24.1700   -9.2670   21.9720 C   0  0  0  0  0  3  0  0  0  0  0  0
  -23.4760   -8.0510   22.1600 C   0  0  0  0  0  3  0  0  0  0  0  0
  -22.3230   -7.7660   21.3910 C   0  0  0  0  0  0  0  0  0  0  0  0
  -21.8970   -8.6930   20.4230 C   0  0  0  0  0  3  0  0  0  0  0  0
  -22.5910   -9.8990   20.2340 C   0  0  0  0  0  3  0  0  0  0  0  0
  -21.6010   -6.6010   21.4880 O   0  0  0  0  0  0  0  0  0  0  0  0
  -21.5210   -5.8980   22.6640 C   0  0  0  0  0  0  0  0  0  0  0  0
  -20.9870   -6.4710   23.8390 C   0  0  0  0  0  3  0  0  0  0  0  0
  -20.8590   -5.6920   25.0060 C   0  0  0  0  0  3  0  0  0  0  0  0
  -21.2550   -4.3400   24.9980 C   0  0  0  0  0  0  0  0  0  0  0  0
  -21.7810   -3.7670   23.8270 C   0  0  0  0  0  3  0  0  0  0  0  0
  -21.9100   -4.5440   22.6630 C   0  0  0  0  0  0  0  0  0  0  0  0
  -22.4000   -3.9810   21.5320 F   0  0  0  0  0  0  0  0  0  0  0  0
  -21.1240   -3.5890   26.1160 F   0  0  0  0  0  0  0  0  0  0  0  0
  -22.5400  -13.2720   21.2210 C   0  0  0  0  0  0  0  0  0  0  0  0
  -21.8660  -12.5530   22.1120 N   0  0  0  0  0  0  0  0  0  0  0  0
  -22.0590  -14.2910   20.7300 O   0  0  0  0  0  0  0  0  0  0  0  0
  -22.2700  -11.7290   22.5310 H   0  0  0  0  0  0  0  0  0  0  0  0
  -20.9340  -12.8340   22.3800 H   0  0  0  0  0  0  0  0  0  0  0  0
  -25.1070  -15.0000   20.3260 N   0  0  0  0  0  0  0  0  0  0  0  0
  -24.3410  -15.6400   20.4990 H   0  0  0  0  0  0  0  0  0  0  0  0
  -25.9560  -15.4700   20.0320 H   0  0  0  0  0  0  0  0  0  0  0  0
  -28.0690  -24.5240   20.8560 C   0  0  0  0  0  2  0  0  0  0  0  0
  -28.5940  -25.4940   19.7760 C   0  0  0  0  0  2  0  0  0  0  0  0
  -28.5160  -26.8630   20.1900 O   0  0  0  0  0  0  0  0  0  0  0  0
  -24.6250  -31.9630   23.2440 C   0  0  0  0  0  0  0  0  0  0  0  0
  -27.3060  -27.5290   20.1820 C   0  0  0  0  0  0  0  0  0  0  0  0
  -23.4280  -30.5460   21.6070 C   0  0  0  0  0  3  0  0  0  0  0  0
  -24.8910  -29.0100   20.1930 C   0  0  0  0  0  0  0  0  0  0  0  0
  -25.9500  -30.9210   21.4070 C   0  0  0  0  0  2  0  0  0  0  0  0
  -26.0440  -29.5470   20.7770 C   0  0  0  0  0  0  0  0  0  0  0  0
  -27.2490  -28.8130   20.7690 C   0  0  0  0  0  3  0  0  0  0  0  0
  -26.1270  -26.9990   19.6010 C   0  0  0  0  0  3  0  0  0  0  0  0
  -24.9270  -27.7340   19.6050 C   0  0  0  0  0  3  0  0  0  0  0  0
  -23.6420  -29.8600   20.2310 C   0  0  0  0  0  2  0  0  0  0  0  0
  -24.6870  -31.1590   22.1450 N   0  0  0  0  0  0  0  0  0  0  0  0
  -23.5410  -32.2310   23.7820 O   0  0  0  0  0  0  0  0  0  0  0  0
  -22.7840  -29.5250   22.5710 C   0  0  0  0  0  0  0  0  0  0  0  0
  -21.4630  -29.3280   22.4360 N   0  0  0  0  0  0  0  0  0  0  0  0
  -23.4690  -28.9120   23.3940 O   0  0  0  0  0  0  0  0  0  0  0  0
  -20.9710  -29.8740   21.7430 H   0  0  0  0  0  0  0  0  0  0  0  0
  -18.0940  -28.1170   22.9290 C   0  0  0  0  0  0  0  0  0  0  0  0
  -20.6510  -28.3870   23.2060 C   0  0  0  0  0  3  0  0  0  0  0  0
  -20.7620  -26.9550   22.6320 C   0  0  0  0  0  2  0  0  0  0  0  0
  -19.6630  -26.6270   21.6170 C   0  0  0  0  0  2  0  0  0  0  0  0
  -18.2780  -26.7670   22.2580 C   0  0  0  0  0  2  0  0  0  0  0  0
  -19.2080  -28.8850   23.3600 C   0  0  0  0  0  0  0  0  0  0  0  0
  -18.9840  -30.1500   23.9460 C   0  0  0  0  0  3  0  0  0  0  0  0
  -17.6770  -30.6460   24.1070 C   0  0  0  0  0  3  0  0  0  0  0  0
  -16.5760  -29.8750   23.6920 C   0  0  0  0  0  3  0  0  0  0  0  0
  -16.7860  -28.6140   23.1090 C   0  0  0  0  0  3  0  0  0  0  0  0
  -25.9060  -32.6040   23.8630 C   0  0  0  0  0  3  0  0  0  0  0  0
  -25.5910  -34.0020   24.1860 N   0  0  0  0  0  0  0  0  0  0  0  0
  -25.9220  -35.0520   23.4250 C   0  0  0  0  0  0  0  0  0  0  0  0
  -26.5970  -34.9480   22.3970 O   0  0  0  0  0  0  0  0  0  0  0  0
  -24.9920  -34.1580   24.9850 H   0  0  0  0  0  0  0  0  0  0  0  0
  -24.1900  -36.8360   23.0460 C   0  0  0  0  0  1  0  0  0  0  0  0
  -25.4240  -36.4400   23.8730 C   0  0  0  0  0  3  0  0  0  0  0  0
  -27.5430  -37.3370   24.7250 C   0  0  0  0  0  1  0  0  0  0  0  0
  -26.4530  -37.4970   23.7670 N   0  0  0  0  0  0  0  0  0  0  0  0
  -26.0410  -38.4160   23.9050 H   0  0  0  0  0  0  0  0  0  0  0  0
  -26.4300  -31.8380   25.1410 C   0  0  1  0  0  0  0  0  0  0  0  0
  -25.3380  -31.5900   26.2070 C   0  0  0  0  0  1  0  0  0  0  0  0
  -27.0260  -30.4680   24.7450 C   0  0  0  0  0  1  0  0  0  0  0  0
  -27.5710  -32.6440   25.8030 C   0  0  0  0  0  1  0  0  0  0  0  0
  1  2  2  0
  2  4  1  0
  2  5  1  0
  3 53  1  0
  3  1  1  0
  6  3  1  0
  7  9  1  0
  7  1  1  0
  8  9  1  0
  8 12  1  0
  9 11  1  0
 10  8  2  0
 12 14  1  0
 14 13  1  0
 15 23  1  0
 16 21  1  0
 17 18  1  0
 17 16  1  0
 19 18  1  0
 19 28  1  0
 19 20  1  0
 21 15  1  0
 21 20  1  0
 22 15  2  0
 23 14  1  0
 23 24  1  0
 25 26  2  0
 26 45  1  0
 27 26  1  0
 27 30  1  0
 28 29  1  0
 28 25  1  0
 29 27  2  0
 30 31  1  0
 31 32  2  0
 33 36  1  0
 33 32  1  0
 34 33  2  0
 35 34  1  0
 35 30  2  0
 36 37  1  0
 37 38  1  0
 38 39  2  0
 40 39  1  0
 40 44  1  0
 41 40  2  0
 42 37  2  0
 42 41  1  0
 43 42  1  0
 45 46  1  0
 46 49  1  0
 46 48  1  0
 47 45  2  0
 50 25  1  0
 50 51  1  0
 52 50  1  0
 54 55  1  0
 54 53  1  0
 56 67  2  0
 57 55  1  0
 57 62  1  0
 58 66  1  0
 58 68  1  0
 59 65  1  0
 59 61  1  0
 60 66  1  0
 61 60  1  0
 62 61  2  0
 63 64  1  0
 63 57  2  0
 64 59  2  0
 65 58  1  0
 66 56  1  0
 68 70  2  0
 69 68  1  0
 71 69  1  0
 72 81  2  0
 72 77  1  0
 73 69  1  0
 73 77  1  0
 74 73  1  0
 75 76  1  0
 75 74  1  0
 76 72  1  0
 77 78  2  0
 78 79  1  0
 80 79  2  0
 81 80  1  0
 82 56  1  0
 82 83  1  0
 82 92  1  0
 83 86  1  0
 84 88  1  0
 84 83  1  0
 85 84  2  0
 88 87  1  0
 90 88  1  0
 90 91  1  0
 90 89  1  0
 92 95  1  1
 92 93  1  0
 94 92  1  0
M  ISO  4  15 100  23 100  54 101  55 101
M  END
>  <TORSDO>  (67) 
F 22

>  <SCORE>  (67) 
-12.057

>  <name>  (67) 
67

>  <ligand_id>  (67) 
67

>  <original_smiles>  (67) 
[H]c1c([H])c([H])c2c(c1[H])C([H])([H])C([H])([H])C([H])([H])C2([H])N([H])C(=O)C1([H])N(C(=O)C([H])(N([H])C(=O)C([H])(N([H])C([H])([H])[H])C([H])([H])[H])C(C([H])([H])[H])(C([H])([H])[H])C([H])([H])[H])C([H])([H])c2c([H])c(OC([H])([H])C([H])([H])[N+]([H])=C(N([H])[H])C([H])([H])N([H])C(=O)C([H])([H])C([H])(N([H])C(=O)N3C([H])([H])C([H])([H])C([H])([H])C([H])(n4nc(-c5c([H])c([H])c(Oc6c([H])c([H])c(F)c([H])c6F)c([H])c5[H])c(C(=O)N([H])[H])c4N([H])[H])C3([H])[H])C([H])([H])[H])c([H])c([H])c2C1([H])[H]

>  <smiles>  (67) 
[H]c1c([H])c([H])c2c(c1[H])C([H])([H])C([H])([H])C([H])([H])C2([H])N([H])C(=O)C1([H])N(C(=O)C([H])(N([H])C(=O)C([H])(N([H])C([H])([H])[H])C([H])([H])[H])C(C([H])([H])[H])(C([H])([H])[H])C([H])([H])[H])C([H])([H])c2c([H])c(OC([H])([H])C([H])([H])[N+]([H])=C(N([H])[H])C([H])([H])N([H])C(=O)C([H])([H])C([H])(N([H])C(=O)N3C([H])([H])C([H])([H])C([H])([H])C([H])(n4nc(-c5c([H])c([H])c(Oc6c([H])c([H])c(F)c([H])c6F)c([H])c5[H])c(C(=O)N([H])[H])c4N([H])[H])C3([H])[H])C([H])([H])[H])c([H])c([H])c2C1([H])[H]

$$$$
68:0:0
     RDKit          3D

 89 96  0  0  1  0  0  0  0  0999 V2000
  -29.1290  -19.8420   20.4030 C   0  0  0  0  0  0  0  0  0  0  0  0
  -29.0930  -21.2510   19.9180 N   0  0  0  0  0  0  0  0  0  0  0  0
  -28.5030  -19.6410   21.4440 O   0  0  0  0  0  0  0  0  0  0  0  0
  -29.5610  -21.3290   19.0230 H   0  0  0  0  0  0  0  0  0  0  0  0
  -28.7070  -22.7760   20.5230 C   0  0  0  0  0  2  0  0  0  0  0  0
  -28.1280  -24.3490   19.8220 C   0  0  0  0  0  2  0  0  0  0  0  0
  -28.1790  -25.9520   20.2640 O   0  0  0  0  0  0  0  0  0  0  0  0
  -24.5810  -31.9000   23.2140 C   0  0  0  0  0  0  0  0  0  0  0  0
  -27.1650  -27.0490   20.1590 C   0  0  0  0  0  0  0  0  0  0  0  0
  -23.3980  -30.5140   21.5590 C   0  0  0  0  0  3  0  0  0  0  0  0
  -24.8590  -28.9280   20.1200 C   0  0  0  0  0  0  0  0  0  0  0  0
  -25.9640  -30.7330   21.4250 C   0  0  0  0  0  2  0  0  0  0  0  0
  -26.0410  -29.3300   20.7540 C   0  0  0  0  0  0  0  0  0  0  0  0
  -27.1840  -28.4090   20.7520 C   0  0  0  0  0  3  0  0  0  0  0  0
  -25.9560  -26.8090   19.4680 C   0  0  0  0  0  3  0  0  0  0  0  0
  -24.8420  -27.6910   19.4570 C   0  0  0  0  0  3  0  0  0  0  0  0
  -23.6350  -29.8450   20.1760 C   0  0  0  0  0  2  0  0  0  0  0  0
  -24.6700  -31.0770   22.1190 N   0  0  0  0  0  0  0  0  0  0  0  0
  -23.4890  -32.1820   23.7340 O   0  0  0  0  0  0  0  0  0  0  0  0
  -22.7050  -29.5080   22.5140 C   0  0  0  0  0  0  0  0  0  0  0  0
  -21.3770  -29.3340   22.3790 N   0  0  0  0  0  0  0  0  0  0  0  0
  -23.3690  -28.8850   23.3450 O   0  0  0  0  0  0  0  0  0  0  0  0
  -20.8940  -29.8880   21.6860 H   0  0  0  0  0  0  0  0  0  0  0  0
  -18.0010  -28.0920   22.8580 C   0  0  0  0  0  0  0  0  0  0  0  0
  -20.5570  -28.3830   23.1390 C   0  0  0  0  0  3  0  0  0  0  0  0
  -20.6770  -26.9560   22.5570 C   0  0  0  0  0  2  0  0  0  0  0  0
  -19.5840  -26.6280   21.5340 C   0  0  0  0  0  2  0  0  0  0  0  0
  -18.1970  -26.7510   22.1700 C   0  0  0  0  0  2  0  0  0  0  0  0
  -19.1090  -28.8650   23.2980 C   0  0  0  0  0  0  0  0  0  0  0  0
  -18.8700  -30.1170   23.9050 C   0  0  0  0  0  3  0  0  0  0  0  0
  -17.5570  -30.5980   24.0720 C   0  0  0  0  0  3  0  0  0  0  0  0
  -16.4650  -29.8230   23.6450 C   0  0  0  0  0  3  0  0  0  0  0  0
  -16.6870  -28.5720   23.0440 C   0  0  0  0  0  3  0  0  0  0  0  0
  -25.8470  -32.5440   23.8570 C   0  0  0  0  0  3  0  0  0  0  0  0
  -26.3230  -31.7990   25.1660 C   0  0  1  0  0  0  0  0  0  0  0  0
  -25.2000  -31.5960   26.2110 C   0  0  0  0  0  1  0  0  0  0  0  0
  -26.9040  -30.4060   24.8310 C   0  0  0  0  0  1  0  0  0  0  0  0
  -27.4630  -32.6000   25.8390 C   0  0  0  0  0  1  0  0  0  0  0  0
  -25.5360  -33.9520   24.1620 N   0  0  0  0  0  0  0  0  0  0  0  0
  -25.8930  -34.9990   23.4060 C   0  0  0  0  0  0  0  0  0  0  0  0
  -26.5810  -34.8810   22.3880 O   0  0  0  0  0  0  0  0  0  0  0  0
  -24.9270  -34.1170   24.9490 H   0  0  0  0  0  0  0  0  0  0  0  0
  -24.1960  -36.8180   23.0100 C   0  0  0  0  0  1  0  0  0  0  0  0
  -25.4160  -36.3990   23.8470 C   0  0  0  0  0  3  0  0  0  0  0  0
  -27.5380  -37.2730   24.7230 C   0  0  0  0  0  1  0  0  0  0  0  0
  -26.4640  -37.4390   23.7480 N   0  0  0  0  0  0  0  0  0  0  0  0
  -26.0650  -38.3660   23.8700 H   0  0  0  0  0  0  0  0  0  0  0  0
  -29.9600  -18.3950   19.8110 C   0  0  0  0  0  3  0  0  0  0  0  0
  -30.4580  -15.4500   19.8890 C   0  0  0  0  0  0  0  0  0  0  0  0
  -30.3550  -13.0210   18.9630 C   0  0  0  0  0  2  0  0  0  0  0  0
  -29.3670  -12.8510   17.7830 C   0  0  0  0  0  2  0  0  0  0  0  0
  -27.9480  -12.5670   18.3020 C   0  0  0  0  0  2  0  0  0  0  0  0
  -27.5690  -13.4960   19.4810 C   0  0  0  0  0  3  0  0  0  0  0  0
  -28.6840  -13.6230   20.5440 C   0  0  0  0  0  2  0  0  0  0  0  0
  -29.8730  -14.1470   19.8540 N   0  0  0  0  0  0  0  0  0  0  0  0
  -31.6460  -15.4180   19.5400 O   0  0  0  0  0  0  0  0  0  0  0  0
  -29.7480  -16.7460   20.1160 N   0  0  0  0  0  0  0  0  0  0  0  0
  -28.8090  -16.5760   20.4450 H   0  0  0  0  0  0  0  0  0  0  0  0
  -25.2450  -14.0250   20.3820 C   0  0  0  0  0  0  0  0  0  0  0  0
  -24.2110  -13.2360   20.7990 C   0  0  0  0  0  0  0  0  0  0  0  0
  -24.6820  -11.8890   20.7170 C   0  0  0  0  0  0  0  0  0  0  0  0
  -26.2770  -13.1600   20.0620 N   0  0  0  0  0  0  0  0  0  0  0  0
  -25.9540  -11.8680   20.3310 N   0  0  0  0  0  0  0  0  0  0  0  0
  -23.9720  -10.6200   20.9250 C   0  0  0  0  0  0  0  0  0  0  0  0
  -24.4370   -9.6530   21.8440 C   0  0  0  0  0  3  0  0  0  0  0  0
  -23.7230   -8.4520   22.0420 C   0  0  0  0  0  3  0  0  0  0  0  0
  -22.5290   -8.2070   21.3230 C   0  0  0  0  0  0  0  0  0  0  0  0
  -22.0830   -9.1630   20.3930 C   0  0  0  0  0  3  0  0  0  0  0  0
  -22.7980  -10.3550   20.1920 C   0  0  0  0  0  3  0  0  0  0  0  0
  -21.7840   -7.0580   21.4320 O   0  0  0  0  0  0  0  0  0  0  0  0
  -21.7550   -6.3270   22.5920 C   0  0  0  0  0  0  0  0  0  0  0  0
  -21.2990   -6.8780   23.8090 C   0  0  0  0  0  3  0  0  0  0  0  0
  -21.2200   -6.0700   24.9620 C   0  0  0  0  0  3  0  0  0  0  0  0
  -21.5870   -4.7130   24.8980 C   0  0  0  0  0  0  0  0  0  0  0  0
  -22.0350   -4.1610   23.6850 C   0  0  0  0  0  3  0  0  0  0  0  0
  -22.1150   -4.9660   22.5350 C   0  0  0  0  0  0  0  0  0  0  0  0
  -22.5280   -4.4230   21.3640 F   0  0  0  0  0  0  0  0  0  0  0  0
  -21.5030   -3.9350   26.0030 F   0  0  0  0  0  0  0  0  0  0  0  0
  -22.8300  -13.7010   21.1530 C   0  0  0  0  0  0  0  0  0  0  0  0
  -22.1510  -12.9850   22.0420 N   0  0  0  0  0  0  0  0  0  0  0  0
  -22.3640  -14.7360   20.6770 O   0  0  0  0  0  0  0  0  0  0  0  0
  -22.5430  -12.1480   22.4470 H   0  0  0  0  0  0  0  0  0  0  0  0
  -21.2260  -13.2780   22.3220 H   0  0  0  0  0  0  0  0  0  0  0  0
  -25.3890  -15.4000   20.2180 N   0  0  0  0  0  0  0  0  0  0  0  0
  -24.6220  -16.0430   20.3800 H   0  0  0  0  0  0  0  0  0  0  0  0
  -26.2010  -15.8480   19.8140 H   0  0  0  0  0  0  0  0  0  0  0  0
  -31.8640  -18.6960   21.5400 C   0  0  0  0  0  1  0  0  0  0  0  0
  -32.0780  -19.8620   19.3010 C   0  0  0  0  0  1  0  0  0  0  0  0
  -31.4850  -18.6510   20.0470 C   0  0  0  0  0  3  0  0  0  0  0  0
  1  3  2  0
  2  1  1  0
  2  5  1  0
  4  2  1  0
  6  7  1  0
  6  5  1  0
  8 19  2  0
  9  7  1  0
  9 14  1  0
 10 18  1  0
 10 20  1  0
 11 17  1  0
 11 13  1  0
 12 18  1  0
 13 12  1  0
 14 13  2  0
 15  9  2  0
 16 15  1  0
 16 11  2  0
 17 10  1  0
 18  8  1  0
 20 22  2  0
 21 20  1  0
 23 21  1  0
 24 33  2  0
 24 29  1  0
 25 21  1  0
 25 29  1  0
 26 25  1  0
 27 28  1  0
 27 26  1  0
 28 24  1  0
 29 30  2  0
 30 31  1  0
 32 31  2  0
 33 32  1  0
 34  8  1  0
 34 39  1  0
 34 35  1  0
 35 38  1  1
 35 36  1  0
 37 35  1  0
 39 42  1  0
 40 44  1  0
 40 39  1  0
 41 40  2  0
 44 43  1  0
 46 44  1  0
 46 47  1  0
 46 45  1  0
 48 89  1  0
 48 57  1  0
 48  1  1  0
 49 57  1  0
 50 55  1  0
 51 52  1  0
 51 50  1  0
 53 52  1  0
 53 62  1  0
 53 54  1  0
 55 49  1  0
 55 54  1  0
 56 49  2  0
 57 58  1  0
 59 60  2  0
 60 79  1  0
 61 60  1  0
 61 64  1  0
 62 63  1  0
 62 59  1  0
 63 61  2  0
 64 65  1  0
 65 66  2  0
 67 70  1  0
 67 66  1  0
 68 67  2  0
 69 68  1  0
 69 64  2  0
 70 71  1  0
 71 72  1  0
 72 73  2  0
 74 73  1  0
 74 78  1  0
 75 74  2  0
 76 71  2  0
 76 75  1  0
 77 76  1  0
 79 80  1  0
 80 83  1  0
 80 82  1  0
 81 79  2  0
 84 85  1  0
 84 59  1  0
 86 84  1  0
 88 89  1  0
 89 87  1  0
M  ISO  4   6 101   7 101  49 100  57 100
M  END
>  <TORSDO>  (68) 
F 20

>  <SCORE>  (68) 
-15.647

>  <name>  (68) 
68

>  <ligand_id>  (68) 
68

>  <original_smiles>  (68) 
[H]c1c([H])c([H])c2c(c1[H])C([H])([H])C([H])([H])C([H])([H])C2([H])N([H])C(=O)C1([H])N(C(=O)C([H])(N([H])C(=O)C([H])(N([H])C([H])([H])[H])C([H])([H])[H])C(C([H])([H])[H])(C([H])([H])[H])C([H])([H])[H])C([H])([H])c2c([H])c(OC([H])([H])C([H])([H])N([H])C(=O)C([H])(N([H])C(=O)N3C([H])([H])C([H])([H])C([H])([H])C([H])(n4nc(-c5c([H])c([H])c(Oc6c([H])c([H])c(F)c([H])c6F)c([H])c5[H])c(C(=O)N([H])[H])c4N([H])[H])C3([H])[H])C([H])(C([H])([H])[H])C([H])([H])[H])c([H])c([H])c2C1([H])[H]

>  <smiles>  (68) 
[H]c1c([H])c([H])c2c(c1[H])C([H])([H])C([H])([H])C([H])([H])C2([H])N([H])C(=O)C1([H])N(C(=O)C([H])(N([H])C(=O)C([H])(N([H])C([H])([H])[H])C([H])([H])[H])C(C([H])([H])[H])(C([H])([H])[H])C([H])([H])[H])C([H])([H])c2c([H])c(OC([H])([H])C([H])([H])N([H])C(=O)C([H])(N([H])C(=O)N3C([H])([H])C([H])([H])C([H])([H])C([H])(n4nc(-c5c([H])c([H])c(Oc6c([H])c([H])c(F)c([H])c6F)c([H])c5[H])c(C(=O)N([H])[H])c4N([H])[H])C3([H])[H])C([H])(C([H])([H])[H])C([H])([H])[H])c([H])c([H])c2C1([H])[H]

$$$$
69:0:0
     RDKit          3D

 97104  0  0  1  0  0  0  0  0999 V2000
  -30.0610  -17.6280   20.4090 C   0  0  0  0  0  0  0  0  0  0  0  0
  -29.3770  -18.7610   20.0650 N   0  0  0  0  0  0  0  0  0  0  0  0
  -31.1950  -17.7150   20.8880 O   0  0  0  0  0  0  0  0  0  0  0  0
  -28.5240  -18.6760   19.5270 H   0  0  0  0  0  0  0  0  0  0  0  0
  -29.7690  -20.1460   20.4860 C   0  0  0  0  0  2  0  0  0  0  0  0
  -29.0300  -21.3680   19.8130 C   0  0  0  0  0  2  0  0  0  0  0  0
  -29.2110  -22.6340   20.5120 O   0  0  0  0  0  0  0  0  0  0  0  0
  -28.8100  -23.8540   19.8180 C   0  0  0  0  0  2  0  0  0  0  0  0
  -28.6070  -25.1040   20.7610 C   0  0  0  0  0  2  0  0  0  0  0  0
  -28.7420  -26.4500   20.2020 O   0  0  0  0  0  0  0  0  0  0  0  0
  -24.8040  -31.6570   23.1940 C   0  0  0  0  0  0  0  0  0  0  0  0
  -27.5960  -27.2350   20.1670 C   0  0  0  0  0  0  0  0  0  0  0  0
  -23.6750  -30.2650   21.4920 C   0  0  0  0  0  3  0  0  0  0  0  0
  -25.1990  -28.7630   20.0960 C   0  0  0  0  0  0  0  0  0  0  0  0
  -26.2090  -30.6430   21.3940 C   0  0  0  0  0  2  0  0  0  0  0  0
  -26.3350  -29.2800   20.7310 C   0  0  0  0  0  0  0  0  0  0  0  0
  -27.5420  -28.5300   20.7520 C   0  0  0  0  0  3  0  0  0  0  0  0
  -26.4440  -26.7460   19.5220 C   0  0  0  0  0  3  0  0  0  0  0  0
  -25.2540  -27.4990   19.4830 C   0  0  0  0  0  3  0  0  0  0  0  0
  -23.9430  -29.6080   20.1110 C   0  0  0  0  0  2  0  0  0  0  0  0
  -24.9120  -30.8710   22.0840 N   0  0  0  0  0  0  0  0  0  0  0  0
  -23.7020  -31.9070   23.7010 O   0  0  0  0  0  0  0  0  0  0  0  0
  -23.0030  -29.2220   22.4170 C   0  0  0  0  0  0  0  0  0  0  0  0
  -21.6800  -29.0450   22.2630 N   0  0  0  0  0  0  0  0  0  0  0  0
  -23.6700  -28.5770   23.2300 O   0  0  0  0  0  0  0  0  0  0  0  0
  -21.2040  -29.6150   21.5770 H   0  0  0  0  0  0  0  0  0  0  0  0
  -18.2830  -27.9080   22.7450 C   0  0  0  0  0  0  0  0  0  0  0  0
  -20.8490  -28.0920   22.9970 C   0  0  0  0  0  3  0  0  0  0  0  0
  -20.9080  -26.6870   22.3510 C   0  0  0  0  0  2  0  0  0  0  0  0
  -19.7880  -26.4440   21.3340 C   0  0  0  0  0  2  0  0  0  0  0  0
  -18.4180  -26.5900   22.0010 C   0  0  0  0  0  2  0  0  0  0  0  0
  -19.4240  -28.6210   23.1980 C   0  0  0  0  0  0  0  0  0  0  0  0
  -19.2430  -29.8590   23.8530 C   0  0  0  0  0  3  0  0  0  0  0  0
  -17.9530  -30.3820   24.0590 C   0  0  0  0  0  3  0  0  0  0  0  0
  -16.8260  -29.6640   23.6210 C   0  0  0  0  0  3  0  0  0  0  0  0
  -16.9910  -28.4280   22.9710 C   0  0  0  0  0  3  0  0  0  0  0  0
  -26.0610  -32.2960   23.8650 C   0  0  0  0  0  3  0  0  0  0  0  0
  -26.6050  -31.4630   25.0920 C   0  0  1  0  0  0  0  0  0  0  0  0
  -25.5130  -31.0790   26.1160 C   0  0  0  0  0  1  0  0  0  0  0  0
  -27.2810  -30.1550   24.6130 C   0  0  0  0  0  1  0  0  0  0  0  0
  -27.6920  -32.2760   25.8360 C   0  0  0  0  0  1  0  0  0  0  0  0
  -25.6940  -33.6540   24.2850 N   0  0  0  0  0  0  0  0  0  0  0  0
  -25.9900  -34.7680   23.6010 C   0  0  0  0  0  0  0  0  0  0  0  0
  -26.6700  -34.7610   22.5720 O   0  0  0  0  0  0  0  0  0  0  0  0
  -25.0890  -33.7310   25.0890 H   0  0  0  0  0  0  0  0  0  0  0  0
  -24.1970  -36.5110   23.3440 C   0  0  0  0  0  1  0  0  0  0  0  0
  -25.4420  -36.1010   24.1450 C   0  0  0  0  0  3  0  0  0  0  0  0
  -27.5330  -37.0020   25.0610 C   0  0  0  0  0  1  0  0  0  0  0  0
  -26.4330  -37.1980   24.1210 N   0  0  0  0  0  0  0  0  0  0  0  0
  -25.9900  -38.0870   24.3380 H   0  0  0  0  0  0  0  0  0  0  0  0
  -29.3980  -16.1900   20.3430 C   0  0  0  0  0  3  0  0  0  0  0  0
  -30.8890  -14.1910   19.5880 C   0  0  0  0  0  0  0  0  0  0  0  0
  -30.6000  -11.9140   18.6260 C   0  0  0  0  0  2  0  0  0  0  0  0
  -29.6060  -11.9270   17.4460 C   0  0  0  0  0  2  0  0  0  0  0  0
  -28.1530  -11.7980   17.9460 C   0  0  0  0  0  2  0  0  0  0  0  0
  -27.8420  -12.7550   19.1240 C   0  0  0  0  0  3  0  0  0  0  0  0
  -28.9450  -12.6770   20.1980 C   0  0  0  0  0  2  0  0  0  0  0  0
  -30.2250  -12.9930   19.5630 N   0  0  0  0  0  0  0  0  0  0  0  0
  -31.9380  -14.3460   18.9610 O   0  0  0  0  0  0  0  0  0  0  0  0
  -30.4870  -15.1690   20.4400 N   0  0  0  0  0  0  0  0  0  0  0  0
  -31.3160  -15.7110   20.6470 H   0  0  0  0  0  0  0  0  0  0  0  0
  -25.4720  -13.4020   19.8790 C   0  0  0  0  0  0  0  0  0  0  0  0
  -24.4320  -12.6620   20.3640 C   0  0  0  0  0  0  0  0  0  0  0  0
  -24.8970  -11.3120   20.4130 C   0  0  0  0  0  0  0  0  0  0  0  0
  -26.5140  -12.5100   19.6780 N   0  0  0  0  0  0  0  0  0  0  0  0
  -26.1730  -11.2500   20.0520 N   0  0  0  0  0  0  0  0  0  0  0  0
  -24.1840  -10.0650   20.7190 C   0  0  0  0  0  0  0  0  0  0  0  0
  -24.6320   -9.1910   21.7360 C   0  0  0  0  0  3  0  0  0  0  0  0
  -23.9210   -8.0060   22.0230 C   0  0  0  0  0  3  0  0  0  0  0  0
  -22.7510   -7.6860   21.2950 C   0  0  0  0  0  0  0  0  0  0  0  0
  -22.3220   -8.5480   20.2690 C   0  0  0  0  0  3  0  0  0  0  0  0
  -23.0320   -9.7250   19.9830 C   0  0  0  0  0  3  0  0  0  0  0  0
  -22.0100   -6.5450   21.4880 O   0  0  0  0  0  0  0  0  0  0  0  0
  -21.9250   -5.9420   22.7190 C   0  0  0  0  0  0  0  0  0  0  0  0
  -21.4400   -6.6280   23.8530 C   0  0  0  0  0  3  0  0  0  0  0  0
  -21.3010   -5.9480   25.0790 C   0  0  0  0  0  3  0  0  0  0  0  0
  -21.6420   -4.5840   25.1720 C   0  0  0  0  0  0  0  0  0  0  0  0
  -22.1240   -3.9000   24.0420 C   0  0  0  0  0  3  0  0  0  0  0  0
  -22.2600   -4.5760   22.8190 C   0  0  0  0  0  0  0  0  0  0  0  0
  -22.7030   -3.9080   21.7260 F   0  0  0  0  0  0  0  0  0  0  0  0
  -21.5060   -3.9280   26.3480 F   0  0  0  0  0  0  0  0  0  0  0  0
  -23.0480  -13.1560   20.6700 C   0  0  0  0  0  0  0  0  0  0  0  0
  -22.3670  -12.5260   21.6200 N   0  0  0  0  0  0  0  0  0  0  0  0
  -22.5820  -14.1410   20.0970 O   0  0  0  0  0  0  0  0  0  0  0  0
  -22.7620  -11.7300   22.0980 H   0  0  0  0  0  0  0  0  0  0  0  0
  -21.4430  -12.8410   21.8720 H   0  0  0  0  0  0  0  0  0  0  0  0
  -25.6180  -14.7520   19.5660 N   0  0  0  0  0  0  0  0  0  0  0  0
  -24.7740  -15.3070   19.4700 H   0  0  0  0  0  0  0  0  0  0  0  0
  -26.3360  -15.0340   18.9120 H   0  0  0  0  0  0  0  0  0  0  0  0
  -28.4810  -16.0880   21.6480 C   0  0  0  0  0  3  0  0  0  0  0  0
  -27.3610  -17.0580   21.6300 N   0  0  0  0  0  4  0  0  0  0  0  0
  -26.7720  -16.9240   20.8250 H   0  0  0  0  0  0  0  0  0  0  0  0
  -27.6850  -18.0080   21.6520 H   0  0  0  0  0  0  0  0  0  0  0  0
  -26.7930  -16.9250   22.4500 H   0  0  0  0  0  0  0  0  0  0  0  0
  -26.5830  -14.2780   21.4650 C   0  0  0  0  0  1  0  0  0  0  0  0
  -28.9080  -13.5610   22.3060 C   0  0  0  0  0  1  0  0  0  0  0  0
  -27.8980  -14.7150   22.1380 C   0  0  0  0  0  3  0  0  0  0  0  0
  1  3  2  0
  2  1  1  0
  2  5  1  0
  4  2  1  0
  6  5  1  0
  6  7  1  0
  8  7  1  0
  8  9  1  0
 10  9  1  0
 11 22  2  0
 12 10  1  0
 12 17  1  0
 13 21  1  0
 13 23  1  0
 14 20  1  0
 14 16  1  0
 15 21  1  0
 16 17  2  0
 16 15  1  0
 18 12  2  0
 19 18  1  0
 19 14  2  0
 20 13  1  0
 21 11  1  0
 23 25  2  0
 24 23  1  0
 26 24  1  0
 27 36  2  0
 27 32  1  0
 28 24  1  0
 28 32  1  0
 29 28  1  0
 30 31  1  0
 30 29  1  0
 31 27  1  0
 32 33  2  0
 33 34  1  0
 35 34  2  0
 36 35  1  0
 37 11  1  0
 37 42  1  0
 37 38  1  0
 38 41  1  1
 38 39  1  0
 40 38  1  0
 42 45  1  0
 43 47  1  0
 43 42  1  0
 44 43  2  0
 47 46  1  0
 49 47  1  0
 49 50  1  0
 49 48  1  0
 51  1  1  0
 51 60  1  0
 51 90  1  0
 52 60  1  0
 53 58  1  0
 54 55  1  0
 54 53  1  0
 56 55  1  0
 56 65  1  0
 56 57  1  0
 58 52  1  0
 58 57  1  0
 59 52  2  0
 60 61  1  0
 62 63  2  0
 63 64  1  0
 63 82  1  0
 64 67  1  0
 65 62  1  0
 65 66  1  0
 66 64  2  0
 67 68  1  0
 68 69  2  0
 70 73  1  0
 70 69  1  0
 71 70  2  0
 72 71  1  0
 72 67  2  0
 73 74  1  0
 74 79  2  0
 74 75  1  0
 75 76  2  0
 76 77  1  0
 77 81  1  0
 78 77  2  0
 79 78  1  0
 80 79  1  0
 82 83  1  0
 83 86  1  0
 83 85  1  0
 84 82  2  0
 87 62  1  0
 88 87  1  0
 89 87  1  0
 90 97  1  0
 91 90  1  0
 91 93  1  0
 91 94  1  0
 92 91  1  0
 95 97  1  0
 97 96  1  0
M  ISO  4   9 101  10 101  52 100  60 100
M  END
>  <TORSDO>  (69) 
F 25

>  <SCORE>  (69) 
-5.058

>  <name>  (69) 
69

>  <ligand_id>  (69) 
69

>  <original_smiles>  (69) 
[H]c1c([H])c([H])c2c(c1[H])C([H])([H])C([H])([H])C([H])([H])C2([H])N([H])C(=O)C1([H])N(C(=O)C([H])(N([H])C(=O)C([H])(N([H])C([H])([H])[H])C([H])([H])[H])C(C([H])([H])[H])(C([H])([H])[H])C([H])([H])[H])C([H])([H])c2c([H])c(OC([H])([H])C([H])([H])OC([H])([H])C([H])([H])N([H])C(=O)C([H])(N([H])C(=O)N3C([H])([H])C([H])([H])C([H])([H])C([H])(n4nc(-c5c([H])c([H])c(Oc6c([H])c([H])c(F)c([H])c6F)c([H])c5[H])c(C(=O)N([H])[H])c4N([H])[H])C3([H])[H])C([H])(C([H])(C([H])([H])[H])C([H])([H])[H])[N+]([H])([H])[H])c([H])c([H])c2C1([H])[H]

>  <smiles>  (69) 
[H]c1c([H])c([H])c2c(c1[H])C([H])([H])C([H])([H])C([H])([H])C2([H])N([H])C(=O)C1([H])N(C(=O)C([H])(N([H])C(=O)C([H])(N([H])C([H])([H])[H])C([H])([H])[H])C(C([H])([H])[H])(C([H])([H])[H])C([H])([H])[H])C([H])([H])c2c([H])c(OC([H])([H])C([H])([H])OC([H])([H])C([H])([H])N([H])C(=O)C([H])(N([H])C(=O)N3C([H])([H])C([H])([H])C([H])([H])C([H])(n4nc(-c5c([H])c([H])c(Oc6c([H])c([H])c(F)c([H])c6F)c([H])c5[H])c(C(=O)N([H])[H])c4N([H])[H])C3([H])[H])C([H])(C([H])(C([H])([H])[H])C([H])([H])[H])[N+]([H])([H])[H])c([H])c([H])c2C1([H])[H]

$$$$
70:0:0
     RDKit          3D

 92 99  0  0  1  0  0  0  0  0999 V2000
  -29.0600  -19.8660   19.7060 C   0  0  0  0  0  0  0  0  0  0  0  0
  -28.9810  -21.2510   20.2540 N   0  0  0  0  0  0  0  0  0  0  0  0
  -28.5970  -19.7370   18.5730 O   0  0  0  0  0  0  0  0  0  0  0  0
  -29.3160  -21.2750   21.2100 H   0  0  0  0  0  0  0  0  0  0  0  0
  -28.6990  -22.8160   19.6890 C   0  0  0  0  0  2  0  0  0  0  0  0
  -27.9930  -24.3450   20.3730 C   0  0  0  0  0  2  0  0  0  0  0  0
  -28.1480  -25.9810   20.1090 O   0  0  0  0  0  0  0  0  0  0  0  0
  -24.5820  -31.9230   23.2180 C   0  0  0  0  0  0  0  0  0  0  0  0
  -27.1140  -27.0620   20.1410 C   0  0  0  0  0  0  0  0  0  0  0  0
  -23.3700  -30.5320   21.5880 C   0  0  0  0  0  3  0  0  0  0  0  0
  -24.8050  -28.9380   20.1390 C   0  0  0  0  0  0  0  0  0  0  0  0
  -25.9340  -30.7530   21.4050 C   0  0  0  0  0  2  0  0  0  0  0  0
  -26.0020  -29.3450   20.7420 C   0  0  0  0  0  0  0  0  0  0  0  0
  -27.1520  -28.4320   20.7100 C   0  0  0  0  0  3  0  0  0  0  0  0
  -25.8810  -26.8050   19.5010 C   0  0  0  0  0  3  0  0  0  0  0  0
  -24.7690  -27.6880   19.4980 C   0  0  0  0  0  3  0  0  0  0  0  0
  -23.5840  -29.8560   20.2060 C   0  0  0  0  0  2  0  0  0  0  0  0
  -24.6520  -31.0970   22.1240 N   0  0  0  0  0  0  0  0  0  0  0  0
  -23.4990  -32.2030   23.7570 O   0  0  0  0  0  0  0  0  0  0  0  0
  -22.6940  -29.5280   22.5580 C   0  0  0  0  0  0  0  0  0  0  0  0
  -21.3670  -29.3410   22.4350 N   0  0  0  0  0  0  0  0  0  0  0  0
  -23.3710  -28.9170   23.3890 O   0  0  0  0  0  0  0  0  0  0  0  0
  -20.8730  -29.8850   21.7420 H   0  0  0  0  0  0  0  0  0  0  0  0
  -18.0090  -28.0620   22.9420 C   0  0  0  0  0  0  0  0  0  0  0  0
  -20.5620  -28.3900   23.2100 C   0  0  0  0  0  3  0  0  0  0  0  0
  -20.6980  -26.9570   22.6450 C   0  0  0  0  0  2  0  0  0  0  0  0
  -19.6060  -26.6020   21.6300 C   0  0  0  0  0  2  0  0  0  0  0  0
  -18.2200  -26.7150   22.2700 C   0  0  0  0  0  2  0  0  0  0  0  0
  -19.1070  -28.8550   23.3690 C   0  0  0  0  0  0  0  0  0  0  0  0
  -18.8540  -30.1110   23.9590 C   0  0  0  0  0  3  0  0  0  0  0  0
  -17.5360  -30.5770   24.1260 C   0  0  0  0  0  3  0  0  0  0  0  0
  -16.4520  -29.7830   23.7130 C   0  0  0  0  0  3  0  0  0  0  0  0
  -16.6890  -28.5270   23.1270 C   0  0  0  0  0  3  0  0  0  0  0  0
  -25.8590  -32.5680   23.8380 C   0  0  0  0  0  3  0  0  0  0  0  0
  -25.5480  -33.9720   24.1580 N   0  0  0  0  0  0  0  0  0  0  0  0
  -25.8930  -35.0260   23.4070 C   0  0  0  0  0  0  0  0  0  0  0  0
  -26.5680  -34.9180   22.3800 O   0  0  0  0  0  0  0  0  0  0  0  0
  -24.9490  -34.1300   24.9560 H   0  0  0  0  0  0  0  0  0  0  0  0
  -24.1940  -36.8490   23.0380 C   0  0  0  0  0  1  0  0  0  0  0  0
  -25.4160  -36.4210   23.8650 C   0  0  0  0  0  3  0  0  0  0  0  0
  -27.5430  -37.2840   24.7410 C   0  0  0  0  0  1  0  0  0  0  0  0
  -26.4650  -37.4620   23.7720 N   0  0  0  0  0  0  0  0  0  0  0  0
  -26.0660  -38.3880   23.9080 H   0  0  0  0  0  0  0  0  0  0  0  0
  -26.3660  -31.8170   25.1310 C   0  0  1  0  0  0  0  0  0  0  0  0
  -25.2670  -31.6000   26.1980 C   0  0  0  0  0  1  0  0  0  0  0  0
  -26.9480  -30.4310   24.7730 C   0  0  0  0  0  1  0  0  0  0  0  0
  -27.5150  -32.6200   25.7850 C   0  0  0  0  0  1  0  0  0  0  0  0
  -29.7520  -18.3680   20.3320 C   0  0  0  0  0  0  0  0  0  0  0  0
  -30.3340  -15.4620   19.8720 C   0  0  0  0  0  0  0  0  0  0  0  0
  -30.2880  -13.0240   18.9530 C   0  0  0  0  0  2  0  0  0  0  0  0
  -29.2870  -12.7920   17.7920 C   0  0  0  0  0  2  0  0  0  0  0  0
  -27.8770  -12.4960   18.3320 C   0  0  0  0  0  2  0  0  0  0  0  0
  -27.4880  -13.4500   19.4890 C   0  0  0  0  0  3  0  0  0  0  0  0
  -28.6090  -13.6150   20.5360 C   0  0  0  0  0  2  0  0  0  0  0  0
  -29.7740  -14.1520   19.8130 N   0  0  0  0  0  0  0  0  0  0  0  0
  -31.5510  -15.4650   19.6390 O   0  0  0  0  0  0  0  0  0  0  0  0
  -29.5530  -16.7260   19.9950 N   0  0  0  0  0  4  0  0  0  0  0  0
  -28.5690  -16.5080   19.9690 H   0  0  0  0  0  0  0  0  0  0  0  0
  -25.1830  -13.9770   20.4400 C   0  0  0  0  0  0  0  0  0  0  0  0
  -24.1500  -13.1860   20.8570 C   0  0  0  0  0  0  0  0  0  0  0  0
  -24.6120  -11.8380   20.7420 C   0  0  0  0  0  0  0  0  0  0  0  0
  -26.2030  -13.1130   20.0870 N   0  0  0  0  0  0  0  0  0  0  0  0
  -25.8780  -11.8180   20.3380 N   0  0  0  0  0  0  0  0  0  0  0  0
  -23.8970  -10.5700   20.9350 C   0  0  0  0  0  0  0  0  0  0  0  0
  -24.3690   -9.5830   21.8290 C   0  0  0  0  0  3  0  0  0  0  0  0
  -23.6510   -8.3820   22.0130 C   0  0  0  0  0  3  0  0  0  0  0  0
  -22.4470   -8.1580   21.3040 C   0  0  0  0  0  0  0  0  0  0  0  0
  -21.9950   -9.1330   20.3980 C   0  0  0  0  0  3  0  0  0  0  0  0
  -22.7120  -10.3260   20.2120 C   0  0  0  0  0  3  0  0  0  0  0  0
  -21.6970   -7.0110   21.3990 O   0  0  0  0  0  0  0  0  0  0  0  0
  -21.6690   -6.2640   22.5500 C   0  0  0  0  0  0  0  0  0  0  0  0
  -21.2340   -6.8050   23.7790 C   0  0  0  0  0  3  0  0  0  0  0  0
  -21.1550   -5.9830   24.9210 C   0  0  0  0  0  3  0  0  0  0  0  0
  -21.5000   -4.6220   24.8350 C   0  0  0  0  0  0  0  0  0  0  0  0
  -21.9280   -4.0790   23.6100 C   0  0  0  0  0  3  0  0  0  0  0  0
  -22.0080   -4.8990   22.4700 C   0  0  0  0  0  0  0  0  0  0  0  0
  -22.4010   -4.3660   21.2880 F   0  0  0  0  0  0  0  0  0  0  0  0
  -21.4170   -3.8300   25.9290 F   0  0  0  0  0  0  0  0  0  0  0  0
  -22.7760  -13.6520   21.2380 C   0  0  0  0  0  0  0  0  0  0  0  0
  -22.1050  -12.9220   22.1210 N   0  0  0  0  0  0  0  0  0  0  0  0
  -22.3100  -14.6990   20.7880 O   0  0  0  0  0  0  0  0  0  0  0  0
  -22.4990  -12.0760   22.5050 H   0  0  0  0  0  0  0  0  0  0  0  0
  -21.1860  -13.2160   22.4200 H   0  0  0  0  0  0  0  0  0  0  0  0
  -25.3310  -15.3540   20.2990 N   0  0  0  0  0  0  0  0  0  0  0  0
  -24.5620  -15.9930   20.4730 H   0  0  0  0  0  0  0  0  0  0  0  0
  -26.1280  -15.8050   19.8720 H   0  0  0  0  0  0  0  0  0  0  0  0
  -29.8990  -18.5220   21.8690 C   0  0  0  0  0  2  0  0  0  0  0  0
  -31.2650  -18.1090   22.4220 C   0  0  0  0  0  0  0  0  0  0  0  0
  -31.3240  -17.0340   23.1990 N   0  0  0  0  0  0  0  0  0  0  0  0
  -32.2750  -18.7540   22.1460 O   0  0  0  0  0  0  0  0  0  0  0  0
  -30.4860  -16.5190   23.4340 H   0  0  0  0  0  0  0  0  0  0  0  0
  -32.2080  -16.7300   23.5830 H   0  0  0  0  0  0  0  0  0  0  0  0
  1  2  1  0
  1 48  1  0
  2  4  1  0
  3  1  2  0
  5  2  1  0
  5  6  1  0
  7  9  1  0
  7  6  1  0
  8 19  2  0
  9 14  1  0
 10 18  1  0
 10 20  1  0
 11 17  1  0
 11 13  1  0
 12 18  1  0
 13 12  1  0
 14 13  2  0
 15  9  2  0
 16 15  1  0
 16 11  2  0
 17 10  1  0
 18  8  1  0
 20 22  2  0
 21 20  1  0
 23 21  1  0
 24 33  2  0
 24 29  1  0
 25 21  1  0
 25 29  1  0
 26 25  1  0
 27 28  1  0
 27 26  1  0
 28 24  1  0
 29 30  2  0
 30 31  1  0
 32 31  2  0
 33 32  1  0
 34  8  1  0
 34 35  1  0
 34 44  1  0
 35 38  1  0
 36 40  1  0
 36 35  1  0
 37 36  2  0
 40 39  1  0
 42 40  1  0
 42 43  1  0
 42 41  1  0
 44 47  1  1
 44 45  1  0
 46 44  1  0
 48 87  1  0
 49 57  1  0
 50 55  1  0
 51 52  1  0
 51 50  1  0
 53 52  1  0
 53 62  1  0
 53 54  1  0
 55 49  1  0
 55 54  1  0
 56 49  2  0
 57 48  2  0
 58 57  1  0
 59 60  2  0
 60 79  1  0
 61 60  1  0
 61 64  1  0
 62 63  1  0
 62 59  1  0
 63 61  2  0
 64 65  1  0
 65 66  2  0
 67 70  1  0
 67 66  1  0
 68 67  2  0
 69 68  1  0
 69 64  2  0
 70 71  1  0
 71 72  1  0
 72 73  2  0
 74 73  1  0
 74 78  1  0
 75 74  2  0
 76 71  2  0
 76 75  1  0
 77 76  1  0
 79 80  1  0
 80 83  1  0
 80 82  1  0
 81 79  2  0
 84 59  1  0
 84 85  1  0
 86 84  1  0
 87 88  1  0
 88 89  1  0
 89 91  1  0
 89 92  1  0
 90 88  2  0
M  ISO  4   6 101   7 101  49 100  57 100
M  END
>  <TORSDO>  (70) 
F 21

>  <SCORE>  (70) 
-14.370

>  <name>  (70) 
70

>  <ligand_id>  (70) 
70

>  <original_smiles>  (70) 
[H]c1c([H])c([H])c2c(c1[H])C([H])([H])C([H])([H])C([H])([H])C2([H])N([H])C(=O)C1([H])N(C(=O)C([H])(N([H])C(=O)C([H])(N([H])C([H])([H])[H])C([H])([H])[H])C(C([H])([H])[H])(C([H])([H])[H])C([H])([H])[H])C([H])([H])c2c([H])c(OC([H])([H])C([H])([H])N([H])C(=O)C([H])(N([H])C(=O)N3C([H])([H])C([H])([H])C([H])([H])C([H])(n4nc(-c5c([H])c([H])c(Oc6c([H])c([H])c(F)c([H])c6F)c([H])c5[H])c(C(=O)N([H])[H])c4N([H])[H])C3([H])[H])C([H])([H])C(=O)N([H])[H])c([H])c([H])c2C1([H])[H]

>  <smiles>  (70) 
[H]c1c([H])c([H])c2c(c1[H])C([H])([H])C([H])([H])C([H])([H])C2([H])N([H])C(=O)C1([H])N(C(=O)C([H])(N([H])C(=O)C([H])(N([H])C([H])([H])[H])C([H])([H])[H])C(C([H])([H])[H])(C([H])([H])[H])C([H])([H])[H])C([H])([H])c2c([H])c(OC([H])([H])C([H])([H])N([H])C(=O)C([H])(N([H])C(=O)N3C([H])([H])C([H])([H])C([H])([H])C([H])(n4nc(-c5c([H])c([H])c(Oc6c([H])c([H])c(F)c([H])c6F)c([H])c5[H])c(C(=O)N([H])[H])c4N([H])[H])C3([H])[H])C([H])([H])C(=O)N([H])[H])c([H])c([H])c2C1([H])[H]

$$$$
71:0:0
     RDKit          3D

 91 98  0  0  1  0  0  0  0  0999 V2000
  -29.5540  -19.8660   20.8120 O   0  0  0  0  0  0  0  0  0  0  0  0
  -28.8140  -20.9610   20.1470 C   0  0  0  0  0  2  0  0  0  0  0  0
  -28.8950  -22.4250   20.8150 C   0  0  0  0  0  2  0  0  0  0  0  0
  -28.6150  -23.7850   19.9870 C   0  0  0  0  0  3  0  0  0  0  0  0
  -28.2400  -25.1310   20.7970 C   0  0  0  0  0  3  0  0  0  0  0  0
  -28.3270  -26.4940   20.1980 O   0  0  0  0  0  0  0  0  0  0  0  0
  -24.5770  -31.9100   23.2510 C   0  0  0  0  0  0  0  0  0  0  0  0
  -27.2010  -27.3340   20.2140 C   0  0  0  0  0  0  0  0  0  0  0  0
  -23.3770  -30.5030   21.6140 C   0  0  0  0  0  3  0  0  0  0  0  0
  -24.8320  -28.9470   20.1960 C   0  0  0  0  0  0  0  0  0  0  0  0
  -25.9160  -30.8240   21.4320 C   0  0  0  0  0  2  0  0  0  0  0  0
  -26.0020  -29.4420   20.7880 C   0  0  0  0  0  0  0  0  0  0  0  0
  -27.1920  -28.6510   20.7770 C   0  0  0  0  0  3  0  0  0  0  0  0
  -26.0090  -26.8850   19.6100 C   0  0  0  0  0  3  0  0  0  0  0  0
  -24.8390  -27.6770   19.5970 C   0  0  0  0  0  3  0  0  0  0  0  0
  -23.5910  -29.8180   20.2390 C   0  0  0  0  0  2  0  0  0  0  0  0
  -24.6420  -31.0980   22.1550 N   0  0  0  0  0  0  0  0  0  0  0  0
  -23.4950  -32.1930   23.7850 O   0  0  0  0  0  0  0  0  0  0  0  0
  -22.7130  -29.4950   22.5790 C   0  0  0  0  0  0  0  0  0  0  0  0
  -21.3850  -29.3230   22.4550 N   0  0  0  0  0  0  0  0  0  0  0  0
  -23.3880  -28.8670   23.3990 O   0  0  0  0  0  0  0  0  0  0  0  0
  -20.9020  -29.8690   21.7570 H   0  0  0  0  0  0  0  0  0  0  0  0
  -18.0050  -28.1370   22.9500 C   0  0  0  0  0  0  0  0  0  0  0  0
  -20.5640  -28.3890   23.2260 C   0  0  0  0  0  3  0  0  0  0  0  0
  -20.6600  -26.9580   22.6490 C   0  0  0  0  0  2  0  0  0  0  0  0
  -19.5610  -26.6460   21.6270 C   0  0  0  0  0  2  0  0  0  0  0  0
  -18.1820  -26.7860   22.2750 C   0  0  0  0  0  2  0  0  0  0  0  0
  -19.1260  -28.8970   23.3780 C   0  0  0  0  0  0  0  0  0  0  0  0
  -18.9090  -30.1630   23.9650 C   0  0  0  0  0  3  0  0  0  0  0  0
  -17.6070  -30.6660   24.1300 C   0  0  0  0  0  3  0  0  0  0  0  0
  -16.5000  -29.9000   23.7230 C   0  0  0  0  0  3  0  0  0  0  0  0
  -16.7000  -28.6380   23.1370 C   0  0  0  0  0  3  0  0  0  0  0  0
  -25.8630  -32.5410   23.8760 C   0  0  0  0  0  3  0  0  0  0  0  0
  -25.5600  -33.9440   24.1910 N   0  0  0  0  0  0  0  0  0  0  0  0
  -25.9020  -34.9910   23.4280 C   0  0  0  0  0  0  0  0  0  0  0  0
  -26.5800  -34.8790   22.4020 O   0  0  0  0  0  0  0  0  0  0  0  0
  -24.9490  -34.1040   24.9790 H   0  0  0  0  0  0  0  0  0  0  0  0
  -24.1850  -36.7940   23.0540 C   0  0  0  0  0  1  0  0  0  0  0  0
  -25.4170  -36.3830   23.8770 C   0  0  0  0  0  3  0  0  0  0  0  0
  -27.5440  -37.2620   24.7300 C   0  0  0  0  0  1  0  0  0  0  0  0
  -26.4540  -37.4300   23.7710 N   0  0  0  0  0  0  0  0  0  0  0  0
  -26.0490  -38.3500   23.9160 H   0  0  0  0  0  0  0  0  0  0  0  0
  -26.3700  -31.7800   25.1620 C   0  0  1  0  0  0  0  0  0  0  0  0
  -25.2700  -31.5610   26.2250 C   0  0  0  0  0  1  0  0  0  0  0  0
  -26.9460  -30.3940   24.7880 C   0  0  0  0  0  1  0  0  0  0  0  0
  -27.5180  -32.5770   25.8260 C   0  0  0  0  0  1  0  0  0  0  0  0
  -29.0730  -18.4580   20.8260 C   0  0  0  0  0  2  0  0  0  0  0  0
  -30.0550  -17.2860   20.3070 C   0  0  0  0  0  3  0  0  0  0  0  0
  -30.5790  -14.7560   20.5620 C   0  0  0  0  0  0  0  0  0  0  0  0
  -30.4290  -12.4880   19.5550 C   0  0  0  0  0  2  0  0  0  0  0  0
  -29.5390  -12.6000   18.2950 C   0  0  0  0  0  2  0  0  0  0  0  0
  -28.0570  -12.4090   18.6750 C   0  0  0  0  0  2  0  0  0  0  0  0
  -27.6400  -13.2970   19.8770 C   0  0  0  0  0  3  0  0  0  0  0  0
  -28.6510  -13.1860   21.0370 C   0  0  0  0  0  2  0  0  0  0  0  0
  -29.9740  -13.5240   20.5030 N   0  0  0  0  0  0  0  0  0  0  0  0
  -31.7610  -14.8860   20.2330 O   0  0  0  0  0  0  0  0  0  0  0  0
  -29.7810  -15.8590   20.7690 N   0  0  0  0  0  0  0  0  0  0  0  0
  -28.8230  -15.6590   21.0180 H   0  0  0  0  0  0  0  0  0  0  0  0
  -25.2230  -13.8970   20.5010 C   0  0  0  0  0  0  0  0  0  0  0  0
  -24.1470  -13.1270   20.8480 C   0  0  0  0  0  0  0  0  0  0  0  0
  -24.6140  -11.7770   20.8580 C   0  0  0  0  0  0  0  0  0  0  0  0
  -26.2780  -13.0180   20.3190 N   0  0  0  0  0  0  0  0  0  0  0  0
  -25.9160  -11.7390   20.5970 N   0  0  0  0  0  0  0  0  0  0  0  0
  -23.8860  -10.5150   21.0420 C   0  0  0  0  0  0  0  0  0  0  0  0
  -24.2890   -9.5590   22.0000 C   0  0  0  0  0  3  0  0  0  0  0  0
  -23.5580   -8.3620   22.1730 C   0  0  0  0  0  3  0  0  0  0  0  0
  -22.4090   -8.1140   21.3860 C   0  0  0  0  0  0  0  0  0  0  0  0
  -22.0240   -9.0580   20.4160 C   0  0  0  0  0  3  0  0  0  0  0  0
  -22.7570  -10.2450   20.2420 C   0  0  0  0  0  3  0  0  0  0  0  0
  -21.6500   -6.9700   21.4660 O   0  0  0  0  0  0  0  0  0  0  0  0
  -21.5720   -6.2380   22.6240 C   0  0  0  0  0  0  0  0  0  0  0  0
  -21.1140   -6.8050   23.8330 C   0  0  0  0  0  3  0  0  0  0  0  0
  -20.9880   -6.0000   24.9830 C   0  0  0  0  0  3  0  0  0  0  0  0
  -21.3040   -4.6290   24.9220 C   0  0  0  0  0  0  0  0  0  0  0  0
  -21.7520   -4.0620   23.7160 C   0  0  0  0  0  3  0  0  0  0  0  0
  -21.8830   -4.8640   22.5690 C   0  0  0  0  0  0  0  0  0  0  0  0
  -22.2960   -4.3090   21.4030 F   0  0  0  0  0  0  0  0  0  0  0  0
  -21.1730   -3.8530   26.0230 F   0  0  0  0  0  0  0  0  0  0  0  0
  -22.7380  -13.6030   21.0590 C   0  0  0  0  0  0  0  0  0  0  0  0
  -21.9790  -12.9170   21.9080 N   0  0  0  0  0  0  0  0  0  0  0  0
  -22.3190  -14.6190   20.5060 O   0  0  0  0  0  0  0  0  0  0  0  0
  -22.3280  -12.0920   22.3730 H   0  0  0  0  0  0  0  0  0  0  0  0
  -21.0360  -13.2240   22.0970 H   0  0  0  0  0  0  0  0  0  0  0  0
  -25.3930  -15.2650   20.2990 N   0  0  0  0  0  0  0  0  0  0  0  0
  -24.6140  -15.9160   20.3330 H   0  0  0  0  0  0  0  0  0  0  0  0
  -26.2410  -15.6850   19.9400 H   0  0  0  0  0  0  0  0  0  0  0  0
  -29.9990  -17.2850   18.7650 C   0  0  0  0  0  0  0  0  0  0  0  0
  -30.8170  -18.1020   18.1160 N   0  0  0  0  0  0  0  0  0  0  0  0
  -29.2080  -16.5590   18.1570 O   0  0  0  0  0  0  0  0  0  0  0  0
  -31.4240  -18.7220   18.6350 H   0  0  0  0  0  0  0  0  0  0  0  0
  -30.8230  -18.1360   17.1070 H   0  0  0  0  0  0  0  0  0  0  0  0
  1 47  1  0
  2  1  1  0
  2  3  1  0
  4  5  2  0
  4  3  1  0
  6  8  1  0
  6  5  1  0
  7 18  2  0
  8 13  1  0
  9 17  1  0
  9 19  1  0
 10 16  1  0
 10 12  1  0
 11 17  1  0
 12 11  1  0
 13 12  2  0
 14  8  2  0
 15 14  1  0
 15 10  2  0
 16  9  1  0
 17  7  1  0
 19 21  2  0
 20 19  1  0
 22 20  1  0
 23 32  2  0
 23 28  1  0
 24 20  1  0
 24 28  1  0
 25 24  1  0
 26 27  1  0
 26 25  1  0
 27 23  1  0
 28 29  2  0
 29 30  1  0
 31 30  2  0
 32 31  1  0
 33  7  1  0
 33 34  1  0
 33 43  1  0
 34 37  1  0
 35 39  1  0
 35 34  1  0
 36 35  2  0
 39 38  1  0
 41 39  1  0
 41 42  1  0
 41 40  1  0
 43 46  1  1
 43 44  1  0
 45 43  1  0
 48 57  1  0
 48 47  1  0
 49 57  1  0
 50 55  1  0
 51 52  1  0
 51 50  1  0
 53 52  1  0
 53 62  1  0
 53 54  1  0
 55 49  1  0
 55 54  1  0
 56 49  2  0
 57 58  1  0
 59 60  2  0
 60 61  1  0
 60 79  1  0
 61 64  1  0
 62 59  1  0
 62 63  1  0
 63 61  2  0
 64 65  1  0
 65 66  2  0
 67 70  1  0
 67 66  1  0
 68 67  2  0
 69 68  1  0
 69 64  2  0
 70 71  1  0
 71 72  1  0
 72 73  2  0
 74 73  1  0
 74 78  1  0
 75 74  2  0
 76 71  2  0
 76 75  1  0
 77 76  1  0
 79 80  1  0
 80 83  1  0
 80 82  1  0
 81 79  2  0
 84 85  1  0
 84 59  1  0
 86 84  1  0
 87 48  1  0
 88 90  1  0
 88 87  1  0
 89 87  2  0
 91 88  1  0
M  ISO  4   5 101   6 101  49 100  57 100
M  END
>  <TORSDO>  (71) 
F 23

>  <SCORE>  (71) 
-12.176

>  <name>  (71) 
71

>  <ligand_id>  (71) 
71

>  <original_smiles>  (71) 
[H]c1c([H])c([H])c2c(c1[H])C([H])([H])C([H])([H])C([H])([H])C2([H])N([H])C(=O)C1([H])N(C(=O)C([H])(N([H])C(=O)C([H])(N([H])C([H])([H])[H])C([H])([H])[H])C(C([H])([H])[H])(C([H])([H])[H])C([H])([H])[H])C([H])([H])c2c([H])c(OC([H])([H])C([H])([H])C([H])([H])C([H])([H])OC([H])([H])C([H])(C(=O)N([H])[H])N([H])C(=O)N3C([H])([H])C([H])([H])C([H])([H])C([H])(n4nc(-c5c([H])c([H])c(Oc6c([H])c([H])c(F)c([H])c6F)c([H])c5[H])c(C(=O)N([H])[H])c4N([H])[H])C3([H])[H])c([H])c([H])c2C1([H])[H]

>  <smiles>  (71) 
[H]c1c([H])c([H])c2c(c1[H])C([H])([H])C([H])([H])C([H])([H])C2([H])N([H])C(=O)C1([H])N(C(=O)C([H])(N([H])C(=O)C([H])(N([H])C([H])([H])[H])C([H])([H])[H])C(C([H])([H])[H])(C([H])([H])[H])C([H])([H])[H])C([H])([H])c2c([H])c(OC([H])([H])C([H])([H])C([H])([H])C([H])([H])OC([H])([H])C([H])(C(=O)N([H])[H])N([H])C(=O)N3C([H])([H])C([H])([H])C([H])([H])C([H])(n4nc(-c5c([H])c([H])c(Oc6c([H])c([H])c(F)c([H])c6F)c([H])c5[H])c(C(=O)N([H])[H])c4N([H])[H])C3([H])[H])c([H])c([H])c2C1([H])[H]

$$$$
72:0:0
     RDKit          3D

 90 97  0  0  1  0  0  0  0  0999 V2000
  -29.1660  -20.5720   21.1000 C   0  0  0  0  0  2  0  0  0  0  0  0
  -29.4860  -18.1030   20.7590 C   0  0  0  0  0  0  0  0  0  0  0  0
  -29.9010  -19.3790   20.6540 N   0  0  0  0  0  0  0  0  0  0  0  0
  -28.4340  -17.7870   21.3180 O   0  0  0  0  0  0  0  0  0  0  0  0
  -30.7850  -19.5360   20.1880 H   0  0  0  0  0  0  0  0  0  0  0  0
  -30.3920  -17.2120   18.5580 C   0  0  0  0  0  1  0  0  0  0  0  0
  -30.3640  -17.0220   20.0940 C   0  0  0  0  0  3  0  0  0  0  0  0
  -30.6970  -14.5390   20.1720 C   0  0  0  0  0  0  0  0  0  0  0  0
  -30.3410  -12.3850   19.0480 C   0  0  0  0  0  2  0  0  0  0  0  0
  -29.3680  -12.6190   17.8720 C   0  0  0  0  0  2  0  0  0  0  0  0
  -27.9080  -12.4860   18.3450 C   0  0  0  0  0  2  0  0  0  0  0  0
  -27.6130  -13.2980   19.6340 C   0  0  0  0  0  3  0  0  0  0  0  0
  -28.7070  -13.0840   20.7090 C   0  0  0  0  0  2  0  0  0  0  0  0
  -30.0100  -13.3680   20.0910 N   0  0  0  0  0  0  0  0  0  0  0  0
  -31.8570  -14.6570   19.7720 O   0  0  0  0  0  0  0  0  0  0  0  0
  -29.9620  -15.6370   20.4330 N   0  0  0  0  0  0  0  0  0  0  0  0
  -29.0170  -15.5190   20.7670 H   0  0  0  0  0  0  0  0  0  0  0  0
  -25.2290  -13.8830   20.4010 C   0  0  0  0  0  0  0  0  0  0  0  0
  -24.1780  -13.1020   20.7990 C   0  0  0  0  0  0  0  0  0  0  0  0
  -24.6520  -11.7550   20.7650 C   0  0  0  0  0  0  0  0  0  0  0  0
  -26.2770  -13.0120   20.1500 N   0  0  0  0  0  0  0  0  0  0  0  0
  -25.9360  -11.7270   20.4270 N   0  0  0  0  0  0  0  0  0  0  0  0
  -23.9440  -10.4870   20.9790 C   0  0  0  0  0  0  0  0  0  0  0  0
  -24.4010   -9.5330   21.9140 C   0  0  0  0  0  3  0  0  0  0  0  0
  -23.6910   -8.3300   22.1130 C   0  0  0  0  0  3  0  0  0  0  0  0
  -22.5100   -8.0720   21.3780 C   0  0  0  0  0  0  0  0  0  0  0  0
  -22.0720   -9.0150   20.4320 C   0  0  0  0  0  3  0  0  0  0  0  0
  -22.7830  -10.2100   20.2310 C   0  0  0  0  0  3  0  0  0  0  0  0
  -21.7690   -6.9200   21.4880 O   0  0  0  0  0  0  0  0  0  0  0  0
  -21.7380   -6.1920   22.6510 C   0  0  0  0  0  0  0  0  0  0  0  0
  -21.3190   -6.7590   23.8740 C   0  0  0  0  0  3  0  0  0  0  0  0
  -21.2340   -5.9560   25.0290 C   0  0  0  0  0  3  0  0  0  0  0  0
  -21.5580   -4.5890   24.9630 C   0  0  0  0  0  0  0  0  0  0  0  0
  -21.9710   -4.0220   23.7450 C   0  0  0  0  0  3  0  0  0  0  0  0
  -22.0560   -4.8210   22.5910 C   0  0  0  0  0  0  0  0  0  0  0  0
  -22.4340   -4.2640   21.4140 F   0  0  0  0  0  0  0  0  0  0  0  0
  -21.4710   -3.8150   26.0700 F   0  0  0  0  0  0  0  0  0  0  0  0
  -22.7830  -13.5680   21.1020 C   0  0  0  0  0  0  0  0  0  0  0  0
  -22.0830  -12.8710   21.9900 N   0  0  0  0  0  0  0  0  0  0  0  0
  -22.3240  -14.5860   20.5870 O   0  0  0  0  0  0  0  0  0  0  0  0
  -22.4690  -12.0480   22.4300 H   0  0  0  0  0  0  0  0  0  0  0  0
  -21.1490  -13.1690   22.2360 H   0  0  0  0  0  0  0  0  0  0  0  0
  -25.3750  -15.2540   20.2150 N   0  0  0  0  0  0  0  0  0  0  0  0
  -24.6070  -15.9010   20.3540 H   0  0  0  0  0  0  0  0  0  0  0  0
  -26.2160  -15.7100   19.8840 H   0  0  0  0  0  0  0  0  0  0  0  0
  -29.7660  -21.8980   20.5540 C   0  0  0  0  0  2  0  0  0  0  0  0
  -28.9280  -23.0010   20.9160 O   0  0  0  0  0  0  0  0  0  0  0  0
  -29.3590  -24.3000   20.4720 C   0  0  0  0  0  2  0  0  0  0  0  0
  -28.1920  -25.2970   20.6800 C   0  0  0  0  0  2  0  0  0  0  0  0
  -28.4130  -26.6570   20.2300 O   0  0  0  0  0  0  0  0  0  0  0  0
  -24.6310  -31.9120   23.2590 C   0  0  0  0  0  0  0  0  0  0  0  0
  -27.2690  -27.4390   20.2000 C   0  0  0  0  0  0  0  0  0  0  0  0
  -23.4270  -30.5050   21.6220 C   0  0  0  0  0  3  0  0  0  0  0  0
  -24.8820  -28.9700   20.2010 C   0  0  0  0  0  0  0  0  0  0  0  0
  -25.9570  -30.8580   21.4300 C   0  0  0  0  0  2  0  0  0  0  0  0
  -26.0430  -29.4860   20.7910 C   0  0  0  0  0  0  0  0  0  0  0  0
  -27.2420  -28.7280   20.7870 C   0  0  0  0  0  3  0  0  0  0  0  0
  -26.0920  -26.9580   19.5810 C   0  0  0  0  0  3  0  0  0  0  0  0
  -24.9020  -27.7060   19.5940 C   0  0  0  0  0  3  0  0  0  0  0  0
  -23.6380  -29.8260   20.2440 C   0  0  0  0  0  2  0  0  0  0  0  0
  -24.6890  -31.1070   22.1610 N   0  0  0  0  0  0  0  0  0  0  0  0
  -23.5480  -32.1860   23.7970 O   0  0  0  0  0  0  0  0  0  0  0  0
  -22.7760  -29.4850   22.5830 C   0  0  0  0  0  0  0  0  0  0  0  0
  -21.4510  -29.3010   22.4570 N   0  0  0  0  0  0  0  0  0  0  0  0
  -23.4590  -28.8630   23.4010 O   0  0  0  0  0  0  0  0  0  0  0  0
  -20.9610  -29.8520   21.7660 H   0  0  0  0  0  0  0  0  0  0  0  0
  -18.0760  -28.1040   22.9550 C   0  0  0  0  0  0  0  0  0  0  0  0
  -20.6340  -28.3650   23.2310 C   0  0  0  0  0  3  0  0  0  0  0  0
  -20.7400  -26.9310   22.6620 C   0  0  0  0  0  2  0  0  0  0  0  0
  -19.6390  -26.6040   21.6480 C   0  0  0  0  0  2  0  0  0  0  0  0
  -18.2550  -26.7510   22.2880 C   0  0  0  0  0  2  0  0  0  0  0  0
  -19.1940  -28.8690   23.3830 C   0  0  0  0  0  0  0  0  0  0  0  0
  -18.9720  -30.1370   23.9650 C   0  0  0  0  0  3  0  0  0  0  0  0
  -17.6670  -30.6380   24.1250 C   0  0  0  0  0  3  0  0  0  0  0  0
  -16.5640  -29.8690   23.7140 C   0  0  0  0  0  3  0  0  0  0  0  0
  -16.7700  -28.6040   23.1340 C   0  0  0  0  0  3  0  0  0  0  0  0
  -25.9150  -32.5480   23.8740 C   0  0  0  0  0  3  0  0  0  0  0  0
  -25.6040  -33.9460   24.2020 N   0  0  0  0  0  0  0  0  0  0  0  0
  -25.9330  -34.9960   23.4380 C   0  0  0  0  0  0  0  0  0  0  0  0
  -26.6040  -34.8920   22.4070 O   0  0  0  0  0  0  0  0  0  0  0  0
  -25.0090  -34.1010   25.0030 H   0  0  0  0  0  0  0  0  0  0  0  0
  -24.2010  -36.7850   23.0770 C   0  0  0  0  0  1  0  0  0  0  0  0
  -25.4420  -36.3850   23.8920 C   0  0  0  0  0  3  0  0  0  0  0  0
  -27.5730  -37.2750   24.7250 C   0  0  0  0  0  1  0  0  0  0  0  0
  -26.4730  -37.4400   23.7790 N   0  0  0  0  0  0  0  0  0  0  0  0
  -26.0640  -38.3590   23.9260 H   0  0  0  0  0  0  0  0  0  0  0  0
  -26.4380  -31.7790   25.1500 C   0  0  1  0  0  0  0  0  0  0  0  0
  -25.3510  -31.5390   26.2220 C   0  0  0  0  0  1  0  0  0  0  0  0
  -27.0250  -30.4030   24.7580 C   0  0  0  0  0  1  0  0  0  0  0  0
  -27.5880  -32.5790   25.8080 C   0  0  0  0  0  1  0  0  0  0  0  0
  2  4  2  0
  3  2  1  0
  3  1  1  0
  5  3  1  0
  7  6  1  0
  7 16  1  0
  7  2  1  0
  8 16  1  0
  9 14  1  0
 10 11  1  0
 10  9  1  0
 12 11  1  0
 12 21  1  0
 12 13  1  0
 14  8  1  0
 14 13  1  0
 15  8  2  0
 16 17  1  0
 18 19  2  0
 19 38  1  0
 20 19  1  0
 20 23  1  0
 21 18  1  0
 21 22  1  0
 22 20  2  0
 23 24  1  0
 24 25  2  0
 26 29  1  0
 26 25  1  0
 27 26  2  0
 28 27  1  0
 28 23  2  0
 29 30  1  0
 30 31  1  0
 31 32  2  0
 33 32  1  0
 33 37  1  0
 34 33  2  0
 35 30  2  0
 35 34  1  0
 36 35  1  0
 38 39  1  0
 39 42  1  0
 39 41  1  0
 40 38  2  0
 43 44  1  0
 43 18  1  0
 45 43  1  0
 46 47  1  0
 46  1  1  0
 48 49  1  0
 48 47  1  0
 50 49  1  0
 51 62  2  0
 52 50  1  0
 52 57  1  0
 53 61  1  0
 53 63  1  0
 54 60  1  0
 54 56  1  0
 55 61  1  0
 56 55  1  0
 57 56  2  0
 58 59  1  0
 58 52  2  0
 59 54  2  0
 60 53  1  0
 61 51  1  0
 63 65  2  0
 64 63  1  0
 66 64  1  0
 67 76  2  0
 67 72  1  0
 68 64  1  0
 68 72  1  0
 69 68  1  0
 70 71  1  0
 70 69  1  0
 71 67  1  0
 72 73  2  0
 73 74  1  0
 75 74  2  0
 76 75  1  0
 77 51  1  0
 77 78  1  0
 77 87  1  0
 78 81  1  0
 79 83  1  0
 79 78  1  0
 80 79  2  0
 83 82  1  0
 85 83  1  0
 85 86  1  0
 85 84  1  0
 87 90  1  1
 87 88  1  0
 89 87  1  0
M  ISO  4   8 100  16 100  49 101  50 101
M  END
>  <TORSDO>  (72) 
F 22

>  <SCORE>  (72) 
-12.660

>  <name>  (72) 
72

>  <ligand_id>  (72) 
72

>  <original_smiles>  (72) 
[H]c1c([H])c([H])c2c(c1[H])C([H])([H])C([H])([H])C([H])([H])C2([H])N([H])C(=O)C1([H])N(C(=O)C([H])(N([H])C(=O)C([H])(N([H])C([H])([H])[H])C([H])([H])[H])C(C([H])([H])[H])(C([H])([H])[H])C([H])([H])[H])C([H])([H])c2c([H])c(OC([H])([H])C([H])([H])OC([H])([H])C([H])([H])N([H])C(=O)C([H])(N([H])C(=O)N3C([H])([H])C([H])([H])C([H])([H])C([H])(n4nc(-c5c([H])c([H])c(Oc6c([H])c([H])c(F)c([H])c6F)c([H])c5[H])c(C(=O)N([H])[H])c4N([H])[H])C3([H])[H])C([H])([H])[H])c([H])c([H])c2C1([H])[H]

>  <smiles>  (72) 
[H]c1c([H])c([H])c2c(c1[H])C([H])([H])C([H])([H])C([H])([H])C2([H])N([H])C(=O)C1([H])N(C(=O)C([H])(N([H])C(=O)C([H])(N([H])C([H])([H])[H])C([H])([H])[H])C(C([H])([H])[H])(C([H])([H])[H])C([H])([H])[H])C([H])([H])c2c([H])c(OC([H])([H])C([H])([H])OC([H])([H])C([H])([H])N([H])C(=O)C([H])(N([H])C(=O)N3C([H])([H])C([H])([H])C([H])([H])C([H])(n4nc(-c5c([H])c([H])c(Oc6c([H])c([H])c(F)c([H])c6F)c([H])c5[H])c(C(=O)N([H])[H])c4N([H])[H])C3([H])[H])C([H])([H])[H])c([H])c([H])c2C1([H])[H]

$$$$
73:0:0
     RDKit          3D

 91 98  0  0  1  0  0  0  0  0999 V2000
  -28.6760  -20.3500   20.3170 C   0  0  0  0  0  3  0  0  0  0  0  0
  -27.5580  -20.0710   19.4000 N   0  0  0  0  0  4  0  0  0  0  0  0
  -27.8530  -20.1580   18.4440 H   0  0  0  0  0  0  0  0  0  0  0  0
  -26.7990  -20.7080   19.5590 H   0  0  0  0  0  0  0  0  0  0  0  0
  -27.2110  -19.1390   19.5400 H   0  0  0  0  0  0  0  0  0  0  0  0
  -28.9170  -22.2640   20.2570 C   0  0  0  0  0  3  0  0  0  0  0  0
  -27.9150  -23.9130   20.2650 C   0  0  0  0  0  3  0  0  0  0  0  0
  -28.1120  -25.6490   20.3010 O   0  0  0  0  0  0  0  0  0  0  0  0
  -24.6300  -31.9110   23.2310 C   0  0  0  0  0  0  0  0  0  0  0  0
  -27.1270  -26.8380   20.2580 C   0  0  0  0  0  0  0  0  0  0  0  0
  -23.4270  -30.5080   21.6100 C   0  0  0  0  0  3  0  0  0  0  0  0
  -24.8580  -28.8520   20.2000 C   0  0  0  0  0  0  0  0  0  0  0  0
  -26.0020  -30.6530   21.4660 C   0  0  0  0  0  2  0  0  0  0  0  0
  -26.0580  -29.2180   20.8210 C   0  0  0  0  0  0  0  0  0  0  0  0
  -27.1790  -28.2390   20.8170 C   0  0  0  0  0  3  0  0  0  0  0  0
  -25.8910  -26.6700   19.5850 C   0  0  0  0  0  3  0  0  0  0  0  0
  -24.8110  -27.6020   19.5600 C   0  0  0  0  0  3  0  0  0  0  0  0
  -23.6540  -29.8040   20.2430 C   0  0  0  0  0  2  0  0  0  0  0  0
  -24.7100  -31.0560   22.1550 N   0  0  0  0  0  0  0  0  0  0  0  0
  -23.5430  -32.2180   23.7470 O   0  0  0  0  0  0  0  0  0  0  0  0
  -22.7160  -29.5380   22.5910 C   0  0  0  0  0  0  0  0  0  0  0  0
  -21.3840  -29.3750   22.4650 N   0  0  0  0  0  0  0  0  0  0  0  0
  -23.3720  -28.9290   23.4390 O   0  0  0  0  0  0  0  0  0  0  0  0
  -20.9050  -29.9170   21.7590 H   0  0  0  0  0  0  0  0  0  0  0  0
  -18.0030  -28.1520   22.9800 C   0  0  0  0  0  0  0  0  0  0  0  0
  -20.5600  -28.4460   23.2470 C   0  0  0  0  0  3  0  0  0  0  0  0
  -20.6740  -27.0050   22.6970 C   0  0  0  0  0  2  0  0  0  0  0  0
  -19.5800  -26.6580   21.6820 C   0  0  0  0  0  2  0  0  0  0  0  0
  -18.1940  -26.7980   22.3200 C   0  0  0  0  0  2  0  0  0  0  0  0
  -19.1130  -28.9330   23.4010 C   0  0  0  0  0  0  0  0  0  0  0  0
  -18.8780  -30.1960   23.9840 C   0  0  0  0  0  3  0  0  0  0  0  0
  -17.5670  -30.6820   24.1480 C   0  0  0  0  0  3  0  0  0  0  0  0
  -16.4710  -29.9010   23.7400 C   0  0  0  0  0  3  0  0  0  0  0  0
  -16.6900  -28.6370   23.1620 C   0  0  0  0  0  3  0  0  0  0  0  0
  -25.9030  -32.5590   23.8590 C   0  0  0  0  0  3  0  0  0  0  0  0
  -26.4050  -31.8060   25.1530 C   0  0  1  0  0  0  0  0  0  0  0  0
  -25.3030  -31.5940   26.2190 C   0  0  0  0  0  1  0  0  0  0  0  0
  -26.9820  -30.4170   24.7980 C   0  0  0  0  0  1  0  0  0  0  0  0
  -27.5560  -32.6020   25.8100 C   0  0  0  0  0  1  0  0  0  0  0  0
  -25.5880  -33.9630   24.1890 N   0  0  0  0  0  0  0  0  0  0  0  0
  -25.9070  -35.0240   23.4340 C   0  0  0  0  0  0  0  0  0  0  0  0
  -26.5580  -34.9230   22.3910 O   0  0  0  0  0  0  0  0  0  0  0  0
  -25.0040  -34.1140   24.9990 H   0  0  0  0  0  0  0  0  0  0  0  0
  -24.1750  -36.8310   23.1350 C   0  0  0  0  0  1  0  0  0  0  0  0
  -25.4370  -36.4150   23.9090 C   0  0  0  0  0  3  0  0  0  0  0  0
  -27.5890  -37.3080   24.6920 C   0  0  0  0  0  1  0  0  0  0  0  0
  -26.4690  -37.4670   23.7670 N   0  0  0  0  0  0  0  0  0  0  0  0
  -26.0670  -38.3890   23.9140 H   0  0  0  0  0  0  0  0  0  0  0  0
  -29.7580  -18.7580   20.2520 C   0  0  0  0  0  0  0  0  0  0  0  0
  -30.2450  -15.6660   20.1700 C   0  0  0  0  0  0  0  0  0  0  0  0
  -30.2960  -13.1610   19.2800 C   0  0  0  0  0  2  0  0  0  0  0  0
  -29.3590  -12.8040   18.0930 C   0  0  0  0  0  2  0  0  0  0  0  0
  -27.9500  -12.4480   18.5910 C   0  0  0  0  0  2  0  0  0  0  0  0
  -27.4820  -13.4200   19.6990 C   0  0  0  0  0  3  0  0  0  0  0  0
  -28.5540  -13.6920   20.7800 C   0  0  0  0  0  2  0  0  0  0  0  0
  -29.7060  -14.3150   20.0890 N   0  0  0  0  0  0  0  0  0  0  0  0
  -31.4720  -15.6120   19.9720 O   0  0  0  0  0  0  0  0  0  0  0  0
  -29.4910  -17.0140   20.2350 N   0  0  0  0  0  4  0  0  0  0  0  0
  -28.5080  -16.8210   20.3460 H   0  0  0  0  0  0  0  0  0  0  0  0
  -25.1430  -13.9190   20.5560 C   0  0  0  0  0  0  0  0  0  0  0  0
  -24.1020  -13.1230   20.9400 C   0  0  0  0  0  0  0  0  0  0  0  0
  -24.5820  -11.7790   20.8610 C   0  0  0  0  0  0  0  0  0  0  0  0
  -26.1850  -13.0630   20.2560 N   0  0  0  0  0  0  0  0  0  0  0  0
  -25.8650  -11.7660   20.5080 N   0  0  0  0  0  0  0  0  0  0  0  0
  -23.8710  -10.5050   21.0440 C   0  0  0  0  0  0  0  0  0  0  0  0
  -24.3200   -9.5310   21.9630 C   0  0  0  0  0  3  0  0  0  0  0  0
  -23.6040   -8.3280   22.1370 C   0  0  0  0  0  3  0  0  0  0  0  0
  -22.4260   -8.0870   21.3900 C   0  0  0  0  0  0  0  0  0  0  0  0
  -21.9950   -9.0500   20.4600 C   0  0  0  0  0  3  0  0  0  0  0  0
  -22.7110  -10.2450   20.2850 C   0  0  0  0  0  3  0  0  0  0  0  0
  -21.6820   -6.9350   21.4730 O   0  0  0  0  0  0  0  0  0  0  0  0
  -21.6220   -6.1990   22.6290 C   0  0  0  0  0  0  0  0  0  0  0  0
  -21.1360   -6.7450   23.8370 C   0  0  0  0  0  3  0  0  0  0  0  0
  -21.0260   -5.9330   24.9830 C   0  0  0  0  0  3  0  0  0  0  0  0
  -21.3930   -4.5760   24.9230 C   0  0  0  0  0  0  0  0  0  0  0  0
  -21.8710   -4.0280   23.7200 C   0  0  0  0  0  3  0  0  0  0  0  0
  -21.9820   -4.8360   22.5760 C   0  0  0  0  0  0  0  0  0  0  0  0
  -22.4230   -4.2990   21.4140 F   0  0  0  0  0  0  0  0  0  0  0  0
  -21.2800   -3.7940   26.0230 F   0  0  0  0  0  0  0  0  0  0  0  0
  -22.7100  -13.5810   21.2590 C   0  0  0  0  0  0  0  0  0  0  0  0
  -22.0150  -12.8640   22.1350 N   0  0  0  0  0  0  0  0  0  0  0  0
  -22.2500  -14.6100   20.7670 O   0  0  0  0  0  0  0  0  0  0  0  0
  -22.4030  -12.0330   22.5540 H   0  0  0  0  0  0  0  0  0  0  0  0
  -21.0820  -13.1530   22.3910 H   0  0  0  0  0  0  0  0  0  0  0  0
  -25.2830  -15.2950   20.4040 N   0  0  0  0  0  0  0  0  0  0  0  0
  -24.5060  -15.9320   20.5430 H   0  0  0  0  0  0  0  0  0  0  0  0
  -26.1000  -15.7430   20.0110 H   0  0  0  0  0  0  0  0  0  0  0  0
  -31.0020  -18.9990   21.1140 C   0  0  0  0  0  0  0  0  0  0  0  0
  -31.2890  -18.3380   22.1160 O   0  0  0  0  0  0  0  0  0  0  0  0
  -32.9360  -20.3880   21.2790 C   0  0  0  0  0  1  0  0  0  0  0  0
  -31.7230  -20.0250   20.6360 O   0  0  0  0  0  0  0  0  0  0  0  0
  1  6  1  0
  2  5  1  0
  2  4  1  0
  2  1  1  0
  3  2  1  0
  6  7  2  0
  7  8  1  0
  9 20  2  0
 10  8  1  0
 10 15  1  0
 11 19  1  0
 11 21  1  0
 12 18  1  0
 12 14  1  0
 13 19  1  0
 14 13  1  0
 15 14  2  0
 16 10  2  0
 17 16  1  0
 17 12  2  0
 18 11  1  0
 19  9  1  0
 21 23  2  0
 22 21  1  0
 24 22  1  0
 25 34  2  0
 25 30  1  0
 26 22  1  0
 26 30  1  0
 27 26  1  0
 28 29  1  0
 28 27  1  0
 29 25  1  0
 30 31  2  0
 31 32  1  0
 33 32  2  0
 34 33  1  0
 35  9  1  0
 35 40  1  0
 35 36  1  0
 36 39  1  1
 36 37  1  0
 38 36  1  0
 40 43  1  0
 41 45  1  0
 41 40  1  0
 42 41  2  0
 45 44  1  0
 47 45  1  0
 47 48  1  0
 47 46  1  0
 49  1  1  0
 49 88  1  0
 50 58  1  0
 51 56  1  0
 52 53  1  0
 52 51  1  0
 54 53  1  0
 54 63  1  0
 54 55  1  0
 56 50  1  0
 56 55  1  0
 57 50  2  0
 58 49  2  0
 58 59  1  0
 60 61  2  0
 61 80  1  0
 62 61  1  0
 62 65  1  0
 63 64  1  0
 63 60  1  0
 64 62  2  0
 65 66  1  0
 66 67  2  0
 68 71  1  0
 68 67  1  0
 69 68  2  0
 70 69  1  0
 70 65  2  0
 71 72  1  0
 72 73  1  0
 73 74  2  0
 75 74  1  0
 75 79  1  0
 76 75  2  0
 77 72  2  0
 77 76  1  0
 78 77  1  0
 80 81  1  0
 81 84  1  0
 81 83  1  0
 82 80  2  0
 85 86  1  0
 85 60  1  0
 87 85  1  0
 88 89  2  0
 91 88  1  0
 91 90  1  0
M  ISO  4   7 101   8 101  50 100  58 100
M  END
>  <TORSDO>  (73) 
F 22

>  <SCORE>  (73) 
-16.124

>  <name>  (73) 
73

>  <ligand_id>  (73) 
73

>  <original_smiles>  (73) 
[H]c1c([H])c([H])c2c(c1[H])C([H])([H])C([H])([H])C([H])([H])C2([H])N([H])C(=O)C1([H])N(C(=O)C([H])(N([H])C(=O)C([H])(N([H])C([H])([H])[H])C([H])([H])[H])C(C([H])([H])[H])(C([H])([H])[H])C([H])([H])[H])C([H])([H])c2c([H])c(OC([H])([H])C([H])([H])C([H])(C([H])(C(=O)OC([H])([H])[H])N([H])C(=O)N3C([H])([H])C([H])([H])C([H])([H])C([H])(n4nc(-c5c([H])c([H])c(Oc6c([H])c([H])c(F)c([H])c6F)c([H])c5[H])c(C(=O)N([H])[H])c4N([H])[H])C3([H])[H])[N+]([H])([H])[H])c([H])c([H])c2C1([H])[H]

>  <smiles>  (73) 
[H]c1c([H])c([H])c2c(c1[H])C([H])([H])C([H])([H])C([H])([H])C2([H])N([H])C(=O)C1([H])N(C(=O)C([H])(N([H])C(=O)C([H])(N([H])C([H])([H])[H])C([H])([H])[H])C(C([H])([H])[H])(C([H])([H])[H])C([H])([H])[H])C([H])([H])c2c([H])c(OC([H])([H])C([H])([H])C([H])(C([H])(C(=O)OC([H])([H])[H])N([H])C(=O)N3C([H])([H])C([H])([H])C([H])([H])C([H])(n4nc(-c5c([H])c([H])c(Oc6c([H])c([H])c(F)c([H])c6F)c([H])c5[H])c(C(=O)N([H])[H])c4N([H])[H])C3([H])[H])[N+]([H])([H])[H])c([H])c([H])c2C1([H])[H]

$$$$
74:0:0
     RDKit          3D

 88 95  0  0  1  0  0  0  0  0999 V2000
  -28.5250  -21.6920   20.3140 C   0  0  0  0  0  2  0  0  0  0  0  0
  -29.1610  -19.0150   20.3440 C   0  0  0  0  0  0  0  0  0  0  0  0
  -29.4400  -20.4040   20.1660 N   0  0  0  0  0  0  0  0  0  0  0  0
  -28.0710  -18.7090   20.8230 O   0  0  0  0  0  0  0  0  0  0  0  0
  -30.3660  -20.5910   19.8040 H   0  0  0  0  0  0  0  0  0  0  0  0
  -30.4740  -17.8640   18.4420 C   0  0  0  0  0  1  0  0  0  0  0  0
  -30.1400  -17.7370   19.9470 C   0  0  0  0  0  3  0  0  0  0  0  0
  -30.5240  -14.9980   20.0800 C   0  0  0  0  0  0  0  0  0  0  0  0
  -30.3110  -12.6630   19.1080 C   0  0  0  0  0  2  0  0  0  0  0  0
  -29.3340  -12.6610   17.9120 C   0  0  0  0  0  2  0  0  0  0  0  0
  -27.8940  -12.4330   18.4000 C   0  0  0  0  0  2  0  0  0  0  0  0
  -27.5370  -13.3380   19.6050 C   0  0  0  0  0  3  0  0  0  0  0  0
  -28.6390  -13.3510   20.6920 C   0  0  0  0  0  2  0  0  0  0  0  0
  -29.8910  -13.7550   20.0350 N   0  0  0  0  0  0  0  0  0  0  0  0
  -31.7190  -15.0300   19.7730 O   0  0  0  0  0  0  0  0  0  0  0  0
  -29.7900  -16.2110   20.2250 N   0  0  0  0  0  0  0  0  0  0  0  0
  -28.8250  -16.0760   20.4860 H   0  0  0  0  0  0  0  0  0  0  0  0
  -25.1850  -13.8920   20.4410 C   0  0  0  0  0  0  0  0  0  0  0  0
  -24.1390  -13.1050   20.8410 C   0  0  0  0  0  0  0  0  0  0  0  0
  -24.6100  -11.7580   20.7810 C   0  0  0  0  0  0  0  0  0  0  0  0
  -26.2240  -13.0230   20.1580 N   0  0  0  0  0  0  0  0  0  0  0  0
  -25.8900  -11.7340   20.4300 N   0  0  0  0  0  0  0  0  0  0  0  0
  -23.8990  -10.4880   20.9810 C   0  0  0  0  0  0  0  0  0  0  0  0
  -24.3510   -9.5230   21.9070 C   0  0  0  0  0  3  0  0  0  0  0  0
  -23.6350   -8.3220   22.0960 C   0  0  0  0  0  3  0  0  0  0  0  0
  -22.4530   -8.0770   21.3590 C   0  0  0  0  0  0  0  0  0  0  0  0
  -22.0200   -9.0290   20.4190 C   0  0  0  0  0  3  0  0  0  0  0  0
  -22.7370  -10.2220   20.2290 C   0  0  0  0  0  3  0  0  0  0  0  0
  -21.7090   -6.9250   21.4530 O   0  0  0  0  0  0  0  0  0  0  0  0
  -21.6600   -6.1960   22.6140 C   0  0  0  0  0  0  0  0  0  0  0  0
  -21.2210   -6.7620   23.8310 C   0  0  0  0  0  3  0  0  0  0  0  0
  -21.1220   -5.9580   24.9860 C   0  0  0  0  0  3  0  0  0  0  0  0
  -21.4520   -4.5910   24.9220 C   0  0  0  0  0  0  0  0  0  0  0  0
  -21.8820   -4.0260   23.7090 C   0  0  0  0  0  3  0  0  0  0  0  0
  -21.9840   -4.8270   22.5590 C   0  0  0  0  0  0  0  0  0  0  0  0
  -22.3800   -4.2710   21.3880 F   0  0  0  0  0  0  0  0  0  0  0  0
  -21.3490   -3.8160   26.0280 F   0  0  0  0  0  0  0  0  0  0  0  0
  -22.7510  -13.5710   21.1640 C   0  0  0  0  0  0  0  0  0  0  0  0
  -22.0600  -12.8660   22.0530 N   0  0  0  0  0  0  0  0  0  0  0  0
  -22.2900  -14.5960   20.6630 O   0  0  0  0  0  0  0  0  0  0  0  0
  -22.4530  -12.0380   22.4750 H   0  0  0  0  0  0  0  0  0  0  0  0
  -21.1290  -13.1570   22.3140 H   0  0  0  0  0  0  0  0  0  0  0  0
  -25.3310  -15.2630   20.2610 N   0  0  0  0  0  0  0  0  0  0  0  0
  -24.5490  -15.9010   20.3580 H   0  0  0  0  0  0  0  0  0  0  0  0
  -26.1500  -15.7020   19.8620 H   0  0  0  0  0  0  0  0  0  0  0  0
  -29.0040  -23.3150   20.2250 C   0  0  0  0  0  3  0  0  0  0  0  0
  -27.9490  -24.6410   20.1820 C   0  0  0  0  0  3  0  0  0  0  0  0
  -28.2510  -26.1760   20.2470 O   0  0  0  0  0  0  0  0  0  0  0  0
  -24.6730  -31.9060   23.2570 C   0  0  0  0  0  0  0  0  0  0  0  0
  -27.1990  -27.1720   20.1990 C   0  0  0  0  0  0  0  0  0  0  0  0
  -23.4570  -30.5270   21.6140 C   0  0  0  0  0  3  0  0  0  0  0  0
  -24.8890  -28.9460   20.1850 C   0  0  0  0  0  0  0  0  0  0  0  0
  -26.0130  -30.7730   21.4330 C   0  0  0  0  0  2  0  0  0  0  0  0
  -26.0770  -29.3790   20.7860 C   0  0  0  0  0  0  0  0  0  0  0  0
  -27.2360  -28.5110   20.7700 C   0  0  0  0  0  3  0  0  0  0  0  0
  -25.9820  -26.8450   19.5650 C   0  0  0  0  0  3  0  0  0  0  0  0
  -24.8550  -27.6940   19.5570 C   0  0  0  0  0  3  0  0  0  0  0  0
  -23.6680  -29.8520   20.2340 C   0  0  0  0  0  2  0  0  0  0  0  0
  -24.7360  -31.0900   22.1600 N   0  0  0  0  0  0  0  0  0  0  0  0
  -23.5890  -32.1970   23.7880 O   0  0  0  0  0  0  0  0  0  0  0  0
  -22.7720  -29.5180   22.5730 C   0  0  0  0  0  0  0  0  0  0  0  0
  -21.4440  -29.3560   22.4500 N   0  0  0  0  0  0  0  0  0  0  0  0
  -23.4400  -28.8800   23.3940 O   0  0  0  0  0  0  0  0  0  0  0  0
  -20.9580  -29.9260   21.7720 H   0  0  0  0  0  0  0  0  0  0  0  0
  -18.0570  -28.1640   22.9450 C   0  0  0  0  0  0  0  0  0  0  0  0
  -20.6180  -28.4200   23.2190 C   0  0  0  0  0  3  0  0  0  0  0  0
  -20.7140  -26.9840   22.6500 C   0  0  0  0  0  2  0  0  0  0  0  0
  -19.6130  -26.6640   21.6320 C   0  0  0  0  0  2  0  0  0  0  0  0
  -18.2300  -26.8150   22.2710 C   0  0  0  0  0  2  0  0  0  0  0  0
  -19.1770  -28.9240   23.3780 C   0  0  0  0  0  0  0  0  0  0  0  0
  -18.9550  -30.1870   23.9700 C   0  0  0  0  0  3  0  0  0  0  0  0
  -17.6500  -30.6900   24.1310 C   0  0  0  0  0  3  0  0  0  0  0  0
  -16.5450  -29.9250   23.7120 C   0  0  0  0  0  3  0  0  0  0  0  0
  -16.7500  -28.6640   23.1260 C   0  0  0  0  0  3  0  0  0  0  0  0
  -25.9550  -32.5290   23.8840 C   0  0  0  0  0  3  0  0  0  0  0  0
  -26.4610  -31.7500   25.1620 C   0  0  1  0  0  0  0  0  0  0  0  0
  -25.3650  -31.5200   26.2300 C   0  0  0  0  0  1  0  0  0  0  0  0
  -27.0300  -30.3680   24.7680 C   0  0  0  0  0  1  0  0  0  0  0  0
  -27.6230  -32.5270   25.8280 C   0  0  0  0  0  1  0  0  0  0  0  0
  -25.6580  -33.9290   24.2270 N   0  0  0  0  0  0  0  0  0  0  0  0
  -25.9640  -34.9850   23.4610 C   0  0  0  0  0  0  0  0  0  0  0  0
  -26.6000  -34.8810   22.4100 O   0  0  0  0  0  0  0  0  0  0  0  0
  -25.0980  -34.0830   25.0540 H   0  0  0  0  0  0  0  0  0  0  0  0
  -24.2190  -36.7750   23.1820 C   0  0  0  0  0  1  0  0  0  0  0  0
  -25.4950  -36.3750   23.9370 C   0  0  0  0  0  3  0  0  0  0  0  0
  -27.6640  -37.2690   24.6660 C   0  0  0  0  0  1  0  0  0  0  0  0
  -26.5190  -37.4320   23.7740 N   0  0  0  0  0  0  0  0  0  0  0  0
  -26.1180  -38.3530   23.9330 H   0  0  0  0  0  0  0  0  0  0  0  0
  2  4  2  0
  3  1  1  0
  3  2  1  0
  5  3  1  0
  7  6  1  0
  7 16  1  0
  7  2  1  0
  8 16  1  0
  9 14  1  0
 10 11  1  0
 10  9  1  0
 12 11  1  0
 12 21  1  0
 12 13  1  0
 14  8  1  0
 14 13  1  0
 15  8  2  0
 16 17  1  0
 18 19  2  0
 19 38  1  0
 20 19  1  0
 20 23  1  0
 21 22  1  0
 21 18  1  0
 22 20  2  0
 23 24  1  0
 24 25  2  0
 26 29  1  0
 26 25  1  0
 27 26  2  0
 28 27  1  0
 28 23  2  0
 29 30  1  0
 30 31  1  0
 31 32  2  0
 33 32  1  0
 33 37  1  0
 34 33  2  0
 35 30  2  0
 35 34  1  0
 36 35  1  0
 38 39  1  0
 39 42  1  0
 39 41  1  0
 40 38  2  0
 43 44  1  0
 43 18  1  0
 45 43  1  0
 46  1  1  0
 47 46  2  0
 47 48  1  0
 49 60  2  0
 50 48  1  0
 50 55  1  0
 51 59  1  0
 51 61  1  0
 52 58  1  0
 52 54  1  0
 53 59  1  0
 54 53  1  0
 55 54  2  0
 56 50  2  0
 57 56  1  0
 57 52  2  0
 58 51  1  0
 59 49  1  0
 61 63  2  0
 62 61  1  0
 64 62  1  0
 65 74  2  0
 65 70  1  0
 66 62  1  0
 66 70  1  0
 67 66  1  0
 68 69  1  0
 68 67  1  0
 69 65  1  0
 70 71  2  0
 71 72  1  0
 73 72  2  0
 74 73  1  0
 75 49  1  0
 75 80  1  0
 75 76  1  0
 76 79  1  1
 76 77  1  0
 78 76  1  0
 80 83  1  0
 81 85  1  0
 81 80  1  0
 82 81  2  0
 85 84  1  0
 87 88  1  0
 87 85  1  0
 87 86  1  0
M  ISO  4   8 100  16 100  47 101  48 101
M  END
>  <TORSDO>  (74) 
F 20

>  <SCORE>  (74) 
-14.831

>  <name>  (74) 
74

>  <ligand_id>  (74) 
74

>  <original_smiles>  (74) 
[H]c1c([H])c([H])c2c(c1[H])C([H])([H])C([H])([H])C([H])([H])C2([H])N([H])C(=O)C1([H])N(C(=O)C([H])(N([H])C(=O)C([H])(N([H])C([H])([H])[H])C([H])([H])[H])C(C([H])([H])[H])(C([H])([H])[H])C([H])([H])[H])C([H])([H])c2c([H])c(OC([H])([H])C([H])([H])C([H])([H])N([H])C(=O)C([H])(N([H])C(=O)N3C([H])([H])C([H])([H])C([H])([H])C([H])(n4nc(-c5c([H])c([H])c(Oc6c([H])c([H])c(F)c([H])c6F)c([H])c5[H])c(C(=O)N([H])[H])c4N([H])[H])C3([H])[H])C([H])([H])[H])c([H])c([H])c2C1([H])[H]

>  <smiles>  (74) 
[H]c1c([H])c([H])c2c(c1[H])C([H])([H])C([H])([H])C([H])([H])C2([H])N([H])C(=O)C1([H])N(C(=O)C([H])(N([H])C(=O)C([H])(N([H])C([H])([H])[H])C([H])([H])[H])C(C([H])([H])[H])(C([H])([H])[H])C([H])([H])[H])C([H])([H])c2c([H])c(OC([H])([H])C([H])([H])C([H])([H])N([H])C(=O)C([H])(N([H])C(=O)N3C([H])([H])C([H])([H])C([H])([H])C([H])(n4nc(-c5c([H])c([H])c(Oc6c([H])c([H])c(F)c([H])c6F)c([H])c5[H])c(C(=O)N([H])[H])c4N([H])[H])C3([H])[H])C([H])([H])[H])c([H])c([H])c2C1([H])[H]

$$$$
75:0:0
     RDKit          3D

102109  0  0  1  0  0  0  0  0999 V2000
  -29.8870  -18.0050   21.1230 C   0  0  0  0  0  3  0  0  0  0  0  0
  -30.9590  -14.5300   20.0630 C   0  0  0  0  0  0  0  0  0  0  0  0
  -30.5900  -12.2480   19.2110 C   0  0  0  0  0  2  0  0  0  0  0  0
  -29.6390  -12.3100   17.9990 C   0  0  0  0  0  2  0  0  0  0  0  0
  -28.1730  -12.2350   18.4660 C   0  0  0  0  0  2  0  0  0  0  0  0
  -27.8590  -13.2310   19.6140 C   0  0  0  0  0  3  0  0  0  0  0  0
  -28.9300  -13.1690   20.7270 C   0  0  0  0  0  2  0  0  0  0  0  0
  -30.2480  -13.3690   20.1020 N   0  0  0  0  0  0  0  0  0  0  0  0
  -32.0670  -14.5810   19.5200 O   0  0  0  0  0  0  0  0  0  0  0  0
  -30.7780  -16.8990   20.5190 C   0  0  0  0  0  0  0  0  0  0  0  0
  -30.3300  -15.6230   20.5430 N   0  0  0  0  0  0  0  0  0  0  0  0
  -31.8760  -17.2510   20.0710 O   0  0  0  0  0  0  0  0  0  0  0  0
  -29.4200  -15.4700   20.9480 H   0  0  0  0  0  0  0  0  0  0  0  0
  -25.5280  -13.9530   20.4310 C   0  0  0  0  0  0  0  0  0  0  0  0
  -24.4360  -13.2320   20.8310 C   0  0  0  0  0  0  0  0  0  0  0  0
  -24.8210  -11.8570   20.7600 C   0  0  0  0  0  0  0  0  0  0  0  0
  -26.5140  -13.0210   20.1450 N   0  0  0  0  0  0  0  0  0  0  0  0
  -26.0950  -11.7540   20.3990 N   0  0  0  0  0  0  0  0  0  0  0  0
  -24.0340  -10.6330   20.9590 C   0  0  0  0  0  0  0  0  0  0  0  0
  -24.4320   -9.6410   21.8820 C   0  0  0  0  0  3  0  0  0  0  0  0
  -23.6490   -8.4820   22.0700 C   0  0  0  0  0  3  0  0  0  0  0  0
  -22.4510   -8.3070   21.3350 C   0  0  0  0  0  0  0  0  0  0  0  0
  -22.0720   -9.2870   20.4000 C   0  0  0  0  0  3  0  0  0  0  0  0
  -22.8560  -10.4370   20.2100 C   0  0  0  0  0  3  0  0  0  0  0  0
  -21.6400   -7.2030   21.4320 O   0  0  0  0  0  0  0  0  0  0  0  0
  -21.5650   -6.4650   22.5870 C   0  0  0  0  0  0  0  0  0  0  0  0
  -21.1350   -7.0340   23.8060 C   0  0  0  0  0  3  0  0  0  0  0  0
  -21.0030   -6.2240   24.9520 C   0  0  0  0  0  3  0  0  0  0  0  0
  -21.2910   -4.8490   24.8800 C   0  0  0  0  0  0  0  0  0  0  0  0
  -21.7130   -4.2800   23.6660 C   0  0  0  0  0  3  0  0  0  0  0  0
  -21.8460   -5.0860   22.5220 C   0  0  0  0  0  0  0  0  0  0  0  0
  -22.2330   -4.5290   21.3490 F   0  0  0  0  0  0  0  0  0  0  0  0
  -21.1580   -4.0700   25.9800 F   0  0  0  0  0  0  0  0  0  0  0  0
  -23.0790  -13.7790   21.1690 C   0  0  0  0  0  0  0  0  0  0  0  0
  -22.3520  -13.1100   22.0570 N   0  0  0  0  0  0  0  0  0  0  0  0
  -22.6750  -14.8340   20.6810 O   0  0  0  0  0  0  0  0  0  0  0  0
  -22.6940  -12.2550   22.4720 H   0  0  0  0  0  0  0  0  0  0  0  0
  -21.4420  -13.4540   22.3260 H   0  0  0  0  0  0  0  0  0  0  0  0
  -25.7630  -15.3140   20.2650 N   0  0  0  0  0  0  0  0  0  0  0  0
  -25.0340  -16.0060   20.3990 H   0  0  0  0  0  0  0  0  0  0  0  0
  -26.6130  -15.7060   19.8790 H   0  0  0  0  0  0  0  0  0  0  0  0
  -30.7940  -20.1530   22.0770 C   0  0  0  0  0  0  0  0  0  0  0  0
  -30.6780  -19.2330   21.1170 N   0  0  0  0  0  0  0  0  0  0  0  0
  -30.1740  -20.0800   23.1400 O   0  0  0  0  0  0  0  0  0  0  0  0
  -31.2490  -19.3480   20.2890 H   0  0  0  0  0  0  0  0  0  0  0  0
  -32.6520  -21.0970   20.5750 C   0  0  0  0  0  1  0  0  0  0  0  0
  -30.8960  -22.6140   21.5920 C   0  0  0  0  0  1  0  0  0  0  0  0
  -31.7430  -21.3420   21.8060 C   0  0  1  0  0  0  0  0  0  0  0  0
  -32.5690  -21.4880   23.0170 N   0  0  0  0  0  4  0  0  0  0  0  0
  -33.1510  -20.6790   23.1320 H   0  0  0  0  0  0  0  0  0  0  0  0
  -31.9490  -21.5180   23.8090 H   0  0  0  0  0  0  0  0  0  0  0  0
  -33.1410  -22.3130   22.9960 H   0  0  0  0  0  0  0  0  0  0  0  0
  -28.5150  -18.2400   20.4180 C   0  0  0  0  0  3  0  0  0  0  0  0
  -28.5620  -19.0500   19.0930 C   0  0  0  0  0  3  0  0  0  0  0  0
  -27.1930  -19.5510   18.5730 C   0  0  0  0  0  2  0  0  0  0  0  0
  -26.6020  -20.8500   19.1790 C   0  0  0  0  0  2  0  0  0  0  0  0
  -27.5510  -21.9690   19.2240 N   0  0  0  0  0  4  0  0  0  0  0  0
  -28.2120  -21.8780   18.4690 H   0  0  0  0  0  0  0  0  0  0  0  0
  -28.1100  -21.9080   20.0630 H   0  0  0  0  0  0  0  0  0  0  0  0
  -26.8640  -23.2680   19.1190 C   0  0  0  0  0  2  0  0  0  0  0  0
  -27.7050  -24.4410   19.6870 C   0  0  0  0  0  2  0  0  0  0  0  0
  -27.5930  -25.6550   18.9360 O   0  0  0  0  0  0  0  0  0  0  0  0
  -25.0440  -30.7020   23.2940 C   0  0  0  0  0  0  0  0  0  0  0  0
  -26.5690  -26.5200   19.2460 C   0  0  0  0  0  0  0  0  0  0  0  0
  -23.4940  -29.9020   21.5400 C   0  0  0  0  0  3  0  0  0  0  0  0
  -24.5270  -28.4120   19.7450 C   0  0  0  0  0  0  0  0  0  0  0  0
  -26.0250  -29.8040   21.1850 C   0  0  0  0  0  2  0  0  0  0  0  0
  -25.7960  -28.5890   20.3090 C   0  0  0  0  0  0  0  0  0  0  0  0
  -26.8220  -27.6520   20.0550 C   0  0  0  0  0  3  0  0  0  0  0  0
  -25.2850  -26.3530   18.6850 C   0  0  0  0  0  3  0  0  0  0  0  0
  -24.2660  -27.2930   18.9330 C   0  0  0  0  0  3  0  0  0  0  0  0
  -23.4880  -29.4670   20.0480 C   0  0  0  0  0  2  0  0  0  0  0  0
  -24.8780  -30.1360   22.0640 N   0  0  0  0  0  0  0  0  0  0  0  0
  -24.0720  -31.0660   23.9700 O   0  0  0  0  0  0  0  0  0  0  0  0
  -22.6990  -28.8570   22.3570 C   0  0  0  0  0  0  0  0  0  0  0  0
  -21.3620  -28.9160   22.2610 N   0  0  0  0  0  0  0  0  0  0  0  0
  -23.2840  -28.0070   23.0330 O   0  0  0  0  0  0  0  0  0  0  0  0
  -20.9590  -29.6460   21.6910 H   0  0  0  0  0  0  0  0  0  0  0  0
  -17.8490  -28.1620   22.6330 C   0  0  0  0  0  0  0  0  0  0  0  0
  -20.4140  -28.0100   22.9090 C   0  0  0  0  0  3  0  0  0  0  0  0
  -20.3160  -26.6700   22.1440 C   0  0  0  0  0  2  0  0  0  0  0  0
  -19.1880  -26.6480   21.1080 C   0  0  0  0  0  2  0  0  0  0  0  0
  -17.8360  -26.9040   21.7810 C   0  0  0  0  0  2  0  0  0  0  0  0
  -19.0620  -28.6900   23.1500 C   0  0  0  0  0  0  0  0  0  0  0  0
  -19.0250  -29.8810   23.9070 C   0  0  0  0  0  3  0  0  0  0  0  0
  -17.8060  -30.5410   24.1510 C   0  0  0  0  0  3  0  0  0  0  0  0
  -16.6060  -30.0050   23.6530 C   0  0  0  0  0  3  0  0  0  0  0  0
  -16.6290  -28.8180   22.9020 C   0  0  0  0  0  3  0  0  0  0  0  0
  -26.4640  -30.9440   23.8980 C   0  0  0  0  0  3  0  0  0  0  0  0
  -26.9070  -29.8210   24.9160 C   0  0  1  0  0  0  0  0  0  0  0  0
  -25.8650  -29.5330   26.0210 C   0  0  0  0  0  1  0  0  0  0  0  0
  -27.1830  -28.4940   24.1720 C   0  0  0  0  0  1  0  0  0  0  0  0
  -28.2310  -30.2310   25.6020 C   0  0  0  0  0  1  0  0  0  0  0  0
  -26.4490  -32.2580   24.5510 N   0  0  0  0  0  0  0  0  0  0  0  0
  -27.0080  -33.3640   24.0410 C   0  0  0  0  0  0  0  0  0  0  0  0
  -27.6580  -33.3640   22.9940 O   0  0  0  0  0  0  0  0  0  0  0  0
  -25.8850  -32.3450   25.3830 H   0  0  0  0  0  0  0  0  0  0  0  0
  -25.7300  -35.5280   24.1380 C   0  0  0  0  0  1  0  0  0  0  0  0
  -26.8130  -34.6790   24.8210 C   0  0  0  0  0  3  0  0  0  0  0  0
  -29.0410  -34.8520   25.8360 C   0  0  0  0  0  1  0  0  0  0  0  0
  -28.0530  -35.4720   24.9580 N   0  0  0  0  0  0  0  0  0  0  0  0
  -27.8500  -36.4010   25.3170 H   0  0  0  0  0  0  0  0  0  0  0  0
  1 53  1  0
  2  8  1  0
  2 11  1  0
  3  8  1  0
  4  5  1  0
  4  3  1  0
  6  5  1  0
  6 17  1  0
  6  7  1  0
  8  7  1  0
  9  2  2  0
 10 11  1  0
 10  1  1  0
 11 13  1  0
 12 10  2  0
 14 15  2  0
 15 34  1  0
 16 15  1  0
 16 19  1  0
 17 18  1  0
 17 14  1  0
 18 16  2  0
 19 20  1  0
 20 21  2  0
 22 25  1  0
 22 21  1  0
 23 22  2  0
 24 23  1  0
 24 19  2  0
 25 26  1  0
 26 27  1  0
 27 28  2  0
 29 28  1  0
 29 33  1  0
 30 29  2  0
 31 26  2  0
 31 30  1  0
 32 31  1  0
 34 35  1  0
 35 38  1  0
 35 37  1  0
 36 34  2  0
 39 40  1  0
 39 14  1  0
 41 39  1  0
 42 44  2  0
 43  1  1  0
 43 42  1  0
 45 43  1  0
 48 46  1  6
 47 48  1  0
 48 42  1  0
 48 49  1  0
 49 50  1  0
 49 51  1  0
 52 49  1  0
 54 53  2  0
 55 54  1  0
 55 56  1  0
 56 57  1  0
 57 59  1  0
 58 57  1  0
 60 57  1  0
 60 61  1  0
 62 64  1  0
 62 61  1  0
 63 74  2  0
 64 69  1  0
 65 73  1  0
 65 75  1  0
 66 72  1  0
 66 68  1  0
 67 73  1  0
 68 67  1  0
 69 68  2  0
 70 71  1  0
 70 64  2  0
 71 66  2  0
 72 65  1  0
 73 63  1  0
 75 77  2  0
 76 75  1  0
 78 76  1  0
 79 88  2  0
 79 84  1  0
 80 76  1  0
 80 84  1  0
 81 80  1  0
 82 83  1  0
 82 81  1  0
 83 79  1  0
 84 85  2  0
 85 86  1  0
 87 86  2  0
 88 87  1  0
 89 63  1  0
 89 94  1  0
 89 90  1  0
 90 93  1  1
 90 91  1  0
 92 90  1  0
 94 97  1  0
 95 94  1  0
 95 99  1  0
 96 95  2  0
 99 98  1  0
 99101  1  0
101102  1  0
101100  1  0
M  ISO  4   2 100  11 100  61 101  62 101
M  END
>  <TORSDO>  (75) 
F 26

>  <SCORE>  (75) 
-10.255

>  <name>  (75) 
75

>  <ligand_id>  (75) 
75

>  <original_smiles>  (75) 
[H]c1c([H])c([H])c2c(c1[H])C([H])([H])C([H])([H])C([H])([H])C2([H])N([H])C(=O)C1([H])N(C(=O)C([H])(N([H])C(=O)C([H])(N([H])C([H])([H])[H])C([H])([H])[H])C(C([H])([H])[H])(C([H])([H])[H])C([H])([H])[H])C([H])([H])c2c([H])c(OC([H])([H])C([H])([H])[N+]([H])([H])C([H])([H])C([H])([H])C([H])([H])C([H])([H])C([H])(C(=O)N([H])C(=O)N3C([H])([H])C([H])([H])C([H])([H])C([H])(n4nc(-c5c([H])c([H])c(Oc6c([H])c([H])c(F)c([H])c6F)c([H])c5[H])c(C(=O)N([H])[H])c4N([H])[H])C3([H])[H])N([H])C(=O)C(C([H])([H])[H])(C([H])([H])[H])[N+]([H])([H])[H])c([H])c([H])c2C1([H])[H]

>  <smiles>  (75) 
[H]c1c([H])c([H])c2c(c1[H])C([H])([H])C([H])([H])C([H])([H])C2([H])N([H])C(=O)C1([H])N(C(=O)C([H])(N([H])C(=O)C([H])(N([H])C([H])([H])[H])C([H])([H])[H])C(C([H])([H])[H])(C([H])([H])[H])C([H])([H])[H])C([H])([H])c2c([H])c(OC([H])([H])C([H])([H])[N+]([H])([H])C([H])([H])C([H])([H])C([H])([H])C([H])([H])C([H])(C(=O)N([H])C(=O)N3C([H])([H])C([H])([H])C([H])([H])C([H])(n4nc(-c5c([H])c([H])c(Oc6c([H])c([H])c(F)c([H])c6F)c([H])c5[H])c(C(=O)N([H])[H])c4N([H])[H])C3([H])[H])N([H])C(=O)C(C([H])([H])[H])(C([H])([H])[H])[N+]([H])([H])[H])c([H])c([H])c2C1([H])[H]

$$$$
76:0:0
     RDKit          3D

 92 99  0  0  1  0  0  0  0  0999 V2000
  -29.6530  -19.1310   20.6480 C   0  0  0  0  0  0  0  0  0  0  0  0
  -29.4030  -20.4620   20.1740 N   0  0  0  0  0  0  0  0  0  0  0  0
  -29.5220  -18.9000   21.8490 O   0  0  0  0  0  0  0  0  0  0  0  0
  -29.5390  -20.5370   19.1740 H   0  0  0  0  0  0  0  0  0  0  0  0
  -29.6310  -22.0010   22.1860 C   0  0  0  0  0  1  0  0  0  0  0  0
  -28.9100  -21.8260   20.8360 C   0  0  0  0  0  3  0  0  0  0  0  0
  -28.9040  -23.3520   20.0830 C   0  0  0  0  0  3  0  0  0  0  0  0
  -28.1220  -24.7490   20.6610 C   0  0  0  0  0  3  0  0  0  0  0  0
  -28.3460  -26.2570   20.3140 O   0  0  0  0  0  0  0  0  0  0  0  0
  -24.6090  -31.9260   23.2490 C   0  0  0  0  0  0  0  0  0  0  0  0
  -27.2730  -27.2210   20.2860 C   0  0  0  0  0  0  0  0  0  0  0  0
  -23.4490  -30.5220   21.5870 C   0  0  0  0  0  3  0  0  0  0  0  0
  -24.9350  -28.9500   20.1990 C   0  0  0  0  0  0  0  0  0  0  0  0
  -26.0040  -30.8040   21.4710 C   0  0  0  0  0  2  0  0  0  0  0  0
  -26.1000  -29.4090   20.8260 C   0  0  0  0  0  0  0  0  0  0  0  0
  -27.2730  -28.5630   20.8450 C   0  0  0  0  0  3  0  0  0  0  0  0
  -26.0820  -26.8620   19.6220 C   0  0  0  0  0  3  0  0  0  0  0  0
  -24.9380  -27.6900   19.5810 C   0  0  0  0  0  3  0  0  0  0  0  0
  -23.7020  -29.8410   20.2160 C   0  0  0  0  0  2  0  0  0  0  0  0
  -24.7060  -31.1060   22.1590 N   0  0  0  0  0  0  0  0  0  0  0  0
  -23.5130  -32.2050   23.7550 O   0  0  0  0  0  0  0  0  0  0  0  0
  -22.7560  -29.5150   22.5360 C   0  0  0  0  0  0  0  0  0  0  0  0
  -21.4310  -29.3370   22.3830 N   0  0  0  0  0  0  0  0  0  0  0  0
  -23.4130  -28.8920   23.3760 O   0  0  0  0  0  0  0  0  0  0  0  0
  -20.9560  -29.8900   21.6820 H   0  0  0  0  0  0  0  0  0  0  0  0
  -18.0400  -28.1490   22.8430 C   0  0  0  0  0  0  0  0  0  0  0  0
  -20.5990  -28.3980   23.1380 C   0  0  0  0  0  3  0  0  0  0  0  0
  -20.6990  -26.9690   22.5540 C   0  0  0  0  0  2  0  0  0  0  0  0
  -19.6060  -26.6600   21.5260 C   0  0  0  0  0  2  0  0  0  0  0  0
  -18.2190  -26.8050   22.1570 C   0  0  0  0  0  2  0  0  0  0  0  0
  -19.1580  -28.9040   23.2900 C   0  0  0  0  0  0  0  0  0  0  0  0
  -18.9380  -30.1610   23.8940 C   0  0  0  0  0  3  0  0  0  0  0  0
  -17.6330  -30.6640   24.0540 C   0  0  0  0  0  3  0  0  0  0  0  0
  -16.5310  -29.9080   23.6220 C   0  0  0  0  0  3  0  0  0  0  0  0
  -16.7350  -28.6510   23.0230 C   0  0  0  0  0  3  0  0  0  0  0  0
  -25.8720  -32.5670   23.9020 C   0  0  0  0  0  3  0  0  0  0  0  0
  -25.5570  -33.9730   24.2030 N   0  0  0  0  0  0  0  0  0  0  0  0
  -25.9160  -35.0160   23.4440 C   0  0  0  0  0  0  0  0  0  0  0  0
  -26.6160  -34.8970   22.4340 O   0  0  0  0  0  0  0  0  0  0  0  0
  -24.9390  -34.1380   24.9830 H   0  0  0  0  0  0  0  0  0  0  0  0
  -24.2240  -36.8270   23.0070 C   0  0  0  0  0  1  0  0  0  0  0  0
  -25.4260  -36.4130   23.8720 C   0  0  0  0  0  3  0  0  0  0  0  0
  -27.5230  -37.2920   24.7980 C   0  0  0  0  0  1  0  0  0  0  0  0
  -26.4720  -37.4550   23.7960 N   0  0  0  0  0  0  0  0  0  0  0  0
  -26.0680  -38.3810   23.9100 H   0  0  0  0  0  0  0  0  0  0  0  0
  -26.3430  -31.8170   25.2100 C   0  0  1  0  0  0  0  0  0  0  0  0
  -25.2140  -31.5990   26.2430 C   0  0  0  0  0  1  0  0  0  0  0  0
  -26.9390  -30.4330   24.8670 C   0  0  0  0  0  1  0  0  0  0  0  0
  -27.4700  -32.6240   25.8990 C   0  0  0  0  0  1  0  0  0  0  0  0
  -30.0570  -17.7980   19.7270 C   0  0  0  0  0  0  0  0  0  0  0  0
  -30.7870  -15.0820   20.1930 C   0  0  0  0  0  0  0  0  0  0  0  0
  -30.6290  -12.7500   19.2210 C   0  0  0  0  0  2  0  0  0  0  0  0
  -29.6790  -12.7470   18.0020 C   0  0  0  0  0  2  0  0  0  0  0  0
  -28.2190  -12.5430   18.4520 C   0  0  0  0  0  2  0  0  0  0  0  0
  -27.8390  -13.4400   19.6590 C   0  0  0  0  0  3  0  0  0  0  0  0
  -28.9130  -13.4190   20.7670 C   0  0  0  0  0  2  0  0  0  0  0  0
  -30.1770  -13.8310   20.1440 N   0  0  0  0  0  0  0  0  0  0  0  0
  -32.0000  -15.1060   19.9710 O   0  0  0  0  0  0  0  0  0  0  0  0
  -29.9830  -16.2620   20.1840 N   0  0  0  0  0  4  0  0  0  0  0  0
  -29.0380  -16.0310   20.4460 H   0  0  0  0  0  0  0  0  0  0  0  0
  -25.4680  -14.0160   20.4310 C   0  0  0  0  0  0  0  0  0  0  0  0
  -24.4090  -13.2390   20.8130 C   0  0  0  0  0  0  0  0  0  0  0  0
  -24.8760  -11.8890   20.7750 C   0  0  0  0  0  0  0  0  0  0  0  0
  -26.5090  -13.1390   20.1740 N   0  0  0  0  0  0  0  0  0  0  0  0
  -26.1630  -11.8550   20.4490 N   0  0  0  0  0  0  0  0  0  0  0  0
  -24.1520  -10.6240   20.9710 C   0  0  0  0  0  0  0  0  0  0  0  0
  -24.5700   -9.6740   21.9270 C   0  0  0  0  0  3  0  0  0  0  0  0
  -23.8460   -8.4760   22.1110 C   0  0  0  0  0  3  0  0  0  0  0  0
  -22.6890   -8.2210   21.3370 C   0  0  0  0  0  0  0  0  0  0  0  0
  -22.2890   -9.1610   20.3700 C   0  0  0  0  0  3  0  0  0  0  0  0
  -23.0150  -10.3500   20.1850 C   0  0  0  0  0  3  0  0  0  0  0  0
  -21.9360   -7.0750   21.4290 O   0  0  0  0  0  0  0  0  0  0  0  0
  -21.8400   -6.3690   22.6030 C   0  0  0  0  0  0  0  0  0  0  0  0
  -21.3080   -6.9440   23.7770 C   0  0  0  0  0  3  0  0  0  0  0  0
  -21.1650   -6.1610   24.9400 C   0  0  0  0  0  3  0  0  0  0  0  0
  -21.5430   -4.8050   24.9280 C   0  0  0  0  0  0  0  0  0  0  0  0
  -22.0680   -4.2300   23.7570 C   0  0  0  0  0  3  0  0  0  0  0  0
  -22.2140   -5.0100   22.5970 C   0  0  0  0  0  0  0  0  0  0  0  0
  -22.7000   -4.4460   21.4650 F   0  0  0  0  0  0  0  0  0  0  0  0
  -21.3970   -4.0510   26.0420 F   0  0  0  0  0  0  0  0  0  0  0  0
  -23.0140  -13.7150   21.0950 C   0  0  0  0  0  0  0  0  0  0  0  0
  -22.2920  -13.0180   21.9640 N   0  0  0  0  0  0  0  0  0  0  0  0
  -22.5740  -14.7400   20.5780 O   0  0  0  0  0  0  0  0  0  0  0  0
  -22.6610  -12.1890   22.4070 H   0  0  0  0  0  0  0  0  0  0  0  0
  -21.3560  -13.3200   22.1940 H   0  0  0  0  0  0  0  0  0  0  0  0
  -25.6250  -15.3870   20.2500 N   0  0  0  0  0  0  0  0  0  0  0  0
  -24.8510  -16.0300   20.3640 H   0  0  0  0  0  0  0  0  0  0  0  0
  -26.4470  -15.8260   19.8550 H   0  0  0  0  0  0  0  0  0  0  0  0
  -30.7080  -19.2240   17.6340 C   0  0  0  0  0  1  0  0  0  0  0  0
  -31.2310  -16.8390   17.6120 C   0  0  0  0  0  1  0  0  0  0  0  0
  -32.4990  -18.4120   19.1470 C   0  0  0  0  0  1  0  0  0  0  0  0
  -31.1140  -18.0550   18.5690 C   0  0  2  0  0  0  0  0  0  0  0  0
  1  3  2  0
  2  1  1  0
  2  6  1  0
  4  2  1  0
  6  5  1  0
  7  8  2  0
  7  6  1  0
  9  8  1  0
 10 21  2  0
 11  9  1  0
 11 16  1  0
 12 20  1  0
 12 22  1  0
 13 19  1  0
 13 15  1  0
 14 20  1  0
 15 16  2  0
 15 14  1  0
 17 11  2  0
 18 17  1  0
 18 13  2  0
 19 12  1  0
 20 10  1  0
 22 24  2  0
 23 22  1  0
 25 23  1  0
 26 35  2  0
 26 31  1  0
 27 23  1  0
 27 31  1  0
 28 27  1  0
 29 30  1  0
 29 28  1  0
 30 26  1  0
 31 32  2  0
 32 33  1  0
 34 33  2  0
 35 34  1  0
 36 10  1  0
 36 37  1  0
 36 46  1  0
 37 40  1  0
 38 42  1  0
 38 37  1  0
 39 38  2  0
 42 41  1  0
 44 42  1  0
 44 45  1  0
 44 43  1  0
 46 49  1  1
 46 47  1  0
 48 46  1  0
 50 59  2  0
 50  1  1  0
 52 57  1  0
 53 54  1  0
 53 52  1  0
 55 54  1  0
 55 64  1  0
 55 56  1  0
 57 51  1  0
 57 56  1  0
 58 51  2  0
 59 51  1  0
 59 60  1  0
 61 62  2  0
 62 81  1  0
 63 62  1  0
 63 66  1  0
 64 61  1  0
 64 65  1  0
 65 63  2  0
 66 67  1  0
 67 68  2  0
 69 72  1  0
 69 68  1  0
 70 69  2  0
 71 70  1  0
 71 66  2  0
 72 73  1  0
 73 74  1  0
 74 75  2  0
 76 75  1  0
 76 80  1  0
 77 76  2  0
 78 73  2  0
 78 77  1  0
 79 78  1  0
 81 82  1  0
 82 85  1  0
 82 84  1  0
 83 81  2  0
 86 87  1  0
 86 61  1  0
 88 86  1  0
 92 89  1  6
 90 92  1  0
 92 91  1  0
 92 50  1  0
M  ISO  4   8 101   9 101  51 100  59 100
M  END
>  <TORSDO>  (76) 
F 21

>  <SCORE>  (76) 
-13.745

>  <name>  (76) 
76

>  <ligand_id>  (76) 
76

>  <original_smiles>  (76) 
[H]c1c([H])c([H])c2c(c1[H])C([H])([H])C([H])([H])C([H])([H])C2([H])N([H])C(=O)C1([H])N(C(=O)C([H])(N([H])C(=O)C([H])(N([H])C([H])([H])[H])C([H])([H])[H])C(C([H])([H])[H])(C([H])([H])[H])C([H])([H])[H])C([H])([H])c2c([H])c(OC([H])([H])C([H])([H])C([H])(N([H])C(=O)C([H])(N([H])C(=O)N3C([H])([H])C([H])([H])C([H])([H])C([H])(n4nc(-c5c([H])c([H])c(Oc6c([H])c([H])c(F)c([H])c6F)c([H])c5[H])c(C(=O)N([H])[H])c4N([H])[H])C3([H])[H])C(C([H])([H])[H])(C([H])([H])[H])C([H])([H])[H])C([H])([H])[H])c([H])c([H])c2C1([H])[H]

>  <smiles>  (76) 
[H]c1c([H])c([H])c2c(c1[H])C([H])([H])C([H])([H])C([H])([H])C2([H])N([H])C(=O)C1([H])N(C(=O)C([H])(N([H])C(=O)C([H])(N([H])C([H])([H])[H])C([H])([H])[H])C(C([H])([H])[H])(C([H])([H])[H])C([H])([H])[H])C([H])([H])c2c([H])c(OC([H])([H])C([H])([H])C([H])(N([H])C(=O)C([H])(N([H])C(=O)N3C([H])([H])C([H])([H])C([H])([H])C([H])(n4nc(-c5c([H])c([H])c(Oc6c([H])c([H])c(F)c([H])c6F)c([H])c5[H])c(C(=O)N([H])[H])c4N([H])[H])C3([H])[H])C(C([H])([H])[H])(C([H])([H])[H])C([H])([H])[H])C([H])([H])[H])c([H])c([H])c2C1([H])[H]

$$$$
77:0:0
     RDKit          3D

 94101  0  0  1  0  0  0  0  0999 V2000
  -29.8070  -19.3250   20.7590 C   0  0  0  0  0  0  0  0  0  0  0  0
  -29.0390  -20.4910   20.4330 N   0  0  0  0  0  0  0  0  0  0  0  0
  -30.7830  -19.4660   21.4960 O   0  0  0  0  0  0  0  0  0  0  0  0
  -28.1380  -20.2840   20.0190 H   0  0  0  0  0  0  0  0  0  0  0  0
  -29.3690  -22.0510   20.4160 C   0  0  0  0  0  2  0  0  0  0  0  0
  -28.3200  -23.3700   20.6590 C   0  0  0  0  0  2  0  0  0  0  0  0
  -28.4280  -24.9020   19.9270 C   0  0  0  0  0  2  0  0  0  0  0  0
  -28.2860  -26.3580   20.4770 O   0  0  0  0  0  0  0  0  0  0  0  0
  -24.5570  -32.0170   23.2950 C   0  0  0  0  0  0  0  0  0  0  0  0
  -27.1990  -27.2970   20.3300 C   0  0  0  0  0  0  0  0  0  0  0  0
  -23.3800  -30.6000   21.6520 C   0  0  0  0  0  3  0  0  0  0  0  0
  -24.8520  -29.0190   20.2520 C   0  0  0  0  0  0  0  0  0  0  0  0
  -25.9290  -30.8840   21.5070 C   0  0  0  0  0  2  0  0  0  0  0  0
  -26.0170  -29.4840   20.8720 C   0  0  0  0  0  0  0  0  0  0  0  0
  -27.1850  -28.6350   20.8990 C   0  0  0  0  0  3  0  0  0  0  0  0
  -26.0090  -26.9280   19.6680 C   0  0  0  0  0  3  0  0  0  0  0  0
  -24.8610  -27.7550   19.6360 C   0  0  0  0  0  3  0  0  0  0  0  0
  -23.6180  -29.9100   20.2800 C   0  0  0  0  0  2  0  0  0  0  0  0
  -24.6420  -31.1910   22.2070 N   0  0  0  0  0  0  0  0  0  0  0  0
  -23.4650  -32.2970   23.8120 O   0  0  0  0  0  0  0  0  0  0  0  0
  -22.7000  -29.5990   22.6190 C   0  0  0  0  0  0  0  0  0  0  0  0
  -21.3720  -29.4230   22.4860 N   0  0  0  0  0  0  0  0  0  0  0  0
  -23.3680  -28.9830   23.4520 O   0  0  0  0  0  0  0  0  0  0  0  0
  -20.8880  -29.9730   21.7890 H   0  0  0  0  0  0  0  0  0  0  0  0
  -17.9940  -28.2140   22.9720 C   0  0  0  0  0  0  0  0  0  0  0  0
  -20.5490  -28.4880   23.2580 C   0  0  0  0  0  3  0  0  0  0  0  0
  -20.6620  -27.0530   22.6930 C   0  0  0  0  0  2  0  0  0  0  0  0
  -19.5680  -26.7200   21.6720 C   0  0  0  0  0  2  0  0  0  0  0  0
  -18.1810  -26.8620   22.3040 C   0  0  0  0  0  2  0  0  0  0  0  0
  -19.1060  -28.9840   23.4050 C   0  0  0  0  0  0  0  0  0  0  0  0
  -18.8760  -30.2470   23.9920 C   0  0  0  0  0  3  0  0  0  0  0  0
  -17.5680  -30.7410   24.1490 C   0  0  0  0  0  3  0  0  0  0  0  0
  -16.4690  -29.9710   23.7280 C   0  0  0  0  0  3  0  0  0  0  0  0
  -16.6840  -28.7090   23.1460 C   0  0  0  0  0  3  0  0  0  0  0  0
  -25.8260  -32.6630   23.9300 C   0  0  0  0  0  3  0  0  0  0  0  0
  -25.5130  -34.0700   24.2260 N   0  0  0  0  0  0  0  0  0  0  0  0
  -25.8700  -35.1110   23.4620 C   0  0  0  0  0  0  0  0  0  0  0  0
  -26.5640  -34.9870   22.4500 O   0  0  0  0  0  0  0  0  0  0  0  0
  -24.8970  -34.2380   25.0090 H   0  0  0  0  0  0  0  0  0  0  0  0
  -24.1720  -36.9200   23.0310 C   0  0  0  0  0  1  0  0  0  0  0  0
  -25.3820  -36.5100   23.8870 C   0  0  0  0  0  3  0  0  0  0  0  0
  -27.4910  -37.3950   24.7810 C   0  0  0  0  0  1  0  0  0  0  0  0
  -26.4260  -37.5540   23.7940 N   0  0  0  0  0  0  0  0  0  0  0  0
  -26.0220  -38.4780   23.9090 H   0  0  0  0  0  0  0  0  0  0  0  0
  -26.3100  -31.9220   25.2370 C   0  0  1  0  0  0  0  0  0  0  0  0
  -25.1900  -31.7150   26.2840 C   0  0  0  0  0  1  0  0  0  0  0  0
  -26.9030  -30.5360   24.8940 C   0  0  0  0  0  1  0  0  0  0  0  0
  -27.4440  -32.7330   25.9100 C   0  0  0  0  0  1  0  0  0  0  0  0
  -29.5890  -17.7970   20.1120 C   0  0  0  0  0  0  0  0  0  0  0  0
  -30.6260  -15.2160   20.7890 C   0  0  0  0  0  0  0  0  0  0  0  0
  -30.6680  -12.8100   19.9660 C   0  0  0  0  0  2  0  0  0  0  0  0
  -29.8370  -12.6510   18.6670 C   0  0  0  0  0  2  0  0  0  0  0  0
  -28.3400  -12.4570   18.9820 C   0  0  0  0  0  2  0  0  0  0  0  0
  -27.8230  -13.4110   20.0930 C   0  0  0  0  0  3  0  0  0  0  0  0
  -28.7870  -13.4910   21.2960 C   0  0  0  0  0  2  0  0  0  0  0  0
  -30.0890  -13.9260   20.7760 N   0  0  0  0  0  0  0  0  0  0  0  0
  -31.8390  -15.3080   20.5810 O   0  0  0  0  0  0  0  0  0  0  0  0
  -29.7590  -16.3520   20.7990 N   0  0  0  0  0  4  0  0  0  0  0  0
  -28.8640  -16.0680   21.1680 H   0  0  0  0  0  0  0  0  0  0  0  0
  -25.3820  -13.9510   20.6450 C   0  0  0  0  0  0  0  0  0  0  0  0
  -24.3080  -13.1600   20.9480 C   0  0  0  0  0  0  0  0  0  0  0  0
  -24.8000  -11.8190   20.9760 C   0  0  0  0  0  0  0  0  0  0  0  0
  -26.4580  -13.0920   20.4970 N   0  0  0  0  0  0  0  0  0  0  0  0
  -26.1120  -11.8060   20.7640 N   0  0  0  0  0  0  0  0  0  0  0  0
  -24.0850  -10.5450   21.1290 C   0  0  0  0  0  0  0  0  0  0  0  0
  -24.4590   -9.6020   22.1120 C   0  0  0  0  0  3  0  0  0  0  0  0
  -23.7430   -8.3940   22.2550 C   0  0  0  0  0  3  0  0  0  0  0  0
  -22.6390   -8.1190   21.4130 C   0  0  0  0  0  0  0  0  0  0  0  0
  -22.2860   -9.0510   20.4200 C   0  0  0  0  0  3  0  0  0  0  0  0
  -23.0020  -10.2500   20.2760 C   0  0  0  0  0  3  0  0  0  0  0  0
  -21.9020   -6.9610   21.4610 O   0  0  0  0  0  0  0  0  0  0  0  0
  -21.7680   -6.2400   22.6190 C   0  0  0  0  0  0  0  0  0  0  0  0
  -21.1960   -6.8000   23.7820 C   0  0  0  0  0  3  0  0  0  0  0  0
  -21.0130   -6.0040   24.9310 C   0  0  0  0  0  3  0  0  0  0  0  0
  -21.3930   -4.6480   24.9160 C   0  0  0  0  0  0  0  0  0  0  0  0
  -21.9560   -4.0860   23.7560 C   0  0  0  0  0  3  0  0  0  0  0  0
  -22.1400   -4.8810   22.6110 C   0  0  0  0  0  0  0  0  0  0  0  0
  -22.6650   -4.3300   21.4900 F   0  0  0  0  0  0  0  0  0  0  0  0
  -21.2110   -3.8800   26.0160 F   0  0  0  0  0  0  0  0  0  0  0  0
  -22.8850  -13.6130   21.1020 C   0  0  0  0  0  0  0  0  0  0  0  0
  -22.1050  -12.9170   21.9210 N   0  0  0  0  0  0  0  0  0  0  0  0
  -22.4710  -14.6200   20.5310 O   0  0  0  0  0  0  0  0  0  0  0  0
  -22.4520  -12.1050   22.4110 H   0  0  0  0  0  0  0  0  0  0  0  0
  -21.1460  -13.2040   22.0650 H   0  0  0  0  0  0  0  0  0  0  0  0
  -25.5290  -15.3220   20.4540 N   0  0  0  0  0  0  0  0  0  0  0  0
  -24.7320  -15.9500   20.4880 H   0  0  0  0  0  0  0  0  0  0  0  0
  -26.3750  -15.7730   20.1390 H   0  0  0  0  0  0  0  0  0  0  0  0
  -31.4790  -17.8570   18.3480 C   0  0  0  0  0  1  0  0  0  0  0  0
  -29.4150  -16.4570   17.9030 C   0  0  0  0  0  1  0  0  0  0  0  0
  -29.9510  -17.7470   18.5620 C   0  0  1  0  0  0  0  0  0  0  0  0
  -29.3400  -18.8680   17.7990 N   0  0  0  0  0  4  0  0  0  0  0  0
  -29.5830  -18.7980   16.8240 H   0  0  0  0  0  0  0  0  0  0  0  0
  -29.6630  -19.7650   18.1200 H   0  0  0  0  0  0  0  0  0  0  0  0
  -28.3360  -18.8480   17.8490 H   0  0  0  0  0  0  0  0  0  0  0  0
  1  3  2  0
  2  1  1  0
  4  2  1  0
  5  2  1  0
  5  6  1  0
  7  8  1  0
  7  6  1  0
  9 20  2  0
 10  8  1  0
 10 15  1  0
 11 19  1  0
 11 21  1  0
 12 18  1  0
 12 14  1  0
 13 19  1  0
 14 15  2  0
 14 13  1  0
 16 10  2  0
 17 16  1  0
 17 12  2  0
 18 11  1  0
 19  9  1  0
 21 23  2  0
 22 21  1  0
 24 22  1  0
 25 34  2  0
 25 30  1  0
 26 22  1  0
 26 30  1  0
 27 26  1  0
 28 29  1  0
 28 27  1  0
 29 25  1  0
 30 31  2  0
 31 32  1  0
 33 32  2  0
 34 33  1  0
 35  9  1  0
 35 36  1  0
 35 45  1  0
 36 39  1  0
 37 41  1  0
 37 36  1  0
 38 37  2  0
 41 40  1  0
 43 41  1  0
 43 44  1  0
 43 42  1  0
 45 48  1  1
 45 46  1  0
 47 45  1  0
 49  1  1  0
 49 58  2  3
 50 58  1  0
 51 56  1  0
 52 53  1  0
 52 51  1  0
 54 53  1  0
 54 63  1  0
 54 55  1  0
 56 50  1  0
 56 55  1  0
 57 50  2  0
 58 59  1  0
 60 61  2  0
 61 62  1  0
 61 80  1  0
 62 65  1  0
 63 60  1  0
 63 64  1  0
 64 62  2  0
 65 66  1  0
 66 67  2  0
 68 71  1  0
 68 67  1  0
 69 68  2  0
 70 69  1  0
 70 65  2  0
 71 72  1  0
 72 73  1  0
 73 74  2  0
 75 74  1  0
 75 79  1  0
 76 75  2  0
 77 72  2  0
 77 76  1  0
 78 77  1  0
 80 81  1  0
 81 84  1  0
 81 83  1  0
 82 80  2  0
 85 86  1  0
 85 60  1  0
 87 85  1  0
 90 88  1  1
 89 90  1  0
 90 49  1  0
 91 94  1  0
 91 93  1  0
 91 90  1  0
 92 91  1  0
M  ISO  4   7 101   8 101  50 100  58 100
M  END
>  <TORSDO>  (77) 
F 22

>  <SCORE>  (77) 
-13.173

>  <name>  (77) 
77

>  <ligand_id>  (77) 
77

>  <original_smiles>  (77) 
[H]c1c([H])c([H])c2c(c1[H])C([H])([H])C([H])([H])C([H])([H])C2([H])N([H])C(=O)C1([H])N(C(=O)C([H])(N([H])C(=O)C([H])(N([H])C([H])([H])[H])C([H])([H])[H])C(C([H])([H])[H])(C([H])([H])[H])C([H])([H])[H])C([H])([H])c2c([H])c(OC([H])([H])C([H])([H])C([H])([H])N([H])C(=O)C([H])(N([H])C(=O)N3C([H])([H])C([H])([H])C([H])([H])C([H])(n4nc(-c5c([H])c([H])c(Oc6c([H])c([H])c(F)c([H])c6F)c([H])c5[H])c(C(=O)N([H])[H])c4N([H])[H])C3([H])[H])C(C([H])([H])[H])(C([H])([H])[H])[N+]([H])([H])[H])c([H])c([H])c2C1([H])[H]

>  <smiles>  (77) 
[H]c1c([H])c([H])c2c(c1[H])C([H])([H])C([H])([H])C([H])([H])C2([H])N([H])C(=O)C1([H])N(C(=O)C([H])(N([H])C(=O)C([H])(N([H])C([H])([H])[H])C([H])([H])[H])C(C([H])([H])[H])(C([H])([H])[H])C([H])([H])[H])C([H])([H])c2c([H])c(OC([H])([H])C([H])([H])C([H])([H])N([H])C(=O)C([H])(N([H])C(=O)N3C([H])([H])C([H])([H])C([H])([H])C([H])(n4nc(-c5c([H])c([H])c(Oc6c([H])c([H])c(F)c([H])c6F)c([H])c5[H])c(C(=O)N([H])[H])c4N([H])[H])C3([H])[H])C(C([H])([H])[H])(C([H])([H])[H])[N+]([H])([H])[H])c([H])c([H])c2C1([H])[H]

$$$$
78:0:0
     RDKit          3D

 95102  0  0  1  0  0  0  0  0999 V2000
  -30.6690  -19.1800   20.4270 C   0  0  0  0  0  0  0  0  0  0  0  0
  -29.9950  -20.1110   19.7370 N   0  0  0  0  0  0  0  0  0  0  0  0
  -31.5120  -19.4710   21.2790 O   0  0  0  0  0  0  0  0  0  0  0  0
  -29.3300  -19.7890   19.0440 H   0  0  0  0  0  0  0  0  0  0  0  0
  -30.3610  -17.7050   20.0970 C   0  0  0  0  0  2  0  0  0  0  0  0
  -30.9040  -16.6590   21.1170 C   0  0  0  0  0  3  0  0  0  0  0  0
  -31.1390  -14.3490   20.0800 C   0  0  0  0  0  0  0  0  0  0  0  0
  -30.7280  -12.2510   18.8460 C   0  0  0  0  0  2  0  0  0  0  0  0
  -29.7540  -12.5290   17.6820 C   0  0  0  0  0  2  0  0  0  0  0  0
  -28.2850  -12.4680   18.1520 C   0  0  0  0  0  2  0  0  0  0  0  0
  -28.0340  -13.2870   19.4480 C   0  0  0  0  0  3  0  0  0  0  0  0
  -29.1010  -12.9410   20.5090 C   0  0  0  0  0  2  0  0  0  0  0  0
  -30.4270  -13.2040   19.9210 N   0  0  0  0  0  0  0  0  0  0  0  0
  -32.2380  -14.5490   19.5540 O   0  0  0  0  0  0  0  0  0  0  0  0
  -30.4920  -15.2970   20.7660 N   0  0  0  0  0  0  0  0  0  0  0  0
  -29.6000  -15.0360   21.1680 H   0  0  0  0  0  0  0  0  0  0  0  0
  -25.6840  -14.0180   20.2170 C   0  0  0  0  0  0  0  0  0  0  0  0
  -24.5950  -13.3000   20.6340 C   0  0  0  0  0  0  0  0  0  0  0  0
  -24.9910  -11.9290   20.6010 C   0  0  0  0  0  0  0  0  0  0  0  0
  -26.6810  -13.0880   19.9650 N   0  0  0  0  0  0  0  0  0  0  0  0
  -26.2650  -11.8270   20.2500 N   0  0  0  0  0  0  0  0  0  0  0  0
  -24.2140  -10.7020   20.8250 C   0  0  0  0  0  0  0  0  0  0  0  0
  -24.6070   -9.7430   21.7830 C   0  0  0  0  0  3  0  0  0  0  0  0
  -23.8330   -8.5810   21.9890 C   0  0  0  0  0  3  0  0  0  0  0  0
  -22.6520   -8.3710   21.2370 C   0  0  0  0  0  0  0  0  0  0  0  0
  -22.2800   -9.3190   20.2680 C   0  0  0  0  0  3  0  0  0  0  0  0
  -23.0540  -10.4720   20.0600 C   0  0  0  0  0  3  0  0  0  0  0  0
  -21.8520   -7.2610   21.3520 O   0  0  0  0  0  0  0  0  0  0  0  0
  -21.7350   -6.5770   22.5360 C   0  0  0  0  0  0  0  0  0  0  0  0
  -21.3030   -7.2090   23.7230 C   0  0  0  0  0  3  0  0  0  0  0  0
  -21.1300   -6.4540   24.9000 C   0  0  0  0  0  3  0  0  0  0  0  0
  -21.3790   -5.0690   24.8920 C   0  0  0  0  0  0  0  0  0  0  0  0
  -21.8040   -4.4370   23.7110 C   0  0  0  0  0  3  0  0  0  0  0  0
  -21.9780   -5.1880   22.5360 C   0  0  0  0  0  0  0  0  0  0  0  0
  -22.3670   -4.5710   21.3950 F   0  0  0  0  0  0  0  0  0  0  0  0
  -21.2060   -4.3420   26.0210 F   0  0  0  0  0  0  0  0  0  0  0  0
  -23.2300  -13.8460   20.9460 C   0  0  0  0  0  0  0  0  0  0  0  0
  -22.5080  -13.2050   21.8580 N   0  0  0  0  0  0  0  0  0  0  0  0
  -22.8140  -14.8720   20.4110 O   0  0  0  0  0  0  0  0  0  0  0  0
  -22.8570  -12.3780   22.3180 H   0  0  0  0  0  0  0  0  0  0  0  0
  -21.5890  -13.5470   22.0990 H   0  0  0  0  0  0  0  0  0  0  0  0
  -25.9010  -15.3760   20.0050 N   0  0  0  0  0  0  0  0  0  0  0  0
  -25.1500  -16.0540   20.0670 H   0  0  0  0  0  0  0  0  0  0  0  0
  -26.7320  -15.7520   19.5670 H   0  0  0  0  0  0  0  0  0  0  0  0
  -30.4390  -16.8940   22.5650 C   0  0  0  0  0  0  0  0  0  0  0  0
  -31.1090  -17.7640   23.3080 N   0  0  0  0  0  0  0  0  0  0  0  0
  -29.4710  -16.2870   23.0210 O   0  0  0  0  0  0  0  0  0  0  0  0
  -31.8380  -18.3240   22.8780 H   0  0  0  0  0  0  0  0  0  0  0  0
  -30.8410  -17.9430   24.2630 H   0  0  0  0  0  0  0  0  0  0  0  0
  -30.1610  -21.5610   19.8500 C   0  0  0  0  0  2  0  0  0  0  0  0
  -28.9840  -22.2230   20.5900 C   0  0  0  0  0  2  0  0  0  0  0  0
  -29.1800  -23.6320   20.6450 O   0  0  0  0  0  0  0  0  0  0  0  0
  -28.0820  -24.3180   21.2430 C   0  0  0  0  0  2  0  0  0  0  0  0
  -28.4420  -25.7990   21.4800 C   0  0  0  0  0  2  0  0  0  0  0  0
  -28.2780  -26.5880   20.3000 O   0  0  0  0  0  0  0  0  0  0  0  0
  -24.5610  -31.8900   23.2500 C   0  0  0  0  0  0  0  0  0  0  0  0
  -27.1330  -27.3450   20.2950 C   0  0  0  0  0  0  0  0  0  0  0  0
  -23.3330  -30.4750   21.6340 C   0  0  0  0  0  3  0  0  0  0  0  0
  -24.7650  -28.8730   20.2580 C   0  0  0  0  0  0  0  0  0  0  0  0
  -25.8630  -30.7830   21.4390 C   0  0  0  0  0  2  0  0  0  0  0  0
  -25.9250  -29.3920   20.8450 C   0  0  0  0  0  0  0  0  0  0  0  0
  -27.1120  -28.6290   20.8750 C   0  0  0  0  0  3  0  0  0  0  0  0
  -25.9650  -26.8320   19.6980 C   0  0  0  0  0  3  0  0  0  0  0  0
  -24.7780  -27.5860   19.6850 C   0  0  0  0  0  3  0  0  0  0  0  0
  -23.5360  -29.7550   20.2730 C   0  0  0  0  0  2  0  0  0  0  0  0
  -24.6030  -31.0670   22.1640 N   0  0  0  0  0  0  0  0  0  0  0  0
  -23.4850  -32.1950   23.7800 O   0  0  0  0  0  0  0  0  0  0  0  0
  -22.6590  -29.4890   22.6130 C   0  0  0  0  0  0  0  0  0  0  0  0
  -21.3360  -29.3200   22.4720 N   0  0  0  0  0  0  0  0  0  0  0  0
  -23.3250  -28.8790   23.4540 O   0  0  0  0  0  0  0  0  0  0  0  0
  -20.8610  -29.8620   21.7630 H   0  0  0  0  0  0  0  0  0  0  0  0
  -17.9440  -28.1730   22.9410 C   0  0  0  0  0  0  0  0  0  0  0  0
  -20.4970  -28.4160   23.2580 C   0  0  0  0  0  3  0  0  0  0  0  0
  -20.5990  -26.9670   22.7290 C   0  0  0  0  0  2  0  0  0  0  0  0
  -19.5120  -26.6210   21.7030 C   0  0  0  0  0  2  0  0  0  0  0  0
  -18.1200  -26.8000   22.3140 C   0  0  0  0  0  2  0  0  0  0  0  0
  -19.0600  -28.9390   23.3700 C   0  0  0  0  0  0  0  0  0  0  0  0
  -18.8430  -30.2240   23.9120 C   0  0  0  0  0  3  0  0  0  0  0  0
  -17.5410  -30.7420   24.0360 C   0  0  0  0  0  3  0  0  0  0  0  0
  -16.4370  -29.9740   23.6260 C   0  0  0  0  0  3  0  0  0  0  0  0
  -16.6400  -28.6930   23.0820 C   0  0  0  0  0  3  0  0  0  0  0  0
  -25.8600  -32.5070   23.8600 C   0  0  0  0  0  3  0  0  0  0  0  0
  -25.5640  -33.9010   24.2100 N   0  0  0  0  0  0  0  0  0  0  0  0
  -25.8920  -34.9590   23.4570 C   0  0  0  0  0  0  0  0  0  0  0  0
  -26.5510  -34.8640   22.4170 O   0  0  0  0  0  0  0  0  0  0  0  0
  -24.9750  -34.0490   25.0180 H   0  0  0  0  0  0  0  0  0  0  0  0
  -24.1630  -36.7590   23.1430 C   0  0  0  0  0  1  0  0  0  0  0  0
  -25.4150  -36.3450   23.9340 C   0  0  0  0  0  3  0  0  0  0  0  0
  -27.5660  -37.2130   24.7380 C   0  0  0  0  0  1  0  0  0  0  0  0
  -26.4480  -37.3960   23.8160 N   0  0  0  0  0  0  0  0  0  0  0  0
  -26.0480  -38.3150   23.9790 H   0  0  0  0  0  0  0  0  0  0  0  0
  -26.3910  -31.7160   25.1180 C   0  0  1  0  0  0  0  0  0  0  0  0
  -25.3070  -31.4560   26.1900 C   0  0  0  0  0  1  0  0  0  0  0  0
  -26.9800  -30.3490   24.6970 C   0  0  0  0  0  1  0  0  0  0  0  0
  -27.5470  -32.5020   25.7830 C   0  0  0  0  0  1  0  0  0  0  0  0
  1  3  2  0
  2 50  1  0
  2  1  1  0
  4  2  1  0
  5  1  1  0
  6  5  1  0
  6 45  1  0
  7 15  1  0
  8 13  1  0
  9 10  1  0
  9  8  1  0
 11 10  1  0
 11 20  1  0
 11 12  1  0
 13  7  1  0
 13 12  1  0
 14  7  2  0
 15  6  1  0
 15 16  1  0
 17 18  2  0
 18 37  1  0
 19 18  1  0
 19 22  1  0
 20 17  1  0
 20 21  1  0
 21 19  2  0
 22 23  1  0
 23 24  2  0
 25 28  1  0
 25 24  1  0
 26 25  2  0
 27 26  1  0
 27 22  2  0
 28 29  1  0
 29 30  1  0
 30 31  2  0
 32 31  1  0
 32 36  1  0
 33 32  2  0
 34 29  2  0
 34 33  1  0
 35 34  1  0
 37 38  1  0
 38 41  1  0
 38 40  1  0
 39 37  2  0
 42 43  1  0
 42 17  1  0
 44 42  1  0
 45 47  2  0
 45 46  1  0
 46 49  1  0
 48 46  1  0
 50 51  1  0
 51 52  1  0
 52 53  1  0
 53 54  1  0
 55 54  1  0
 56 67  2  0
 57 55  1  0
 57 62  1  0
 58 66  1  0
 58 68  1  0
 59 65  1  0
 59 61  1  0
 60 66  1  0
 61 62  2  0
 61 60  1  0
 63 57  2  0
 64 63  1  0
 64 59  2  0
 65 58  1  0
 66 56  1  0
 68 70  2  0
 69 68  1  0
 71 69  1  0
 72 81  2  0
 72 77  1  0
 73 69  1  0
 73 77  1  0
 74 73  1  0
 75 76  1  0
 75 74  1  0
 76 72  1  0
 77 78  2  0
 78 79  1  0
 80 79  2  0
 81 80  1  0
 82 56  1  0
 82 83  1  0
 82 92  1  0
 83 86  1  0
 84 88  1  0
 84 83  1  0
 85 84  2  0
 88 87  1  0
 90 88  1  0
 90 91  1  0
 90 89  1  0
 92 95  1  1
 92 93  1  0
 94 92  1  0
M  ISO  4   7 100  15 100  54 101  55 101
M  END
>  <TORSDO>  (78) 
F 24

>  <SCORE>  (78) 
-10.705

>  <name>  (78) 
78

>  <ligand_id>  (78) 
78

>  <original_smiles>  (78) 
[H]c1c([H])c([H])c2c(c1[H])C([H])([H])C([H])([H])C([H])([H])C2([H])N([H])C(=O)C1([H])N(C(=O)C([H])(N([H])C(=O)C([H])(N([H])C([H])([H])[H])C([H])([H])[H])C(C([H])([H])[H])(C([H])([H])[H])C([H])([H])[H])C([H])([H])c2c([H])c(OC([H])([H])C([H])([H])OC([H])([H])C([H])([H])N([H])C(=O)C([H])([H])C([H])(C(=O)N([H])[H])N([H])C(=O)N3C([H])([H])C([H])([H])C([H])([H])C([H])(n4nc(-c5c([H])c([H])c(Oc6c([H])c([H])c(F)c([H])c6F)c([H])c5[H])c(C(=O)N([H])[H])c4N([H])[H])C3([H])[H])c([H])c([H])c2C1([H])[H]

>  <smiles>  (78) 
[H]c1c([H])c([H])c2c(c1[H])C([H])([H])C([H])([H])C([H])([H])C2([H])N([H])C(=O)C1([H])N(C(=O)C([H])(N([H])C(=O)C([H])(N([H])C([H])([H])[H])C([H])([H])[H])C(C([H])([H])[H])(C([H])([H])[H])C([H])([H])[H])C([H])([H])c2c([H])c(OC([H])([H])C([H])([H])OC([H])([H])C([H])([H])N([H])C(=O)C([H])([H])C([H])(C(=O)N([H])[H])N([H])C(=O)N3C([H])([H])C([H])([H])C([H])([H])C([H])(n4nc(-c5c([H])c([H])c(Oc6c([H])c([H])c(F)c([H])c6F)c([H])c5[H])c(C(=O)N([H])[H])c4N([H])[H])C3([H])[H])c([H])c([H])c2C1([H])[H]

$$$$
79:0:0
     RDKit          3D

101108  0  0  1  0  0  0  0  0999 V2000
  -30.7290  -18.7280   20.6470 C   0  0  0  0  0  3  0  0  0  0  0  0
  -30.3890  -18.2230   21.9410 O   0  0  0  0  0  0  0  0  0  0  0  0
  -31.5090  -17.9810   22.8060 C   0  0  0  0  0  2  0  0  0  0  0  0
  -30.9750  -17.3460   24.0960 C   0  0  0  0  0  2  0  0  0  0  0  0
  -30.3260  -16.0480   23.8330 N   0  0  0  0  0  4  0  0  0  0  0  0
  -29.7730  -16.1180   22.9950 H   0  0  0  0  0  0  0  0  0  0  0  0
  -29.7140  -15.8080   24.5920 H   0  0  0  0  0  0  0  0  0  0  0  0
  -31.0090  -15.3140   23.7330 H   0  0  0  0  0  0  0  0  0  0  0  0
  -30.9780  -17.4940   19.6280 C   0  0  0  0  0  3  0  0  0  0  0  0
  -31.2450  -14.9140   19.8830 C   0  0  0  0  0  0  0  0  0  0  0  0
  -30.8300  -12.7210   18.7950 C   0  0  0  0  0  2  0  0  0  0  0  0
  -29.8540  -12.8920   17.6110 C   0  0  0  0  0  2  0  0  0  0  0  0
  -28.3920  -12.8480   18.0880 C   0  0  0  0  0  2  0  0  0  0  0  0
  -28.1290  -13.6760   19.3770 C   0  0  0  0  0  3  0  0  0  0  0  0
  -29.2280  -13.4630   20.4390 C   0  0  0  0  0  2  0  0  0  0  0  0
  -30.5170  -13.7530   19.8030 N   0  0  0  0  0  0  0  0  0  0  0  0
  -32.4140  -14.9520   19.5040 O   0  0  0  0  0  0  0  0  0  0  0  0
  -30.5580  -16.0940   20.0720 N   0  0  0  0  0  0  0  0  0  0  0  0
  -29.5890  -15.9970   20.3340 H   0  0  0  0  0  0  0  0  0  0  0  0
  -25.7630  -14.3240   20.1300 C   0  0  0  0  0  0  0  0  0  0  0  0
  -24.6930  -13.5800   20.5440 C   0  0  0  0  0  0  0  0  0  0  0  0
  -25.1360  -12.2220   20.5480 C   0  0  0  0  0  0  0  0  0  0  0  0
  -26.7890  -13.4240   19.9030 N   0  0  0  0  0  0  0  0  0  0  0  0
  -26.4200  -12.1550   20.2160 N   0  0  0  0  0  0  0  0  0  0  0  0
  -24.3940  -10.9760   20.7910 C   0  0  0  0  0  0  0  0  0  0  0  0
  -24.7840  -10.0710   21.7990 C   0  0  0  0  0  3  0  0  0  0  0  0
  -24.0480   -8.8900   22.0280 C   0  0  0  0  0  3  0  0  0  0  0  0
  -22.9010   -8.6080   21.2500 C   0  0  0  0  0  0  0  0  0  0  0  0
  -22.5300   -9.4990   20.2270 C   0  0  0  0  0  3  0  0  0  0  0  0
  -23.2690  -10.6720   19.9990 C   0  0  0  0  0  3  0  0  0  0  0  0
  -22.1350   -7.4740   21.3870 O   0  0  0  0  0  0  0  0  0  0  0  0
  -21.9720   -6.8600   22.6020 C   0  0  0  0  0  0  0  0  0  0  0  0
  -21.4520   -7.5430   23.7230 C   0  0  0  0  0  3  0  0  0  0  0  0
  -21.2410   -6.8540   24.9340 C   0  0  0  0  0  3  0  0  0  0  0  0
  -21.5350   -5.4790   25.0210 C   0  0  0  0  0  0  0  0  0  0  0  0
  -22.0450   -4.7950   23.9040 C   0  0  0  0  0  3  0  0  0  0  0  0
  -22.2610   -5.4840   22.6990 C   0  0  0  0  0  0  0  0  0  0  0  0
  -22.7360   -4.8190   21.6190 F   0  0  0  0  0  0  0  0  0  0  0  0
  -21.3210   -4.8130   26.1790 F   0  0  0  0  0  0  0  0  0  0  0  0
  -23.3070  -14.0890   20.8200 C   0  0  0  0  0  0  0  0  0  0  0  0
  -22.6010  -13.4630   21.7520 N   0  0  0  0  0  0  0  0  0  0  0  0
  -22.8680  -15.0830   20.2420 O   0  0  0  0  0  0  0  0  0  0  0  0
  -22.9670  -12.6590   22.2390 H   0  0  0  0  0  0  0  0  0  0  0  0
  -21.6690  -13.7830   21.9750 H   0  0  0  0  0  0  0  0  0  0  0  0
  -25.9400  -15.6840   19.9070 N   0  0  0  0  0  0  0  0  0  0  0  0
  -25.1170  -16.2770   19.8660 H   0  0  0  0  0  0  0  0  0  0  0  0
  -26.7150  -16.0540   19.3720 H   0  0  0  0  0  0  0  0  0  0  0  0
  -30.4720  -17.8040   18.1830 C   0  0  0  0  0  2  0  0  0  0  0  0
  -31.2090  -17.0650   17.0510 C   0  0  0  0  0  2  0  0  0  0  0  0
  -30.9540  -17.6260   15.7130 N   0  0  0  0  0  4  0  0  0  0  0  0
  -29.9710  -17.6760   15.5230 H   0  0  0  0  0  0  0  0  0  0  0  0
  -31.3710  -17.0360   15.0130 H   0  0  0  0  0  0  0  0  0  0  0  0
  -31.3520  -18.5430   15.6100 H   0  0  0  0  0  0  0  0  0  0  0  0
  -29.6730  -19.8830   20.2410 C   0  0  0  0  0  3  0  0  0  0  0  0
  -29.7250  -21.3580   20.8700 C   0  0  0  0  0  3  0  0  0  0  0  0
  -28.8740  -22.4150   20.1690 N   0  0  0  0  0  4  0  0  0  0  0  0
  -27.9110  -22.1990   20.3790 H   0  0  0  0  0  0  0  0  0  0  0  0
  -28.9840  -22.2850   19.1750 H   0  0  0  0  0  0  0  0  0  0  0  0
  -29.1100  -23.8970   20.4570 C   0  0  0  0  0  3  0  0  0  0  0  0
  -28.0440  -24.9200   19.8510 C   0  0  0  0  0  3  0  0  0  0  0  0
  -28.2560  -26.3900   19.9710 O   0  0  0  0  0  0  0  0  0  0  0  0
  -24.5180  -31.7590   23.0440 C   0  0  0  0  0  0  0  0  0  0  0  0
  -27.1300  -27.2350   19.9270 C   0  0  0  0  0  0  0  0  0  0  0  0
  -23.3040  -30.3330   21.4400 C   0  0  0  0  0  3  0  0  0  0  0  0
  -24.7430  -28.8140   19.9760 C   0  0  0  0  0  0  0  0  0  0  0  0
  -25.8310  -30.7000   21.1870 C   0  0  0  0  0  2  0  0  0  0  0  0
  -25.9210  -29.3200   20.5450 C   0  0  0  0  0  0  0  0  0  0  0  0
  -27.1170  -28.5440   20.5110 C   0  0  0  0  0  3  0  0  0  0  0  0
  -25.9270  -26.7970   19.3230 C   0  0  0  0  0  3  0  0  0  0  0  0
  -24.7480  -27.5610   19.3580 C   0  0  0  0  0  3  0  0  0  0  0  0
  -23.4990  -29.6730   20.0500 C   0  0  0  0  0  2  0  0  0  0  0  0
  -24.5720  -30.9480   21.9480 N   0  0  0  0  0  0  0  0  0  0  0  0
  -23.4420  -32.0120   23.6060 O   0  0  0  0  0  0  0  0  0  0  0  0
  -22.6920  -29.2950   22.4140 C   0  0  0  0  0  0  0  0  0  0  0  0
  -21.3760  -29.0540   22.2930 N   0  0  0  0  0  0  0  0  0  0  0  0
  -23.4000  -28.7160   23.2430 O   0  0  0  0  0  0  0  0  0  0  0  0
  -20.8610  -29.5790   21.6000 H   0  0  0  0  0  0  0  0  0  0  0  0
  -18.0680  -27.6790   22.7850 C   0  0  0  0  0  0  0  0  0  0  0  0
  -20.6030  -28.0920   23.0810 C   0  0  0  0  0  3  0  0  0  0  0  0
  -20.7980  -26.6530   22.5500 C   0  0  0  0  0  2  0  0  0  0  0  0
  -19.7300  -26.2350   21.5340 C   0  0  0  0  0  2  0  0  0  0  0  0
  -18.3330  -26.3220   22.1540 C   0  0  0  0  0  2  0  0  0  0  0  0
  -19.1360  -28.5160   23.2070 C   0  0  0  0  0  0  0  0  0  0  0  0
  -18.8370  -29.7820   23.7590 C   0  0  0  0  0  3  0  0  0  0  0  0
  -17.5020  -30.2110   23.8940 C   0  0  0  0  0  3  0  0  0  0  0  0
  -16.4500  -29.3720   23.4890 C   0  0  0  0  0  3  0  0  0  0  0  0
  -16.7320  -28.1080   22.9410 C   0  0  0  0  0  3  0  0  0  0  0  0
  -25.8010  -32.4240   23.6280 C   0  0  0  0  0  3  0  0  0  0  0  0
  -26.4110  -31.6260   24.8450 C   0  0  1  0  0  0  0  0  0  0  0  0
  -25.3800  -31.2750   25.9420 C   0  0  0  0  0  1  0  0  0  0  0  0
  -27.0520  -30.3050   24.3620 C   0  0  0  0  0  1  0  0  0  0  0  0
  -27.5370  -32.4570   25.5070 C   0  0  0  0  0  1  0  0  0  0  0  0
  -25.4490  -33.7940   24.0310 N   0  0  0  0  0  0  0  0  0  0  0  0
  -25.7200  -34.8930   23.3150 C   0  0  0  0  0  0  0  0  0  0  0  0
  -26.3650  -34.8630   22.2640 O   0  0  0  0  0  0  0  0  0  0  0  0
  -24.8790  -33.8900   24.8590 H   0  0  0  0  0  0  0  0  0  0  0  0
  -23.9230  -36.6380   23.0820 C   0  0  0  0  0  1  0  0  0  0  0  0
  -25.1930  -36.2390   23.8500 C   0  0  0  0  0  3  0  0  0  0  0  0
  -27.3100  -37.1630   24.6860 C   0  0  0  0  0  1  0  0  0  0  0  0
  -26.1840  -37.3340   23.7700 N   0  0  0  0  0  0  0  0  0  0  0  0
  -25.7480  -38.2290   23.9710 H   0  0  0  0  0  0  0  0  0  0  0  0
  1 54  1  0
  1  2  1  0
  2  3  1  0
  3  4  1  0
  5  4  1  0
  5  7  1  0
  6  5  1  0
  8  5  1  0
  9 48  1  0
  9 18  1  0
  9  1  1  0
 10 18  1  0
 11 16  1  0
 12 13  1  0
 12 11  1  0
 14 13  1  0
 14 23  1  0
 14 15  1  0
 16 10  1  0
 16 15  1  0
 17 10  2  0
 18 19  1  0
 20 21  2  0
 21 22  1  0
 21 40  1  0
 22 25  1  0
 23 20  1  0
 23 24  1  0
 24 22  2  0
 25 26  1  0
 26 27  2  0
 28 31  1  0
 28 27  1  0
 29 28  2  0
 30 29  1  0
 30 25  2  0
 31 32  1  0
 32 37  2  0
 32 33  1  0
 33 34  2  0
 34 35  1  0
 35 39  1  0
 36 35  2  0
 37 36  1  0
 38 37  1  0
 40 41  1  0
 41 44  1  0
 41 43  1  0
 42 40  2  0
 45 20  1  0
 46 45  1  0
 47 45  1  0
 49 48  1  0
 50 49  1  0
 51 50  1  0
 52 50  1  0
 53 50  1  0
 54 55  2  0
 56 57  1  0
 56 59  1  0
 56 55  1  0
 58 56  1  0
 60 61  1  0
 60 59  2  0
 62 73  2  0
 63 61  1  0
 63 68  1  0
 64 72  1  0
 64 74  1  0
 65 71  1  0
 65 67  1  0
 66 72  1  0
 67 66  1  0
 68 67  2  0
 69 70  1  0
 69 63  2  0
 70 65  2  0
 71 64  1  0
 72 62  1  0
 74 76  2  0
 75 74  1  0
 77 75  1  0
 78 87  2  0
 78 83  1  0
 79 75  1  0
 79 83  1  0
 80 79  1  0
 81 82  1  0
 81 80  1  0
 82 78  1  0
 83 84  2  0
 84 85  1  0
 86 85  2  0
 87 86  1  0
 88 62  1  0
 88 93  1  0
 88 89  1  0
 89 92  1  1
 89 90  1  0
 91 89  1  0
 93 96  1  0
 94 98  1  0
 94 93  1  0
 95 94  2  0
 98 97  1  0
100 98  1  0
100101  1  0
100 99  1  0
M  ISO  4  10 100  18 100  60 101  61 101
M  END
>  <TORSDO>  (79) 
F 29

>  <SCORE>  (79) 
-6.166

>  <name>  (79) 
79

>  <ligand_id>  (79) 
79

>  <original_smiles>  (79) 
[H]c1c([H])c([H])c2c(c1[H])C([H])([H])C([H])([H])C([H])([H])C2([H])N([H])C(=O)C1([H])N(C(=O)C([H])(N([H])C(=O)C([H])(N([H])C([H])([H])[H])C([H])([H])[H])C(C([H])([H])[H])(C([H])([H])[H])C([H])([H])[H])C([H])([H])c2c([H])c(OC([H])([H])C([H])([H])[N+]([H])([H])C([H])([H])C([H])([H])C([H])(OC([H])([H])C([H])([H])[N+]([H])([H])[H])C([H])(N([H])C(=O)N3C([H])([H])C([H])([H])C([H])([H])C([H])(n4nc(-c5c([H])c([H])c(Oc6c([H])c([H])c(F)c([H])c6F)c([H])c5[H])c(C(=O)N([H])[H])c4N([H])[H])C3([H])[H])C([H])([H])C([H])([H])[N+]([H])([H])[H])c([H])c([H])c2C1([H])[H]

>  <smiles>  (79) 
[H]c1c([H])c([H])c2c(c1[H])C([H])([H])C([H])([H])C([H])([H])C2([H])N([H])C(=O)C1([H])N(C(=O)C([H])(N([H])C(=O)C([H])(N([H])C([H])([H])[H])C([H])([H])[H])C(C([H])([H])[H])(C([H])([H])[H])C([H])([H])[H])C([H])([H])c2c([H])c(OC([H])([H])C([H])([H])[N+]([H])([H])C([H])([H])C([H])([H])C([H])(OC([H])([H])C([H])([H])[N+]([H])([H])[H])C([H])(N([H])C(=O)N3C([H])([H])C([H])([H])C([H])([H])C([H])(n4nc(-c5c([H])c([H])c(Oc6c([H])c([H])c(F)c([H])c6F)c([H])c5[H])c(C(=O)N([H])[H])c4N([H])[H])C3([H])[H])C([H])([H])C([H])([H])[N+]([H])([H])[H])c([H])c([H])c2C1([H])[H]

$$$$
80:0:0
     RDKit          3D

100107  0  0  1  0  0  0  0  0999 V2000
  -25.8670  -18.4300   18.7580 C   0  0  0  0  0  1  0  0  0  0  0  0
  -27.3260  -18.8660   18.5140 C   0  0  0  0  0  3  0  0  0  0  0  0
  -29.4270  -17.6210   18.9860 C   0  0  0  0  0  0  0  0  0  0  0  0
  -28.1820  -17.9830   19.3180 N   0  0  0  0  0  0  0  0  0  0  0  0
  -29.8680  -17.8820   17.8660 O   0  0  0  0  0  0  0  0  0  0  0  0
  -27.7440  -17.5860   20.1360 H   0  0  0  0  0  0  0  0  0  0  0  0
  -30.3920  -16.9390   19.9910 C   0  0  0  0  0  3  0  0  0  0  0  0
  -31.4890  -14.5650   19.5420 C   0  0  0  0  0  0  0  0  0  0  0  0
  -30.8890  -12.4080   18.5110 C   0  0  0  0  0  2  0  0  0  0  0  0
  -29.8200  -12.5590   17.4100 C   0  0  0  0  0  2  0  0  0  0  0  0
  -28.4100  -12.4830   18.0220 C   0  0  0  0  0  2  0  0  0  0  0  0
  -28.2370  -13.3800   19.2750 C   0  0  0  0  0  3  0  0  0  0  0  0
  -29.4300  -13.2250   20.2490 C   0  0  0  0  0  2  0  0  0  0  0  0
  -30.6520  -13.4890   19.4840 N   0  0  0  0  0  0  0  0  0  0  0  0
  -32.6530  -14.4980   19.1580 O   0  0  0  0  0  0  0  0  0  0  0  0
  -30.9720  -15.7720   19.2720 N   0  0  0  0  0  0  0  0  0  0  0  0
  -31.7370  -16.1810   18.7400 H   0  0  0  0  0  0  0  0  0  0  0  0
  -25.9920  -14.0420   20.3380 C   0  0  0  0  0  0  0  0  0  0  0  0
  -24.9380  -13.3090   20.8010 C   0  0  0  0  0  0  0  0  0  0  0  0
  -25.3150  -11.9360   20.6450 C   0  0  0  0  0  0  0  0  0  0  0  0
  -26.9490  -13.1300   19.9280 N   0  0  0  0  0  0  0  0  0  0  0  0
  -26.5530  -11.8540   20.1740 N   0  0  0  0  0  0  0  0  0  0  0  0
  -24.5390  -10.7130   20.8700 C   0  0  0  0  0  0  0  0  0  0  0  0
  -24.9380   -9.7680   21.8420 C   0  0  0  0  0  3  0  0  0  0  0  0
  -24.1710   -8.6000   22.0640 C   0  0  0  0  0  3  0  0  0  0  0  0
  -22.9950   -8.3740   21.3120 C   0  0  0  0  0  0  0  0  0  0  0  0
  -22.6280   -9.3020   20.3200 C   0  0  0  0  0  3  0  0  0  0  0  0
  -23.3860  -10.4630   20.1050 C   0  0  0  0  0  3  0  0  0  0  0  0
  -22.1970   -7.2620   21.4520 O   0  0  0  0  0  0  0  0  0  0  0  0
  -21.9760   -6.6760   22.6700 C   0  0  0  0  0  0  0  0  0  0  0  0
  -21.3440   -7.3800   23.7220 C   0  0  0  0  0  3  0  0  0  0  0  0
  -21.0610   -6.7230   24.9370 C   0  0  0  0  0  3  0  0  0  0  0  0
  -21.3900   -5.3630   25.0980 C   0  0  0  0  0  0  0  0  0  0  0  0
  -22.0100   -4.6610   24.0470 C   0  0  0  0  0  3  0  0  0  0  0  0
  -22.3000   -5.3120   22.8370 C   0  0  0  0  0  0  0  0  0  0  0  0
  -22.8800   -4.6280   21.8220 F   0  0  0  0  0  0  0  0  0  0  0  0
  -21.1080   -4.7290   26.2630 F   0  0  0  0  0  0  0  0  0  0  0  0
  -23.6180  -13.8490   21.2640 C   0  0  0  0  0  0  0  0  0  0  0  0
  -23.0310  -13.2560   22.2990 N   0  0  0  0  0  0  0  0  0  0  0  0
  -23.1330  -14.8520   20.7440 O   0  0  0  0  0  0  0  0  0  0  0  0
  -22.1500  -13.6370   22.6280 H   0  0  0  0  0  0  0  0  0  0  0  0
  -23.4440  -12.4760   22.7920 H   0  0  0  0  0  0  0  0  0  0  0  0
  -26.2040  -15.4100   20.2250 N   0  0  0  0  0  0  0  0  0  0  0  0
  -25.2830  -15.8040   20.0730 H   0  0  0  0  0  0  0  0  0  0  0  0
  -26.3990  -15.7160   21.1710 H   0  0  0  0  0  0  0  0  0  0  0  0
  -31.1520  -16.2330   22.3440 C   0  0  0  0  0  1  0  0  0  0  0  0
  -29.9640  -16.7670   21.4940 C   0  0  0  0  0  3  0  0  0  0  0  0
  -29.5100  -18.0360   22.1260 N   0  0  0  0  0  4  0  0  0  0  0  0
  -30.2240  -18.7500   22.0960 H   0  0  0  0  0  0  0  0  0  0  0  0
  -29.2750  -17.8780   23.0910 H   0  0  0  0  0  0  0  0  0  0  0  0
  -28.6930  -18.4190   21.6830 H   0  0  0  0  0  0  0  0  0  0  0  0
  -27.5240  -20.3360   18.9770 C   0  0  0  0  0  0  0  0  0  0  0  0
  -28.6750  -20.9700   18.6840 N   0  0  0  0  0  0  0  0  0  0  0  0
  -26.6490  -20.8840   19.6480 O   0  0  0  0  0  0  0  0  0  0  0  0
  -29.3670  -20.4520   18.1600 H   0  0  0  0  0  0  0  0  0  0  0  0
  -29.0330  -22.2910   19.2330 C   0  0  0  0  0  2  0  0  0  0  0  0
  -29.7890  -23.2560   18.2780 C   0  0  0  0  0  2  0  0  0  0  0  0
  -29.8250  -24.7420   18.7510 C   0  0  0  0  0  2  0  0  0  0  0  0
  -28.4320  -25.3850   18.9110 C   0  0  0  0  0  2  0  0  0  0  0  0
  -28.4880  -26.6690   19.5470 O   0  0  0  0  0  0  0  0  0  0  0  0
  -24.6890  -31.5310   23.1260 C   0  0  0  0  0  0  0  0  0  0  0  0
  -27.3070  -27.3910   19.6130 C   0  0  0  0  0  0  0  0  0  0  0  0
  -23.4770  -30.3040   21.3600 C   0  0  0  0  0  3  0  0  0  0  0  0
  -24.9160  -28.9060   19.7950 C   0  0  0  0  0  0  0  0  0  0  0  0
  -26.0030  -30.6650   21.1910 C   0  0  0  0  0  2  0  0  0  0  0  0
  -26.0760  -29.3530   20.4380 C   0  0  0  0  0  0  0  0  0  0  0  0
  -27.2700  -28.5960   20.3520 C   0  0  0  0  0  3  0  0  0  0  0  0
  -26.1210  -26.9750   18.9550 C   0  0  0  0  0  3  0  0  0  0  0  0
  -24.9280  -27.7090   19.0630 C   0  0  0  0  0  3  0  0  0  0  0  0
  -23.6810  -29.7650   19.9200 C   0  0  0  0  0  2  0  0  0  0  0  0
  -24.7440  -30.8420   21.9550 N   0  0  0  0  0  0  0  0  0  0  0  0
  -23.6040  -31.7550   23.6850 O   0  0  0  0  0  0  0  0  0  0  0  0
  -22.8180  -29.1960   22.2140 C   0  0  0  0  0  0  0  0  0  0  0  0
  -21.4850  -29.0580   22.0950 N   0  0  0  0  0  0  0  0  0  0  0  0
  -23.5030  -28.4690   22.9380 O   0  0  0  0  0  0  0  0  0  0  0  0
  -20.9900  -29.7070   21.4980 H   0  0  0  0  0  0  0  0  0  0  0  0
  -18.0900  -27.9030   22.5150 C   0  0  0  0  0  0  0  0  0  0  0  0
  -20.6560  -28.0600   22.7720 C   0  0  0  0  0  3  0  0  0  0  0  0
  -20.7130  -26.7020   22.0370 C   0  0  0  0  0  2  0  0  0  0  0  0
  -19.5870  -26.5230   21.0130 C   0  0  0  0  0  2  0  0  0  0  0  0
  -18.2190  -26.6310   21.6950 C   0  0  0  0  0  2  0  0  0  0  0  0
  -19.2360  -28.5810   23.0060 C   0  0  0  0  0  0  0  0  0  0  0  0
  -19.0620  -29.7780   23.7320 C   0  0  0  0  0  3  0  0  0  0  0  0
  -17.7740  -30.2960   23.9700 C   0  0  0  0  0  3  0  0  0  0  0  0
  -16.6420  -29.6110   23.4960 C   0  0  0  0  0  3  0  0  0  0  0  0
  -16.8010  -28.4160   22.7750 C   0  0  0  0  0  3  0  0  0  0  0  0
  -25.9740  -32.0910   23.8020 C   0  0  0  0  0  3  0  0  0  0  0  0
  -26.4090  -31.2670   25.0740 C   0  0  1  0  0  0  0  0  0  0  0  0
  -25.2800  -31.0740   26.1130 C   0  0  0  0  0  1  0  0  0  0  0  0
  -26.9200  -29.8690   24.6550 C   0  0  0  0  0  1  0  0  0  0  0  0
  -27.5930  -31.9740   25.7810 C   0  0  0  0  0  1  0  0  0  0  0  0
  -25.7130  -33.4930   24.1560 N   0  0  0  0  0  0  0  0  0  0  0  0
  -26.0770  -34.5460   23.4110 C   0  0  0  0  0  0  0  0  0  0  0  0
  -26.7360  -34.4350   22.3730 O   0  0  0  0  0  0  0  0  0  0  0  0
  -25.1230  -33.6560   24.9590 H   0  0  0  0  0  0  0  0  0  0  0  0
  -24.3880  -36.3850   23.1060 C   0  0  0  0  0  1  0  0  0  0  0  0
  -25.6360  -35.9440   23.8850 C   0  0  0  0  0  3  0  0  0  0  0  0
  -27.8000  -36.7810   24.6850 C   0  0  0  0  0  1  0  0  0  0  0  0
  -26.6910  -36.9710   23.7560 N   0  0  0  0  0  0  0  0  0  0  0  0
  -26.3070  -37.8990   23.9070 H   0  0  0  0  0  0  0  0  0  0  0  0
  2  1  1  0
  2 52  1  0
  2  4  1  0
  3  4  1  0
  4  6  1  0
  5  3  2  0
  7  3  1  0
  7 47  1  0
  9 14  1  0
 10 11  1  0
 10  9  1  0
 12 11  1  0
 12 21  1  0
 12 13  1  0
 14  8  1  0
 14 13  1  0
 15  8  2  0
 16  8  1  0
 16  7  1  0
 17 16  1  0
 18 19  2  0
 19 38  1  0
 20 19  1  0
 20 23  1  0
 21 22  1  0
 21 18  1  0
 22 20  2  0
 23 24  1  0
 24 25  2  0
 26 29  1  0
 26 25  1  0
 27 26  2  0
 28 27  1  0
 28 23  2  0
 29 30  1  0
 30 35  2  0
 30 31  1  0
 31 32  2  0
 32 33  1  0
 33 37  1  0
 34 33  2  0
 35 34  1  0
 36 35  1  0
 38 39  1  0
 39 41  1  0
 39 42  1  0
 40 38  2  0
 43 18  1  0
 43 45  1  0
 44 43  1  0
 47 48  1  0
 47 46  1  0
 48 50  1  0
 49 48  1  0
 51 48  1  0
 52 54  2  0
 53 52  1  0
 53 56  1  0
 55 53  1  0
 57 58  1  0
 57 56  1  0
 58 59  1  0
 59 60  1  0
 60 62  1  0
 61 72  2  0
 62 67  1  0
 63 71  1  0
 63 73  1  0
 64 70  1  0
 64 66  1  0
 65 71  1  0
 66 65  1  0
 67 66  2  0
 68 69  1  0
 68 62  2  0
 69 64  2  0
 70 63  1  0
 71 61  1  0
 73 75  2  0
 74 73  1  0
 76 74  1  0
 77 86  2  0
 77 82  1  0
 78 74  1  0
 78 82  1  0
 79 78  1  0
 80 81  1  0
 80 79  1  0
 81 77  1  0
 82 83  2  0
 83 84  1  0
 85 84  2  0
 86 85  1  0
 87 61  1  0
 87 92  1  0
 87 88  1  0
 88 91  1  1
 88 89  1  0
 90 88  1  0
 92 95  1  0
 93 97  1  0
 93 92  1  0
 94 93  2  0
 97 96  1  0
 99 97  1  0
 99100  1  0
 99 98  1  0
M  ISO  4   8 100  16 100  59 101  60 101
M  END
>  <TORSDO>  (80) 
F 25

>  <SCORE>  (80) 
-9.138

>  <name>  (80) 
80

>  <ligand_id>  (80) 
80

>  <original_smiles>  (80) 
[H]c1c([H])c([H])c2c(c1[H])C([H])([H])C([H])([H])C([H])([H])C2([H])N([H])C(=O)C1([H])N(C(=O)C([H])(N([H])C(=O)C([H])(N([H])C([H])([H])[H])C([H])([H])[H])C(C([H])([H])[H])(C([H])([H])[H])C([H])([H])[H])C([H])([H])c2c([H])c(OC([H])([H])C([H])([H])C([H])([H])C([H])([H])N([H])C(=O)C([H])(N([H])C(=O)C([H])(N([H])C(=O)N3C([H])([H])C([H])([H])C([H])([H])C([H])(n4nc(-c5c([H])c([H])c(Oc6c([H])c([H])c(F)c([H])c6F)c([H])c5[H])c(C(=O)N([H])[H])c4N([H])[H])C3([H])[H])C([H])(C([H])([H])[H])[N+]([H])([H])[H])C([H])([H])[H])c([H])c([H])c2C1([H])[H]

>  <smiles>  (80) 
[H]c1c([H])c([H])c2c(c1[H])C([H])([H])C([H])([H])C([H])([H])C2([H])N([H])C(=O)C1([H])N(C(=O)C([H])(N([H])C(=O)C([H])(N([H])C([H])([H])[H])C([H])([H])[H])C(C([H])([H])[H])(C([H])([H])[H])C([H])([H])[H])C([H])([H])c2c([H])c(OC([H])([H])C([H])([H])C([H])([H])C([H])([H])N([H])C(=O)C([H])(N([H])C(=O)C([H])(N([H])C(=O)N3C([H])([H])C([H])([H])C([H])([H])C([H])(n4nc(-c5c([H])c([H])c(Oc6c([H])c([H])c(F)c([H])c6F)c([H])c5[H])c(C(=O)N([H])[H])c4N([H])[H])C3([H])[H])C([H])(C([H])([H])[H])[N+]([H])([H])[H])C([H])([H])[H])c([H])c([H])c2C1([H])[H]

$$$$
81:0:0
     RDKit          3D

 87 94  0  0  1  0  0  0  0  0999 V2000
  -28.8060  -19.6570   20.1800 C   0  0  0  0  0  0  0  0  0  0  0  0
  -27.0520  -21.3450   20.5910 C   0  0  0  0  0  1  0  0  0  0  0  0
  -28.4980  -21.1420   20.3530 N   0  0  0  0  0  0  0  0  0  0  0  0
  -27.8550  -18.9970   19.7440 O   0  0  0  0  0  0  0  0  0  0  0  0
  -30.8020  -18.7970   21.7320 C   0  0  0  0  0  1  0  0  0  0  0  0
  -30.0390  -18.4530   20.4280 C   0  0  0  0  0  3  0  0  0  0  0  0
  -30.6080  -15.5060   20.1530 C   0  0  0  0  0  0  0  0  0  0  0  0
  -30.5900  -13.0580   19.2540 C   0  0  0  0  0  2  0  0  0  0  0  0
  -29.6490  -12.8050   18.0470 C   0  0  0  0  0  2  0  0  0  0  0  0
  -28.2120  -12.5150   18.5190 C   0  0  0  0  0  2  0  0  0  0  0  0
  -27.7630  -13.4860   19.6390 C   0  0  0  0  0  3  0  0  0  0  0  0
  -28.8310  -13.6650   20.7420 C   0  0  0  0  0  2  0  0  0  0  0  0
  -30.0420  -14.1930   20.0870 N   0  0  0  0  0  0  0  0  0  0  0  0
  -31.8140  -15.5110   19.8800 O   0  0  0  0  0  0  0  0  0  0  0  0
  -29.8490  -16.7730   20.3510 N   0  0  0  0  0  0  0  0  0  0  0  0
  -28.8700  -16.5540   20.4620 H   0  0  0  0  0  0  0  0  0  0  0  0
  -25.4090  -14.0170   20.4660 C   0  0  0  0  0  0  0  0  0  0  0  0
  -24.3600  -13.2300   20.8490 C   0  0  0  0  0  0  0  0  0  0  0  0
  -24.8310  -11.8810   20.7800 C   0  0  0  0  0  0  0  0  0  0  0  0
  -26.4490  -13.1540   20.1740 N   0  0  0  0  0  0  0  0  0  0  0  0
  -26.1130  -11.8600   20.4290 N   0  0  0  0  0  0  0  0  0  0  0  0
  -24.1130  -10.6140   20.9660 C   0  0  0  0  0  0  0  0  0  0  0  0
  -24.5350   -9.6550   21.9120 C   0  0  0  0  0  3  0  0  0  0  0  0
  -23.8130   -8.4540   22.0880 C   0  0  0  0  0  3  0  0  0  0  0  0
  -22.6520   -8.2030   21.3190 C   0  0  0  0  0  0  0  0  0  0  0  0
  -22.2450   -9.1520   20.3650 C   0  0  0  0  0  3  0  0  0  0  0  0
  -22.9690  -10.3430   20.1860 C   0  0  0  0  0  3  0  0  0  0  0  0
  -21.9040   -7.0530   21.4060 O   0  0  0  0  0  0  0  0  0  0  0  0
  -21.7970   -6.3500   22.5780 C   0  0  0  0  0  0  0  0  0  0  0  0
  -21.2250   -6.9160   23.7390 C   0  0  0  0  0  3  0  0  0  0  0  0
  -21.0680   -6.1330   24.9000 C   0  0  0  0  0  3  0  0  0  0  0  0
  -21.4780   -4.7870   24.9040 C   0  0  0  0  0  0  0  0  0  0  0  0
  -22.0470   -4.2210   23.7500 C   0  0  0  0  0  3  0  0  0  0  0  0
  -22.2020   -5.0010   22.5900 C   0  0  0  0  0  0  0  0  0  0  0  0
  -22.7330   -4.4440   21.4740 F   0  0  0  0  0  0  0  0  0  0  0  0
  -21.3250   -4.0330   26.0180 F   0  0  0  0  0  0  0  0  0  0  0  0
  -22.9680  -13.6970   21.1630 C   0  0  0  0  0  0  0  0  0  0  0  0
  -22.2710  -12.9950   22.0470 N   0  0  0  0  0  0  0  0  0  0  0  0
  -22.5100  -14.7200   20.6570 O   0  0  0  0  0  0  0  0  0  0  0  0
  -22.6580  -12.1720   22.4860 H   0  0  0  0  0  0  0  0  0  0  0  0
  -21.3360  -13.2890   22.2980 H   0  0  0  0  0  0  0  0  0  0  0  0
  -25.5580  -15.3920   20.3130 N   0  0  0  0  0  0  0  0  0  0  0  0
  -24.7810  -16.0270   20.4670 H   0  0  0  0  0  0  0  0  0  0  0  0
  -26.3810  -15.8580   19.9550 H   0  0  0  0  0  0  0  0  0  0  0  0
  -29.0030  -22.7470   20.3660 C   0  0  0  0  0  3  0  0  0  0  0  0
  -28.0260  -24.3090   20.3230 C   0  0  0  0  0  3  0  0  0  0  0  0
  -28.2970  -25.9570   20.3420 O   0  0  0  0  0  0  0  0  0  0  0  0
  -24.6860  -31.9150   23.3440 C   0  0  0  0  0  0  0  0  0  0  0  0
  -27.2910  -27.0740   20.2800 C   0  0  0  0  0  0  0  0  0  0  0  0
  -23.5220  -30.5460   21.6610 C   0  0  0  0  0  3  0  0  0  0  0  0
  -24.9950  -28.9710   20.2270 C   0  0  0  0  0  0  0  0  0  0  0  0
  -26.0910  -30.7640   21.5570 C   0  0  0  0  0  2  0  0  0  0  0  0
  -26.1740  -29.3630   20.8720 C   0  0  0  0  0  0  0  0  0  0  0  0
  -27.3180  -28.4400   20.8660 C   0  0  0  0  0  3  0  0  0  0  0  0
  -26.0830  -26.8460   19.5840 C   0  0  0  0  0  3  0  0  0  0  0  0
  -24.9780  -27.7360   19.5620 C   0  0  0  0  0  3  0  0  0  0  0  0
  -23.7700  -29.8880   20.2750 C   0  0  0  0  0  2  0  0  0  0  0  0
  -24.7870  -31.1040   22.2410 N   0  0  0  0  0  0  0  0  0  0  0  0
  -23.5870  -32.1930   23.8530 O   0  0  0  0  0  0  0  0  0  0  0  0
  -22.8130  -29.5360   22.5980 C   0  0  0  0  0  0  0  0  0  0  0  0
  -21.4880  -29.3590   22.4400 N   0  0  0  0  0  0  0  0  0  0  0  0
  -23.4660  -28.9070   23.4340 O   0  0  0  0  0  0  0  0  0  0  0  0
  -21.0170  -29.9080   21.7340 H   0  0  0  0  0  0  0  0  0  0  0  0
  -18.1000  -28.1370   22.8880 C   0  0  0  0  0  0  0  0  0  0  0  0
  -20.6590  -28.4010   23.1790 C   0  0  0  0  0  3  0  0  0  0  0  0
  -20.7660  -26.9860   22.5660 C   0  0  0  0  0  2  0  0  0  0  0  0
  -19.6710  -26.6910   21.5340 C   0  0  0  0  0  2  0  0  0  0  0  0
  -18.2840  -26.8110   22.1690 C   0  0  0  0  0  2  0  0  0  0  0  0
  -19.2130  -28.8920   23.3470 C   0  0  0  0  0  0  0  0  0  0  0  0
  -18.9810  -30.1320   23.9790 C   0  0  0  0  0  3  0  0  0  0  0  0
  -17.6730  -30.6210   24.1520 C   0  0  0  0  0  3  0  0  0  0  0  0
  -16.5760  -29.8640   23.7060 C   0  0  0  0  0  3  0  0  0  0  0  0
  -16.7910  -28.6230   23.0810 C   0  0  0  0  0  3  0  0  0  0  0  0
  -25.9450  -32.5470   24.0110 C   0  0  0  0  0  3  0  0  0  0  0  0
  -26.3840  -31.8000   25.3320 C   0  0  1  0  0  0  0  0  0  0  0  0
  -25.2360  -31.6090   26.3510 C   0  0  0  0  0  1  0  0  0  0  0  0
  -26.9620  -30.4030   25.0120 C   0  0  0  0  0  1  0  0  0  0  0  0
  -27.5140  -32.5930   26.0280 C   0  0  0  0  0  1  0  0  0  0  0  0
  -25.6420  -33.9580   24.3090 N   0  0  0  0  0  0  0  0  0  0  0  0
  -25.9700  -34.9950   23.5270 C   0  0  0  0  0  0  0  0  0  0  0  0
  -26.6230  -34.8650   22.4880 O   0  0  0  0  0  0  0  0  0  0  0  0
  -25.0540  -34.1340   25.1100 H   0  0  0  0  0  0  0  0  0  0  0  0
  -24.2330  -36.7850   23.1950 C   0  0  0  0  0  1  0  0  0  0  0  0
  -25.5050  -36.3980   23.9640 C   0  0  0  0  0  3  0  0  0  0  0  0
  -27.6630  -37.3160   24.6940 C   0  0  0  0  0  1  0  0  0  0  0  0
  -26.5320  -37.4470   23.7770 N   0  0  0  0  0  0  0  0  0  0  0  0
  -26.1300  -38.3720   23.9020 H   0  0  0  0  0  0  0  0  0  0  0  0
  1  3  1  0
  1  6  1  0
  3 45  1  0
  3  2  1  0
  4  1  2  0
  6  5  1  0
  7 15  1  0
  8 13  1  0
  9 10  1  0
  9  8  1  0
 11 10  1  0
 11 20  1  0
 11 12  1  0
 13  7  1  0
 13 12  1  0
 14  7  2  0
 15  6  1  0
 15 16  1  0
 17 18  2  0
 18 37  1  0
 19 18  1  0
 19 22  1  0
 20 21  1  0
 20 17  1  0
 21 19  2  0
 22 23  1  0
 23 24  2  0
 25 28  1  0
 25 24  1  0
 26 25  2  0
 27 26  1  0
 27 22  2  0
 28 29  1  0
 29 34  2  0
 29 30  1  0
 30 31  2  0
 31 32  1  0
 32 36  1  0
 33 32  2  0
 34 33  1  0
 35 34  1  0
 37 38  1  0
 38 41  1  0
 38 40  1  0
 39 37  2  0
 42 17  1  0
 42 43  1  0
 44 42  1  0
 46 47  1  0
 46 45  2  0
 48 59  2  0
 49 47  1  0
 49 54  1  0
 50 58  1  0
 50 60  1  0
 51 57  1  0
 51 53  1  0
 52 58  1  0
 53 52  1  0
 54 53  2  0
 55 49  2  0
 56 55  1  0
 56 51  2  0
 57 50  1  0
 58 48  1  0
 60 62  2  0
 61 60  1  0
 63 61  1  0
 64 73  2  0
 64 69  1  0
 65 61  1  0
 65 69  1  0
 66 65  1  0
 67 68  1  0
 67 66  1  0
 68 64  1  0
 69 70  2  0
 70 71  1  0
 72 71  2  0
 73 72  1  0
 74 48  1  0
 74 79  1  0
 74 75  1  0
 75 78  1  1
 75 76  1  0
 77 75  1  0
 79 82  1  0
 80 84  1  0
 80 79  1  0
 81 80  2  0
 84 83  1  0
 86 87  1  0
 86 84  1  0
 86 85  1  0
M  ISO  4   7 100  15 100  46 101  47 101
M  END
>  <TORSDO>  (81) 
F 19

>  <SCORE>  (81) 
-15.889

>  <name>  (81) 
81

>  <ligand_id>  (81) 
81

>  <original_smiles>  (81) 
[H]c1c([H])c([H])c2c(c1[H])C([H])([H])C([H])([H])C([H])([H])C2([H])N([H])C(=O)C1([H])N(C(=O)C([H])(N([H])C(=O)C([H])(N([H])C([H])([H])[H])C([H])([H])[H])C(C([H])([H])[H])(C([H])([H])[H])C([H])([H])[H])C([H])([H])c2c([H])c(OC([H])([H])C([H])([H])N(C(=O)C([H])(N([H])C(=O)N3C([H])([H])C([H])([H])C([H])([H])C([H])(n4nc(-c5c([H])c([H])c(Oc6c([H])c([H])c(F)c([H])c6F)c([H])c5[H])c(C(=O)N([H])[H])c4N([H])[H])C3([H])[H])C([H])([H])[H])C([H])([H])[H])c([H])c([H])c2C1([H])[H]

>  <smiles>  (81) 
[H]c1c([H])c([H])c2c(c1[H])C([H])([H])C([H])([H])C([H])([H])C2([H])N([H])C(=O)C1([H])N(C(=O)C([H])(N([H])C(=O)C([H])(N([H])C([H])([H])[H])C([H])([H])[H])C(C([H])([H])[H])(C([H])([H])[H])C([H])([H])[H])C([H])([H])c2c([H])c(OC([H])([H])C([H])([H])N(C(=O)C([H])(N([H])C(=O)N3C([H])([H])C([H])([H])C([H])([H])C([H])(n4nc(-c5c([H])c([H])c(Oc6c([H])c([H])c(F)c([H])c6F)c([H])c5[H])c(C(=O)N([H])[H])c4N([H])[H])C3([H])[H])C([H])([H])[H])C([H])([H])[H])c([H])c([H])c2C1([H])[H]

$$$$
82:0:0
     RDKit          3D

 97104  0  0  1  0  0  0  0  0999 V2000
  -28.1040  -21.4310   21.2910 C   0  0  0  0  0  0  0  0  0  0  0  0
  -29.3320  -20.9090   21.4020 N   0  0  0  0  0  0  0  0  0  0  0  0
  -27.0810  -20.7460   21.3390 O   0  0  0  0  0  0  0  0  0  0  0  0
  -30.1280  -21.5330   21.3490 H   0  0  0  0  0  0  0  0  0  0  0  0
  -28.1210  -22.8710   21.1370 C   0  0  0  0  0  3  0  0  0  0  0  0
  -28.6940  -23.4620   20.0690 C   0  0  0  0  0  3  0  0  0  0  0  0
  -28.7460  -24.9670   19.8890 C   0  0  0  0  0  2  0  0  0  0  0  0
  -28.2130  -25.4510   18.5290 C   0  0  0  0  0  2  0  0  0  0  0  0
  -28.1130  -26.8720   18.5520 O   0  0  0  0  0  0  0  0  0  0  0  0
  -24.9230  -31.5860   22.7920 C   0  0  0  0  0  0  0  0  0  0  0  0
  -26.9240  -27.5090   18.8460 C   0  0  0  0  0  0  0  0  0  0  0  0
  -23.4340  -30.4350   21.1850 C   0  0  0  0  0  3  0  0  0  0  0  0
  -24.6030  -29.0370   19.4010 C   0  0  0  0  0  0  0  0  0  0  0  0
  -25.9200  -30.7450   20.6700 C   0  0  0  0  0  2  0  0  0  0  0  0
  -25.8520  -29.4640   19.8660 C   0  0  0  0  0  0  0  0  0  0  0  0
  -27.0090  -28.7090   19.5830 C   0  0  0  0  0  3  0  0  0  0  0  0
  -25.6490  -27.0700   18.4110 C   0  0  0  0  0  3  0  0  0  0  0  0
  -24.4960  -27.8350   18.6770 C   0  0  0  0  0  3  0  0  0  0  0  0
  -23.4180  -29.9200   19.7230 C   0  0  0  0  0  2  0  0  0  0  0  0
  -24.7860  -30.9300   21.6040 N   0  0  0  0  0  0  0  0  0  0  0  0
  -23.9390  -31.8210   23.5090 O   0  0  0  0  0  0  0  0  0  0  0  0
  -22.8780  -29.3220   22.1020 C   0  0  0  0  0  0  0  0  0  0  0  0
  -21.5490  -29.1450   22.0850 N   0  0  0  0  0  0  0  0  0  0  0  0
  -23.6360  -28.6260   22.7850 O   0  0  0  0  0  0  0  0  0  0  0  0
  -21.0000  -29.7580   21.4990 H   0  0  0  0  0  0  0  0  0  0  0  0
  -18.2430  -27.8150   22.6790 C   0  0  0  0  0  0  0  0  0  0  0  0
  -20.8020  -28.1330   22.8290 C   0  0  0  0  0  3  0  0  0  0  0  0
  -20.9130  -26.7470   22.1510 C   0  0  0  0  0  2  0  0  0  0  0  0
  -19.7640  -26.4580   21.1800 C   0  0  0  0  0  2  0  0  0  0  0  0
  -18.4190  -26.5170   21.9080 C   0  0  0  0  0  2  0  0  0  0  0  0
  -19.3620  -28.5810   23.0970 C   0  0  0  0  0  0  0  0  0  0  0  0
  -19.1430  -29.7960   23.7800 C   0  0  0  0  0  3  0  0  0  0  0  0
  -17.8370  -30.2440   24.0560 C   0  0  0  0  0  3  0  0  0  0  0  0
  -16.7320  -29.4720   23.6550 C   0  0  0  0  0  3  0  0  0  0  0  0
  -16.9360  -28.2620   22.9680 C   0  0  0  0  0  3  0  0  0  0  0  0
  -26.3120  -32.0940   23.2910 C   0  0  0  0  0  3  0  0  0  0  0  0
  -27.0150  -31.0980   24.2950 C   0  0  1  0  0  0  0  0  0  0  0  0
  -26.1090  -30.6620   25.4700 C   0  0  0  0  0  1  0  0  0  0  0  0
  -27.4850  -29.8210   23.5590 C   0  0  0  0  0  1  0  0  0  0  0  0
  -28.2800  -31.7600   24.8890 C   0  0  0  0  0  1  0  0  0  0  0  0
  -26.0990  -33.4060   23.9180 N   0  0  0  0  0  0  0  0  0  0  0  0
  -26.3960  -34.5820   23.3460 C   0  0  0  0  0  0  0  0  0  0  0  0
  -26.9500  -34.6700   22.2460 O   0  0  0  0  0  0  0  0  0  0  0  0
  -25.6020  -33.4090   24.7940 H   0  0  0  0  0  0  0  0  0  0  0  0
  -24.7410  -36.4670   23.5180 C   0  0  0  0  0  1  0  0  0  0  0  0
  -26.0200  -35.8620   24.1170 C   0  0  0  0  0  3  0  0  0  0  0  0
  -28.2570  -36.4800   24.9180 C   0  0  0  0  0  1  0  0  0  0  0  0
  -27.0920  -36.8790   24.1320 N   0  0  0  0  0  0  0  0  0  0  0  0
  -26.7490  -37.7620   24.4980 H   0  0  0  0  0  0  0  0  0  0  0  0
  -29.6680  -19.4890   21.4700 C   0  0  0  0  0  3  0  0  0  0  0  0
  -30.7350  -19.1550   20.4170 C   0  0  0  0  0  0  0  0  0  0  0  0
  -30.7910  -17.8890   19.9920 N   0  0  0  0  0  0  0  0  0  0  0  0
  -31.5020  -20.0330   20.0070 O   0  0  0  0  0  0  0  0  0  0  0  0
  -30.1090  -17.2460   20.3660 H   0  0  0  0  0  0  0  0  0  0  0  0
  -31.7430  -17.3410   19.0290 C   0  0  0  0  0  2  0  0  0  0  0  0
  -32.3840  -16.0460   19.5630 C   0  0  0  0  0  2  0  0  0  0  0  0
  -31.5280  -13.8840   18.6790 C   0  0  0  0  0  0  0  0  0  0  0  0
  -31.1570  -11.4580   18.5190 C   0  0  0  0  0  2  0  0  0  0  0  0
  -30.0730  -11.0700   17.5050 C   0  0  0  0  0  2  0  0  0  0  0  0
  -28.6840  -11.0840   18.1660 C   0  0  0  0  0  2  0  0  0  0  0  0
  -28.4130  -12.4030   18.9360 C   0  0  0  0  0  3  0  0  0  0  0  0
  -29.5960  -12.7750   19.8590 C   0  0  0  0  0  2  0  0  0  0  0  0
  -30.8410  -12.7820   19.0670 N   0  0  0  0  0  0  0  0  0  0  0  0
  -32.2970  -13.9080   17.7150 O   0  0  0  0  0  0  0  0  0  0  0  0
  -31.4760  -14.8990   19.5500 N   0  0  0  0  0  0  0  0  0  0  0  0
  -30.8900  -14.7610   20.3610 H   0  0  0  0  0  0  0  0  0  0  0  0
  -26.3730  -13.3580   20.1850 C   0  0  0  0  0  0  0  0  0  0  0  0
  -25.2630  -12.7570   20.7190 C   0  0  0  0  0  0  0  0  0  0  0  0
  -25.4200  -11.3570   20.4880 C   0  0  0  0  0  0  0  0  0  0  0  0
  -27.1500  -12.3310   19.6730 N   0  0  0  0  0  0  0  0  0  0  0  0
  -26.5890  -11.1160   19.9070 N   0  0  0  0  0  0  0  0  0  0  0  0
  -24.5050  -10.2380   20.7390 C   0  0  0  0  0  0  0  0  0  0  0  0
  -24.8560   -9.1730   21.5980 C   0  0  0  0  0  3  0  0  0  0  0  0
  -23.9480   -8.1190   21.8370 C   0  0  0  0  0  3  0  0  0  0  0  0
  -22.6770   -8.1210   21.2190 C   0  0  0  0  0  0  0  0  0  0  0  0
  -22.3420   -9.1720   20.3460 C   0  0  0  0  0  3  0  0  0  0  0  0
  -23.2470  -10.2180   20.1040 C   0  0  0  0  0  3  0  0  0  0  0  0
  -21.7410   -7.1260   21.3720 O   0  0  0  0  0  0  0  0  0  0  0  0
  -21.6300   -6.4170   22.5420 C   0  0  0  0  0  0  0  0  0  0  0  0
  -21.3520   -7.0490   23.7740 C   0  0  0  0  0  3  0  0  0  0  0  0
  -21.1760   -6.2760   24.9380 C   0  0  0  0  0  3  0  0  0  0  0  0
  -21.2710   -4.8730   24.8740 C   0  0  0  0  0  0  0  0  0  0  0  0
  -21.5400   -4.2410   23.6470 C   0  0  0  0  0  3  0  0  0  0  0  0
  -21.7170   -5.0120   22.4840 C   0  0  0  0  0  0  0  0  0  0  0  0
  -21.9570   -4.3960   21.3010 F   0  0  0  0  0  0  0  0  0  0  0  0
  -21.0940   -4.1280   25.9900 F   0  0  0  0  0  0  0  0  0  0  0  0
  -24.0770  -13.4520   21.3250 C   0  0  0  0  0  0  0  0  0  0  0  0
  -23.4340  -12.8210   22.3010 N   0  0  0  0  0  0  0  0  0  0  0  0
  -23.7430  -14.5790   20.9660 O   0  0  0  0  0  0  0  0  0  0  0  0
  -23.7220  -11.9020   22.6070 H   0  0  0  0  0  0  0  0  0  0  0  0
  -22.6420  -13.2610   22.7480 H   0  0  0  0  0  0  0  0  0  0  0  0
  -26.7740  -14.6840   20.0740 N   0  0  0  0  0  0  0  0  0  0  0  0
  -26.1880  -15.4540   20.3760 H   0  0  0  0  0  0  0  0  0  0  0  0
  -27.6130  -14.9910   19.5970 H   0  0  0  0  0  0  0  0  0  0  0  0
  -30.0390  -19.0460   22.9090 C   0  0  0  0  0  2  0  0  0  0  0  0
  -31.5770  -19.2200   24.9330 C   0  0  0  0  0  1  0  0  0  0  0  0
  -31.3880  -19.5590   23.4480 C   0  0  0  0  0  2  0  0  0  0  0  0
  1  3  2  0
  1  2  1  0
  2 50  1  0
  4  2  1  0
  5  1  1  0
  6  5  2  0
  7  6  1  0
  8  9  1  0
  8  7  1  0
  9 11  1  0
 10 21  2  0
 11 16  1  0
 12 20  1  0
 12 22  1  0
 13 19  1  0
 13 15  1  0
 14 20  1  0
 15 14  1  0
 16 15  2  0
 17 18  1  0
 17 11  2  0
 18 13  2  0
 19 12  1  0
 20 10  1  0
 22 24  2  0
 23 22  1  0
 25 23  1  0
 26 35  2  0
 26 31  1  0
 27 23  1  0
 27 31  1  0
 28 27  1  0
 29 30  1  0
 29 28  1  0
 30 26  1  0
 31 32  2  0
 32 33  1  0
 34 33  2  0
 35 34  1  0
 36 10  1  0
 36 41  1  0
 36 37  1  0
 37 40  1  1
 37 38  1  0
 39 37  1  0
 41 44  1  0
 42 41  1  0
 42 46  1  0
 43 42  2  0
 46 45  1  0
 46 48  1  0
 48 49  1  0
 48 47  1  0
 50 95  1  0
 51 50  1  0
 52 54  1  0
 52 51  1  0
 53 51  2  0
 55 56  1  0
 55 52  1  0
 57 63  1  0
 57 65  1  0
 58 63  1  0
 59 60  1  0
 59 58  1  0
 61 60  1  0
 61 70  1  0
 61 62  1  0
 63 62  1  0
 64 57  2  0
 65 56  1  0
 65 66  1  0
 67 68  2  0
 68 87  1  0
 69 68  1  0
 69 72  1  0
 70 71  1  0
 70 67  1  0
 71 69  2  0
 72 73  1  0
 73 74  2  0
 75 78  1  0
 75 74  1  0
 76 75  2  0
 77 76  1  0
 77 72  2  0
 78 79  1  0
 79 80  1  0
 80 81  2  0
 82 81  1  0
 82 86  1  0
 83 82  2  0
 84 79  2  0
 84 83  1  0
 85 84  1  0
 87 88  1  0
 88 90  1  0
 88 91  1  0
 89 87  2  0
 92 67  1  0
 92 93  1  0
 94 92  1  0
 95 97  1  0
 97 96  1  0
M  ISO  4   8 101   9 101  57 100  65 100
M  END
>  <TORSDO>  (82) 
F 25

>  <SCORE>  (82) 
-4.570

>  <name>  (82) 
82

>  <ligand_id>  (82) 
82

>  <original_smiles>  (82) 
[H]C(C(=O)N([H])C([H])(C(=O)N([H])C([H])([H])C([H])([H])N([H])C(=O)N1C([H])([H])C([H])([H])C([H])([H])C([H])(n2nc(-c3c([H])c([H])c(Oc4c([H])c([H])c(F)c([H])c4F)c([H])c3[H])c(C(=O)N([H])[H])c2N([H])[H])C1([H])[H])C([H])([H])C([H])([H])C([H])([H])[H])=C([H])C([H])([H])C([H])([H])Oc1c([H])c([H])c2c(c1[H])C([H])([H])N(C(=O)C([H])(N([H])C(=O)C([H])(N([H])C([H])([H])[H])C([H])([H])[H])C(C([H])([H])[H])(C([H])([H])[H])C([H])([H])[H])C([H])(C(=O)N([H])C1([H])c3c([H])c([H])c([H])c([H])c3C([H])([H])C([H])([H])C1([H])[H])C2([H])[H]

>  <smiles>  (82) 
[H]C(C(=O)N([H])C([H])(C(=O)N([H])C([H])([H])C([H])([H])N([H])C(=O)N1C([H])([H])C([H])([H])C([H])([H])C([H])(n2nc(-c3c([H])c([H])c(Oc4c([H])c([H])c(F)c([H])c4F)c([H])c3[H])c(C(=O)N([H])[H])c2N([H])[H])C1([H])[H])C([H])([H])C([H])([H])C([H])([H])[H])=C([H])C([H])([H])C([H])([H])Oc1c([H])c([H])c2c(c1[H])C([H])([H])N(C(=O)C([H])(N([H])C(=O)C([H])(N([H])C([H])([H])[H])C([H])([H])[H])C(C([H])([H])[H])(C([H])([H])[H])C([H])([H])[H])C([H])(C(=O)N([H])C1([H])c3c([H])c([H])c([H])c([H])c3C([H])([H])C([H])([H])C1([H])[H])C2([H])[H]

$$$$
83:0:0
     RDKit          3D

 84 91  0  0  1  0  0  0  0  0999 V2000
  -28.0360  -24.2690   20.5090 C   0  0  0  0  0  2  0  0  0  0  0  0
  -28.2220  -25.8810   20.2090 O   0  0  0  0  0  0  0  0  0  0  0  0
  -24.6160  -31.8370   23.1800 C   0  0  0  0  0  0  0  0  0  0  0  0
  -27.1870  -26.9520   20.2070 C   0  0  0  0  0  0  0  0  0  0  0  0
  -23.4240  -30.4230   21.5540 C   0  0  0  0  0  3  0  0  0  0  0  0
  -24.8760  -28.8110   20.1480 C   0  0  0  0  0  0  0  0  0  0  0  0
  -25.9900  -30.6480   21.3990 C   0  0  0  0  0  2  0  0  0  0  0  0
  -26.0650  -29.2330   20.7580 C   0  0  0  0  0  0  0  0  0  0  0  0
  -27.2180  -28.3250   20.7560 C   0  0  0  0  0  3  0  0  0  0  0  0
  -25.9650  -26.6750   19.5560 C   0  0  0  0  0  3  0  0  0  0  0  0
  -24.8500  -27.5530   19.5260 C   0  0  0  0  0  3  0  0  0  0  0  0
  -23.6540  -29.7270   20.1840 C   0  0  0  0  0  2  0  0  0  0  0  0
  -24.6980  -30.9970   22.0980 N   0  0  0  0  0  0  0  0  0  0  0  0
  -23.5260  -32.1260   23.7010 O   0  0  0  0  0  0  0  0  0  0  0  0
  -22.7360  -29.4330   22.5290 C   0  0  0  0  0  0  0  0  0  0  0  0
  -21.4040  -29.2710   22.4160 N   0  0  0  0  0  0  0  0  0  0  0  0
  -23.4070  -28.8080   23.3540 O   0  0  0  0  0  0  0  0  0  0  0  0
  -20.9170  -29.8260   21.7270 H   0  0  0  0  0  0  0  0  0  0  0  0
  -18.0230  -28.0690   22.9520 C   0  0  0  0  0  0  0  0  0  0  0  0
  -20.5850  -28.3390   23.1970 C   0  0  0  0  0  3  0  0  0  0  0  0
  -20.6840  -26.9040   22.6300 C   0  0  0  0  0  2  0  0  0  0  0  0
  -19.5750  -26.5740   21.6240 C   0  0  0  0  0  2  0  0  0  0  0  0
  -18.1970  -26.7180   22.2770 C   0  0  0  0  0  2  0  0  0  0  0  0
  -19.1440  -28.8370   23.3690 C   0  0  0  0  0  0  0  0  0  0  0  0
  -18.9240  -30.0980   23.9630 C   0  0  0  0  0  3  0  0  0  0  0  0
  -17.6200  -30.5940   24.1420 C   0  0  0  0  0  3  0  0  0  0  0  0
  -16.5140  -29.8250   23.7380 C   0  0  0  0  0  3  0  0  0  0  0  0
  -16.7170  -28.5640   23.1490 C   0  0  0  0  0  3  0  0  0  0  0  0
  -25.8860  -32.4890   23.8060 C   0  0  0  0  0  3  0  0  0  0  0  0
  -26.4090  -31.7230   25.0840 C   0  0  1  0  0  0  0  0  0  0  0  0
  -25.3200  -31.4800   26.1550 C   0  0  0  0  0  1  0  0  0  0  0  0
  -27.0000  -30.3470   24.6990 C   0  0  0  0  0  1  0  0  0  0  0  0
  -27.5570  -32.5240   25.7410 C   0  0  0  0  0  1  0  0  0  0  0  0
  -25.5550  -33.8830   24.1530 N   0  0  0  0  0  0  0  0  0  0  0  0
  -25.8660  -34.9530   23.4100 C   0  0  0  0  0  0  0  0  0  0  0  0
  -26.5250  -34.8730   22.3700 O   0  0  0  0  0  0  0  0  0  0  0  0
  -24.9660  -34.0180   24.9610 H   0  0  0  0  0  0  0  0  0  0  0  0
  -24.1090  -36.7340   23.1180 C   0  0  0  0  0  1  0  0  0  0  0  0
  -25.3720  -36.3320   23.8960 C   0  0  0  0  0  3  0  0  0  0  0  0
  -27.5150  -37.2360   24.6870 C   0  0  0  0  0  1  0  0  0  0  0  0
  -26.3890  -37.4000   23.7720 N   0  0  0  0  0  0  0  0  0  0  0  0
  -25.9750  -38.3130   23.9390 H   0  0  0  0  0  0  0  0  0  0  0  0
  -28.7190  -22.6990   19.9240 C   0  0  0  0  0  2  0  0  0  0  0  0
  -28.9900  -21.2170   20.5850 O   0  0  0  0  0  0  0  0  0  0  0  0
  -29.0780  -19.6810   19.9990 C   0  0  0  0  0  2  0  0  0  0  0  0
  -29.8810  -18.1670   20.5600 C   0  0  0  0  0  2  0  0  0  0  0  0
  -30.3820  -15.2640   20.2540 C   0  0  0  0  0  0  0  0  0  0  0  0
  -30.3490  -12.8260   19.3660 C   0  0  0  0  0  2  0  0  0  0  0  0
  -29.4210  -12.6110   18.1440 C   0  0  0  0  0  2  0  0  0  0  0  0
  -27.9740  -12.3490   18.5940 C   0  0  0  0  0  2  0  0  0  0  0  0
  -27.5290  -13.3180   19.7180 C   0  0  0  0  0  3  0  0  0  0  0  0
  -28.5830  -13.4670   20.8330 C   0  0  0  0  0  2  0  0  0  0  0  0
  -29.8060  -13.9670   20.1860 N   0  0  0  0  0  0  0  0  0  0  0  0
  -31.6080  -15.2630   20.0800 O   0  0  0  0  0  0  0  0  0  0  0  0
  -29.6180  -16.5330   20.3180 N   0  0  0  0  0  0  0  0  0  0  0  0
  -28.6290  -16.3280   20.3210 H   0  0  0  0  0  0  0  0  0  0  0  0
  -25.1610  -13.8840   20.4750 C   0  0  0  0  0  0  0  0  0  0  0  0
  -24.0990  -13.1090   20.8510 C   0  0  0  0  0  0  0  0  0  0  0  0
  -24.5680  -11.7590   20.8280 C   0  0  0  0  0  0  0  0  0  0  0  0
  -26.2030  -13.0060   20.2350 N   0  0  0  0  0  0  0  0  0  0  0  0
  -25.8590  -11.7220   20.5170 N   0  0  0  0  0  0  0  0  0  0  0  0
  -23.8400  -10.4970   21.0260 C   0  0  0  0  0  0  0  0  0  0  0  0
  -24.2820   -9.5240   21.9500 C   0  0  0  0  0  3  0  0  0  0  0  0
  -23.5520   -8.3310   22.1370 C   0  0  0  0  0  3  0  0  0  0  0  0
  -22.3660   -8.1010   21.4000 C   0  0  0  0  0  0  0  0  0  0  0  0
  -21.9430   -9.0620   20.4650 C   0  0  0  0  0  3  0  0  0  0  0  0
  -22.6730  -10.2470   20.2760 C   0  0  0  0  0  3  0  0  0  0  0  0
  -21.6060   -6.9600   21.4960 O   0  0  0  0  0  0  0  0  0  0  0  0
  -21.5890   -6.2020   22.6400 C   0  0  0  0  0  0  0  0  0  0  0  0
  -21.2240   -6.7480   23.8900 C   0  0  0  0  0  3  0  0  0  0  0  0
  -21.1520   -5.9180   25.0260 C   0  0  0  0  0  3  0  0  0  0  0  0
  -21.4340   -4.5440   24.9150 C   0  0  0  0  0  0  0  0  0  0  0  0
  -21.7920   -3.9970   23.6700 C   0  0  0  0  0  3  0  0  0  0  0  0
  -21.8660   -4.8250   22.5350 C   0  0  0  0  0  0  0  0  0  0  0  0
  -22.1910   -4.2890   21.3340 F   0  0  0  0  0  0  0  0  0  0  0  0
  -21.3580   -3.7440   26.0040 F   0  0  0  0  0  0  0  0  0  0  0  0
  -22.7020  -13.5880   21.1150 C   0  0  0  0  0  0  0  0  0  0  0  0
  -21.9740  -12.9020   21.9880 N   0  0  0  0  0  0  0  0  0  0  0  0
  -22.2660  -14.6070   20.5800 O   0  0  0  0  0  0  0  0  0  0  0  0
  -22.3410  -12.0790   22.4420 H   0  0  0  0  0  0  0  0  0  0  0  0
  -21.0360  -13.2060   22.2080 H   0  0  0  0  0  0  0  0  0  0  0  0
  -25.3200  -15.2530   20.2870 N   0  0  0  0  0  0  0  0  0  0  0  0
  -24.5470  -15.9020   20.3920 H   0  0  0  0  0  0  0  0  0  0  0  0
  -26.1550  -15.6900   19.9190 H   0  0  0  0  0  0  0  0  0  0  0  0
  2  1  1  0
  3 14  2  0
  4  2  1  0
  4  9  1  0
  5 13  1  0
  5 15  1  0
  6 12  1  0
  6  8  1  0
  7 13  1  0
  8  7  1  0
  9  8  2  0
 10  4  2  0
 11 10  1  0
 11  6  2  0
 12  5  1  0
 13  3  1  0
 15 17  2  0
 16 15  1  0
 18 16  1  0
 19 28  2  0
 19 24  1  0
 20 16  1  0
 20 24  1  0
 21 20  1  0
 22 23  1  0
 22 21  1  0
 23 19  1  0
 24 25  2  0
 25 26  1  0
 27 26  2  0
 28 27  1  0
 29  3  1  0
 29 34  1  0
 29 30  1  0
 30 33  1  1
 30 31  1  0
 32 30  1  0
 34 37  1  0
 35 39  1  0
 35 34  1  0
 36 35  2  0
 39 38  1  0
 41 39  1  0
 41 42  1  0
 41 40  1  0
 43  1  1  0
 43 44  1  0
 45 46  1  0
 45 44  1  0
 47 55  1  0
 48 53  1  0
 49 50  1  0
 49 48  1  0
 51 50  1  0
 51 60  1  0
 51 52  1  0
 53 47  1  0
 53 52  1  0
 54 47  2  0
 55 56  1  0
 55 46  1  0
 57 58  2  0
 58 77  1  0
 59 58  1  0
 59 62  1  0
 60 57  1  0
 60 61  1  0
 61 59  2  0
 62 63  1  0
 63 64  2  0
 65 68  1  0
 65 64  1  0
 66 65  2  0
 67 66  1  0
 67 62  2  0
 68 69  1  0
 69 70  1  0
 70 71  2  0
 72 71  1  0
 72 76  1  0
 73 72  2  0
 74 69  2  0
 74 73  1  0
 75 74  1  0
 77 78  1  0
 78 81  1  0
 78 80  1  0
 79 77  2  0
 82 83  1  0
 82 57  1  0
 84 82  1  0
M  ISO  4   1 101   2 101  47 100  55 100
M  END
>  <TORSDO>  (83) 
F 20

>  <SCORE>  (83) 
-15.761

>  <name>  (83) 
83

>  <ligand_id>  (83) 
83

>  <original_smiles>  (83) 
[H]c1c([H])c([H])c2c(c1[H])C([H])([H])C([H])([H])C([H])([H])C2([H])N([H])C(=O)C1([H])N(C(=O)C([H])(N([H])C(=O)C([H])(N([H])C([H])([H])[H])C([H])([H])[H])C(C([H])([H])[H])(C([H])([H])[H])C([H])([H])[H])C([H])([H])c2c([H])c(OC([H])([H])C([H])([H])OC([H])([H])C([H])([H])N([H])C(=O)N3C([H])([H])C([H])([H])C([H])([H])C([H])(n4nc(-c5c([H])c([H])c(Oc6c([H])c([H])c(F)c([H])c6F)c([H])c5[H])c(C(=O)N([H])[H])c4N([H])[H])C3([H])[H])c([H])c([H])c2C1([H])[H]

>  <smiles>  (83) 
[H]c1c([H])c([H])c2c(c1[H])C([H])([H])C([H])([H])C([H])([H])C2([H])N([H])C(=O)C1([H])N(C(=O)C([H])(N([H])C(=O)C([H])(N([H])C([H])([H])[H])C([H])([H])[H])C(C([H])([H])[H])(C([H])([H])[H])C([H])([H])[H])C([H])([H])c2c([H])c(OC([H])([H])C([H])([H])OC([H])([H])C([H])([H])N([H])C(=O)N3C([H])([H])C([H])([H])C([H])([H])C([H])(n4nc(-c5c([H])c([H])c(Oc6c([H])c([H])c(F)c([H])c6F)c([H])c5[H])c(C(=O)N([H])[H])c4N([H])[H])C3([H])[H])c([H])c([H])c2C1([H])[H]

$$$$
85:0:0
     RDKit          3D

100107  0  0  1  0  0  0  0  0999 V2000
  -30.3380  -20.1500   21.4500 C   0  0  0  0  0  0  0  0  0  0  0  0
  -30.5630  -19.3570   20.3810 N   0  0  0  0  0  4  0  0  0  0  0  0
  -30.6840  -19.8010   22.5830 O   0  0  0  0  0  0  0  0  0  0  0  0
  -30.2470  -19.6930   19.4820 H   0  0  0  0  0  0  0  0  0  0  0  0
  -31.9930  -18.0470   18.8740 C   0  0  0  0  0  1  0  0  0  0  0  0
  -31.5440  -18.2460   20.3330 C   0  0  0  0  0  0  0  0  0  0  0  0
  -31.2940  -16.9380   21.1970 C   0  0  0  0  0  3  0  0  0  0  0  0
  -31.5300  -14.6730   20.0760 C   0  0  0  0  0  0  0  0  0  0  0  0
  -31.1330  -12.4970   18.9850 C   0  0  0  0  0  2  0  0  0  0  0  0
  -30.1920  -12.7040   17.7800 C   0  0  0  0  0  2  0  0  0  0  0  0
  -28.7140  -12.6370   18.2230 C   0  0  0  0  0  2  0  0  0  0  0  0
  -28.4200  -13.5400   19.4530 C   0  0  0  0  0  3  0  0  0  0  0  0
  -29.4700  -13.3050   20.5560 C   0  0  0  0  0  2  0  0  0  0  0  0
  -30.7970  -13.5360   19.9650 N   0  0  0  0  0  0  0  0  0  0  0  0
  -32.7020  -14.7530   19.7080 O   0  0  0  0  0  0  0  0  0  0  0  0
  -30.8330  -15.7410   20.4850 N   0  0  0  0  0  0  0  0  0  0  0  0
  -29.8480  -15.5750   20.6170 H   0  0  0  0  0  0  0  0  0  0  0  0
  -26.0730  -14.2840   20.2010 C   0  0  0  0  0  0  0  0  0  0  0  0
  -24.9670  -13.5710   20.5810 C   0  0  0  0  0  0  0  0  0  0  0  0
  -25.3550  -12.1950   20.5530 C   0  0  0  0  0  0  0  0  0  0  0  0
  -27.0630  -13.3450   19.9550 N   0  0  0  0  0  0  0  0  0  0  0  0
  -26.6380  -12.0860   20.2300 N   0  0  0  0  0  0  0  0  0  0  0  0
  -24.5650  -10.9760   20.7570 C   0  0  0  0  0  0  0  0  0  0  0  0
  -24.9310  -10.0140   21.7230 C   0  0  0  0  0  3  0  0  0  0  0  0
  -24.1430   -8.8580   21.9150 C   0  0  0  0  0  3  0  0  0  0  0  0
  -22.9790   -8.6580   21.1420 C   0  0  0  0  0  0  0  0  0  0  0  0
  -22.6370   -9.6030   20.1620 C   0  0  0  0  0  3  0  0  0  0  0  0
  -23.4230  -10.7520   19.9650 C   0  0  0  0  0  3  0  0  0  0  0  0
  -22.1670   -7.5550   21.2440 O   0  0  0  0  0  0  0  0  0  0  0  0
  -22.0010   -6.8880   22.4300 C   0  0  0  0  0  0  0  0  0  0  0  0
  -21.5300   -7.5380   23.5910 C   0  0  0  0  0  3  0  0  0  0  0  0
  -21.3060   -6.7990   24.7700 C   0  0  0  0  0  3  0  0  0  0  0  0
  -21.5460   -5.4120   24.7890 C   0  0  0  0  0  0  0  0  0  0  0  0
  -22.0060   -4.7620   23.6310 C   0  0  0  0  0  3  0  0  0  0  0  0
  -22.2320   -5.4980   22.4550 C   0  0  0  0  0  0  0  0  0  0  0  0
  -22.6570   -4.8610   21.3370 F   0  0  0  0  0  0  0  0  0  0  0  0
  -21.3220   -4.7020   25.9200 F   0  0  0  0  0  0  0  0  0  0  0  0
  -23.5990  -14.1220   20.8600 C   0  0  0  0  0  0  0  0  0  0  0  0
  -22.8470  -13.4760   21.7490 N   0  0  0  0  0  0  0  0  0  0  0  0
  -23.2040  -15.1590   20.3300 O   0  0  0  0  0  0  0  0  0  0  0  0
  -23.1770  -12.6380   22.2020 H   0  0  0  0  0  0  0  0  0  0  0  0
  -21.9320  -13.8310   21.9810 H   0  0  0  0  0  0  0  0  0  0  0  0
  -26.3150  -15.6460   20.0280 N   0  0  0  0  0  0  0  0  0  0  0  0
  -25.6300  -16.3570   20.2660 H   0  0  0  0  0  0  0  0  0  0  0  0
  -27.2200  -16.0370   19.8030 H   0  0  0  0  0  0  0  0  0  0  0  0
  -30.3960  -17.0140   22.4430 C   0  0  0  0  0  0  0  0  0  0  0  0
  -30.9760  -17.0960   23.6350 N   0  0  0  0  0  0  0  0  0  0  0  0
  -29.1760  -16.9240   22.3340 O   0  0  0  0  0  0  0  0  0  0  0  0
  -31.9800  -17.1650   23.7140 H   0  0  0  0  0  0  0  0  0  0  0  0
  -30.4200  -17.0880   24.4800 H   0  0  0  0  0  0  0  0  0  0  0  0
  -29.8030  -21.5930   21.2630 C   0  0  0  0  0  3  0  0  0  0  0  0
  -29.7960  -22.2610   22.5820 N   0  0  0  0  0  4  0  0  0  0  0  0
  -29.0470  -21.9120   23.1540 H   0  0  0  0  0  0  0  0  0  0  0  0
  -29.7500  -23.2610   22.5080 H   0  0  0  0  0  0  0  0  0  0  0  0
  -30.6500  -21.9970   23.0500 H   0  0  0  0  0  0  0  0  0  0  0  0
  -28.4320  -21.7660   20.5560 C   0  0  0  0  0  2  0  0  0  0  0  0
  -28.4330  -22.9520   19.7390 O   0  0  0  0  0  0  0  0  0  0  0  0
  -28.0190  -24.1790   20.3540 C   0  0  0  0  0  2  0  0  0  0  0  0
  -28.3470  -25.3800   19.4290 C   0  0  0  0  0  2  0  0  0  0  0  0
  -28.2740  -26.6550   20.0900 O   0  0  0  0  0  0  0  0  0  0  0  0
  -24.5860  -31.8780   23.2210 C   0  0  0  0  0  0  0  0  0  0  0  0
  -27.0900  -27.3710   20.1050 C   0  0  0  0  0  0  0  0  0  0  0  0
  -23.3330  -30.4980   21.5980 C   0  0  0  0  0  3  0  0  0  0  0  0
  -24.7290  -28.9340   20.1540 C   0  0  0  0  0  0  0  0  0  0  0  0
  -25.8610  -30.8040   21.3620 C   0  0  0  0  0  2  0  0  0  0  0  0
  -25.9060  -29.4290   20.7310 C   0  0  0  0  0  0  0  0  0  0  0  0
  -27.0860  -28.6520   20.7060 C   0  0  0  0  0  3  0  0  0  0  0  0
  -25.8860  -26.8850   19.5430 C   0  0  0  0  0  3  0  0  0  0  0  0
  -24.7180  -27.6650   19.5570 C   0  0  0  0  0  3  0  0  0  0  0  0
  -23.5060  -29.8180   20.2170 C   0  0  0  0  0  2  0  0  0  0  0  0
  -24.6130  -31.0770   22.1180 N   0  0  0  0  0  0  0  0  0  0  0  0
  -23.5160  -32.1720   23.7720 O   0  0  0  0  0  0  0  0  0  0  0  0
  -22.6740  -29.4910   22.5690 C   0  0  0  0  0  0  0  0  0  0  0  0
  -21.3500  -29.3080   22.4340 N   0  0  0  0  0  0  0  0  0  0  0  0
  -23.3510  -28.8760   23.3970 O   0  0  0  0  0  0  0  0  0  0  0  0
  -20.8690  -29.8600   21.7390 H   0  0  0  0  0  0  0  0  0  0  0  0
  -17.9760  -28.0830   22.8730 C   0  0  0  0  0  0  0  0  0  0  0  0
  -20.5230  -28.3790   23.2060 C   0  0  0  0  0  3  0  0  0  0  0  0
  -20.6580  -26.9350   22.6690 C   0  0  0  0  0  2  0  0  0  0  0  0
  -19.5860  -26.5720   21.6370 C   0  0  0  0  0  2  0  0  0  0  0  0
  -18.1870  -26.7170   22.2410 C   0  0  0  0  0  2  0  0  0  0  0  0
  -19.0740  -28.8700   23.3120 C   0  0  0  0  0  0  0  0  0  0  0  0
  -18.8260  -30.1470   23.8620 C   0  0  0  0  0  3  0  0  0  0  0  0
  -17.5110  -30.6370   23.9780 C   0  0  0  0  0  3  0  0  0  0  0  0
  -16.4260  -29.8460   23.5580 C   0  0  0  0  0  3  0  0  0  0  0  0
  -16.6600  -28.5710   23.0110 C   0  0  0  0  0  3  0  0  0  0  0  0
  -25.8890  -32.4850   23.8280 C   0  0  0  0  0  3  0  0  0  0  0  0
  -26.4160  -31.6900   25.0860 C   0  0  1  0  0  0  0  0  0  0  0  0
  -25.3360  -31.4450   26.1670 C   0  0  0  0  0  1  0  0  0  0  0  0
  -26.9790  -30.3150   24.6580 C   0  0  0  0  0  1  0  0  0  0  0  0
  -27.5890  -32.4610   25.7380 C   0  0  0  0  0  1  0  0  0  0  0  0
  -25.6070  -33.8840   24.1760 N   0  0  0  0  0  0  0  0  0  0  0  0
  -25.9480  -34.9380   23.4230 C   0  0  0  0  0  0  0  0  0  0  0  0
  -26.6050  -34.8340   22.3830 O   0  0  0  0  0  0  0  0  0  0  0  0
  -25.0230  -34.0400   24.9840 H   0  0  0  0  0  0  0  0  0  0  0  0
  -24.2420  -36.7590   23.1090 C   0  0  0  0  0  1  0  0  0  0  0  0
  -25.4900  -36.3310   23.8980 C   0  0  0  0  0  3  0  0  0  0  0  0
  -27.6520  -37.1730   24.6990 C   0  0  0  0  0  1  0  0  0  0  0  0
  -26.5370  -37.3680   23.7760 N   0  0  0  0  0  0  0  0  0  0  0  0
  -26.1520  -38.2940   23.9360 H   0  0  0  0  0  0  0  0  0  0  0  0
  1  3  2  0
  2  1  1  0
  4  2  1  0
  5  6  1  0
  6  2  2  0
  7  6  1  0
  7 46  1  0
  8 16  1  0
  9 14  1  0
 10 11  1  0
 10  9  1  0
 12 11  1  0
 12 21  1  0
 12 13  1  0
 14  8  1  0
 14 13  1  0
 15  8  2  0
 16 17  1  0
 16  7  1  0
 18 19  2  0
 19 38  1  0
 20 19  1  0
 20 23  1  0
 21 18  1  0
 21 22  1  0
 22 20  2  0
 23 24  1  0
 24 25  2  0
 26 29  1  0
 26 25  1  0
 27 26  2  0
 28 27  1  0
 28 23  2  0
 29 30  1  0
 30 35  2  0
 30 31  1  0
 31 32  2  0
 32 33  1  0
 33 37  1  0
 34 33  2  0
 35 34  1  0
 36 35  1  0
 38 39  1  0
 39 42  1  0
 39 41  1  0
 40 38  2  0
 43 18  1  0
 43 44  1  0
 45 43  1  0
 46 47  1  0
 47 49  1  0
 47 50  1  0
 48 46  2  0
 51 56  1  0
 51  1  1  0
 51 52  1  0
 52 55  1  0
 52 53  1  0
 54 52  1  0
 57 58  1  0
 57 56  1  0
 59 60  1  0
 59 58  1  0
 60 62  1  0
 61 72  2  0
 62 67  1  0
 63 71  1  0
 63 73  1  0
 64 70  1  0
 64 66  1  0
 65 71  1  0
 66 65  1  0
 67 66  2  0
 68 69  1  0
 68 62  2  0
 69 64  2  0
 70 63  1  0
 71 61  1  0
 73 75  2  0
 74 73  1  0
 76 74  1  0
 77 86  2  0
 77 82  1  0
 78 74  1  0
 78 82  1  0
 79 78  1  0
 80 81  1  0
 80 79  1  0
 81 77  1  0
 82 83  2  0
 83 84  1  0
 85 84  2  0
 86 85  1  0
 87 61  1  0
 87 92  1  0
 87 88  1  0
 88 91  1  1
 88 89  1  0
 90 88  1  0
 92 95  1  0
 93 97  1  0
 93 92  1  0
 94 93  2  0
 97 96  1  0
 99 97  1  0
 99100  1  0
 99 98  1  0
M  ISO  4   8 100  16 100  59 101  60 101
M  END
>  <TORSDO>  (84) 
F 25

>  <SCORE>  (84) 
-10.919

>  <name>  (84) 
85

>  <ligand_id>  (84) 
85

>  <original_smiles>  (84) 
[H]c1c([H])c([H])c2c(c1[H])C([H])([H])C([H])([H])C([H])([H])C2([H])N([H])C(=O)C1([H])N(C(=O)C([H])(N([H])C(=O)C([H])(N([H])C([H])([H])[H])C([H])([H])[H])C(C([H])([H])[H])(C([H])([H])[H])C([H])([H])[H])C([H])([H])c2c([H])c(OC([H])([H])C([H])([H])OC([H])([H])C([H])(C(=O)N([H])C([H])(C([H])([H])[H])C([H])(C(=O)N([H])[H])N([H])C(=O)N3C([H])([H])C([H])([H])C([H])([H])C([H])(n4nc(-c5c([H])c([H])c(Oc6c([H])c([H])c(F)c([H])c6F)c([H])c5[H])c(C(=O)N([H])[H])c4N([H])[H])C3([H])[H])[N+]([H])([H])[H])c([H])c([H])c2C1([H])[H]

>  <smiles>  (84) 
[H]c1c([H])c([H])c2c(c1[H])C([H])([H])C([H])([H])C([H])([H])C2([H])N([H])C(=O)C1([H])N(C(=O)C([H])(N([H])C(=O)C([H])(N([H])C([H])([H])[H])C([H])([H])[H])C(C([H])([H])[H])(C([H])([H])[H])C([H])([H])[H])C([H])([H])c2c([H])c(OC([H])([H])C([H])([H])OC([H])([H])C([H])(C(=O)N([H])C([H])(C([H])([H])[H])C([H])(C(=O)N([H])[H])N([H])C(=O)N3C([H])([H])C([H])([H])C([H])([H])C([H])(n4nc(-c5c([H])c([H])c(Oc6c([H])c([H])c(F)c([H])c6F)c([H])c5[H])c(C(=O)N([H])[H])c4N([H])[H])C3([H])[H])[N+]([H])([H])[H])c([H])c([H])c2C1([H])[H]

$$$$
86:0:0
     RDKit          3D

 90 97  0  0  1  0  0  0  0  0999 V2000
  -29.7390  -18.7230   20.3050 C   0  0  0  0  0  3  0  0  0  0  0  0
  -30.2610  -15.6440   20.2520 C   0  0  0  0  0  0  0  0  0  0  0  0
  -30.3410  -13.1300   19.3940 C   0  0  0  0  0  2  0  0  0  0  0  0
  -29.4410  -12.7720   18.1800 C   0  0  0  0  0  2  0  0  0  0  0  0
  -28.0160  -12.4210   18.6370 C   0  0  0  0  0  2  0  0  0  0  0  0
  -27.5180  -13.4000   19.7260 C   0  0  0  0  0  3  0  0  0  0  0  0
  -28.5570  -13.6760   20.8370 C   0  0  0  0  0  2  0  0  0  0  0  0
  -29.7310  -14.2900   20.1800 N   0  0  0  0  0  0  0  0  0  0  0  0
  -31.4910  -15.5950   20.0630 O   0  0  0  0  0  0  0  0  0  0  0  0
  -29.5020  -16.9850   20.3490 N   0  0  0  0  0  0  0  0  0  0  0  0
  -28.5200  -16.7930   20.4620 H   0  0  0  0  0  0  0  0  0  0  0  0
  -25.1540  -13.9050   20.5080 C   0  0  0  0  0  0  0  0  0  0  0  0
  -24.1050  -13.1110   20.8760 C   0  0  0  0  0  0  0  0  0  0  0  0
  -24.5900  -11.7670   20.8300 C   0  0  0  0  0  0  0  0  0  0  0  0
  -26.2070  -13.0470   20.2500 N   0  0  0  0  0  0  0  0  0  0  0  0
  -25.8820  -11.7520   20.5130 N   0  0  0  0  0  0  0  0  0  0  0  0
  -23.8780  -10.4950   21.0120 C   0  0  0  0  0  0  0  0  0  0  0  0
  -24.3030   -9.5360   21.9590 C   0  0  0  0  0  3  0  0  0  0  0  0
  -23.5850   -8.3320   22.1300 C   0  0  0  0  0  3  0  0  0  0  0  0
  -22.4280   -8.0780   21.3550 C   0  0  0  0  0  0  0  0  0  0  0  0
  -22.0230   -9.0260   20.3990 C   0  0  0  0  0  3  0  0  0  0  0  0
  -22.7410  -10.2200   20.2260 C   0  0  0  0  0  3  0  0  0  0  0  0
  -21.6840   -6.9260   21.4360 O   0  0  0  0  0  0  0  0  0  0  0  0
  -21.5950   -6.2060   22.6010 C   0  0  0  0  0  0  0  0  0  0  0  0
  -21.0760   -6.7690   23.7870 C   0  0  0  0  0  3  0  0  0  0  0  0
  -20.9380   -5.9740   24.9420 C   0  0  0  0  0  3  0  0  0  0  0  0
  -21.3090   -4.6160   24.9110 C   0  0  0  0  0  0  0  0  0  0  0  0
  -21.8200   -4.0520   23.7290 C   0  0  0  0  0  3  0  0  0  0  0  0
  -21.9590   -4.8450   22.5760 C   0  0  0  0  0  0  0  0  0  0  0  0
  -22.4330   -4.2910   21.4340 F   0  0  0  0  0  0  0  0  0  0  0  0
  -21.1690   -3.8500   26.0180 F   0  0  0  0  0  0  0  0  0  0  0  0
  -22.7030  -13.5690   21.1470 C   0  0  0  0  0  0  0  0  0  0  0  0
  -21.9860  -12.8680   22.0170 N   0  0  0  0  0  0  0  0  0  0  0  0
  -22.2530  -14.5880   20.6240 O   0  0  0  0  0  0  0  0  0  0  0  0
  -22.3650  -12.0460   22.4630 H   0  0  0  0  0  0  0  0  0  0  0  0
  -21.0450  -13.1580   22.2400 H   0  0  0  0  0  0  0  0  0  0  0  0
  -25.2950  -15.2790   20.3380 N   0  0  0  0  0  0  0  0  0  0  0  0
  -24.5130  -15.9150   20.4520 H   0  0  0  0  0  0  0  0  0  0  0  0
  -26.1200  -15.7290   19.9660 H   0  0  0  0  0  0  0  0  0  0  0  0
  -30.5970  -18.8970   19.0910 C   0  0  0  0  0  0  0  0  0  0  0  0
  -31.8590  -19.3270   19.2030 N   0  0  0  0  0  0  0  0  0  0  0  0
  -30.0630  -18.6120   17.8960 N   0  0  0  0  0  4  0  0  0  0  0  0
  -32.2480  -19.5260   20.1150 H   0  0  0  0  0  0  0  0  0  0  0  0
  -32.4760  -19.4540   18.4150 H   0  0  0  0  0  0  0  0  0  0  0  0
  -29.1100  -18.2800   17.8470 H   0  0  0  0  0  0  0  0  0  0  0  0
  -30.5620  -18.7090   17.0240 H   0  0  0  0  0  0  0  0  0  0  0  0
  -28.6970  -20.3400   20.3370 C   0  0  0  0  0  2  0  0  0  0  0  0
  -28.9300  -22.2530   20.3440 C   0  0  0  0  0  3  0  0  0  0  0  0
  -27.9320  -23.8990   20.2840 C   0  0  0  0  0  3  0  0  0  0  0  0
  -28.1340  -25.6320   20.3610 O   0  0  0  0  0  0  0  0  0  0  0  0
  -24.6350  -31.8930   23.2600 C   0  0  0  0  0  0  0  0  0  0  0  0
  -27.1550  -26.8240   20.3030 C   0  0  0  0  0  0  0  0  0  0  0  0
  -23.4470  -30.4960   21.6240 C   0  0  0  0  0  3  0  0  0  0  0  0
  -24.8910  -28.8400   20.2250 C   0  0  0  0  0  0  0  0  0  0  0  0
  -26.0250  -30.6350   21.5100 C   0  0  0  0  0  2  0  0  0  0  0  0
  -26.0850  -29.2040   20.8600 C   0  0  0  0  0  0  0  0  0  0  0  0
  -27.2040  -28.2230   20.8650 C   0  0  0  0  0  3  0  0  0  0  0  0
  -25.9270  -26.6580   19.6150 C   0  0  0  0  0  3  0  0  0  0  0  0
  -24.8490  -27.5930   19.5800 C   0  0  0  0  0  3  0  0  0  0  0  0
  -23.6870  -29.7940   20.2570 C   0  0  0  0  0  2  0  0  0  0  0  0
  -24.7260  -31.0410   22.1840 N   0  0  0  0  0  0  0  0  0  0  0  0
  -23.5410  -32.1990   23.7660 O   0  0  0  0  0  0  0  0  0  0  0  0
  -22.7230  -29.5240   22.5950 C   0  0  0  0  0  0  0  0  0  0  0  0
  -21.3920  -29.3700   22.4590 N   0  0  0  0  0  0  0  0  0  0  0  0
  -23.3710  -28.9050   23.4420 O   0  0  0  0  0  0  0  0  0  0  0  0
  -20.9200  -29.9180   21.7540 H   0  0  0  0  0  0  0  0  0  0  0  0
  -17.9980  -28.1720   22.9510 C   0  0  0  0  0  0  0  0  0  0  0  0
  -20.5560  -28.4420   23.2310 C   0  0  0  0  0  3  0  0  0  0  0  0
  -20.6600  -27.0050   22.6700 C   0  0  0  0  0  2  0  0  0  0  0  0
  -19.5670  -26.6750   21.6490 C   0  0  0  0  0  2  0  0  0  0  0  0
  -18.1800  -26.8210   22.2800 C   0  0  0  0  0  2  0  0  0  0  0  0
  -19.1120  -28.9400   23.3830 C   0  0  0  0  0  0  0  0  0  0  0  0
  -18.8840  -30.2010   23.9740 C   0  0  0  0  0  3  0  0  0  0  0  0
  -17.5760  -30.6960   24.1360 C   0  0  0  0  0  3  0  0  0  0  0  0
  -16.4770  -29.9270   23.7160 C   0  0  0  0  0  3  0  0  0  0  0  0
  -16.6890  -28.6660   23.1310 C   0  0  0  0  0  3  0  0  0  0  0  0
  -25.8990  -32.5380   23.9050 C   0  0  0  0  0  3  0  0  0  0  0  0
  -26.3750  -31.7920   25.2140 C   0  0  1  0  0  0  0  0  0  0  0  0
  -25.2540  -31.5960   26.2630 C   0  0  0  0  0  1  0  0  0  0  0  0
  -26.9470  -30.3960   24.8800 C   0  0  0  0  0  1  0  0  0  0  0  0
  -27.5220  -32.5860   25.8820 C   0  0  0  0  0  1  0  0  0  0  0  0
  -25.5890  -33.9460   24.2180 N   0  0  0  0  0  0  0  0  0  0  0  0
  -25.9220  -34.9980   23.4570 C   0  0  0  0  0  0  0  0  0  0  0  0
  -26.5820  -34.8840   22.4210 O   0  0  0  0  0  0  0  0  0  0  0  0
  -25.0000  -34.1080   25.0220 H   0  0  0  0  0  0  0  0  0  0  0  0
  -24.1970  -36.8060   23.1300 C   0  0  0  0  0  1  0  0  0  0  0  0
  -25.4550  -36.3970   23.9140 C   0  0  0  0  0  3  0  0  0  0  0  0
  -27.6090  -37.2890   24.6920 C   0  0  0  0  0  1  0  0  0  0  0  0
  -26.4910  -37.4440   23.7660 N   0  0  0  0  0  0  0  0  0  0  0  0
  -26.0900  -38.3690   23.9040 H   0  0  0  0  0  0  0  0  0  0  0  0
  1 47  1  0
  1 10  1  0
  2 10  1  0
  3  8  1  0
  4  5  1  0
  4  3  1  0
  6  5  1  0
  6 15  1  0
  6  7  1  0
  8  2  1  0
  8  7  1  0
  9  2  2  0
 10 11  1  0
 12 13  2  0
 13 32  1  0
 14 13  1  0
 14 17  1  0
 15 12  1  0
 15 16  1  0
 16 14  2  0
 17 18  1  0
 18 19  2  0
 20 23  1  0
 20 19  1  0
 21 20  2  0
 22 21  1  0
 22 17  2  0
 23 24  1  0
 24 25  1  0
 25 26  2  0
 27 26  1  0
 27 31  1  0
 28 27  2  0
 29 24  2  0
 29 28  1  0
 30 29  1  0
 32 33  1  0
 33 36  1  0
 33 35  1  0
 34 32  2  0
 37 38  1  0
 37 12  1  0
 39 37  1  0
 40 41  1  0
 40  1  1  0
 41 43  1  0
 42 40  2  0
 44 41  1  0
 45 42  1  0
 46 42  1  0
 47 48  1  0
 49 48  2  0
 49 50  1  0
 51 62  2  0
 52 50  1  0
 52 57  1  0
 53 61  1  0
 53 63  1  0
 54 60  1  0
 54 56  1  0
 55 61  1  0
 56 57  2  0
 56 55  1  0
 58 52  2  0
 59 58  1  0
 59 54  2  0
 60 53  1  0
 61 51  1  0
 63 65  2  0
 64 63  1  0
 66 64  1  0
 67 76  2  0
 67 72  1  0
 68 64  1  0
 68 72  1  0
 69 68  1  0
 70 71  1  0
 70 69  1  0
 71 67  1  0
 72 73  2  0
 73 74  1  0
 75 74  2  0
 76 75  1  0
 77 51  1  0
 77 82  1  0
 77 78  1  0
 78 81  1  1
 78 79  1  0
 80 78  1  0
 82 85  1  0
 83 87  1  0
 83 82  1  0
 84 83  2  0
 87 86  1  0
 89 90  1  0
 89 87  1  0
 89 88  1  0
M  ISO  4   2 100  10 100  49 101  50 101
M  END
>  <TORSDO>  (85) 
F 20

>  <SCORE>  (85) 
-16.212

>  <name>  (85) 
86

>  <ligand_id>  (85) 
86

>  <original_smiles>  (85) 
[H]c1c([H])c([H])c2c(c1[H])C([H])([H])C([H])([H])C([H])([H])C2([H])N([H])C(=O)C1([H])N(C(=O)C([H])(N([H])C(=O)C([H])(N([H])C([H])([H])[H])C([H])([H])[H])C(C([H])([H])[H])(C([H])([H])[H])C([H])([H])[H])C([H])([H])c2c([H])c(OC([H])([H])C([H])([H])C([H])([H])C([H])(C(N([H])[H])=[N+]([H])[H])N([H])C(=O)N3C([H])([H])C([H])([H])C([H])([H])C([H])(n4nc(-c5c([H])c([H])c(Oc6c([H])c([H])c(F)c([H])c6F)c([H])c5[H])c(C(=O)N([H])[H])c4N([H])[H])C3([H])[H])c([H])c([H])c2C1([H])[H]

>  <smiles>  (85) 
[H]c1c([H])c([H])c2c(c1[H])C([H])([H])C([H])([H])C([H])([H])C2([H])N([H])C(=O)C1([H])N(C(=O)C([H])(N([H])C(=O)C([H])(N([H])C([H])([H])[H])C([H])([H])[H])C(C([H])([H])[H])(C([H])([H])[H])C([H])([H])[H])C([H])([H])c2c([H])c(OC([H])([H])C([H])([H])C([H])([H])C([H])(C(N([H])[H])=[N+]([H])[H])N([H])C(=O)N3C([H])([H])C([H])([H])C([H])([H])C([H])(n4nc(-c5c([H])c([H])c(Oc6c([H])c([H])c(F)c([H])c6F)c([H])c5[H])c(C(=O)N([H])[H])c4N([H])[H])C3([H])[H])c([H])c([H])c2C1([H])[H]

$$$$
87:0:0
     RDKit          3D

 95103  0  0  1  0  0  0  0  0999 V2000
  -29.5230  -18.5200   17.6240 C   0  0  0  0  0  2  0  0  0  0  0  0
  -28.5120  -18.0150   18.6770 C   0  0  0  0  0  2  0  0  0  0  0  0
  -31.2190  -17.2160   18.9940 C   0  0  0  0  0  2  0  0  0  0  0  0
  -30.2860  -17.1070   20.2480 C   0  0  0  0  0  3  0  0  0  0  0  0
  -30.9890  -18.4650   18.1160 C   0  0  0  0  0  3  0  0  0  0  0  0
  -29.0620  -18.1100   20.1160 C   0  0  0  0  0  3  0  0  0  0  0  0
  -30.6400  -14.5530   20.4450 C   0  0  0  0  0  0  0  0  0  0  0  0
  -30.3640  -12.3340   19.4100 C   0  0  0  0  0  2  0  0  0  0  0  0
  -29.4440  -12.4880   18.1800 C   0  0  0  0  0  2  0  0  0  0  0  0
  -27.9640  -12.3560   18.5930 C   0  0  0  0  0  2  0  0  0  0  0  0
  -27.6020  -13.2320   19.8230 C   0  0  0  0  0  3  0  0  0  0  0  0
  -28.6470  -13.0880   20.9520 C   0  0  0  0  0  2  0  0  0  0  0  0
  -29.9670  -13.3710   20.3770 N   0  0  0  0  0  0  0  0  0  0  0  0
  -31.8400  -14.6290   20.1830 O   0  0  0  0  0  0  0  0  0  0  0  0
  -29.8770  -15.6820   20.5160 N   0  0  0  0  0  0  0  0  0  0  0  0
  -28.8970  -15.5260   20.7010 H   0  0  0  0  0  0  0  0  0  0  0  0
  -25.2060  -13.8500   20.5120 C   0  0  0  0  0  0  0  0  0  0  0  0
  -24.1320  -13.0840   20.8760 C   0  0  0  0  0  0  0  0  0  0  0  0
  -24.5870  -11.7300   20.8620 C   0  0  0  0  0  0  0  0  0  0  0  0
  -26.2480  -12.9620   20.2970 N   0  0  0  0  0  0  0  0  0  0  0  0
  -25.8810  -11.6830   20.5710 N   0  0  0  0  0  0  0  0  0  0  0  0
  -23.8540  -10.4740   21.0500 C   0  0  0  0  0  0  0  0  0  0  0  0
  -24.2770   -9.5040   21.9860 C   0  0  0  0  0  3  0  0  0  0  0  0
  -23.5430   -8.3110   22.1630 C   0  0  0  0  0  3  0  0  0  0  0  0
  -22.3720   -8.0780   21.4020 C   0  0  0  0  0  0  0  0  0  0  0  0
  -21.9690   -9.0360   20.4550 C   0  0  0  0  0  3  0  0  0  0  0  0
  -22.7020  -10.2210   20.2770 C   0  0  0  0  0  3  0  0  0  0  0  0
  -21.6090   -6.9390   21.4890 O   0  0  0  0  0  0  0  0  0  0  0  0
  -21.5580   -6.1930   22.6380 C   0  0  0  0  0  0  0  0  0  0  0  0
  -21.1500   -6.7480   23.8710 C   0  0  0  0  0  3  0  0  0  0  0  0
  -21.0450   -5.9280   25.0130 C   0  0  0  0  0  3  0  0  0  0  0  0
  -21.3380   -4.5550   24.9220 C   0  0  0  0  0  0  0  0  0  0  0  0
  -21.7400   -3.9990   23.6950 C   0  0  0  0  0  3  0  0  0  0  0  0
  -21.8470   -4.8160   22.5570 C   0  0  0  0  0  0  0  0  0  0  0  0
  -22.2130   -4.2700   21.3710 F   0  0  0  0  0  0  0  0  0  0  0  0
  -21.2310   -3.7650   26.0170 F   0  0  0  0  0  0  0  0  0  0  0  0
  -22.7330  -13.5690   21.1260 C   0  0  0  0  0  0  0  0  0  0  0  0
  -21.9920  -12.8810   21.9870 N   0  0  0  0  0  0  0  0  0  0  0  0
  -22.3070  -14.5910   20.5930 O   0  0  0  0  0  0  0  0  0  0  0  0
  -22.3520  -12.0550   22.4410 H   0  0  0  0  0  0  0  0  0  0  0  0
  -21.0520  -13.1860   22.1980 H   0  0  0  0  0  0  0  0  0  0  0  0
  -25.3790  -15.2170   20.3230 N   0  0  0  0  0  0  0  0  0  0  0  0
  -24.6060  -15.8700   20.4030 H   0  0  0  0  0  0  0  0  0  0  0  0
  -26.2180  -15.6460   19.9570 H   0  0  0  0  0  0  0  0  0  0  0  0
  -31.9390  -18.5320   16.9900 N   0  0  0  0  0  4  0  0  0  0  0  0
  -31.8290  -17.7540   16.3640 H   0  0  0  0  0  0  0  0  0  0  0  0
  -32.8860  -18.5330   17.3260 H   0  0  0  0  0  0  0  0  0  0  0  0
  -31.8050  -19.3790   16.4660 H   0  0  0  0  0  0  0  0  0  0  0  0
  -29.4150  -19.4950   20.4310 O   0  0  0  0  0  0  0  0  0  0  0  0
  -28.3910  -20.5120   20.2420 C   0  0  0  0  0  2  0  0  0  0  0  0
  -28.6360  -21.9210   20.8950 C   0  0  0  0  0  2  0  0  0  0  0  0
  -29.1790  -22.9330   20.0160 O   0  0  0  0  0  0  0  0  0  0  0  0
  -28.3690  -24.1000   19.7030 C   0  0  0  0  0  2  0  0  0  0  0  0
  -28.3550  -25.2630   20.7510 C   0  0  0  0  0  2  0  0  0  0  0  0
  -28.4290  -26.6200   20.2300 O   0  0  0  0  0  0  0  0  0  0  0  0
  -24.6260  -31.8790   23.2570 C   0  0  0  0  0  0  0  0  0  0  0  0
  -27.2670  -27.3750   20.2300 C   0  0  0  0  0  0  0  0  0  0  0  0
  -23.4230  -30.4680   21.6210 C   0  0  0  0  0  3  0  0  0  0  0  0
  -24.8800  -28.9100   20.2130 C   0  0  0  0  0  0  0  0  0  0  0  0
  -25.9530  -30.8150   21.4280 C   0  0  0  0  0  2  0  0  0  0  0  0
  -26.0400  -29.4340   20.7970 C   0  0  0  0  0  0  0  0  0  0  0  0
  -27.2390  -28.6780   20.7910 C   0  0  0  0  0  3  0  0  0  0  0  0
  -26.0900  -26.8720   19.6400 C   0  0  0  0  0  3  0  0  0  0  0  0
  -24.9030  -27.6310   19.6280 C   0  0  0  0  0  3  0  0  0  0  0  0
  -23.6380  -29.7760   20.2480 C   0  0  0  0  0  2  0  0  0  0  0  0
  -24.6860  -31.0710   22.1600 N   0  0  0  0  0  0  0  0  0  0  0  0
  -23.5420  -32.1550   23.7920 O   0  0  0  0  0  0  0  0  0  0  0  0
  -22.7660  -29.4560   22.5860 C   0  0  0  0  0  0  0  0  0  0  0  0
  -21.4420  -29.2720   22.4550 N   0  0  0  0  0  0  0  0  0  0  0  0
  -23.4450  -28.8390   23.4120 O   0  0  0  0  0  0  0  0  0  0  0  0
  -20.9560  -29.8200   21.7590 H   0  0  0  0  0  0  0  0  0  0  0  0
  -18.0680  -28.0680   22.9380 C   0  0  0  0  0  0  0  0  0  0  0  0
  -20.6230  -28.3390   23.2290 C   0  0  0  0  0  3  0  0  0  0  0  0
  -20.7370  -26.9030   22.6660 C   0  0  0  0  0  2  0  0  0  0  0  0
  -19.6450  -26.5660   21.6470 C   0  0  0  0  0  2  0  0  0  0  0  0
  -18.2560  -26.7130   22.2770 C   0  0  0  0  0  2  0  0  0  0  0  0
  -19.1800  -28.8380   23.3700 C   0  0  0  0  0  0  0  0  0  0  0  0
  -18.9510  -30.1060   23.9470 C   0  0  0  0  0  3  0  0  0  0  0  0
  -17.6440  -30.6050   24.0940 C   0  0  0  0  0  3  0  0  0  0  0  0
  -16.5460  -29.8320   23.6790 C   0  0  0  0  0  3  0  0  0  0  0  0
  -16.7590  -28.5650   23.1060 C   0  0  0  0  0  3  0  0  0  0  0  0
  -25.9090  -32.5140   23.8780 C   0  0  0  0  0  3  0  0  0  0  0  0
  -25.6000  -33.9140   24.2020 N   0  0  0  0  0  0  0  0  0  0  0  0
  -25.9310  -34.9630   23.4360 C   0  0  0  0  0  0  0  0  0  0  0  0
  -26.5990  -34.8540   22.4050 O   0  0  0  0  0  0  0  0  0  0  0  0
  -25.0110  -34.0730   25.0060 H   0  0  0  0  0  0  0  0  0  0  0  0
  -24.1990  -36.7490   23.0710 C   0  0  0  0  0  1  0  0  0  0  0  0
  -25.4410  -36.3520   23.8850 C   0  0  0  0  0  3  0  0  0  0  0  0
  -27.5760  -37.2440   24.7060 C   0  0  0  0  0  1  0  0  0  0  0  0
  -26.4710  -37.4070   23.7630 N   0  0  0  0  0  0  0  0  0  0  0  0
  -26.0650  -38.3280   23.9060 H   0  0  0  0  0  0  0  0  0  0  0  0
  -26.4230  -31.7480   25.1590 C   0  0  1  0  0  0  0  0  0  0  0  0
  -25.3300  -31.5160   26.2270 C   0  0  0  0  0  1  0  0  0  0  0  0
  -27.0030  -30.3690   24.7710 C   0  0  0  0  0  1  0  0  0  0  0  0
  -27.5750  -32.5440   25.8180 C   0  0  0  0  0  1  0  0  0  0  0  0
  1  5  1  0
  1  2  1  0
  2  6  1  0
  3  4  1  0
  4 15  1  0
  5 45  1  0
  5  3  1  0
  6  4  1  0
  6 49  1  0
  7 15  1  0
  8 13  1  0
  9 10  1  0
  9  8  1  0
 11 10  1  0
 11 20  1  0
 11 12  1  0
 13  7  1  0
 13 12  1  0
 14  7  2  0
 15 16  1  0
 17 18  2  0
 18 37  1  0
 19 18  1  0
 19 22  1  0
 20 17  1  0
 20 21  1  0
 21 19  2  0
 22 23  1  0
 23 24  2  0
 25 28  1  0
 25 24  1  0
 26 25  2  0
 27 26  1  0
 27 22  2  0
 28 29  1  0
 29 30  1  0
 30 31  2  0
 32 31  1  0
 32 36  1  0
 33 32  2  0
 34 29  2  0
 34 33  1  0
 35 34  1  0
 37 38  1  0
 38 41  1  0
 38 40  1  0
 39 37  2  0
 42 43  1  0
 42 17  1  0
 44 42  1  0
 45 47  1  0
 46 45  1  0
 48 45  1  0
 50 49  1  0
 50 51  1  0
 52 51  1  0
 53 52  1  0
 53 54  1  0
 55 54  1  0
 56 67  2  0
 57 55  1  0
 57 62  1  0
 58 66  1  0
 58 68  1  0
 59 65  1  0
 59 61  1  0
 60 66  1  0
 61 60  1  0
 62 61  2  0
 63 57  2  0
 64 63  1  0
 64 59  2  0
 65 58  1  0
 66 56  1  0
 68 70  2  0
 69 68  1  0
 71 69  1  0
 72 81  2  0
 72 77  1  0
 73 69  1  0
 73 77  1  0
 74 73  1  0
 75 76  1  0
 75 74  1  0
 76 72  1  0
 77 78  2  0
 78 79  1  0
 80 79  2  0
 81 80  1  0
 82 56  1  0
 82 83  1  0
 82 92  1  0
 83 86  1  0
 84 88  1  0
 84 83  1  0
 85 84  2  0
 88 87  1  0
 90 88  1  0
 90 91  1  0
 90 89  1  0
 92 95  1  1
 92 93  1  0
 94 92  1  0
M  ISO  4   7 100  15 100  54 101  55 101
M  END
>  <TORSDO>  (86) 
F 23

>  <SCORE>  (86) 
-13.181

>  <name>  (86) 
87

>  <ligand_id>  (86) 
87

>  <original_smiles>  (86) 
[H]c1c([H])c([H])c2c(c1[H])C([H])([H])C([H])([H])C([H])([H])C2([H])N([H])C(=O)C1([H])N(C(=O)C([H])(N([H])C(=O)C([H])(N([H])C([H])([H])[H])C([H])([H])[H])C(C([H])([H])[H])(C([H])([H])[H])C([H])([H])[H])C([H])([H])c2c([H])c(OC([H])([H])C([H])([H])OC([H])([H])C([H])([H])OC3([H])C([H])([H])C([H])([H])C([H])([N+]([H])([H])[H])C([H])([H])C3([H])N([H])C(=O)N3C([H])([H])C([H])([H])C([H])([H])C([H])(n4nc(-c5c([H])c([H])c(Oc6c([H])c([H])c(F)c([H])c6F)c([H])c5[H])c(C(=O)N([H])[H])c4N([H])[H])C3([H])[H])c([H])c([H])c2C1([H])[H]

>  <smiles>  (86) 
[H]c1c([H])c([H])c2c(c1[H])C([H])([H])C([H])([H])C([H])([H])C2([H])N([H])C(=O)C1([H])N(C(=O)C([H])(N([H])C(=O)C([H])(N([H])C([H])([H])[H])C([H])([H])[H])C(C([H])([H])[H])(C([H])([H])[H])C([H])([H])[H])C([H])([H])c2c([H])c(OC([H])([H])C([H])([H])OC([H])([H])C([H])([H])OC3([H])C([H])([H])C([H])([H])C([H])([N+]([H])([H])[H])C([H])([H])C3([H])N([H])C(=O)N3C([H])([H])C([H])([H])C([H])([H])C([H])(n4nc(-c5c([H])c([H])c(Oc6c([H])c([H])c(F)c([H])c6F)c([H])c5[H])c(C(=O)N([H])[H])c4N([H])[H])C3([H])[H])c([H])c([H])c2C1([H])[H]

$$$$
88:0:0
     RDKit          3D

 97104  0  0  1  0  0  0  0  0999 V2000
  -28.5990  -21.6570   19.4830 C   0  0  0  0  0  3  0  0  0  0  0  0
  -28.9240  -20.4650   20.4430 C   0  0  0  0  0  0  0  0  0  0  0  0
  -29.7820  -19.4770   20.0700 N   0  0  0  0  0  0  0  0  0  0  0  0
  -28.3400  -20.4370   21.5280 O   0  0  0  0  0  0  0  0  0  0  0  0
  -30.1960  -19.5720   19.1540 H   0  0  0  0  0  0  0  0  0  0  0  0
  -30.0720  -18.2100   20.8020 C   0  0  0  0  0  3  0  0  0  0  0  0
  -31.1970  -17.1810   22.8960 C   0  0  0  0  0  1  0  0  0  0  0  0
  -32.2440  -19.2110   21.7900 C   0  0  0  0  0  1  0  0  0  0  0  0
  -30.9320  -18.4620   22.0830 C   0  0  0  0  0  3  0  0  0  0  0  0
  -30.6710  -17.1090   19.8490 C   0  0  0  0  0  2  0  0  0  0  0  0
  -31.1060  -14.6170   19.9170 C   0  0  0  0  0  0  0  0  0  0  0  0
  -30.7710  -12.3630   18.9660 C   0  0  0  0  0  2  0  0  0  0  0  0
  -29.8170  -12.5300   17.7650 C   0  0  0  0  0  2  0  0  0  0  0  0
  -28.3480  -12.4430   18.2300 C   0  0  0  0  0  2  0  0  0  0  0  0
  -28.0550  -13.3530   19.4530 C   0  0  0  0  0  3  0  0  0  0  0  0
  -29.1320  -13.1890   20.5500 C   0  0  0  0  0  2  0  0  0  0  0  0
  -30.4420  -13.4270   19.9280 N   0  0  0  0  0  0  0  0  0  0  0  0
  -32.2530  -14.7370   19.4780 O   0  0  0  0  0  0  0  0  0  0  0  0
  -30.3430  -15.7040   20.1900 N   0  0  0  0  0  0  0  0  0  0  0  0
  -29.4090  -15.5130   20.5180 H   0  0  0  0  0  0  0  0  0  0  0  0
  -25.7310  -14.0730   20.2840 C   0  0  0  0  0  0  0  0  0  0  0  0
  -24.6400  -13.3480   20.6820 C   0  0  0  0  0  0  0  0  0  0  0  0
  -25.0260  -11.9750   20.6080 C   0  0  0  0  0  0  0  0  0  0  0  0
  -26.7140  -13.1400   19.9870 N   0  0  0  0  0  0  0  0  0  0  0  0
  -26.2970  -11.8740   20.2410 N   0  0  0  0  0  0  0  0  0  0  0  0
  -24.2410  -10.7510   20.8050 C   0  0  0  0  0  0  0  0  0  0  0  0
  -24.6300   -9.7730   21.7460 C   0  0  0  0  0  3  0  0  0  0  0  0
  -23.8510   -8.6100   21.9340 C   0  0  0  0  0  3  0  0  0  0  0  0
  -22.6700   -8.4190   21.1810 C   0  0  0  0  0  0  0  0  0  0  0  0
  -22.2980   -9.3860   20.2300 C   0  0  0  0  0  3  0  0  0  0  0  0
  -23.0770  -10.5400   20.0410 C   0  0  0  0  0  3  0  0  0  0  0  0
  -21.8630   -7.3100   21.2770 O   0  0  0  0  0  0  0  0  0  0  0  0
  -21.7460   -6.6070   22.4500 C   0  0  0  0  0  0  0  0  0  0  0  0
  -21.3200   -7.2200   23.6480 C   0  0  0  0  0  3  0  0  0  0  0  0
  -21.1400   -6.4440   24.8100 C   0  0  0  0  0  3  0  0  0  0  0  0
  -21.3790   -5.0580   24.7770 C   0  0  0  0  0  0  0  0  0  0  0  0
  -21.8000   -4.4440   23.5830 C   0  0  0  0  0  3  0  0  0  0  0  0
  -21.9790   -5.2170   22.4230 C   0  0  0  0  0  0  0  0  0  0  0  0
  -22.3630   -4.6170   21.2690 F   0  0  0  0  0  0  0  0  0  0  0  0
  -21.2000   -4.3110   25.8910 F   0  0  0  0  0  0  0  0  0  0  0  0
  -23.2830  -13.8940   21.0230 C   0  0  0  0  0  0  0  0  0  0  0  0
  -22.5710  -13.2370   21.9310 N   0  0  0  0  0  0  0  0  0  0  0  0
  -22.8670  -14.9390   20.5220 O   0  0  0  0  0  0  0  0  0  0  0  0
  -22.9230  -12.3930   22.3570 H   0  0  0  0  0  0  0  0  0  0  0  0
  -21.6660  -13.5870   22.2070 H   0  0  0  0  0  0  0  0  0  0  0  0
  -25.9610  -15.4350   20.1270 N   0  0  0  0  0  0  0  0  0  0  0  0
  -25.2190  -16.1170   20.2470 H   0  0  0  0  0  0  0  0  0  0  0  0
  -26.8110  -15.8390   19.7580 H   0  0  0  0  0  0  0  0  0  0  0  0
  -28.1030  -22.8130   20.3070 N   0  0  0  0  0  4  0  0  0  0  0  0
  -27.1330  -22.9750   20.0940 H   0  0  0  0  0  0  0  0  0  0  0  0
  -28.1010  -22.3910   21.2290 H   0  0  0  0  0  0  0  0  0  0  0  0
  -28.8650  -24.1100   20.4090 C   0  0  0  0  0  2  0  0  0  0  0  0
  -28.4980  -25.2360   19.3780 C   0  0  0  0  0  2  0  0  0  0  0  0
  -28.4200  -26.5980   19.9020 O   0  0  0  0  0  0  0  0  0  0  0  0
  -24.5990  -31.7630   23.0800 C   0  0  0  0  0  0  0  0  0  0  0  0
  -27.2320  -27.3310   19.9040 C   0  0  0  0  0  0  0  0  0  0  0  0
  -23.3820  -30.3730   21.4410 C   0  0  0  0  0  3  0  0  0  0  0  0
  -24.8320  -28.8700   19.9720 C   0  0  0  0  0  0  0  0  0  0  0  0
  -25.9130  -30.7370   21.2200 C   0  0  0  0  0  2  0  0  0  0  0  0
  -25.9990  -29.3760   20.5550 C   0  0  0  0  0  0  0  0  0  0  0  0
  -27.2000  -28.6170   20.5170 C   0  0  0  0  0  3  0  0  0  0  0  0
  -26.0300  -26.8570   19.3210 C   0  0  0  0  0  3  0  0  0  0  0  0
  -24.8490  -27.6160   19.3470 C   0  0  0  0  0  3  0  0  0  0  0  0
  -23.5810  -29.7220   20.0490 C   0  0  0  0  0  2  0  0  0  0  0  0
  -24.6500  -30.9720   21.9700 N   0  0  0  0  0  0  0  0  0  0  0  0
  -23.5220  -32.0180   23.6380 O   0  0  0  0  0  0  0  0  0  0  0  0
  -22.7540  -29.3300   22.3970 C   0  0  0  0  0  0  0  0  0  0  0  0
  -21.4350  -29.1110   22.2710 N   0  0  0  0  0  0  0  0  0  0  0  0
  -23.4510  -28.7170   23.2080 O   0  0  0  0  0  0  0  0  0  0  0  0
  -20.9310  -29.6510   21.5830 H   0  0  0  0  0  0  0  0  0  0  0  0
  -18.0950  -27.8240   22.7540 C   0  0  0  0  0  0  0  0  0  0  0  0
  -20.6410  -28.1550   23.0430 C   0  0  0  0  0  3  0  0  0  0  0  0
  -20.7910  -26.7270   22.4730 C   0  0  0  0  0  2  0  0  0  0  0  0
  -19.7040  -26.3570   21.4610 C   0  0  0  0  0  2  0  0  0  0  0  0
  -18.3140  -26.4750   22.0920 C   0  0  0  0  0  2  0  0  0  0  0  0
  -19.1890  -28.6160   23.1890 C   0  0  0  0  0  0  0  0  0  0  0  0
  -18.9330  -29.8750   23.7790 C   0  0  0  0  0  3  0  0  0  0  0  0
  -17.6130  -30.3390   23.9380 C   0  0  0  0  0  3  0  0  0  0  0  0
  -16.5330  -29.5440   23.5150 C   0  0  0  0  0  3  0  0  0  0  0  0
  -16.7760  -28.2900   22.9270 C   0  0  0  0  0  3  0  0  0  0  0  0
  -25.8880  -32.4060   23.6830 C   0  0  0  0  0  3  0  0  0  0  0  0
  -25.5500  -33.7800   24.0760 N   0  0  0  0  0  0  0  0  0  0  0  0
  -25.8360  -34.8700   23.3530 C   0  0  0  0  0  0  0  0  0  0  0  0
  -26.4820  -34.8290   22.3000 O   0  0  0  0  0  0  0  0  0  0  0  0
  -24.9720  -33.8860   24.8960 H   0  0  0  0  0  0  0  0  0  0  0  0
  -24.0530  -36.6300   23.1150 C   0  0  0  0  0  1  0  0  0  0  0  0
  -25.3250  -36.2260   23.8770 C   0  0  0  0  0  3  0  0  0  0  0  0
  -27.4560  -37.1310   24.6920 C   0  0  0  0  0  1  0  0  0  0  0  0
  -26.3270  -37.3110   23.7840 N   0  0  0  0  0  0  0  0  0  0  0  0
  -25.9030  -38.2120   23.9840 H   0  0  0  0  0  0  0  0  0  0  0  0
  -26.4620  -31.6020   24.9120 C   0  0  1  0  0  0  0  0  0  0  0  0
  -25.4080  -31.2980   26.0020 C   0  0  0  0  0  1  0  0  0  0  0  0
  -27.0700  -30.2570   24.4540 C   0  0  0  0  0  1  0  0  0  0  0  0
  -27.6140  -32.3990   25.5700 C   0  0  0  0  0  1  0  0  0  0  0  0
  -27.7820  -19.9320   17.6510 C   0  0  0  0  0  1  0  0  0  0  0  0
  -27.0950  -22.3250   17.4580 C   0  0  0  0  0  1  0  0  0  0  0  0
  -27.4890  -21.2210   18.4550 C   0  0  0  0  0  3  0  0  0  0  0  0
  1 97  1  0
  1 49  1  0
  1  2  1  0
  2  4  2  0
  3  2  1  0
  3  6  1  0
  5  3  1  0
  6 10  1  0
  6  9  1  0
  8  9  1  0
  9  7  1  0
 10 19  1  0
 11 17  1  0
 11 19  1  0
 12 17  1  0
 13 14  1  0
 13 12  1  0
 15 14  1  0
 15 24  1  0
 15 16  1  0
 17 16  1  0
 18 11  2  0
 19 20  1  0
 21 22  2  0
 22 41  1  0
 23 22  1  0
 23 26  1  0
 24 25  1  0
 24 21  1  0
 25 23  2  0
 26 27  1  0
 27 28  2  0
 29 32  1  0
 29 28  1  0
 30 29  2  0
 31 30  1  0
 31 26  2  0
 32 33  1  0
 33 34  1  0
 34 35  2  0
 36 35  1  0
 36 40  1  0
 37 36  2  0
 38 33  2  0
 38 37  1  0
 39 38  1  0
 41 42  1  0
 42 45  1  0
 42 44  1  0
 43 41  2  0
 46 47  1  0
 46 21  1  0
 48 46  1  0
 49 52  1  0
 49 51  1  0
 50 49  1  0
 53 54  1  0
 53 52  1  0
 54 56  1  0
 55 66  2  0
 56 61  1  0
 57 65  1  0
 57 67  1  0
 58 64  1  0
 58 60  1  0
 59 65  1  0
 60 59  1  0
 61 60  2  0
 62 63  1  0
 62 56  2  0
 63 58  2  0
 64 57  1  0
 65 55  1  0
 67 69  2  0
 68 67  1  0
 70 68  1  0
 71 80  2  0
 71 76  1  0
 72 68  1  0
 72 76  1  0
 73 72  1  0
 74 75  1  0
 74 73  1  0
 75 71  1  0
 76 77  2  0
 77 78  1  0
 79 78  2  0
 80 79  1  0
 81 55  1  0
 81 82  1  0
 81 91  1  0
 82 85  1  0
 83 87  1  0
 83 82  1  0
 84 83  2  0
 87 86  1  0
 89 87  1  0
 89 90  1  0
 89 88  1  0
 91 94  1  1
 91 92  1  0
 93 91  1  0
 95 97  1  0
 96 97  1  0
M  ISO  4  11 100  19 100  53 101  54 101
M  END
>  <TORSDO>  (87) 
F 24

>  <SCORE>  (87) 
-11.423

>  <name>  (87) 
88

>  <ligand_id>  (87) 
88

>  <original_smiles>  (87) 
[H]c1c([H])c([H])c2c(c1[H])C([H])([H])C([H])([H])C([H])([H])C2([H])N([H])C(=O)C1([H])N(C(=O)C([H])(N([H])C(=O)C([H])(N([H])C([H])([H])[H])C([H])([H])[H])C(C([H])([H])[H])(C([H])([H])[H])C([H])([H])[H])C([H])([H])c2c([H])c(OC([H])([H])C([H])([H])[N+]([H])([H])C([H])(C(=O)N([H])C([H])(C([H])([H])N([H])C(=O)N3C([H])([H])C([H])([H])C([H])([H])C([H])(n4nc(-c5c([H])c([H])c(Oc6c([H])c([H])c(F)c([H])c6F)c([H])c5[H])c(C(=O)N([H])[H])c4N([H])[H])C3([H])[H])C([H])(C([H])([H])[H])C([H])([H])[H])C([H])(C([H])([H])[H])C([H])([H])[H])c([H])c([H])c2C1([H])[H]

>  <smiles>  (87) 
[H]c1c([H])c([H])c2c(c1[H])C([H])([H])C([H])([H])C([H])([H])C2([H])N([H])C(=O)C1([H])N(C(=O)C([H])(N([H])C(=O)C([H])(N([H])C([H])([H])[H])C([H])([H])[H])C(C([H])([H])[H])(C([H])([H])[H])C([H])([H])[H])C([H])([H])c2c([H])c(OC([H])([H])C([H])([H])[N+]([H])([H])C([H])(C(=O)N([H])C([H])(C([H])([H])N([H])C(=O)N3C([H])([H])C([H])([H])C([H])([H])C([H])(n4nc(-c5c([H])c([H])c(Oc6c([H])c([H])c(F)c([H])c6F)c([H])c5[H])c(C(=O)N([H])[H])c4N([H])[H])C3([H])[H])C([H])(C([H])([H])[H])C([H])([H])[H])C([H])(C([H])([H])[H])C([H])([H])[H])c([H])c([H])c2C1([H])[H]

$$$$
89:0:0
     RDKit          3D

 94101  0  0  1  0  0  0  0  0999 V2000
  -28.6010  -21.4280   20.1140 C   0  0  0  0  0  3  0  0  0  0  0  0
  -27.2520  -21.1030   19.6210 N   0  0  0  0  0  4  0  0  0  0  0  0
  -26.9400  -21.7740   18.9450 H   0  0  0  0  0  0  0  0  0  0  0  0
  -26.6040  -21.0720   20.3870 H   0  0  0  0  0  0  0  0  0  0  0  0
  -27.2620  -20.1980   19.1870 H   0  0  0  0  0  0  0  0  0  0  0  0
  -29.0780  -20.2560   21.0300 C   0  0  0  0  0  0  0  0  0  0  0  0
  -29.3760  -19.0430   20.4910 N   0  0  0  0  0  0  0  0  0  0  0  0
  -29.1280  -20.4320   22.2500 O   0  0  0  0  0  0  0  0  0  0  0  0
  -29.3220  -18.9450   19.4860 H   0  0  0  0  0  0  0  0  0  0  0  0
  -31.3270  -17.9820   21.6480 C   0  0  0  0  0  1  0  0  0  0  0  0
  -29.8390  -17.8560   21.2600 C   0  0  0  0  0  3  0  0  0  0  0  0
  -29.4820  -16.4660   20.6220 C   0  0  0  0  0  2  0  0  0  0  0  0
  -31.1950  -14.5570   20.0150 C   0  0  0  0  0  0  0  0  0  0  0  0
  -30.7460  -12.3680   18.9730 C   0  0  0  0  0  2  0  0  0  0  0  0
  -29.7920  -12.5370   17.7750 C   0  0  0  0  0  2  0  0  0  0  0  0
  -28.3270  -12.4680   18.2440 C   0  0  0  0  0  2  0  0  0  0  0  0
  -28.0450  -13.3560   19.4880 C   0  0  0  0  0  3  0  0  0  0  0  0
  -29.1260  -13.1630   20.5720 C   0  0  0  0  0  2  0  0  0  0  0  0
  -30.4180  -13.4360   19.9360 N   0  0  0  0  0  0  0  0  0  0  0  0
  -32.3730  -14.5410   19.6670 O   0  0  0  0  0  0  0  0  0  0  0  0
  -30.6430  -15.7930   20.0160 N   0  0  0  0  0  0  0  0  0  0  0  0
  -31.3480  -16.4620   19.7460 H   0  0  0  0  0  0  0  0  0  0  0  0
  -25.7040  -14.0650   20.2660 C   0  0  0  0  0  0  0  0  0  0  0  0
  -24.6150  -13.3410   20.6690 C   0  0  0  0  0  0  0  0  0  0  0  0
  -25.0150  -11.9710   20.6340 C   0  0  0  0  0  0  0  0  0  0  0  0
  -26.7010  -13.1370   20.0110 N   0  0  0  0  0  0  0  0  0  0  0  0
  -26.2940  -11.8730   20.2930 N   0  0  0  0  0  0  0  0  0  0  0  0
  -24.2380  -10.7450   20.8480 C   0  0  0  0  0  0  0  0  0  0  0  0
  -24.6240   -9.7880   21.8110 C   0  0  0  0  0  3  0  0  0  0  0  0
  -23.8510   -8.6240   22.0130 C   0  0  0  0  0  3  0  0  0  0  0  0
  -22.6790   -8.4110   21.2490 C   0  0  0  0  0  0  0  0  0  0  0  0
  -22.3140   -9.3550   20.2730 C   0  0  0  0  0  3  0  0  0  0  0  0
  -23.0870  -10.5100   20.0710 C   0  0  0  0  0  3  0  0  0  0  0  0
  -21.8800   -7.2980   21.3570 O   0  0  0  0  0  0  0  0  0  0  0  0
  -21.7480   -6.6190   22.5410 C   0  0  0  0  0  0  0  0  0  0  0  0
  -21.2840   -7.2510   23.7150 C   0  0  0  0  0  3  0  0  0  0  0  0
  -21.0970   -6.5000   24.8930 C   0  0  0  0  0  3  0  0  0  0  0  0
  -21.3630   -5.1180   24.8970 C   0  0  0  0  0  0  0  0  0  0  0  0
  -21.8190   -4.4850   23.7270 C   0  0  0  0  0  3  0  0  0  0  0  0
  -22.0070   -5.2330   22.5520 C   0  0  0  0  0  0  0  0  0  0  0  0
  -22.4260   -4.6140   21.4230 F   0  0  0  0  0  0  0  0  0  0  0  0
  -21.1770   -4.3940   26.0250 F   0  0  0  0  0  0  0  0  0  0  0  0
  -23.2480  -13.8820   20.9700 C   0  0  0  0  0  0  0  0  0  0  0  0
  -22.5140  -13.2340   21.8670 N   0  0  0  0  0  0  0  0  0  0  0  0
  -22.8410  -14.9170   20.4430 O   0  0  0  0  0  0  0  0  0  0  0  0
  -22.8540  -12.3980   22.3180 H   0  0  0  0  0  0  0  0  0  0  0  0
  -21.5950  -13.5800   22.1070 H   0  0  0  0  0  0  0  0  0  0  0  0
  -25.9190  -15.4260   20.0690 N   0  0  0  0  0  0  0  0  0  0  0  0
  -25.1740  -16.1030   20.1810 H   0  0  0  0  0  0  0  0  0  0  0  0
  -26.7490  -15.8170   19.6440 H   0  0  0  0  0  0  0  0  0  0  0  0
  -28.6190  -22.8400   20.8240 C   0  0  0  0  0  2  0  0  0  0  0  0
  -28.3450  -24.1260   19.9620 C   0  0  0  0  0  2  0  0  0  0  0  0
  -28.3510  -25.4540   20.7870 C   0  0  0  0  0  2  0  0  0  0  0  0
  -28.4000  -26.6950   20.0430 O   0  0  0  0  0  0  0  0  0  0  0  0
  -24.6450  -31.8990   23.2140 C   0  0  0  0  0  0  0  0  0  0  0  0
  -27.2530  -27.4630   20.0730 C   0  0  0  0  0  0  0  0  0  0  0  0
  -23.4240  -30.5080   21.5730 C   0  0  0  0  0  3  0  0  0  0  0  0
  -24.8650  -28.9870   20.1150 C   0  0  0  0  0  0  0  0  0  0  0  0
  -25.9480  -30.8710   21.3490 C   0  0  0  0  0  2  0  0  0  0  0  0
  -26.0310  -29.5030   20.6950 C   0  0  0  0  0  0  0  0  0  0  0  0
  -27.2320  -28.7510   20.6660 C   0  0  0  0  0  3  0  0  0  0  0  0
  -26.0700  -26.9660   19.4920 C   0  0  0  0  0  3  0  0  0  0  0  0
  -24.8810  -27.7190   19.5090 C   0  0  0  0  0  3  0  0  0  0  0  0
  -23.6200  -29.8440   20.1830 C   0  0  0  0  0  2  0  0  0  0  0  0
  -24.6920  -31.1060   22.1050 N   0  0  0  0  0  0  0  0  0  0  0  0
  -23.5690  -32.1640   23.7680 O   0  0  0  0  0  0  0  0  0  0  0  0
  -22.7840  -29.4780   22.5310 C   0  0  0  0  0  0  0  0  0  0  0  0
  -21.4590  -29.2930   22.4170 N   0  0  0  0  0  0  0  0  0  0  0  0
  -23.4780  -28.8490   23.3350 O   0  0  0  0  0  0  0  0  0  0  0  0
  -20.9620  -29.8540   21.7390 H   0  0  0  0  0  0  0  0  0  0  0  0
  -18.0940  -28.0740   22.9260 C   0  0  0  0  0  0  0  0  0  0  0  0
  -20.6520  -28.3450   23.1860 C   0  0  0  0  0  3  0  0  0  0  0  0
  -20.7590  -26.9180   22.5980 C   0  0  0  0  0  2  0  0  0  0  0  0
  -19.6540  -26.5960   21.5900 C   0  0  0  0  0  2  0  0  0  0  0  0
  -18.2760  -26.7280   22.2420 C   0  0  0  0  0  2  0  0  0  0  0  0
  -19.2110  -28.8390   23.3540 C   0  0  0  0  0  0  0  0  0  0  0  0
  -18.9900  -30.0980   23.9550 C   0  0  0  0  0  3  0  0  0  0  0  0
  -17.6850  -30.5910   24.1320 C   0  0  0  0  0  3  0  0  0  0  0  0
  -16.5810  -29.8230   23.7210 C   0  0  0  0  0  3  0  0  0  0  0  0
  -16.7870  -28.5670   23.1250 C   0  0  0  0  0  3  0  0  0  0  0  0
  -25.9370  -32.5270   23.8240 C   0  0  0  0  0  3  0  0  0  0  0  0
  -26.4740  -31.7430   25.0850 C   0  0  1  0  0  0  0  0  0  0  0  0
  -25.3960  -31.4890   26.1640 C   0  0  0  0  0  1  0  0  0  0  0  0
  -27.0570  -30.3730   24.6670 C   0  0  0  0  0  1  0  0  0  0  0  0
  -27.6290  -32.5350   25.7420 C   0  0  0  0  0  1  0  0  0  0  0  0
  -25.6290  -33.9210   24.1720 N   0  0  0  0  0  0  0  0  0  0  0  0
  -25.9480  -34.9820   23.4190 C   0  0  0  0  0  0  0  0  0  0  0  0
  -26.6060  -34.8890   22.3790 O   0  0  0  0  0  0  0  0  0  0  0  0
  -25.0490  -34.0670   24.9860 H   0  0  0  0  0  0  0  0  0  0  0  0
  -24.2060  -36.7680   23.1050 C   0  0  0  0  0  1  0  0  0  0  0  0
  -25.4610  -36.3630   23.8950 C   0  0  0  0  0  3  0  0  0  0  0  0
  -27.6020  -37.2510   24.7040 C   0  0  0  0  0  1  0  0  0  0  0  0
  -26.4870  -37.4230   23.7760 N   0  0  0  0  0  0  0  0  0  0  0  0
  -26.0790  -38.3380   23.9390 H   0  0  0  0  0  0  0  0  0  0  0  0
  1 51  1  0
  1  6  1  0
  2  1  1  0
  2  4  1  0
  3  2  1  0
  5  2  1  0
  6  8  2  0
  7  6  1  0
  7 11  1  0
  9  7  1  0
 11 10  1  0
 12 11  1  0
 13 21  1  0
 14 19  1  0
 15 16  1  0
 15 14  1  0
 17 16  1  0
 17 26  1  0
 17 18  1  0
 19 13  1  0
 19 18  1  0
 20 13  2  0
 21 12  1  0
 22 21  1  0
 23 24  2  0
 24 43  1  0
 25 24  1  0
 25 28  1  0
 26 23  1  0
 26 27  1  0
 27 25  2  0
 28 29  1  0
 29 30  2  0
 31 34  1  0
 31 30  1  0
 32 31  2  0
 33 32  1  0
 33 28  2  0
 34 35  1  0
 35 40  2  0
 35 36  1  0
 36 37  2  0
 37 38  1  0
 38 42  1  0
 39 38  2  0
 40 39  1  0
 41 40  1  0
 43 44  1  0
 44 47  1  0
 44 46  1  0
 45 43  2  0
 48 49  1  0
 48 23  1  0
 50 48  1  0
 52 53  1  0
 52 51  1  0
 54 56  1  0
 54 53  1  0
 55 66  2  0
 56 61  1  0
 57 65  1  0
 57 67  1  0
 58 64  1  0
 58 60  1  0
 59 65  1  0
 60 59  1  0
 61 60  2  0
 62 63  1  0
 62 56  2  0
 63 58  2  0
 64 57  1  0
 65 55  1  0
 67 69  2  0
 68 67  1  0
 70 68  1  0
 71 80  2  0
 71 76  1  0
 72 68  1  0
 72 76  1  0
 73 72  1  0
 74 75  1  0
 74 73  1  0
 75 71  1  0
 76 77  2  0
 77 78  1  0
 79 78  2  0
 80 79  1  0
 81 55  1  0
 81 86  1  0
 81 82  1  0
 82 85  1  1
 82 83  1  0
 84 82  1  0
 86 89  1  0
 87 91  1  0
 87 86  1  0
 88 87  2  0
 91 90  1  0
 93 91  1  0
 93 94  1  0
 93 92  1  0
M  ISO  4  13 100  21 100  53 101  54 101
M  END
>  <TORSDO>  (88) 
F 23

>  <SCORE>  (88) 
-12.198

>  <name>  (88) 
89

>  <ligand_id>  (88) 
89

>  <original_smiles>  (88) 
[H]c1c([H])c([H])c2c(c1[H])C([H])([H])C([H])([H])C([H])([H])C2([H])N([H])C(=O)C1([H])N(C(=O)C([H])(N([H])C(=O)C([H])(N([H])C([H])([H])[H])C([H])([H])[H])C(C([H])([H])[H])(C([H])([H])[H])C([H])([H])[H])C([H])([H])c2c([H])c(OC([H])([H])C([H])([H])C([H])([H])C([H])(C(=O)N([H])C([H])(C([H])([H])[H])C([H])([H])N([H])C(=O)N3C([H])([H])C([H])([H])C([H])([H])C([H])(n4nc(-c5c([H])c([H])c(Oc6c([H])c([H])c(F)c([H])c6F)c([H])c5[H])c(C(=O)N([H])[H])c4N([H])[H])C3([H])[H])[N+]([H])([H])[H])c([H])c([H])c2C1([H])[H]

>  <smiles>  (88) 
[H]c1c([H])c([H])c2c(c1[H])C([H])([H])C([H])([H])C([H])([H])C2([H])N([H])C(=O)C1([H])N(C(=O)C([H])(N([H])C(=O)C([H])(N([H])C([H])([H])[H])C([H])([H])[H])C(C([H])([H])[H])(C([H])([H])[H])C([H])([H])[H])C([H])([H])c2c([H])c(OC([H])([H])C([H])([H])C([H])([H])C([H])(C(=O)N([H])C([H])(C([H])([H])[H])C([H])([H])N([H])C(=O)N3C([H])([H])C([H])([H])C([H])([H])C([H])(n4nc(-c5c([H])c([H])c(Oc6c([H])c([H])c(F)c([H])c6F)c([H])c5[H])c(C(=O)N([H])[H])c4N([H])[H])C3([H])[H])[N+]([H])([H])[H])c([H])c([H])c2C1([H])[H]

$$$$
90:0:0
     RDKit          3D

 98105  0  0  1  0  0  0  0  0999 V2000
  -31.6210  -21.1040   19.4170 C   0  0  0  0  0  0  0  0  0  0  0  0
  -30.9500  -22.1230   19.9570 N   0  0  0  0  0  0  0  0  0  0  0  0
  -30.8830  -20.4370   18.5340 N   0  0  0  0  0  0  0  0  0  0  0  0
  -32.7750  -20.8000   19.7230 O   0  0  0  0  0  0  0  0  0  0  0  0
  -30.0110  -22.3050   19.6320 H   0  0  0  0  0  0  0  0  0  0  0  0
  -29.9870  -20.8220   18.2730 H   0  0  0  0  0  0  0  0  0  0  0  0
  -31.4320  -22.9580   21.0490 C   0  0  0  0  0  2  0  0  0  0  0  0
  -30.3280  -23.9110   21.5470 C   0  0  0  0  0  2  0  0  0  0  0  0
  -29.8400  -24.9310   20.4970 C   0  0  0  0  0  2  0  0  0  0  0  0
  -28.6730  -25.8050   20.9930 C   0  0  0  0  0  2  0  0  0  0  0  0
  -28.4200  -26.8050   20.0170 O   0  0  0  0  0  0  0  0  0  0  0  0
  -24.5550  -31.8760   23.2340 C   0  0  0  0  0  0  0  0  0  0  0  0
  -27.2280  -27.4740   20.1400 C   0  0  0  0  0  0  0  0  0  0  0  0
  -23.3530  -30.4700   21.5890 C   0  0  0  0  0  3  0  0  0  0  0  0
  -24.8120  -28.9300   20.1770 C   0  0  0  0  0  0  0  0  0  0  0  0
  -25.8720  -30.8430   21.3880 C   0  0  0  0  0  2  0  0  0  0  0  0
  -25.9640  -29.4700   20.7600 C   0  0  0  0  0  0  0  0  0  0  0  0
  -27.1770  -28.7470   20.7440 C   0  0  0  0  0  3  0  0  0  0  0  0
  -26.0600  -26.9290   19.5680 C   0  0  0  0  0  3  0  0  0  0  0  0
  -24.8500  -27.6510   19.5890 C   0  0  0  0  0  3  0  0  0  0  0  0
  -23.5640  -29.7830   20.2140 C   0  0  0  0  0  2  0  0  0  0  0  0
  -24.6120  -31.0780   22.1290 N   0  0  0  0  0  0  0  0  0  0  0  0
  -23.4740  -32.1450   23.7750 O   0  0  0  0  0  0  0  0  0  0  0  0
  -22.7030  -29.4500   22.5520 C   0  0  0  0  0  0  0  0  0  0  0  0
  -21.3790  -29.2660   22.4250 N   0  0  0  0  0  0  0  0  0  0  0  0
  -23.3890  -28.8210   23.3640 O   0  0  0  0  0  0  0  0  0  0  0  0
  -20.8870  -29.8240   21.7410 H   0  0  0  0  0  0  0  0  0  0  0  0
  -18.0050  -28.0810   22.9340 C   0  0  0  0  0  0  0  0  0  0  0  0
  -20.5640  -28.3270   23.1960 C   0  0  0  0  0  3  0  0  0  0  0  0
  -20.6600  -26.8990   22.6100 C   0  0  0  0  0  2  0  0  0  0  0  0
  -19.5500  -26.5870   21.5990 C   0  0  0  0  0  2  0  0  0  0  0  0
  -18.1730  -26.7350   22.2510 C   0  0  0  0  0  2  0  0  0  0  0  0
  -19.1290  -28.8360   23.3640 C   0  0  0  0  0  0  0  0  0  0  0  0
  -18.9180  -30.0970   23.9610 C   0  0  0  0  0  3  0  0  0  0  0  0
  -17.6170  -30.6040   24.1350 C   0  0  0  0  0  3  0  0  0  0  0  0
  -16.5070  -29.8460   23.7210 C   0  0  0  0  0  3  0  0  0  0  0  0
  -16.7030  -28.5860   23.1280 C   0  0  0  0  0  3  0  0  0  0  0  0
  -25.8400  -32.5090   23.8520 C   0  0  0  0  0  3  0  0  0  0  0  0
  -26.3610  -31.7390   25.1280 C   0  0  1  0  0  0  0  0  0  0  0  0
  -25.2700  -31.5010   26.1970 C   0  0  0  0  0  1  0  0  0  0  0  0
  -26.9440  -30.3630   24.7330 C   0  0  0  0  0  1  0  0  0  0  0  0
  -27.5110  -32.5350   25.7890 C   0  0  0  0  0  1  0  0  0  0  0  0
  -25.5330  -33.9080   24.1780 N   0  0  0  0  0  0  0  0  0  0  0  0
  -25.8730  -34.9580   23.4170 C   0  0  0  0  0  0  0  0  0  0  0  0
  -26.5510  -34.8510   22.3910 O   0  0  0  0  0  0  0  0  0  0  0  0
  -24.9330  -34.0660   24.9750 H   0  0  0  0  0  0  0  0  0  0  0  0
  -24.1560  -36.7540   23.0370 C   0  0  0  0  0  1  0  0  0  0  0  0
  -25.3830  -36.3480   23.8660 C   0  0  0  0  0  3  0  0  0  0  0  0
  -27.5100  -37.2220   24.7270 C   0  0  0  0  0  1  0  0  0  0  0  0
  -26.4210  -37.3970   23.7700 N   0  0  0  0  0  0  0  0  0  0  0  0
  -26.0150  -38.3180   23.9190 H   0  0  0  0  0  0  0  0  0  0  0  0
  -31.2960  -19.2990   17.7250 C   0  0  0  0  0  3  0  0  0  0  0  0
  -30.9640  -19.6510   16.2640 C   0  0  0  0  0  0  0  0  0  0  0  0
  -31.6390  -19.0470   15.2990 N   0  0  0  0  0  0  0  0  0  0  0  0
  -30.0700  -20.4520   15.9970 O   0  0  0  0  0  0  0  0  0  0  0  0
  -32.3600  -18.3720   15.5150 H   0  0  0  0  0  0  0  0  0  0  0  0
  -31.4220  -19.2480   14.3320 H   0  0  0  0  0  0  0  0  0  0  0  0
  -30.5120  -18.0450   18.1630 C   0  0  0  0  0  2  0  0  0  0  0  0
  -30.6660  -17.5810   19.6320 C   0  0  0  0  0  2  0  0  0  0  0  0
  -29.5540  -16.5550   19.9460 C   0  0  0  0  0  2  0  0  0  0  0  0
  -30.6450  -14.4300   20.4310 C   0  0  0  0  0  0  0  0  0  0  0  0
  -30.3210  -12.2900   19.2900 C   0  0  0  0  0  2  0  0  0  0  0  0
  -29.3910  -12.5700   18.0880 C   0  0  0  0  0  2  0  0  0  0  0  0
  -27.9100  -12.4560   18.5050 C   0  0  0  0  0  2  0  0  0  0  0  0
  -27.5850  -13.2560   19.7940 C   0  0  0  0  0  3  0  0  0  0  0  0
  -28.6350  -12.9830   20.9000 C   0  0  0  0  0  2  0  0  0  0  0  0
  -29.9760  -13.2520   20.3450 N   0  0  0  0  0  0  0  0  0  0  0  0
  -31.7580  -14.6250   19.9380 O   0  0  0  0  0  0  0  0  0  0  0  0
  -29.8870  -15.4530   20.8490 N   0  0  0  0  0  0  0  0  0  0  0  0
  -29.1100  -15.1570   21.4210 H   0  0  0  0  0  0  0  0  0  0  0  0
  -25.1840  -13.8820   20.4820 C   0  0  0  0  0  0  0  0  0  0  0  0
  -24.1090  -13.1170   20.8500 C   0  0  0  0  0  0  0  0  0  0  0  0
  -24.5630  -11.7620   20.8220 C   0  0  0  0  0  0  0  0  0  0  0  0
  -26.2250  -12.9930   20.2600 N   0  0  0  0  0  0  0  0  0  0  0  0
  -25.8540  -11.7140   20.5200 N   0  0  0  0  0  0  0  0  0  0  0  0
  -23.8300  -10.5050   21.0180 C   0  0  0  0  0  0  0  0  0  0  0  0
  -24.2590   -9.5390   21.9560 C   0  0  0  0  0  3  0  0  0  0  0  0
  -23.5310   -8.3440   22.1390 C   0  0  0  0  0  3  0  0  0  0  0  0
  -22.3590   -8.1050   21.3830 C   0  0  0  0  0  0  0  0  0  0  0  0
  -21.9490   -9.0590   20.4340 C   0  0  0  0  0  3  0  0  0  0  0  0
  -22.6780  -10.2460   20.2490 C   0  0  0  0  0  3  0  0  0  0  0  0
  -21.6040   -6.9610   21.4720 O   0  0  0  0  0  0  0  0  0  0  0  0
  -21.5550   -6.2230   22.6270 C   0  0  0  0  0  0  0  0  0  0  0  0
  -21.1310   -6.7800   23.8530 C   0  0  0  0  0  3  0  0  0  0  0  0
  -21.0280   -5.9650   25.0000 C   0  0  0  0  0  3  0  0  0  0  0  0
  -21.3390   -4.5950   24.9190 C   0  0  0  0  0  0  0  0  0  0  0  0
  -21.7580   -4.0360   23.6980 C   0  0  0  0  0  3  0  0  0  0  0  0
  -21.8610   -4.8470   22.5550 C   0  0  0  0  0  0  0  0  0  0  0  0
  -22.2450   -4.3000   21.3770 F   0  0  0  0  0  0  0  0  0  0  0  0
  -21.2350   -3.8130   26.0180 F   0  0  0  0  0  0  0  0  0  0  0  0
  -22.7140  -13.6030   21.1220 C   0  0  0  0  0  0  0  0  0  0  0  0
  -21.9860  -12.9050   21.9870 N   0  0  0  0  0  0  0  0  0  0  0  0
  -22.2770  -14.6280   20.6000 O   0  0  0  0  0  0  0  0  0  0  0  0
  -22.3580  -12.0750   22.4250 H   0  0  0  0  0  0  0  0  0  0  0  0
  -21.0480  -13.2020   22.2180 H   0  0  0  0  0  0  0  0  0  0  0  0
  -25.3600  -15.2500   20.3030 N   0  0  0  0  0  0  0  0  0  0  0  0
  -24.5980  -15.9120   20.3980 H   0  0  0  0  0  0  0  0  0  0  0  0
  -26.2200  -15.6770   19.9830 H   0  0  0  0  0  0  0  0  0  0  0  0
  1  4  2  0
  1  2  1  0
  2  7  1  0
  3  1  1  0
  5  2  1  0
  6  3  1  0
  7  8  1  0
  9 10  1  0
  9  8  1  0
 11 13  1  0
 11 10  1  0
 12 23  2  0
 13 18  1  0
 14 22  1  0
 14 24  1  0
 15 21  1  0
 15 17  1  0
 16 22  1  0
 17 16  1  0
 18 17  2  0
 19 20  1  0
 19 13  2  0
 20 15  2  0
 21 14  1  0
 22 12  1  0
 24 26  2  0
 25 24  1  0
 27 25  1  0
 28 37  2  0
 28 33  1  0
 29 25  1  0
 29 33  1  0
 30 29  1  0
 31 32  1  0
 31 30  1  0
 32 28  1  0
 33 34  2  0
 34 35  1  0
 36 35  2  0
 37 36  1  0
 38 12  1  0
 38 43  1  0
 38 39  1  0
 39 42  1  1
 39 40  1  0
 41 39  1  0
 43 46  1  0
 44 48  1  0
 44 43  1  0
 45 44  2  0
 48 47  1  0
 50 48  1  0
 50 51  1  0
 50 49  1  0
 52 58  1  0
 52  3  1  0
 53 52  1  0
 54 56  1  0
 54 53  1  0
 55 53  2  0
 57 54  1  0
 58 59  1  0
 59 60  1  0
 60 69  1  0
 61 69  1  0
 62 67  1  0
 63 64  1  0
 63 62  1  0
 65 64  1  0
 65 74  1  0
 65 66  1  0
 67 61  1  0
 67 66  1  0
 68 61  2  0
 69 70  1  0
 71 72  2  0
 72 91  1  0
 73 72  1  0
 73 76  1  0
 74 71  1  0
 74 75  1  0
 75 73  2  0
 76 77  1  0
 77 78  2  0
 79 82  1  0
 79 78  1  0
 80 79  2  0
 81 80  1  0
 81 76  2  0
 82 83  1  0
 83 84  1  0
 84 85  2  0
 86 85  1  0
 86 90  1  0
 87 86  2  0
 88 83  2  0
 88 87  1  0
 89 88  1  0
 91 92  1  0
 92 95  1  0
 92 94  1  0
 93 91  2  0
 96 97  1  0
 96 71  1  0
 98 96  1  0
M  ISO  4  10 101  11 101  61 100  69 100
M  END
>  <TORSDO>  (89) 
F 25

>  <SCORE>  (89) 
-12.153

>  <name>  (89) 
90

>  <ligand_id>  (89) 
90

>  <original_smiles>  (89) 
[H]c1c([H])c([H])c2c(c1[H])C([H])([H])C([H])([H])C([H])([H])C2([H])N([H])C(=O)C1([H])N(C(=O)C([H])(N([H])C(=O)C([H])(N([H])C([H])([H])[H])C([H])([H])[H])C(C([H])([H])[H])(C([H])([H])[H])C([H])([H])[H])C([H])([H])c2c([H])c(OC([H])([H])C([H])([H])C([H])([H])C([H])([H])N([H])C(=O)N([H])C([H])(C(=O)N([H])[H])C([H])([H])C([H])([H])C([H])([H])N([H])C(=O)N3C([H])([H])C([H])([H])C([H])([H])C([H])(n4nc(-c5c([H])c([H])c(Oc6c([H])c([H])c(F)c([H])c6F)c([H])c5[H])c(C(=O)N([H])[H])c4N([H])[H])C3([H])[H])c([H])c([H])c2C1([H])[H]

>  <smiles>  (89) 
[H]c1c([H])c([H])c2c(c1[H])C([H])([H])C([H])([H])C([H])([H])C2([H])N([H])C(=O)C1([H])N(C(=O)C([H])(N([H])C(=O)C([H])(N([H])C([H])([H])[H])C([H])([H])[H])C(C([H])([H])[H])(C([H])([H])[H])C([H])([H])[H])C([H])([H])c2c([H])c(OC([H])([H])C([H])([H])C([H])([H])C([H])([H])N([H])C(=O)N([H])C([H])(C(=O)N([H])[H])C([H])([H])C([H])([H])C([H])([H])N([H])C(=O)N3C([H])([H])C([H])([H])C([H])([H])C([H])(n4nc(-c5c([H])c([H])c(Oc6c([H])c([H])c(F)c([H])c6F)c([H])c5[H])c(C(=O)N([H])[H])c4N([H])[H])C3([H])[H])c([H])c([H])c2C1([H])[H]

$$$$
91:0:0
     RDKit          3D

 87 94  0  0  1  0  0  0  0  0999 V2000
  -29.1130  -22.7980   20.1480 O   0  0  0  0  0  0  0  0  0  0  0  0
  -29.2650  -24.1800   20.5710 C   0  0  0  0  0  2  0  0  0  0  0  0
  -28.1950  -25.1410   19.9510 C   0  0  0  0  0  2  0  0  0  0  0  0
  -28.3440  -26.5690   20.2300 O   0  0  0  0  0  0  0  0  0  0  0  0
  -24.6030  -31.8820   23.2540 C   0  0  0  0  0  0  0  0  0  0  0  0
  -27.2030  -27.3700   20.1730 C   0  0  0  0  0  0  0  0  0  0  0  0
  -23.3880  -30.4910   21.6140 C   0  0  0  0  0  3  0  0  0  0  0  0
  -24.8290  -28.9470   20.1790 C   0  0  0  0  0  0  0  0  0  0  0  0
  -25.9230  -30.8160   21.4190 C   0  0  0  0  0  2  0  0  0  0  0  0
  -25.9960  -29.4430   20.7740 C   0  0  0  0  0  0  0  0  0  0  0  0
  -27.1840  -28.6630   20.7670 C   0  0  0  0  0  3  0  0  0  0  0  0
  -26.0140  -26.9200   19.5460 C   0  0  0  0  0  3  0  0  0  0  0  0
  -24.8370  -27.6890   19.5590 C   0  0  0  0  0  3  0  0  0  0  0  0
  -23.5920  -29.8180   20.2320 C   0  0  0  0  0  2  0  0  0  0  0  0
  -24.6560  -31.0790   22.1530 N   0  0  0  0  0  0  0  0  0  0  0  0
  -23.5240  -32.1610   23.7950 O   0  0  0  0  0  0  0  0  0  0  0  0
  -22.7290  -29.4710   22.5730 C   0  0  0  0  0  0  0  0  0  0  0  0
  -21.4040  -29.2960   22.4460 N   0  0  0  0  0  0  0  0  0  0  0  0
  -23.4090  -28.8420   23.3890 O   0  0  0  0  0  0  0  0  0  0  0  0
  -20.9160  -29.8550   21.7610 H   0  0  0  0  0  0  0  0  0  0  0  0
  -18.0240  -28.1080   22.9390 C   0  0  0  0  0  0  0  0  0  0  0  0
  -20.5820  -28.3620   23.2170 C   0  0  0  0  0  3  0  0  0  0  0  0
  -20.6820  -26.9290   22.6440 C   0  0  0  0  0  2  0  0  0  0  0  0
  -19.5830  -26.6070   21.6270 C   0  0  0  0  0  2  0  0  0  0  0  0
  -18.2000  -26.7570   22.2670 C   0  0  0  0  0  2  0  0  0  0  0  0
  -19.1430  -28.8680   23.3700 C   0  0  0  0  0  0  0  0  0  0  0  0
  -18.9250  -30.1340   23.9590 C   0  0  0  0  0  3  0  0  0  0  0  0
  -17.6220  -30.6390   24.1180 C   0  0  0  0  0  3  0  0  0  0  0  0
  -16.5170  -29.8760   23.7040 C   0  0  0  0  0  3  0  0  0  0  0  0
  -16.7190  -28.6120   23.1200 C   0  0  0  0  0  3  0  0  0  0  0  0
  -25.8930  -32.5060   23.8720 C   0  0  0  0  0  3  0  0  0  0  0  0
  -26.4080  -31.7310   25.1470 C   0  0  1  0  0  0  0  0  0  0  0  0
  -25.3180  -31.5010   26.2190 C   0  0  0  0  0  1  0  0  0  0  0  0
  -26.9820  -30.3500   24.7520 C   0  0  0  0  0  1  0  0  0  0  0  0
  -27.5640  -32.5190   25.8080 C   0  0  0  0  0  1  0  0  0  0  0  0
  -25.5920  -33.9060   24.2030 N   0  0  0  0  0  0  0  0  0  0  0  0
  -25.9250  -34.9570   23.4410 C   0  0  0  0  0  0  0  0  0  0  0  0
  -26.5890  -34.8480   22.4060 O   0  0  0  0  0  0  0  0  0  0  0  0
  -25.0030  -34.0650   25.0080 H   0  0  0  0  0  0  0  0  0  0  0  0
  -24.2020  -36.7560   23.0930 C   0  0  0  0  0  1  0  0  0  0  0  0
  -25.4460  -36.3470   23.8980 C   0  0  0  0  0  3  0  0  0  0  0  0
  -27.5900  -37.2240   24.7140 C   0  0  0  0  0  1  0  0  0  0  0  0
  -26.4820  -37.3950   23.7780 N   0  0  0  0  0  0  0  0  0  0  0  0
  -26.0800  -38.3170   23.9270 H   0  0  0  0  0  0  0  0  0  0  0  0
  -29.8660  -21.8260   20.9130 C   0  0  0  0  0  2  0  0  0  0  0  0
  -29.9940  -20.3890   20.2800 C   0  0  0  0  0  2  0  0  0  0  0  0
  -29.6060  -19.3250   21.1790 O   0  0  0  0  0  0  0  0  0  0  0  0
  -30.3560  -18.0820   21.1900 C   0  0  0  0  0  2  0  0  0  0  0  0
  -29.9920  -17.0260   20.1000 C   0  0  0  0  0  2  0  0  0  0  0  0
  -30.6580  -14.5630   20.1340 C   0  0  0  0  0  0  0  0  0  0  0  0
  -30.3320  -12.3860   19.0110 C   0  0  0  0  0  2  0  0  0  0  0  0
  -29.3420  -12.5990   17.8440 C   0  0  0  0  0  2  0  0  0  0  0  0
  -27.8850  -12.4670   18.3310 C   0  0  0  0  0  2  0  0  0  0  0  0
  -27.6040  -13.2910   19.6150 C   0  0  0  0  0  3  0  0  0  0  0  0
  -28.7030  -13.0590   20.6790 C   0  0  0  0  0  2  0  0  0  0  0  0
  -30.0040  -13.3660   20.0610 N   0  0  0  0  0  0  0  0  0  0  0  0
  -31.7760  -14.7380   19.6440 O   0  0  0  0  0  0  0  0  0  0  0  0
  -29.9110  -15.6090   20.5580 N   0  0  0  0  0  0  0  0  0  0  0  0
  -29.0360  -15.3490   20.9880 H   0  0  0  0  0  0  0  0  0  0  0  0
  -25.2410  -13.9170   20.4180 C   0  0  0  0  0  0  0  0  0  0  0  0
  -24.1800  -13.1550   20.8240 C   0  0  0  0  0  0  0  0  0  0  0  0
  -24.6260  -11.7980   20.7700 C   0  0  0  0  0  0  0  0  0  0  0  0
  -26.2680  -13.0270   20.1440 N   0  0  0  0  0  0  0  0  0  0  0  0
  -25.9040  -11.7470   20.4140 N   0  0  0  0  0  0  0  0  0  0  0  0
  -23.8950  -10.5420   20.9820 C   0  0  0  0  0  0  0  0  0  0  0  0
  -24.3570   -9.5630   21.8880 C   0  0  0  0  0  3  0  0  0  0  0  0
  -23.6260   -8.3710   22.0880 C   0  0  0  0  0  3  0  0  0  0  0  0
  -22.4190   -8.1520   21.3830 C   0  0  0  0  0  0  0  0  0  0  0  0
  -21.9750   -9.1210   20.4660 C   0  0  0  0  0  3  0  0  0  0  0  0
  -22.7060  -10.3040   20.2640 C   0  0  0  0  0  3  0  0  0  0  0  0
  -21.6570   -7.0150   21.4950 O   0  0  0  0  0  0  0  0  0  0  0  0
  -21.6560   -6.2580   22.6390 C   0  0  0  0  0  0  0  0  0  0  0  0
  -21.3040   -6.8040   23.8930 C   0  0  0  0  0  3  0  0  0  0  0  0
  -21.2500   -5.9740   25.0310 C   0  0  0  0  0  3  0  0  0  0  0  0
  -21.5350   -4.6010   24.9170 C   0  0  0  0  0  0  0  0  0  0  0  0
  -21.8800   -4.0550   23.6680 C   0  0  0  0  0  3  0  0  0  0  0  0
  -21.9370   -4.8820   22.5310 C   0  0  0  0  0  0  0  0  0  0  0  0
  -22.2490   -4.3460   21.3260 F   0  0  0  0  0  0  0  0  0  0  0  0
  -21.4760   -3.8020   26.0080 F   0  0  0  0  0  0  0  0  0  0  0  0
  -22.7990  -13.6450   21.1510 C   0  0  0  0  0  0  0  0  0  0  0  0
  -22.0980  -12.9520   22.0420 N   0  0  0  0  0  0  0  0  0  0  0  0
  -22.3520  -14.6760   20.6520 O   0  0  0  0  0  0  0  0  0  0  0  0
  -22.4730  -12.1180   22.4680 H   0  0  0  0  0  0  0  0  0  0  0  0
  -21.1730  -13.2630   22.3040 H   0  0  0  0  0  0  0  0  0  0  0  0
  -25.4140  -15.2870   20.2390 N   0  0  0  0  0  0  0  0  0  0  0  0
  -24.6560  -15.9470   20.3780 H   0  0  0  0  0  0  0  0  0  0  0  0
  -26.2510  -15.7180   19.8670 H   0  0  0  0  0  0  0  0  0  0  0  0
  1  2  1  0
  1 45  1  0
  3  4  1  0
  3  2  1  0
  5 16  2  0
  6  4  1  0
  6 11  1  0
  7 15  1  0
  7 17  1  0
  8 14  1  0
  8 10  1  0
  9 15  1  0
 10  9  1  0
 11 10  2  0
 12 13  1  0
 12  6  2  0
 13  8  2  0
 14  7  1  0
 15  5  1  0
 17 19  2  0
 18 17  1  0
 20 18  1  0
 21 30  2  0
 21 26  1  0
 22 18  1  0
 22 26  1  0
 23 22  1  0
 24 25  1  0
 24 23  1  0
 25 21  1  0
 26 27  2  0
 27 28  1  0
 29 28  2  0
 30 29  1  0
 31  5  1  0
 31 36  1  0
 31 32  1  0
 32 35  1  1
 32 33  1  0
 34 32  1  0
 36 39  1  0
 37 41  1  0
 37 36  1  0
 38 37  2  0
 41 40  1  0
 43 41  1  0
 43 44  1  0
 43 42  1  0
 46 45  1  0
 46 47  1  0
 47 48  1  0
 49 58  1  0
 49 48  1  0
 50 58  1  0
 51 56  1  0
 52 53  1  0
 52 51  1  0
 54 53  1  0
 54 63  1  0
 54 55  1  0
 56 50  1  0
 56 55  1  0
 57 50  2  0
 58 59  1  0
 60 61  2  0
 61 80  1  0
 62 61  1  0
 62 65  1  0
 63 64  1  0
 63 60  1  0
 64 62  2  0
 65 66  1  0
 66 67  2  0
 68 71  1  0
 68 67  1  0
 69 68  2  0
 70 69  1  0
 70 65  2  0
 71 72  1  0
 72 73  1  0
 73 74  2  0
 75 74  1  0
 75 79  1  0
 76 75  2  0
 77 72  2  0
 77 76  1  0
 78 77  1  0
 80 81  1  0
 81 84  1  0
 81 83  1  0
 82 80  2  0
 85 86  1  0
 85 60  1  0
 87 85  1  0
M  ISO  4   3 101   4 101  50 100  58 100
M  END
>  <TORSDO>  (90) 
F 23

>  <SCORE>  (90) 
-12.462

>  <name>  (90) 
91

>  <ligand_id>  (90) 
91

>  <original_smiles>  (90) 
[H]c1c([H])c([H])c2c(c1[H])C([H])([H])C([H])([H])C([H])([H])C2([H])N([H])C(=O)C1([H])N(C(=O)C([H])(N([H])C(=O)C([H])(N([H])C([H])([H])[H])C([H])([H])[H])C(C([H])([H])[H])(C([H])([H])[H])C([H])([H])[H])C([H])([H])c2c([H])c(OC([H])([H])C([H])([H])OC([H])([H])C([H])([H])OC([H])([H])C([H])([H])N([H])C(=O)N3C([H])([H])C([H])([H])C([H])([H])C([H])(n4nc(-c5c([H])c([H])c(Oc6c([H])c([H])c(F)c([H])c6F)c([H])c5[H])c(C(=O)N([H])[H])c4N([H])[H])C3([H])[H])c([H])c([H])c2C1([H])[H]

>  <smiles>  (90) 
[H]c1c([H])c([H])c2c(c1[H])C([H])([H])C([H])([H])C([H])([H])C2([H])N([H])C(=O)C1([H])N(C(=O)C([H])(N([H])C(=O)C([H])(N([H])C([H])([H])[H])C([H])([H])[H])C(C([H])([H])[H])(C([H])([H])[H])C([H])([H])[H])C([H])([H])c2c([H])c(OC([H])([H])C([H])([H])OC([H])([H])C([H])([H])OC([H])([H])C([H])([H])N([H])C(=O)N3C([H])([H])C([H])([H])C([H])([H])C([H])(n4nc(-c5c([H])c([H])c(Oc6c([H])c([H])c(F)c([H])c6F)c([H])c5[H])c(C(=O)N([H])[H])c4N([H])[H])C3([H])[H])c([H])c([H])c2C1([H])[H]

$$$$
92:0:0
     RDKit          3D

 94101  0  0  1  0  0  0  0  0999 V2000
  -31.3090  -21.1720   20.6750 C   0  0  0  0  0  1  0  0  0  0  0  0
  -29.8340  -20.8260   20.9500 C   0  0  0  0  0  3  0  0  0  0  0  0
  -29.9810  -18.2730   20.8500 C   0  0  0  0  0  0  0  0  0  0  0  0
  -29.5220  -19.4760   20.4360 N   0  0  0  0  0  0  0  0  0  0  0  0
  -30.7360  -18.1460   21.8110 O   0  0  0  0  0  0  0  0  0  0  0  0
  -28.9070  -19.4220   19.6150 H   0  0  0  0  0  0  0  0  0  0  0  0
  -29.5020  -17.0120   20.0840 C   0  0  0  0  0  0  0  0  0  0  0  0
  -30.5860  -14.7100   20.5000 C   0  0  0  0  0  0  0  0  0  0  0  0
  -30.4390  -12.5170   19.3890 C   0  0  0  0  0  2  0  0  0  0  0  0
  -29.4910  -12.6990   18.1800 C   0  0  0  0  0  2  0  0  0  0  0  0
  -28.0170  -12.5170   18.5980 C   0  0  0  0  0  2  0  0  0  0  0  0
  -27.6470  -13.3280   19.8660 C   0  0  0  0  0  3  0  0  0  0  0  0
  -28.7040  -13.1150   20.9800 C   0  0  0  0  0  2  0  0  0  0  0  0
  -30.0210  -13.4730   20.4280 N   0  0  0  0  0  0  0  0  0  0  0  0
  -31.7300  -14.9470   20.0990 O   0  0  0  0  0  0  0  0  0  0  0  0
  -29.6830  -15.6870   20.7420 N   0  0  0  0  0  4  0  0  0  0  0  0
  -28.8480  -15.3500   21.1960 H   0  0  0  0  0  0  0  0  0  0  0  0
  -25.2260  -13.8740   20.5570 C   0  0  0  0  0  0  0  0  0  0  0  0
  -24.1780  -13.0730   20.9180 C   0  0  0  0  0  0  0  0  0  0  0  0
  -24.6750  -11.7340   20.8860 C   0  0  0  0  0  0  0  0  0  0  0  0
  -26.2970  -13.0210   20.3330 N   0  0  0  0  0  0  0  0  0  0  0  0
  -25.9690  -11.7300   20.5880 N   0  0  0  0  0  0  0  0  0  0  0  0
  -23.9810  -10.4530   21.0650 C   0  0  0  0  0  0  0  0  0  0  0  0
  -24.4160   -9.5030   22.0170 C   0  0  0  0  0  3  0  0  0  0  0  0
  -23.7220   -8.2860   22.1810 C   0  0  0  0  0  3  0  0  0  0  0  0
  -22.5800   -8.0090   21.3930 C   0  0  0  0  0  0  0  0  0  0  0  0
  -22.1660   -8.9450   20.4290 C   0  0  0  0  0  3  0  0  0  0  0  0
  -22.8610  -10.1540   20.2630 C   0  0  0  0  0  3  0  0  0  0  0  0
  -21.8580   -6.8420   21.4660 O   0  0  0  0  0  0  0  0  0  0  0  0
  -21.7760   -6.1180   22.6290 C   0  0  0  0  0  0  0  0  0  0  0  0
  -21.2530   -6.6730   23.8170 C   0  0  0  0  0  3  0  0  0  0  0  0
  -21.1230   -5.8730   24.9690 C   0  0  0  0  0  3  0  0  0  0  0  0
  -21.5070   -4.5190   24.9340 C   0  0  0  0  0  0  0  0  0  0  0  0
  -22.0260   -3.9640   23.7510 C   0  0  0  0  0  3  0  0  0  0  0  0
  -22.1560   -4.7610   22.6010 C   0  0  0  0  0  0  0  0  0  0  0  0
  -22.6360   -4.2160   21.4580 F   0  0  0  0  0  0  0  0  0  0  0  0
  -21.3760   -3.7480   26.0400 F   0  0  0  0  0  0  0  0  0  0  0  0
  -22.7650  -13.5110   21.1830 C   0  0  0  0  0  0  0  0  0  0  0  0
  -22.0440  -12.7890   22.0350 N   0  0  0  0  0  0  0  0  0  0  0  0
  -22.3060  -14.5310   20.6680 O   0  0  0  0  0  0  0  0  0  0  0  0
  -22.4250  -11.9670   22.4780 H   0  0  0  0  0  0  0  0  0  0  0  0
  -21.0970  -13.0680   22.2520 H   0  0  0  0  0  0  0  0  0  0  0  0
  -25.3500  -15.2500   20.3820 N   0  0  0  0  0  0  0  0  0  0  0  0
  -24.5510  -15.8680   20.4680 H   0  0  0  0  0  0  0  0  0  0  0  0
  -26.1630  -15.7130   19.9960 H   0  0  0  0  0  0  0  0  0  0  0  0
  -29.7490  -16.9780   18.5430 C   0  0  0  0  0  2  0  0  0  0  0  0
  -29.0700  -18.0620   17.6950 C   0  0  0  0  0  0  0  0  0  0  0  0
  -29.5630  -18.3190   16.5780 O   0  0  0  0  0  0  0  0  0  0  0  0
  -28.0510  -18.6370   18.1280 O   0  0  0  0  0  1  0  0  0  0  0  0
  -28.9110  -21.9270   20.3350 C   0  0  0  0  0  2  0  0  0  0  0  0
  -29.1100  -23.2050   20.9700 O   0  0  0  0  0  0  0  0  0  0  0  0
  -28.6290  -24.3440   20.2320 C   0  0  0  0  0  2  0  0  0  0  0  0
  -28.5880  -25.6360   21.1010 C   0  0  0  0  0  2  0  0  0  0  0  0
  -28.5830  -26.8670   20.3500 O   0  0  0  0  0  0  0  0  0  0  0  0
  -24.6730  -32.0110   23.3810 C   0  0  0  0  0  0  0  0  0  0  0  0
  -27.4060  -27.5860   20.3560 C   0  0  0  0  0  0  0  0  0  0  0  0
  -23.5040  -30.5970   21.7210 C   0  0  0  0  0  3  0  0  0  0  0  0
  -24.9950  -29.0680   20.3210 C   0  0  0  0  0  0  0  0  0  0  0  0
  -26.0280  -30.9810   21.5590 C   0  0  0  0  0  2  0  0  0  0  0  0
  -26.1390  -29.6090   20.9240 C   0  0  0  0  0  0  0  0  0  0  0  0
  -27.3490  -28.8760   20.9340 C   0  0  0  0  0  3  0  0  0  0  0  0
  -26.2480  -27.0560   19.7520 C   0  0  0  0  0  3  0  0  0  0  0  0
  -25.0450  -27.7920   19.7310 C   0  0  0  0  0  3  0  0  0  0  0  0
  -23.7420  -29.9140   20.3460 C   0  0  0  0  0  2  0  0  0  0  0  0
  -24.7520  -31.2130   22.2790 N   0  0  0  0  0  0  0  0  0  0  0  0
  -23.5810  -32.2740   23.9060 O   0  0  0  0  0  0  0  0  0  0  0  0
  -22.8460  -29.5740   22.6730 C   0  0  0  0  0  0  0  0  0  0  0  0
  -21.5280  -29.3730   22.5170 N   0  0  0  0  0  0  0  0  0  0  0  0
  -23.5200  -28.9610   23.5040 O   0  0  0  0  0  0  0  0  0  0  0  0
  -21.0440  -29.9190   21.8180 H   0  0  0  0  0  0  0  0  0  0  0  0
  -18.1590  -28.1420   22.9510 C   0  0  0  0  0  0  0  0  0  0  0  0
  -20.7080  -28.4270   23.2740 C   0  0  0  0  0  3  0  0  0  0  0  0
  -20.8370  -26.9970   22.7020 C   0  0  0  0  0  2  0  0  0  0  0  0
  -19.7590  -26.6620   21.6660 C   0  0  0  0  0  2  0  0  0  0  0  0
  -18.3640  -26.7940   22.2810 C   0  0  0  0  0  2  0  0  0  0  0  0
  -19.2610  -28.9160   23.4030 C   0  0  0  0  0  0  0  0  0  0  0  0
  -19.0160  -30.1780   23.9870 C   0  0  0  0  0  3  0  0  0  0  0  0
  -17.7030  -30.6650   24.1250 C   0  0  0  0  0  3  0  0  0  0  0  0
  -16.6150  -29.8880   23.6900 C   0  0  0  0  0  3  0  0  0  0  0  0
  -16.8440  -28.6290   23.1080 C   0  0  0  0  0  3  0  0  0  0  0  0
  -25.9450  -32.6530   24.0200 C   0  0  0  0  0  3  0  0  0  0  0  0
  -25.6250  -34.0520   24.3340 N   0  0  0  0  0  0  0  0  0  0  0  0
  -25.9710  -35.1000   23.5730 C   0  0  0  0  0  0  0  0  0  0  0  0
  -26.6610  -34.9920   22.5560 O   0  0  0  0  0  0  0  0  0  0  0  0
  -25.0160  -34.2110   25.1220 H   0  0  0  0  0  0  0  0  0  0  0  0
  -24.2440  -36.8840   23.1680 C   0  0  0  0  0  1  0  0  0  0  0  0
  -25.4680  -36.4890   24.0090 C   0  0  0  0  0  3  0  0  0  0  0  0
  -27.5800  -37.3900   24.8820 C   0  0  0  0  0  1  0  0  0  0  0  0
  -26.5000  -37.5460   23.9110 N   0  0  0  0  0  0  0  0  0  0  0  0
  -26.0870  -38.4650   24.0410 H   0  0  0  0  0  0  0  0  0  0  0  0
  -26.4450  -31.8930   25.3100 C   0  0  1  0  0  0  0  0  0  0  0  0
  -25.3310  -31.6390   26.3530 C   0  0  0  0  0  1  0  0  0  0  0  0
  -27.0600  -30.5250   24.9330 C   0  0  0  0  0  1  0  0  0  0  0  0
  -27.5640  -32.7090   25.9990 C   0  0  0  0  0  1  0  0  0  0  0  0
  2  1  1  0
  3  5  2  0
  4  3  1  0
  4  2  1  0
  6  4  1  0
  7 16  2  3
  7  3  1  0
  8 16  1  0
  9 14  1  0
 10 11  1  0
 10  9  1  0
 12 11  1  0
 12 21  1  0
 12 13  1  0
 14  8  1  0
 14 13  1  0
 15  8  2  0
 16 17  1  0
 18 19  2  0
 19 38  1  0
 20 19  1  0
 20 23  1  0
 21 18  1  0
 21 22  1  0
 22 20  2  0
 23 24  1  0
 24 25  2  0
 26 29  1  0
 26 25  1  0
 27 26  2  0
 28 27  1  0
 28 23  2  0
 29 30  1  0
 30 31  1  0
 31 32  2  0
 33 32  1  0
 33 37  1  0
 34 33  2  0
 35 30  2  0
 35 34  1  0
 36 35  1  0
 38 39  1  0
 39 42  1  0
 39 41  1  0
 40 38  2  0
 43 44  1  0
 43 18  1  0
 45 43  1  0
 46  7  1  0
 47 49  1  0
 47 46  1  0
 48 47  2  0
 50  2  1  0
 50 51  1  0
 52 51  1  0
 52 53  1  0
 54 56  1  0
 54 53  1  0
 55 66  2  0
 56 61  1  0
 57 65  1  0
 57 67  1  0
 58 64  1  0
 58 60  1  0
 59 65  1  0
 60 61  2  0
 60 59  1  0
 62 56  2  0
 63 62  1  0
 63 58  2  0
 64 57  1  0
 65 55  1  0
 67 69  2  0
 68 67  1  0
 70 68  1  0
 71 80  2  0
 71 76  1  0
 72 68  1  0
 72 76  1  0
 73 72  1  0
 74 75  1  0
 74 73  1  0
 75 71  1  0
 76 77  2  0
 77 78  1  0
 79 78  2  0
 80 79  1  0
 81 55  1  0
 81 82  1  0
 81 91  1  0
 82 85  1  0
 83 87  1  0
 83 82  1  0
 84 83  2  0
 87 86  1  0
 89 87  1  0
 89 90  1  0
 89 88  1  0
 91 94  1  1
 91 92  1  0
 93 91  1  0
M  ISO  4   8 100  16 100  53 101  54 101
M  END
>  <TORSDO>  (91) 
F 24

>  <SCORE>  (91) 
-12.431

>  <name>  (91) 
92

>  <ligand_id>  (91) 
92

>  <original_smiles>  (91) 
[H]c1c([H])c([H])c2c(c1[H])C([H])([H])C([H])([H])C([H])([H])C2([H])N([H])C(=O)C1([H])N(C(=O)C([H])(N([H])C(=O)C([H])(N([H])C([H])([H])[H])C([H])([H])[H])C(C([H])([H])[H])(C([H])([H])[H])C([H])([H])[H])C([H])([H])c2c([H])c(OC([H])([H])C([H])([H])OC([H])([H])C([H])(N([H])C(=O)C([H])(N([H])C(=O)N3C([H])([H])C([H])([H])C([H])([H])C([H])(n4nc(-c5c([H])c([H])c(Oc6c([H])c([H])c(F)c([H])c6F)c([H])c5[H])c(C(=O)N([H])[H])c4N([H])[H])C3([H])[H])C([H])([H])C(=O)[O-])C([H])([H])[H])c([H])c([H])c2C1([H])[H]

>  <smiles>  (91) 
[H]c1c([H])c([H])c2c(c1[H])C([H])([H])C([H])([H])C([H])([H])C2([H])N([H])C(=O)C1([H])N(C(=O)C([H])(N([H])C(=O)C([H])(N([H])C([H])([H])[H])C([H])([H])[H])C(C([H])([H])[H])(C([H])([H])[H])C([H])([H])[H])C([H])([H])c2c([H])c(OC([H])([H])C([H])([H])OC([H])([H])C([H])(N([H])C(=O)C([H])(N([H])C(=O)N3C([H])([H])C([H])([H])C([H])([H])C([H])(n4nc(-c5c([H])c([H])c(Oc6c([H])c([H])c(F)c([H])c6F)c([H])c5[H])c(C(=O)N([H])[H])c4N([H])[H])C3([H])[H])C([H])([H])C(=O)[O-])C([H])([H])[H])c([H])c([H])c2C1([H])[H]

$$$$
93:0:0
     RDKit          3D

 89 96  0  0  1  0  0  0  0  0999 V2000
  -27.7450  -20.1680   21.0560 C   0  0  0  0  0  1  0  0  0  0  0  0
  -28.7910  -20.4400   19.9680 C   0  0  0  0  0  3  0  0  0  0  0  0
  -29.0200  -22.3550   20.0210 C   0  0  0  0  0  3  0  0  0  0  0  0
  -28.0170  -23.9980   19.9330 C   0  0  0  0  0  3  0  0  0  0  0  0
  -28.2010  -25.7300   20.0820 O   0  0  0  0  0  0  0  0  0  0  0  0
  -24.6940  -31.8940   23.1780 C   0  0  0  0  0  0  0  0  0  0  0  0
  -27.2110  -26.9170   20.0630 C   0  0  0  0  0  0  0  0  0  0  0  0
  -23.4920  -30.5230   21.5260 C   0  0  0  0  0  3  0  0  0  0  0  0
  -24.9300  -28.9130   20.0690 C   0  0  0  0  0  0  0  0  0  0  0  0
  -26.0660  -30.6900   21.3770 C   0  0  0  0  0  2  0  0  0  0  0  0
  -26.1300  -29.2730   20.6930 C   0  0  0  0  0  0  0  0  0  0  0  0
  -27.2570  -28.3020   20.6600 C   0  0  0  0  0  3  0  0  0  0  0  0
  -25.9750  -26.7560   19.3910 C   0  0  0  0  0  3  0  0  0  0  0  0
  -24.8880  -27.6800   19.3950 C   0  0  0  0  0  3  0  0  0  0  0  0
  -23.7180  -29.8540   20.1400 C   0  0  0  0  0  2  0  0  0  0  0  0
  -24.7740  -31.0670   22.0800 N   0  0  0  0  0  0  0  0  0  0  0  0
  -23.6050  -32.1790   23.7080 O   0  0  0  0  0  0  0  0  0  0  0  0
  -22.7930  -29.5230   22.4860 C   0  0  0  0  0  0  0  0  0  0  0  0
  -21.4650  -29.3480   22.3590 N   0  0  0  0  0  0  0  0  0  0  0  0
  -23.4590  -28.9010   23.3170 O   0  0  0  0  0  0  0  0  0  0  0  0
  -20.9750  -29.9000   21.6680 H   0  0  0  0  0  0  0  0  0  0  0  0
  -18.0950  -28.0860   22.8610 C   0  0  0  0  0  0  0  0  0  0  0  0
  -20.6520  -28.3920   23.1210 C   0  0  0  0  0  3  0  0  0  0  0  0
  -20.7730  -26.9660   22.5340 C   0  0  0  0  0  2  0  0  0  0  0  0
  -19.6750  -26.6380   21.5160 C   0  0  0  0  0  2  0  0  0  0  0  0
  -18.2920  -26.7510   22.1640 C   0  0  0  0  0  2  0  0  0  0  0  0
  -19.2020  -28.8650   23.2960 C   0  0  0  0  0  0  0  0  0  0  0  0
  -18.9590  -30.1110   23.9110 C   0  0  0  0  0  3  0  0  0  0  0  0
  -17.6440  -30.5820   24.0940 C   0  0  0  0  0  3  0  0  0  0  0  0
  -16.5540  -29.8030   23.6700 C   0  0  0  0  0  3  0  0  0  0  0  0
  -16.7800  -28.5560   23.0600 C   0  0  0  0  0  3  0  0  0  0  0  0
  -25.9620  -32.5350   23.8160 C   0  0  0  0  0  3  0  0  0  0  0  0
  -26.4690  -31.7610   25.0970 C   0  0  1  0  0  0  0  0  0  0  0  0
  -25.3680  -31.5230   26.1580 C   0  0  0  0  0  1  0  0  0  0  0  0
  -27.0550  -30.3830   24.7170 C   0  0  0  0  0  1  0  0  0  0  0  0
  -27.6150  -32.5530   25.7690 C   0  0  0  0  0  1  0  0  0  0  0  0
  -25.6420  -33.9310   24.1710 N   0  0  0  0  0  0  0  0  0  0  0  0
  -25.9420  -35.0050   23.4270 C   0  0  0  0  0  0  0  0  0  0  0  0
  -26.5740  -34.9240   22.3710 O   0  0  0  0  0  0  0  0  0  0  0  0
  -25.0740  -34.0660   24.9950 H   0  0  0  0  0  0  0  0  0  0  0  0
  -24.1870  -36.7980   23.1880 C   0  0  0  0  0  1  0  0  0  0  0  0
  -25.4700  -36.3860   23.9300 C   0  0  0  0  0  3  0  0  0  0  0  0
  -27.6280  -37.2920   24.6790 C   0  0  0  0  0  1  0  0  0  0  0  0
  -26.4880  -37.4490   23.7800 N   0  0  0  0  0  0  0  0  0  0  0  0
  -26.0780  -38.3650   23.9460 H   0  0  0  0  0  0  0  0  0  0  0  0
  -29.8840  -18.8540   19.9650 C   0  0  0  0  0  0  0  0  0  0  0  0
  -30.4020  -15.7650   19.9690 C   0  0  0  0  0  0  0  0  0  0  0  0
  -30.4780  -13.2250   19.1870 C   0  0  0  0  0  2  0  0  0  0  0  0
  -29.5440  -12.8200   18.0120 C   0  0  0  0  0  2  0  0  0  0  0  0
  -28.1380  -12.4730   18.5230 C   0  0  0  0  0  2  0  0  0  0  0  0
  -27.6620  -13.4820   19.5930 C   0  0  0  0  0  3  0  0  0  0  0  0
  -28.7310  -13.8020   20.6630 C   0  0  0  0  0  2  0  0  0  0  0  0
  -29.8800  -14.4060   19.9520 N   0  0  0  0  0  0  0  0  0  0  0  0
  -31.6260  -15.7140   19.7480 O   0  0  0  0  0  0  0  0  0  0  0  0
  -29.6430  -17.1110   20.0690 N   0  0  0  0  0  4  0  0  0  0  0  0
  -28.6640  -16.9160   20.2110 H   0  0  0  0  0  0  0  0  0  0  0  0
  -25.3390  -13.9980   20.4830 C   0  0  0  0  0  0  0  0  0  0  0  0
  -24.2970  -13.2090   20.8770 C   0  0  0  0  0  0  0  0  0  0  0  0
  -24.7650  -11.8610   20.7920 C   0  0  0  0  0  0  0  0  0  0  0  0
  -26.3690  -13.1340   20.1660 N   0  0  0  0  0  0  0  0  0  0  0  0
  -26.0420  -11.8390   20.4210 N   0  0  0  0  0  0  0  0  0  0  0  0
  -24.0460  -10.5930   20.9810 C   0  0  0  0  0  0  0  0  0  0  0  0
  -24.4790   -9.6300   21.9190 C   0  0  0  0  0  3  0  0  0  0  0  0
  -23.7570   -8.4310   22.0990 C   0  0  0  0  0  3  0  0  0  0  0  0
  -22.5860   -8.1870   21.3430 C   0  0  0  0  0  0  0  0  0  0  0  0
  -22.1720   -9.1390   20.3940 C   0  0  0  0  0  3  0  0  0  0  0  0
  -22.8960  -10.3290   20.2120 C   0  0  0  0  0  3  0  0  0  0  0  0
  -21.8340   -7.0410   21.4330 O   0  0  0  0  0  0  0  0  0  0  0  0
  -21.7310   -6.3370   22.6070 C   0  0  0  0  0  0  0  0  0  0  0  0
  -21.1840   -6.9120   23.7740 C   0  0  0  0  0  3  0  0  0  0  0  0
  -21.0340   -6.1330   24.9380 C   0  0  0  0  0  3  0  0  0  0  0  0
  -21.4180   -4.7780   24.9350 C   0  0  0  0  0  0  0  0  0  0  0  0
  -21.9570   -4.2030   23.7710 C   0  0  0  0  0  3  0  0  0  0  0  0
  -22.1100   -4.9790   22.6100 C   0  0  0  0  0  0  0  0  0  0  0  0
  -22.6100   -4.4140   21.4840 F   0  0  0  0  0  0  0  0  0  0  0  0
  -21.2660   -4.0270   26.0500 F   0  0  0  0  0  0  0  0  0  0  0  0
  -22.9120  -13.6780   21.2130 C   0  0  0  0  0  0  0  0  0  0  0  0
  -22.2240  -12.9700   22.1010 N   0  0  0  0  0  0  0  0  0  0  0  0
  -22.4520  -14.7090   20.7240 O   0  0  0  0  0  0  0  0  0  0  0  0
  -22.6110  -12.1360   22.5170 H   0  0  0  0  0  0  0  0  0  0  0  0
  -21.2960  -13.2670   22.3690 H   0  0  0  0  0  0  0  0  0  0  0  0
  -25.4900  -15.3740   20.3320 N   0  0  0  0  0  0  0  0  0  0  0  0
  -24.7280  -16.0210   20.5000 H   0  0  0  0  0  0  0  0  0  0  0  0
  -26.3140  -15.8230   19.9550 H   0  0  0  0  0  0  0  0  0  0  0  0
  -30.9410  -19.0200   18.8700 C   0  0  0  0  0  0  0  0  0  0  0  0
  -31.9680  -19.8250   19.1040 N   0  0  0  0  0  0  0  0  0  0  0  0
  -30.8230  -18.4360   17.7940 O   0  0  0  0  0  0  0  0  0  0  0  0
  -32.0480  -20.3160   19.9830 H   0  0  0  0  0  0  0  0  0  0  0  0
  -32.6800  -19.9590   18.3990 H   0  0  0  0  0  0  0  0  0  0  0  0
  2  3  1  0
  2  1  1  0
  4  3  2  0
  4  5  1  0
  6 17  2  0
  7  5  1  0
  7 12  1  0
  8 16  1  0
  8 18  1  0
  9 15  1  0
  9 11  1  0
 10 16  1  0
 11 10  1  0
 12 11  2  0
 13 14  1  0
 13  7  2  0
 14  9  2  0
 15  8  1  0
 16  6  1  0
 18 20  2  0
 19 18  1  0
 21 19  1  0
 22 31  2  0
 22 27  1  0
 23 19  1  0
 23 27  1  0
 24 23  1  0
 25 26  1  0
 25 24  1  0
 26 22  1  0
 27 28  2  0
 28 29  1  0
 30 29  2  0
 31 30  1  0
 32  6  1  0
 32 37  1  0
 32 33  1  0
 33 36  1  1
 33 34  1  0
 35 33  1  0
 37 40  1  0
 38 42  1  0
 38 37  1  0
 39 38  2  0
 42 41  1  0
 44 42  1  0
 44 45  1  0
 44 43  1  0
 46  2  1  0
 46 55  2  0
 47 55  1  0
 48 53  1  0
 49 50  1  0
 49 48  1  0
 51 50  1  0
 51 60  1  0
 51 52  1  0
 53 47  1  0
 53 52  1  0
 54 47  2  0
 55 56  1  0
 57 58  2  0
 58 77  1  0
 59 58  1  0
 59 62  1  0
 60 61  1  0
 60 57  1  0
 61 59  2  0
 62 63  1  0
 63 64  2  0
 65 68  1  0
 65 64  1  0
 66 65  2  0
 67 66  1  0
 67 62  2  0
 68 69  1  0
 69 74  2  0
 69 70  1  0
 70 71  2  0
 72 71  1  0
 72 76  1  0
 73 72  2  0
 74 73  1  0
 75 74  1  0
 77 78  1  0
 78 81  1  0
 78 80  1  0
 79 77  2  0
 82 57  1  0
 82 83  1  0
 84 82  1  0
 85 86  1  0
 85 46  1  0
 86 88  1  0
 87 85  2  0
 89 86  1  0
M  ISO  4   4 101   5 101  47 100  55 100
M  END
>  <TORSDO>  (92) 
F 20

>  <SCORE>  (92) 
-15.350

>  <name>  (92) 
93

>  <ligand_id>  (92) 
93

>  <original_smiles>  (92) 
[H]c1c([H])c([H])c2c(c1[H])C([H])([H])C([H])([H])C([H])([H])C2([H])N([H])C(=O)C1([H])N(C(=O)C([H])(N([H])C(=O)C([H])(N([H])C([H])([H])[H])C([H])([H])[H])C(C([H])([H])[H])(C([H])([H])[H])C([H])([H])[H])C([H])([H])c2c([H])c(OC([H])([H])C([H])([H])C([H])(C([H])([H])[H])C([H])(C(=O)N([H])[H])N([H])C(=O)N3C([H])([H])C([H])([H])C([H])([H])C([H])(n4nc(-c5c([H])c([H])c(Oc6c([H])c([H])c(F)c([H])c6F)c([H])c5[H])c(C(=O)N([H])[H])c4N([H])[H])C3([H])[H])c([H])c([H])c2C1([H])[H]

>  <smiles>  (92) 
[H]c1c([H])c([H])c2c(c1[H])C([H])([H])C([H])([H])C([H])([H])C2([H])N([H])C(=O)C1([H])N(C(=O)C([H])(N([H])C(=O)C([H])(N([H])C([H])([H])[H])C([H])([H])[H])C(C([H])([H])[H])(C([H])([H])[H])C([H])([H])[H])C([H])([H])c2c([H])c(OC([H])([H])C([H])([H])C([H])(C([H])([H])[H])C([H])(C(=O)N([H])[H])N([H])C(=O)N3C([H])([H])C([H])([H])C([H])([H])C([H])(n4nc(-c5c([H])c([H])c(Oc6c([H])c([H])c(F)c([H])c6F)c([H])c5[H])c(C(=O)N([H])[H])c4N([H])[H])C3([H])[H])c([H])c([H])c2C1([H])[H]

$$$$
94:0:0
     RDKit          3D

102109  0  0  1  0  0  0  0  0999 V2000
  -30.7840  -22.0320   22.4780 C   0  0  0  0  0  0  0  0  0  0  0  0
  -30.5380  -20.8240   23.0060 N   0  0  0  0  0  0  0  0  0  0  0  0
  -31.6510  -22.2230   21.6210 O   0  0  0  0  0  0  0  0  0  0  0  0
  -29.7810  -20.7620   23.6720 H   0  0  0  0  0  0  0  0  0  0  0  0
  -31.2240  -18.7860   24.1330 C   0  0  0  0  0  1  0  0  0  0  0  0
  -31.3360  -19.6060   22.8350 C   0  0  0  0  0  3  0  0  0  0  0  0
  -30.9000  -18.7200   21.6500 C   0  0  0  0  0  0  0  0  0  0  0  0
  -31.6390  -17.6210   21.4370 N   0  0  0  0  0  0  0  0  0  0  0  0
  -29.9150  -19.0110   20.9660 O   0  0  0  0  0  0  0  0  0  0  0  0
  -32.4440  -17.5030   22.0350 H   0  0  0  0  0  0  0  0  0  0  0  0
  -31.5380  -16.7010   20.2970 C   0  0  0  0  0  3  0  0  0  0  0  0
  -32.3900  -17.3110   19.1630 C   0  0  0  0  0  0  0  0  0  0  0  0
  -31.8050  -17.5110   17.9890 N   0  0  0  0  0  0  0  0  0  0  0  0
  -33.5660  -17.6260   19.3530 O   0  0  0  0  0  0  0  0  0  0  0  0
  -30.8270  -17.2910   17.8630 H   0  0  0  0  0  0  0  0  0  0  0  0
  -32.3210  -17.9250   17.2260 H   0  0  0  0  0  0  0  0  0  0  0  0
  -32.0400  -15.2920   20.7510 C   0  0  0  0  0  2  0  0  0  0  0  0
  -32.0780  -14.1820   19.6690 C   0  0  0  0  0  0  0  0  0  0  0  0
  -31.2730  -12.1180   18.5780 C   0  0  0  0  0  2  0  0  0  0  0  0
  -30.2830  -12.4150   17.4380 C   0  0  0  0  0  2  0  0  0  0  0  0
  -28.8500  -12.4920   17.9900 C   0  0  0  0  0  2  0  0  0  0  0  0
  -28.7400  -13.4300   19.2220 C   0  0  0  0  0  3  0  0  0  0  0  0
  -29.8450  -13.1270   20.2610 C   0  0  0  0  0  2  0  0  0  0  0  0
  -31.1520  -13.1850   19.5880 N   0  0  0  0  0  0  0  0  0  0  0  0
  -33.0500  -14.1990   18.9110 O   0  0  0  0  0  0  0  0  0  0  0  0
  -26.5560  -14.4010   20.1780 C   0  0  0  0  0  0  0  0  0  0  0  0
  -25.4030  -13.8050   20.6120 C   0  0  0  0  0  0  0  0  0  0  0  0
  -25.6110  -12.3980   20.4820 C   0  0  0  0  0  0  0  0  0  0  0  0
  -27.4060  -13.3670   19.8150 N   0  0  0  0  0  0  0  0  0  0  0  0
  -26.8430  -12.1530   20.0530 N   0  0  0  0  0  0  0  0  0  0  0  0
  -24.6880  -11.2730   20.6910 C   0  0  0  0  0  0  0  0  0  0  0  0
  -25.0140  -10.1950   21.5430 C   0  0  0  0  0  3  0  0  0  0  0  0
  -24.1030   -9.1370   21.7370 C   0  0  0  0  0  3  0  0  0  0  0  0
  -22.8490   -9.1480   21.0810 C   0  0  0  0  0  0  0  0  0  0  0  0
  -22.5410  -10.2110   20.2120 C   0  0  0  0  0  3  0  0  0  0  0  0
  -23.4510  -11.2630   20.0160 C   0  0  0  0  0  3  0  0  0  0  0  0
  -21.9110   -8.1490   21.1910 O   0  0  0  0  0  0  0  0  0  0  0  0
  -21.7900   -7.4010   22.3340 C   0  0  0  0  0  0  0  0  0  0  0  0
  -21.4920   -7.9920   23.5820 C   0  0  0  0  0  3  0  0  0  0  0  0
  -21.3050   -7.1810   24.7190 C   0  0  0  0  0  3  0  0  0  0  0  0
  -21.4080   -5.7810   24.6090 C   0  0  0  0  0  0  0  0  0  0  0  0
  -21.6990   -5.1900   23.3660 C   0  0  0  0  0  3  0  0  0  0  0  0
  -21.8870   -5.9990   22.2320 C   0  0  0  0  0  0  0  0  0  0  0  0
  -22.1480   -5.4240   21.0330 F   0  0  0  0  0  0  0  0  0  0  0  0
  -21.2200   -5.0000   25.6990 F   0  0  0  0  0  0  0  0  0  0  0  0
  -24.1420  -14.5010   21.0350 C   0  0  0  0  0  0  0  0  0  0  0  0
  -23.3970  -13.9080   21.9620 N   0  0  0  0  0  0  0  0  0  0  0  0
  -23.8360  -15.6020   20.5790 O   0  0  0  0  0  0  0  0  0  0  0  0
  -23.6580  -13.0110   22.3440 H   0  0  0  0  0  0  0  0  0  0  0  0
  -22.5540  -14.3550   22.2940 H   0  0  0  0  0  0  0  0  0  0  0  0
  -26.9470  -15.7300   20.0440 N   0  0  0  0  0  0  0  0  0  0  0  0
  -26.3090  -16.4980   20.2230 H   0  0  0  0  0  0  0  0  0  0  0  0
  -27.8370  -16.0360   19.6740 H   0  0  0  0  0  0  0  0  0  0  0  0
  -29.9920  -23.2170   23.0660 C   0  0  0  0  0  3  0  0  0  0  0  0
  -30.8820  -24.3510   23.3730 N   0  0  0  0  0  4  0  0  0  0  0  0
  -31.3480  -24.6510   22.5360 H   0  0  0  0  0  0  0  0  0  0  0  0
  -31.5920  -24.0400   24.0120 H   0  0  0  0  0  0  0  0  0  0  0  0
  -30.3820  -25.1130   23.7910 H   0  0  0  0  0  0  0  0  0  0  0  0
  -28.7200  -23.6210   22.2650 C   0  0  0  0  0  2  0  0  0  0  0  0
  -28.8750  -24.5620   21.0420 C   0  0  0  0  0  2  0  0  0  0  0  0
  -27.5480  -25.2830   20.7360 C   0  0  0  0  0  2  0  0  0  0  0  0
  -27.6930  -26.3450   19.7890 O   0  0  0  0  0  0  0  0  0  0  0  0
  -24.4510  -31.6930   23.1390 C   0  0  0  0  0  0  0  0  0  0  0  0
  -26.6050  -27.1830   19.8150 C   0  0  0  0  0  0  0  0  0  0  0  0
  -23.0600  -30.4250   21.5310 C   0  0  0  0  0  3  0  0  0  0  0  0
  -24.3230  -28.8310   19.9900 C   0  0  0  0  0  0  0  0  0  0  0  0
  -25.5880  -30.6190   21.2010 C   0  0  0  0  0  2  0  0  0  0  0  0
  -25.5440  -29.2670   20.5220 C   0  0  0  0  0  0  0  0  0  0  0  0
  -26.6920  -28.4490   20.4300 C   0  0  0  0  0  3  0  0  0  0  0  0
  -25.3730  -26.7560   19.2770 C   0  0  0  0  0  3  0  0  0  0  0  0
  -24.2310  -27.5760   19.3630 C   0  0  0  0  0  3  0  0  0  0  0  0
  -23.1440  -29.7690   20.1270 C   0  0  0  0  0  2  0  0  0  0  0  0
  -24.3880  -30.9220   22.0160 N   0  0  0  0  0  0  0  0  0  0  0  0
  -23.4220  -32.0260   23.7430 O   0  0  0  0  0  0  0  0  0  0  0  0
  -22.3890  -29.4270   22.5020 C   0  0  0  0  0  0  0  0  0  0  0  0
  -21.0610  -29.2690   22.3700 N   0  0  0  0  0  0  0  0  0  0  0  0
  -23.0570  -28.8000   23.3270 O   0  0  0  0  0  0  0  0  0  0  0  0
  -20.5850  -29.8250   21.6730 H   0  0  0  0  0  0  0  0  0  0  0  0
  -17.6880  -28.0350   22.7570 C   0  0  0  0  0  0  0  0  0  0  0  0
  -20.2230  -28.3570   23.1470 C   0  0  0  0  0  3  0  0  0  0  0  0
  -20.3810  -26.9000   22.6540 C   0  0  0  0  0  2  0  0  0  0  0  0
  -19.3400  -26.5030   21.6020 C   0  0  0  0  0  2  0  0  0  0  0  0
  -17.9230  -26.6550   22.1650 C   0  0  0  0  0  2  0  0  0  0  0  0
  -18.7700  -28.8410   23.2030 C   0  0  0  0  0  0  0  0  0  0  0  0
  -18.4990  -30.1290   23.7120 C   0  0  0  0  0  3  0  0  0  0  0  0
  -17.1790  -30.6140   23.7820 C   0  0  0  0  0  3  0  0  0  0  0  0
  -16.1110  -29.8060   23.3530 C   0  0  0  0  0  3  0  0  0  0  0  0
  -16.3660  -28.5180   22.8460 C   0  0  0  0  0  3  0  0  0  0  0  0
  -25.8120  -32.2110   23.7020 C   0  0  0  0  0  3  0  0  0  0  0  0
  -26.3380  -31.3660   24.9270 C   0  0  1  0  0  0  0  0  0  0  0  0
  -25.2940  -31.1870   26.0520 C   0  0  0  0  0  1  0  0  0  0  0  0
  -26.7850  -29.9590   24.4680 C   0  0  0  0  0  1  0  0  0  0  0  0
  -27.5860  -32.0500   25.5360 C   0  0  0  0  0  1  0  0  0  0  0  0
  -25.6270  -33.6170   24.0800 N   0  0  0  0  0  0  0  0  0  0  0  0
  -26.0220  -34.6620   23.3390 C   0  0  0  0  0  0  0  0  0  0  0  0
  -26.6540  -34.5350   22.2860 O   0  0  0  0  0  0  0  0  0  0  0  0
  -25.0690  -33.7960   24.9020 H   0  0  0  0  0  0  0  0  0  0  0  0
  -24.4270  -36.5880   23.0890 C   0  0  0  0  0  1  0  0  0  0  0  0
  -25.6600  -36.0690   23.8460 C   0  0  0  0  0  3  0  0  0  0  0  0
  -27.8790  -36.7710   24.6300 C   0  0  0  0  0  1  0  0  0  0  0  0
  -26.7670  -37.0430   23.7220 N   0  0  0  0  0  0  0  0  0  0  0  0
  -26.4370  -37.9880   23.9010 H   0  0  0  0  0  0  0  0  0  0  0  0
  1  2  1  0
  1 54  1  0
  2  4  1  0
  3  1  2  0
  6  2  1  0
  6  5  1  0
  7  6  1  0
  8  7  1  0
  8 10  1  0
  9  7  2  0
 11 17  1  0
 11  8  1  0
 12 14  2  0
 12 11  1  0
 13 12  1  0
 15 13  1  0
 16 13  1  0
 18 17  1  0
 19 24  1  0
 20 21  1  0
 20 19  1  0
 22 21  1  0
 22 29  1  0
 22 23  1  0
 24 18  1  0
 24 23  1  0
 25 18  2  0
 26 27  2  0
 27 46  1  0
 28 27  1  0
 28 31  1  0
 29 30  1  0
 29 26  1  0
 30 28  2  0
 31 32  1  0
 32 33  2  0
 34 37  1  0
 34 33  1  0
 35 34  2  0
 36 35  1  0
 36 31  2  0
 37 38  1  0
 38 39  1  0
 39 40  2  0
 41 40  1  0
 41 45  1  0
 42 41  2  0
 43 38  2  0
 43 42  1  0
 44 43  1  0
 46 47  1  0
 47 50  1  0
 47 49  1  0
 48 46  2  0
 51 26  1  0
 51 52  1  0
 53 51  1  0
 54 59  1  0
 54 55  1  0
 55 58  1  0
 55 57  1  0
 56 55  1  0
 60 59  1  0
 61 60  1  0
 62 64  1  0
 62 61  1  0
 63 74  2  0
 64 69  1  0
 65 73  1  0
 65 75  1  0
 66 72  1  0
 66 68  1  0
 67 73  1  0
 68 67  1  0
 69 68  2  0
 70 71  1  0
 70 64  2  0
 71 66  2  0
 72 65  1  0
 73 63  1  0
 75 77  2  0
 76 75  1  0
 78 76  1  0
 79 88  2  0
 79 84  1  0
 80 76  1  0
 80 84  1  0
 81 80  1  0
 82 83  1  0
 82 81  1  0
 83 79  1  0
 84 85  2  0
 85 86  1  0
 87 86  2  0
 88 87  1  0
 89 63  1  0
 89 94  1  0
 89 90  1  0
 90 93  1  1
 90 91  1  0
 92 90  1  0
 94 97  1  0
 95 99  1  0
 95 94  1  0
 96 95  2  0
 99 98  1  0
101 99  1  0
101102  1  0
101100  1  0
M  ISO  4  17 100  18 100  61 101  62 101
M  END
>  <TORSDO>  (93) 
F 26

>  <SCORE>  (93) 
-8.959

>  <name>  (93) 
94

>  <ligand_id>  (93) 
94

>  <original_smiles>  (93) 
[H]c1c([H])c([H])c2c(c1[H])C([H])([H])C([H])([H])C([H])([H])C2([H])N([H])C(=O)C1([H])N(C(=O)C([H])(N([H])C(=O)C([H])(N([H])C([H])([H])[H])C([H])([H])[H])C(C([H])([H])[H])(C([H])([H])[H])C([H])([H])[H])C([H])([H])c2c([H])c(OC([H])([H])C([H])([H])C([H])([H])C([H])(C(=O)N([H])C([H])(C(=O)N([H])C([H])(C(=O)N([H])[H])C([H])([H])C(=O)N3C([H])([H])C([H])([H])C([H])([H])C([H])(n4nc(-c5c([H])c([H])c(Oc6c([H])c([H])c(F)c([H])c6F)c([H])c5[H])c(C(=O)N([H])[H])c4N([H])[H])C3([H])[H])C([H])([H])[H])[N+]([H])([H])[H])c([H])c([H])c2C1([H])[H]

>  <smiles>  (93) 
[H]c1c([H])c([H])c2c(c1[H])C([H])([H])C([H])([H])C([H])([H])C2([H])N([H])C(=O)C1([H])N(C(=O)C([H])(N([H])C(=O)C([H])(N([H])C([H])([H])[H])C([H])([H])[H])C(C([H])([H])[H])(C([H])([H])[H])C([H])([H])[H])C([H])([H])c2c([H])c(OC([H])([H])C([H])([H])C([H])([H])C([H])(C(=O)N([H])C([H])(C(=O)N([H])C([H])(C(=O)N([H])[H])C([H])([H])C(=O)N3C([H])([H])C([H])([H])C([H])([H])C([H])(n4nc(-c5c([H])c([H])c(Oc6c([H])c([H])c(F)c([H])c6F)c([H])c5[H])c(C(=O)N([H])[H])c4N([H])[H])C3([H])[H])C([H])([H])[H])[N+]([H])([H])[H])c([H])c([H])c2C1([H])[H]

$$$$
95:0:0
     RDKit          3D

 92100  0  0  1  0  0  0  0  0999 V2000
  -29.6900  -21.9380   21.1270 C   0  0  0  0  0  2  0  0  0  0  0  0
  -32.2790  -19.3690   19.8630 C   0  0  0  0  0  3  0  0  0  0  0  0
  -31.6090  -18.1400   20.0430 C   0  0  0  0  0  3  0  0  0  0  0  0
  -31.6500  -20.5890   20.1800 C   0  0  0  0  0  3  0  0  0  0  0  0
  -29.6540  -19.3540   20.8260 C   0  0  0  0  0  3  0  0  0  0  0  0
  -30.2840  -18.1090   20.5230 C   0  0  0  0  0  0  0  0  0  0  0  0
  -30.3250  -20.6020   20.6700 C   0  0  0  0  0  0  0  0  0  0  0  0
  -29.4800  -16.7850   20.5970 C   0  0  0  0  0  2  0  0  0  0  0  0
  -30.6600  -14.5410   20.4360 C   0  0  0  0  0  0  0  0  0  0  0  0
  -30.3730  -12.3570   19.3140 C   0  0  0  0  0  2  0  0  0  0  0  0
  -29.4440  -12.5620   18.0970 C   0  0  0  0  0  2  0  0  0  0  0  0
  -27.9620  -12.4390   18.5030 C   0  0  0  0  0  2  0  0  0  0  0  0
  -27.6200  -13.2710   19.7700 C   0  0  0  0  0  3  0  0  0  0  0  0
  -28.6670  -13.0450   20.8880 C   0  0  0  0  0  2  0  0  0  0  0  0
  -30.0060  -13.3430   20.3460 N   0  0  0  0  0  0  0  0  0  0  0  0
  -31.7260  -14.7520   19.8540 O   0  0  0  0  0  0  0  0  0  0  0  0
  -30.0380  -15.5160   21.1380 N   0  0  0  0  0  0  0  0  0  0  0  0
  -29.4330  -15.1250   21.8430 H   0  0  0  0  0  0  0  0  0  0  0  0
  -25.2140  -13.8880   20.4560 C   0  0  0  0  0  0  0  0  0  0  0  0
  -24.1430  -13.1230   20.8280 C   0  0  0  0  0  0  0  0  0  0  0  0
  -24.6000  -11.7690   20.8100 C   0  0  0  0  0  0  0  0  0  0  0  0
  -26.2610  -13.0050   20.2400 N   0  0  0  0  0  0  0  0  0  0  0  0
  -25.8930  -11.7260   20.5090 N   0  0  0  0  0  0  0  0  0  0  0  0
  -23.8660  -10.5110   21.0080 C   0  0  0  0  0  0  0  0  0  0  0  0
  -24.2970   -9.5460   21.9460 C   0  0  0  0  0  3  0  0  0  0  0  0
  -23.5650   -8.3530   22.1340 C   0  0  0  0  0  3  0  0  0  0  0  0
  -22.3880   -8.1170   21.3840 C   0  0  0  0  0  0  0  0  0  0  0  0
  -21.9750   -9.0730   20.4360 C   0  0  0  0  0  3  0  0  0  0  0  0
  -22.7080  -10.2560   20.2480 C   0  0  0  0  0  3  0  0  0  0  0  0
  -21.6280   -6.9770   21.4800 O   0  0  0  0  0  0  0  0  0  0  0  0
  -21.5870   -6.2310   22.6310 C   0  0  0  0  0  0  0  0  0  0  0  0
  -21.1870   -6.7880   23.8660 C   0  0  0  0  0  3  0  0  0  0  0  0
  -21.0950   -5.9690   25.0090 C   0  0  0  0  0  3  0  0  0  0  0  0
  -21.3920   -4.5970   24.9190 C   0  0  0  0  0  0  0  0  0  0  0  0
  -21.7830   -4.0390   23.6890 C   0  0  0  0  0  3  0  0  0  0  0  0
  -21.8780   -4.8540   22.5480 C   0  0  0  0  0  0  0  0  0  0  0  0
  -22.2370   -4.3100   21.3600 F   0  0  0  0  0  0  0  0  0  0  0  0
  -21.2940   -3.8080   26.0150 F   0  0  0  0  0  0  0  0  0  0  0  0
  -22.7450  -13.6080   21.0900 C   0  0  0  0  0  0  0  0  0  0  0  0
  -22.0110  -12.9250   21.9600 N   0  0  0  0  0  0  0  0  0  0  0  0
  -22.3130  -14.6280   20.5550 O   0  0  0  0  0  0  0  0  0  0  0  0
  -22.3760  -12.1030   22.4170 H   0  0  0  0  0  0  0  0  0  0  0  0
  -21.0700  -13.2300   22.1710 H   0  0  0  0  0  0  0  0  0  0  0  0
  -25.3790  -15.2570   20.2690 N   0  0  0  0  0  0  0  0  0  0  0  0
  -24.6010  -15.9020   20.3610 H   0  0  0  0  0  0  0  0  0  0  0  0
  -26.2300  -15.7030   19.9540 H   0  0  0  0  0  0  0  0  0  0  0  0
  -29.5380  -22.9980   20.0810 N   0  0  0  0  0  4  0  0  0  0  0  0
  -30.3400  -22.9520   19.4720 H   0  0  0  0  0  0  0  0  0  0  0  0
  -28.7370  -22.7620   19.5180 H   0  0  0  0  0  0  0  0  0  0  0  0
  -29.4110  -24.4100   20.5870 C   0  0  0  0  0  2  0  0  0  0  0  0
  -28.4140  -25.2920   19.7760 C   0  0  0  0  0  2  0  0  0  0  0  0
  -28.4030  -26.6840   20.1840 O   0  0  0  0  0  0  0  0  0  0  0  0
  -24.5920  -31.8910   23.2290 C   0  0  0  0  0  0  0  0  0  0  0  0
  -27.2220  -27.4160   20.1390 C   0  0  0  0  0  0  0  0  0  0  0  0
  -23.3780  -30.4930   21.5900 C   0  0  0  0  0  3  0  0  0  0  0  0
  -24.8260  -28.9540   20.1540 C   0  0  0  0  0  0  0  0  0  0  0  0
  -25.9070  -30.8390   21.3850 C   0  0  0  0  0  2  0  0  0  0  0  0
  -25.9870  -29.4650   20.7460 C   0  0  0  0  0  0  0  0  0  0  0  0
  -27.1820  -28.7040   20.7380 C   0  0  0  0  0  3  0  0  0  0  0  0
  -26.0360  -26.9390   19.5250 C   0  0  0  0  0  3  0  0  0  0  0  0
  -24.8490  -27.6920   19.5400 C   0  0  0  0  0  3  0  0  0  0  0  0
  -23.5820  -29.8140   20.2090 C   0  0  0  0  0  2  0  0  0  0  0  0
  -24.6440  -31.0880   22.1280 N   0  0  0  0  0  0  0  0  0  0  0  0
  -23.5130  -32.1650   23.7730 O   0  0  0  0  0  0  0  0  0  0  0  0
  -22.7270  -29.4730   22.5510 C   0  0  0  0  0  0  0  0  0  0  0  0
  -21.4000  -29.2950   22.4290 N   0  0  0  0  0  0  0  0  0  0  0  0
  -23.4110  -28.8420   23.3640 O   0  0  0  0  0  0  0  0  0  0  0  0
  -20.9100  -29.8530   21.7430 H   0  0  0  0  0  0  0  0  0  0  0  0
  -18.0250  -28.1150   22.9390 C   0  0  0  0  0  0  0  0  0  0  0  0
  -20.5830  -28.3580   23.2010 C   0  0  0  0  0  3  0  0  0  0  0  0
  -20.6770  -26.9300   22.6180 C   0  0  0  0  0  2  0  0  0  0  0  0
  -19.5690  -26.6180   21.6070 C   0  0  0  0  0  2  0  0  0  0  0  0
  -18.1900  -26.7670   22.2570 C   0  0  0  0  0  2  0  0  0  0  0  0
  -19.1480  -28.8690   23.3680 C   0  0  0  0  0  0  0  0  0  0  0  0
  -18.9390  -30.1330   23.9630 C   0  0  0  0  0  3  0  0  0  0  0  0
  -17.6390  -30.6420   24.1320 C   0  0  0  0  0  3  0  0  0  0  0  0
  -16.5290  -29.8850   23.7200 C   0  0  0  0  0  3  0  0  0  0  0  0
  -16.7220  -28.6230   23.1300 C   0  0  0  0  0  3  0  0  0  0  0  0
  -25.8810  -32.5170   23.8470 C   0  0  0  0  0  3  0  0  0  0  0  0
  -25.5770  -33.9140   24.1800 N   0  0  0  0  0  0  0  0  0  0  0  0
  -25.9130  -34.9690   23.4240 C   0  0  0  0  0  0  0  0  0  0  0  0
  -26.5820  -34.8650   22.3930 O   0  0  0  0  0  0  0  0  0  0  0  0
  -24.9780  -34.0690   24.9790 H   0  0  0  0  0  0  0  0  0  0  0  0
  -24.1870  -36.7650   23.0710 C   0  0  0  0  0  1  0  0  0  0  0  0
  -25.4260  -36.3580   23.8840 C   0  0  0  0  0  3  0  0  0  0  0  0
  -27.5640  -37.2320   24.7140 C   0  0  0  0  0  1  0  0  0  0  0  0
  -26.4620  -37.4080   23.7720 N   0  0  0  0  0  0  0  0  0  0  0  0
  -26.0610  -38.3300   23.9220 H   0  0  0  0  0  0  0  0  0  0  0  0
  -26.4000  -31.7410   25.1200 C   0  0  1  0  0  0  0  0  0  0  0  0
  -25.3080  -31.5050   26.1890 C   0  0  0  0  0  1  0  0  0  0  0  0
  -26.9750  -30.3640   24.7170 C   0  0  0  0  0  1  0  0  0  0  0  0
  -27.5530  -32.5300   25.7800 C   0  0  0  0  0  1  0  0  0  0  0  0
  2  3  2  0
  2  4  1  0
  3  6  1  0
  4  7  2  0
  6  8  1  0
  6  5  2  0
  7  5  1  0
  7  1  1  0
  8 17  1  0
  9 17  1  0
 10 15  1  0
 11 12  1  0
 11 10  1  0
 13 12  1  0
 13 22  1  0
 13 14  1  0
 15  9  1  0
 15 14  1  0
 16  9  2  0
 17 18  1  0
 19 20  2  0
 20 39  1  0
 21 20  1  0
 21 24  1  0
 22 19  1  0
 22 23  1  0
 23 21  2  0
 24 25  1  0
 25 26  2  0
 27 30  1  0
 27 26  1  0
 28 27  2  0
 29 28  1  0
 29 24  2  0
 30 31  1  0
 31 32  1  0
 32 33  2  0
 34 33  1  0
 34 38  1  0
 35 34  2  0
 36 31  2  0
 36 35  1  0
 37 36  1  0
 39 40  1  0
 40 43  1  0
 40 42  1  0
 41 39  2  0
 44 45  1  0
 44 19  1  0
 46 44  1  0
 47 50  1  0
 47  1  1  0
 48 47  1  0
 49 47  1  0
 51 52  1  0
 51 50  1  0
 53 64  2  0
 54 52  1  0
 54 59  1  0
 55 63  1  0
 55 65  1  0
 56 62  1  0
 56 58  1  0
 57 63  1  0
 58 57  1  0
 59 58  2  0
 60 61  1  0
 60 54  2  0
 61 56  2  0
 62 55  1  0
 63 53  1  0
 65 67  2  0
 66 65  1  0
 68 66  1  0
 69 78  2  0
 69 74  1  0
 70 66  1  0
 70 74  1  0
 71 70  1  0
 72 73  1  0
 72 71  1  0
 73 69  1  0
 74 75  2  0
 75 76  1  0
 77 76  2  0
 78 77  1  0
 79 53  1  0
 79 80  1  0
 79 89  1  0
 80 83  1  0
 81 85  1  0
 81 80  1  0
 82 81  2  0
 85 84  1  0
 87 85  1  0
 87 88  1  0
 87 86  1  0
 89 92  1  1
 89 90  1  0
 91 89  1  0
M  ISO  4   9 100  17 100  51 101  52 101
M  END
>  <TORSDO>  (94) 
F 21

>  <SCORE>  (94) 
-13.521

>  <name>  (94) 
95

>  <ligand_id>  (94) 
95

>  <original_smiles>  (94) 
[H]c1c([H])c([H])c2c(c1[H])C([H])([H])C([H])([H])C([H])([H])C2([H])N([H])C(=O)C1([H])N(C(=O)C([H])(N([H])C(=O)C([H])(N([H])C([H])([H])[H])C([H])([H])[H])C(C([H])([H])[H])(C([H])([H])[H])C([H])([H])[H])C([H])([H])c2c([H])c(OC([H])([H])C([H])([H])[N+]([H])([H])C([H])([H])c3c([H])c([H])c([H])c(C([H])([H])N([H])C(=O)N4C([H])([H])C([H])([H])C([H])([H])C([H])(n5nc(-c6c([H])c([H])c(Oc7c([H])c([H])c(F)c([H])c7F)c([H])c6[H])c(C(=O)N([H])[H])c5N([H])[H])C4([H])[H])c3[H])c([H])c([H])c2C1([H])[H]

>  <smiles>  (94) 
[H]c1c([H])c([H])c2c(c1[H])C([H])([H])C([H])([H])C([H])([H])C2([H])N([H])C(=O)C1([H])N(C(=O)C([H])(N([H])C(=O)C([H])(N([H])C([H])([H])[H])C([H])([H])[H])C(C([H])([H])[H])(C([H])([H])[H])C([H])([H])[H])C([H])([H])c2c([H])c(OC([H])([H])C([H])([H])[N+]([H])([H])C([H])([H])c3c([H])c([H])c([H])c(C([H])([H])N([H])C(=O)N4C([H])([H])C([H])([H])C([H])([H])C([H])(n5nc(-c6c([H])c([H])c(Oc7c([H])c([H])c(F)c([H])c7F)c([H])c6[H])c(C(=O)N([H])[H])c5N([H])[H])C4([H])[H])c3[H])c([H])c([H])c2C1([H])[H]

$$$$
96:0:0
     RDKit          3D

 90 97  0  0  1  0  0  0  0  0999 V2000
  -29.4900  -20.1050   20.5200 C   0  0  0  0  0  3  0  0  0  0  0  0
  -29.1750  -18.5710   20.1050 C   0  0  0  0  0  2  0  0  0  0  0  0
  -30.2900  -17.4110   20.3140 C   0  0  0  0  0  3  0  0  0  0  0  0
  -30.5980  -14.8530   19.9930 C   0  0  0  0  0  0  0  0  0  0  0  0
  -30.3660  -12.5710   19.0230 C   0  0  0  0  0  2  0  0  0  0  0  0
  -29.3660  -12.6230   17.8480 C   0  0  0  0  0  2  0  0  0  0  0  0
  -27.9220  -12.4440   18.3560 C   0  0  0  0  0  2  0  0  0  0  0  0
  -27.6010  -13.3540   19.5710 C   0  0  0  0  0  3  0  0  0  0  0  0
  -28.7130  -13.2910   20.6400 C   0  0  0  0  0  2  0  0  0  0  0  0
  -29.9770  -13.6300   19.9770 N   0  0  0  0  0  0  0  0  0  0  0  0
  -31.7690  -14.9700   19.6280 O   0  0  0  0  0  0  0  0  0  0  0  0
  -29.8190  -15.9690   20.2100 N   0  0  0  0  0  0  0  0  0  0  0  0
  -28.8590  -15.7970   20.4640 H   0  0  0  0  0  0  0  0  0  0  0  0
  -25.2650  -13.9430   20.4550 C   0  0  0  0  0  0  0  0  0  0  0  0
  -24.2160  -13.1660   20.8630 C   0  0  0  0  0  0  0  0  0  0  0  0
  -24.6680  -11.8130   20.7690 C   0  0  0  0  0  0  0  0  0  0  0  0
  -26.2860  -13.0650   20.1320 N   0  0  0  0  0  0  0  0  0  0  0  0
  -25.9370  -11.7770   20.3850 N   0  0  0  0  0  0  0  0  0  0  0  0
  -23.9440  -10.5490   20.9640 C   0  0  0  0  0  0  0  0  0  0  0  0
  -24.4070   -9.5650   21.8650 C   0  0  0  0  0  3  0  0  0  0  0  0
  -23.6830   -8.3670   22.0490 C   0  0  0  0  0  3  0  0  0  0  0  0
  -22.4840   -8.1450   21.3310 C   0  0  0  0  0  0  0  0  0  0  0  0
  -22.0410   -9.1180   20.4170 C   0  0  0  0  0  3  0  0  0  0  0  0
  -22.7650  -10.3080   20.2320 C   0  0  0  0  0  3  0  0  0  0  0  0
  -21.7300   -7.0010   21.4280 O   0  0  0  0  0  0  0  0  0  0  0  0
  -21.6990   -6.2530   22.5770 C   0  0  0  0  0  0  0  0  0  0  0  0
  -21.2780   -6.7970   23.8110 C   0  0  0  0  0  3  0  0  0  0  0  0
  -21.1970   -5.9760   24.9520 C   0  0  0  0  0  3  0  0  0  0  0  0
  -21.5250   -4.6090   24.8620 C   0  0  0  0  0  0  0  0  0  0  0  0
  -21.9390   -4.0640   23.6340 C   0  0  0  0  0  3  0  0  0  0  0  0
  -22.0230   -4.8830   22.4940 C   0  0  0  0  0  0  0  0  0  0  0  0
  -22.4020   -4.3480   21.3080 F   0  0  0  0  0  0  0  0  0  0  0  0
  -21.4400   -3.8180   25.9550 F   0  0  0  0  0  0  0  0  0  0  0  0
  -22.8410  -13.6420   21.2280 C   0  0  0  0  0  0  0  0  0  0  0  0
  -22.1590  -12.9260   22.1150 N   0  0  0  0  0  0  0  0  0  0  0  0
  -22.3800  -14.6840   20.7610 O   0  0  0  0  0  0  0  0  0  0  0  0
  -22.5460  -12.0820   22.5120 H   0  0  0  0  0  0  0  0  0  0  0  0
  -21.2380  -13.2260   22.4020 H   0  0  0  0  0  0  0  0  0  0  0  0
  -25.4270  -15.3170   20.3040 N   0  0  0  0  0  0  0  0  0  0  0  0
  -24.6650  -15.9660   20.4660 H   0  0  0  0  0  0  0  0  0  0  0  0
  -26.2390  -15.7620   19.8960 H   0  0  0  0  0  0  0  0  0  0  0  0
  -30.9180  -17.5780   21.7060 C   0  0  0  0  0  0  0  0  0  0  0  0
  -30.7450  -16.7970   22.6470 O   0  0  0  0  0  0  0  0  0  0  0  0
  -32.1130  -19.1740   23.0070 C   0  0  0  0  0  1  0  0  0  0  0  0
  -31.6650  -18.6870   21.7540 O   0  0  0  0  0  0  0  0  0  0  0  0
  -28.6360  -21.3350   19.9350 C   0  0  0  0  0  3  0  0  0  0  0  0
  -28.8240  -22.6660   20.5580 O   0  0  0  0  0  0  0  0  0  0  0  0
  -28.4350  -23.9000   19.8290 C   0  0  0  0  0  2  0  0  0  0  0  0
  -28.1210  -25.2190   20.6950 C   0  0  0  0  0  2  0  0  0  0  0  0
  -28.2680  -26.6020   20.1560 O   0  0  0  0  0  0  0  0  0  0  0  0
  -24.5590  -31.9930   23.2640 C   0  0  0  0  0  0  0  0  0  0  0  0
  -27.1490  -27.4490   20.1700 C   0  0  0  0  0  0  0  0  0  0  0  0
  -23.3400  -30.5950   21.6310 C   0  0  0  0  0  3  0  0  0  0  0  0
  -24.7790  -29.0500   20.1860 C   0  0  0  0  0  0  0  0  0  0  0  0
  -25.8750  -30.9270   21.4160 C   0  0  0  0  0  2  0  0  0  0  0  0
  -25.9550  -29.5480   20.7650 C   0  0  0  0  0  0  0  0  0  0  0  0
  -27.1460  -28.7620   20.7400 C   0  0  0  0  0  3  0  0  0  0  0  0
  -25.9530  -26.9980   19.5760 C   0  0  0  0  0  3  0  0  0  0  0  0
  -24.7830  -27.7830   19.5800 C   0  0  0  0  0  3  0  0  0  0  0  0
  -23.5410  -29.9220   20.2480 C   0  0  0  0  0  2  0  0  0  0  0  0
  -24.6110  -31.1890   22.1610 N   0  0  0  0  0  0  0  0  0  0  0  0
  -23.4810  -32.2630   23.8140 O   0  0  0  0  0  0  0  0  0  0  0  0
  -22.6920  -29.5760   22.5970 C   0  0  0  0  0  0  0  0  0  0  0  0
  -21.3700  -29.3710   22.4660 N   0  0  0  0  0  0  0  0  0  0  0  0
  -23.3780  -28.9680   23.4240 O   0  0  0  0  0  0  0  0  0  0  0  0
  -20.8740  -29.9120   21.7700 H   0  0  0  0  0  0  0  0  0  0  0  0
  -18.0190  -28.0960   22.9440 C   0  0  0  0  0  0  0  0  0  0  0  0
  -20.5670  -28.4230   23.2390 C   0  0  0  0  0  3  0  0  0  0  0  0
  -20.7100  -26.9870   22.6810 C   0  0  0  0  0  2  0  0  0  0  0  0
  -19.6280  -26.6250   21.6600 C   0  0  0  0  0  2  0  0  0  0  0  0
  -18.2370  -26.7430   22.2880 C   0  0  0  0  0  2  0  0  0  0  0  0
  -19.1140  -28.8910   23.3770 C   0  0  0  0  0  0  0  0  0  0  0  0
  -18.8570  -30.1550   23.9520 C   0  0  0  0  0  3  0  0  0  0  0  0
  -17.5390  -30.6260   24.0980 C   0  0  0  0  0  3  0  0  0  0  0  0
  -16.4590  -29.8290   23.6810 C   0  0  0  0  0  3  0  0  0  0  0  0
  -16.6990  -28.5680   23.1090 C   0  0  0  0  0  3  0  0  0  0  0  0
  -25.8460  -32.6260   23.8740 C   0  0  0  0  0  3  0  0  0  0  0  0
  -25.5410  -34.0270   24.1970 N   0  0  0  0  0  0  0  0  0  0  0  0
  -25.8660  -35.0740   23.4270 C   0  0  0  0  0  0  0  0  0  0  0  0
  -26.5240  -34.9620   22.3890 O   0  0  0  0  0  0  0  0  0  0  0  0
  -24.9560  -34.1880   25.0030 H   0  0  0  0  0  0  0  0  0  0  0  0
  -24.1330  -36.8640   23.0830 C   0  0  0  0  0  1  0  0  0  0  0  0
  -25.3870  -36.4670   23.8790 C   0  0  0  0  0  3  0  0  0  0  0  0
  -27.5320  -37.3620   24.6710 C   0  0  0  0  0  1  0  0  0  0  0  0
  -26.4170  -37.5190   23.7400 N   0  0  0  0  0  0  0  0  0  0  0  0
  -26.0120  -38.4400   23.8830 H   0  0  0  0  0  0  0  0  0  0  0  0
  -26.3700  -31.8630   25.1540 C   0  0  1  0  0  0  0  0  0  0  0  0
  -25.2790  -31.6250   26.2230 C   0  0  0  0  0  1  0  0  0  0  0  0
  -26.9590  -30.4880   24.7670 C   0  0  0  0  0  1  0  0  0  0  0  0
  -27.5160  -32.6670   25.8100 C   0  0  0  0  0  1  0  0  0  0  0  0
  2  1  1  0
  3  2  1  0
  3 42  1  0
  4 12  1  0
  5 10  1  0
  6  7  1  0
  6  5  1  0
  8  7  1  0
  8 17  1  0
  8  9  1  0
 10  4  1  0
 10  9  1  0
 11  4  2  0
 12  3  1  0
 12 13  1  0
 14 15  2  0
 15 34  1  0
 16 15  1  0
 16 19  1  0
 17 18  1  0
 17 14  1  0
 18 16  2  0
 19 20  1  0
 20 21  2  0
 22 25  1  0
 22 21  1  0
 23 22  2  0
 24 23  1  0
 24 19  2  0
 25 26  1  0
 26 27  1  0
 27 28  2  0
 29 28  1  0
 29 33  1  0
 30 29  2  0
 31 26  2  0
 31 30  1  0
 32 31  1  0
 34 35  1  0
 35 38  1  0
 35 37  1  0
 36 34  2  0
 39 14  1  0
 39 40  1  0
 41 39  1  0
 42 45  1  0
 42 43  2  0
 45 44  1  0
 46  1  2  0
 46 47  1  0
 48 47  1  0
 48 49  1  0
 50 52  1  0
 50 49  1  0
 51 62  2  0
 52 57  1  0
 53 61  1  0
 53 63  1  0
 54 60  1  0
 54 56  1  0
 55 61  1  0
 56 55  1  0
 57 56  2  0
 58 59  1  0
 58 52  2  0
 59 54  2  0
 60 53  1  0
 61 51  1  0
 63 65  2  0
 64 63  1  0
 66 64  1  0
 67 76  2  0
 67 72  1  0
 68 64  1  0
 68 72  1  0
 69 68  1  0
 70 71  1  0
 70 69  1  0
 71 67  1  0
 72 73  2  0
 73 74  1  0
 75 74  2  0
 76 75  1  0
 77 51  1  0
 77 78  1  0
 77 87  1  0
 78 81  1  0
 79 83  1  0
 79 78  1  0
 80 79  2  0
 83 82  1  0
 85 83  1  0
 85 86  1  0
 85 84  1  0
 87 90  1  1
 87 88  1  0
 89 87  1  0
M  ISO  4   4 100  12 100  49 101  50 101
M  END
>  <TORSDO>  (95) 
F 24

>  <SCORE>  (95) 
-12.408

>  <name>  (95) 
96

>  <ligand_id>  (95) 
96

>  <original_smiles>  (95) 
[H]c1c([H])c([H])c2c(c1[H])C([H])([H])C([H])([H])C([H])([H])C2([H])N([H])C(=O)C1([H])N(C(=O)C([H])(N([H])C(=O)C([H])(N([H])C([H])([H])[H])C([H])([H])[H])C(C([H])([H])[H])(C([H])([H])[H])C([H])([H])[H])C([H])([H])c2c([H])c(OC([H])([H])C([H])([H])OC([H])([H])C([H])([H])C([H])([H])C([H])(C(=O)OC([H])([H])[H])N([H])C(=O)N3C([H])([H])C([H])([H])C([H])([H])C([H])(n4nc(-c5c([H])c([H])c(Oc6c([H])c([H])c(F)c([H])c6F)c([H])c5[H])c(C(=O)N([H])[H])c4N([H])[H])C3([H])[H])c([H])c([H])c2C1([H])[H]

>  <smiles>  (95) 
[H]c1c([H])c([H])c2c(c1[H])C([H])([H])C([H])([H])C([H])([H])C2([H])N([H])C(=O)C1([H])N(C(=O)C([H])(N([H])C(=O)C([H])(N([H])C([H])([H])[H])C([H])([H])[H])C(C([H])([H])[H])(C([H])([H])[H])C([H])([H])[H])C([H])([H])c2c([H])c(OC([H])([H])C([H])([H])OC([H])([H])C([H])([H])C([H])([H])C([H])(C(=O)OC([H])([H])[H])N([H])C(=O)N3C([H])([H])C([H])([H])C([H])([H])C([H])(n4nc(-c5c([H])c([H])c(Oc6c([H])c([H])c(F)c([H])c6F)c([H])c5[H])c(C(=O)N([H])[H])c4N([H])[H])C3([H])[H])c([H])c([H])c2C1([H])[H]

$$$$
