0:0:0
     RDKit          3D

104111  0  0  1  0  0  0  0  0999 V2000
  -26.8480  -23.2600   16.7040 C   0  0  0  0  0  3  0  0  0  0  0  0
  -26.4240  -21.9570   17.4160 C   0  0  0  0  0  0  0  0  0  0  0  0
  -25.1240  -21.7290   17.6520 N   0  0  0  0  0  0  0  0  0  0  0  0
  -27.3070  -21.1870   17.8070 O   0  0  0  0  0  0  0  0  0  0  0  0
  -24.4670  -22.3830   17.2480 H   0  0  0  0  0  0  0  0  0  0  0  0
  -24.6050  -20.8800   18.7290 C   0  0  0  0  0  2  0  0  0  0  0  0
  -24.5180  -19.3690   18.4300 C   0  0  0  0  0  2  0  0  0  0  0  0
  -25.8560  -18.6230   18.4310 C   0  0  0  0  0  2  0  0  0  0  0  0
  -26.5710  -18.8900   19.6340 O   0  0  0  0  0  0  0  0  0  0  0  0
  -27.8720  -18.3230   19.6050 C   0  0  0  0  0  2  0  0  0  0  0  0
  -28.7690  -18.8720   20.7370 C   0  0  0  0  0  2  0  0  0  0  0  0
  -30.0990  -18.3310   20.6980 O   0  0  0  0  0  0  0  0  0  0  0  0
  -30.1170  -16.9200   20.8810 C   0  0  0  0  0  2  0  0  0  0  0  0
  -31.5030  -16.3130   21.1380 C   0  0  0  0  0  2  0  0  0  0  0  0
  -31.7480  -14.0820   20.0700 C   0  0  0  0  0  0  0  0  0  0  0  0
  -31.0320  -12.2700   18.5580 C   0  0  0  0  0  2  0  0  0  0  0  0
  -30.0460  -12.8230   17.5090 C   0  0  0  0  0  2  0  0  0  0  0  0
  -28.6010  -12.8350   18.0500 C   0  0  0  0  0  2  0  0  0  0  0  0
  -28.4980  -13.4840   19.4500 C   0  0  0  0  0  3  0  0  0  0  0  0
  -29.5600  -12.8770   20.3960 C   0  0  0  0  0  2  0  0  0  0  0  0
  -30.8940  -13.0630   19.7850 N   0  0  0  0  0  0  0  0  0  0  0  0
  -32.7610  -14.3360   19.4140 O   0  0  0  0  0  0  0  0  0  0  0  0
  -31.3470  -14.8600   21.0800 N   0  0  0  0  0  0  0  0  0  0  0  0
  -30.5640  -14.4880   21.6000 H   0  0  0  0  0  0  0  0  0  0  0  0
  -26.2520  -14.3450   20.3790 C   0  0  0  0  0  0  0  0  0  0  0  0
  -25.1140  -13.6920   20.7720 C   0  0  0  0  0  0  0  0  0  0  0  0
  -25.3840  -12.3010   20.6020 C   0  0  0  0  0  0  0  0  0  0  0  0
  -27.1510  -13.3570   20.0020 N   0  0  0  0  0  0  0  0  0  0  0  0
  -26.6330  -12.1180   20.1900 N   0  0  0  0  0  0  0  0  0  0  0  0
  -24.5110  -11.1340   20.7600 C   0  0  0  0  0  0  0  0  0  0  0  0
  -24.8840  -10.0360   21.5650 C   0  0  0  0  0  3  0  0  0  0  0  0
  -24.0180   -8.9310   21.7150 C   0  0  0  0  0  3  0  0  0  0  0  0
  -22.7640   -8.9170   21.0600 C   0  0  0  0  0  0  0  0  0  0  0  0
  -22.4050  -10.0060   20.2450 C   0  0  0  0  0  3  0  0  0  0  0  0
  -23.2720  -11.1020   20.0920 C   0  0  0  0  0  3  0  0  0  0  0  0
  -21.8700   -7.8750   21.1280 O   0  0  0  0  0  0  0  0  0  0  0  0
  -21.7620   -7.0900   22.2490 C   0  0  0  0  0  0  0  0  0  0  0  0
  -21.4670   -7.6370   23.5170 C   0  0  0  0  0  3  0  0  0  0  0  0
  -21.2980   -6.7880   24.6270 C   0  0  0  0  0  3  0  0  0  0  0  0
  -21.4090   -5.3930   24.4730 C   0  0  0  0  0  0  0  0  0  0  0  0
  -21.6970   -4.8470   23.2090 C   0  0  0  0  0  3  0  0  0  0  0  0
  -21.8700   -5.6930   22.1000 C   0  0  0  0  0  0  0  0  0  0  0  0
  -22.1260   -5.1610   20.8820 F   0  0  0  0  0  0  0  0  0  0  0  0
  -21.2400   -4.5750   25.5370 F   0  0  0  0  0  0  0  0  0  0  0  0
  -23.8190  -14.3250   21.1860 C   0  0  0  0  0  0  0  0  0  0  0  0
  -23.0740  -13.6770   22.0750 N   0  0  0  0  0  0  0  0  0  0  0  0
  -23.4810  -15.4280   20.7590 O   0  0  0  0  0  0  0  0  0  0  0  0
  -23.3570  -12.7820   22.4420 H   0  0  0  0  0  0  0  0  0  0  0  0
  -22.2070  -14.0870   22.3920 H   0  0  0  0  0  0  0  0  0  0  0  0
  -26.5840  -15.6900   20.2920 N   0  0  0  0  0  0  0  0  0  0  0  0
  -25.8940  -16.4120   20.4640 H   0  0  0  0  0  0  0  0  0  0  0  0
  -27.4270  -16.0360   19.8630 H   0  0  0  0  0  0  0  0  0  0  0  0
  -26.2450  -25.7340   16.1890 C   0  0  0  0  0  1  0  0  0  0  0  0
  -25.4790  -24.7370   18.3800 C   0  0  0  0  0  1  0  0  0  0  0  0
  -25.8300  -24.4320   16.9020 C   0  0  0  0  0  3  0  0  0  0  0  0
  -28.1540  -23.5920   17.3000 N   0  0  0  0  0  4  0  0  0  0  0  0
  -27.9960  -24.1210   18.1410 H   0  0  0  0  0  0  0  0  0  0  0  0
  -28.4910  -22.6760   17.5830 H   0  0  0  0  0  0  0  0  0  0  0  0
  -29.1730  -24.2930   16.4910 C   0  0  0  0  0  2  0  0  0  0  0  0
  -30.2310  -24.8360   17.4600 C   0  0  0  0  0  2  0  0  0  0  0  0
  -29.4840  -25.4650   18.4970 O   0  0  0  0  0  0  0  0  0  0  0  0
  -30.1890  -25.6080   19.7210 C   0  0  0  0  0  2  0  0  0  0  0  0
  -29.2140  -26.2090   20.7460 C   0  0  0  0  0  2  0  0  0  0  0  0
  -29.0890  -27.6030   20.4730 O   0  0  0  0  0  0  0  0  0  0  0  0
  -24.8050  -32.1470   23.8210 C   0  0  0  0  0  0  0  0  0  0  0  0
  -27.8390  -28.1750   20.5130 C   0  0  0  0  0  0  0  0  0  0  0  0
  -23.7470  -30.8360   22.0020 C   0  0  0  0  0  3  0  0  0  0  0  0
  -25.3500  -29.5150   20.5220 C   0  0  0  0  0  0  0  0  0  0  0  0
  -26.2470  -31.3640   21.9500 C   0  0  0  0  0  2  0  0  0  0  0  0
  -26.4450  -30.0610   21.2060 C   0  0  0  0  0  0  0  0  0  0  0  0
  -27.6870  -29.3980   21.1970 C   0  0  0  0  0  3  0  0  0  0  0  0
  -26.7290  -27.6270   19.8340 C   0  0  0  0  0  3  0  0  0  0  0  0
  -25.4870  -28.2990   19.8300 C   0  0  0  0  0  3  0  0  0  0  0  0
  -24.0510  -30.2820   20.5820 C   0  0  0  0  0  2  0  0  0  0  0  0
  -24.9480  -31.4590   22.6520 N   0  0  0  0  0  0  0  0  0  0  0  0
  -23.6880  -32.3150   24.3320 O   0  0  0  0  0  0  0  0  0  0  0  0
  -23.1150  -29.7050   22.8420 C   0  0  0  0  0  0  0  0  0  0  0  0
  -21.8170  -29.4480   22.6110 N   0  0  0  0  0  0  0  0  0  0  0  0
  -23.7890  -29.0670   23.6560 O   0  0  0  0  0  0  0  0  0  0  0  0
  -21.3380  -30.0170   21.9300 H   0  0  0  0  0  0  0  0  0  0  0  0
  -18.5320  -27.9480   22.7050 C   0  0  0  0  0  0  0  0  0  0  0  0
  -21.0180  -28.4010   23.2460 C   0  0  0  0  0  3  0  0  0  0  0  0
  -21.3070  -27.0220   22.6100 C   0  0  0  0  0  2  0  0  0  0  0  0
  -20.3380  -26.6700   21.4760 C   0  0  0  0  0  2  0  0  0  0  0  0
  -18.8940  -26.6610   21.9860 C   0  0  0  0  0  2  0  0  0  0  0  0
  -19.5330  -28.7740   23.2820 C   0  0  0  0  0  0  0  0  0  0  0  0
  -19.1480  -29.9780   23.9110 C   0  0  0  0  0  3  0  0  0  0  0  0
  -17.7940  -30.3570   23.9720 C   0  0  0  0  0  3  0  0  0  0  0  0
  -16.8050  -29.5250   23.4180 C   0  0  0  0  0  3  0  0  0  0  0  0
  -17.1750  -28.3230   22.7880 C   0  0  0  0  0  3  0  0  0  0  0  0
  -26.0320  -32.7840   24.5500 C   0  0  0  0  0  3  0  0  0  0  0  0
  -25.7250  -34.2000   24.7920 N   0  0  0  0  0  0  0  0  0  0  0  0
  -26.1790  -35.2140   24.0410 C   0  0  0  0  0  0  0  0  0  0  0  0
  -26.9720  -35.0540   23.1090 O   0  0  0  0  0  0  0  0  0  0  0  0
  -25.0450  -34.4020   25.5100 H   0  0  0  0  0  0  0  0  0  0  0  0
  -24.5740  -37.0320   23.3850 C   0  0  0  0  0  1  0  0  0  0  0  0
  -25.6760  -36.6300   24.3790 C   0  0  0  0  0  3  0  0  0  0  0  0
  -27.6980  -37.4840   25.4760 C   0  0  0  0  0  1  0  0  0  0  0  0
  -26.7450  -37.6510   24.3810 N   0  0  0  0  0  0  0  0  0  0  0  0
  -26.3490  -38.5850   24.4470 H   0  0  0  0  0  0  0  0  0  0  0  0
  -26.3940  -32.0560   25.9040 C   0  0  1  0  0  0  0  0  0  0  0  0
  -25.1880  -31.8710   26.8510 C   0  0  0  0  0  1  0  0  0  0  0  0
  -26.9950  -30.6560   25.6310 C   0  0  0  0  0  1  0  0  0  0  0  0
  -27.4810  -32.8570   26.6590 C   0  0  0  0  0  1  0  0  0  0  0  0
  1 55  1  0
  1 56  1  0
  1  2  1  0
  2  3  1  0
  2  4  2  0
  3  6  1  0
  5  3  1  0
  7  8  1  0
  7  6  1  0
  8  9  1  0
 10  9  1  0
 10 11  1  0
 12 11  1  0
 12 13  1  0
 13 14  1  0
 15 23  1  0
 16 21  1  0
 17 18  1  0
 17 16  1  0
 19 18  1  0
 19 28  1  0
 19 20  1  0
 21 15  1  0
 21 20  1  0
 22 15  2  0
 23 14  1  0
 23 24  1  0
 25 26  2  0
 26 45  1  0
 27 30  1  0
 27 26  1  0
 28 29  1  0
 28 25  1  0
 29 27  2  0
 30 31  1  0
 31 32  2  0
 33 36  1  0
 33 32  1  0
 34 33  2  0
 35 34  1  0
 35 30  2  0
 36 37  1  0
 37 38  1  0
 38 39  2  0
 40 39  1  0
 40 44  1  0
 41 40  2  0
 42 37  2  0
 42 41  1  0
 43 42  1  0
 45 46  1  0
 46 49  1  0
 46 48  1  0
 47 45  2  0
 50 25  1  0
 50 51  1  0
 52 50  1  0
 53 55  1  0
 55 54  1  0
 56 58  1  0
 56 57  1  0
 59 56  1  0
 59 60  1  0
 60 61  1  0
 61 62  1  0
 62 63  1  0
 64 66  1  0
 64 63  1  0
 65 76  2  0
 66 71  1  0
 67 75  1  0
 67 77  1  0
 68 74  1  0
 68 70  1  0
 69 75  1  0
 70 69  1  0
 71 70  2  0
 72 66  2  0
 73 72  1  0
 73 68  2  0
 74 67  1  0
 75 65  1  0
 77 79  2  0
 78 77  1  0
 80 78  1  0
 81 90  2  0
 81 86  1  0
 82 78  1  0
 82 86  1  0
 83 82  1  0
 84 85  1  0
 84 83  1  0
 85 81  1  0
 86 87  2  0
 87 88  1  0
 89 88  2  0
 90 89  1  0
 91 65  1  0
 91 92  1  0
 91101  1  0
 92 95  1  0
 93 97  1  0
 93 92  1  0
 94 93  2  0
 97 96  1  0
 97 99  1  0
 99100  1  0
 99 98  1  0
101104  1  1
101102  1  0
103101  1  0
M  ISO  4  15 100  23 100  63 101  64 101
M  END
>  <TORSDO>  (1) 
F 33

>  <SCORE>  (1) 
-5.670

>  <name>  (1) 
0

>  <ligand_id>  (1) 
0

>  <original_smiles>  (1) 
[H]c1c([H])c([H])c2c(c1[H])C([H])([H])C([H])([H])C([H])([H])C2([H])N([H])C(=O)C1([H])N(C(=O)C([H])(N([H])C(=O)C([H])(N([H])C([H])([H])[H])C([H])([H])[H])C(C([H])([H])[H])(C([H])([H])[H])C([H])([H])[H])C([H])([H])c2c([H])c(OC([H])([H])C([H])([H])OC([H])([H])C([H])([H])[N+]([H])([H])C([H])(C(=O)N([H])C([H])([H])C([H])([H])C([H])([H])OC([H])([H])C([H])([H])OC([H])([H])C([H])([H])N([H])C(=O)N3C([H])([H])C([H])([H])C([H])([H])C([H])(n4nc(-c5c([H])c([H])c(Oc6c([H])c([H])c(F)c([H])c6F)c([H])c5[H])c(C(=O)N([H])[H])c4N([H])[H])C3([H])[H])C([H])(C([H])([H])[H])C([H])([H])[H])c([H])c([H])c2C1([H])[H]

>  <smiles>  (1) 
[H]c1c([H])c([H])c2c(c1[H])C([H])([H])C([H])([H])C([H])([H])C2([H])N([H])C(=O)C1([H])N(C(=O)C([H])(N([H])C(=O)C([H])(N([H])C([H])([H])[H])C([H])([H])[H])C(C([H])([H])[H])(C([H])([H])[H])C([H])([H])[H])C([H])([H])c2c([H])c(OC([H])([H])C([H])([H])OC([H])([H])C([H])([H])[N+]([H])([H])C([H])(C(=O)N([H])C([H])([H])C([H])([H])C([H])([H])OC([H])([H])C([H])([H])OC([H])([H])C([H])([H])N([H])C(=O)N3C([H])([H])C([H])([H])C([H])([H])C([H])(n4nc(-c5c([H])c([H])c(Oc6c([H])c([H])c(F)c([H])c6F)c([H])c5[H])c(C(=O)N([H])[H])c4N([H])[H])C3([H])[H])C([H])(C([H])([H])[H])C([H])([H])[H])c([H])c([H])c2C1([H])[H]

$$$$
1:0:0
     RDKit          3D

 95102  0  0  1  0  0  0  0  0999 V2000
  -31.5780  -23.8580   15.7390 C   0  0  0  0  0  2  0  0  0  0  0  0
  -30.6390  -22.8100   15.9330 O   0  0  0  0  0  0  0  0  0  0  0  0
  -30.4310  -22.0180   14.7750 C   0  0  0  0  0  2  0  0  0  0  0  0
  -29.3590  -20.9770   15.1070 C   0  0  0  0  0  2  0  0  0  0  0  0
  -29.8770  -20.0460   16.0500 O   0  0  0  0  0  0  0  0  0  0  0  0
  -28.8750  -19.1610   16.5280 C   0  0  0  0  0  2  0  0  0  0  0  0
  -29.5210  -17.9660   17.2420 C   0  0  0  0  0  2  0  0  0  0  0  0
  -29.7280  -18.2170   18.6330 O   0  0  0  0  0  0  0  0  0  0  0  0
  -30.2980  -17.0830   19.2740 C   0  0  0  0  0  2  0  0  0  0  0  0
  -30.1250  -17.1260   20.8130 C   0  0  0  0  0  2  0  0  0  0  0  0
  -30.7980  -14.7600   21.1780 C   0  0  0  0  0  0  0  0  0  0  0  0
  -30.6830  -12.5480   20.1280 C   0  0  0  0  0  2  0  0  0  0  0  0
  -29.8790  -12.7080   18.8190 C   0  0  0  0  0  2  0  0  0  0  0  0
  -28.3630  -12.5670   19.0830 C   0  0  0  0  0  2  0  0  0  0  0  0
  -27.8760  -13.4340   20.2740 C   0  0  0  0  0  3  0  0  0  0  0  0
  -28.8050  -13.2590   21.4970 C   0  0  0  0  0  2  0  0  0  0  0  0
  -30.1840  -13.5560   21.0720 N   0  0  0  0  0  0  0  0  0  0  0  0
  -31.9700  -14.9650   20.8580 O   0  0  0  0  0  0  0  0  0  0  0  0
  -29.9540  -15.7810   21.3730 N   0  0  0  0  0  0  0  0  0  0  0  0
  -29.0160  -15.5260   21.6410 H   0  0  0  0  0  0  0  0  0  0  0  0
  -25.4050  -14.0230   20.7070 C   0  0  0  0  0  0  0  0  0  0  0  0
  -24.3130  -13.2430   20.9800 C   0  0  0  0  0  0  0  0  0  0  0  0
  -24.7930  -11.8990   21.0240 C   0  0  0  0  0  0  0  0  0  0  0  0
  -26.4800  -13.1540   20.6090 N   0  0  0  0  0  0  0  0  0  0  0  0
  -26.1080  -11.8710   20.8520 N   0  0  0  0  0  0  0  0  0  0  0  0
  -24.0650  -10.6300   21.1610 C   0  0  0  0  0  0  0  0  0  0  0  0
  -24.4340   -9.6690   22.1290 C   0  0  0  0  0  3  0  0  0  0  0  0
  -23.7110   -8.4650   22.2540 C   0  0  0  0  0  3  0  0  0  0  0  0
  -22.6010   -8.2130   21.4130 C   0  0  0  0  0  0  0  0  0  0  0  0
  -22.2490   -9.1620   20.4390 C   0  0  0  0  0  3  0  0  0  0  0  0
  -22.9750  -10.3580   20.3100 C   0  0  0  0  0  3  0  0  0  0  0  0
  -21.8520   -7.0610   21.4470 O   0  0  0  0  0  0  0  0  0  0  0  0
  -21.7410   -6.3070   22.5890 C   0  0  0  0  0  0  0  0  0  0  0  0
  -21.2530   -6.8520   23.7960 C   0  0  0  0  0  3  0  0  0  0  0  0
  -21.0880   -6.0260   24.9270 C   0  0  0  0  0  3  0  0  0  0  0  0
  -21.4020   -4.6550   24.8480 C   0  0  0  0  0  0  0  0  0  0  0  0
  -21.8840   -4.1100   23.6450 C   0  0  0  0  0  3  0  0  0  0  0  0
  -22.0480   -4.9340   22.5180 C   0  0  0  0  0  0  0  0  0  0  0  0
  -22.4920   -4.4000   21.3540 F   0  0  0  0  0  0  0  0  0  0  0  0
  -21.2390   -3.8580   25.9300 F   0  0  0  0  0  0  0  0  0  0  0  0
  -22.8900  -13.7060   21.1000 C   0  0  0  0  0  0  0  0  0  0  0  0
  -22.0860  -13.0200   21.9060 N   0  0  0  0  0  0  0  0  0  0  0  0
  -22.4930  -14.7100   20.5110 O   0  0  0  0  0  0  0  0  0  0  0  0
  -22.4150  -12.2080   22.4070 H   0  0  0  0  0  0  0  0  0  0  0  0
  -21.1280  -13.3140   22.0270 H   0  0  0  0  0  0  0  0  0  0  0  0
  -25.5700  -15.3930   20.5150 N   0  0  0  0  0  0  0  0  0  0  0  0
  -24.7860  -16.0370   20.5110 H   0  0  0  0  0  0  0  0  0  0  0  0
  -26.4420  -15.8340   20.2540 H   0  0  0  0  0  0  0  0  0  0  0  0
  -31.7180  -24.6020   17.0710 C   0  0  0  0  0  2  0  0  0  0  0  0
  -30.1180  -25.6010   18.6960 C   0  0  0  0  0  0  0  0  0  0  0  0
  -30.3950  -24.9990   17.5370 N   0  0  0  0  0  0  0  0  0  0  0  0
  -30.9990  -25.9480   19.4880 O   0  0  0  0  0  0  0  0  0  0  0  0
  -29.6180  -24.7210   16.9510 H   0  0  0  0  0  0  0  0  0  0  0  0
  -28.6330  -25.8380   18.9910 C   0  0  0  0  0  2  0  0  0  0  0  0
  -28.4750  -26.8040   20.0330 O   0  0  0  0  0  0  0  0  0  0  0  0
  -24.6110  -31.8650   23.2160 C   0  0  0  0  0  0  0  0  0  0  0  0
  -27.2660  -27.4630   20.0900 C   0  0  0  0  0  0  0  0  0  0  0  0
  -23.4040  -30.4670   21.5730 C   0  0  0  0  0  3  0  0  0  0  0  0
  -24.8550  -28.9370   20.1450 C   0  0  0  0  0  0  0  0  0  0  0  0
  -25.9270  -30.8330   21.3700 C   0  0  0  0  0  2  0  0  0  0  0  0
  -26.0110  -29.4630   20.7320 C   0  0  0  0  0  0  0  0  0  0  0  0
  -27.2160  -28.7280   20.7150 C   0  0  0  0  0  3  0  0  0  0  0  0
  -26.0810  -26.9320   19.5290 C   0  0  0  0  0  3  0  0  0  0  0  0
  -24.8810  -27.6640   19.5510 C   0  0  0  0  0  3  0  0  0  0  0  0
  -23.6110  -29.7920   20.1910 C   0  0  0  0  0  2  0  0  0  0  0  0
  -24.6660  -31.0700   22.1110 N   0  0  0  0  0  0  0  0  0  0  0  0
  -23.5300  -32.1320   23.7590 O   0  0  0  0  0  0  0  0  0  0  0  0
  -22.7590  -29.4390   22.5280 C   0  0  0  0  0  0  0  0  0  0  0  0
  -21.4320  -29.2650   22.4110 N   0  0  0  0  0  0  0  0  0  0  0  0
  -23.4480  -28.8000   23.3290 O   0  0  0  0  0  0  0  0  0  0  0  0
  -20.9380  -29.8330   21.7390 H   0  0  0  0  0  0  0  0  0  0  0  0
  -18.0550  -28.0920   22.9290 C   0  0  0  0  0  0  0  0  0  0  0  0
  -20.6170  -28.3250   23.1810 C   0  0  0  0  0  3  0  0  0  0  0  0
  -20.7020  -26.8990   22.5900 C   0  0  0  0  0  2  0  0  0  0  0  0
  -19.5880  -26.5960   21.5820 C   0  0  0  0  0  2  0  0  0  0  0  0
  -18.2140  -26.7470   22.2400 C   0  0  0  0  0  2  0  0  0  0  0  0
  -19.1850  -28.8390   23.3570 C   0  0  0  0  0  0  0  0  0  0  0  0
  -18.9820  -30.1000   23.9600 C   0  0  0  0  0  3  0  0  0  0  0  0
  -17.6840  -30.6130   24.1400 C   0  0  0  0  0  3  0  0  0  0  0  0
  -16.5690  -29.8600   23.7300 C   0  0  0  0  0  3  0  0  0  0  0  0
  -16.7560  -28.6020   23.1310 C   0  0  0  0  0  3  0  0  0  0  0  0
  -25.8980  -32.4950   23.8350 C   0  0  0  0  0  3  0  0  0  0  0  0
  -26.4260  -31.7140   25.0990 C   0  0  1  0  0  0  0  0  0  0  0  0
  -25.3420  -31.4640   26.1740 C   0  0  0  0  0  1  0  0  0  0  0  0
  -27.0080  -30.3410   24.6880 C   0  0  0  0  0  1  0  0  0  0  0  0
  -27.5790  -32.5050   25.7610 C   0  0  0  0  0  1  0  0  0  0  0  0
  -25.5860  -33.8890   24.1760 N   0  0  0  0  0  0  0  0  0  0  0  0
  -25.9150  -34.9470   23.4250 C   0  0  0  0  0  0  0  0  0  0  0  0
  -26.5860  -34.8530   22.3940 O   0  0  0  0  0  0  0  0  0  0  0  0
  -24.9890  -34.0350   24.9770 H   0  0  0  0  0  0  0  0  0  0  0  0
  -24.1820  -36.7370   23.0800 C   0  0  0  0  0  1  0  0  0  0  0  0
  -25.4210  -36.3300   23.8910 C   0  0  0  0  0  3  0  0  0  0  0  0
  -27.5560  -37.2120   24.7280 C   0  0  0  0  0  1  0  0  0  0  0  0
  -26.4510  -37.3880   23.7900 N   0  0  0  0  0  0  0  0  0  0  0  0
  -26.0430  -38.3050   23.9470 H   0  0  0  0  0  0  0  0  0  0  0  0
  1  2  1  0
  1 49  1  0
  3  4  1  0
  3  2  1  0
  4  5  1  0
  5  6  1  0
  6  7  1  0
  7  8  1  0
  8  9  1  0
  9 10  1  0
 10 19  1  0
 11 19  1  0
 12 17  1  0
 13 14  1  0
 13 12  1  0
 15 14  1  0
 15 24  1  0
 15 16  1  0
 17 11  1  0
 17 16  1  0
 18 11  2  0
 19 20  1  0
 21 22  2  0
 22 23  1  0
 22 41  1  0
 23 26  1  0
 24 21  1  0
 24 25  1  0
 25 23  2  0
 26 27  1  0
 27 28  2  0
 29 32  1  0
 29 28  1  0
 30 29  2  0
 31 30  1  0
 31 26  2  0
 32 33  1  0
 33 34  1  0
 34 35  2  0
 36 35  1  0
 36 40  1  0
 37 36  2  0
 38 33  2  0
 38 37  1  0
 39 38  1  0
 41 42  1  0
 42 45  1  0
 42 44  1  0
 43 41  2  0
 46 21  1  0
 47 46  1  0
 48 46  1  0
 49 51  1  0
 50 54  1  0
 50 52  2  0
 51 50  1  0
 53 51  1  0
 54 55  1  0
 55 57  1  0
 56 67  2  0
 57 62  1  0
 58 66  1  0
 58 68  1  0
 59 65  1  0
 59 61  1  0
 60 66  1  0
 61 60  1  0
 62 61  2  0
 63 64  1  0
 63 57  2  0
 64 59  2  0
 65 58  1  0
 66 56  1  0
 68 70  2  0
 69 68  1  0
 71 69  1  0
 72 81  2  0
 72 77  1  0
 73 69  1  0
 73 77  1  0
 74 73  1  0
 75 76  1  0
 75 74  1  0
 76 72  1  0
 77 78  2  0
 78 79  1  0
 80 79  2  0
 81 80  1  0
 82 56  1  0
 82 87  1  0
 82 83  1  0
 83 86  1  1
 83 84  1  0
 85 83  1  0
 87 90  1  0
 88 92  1  0
 88 87  1  0
 89 88  2  0
 92 91  1  0
 94 92  1  0
 94 95  1  0
 94 93  1  0
M  ISO  4  11 100  19 100  54 101  55 101
M  END
>  <TORSDO>  (2) 
F 28

>  <SCORE>  (2) 
-10.541

>  <name>  (2) 
1

>  <ligand_id>  (2) 
1

>  <original_smiles>  (2) 
[H]c1c([H])c([H])c2c(c1[H])C([H])([H])C([H])([H])C([H])([H])C2([H])N([H])C(=O)C1([H])N(C(=O)C([H])(N([H])C(=O)C([H])(N([H])C([H])([H])[H])C([H])([H])[H])C(C([H])([H])[H])(C([H])([H])[H])C([H])([H])[H])C([H])([H])c2c([H])c(OC([H])([H])C(=O)N([H])C([H])([H])C([H])([H])OC([H])([H])C([H])([H])OC([H])([H])C([H])([H])OC([H])([H])C([H])([H])N([H])C(=O)N3C([H])([H])C([H])([H])C([H])([H])C([H])(n4nc(-c5c([H])c([H])c(Oc6c([H])c([H])c(F)c([H])c6F)c([H])c5[H])c(C(=O)N([H])[H])c4N([H])[H])C3([H])[H])c([H])c([H])c2C1([H])[H]

>  <smiles>  (2) 
[H]c1c([H])c([H])c2c(c1[H])C([H])([H])C([H])([H])C([H])([H])C2([H])N([H])C(=O)C1([H])N(C(=O)C([H])(N([H])C(=O)C([H])(N([H])C([H])([H])[H])C([H])([H])[H])C(C([H])([H])[H])(C([H])([H])[H])C([H])([H])[H])C([H])([H])c2c([H])c(OC([H])([H])C(=O)N([H])C([H])([H])C([H])([H])OC([H])([H])C([H])([H])OC([H])([H])C([H])([H])OC([H])([H])C([H])([H])N([H])C(=O)N3C([H])([H])C([H])([H])C([H])([H])C([H])(n4nc(-c5c([H])c([H])c(Oc6c([H])c([H])c(F)c([H])c6F)c([H])c5[H])c(C(=O)N([H])[H])c4N([H])[H])C3([H])[H])c([H])c([H])c2C1([H])[H]

$$$$
2:0:0
     RDKit          3D

104111  0  0  1  0  0  0  0  0999 V2000
  -31.9500  -24.0140   16.7340 C   0  0  0  0  0  0  0  0  0  0  0  0
  -32.8780  -23.0980   17.0300 N   0  0  0  0  0  0  0  0  0  0  0  0
  -31.6580  -24.9410   17.4920 O   0  0  0  0  0  0  0  0  0  0  0  0
  -33.0720  -22.3850   16.3410 H   0  0  0  0  0  0  0  0  0  0  0  0
  -31.4210  -25.0330   14.4860 C   0  0  0  0  0  1  0  0  0  0  0  0
  -31.1750  -23.8340   15.4220 C   0  0  0  0  0  3  0  0  0  0  0  0
  -29.7450  -23.7320   15.7680 N   0  0  0  0  0  4  0  0  0  0  0  0
  -29.6210  -24.4170   16.5010 H   0  0  0  0  0  0  0  0  0  0  0  0
  -29.1670  -23.9830   14.9830 H   0  0  0  0  0  0  0  0  0  0  0  0
  -29.3010  -22.4360   16.3370 C   0  0  0  0  0  2  0  0  0  0  0  0
  -28.2590  -22.6960   17.4260 C   0  0  0  0  0  2  0  0  0  0  0  0
  -28.8450  -23.5870   18.3790 O   0  0  0  0  0  0  0  0  0  0  0  0
  -27.9170  -24.5520   18.8550 C   0  0  0  0  0  2  0  0  0  0  0  0
  -28.3860  -25.3010   20.1250 C   0  0  0  0  0  2  0  0  0  0  0  0
  -28.4090  -26.7330   20.0280 O   0  0  0  0  0  0  0  0  0  0  0  0
  -24.6160  -31.8700   23.2130 C   0  0  0  0  0  0  0  0  0  0  0  0
  -27.2180  -27.4330   20.0830 C   0  0  0  0  0  0  0  0  0  0  0  0
  -23.4010  -30.4980   21.5570 C   0  0  0  0  0  3  0  0  0  0  0  0
  -24.8360  -28.9680   20.1260 C   0  0  0  0  0  0  0  0  0  0  0  0
  -25.9310  -30.8370   21.3630 C   0  0  0  0  0  2  0  0  0  0  0  0
  -26.0040  -29.4730   20.7110 C   0  0  0  0  0  0  0  0  0  0  0  0
  -27.1970  -28.7150   20.6810 C   0  0  0  0  0  3  0  0  0  0  0  0
  -26.0160  -26.9400   19.5200 C   0  0  0  0  0  3  0  0  0  0  0  0
  -24.8380  -27.6990   19.5340 C   0  0  0  0  0  3  0  0  0  0  0  0
  -23.6030  -29.8360   20.1720 C   0  0  0  0  0  2  0  0  0  0  0  0
  -24.6690  -31.0820   22.1030 N   0  0  0  0  0  0  0  0  0  0  0  0
  -23.5360  -32.1430   23.7540 O   0  0  0  0  0  0  0  0  0  0  0  0
  -22.7410  -29.4690   22.5050 C   0  0  0  0  0  0  0  0  0  0  0  0
  -21.4140  -29.3040   22.3750 N   0  0  0  0  0  0  0  0  0  0  0  0
  -23.4170  -28.8240   23.3080 O   0  0  0  0  0  0  0  0  0  0  0  0
  -20.9300  -29.8720   21.6940 H   0  0  0  0  0  0  0  0  0  0  0  0
  -18.0270  -28.1380   22.8510 C   0  0  0  0  0  0  0  0  0  0  0  0
  -20.5870  -28.3670   23.1340 C   0  0  0  0  0  3  0  0  0  0  0  0
  -20.6780  -26.9420   22.5410 C   0  0  0  0  0  2  0  0  0  0  0  0
  -19.5750  -26.6410   21.5210 C   0  0  0  0  0  2  0  0  0  0  0  0
  -18.1930  -26.7940   22.1620 C   0  0  0  0  0  2  0  0  0  0  0  0
  -19.1520  -28.8840   23.2920 C   0  0  0  0  0  0  0  0  0  0  0  0
  -18.9450  -30.1450   23.8920 C   0  0  0  0  0  3  0  0  0  0  0  0
  -17.6450  -30.6600   24.0570 C   0  0  0  0  0  3  0  0  0  0  0  0
  -16.5350  -29.9100   23.6340 C   0  0  0  0  0  3  0  0  0  0  0  0
  -16.7260  -28.6510   23.0360 C   0  0  0  0  0  3  0  0  0  0  0  0
  -25.9060  -32.4830   23.8410 C   0  0  0  0  0  3  0  0  0  0  0  0
  -25.5950  -33.8640   24.2340 N   0  0  0  0  0  0  0  0  0  0  0  0
  -25.9060  -34.9480   23.5120 C   0  0  0  0  0  0  0  0  0  0  0  0
  -26.5590  -34.8930   22.4680 O   0  0  0  0  0  0  0  0  0  0  0  0
  -25.0150  -33.9800   25.0520 H   0  0  0  0  0  0  0  0  0  0  0  0
  -24.1500  -36.7310   23.2640 C   0  0  0  0  0  1  0  0  0  0  0  0
  -25.4110  -36.3120   24.0340 C   0  0  0  0  0  3  0  0  0  0  0  0
  -27.5580  -37.1810   24.8470 C   0  0  0  0  0  1  0  0  0  0  0  0
  -26.4290  -37.3800   23.9420 N   0  0  0  0  0  0  0  0  0  0  0  0
  -26.0180  -38.2880   24.1420 H   0  0  0  0  0  0  0  0  0  0  0  0
  -26.4480  -31.6600   25.0730 C   0  0  1  0  0  0  0  0  0  0  0  0
  -25.3740  -31.3650   26.1460 C   0  0  0  0  0  1  0  0  0  0  0  0
  -27.0300  -30.3060   24.6080 C   0  0  0  0  0  1  0  0  0  0  0  0
  -27.6090  -32.4290   25.7460 C   0  0  0  0  0  1  0  0  0  0  0  0
  -33.5240  -22.9540   18.3330 C   0  0  0  0  0  2  0  0  0  0  0  0
  -33.5420  -21.4730   18.7440 C   0  0  0  0  0  2  0  0  0  0  0  0
  -32.2020  -20.9880   18.8230 O   0  0  0  0  0  0  0  0  0  0  0  0
  -32.1370  -19.5800   19.0320 C   0  0  0  0  0  2  0  0  0  0  0  0
  -30.6800  -19.0850   18.9940 C   0  0  0  0  0  2  0  0  0  0  0  0
  -30.0790  -19.1580   20.2860 O   0  0  0  0  0  0  0  0  0  0  0  0
  -28.7780  -18.5740   20.3200 C   0  0  0  0  0  2  0  0  0  0  0  0
  -28.2270  -18.5150   21.7580 C   0  0  0  0  0  2  0  0  0  0  0  0
  -28.5430  -17.2970   22.4310 O   0  0  0  0  0  0  0  0  0  0  0  0
  -29.8650  -17.2140   22.9500 C   0  0  0  0  0  2  0  0  0  0  0  0
  -30.7990  -16.4850   21.9760 C   0  0  0  0  0  2  0  0  0  0  0  0
  -30.7430  -14.3810   20.6740 C   0  0  0  0  0  0  0  0  0  0  0  0
  -30.4220  -12.2840   19.4200 C   0  0  0  0  0  2  0  0  0  0  0  0
  -29.4930  -12.4990   18.2080 C   0  0  0  0  0  2  0  0  0  0  0  0
  -28.0140  -12.3520   18.6200 C   0  0  0  0  0  2  0  0  0  0  0  0
  -27.6640  -13.1940   19.8780 C   0  0  0  0  0  3  0  0  0  0  0  0
  -28.6970  -12.9470   21.0010 C   0  0  0  0  0  2  0  0  0  0  0  0
  -30.0390  -13.2390   20.4670 N   0  0  0  0  0  0  0  0  0  0  0  0
  -31.7900  -14.6580   20.0810 O   0  0  0  0  0  0  0  0  0  0  0  0
  -30.2200  -15.2110   21.5800 N   0  0  0  0  0  0  0  0  0  0  0  0
  -29.3320  -14.9650   21.9940 H   0  0  0  0  0  0  0  0  0  0  0  0
  -25.2590  -13.8150   20.5650 C   0  0  0  0  0  0  0  0  0  0  0  0
  -24.1820  -13.0450   20.9130 C   0  0  0  0  0  0  0  0  0  0  0  0
  -24.6350  -11.6910   20.8680 C   0  0  0  0  0  0  0  0  0  0  0  0
  -26.3010  -12.9290   20.3330 N   0  0  0  0  0  0  0  0  0  0  0  0
  -25.9270  -11.6460   20.5720 N   0  0  0  0  0  0  0  0  0  0  0  0
  -23.9010  -10.4290   21.0390 C   0  0  0  0  0  0  0  0  0  0  0  0
  -24.3580   -9.4220   21.9180 C   0  0  0  0  0  3  0  0  0  0  0  0
  -23.6270   -8.2240   22.0750 C   0  0  0  0  0  3  0  0  0  0  0  0
  -22.4240   -8.0270   21.3550 C   0  0  0  0  0  0  0  0  0  0  0  0
  -21.9860   -9.0230   20.4640 C   0  0  0  0  0  3  0  0  0  0  0  0
  -22.7180  -10.2120   20.3040 C   0  0  0  0  0  3  0  0  0  0  0  0
  -21.6640   -6.8850   21.4240 O   0  0  0  0  0  0  0  0  0  0  0  0
  -21.6840   -6.0720   22.5290 C   0  0  0  0  0  0  0  0  0  0  0  0
  -21.4020   -6.5630   23.8230 C   0  0  0  0  0  3  0  0  0  0  0  0
  -21.3660   -5.6790   24.9190 C   0  0  0  0  0  3  0  0  0  0  0  0
  -21.6040   -4.3040   24.7230 C   0  0  0  0  0  0  0  0  0  0  0  0
  -21.8830   -3.8130   23.4340 C   0  0  0  0  0  3  0  0  0  0  0  0
  -21.9180   -4.6950   22.3400 C   0  0  0  0  0  0  0  0  0  0  0  0
  -22.1640   -4.2130   21.0980 F   0  0  0  0  0  0  0  0  0  0  0  0
  -21.5620   -3.4540   25.7740 F   0  0  0  0  0  0  0  0  0  0  0  0
  -22.7840  -13.5230   21.1810 C   0  0  0  0  0  0  0  0  0  0  0  0
  -22.0510  -12.8220   22.0400 N   0  0  0  0  0  0  0  0  0  0  0  0
  -22.3500  -14.5530   20.6650 O   0  0  0  0  0  0  0  0  0  0  0  0
  -22.4130  -11.9860   22.4740 H   0  0  0  0  0  0  0  0  0  0  0  0
  -21.1140  -13.1230   22.2680 H   0  0  0  0  0  0  0  0  0  0  0  0
  -25.4390  -15.1850   20.4070 N   0  0  0  0  0  0  0  0  0  0  0  0
  -24.6880  -15.8490   20.5560 H   0  0  0  0  0  0  0  0  0  0  0  0
  -26.3120  -15.6240   20.1410 H   0  0  0  0  0  0  0  0  0  0  0  0
  1  2  1  0
  1  3  2  0
  2 56  1  0
  4  2  1  0
  6  5  1  0
  6  7  1  0
  6  1  1  0
  7 10  1  0
  7  8  1  0
  9  7  1  0
 10 11  1  0
 11 12  1  0
 12 13  1  0
 13 14  1  0
 15 17  1  0
 15 14  1  0
 16 27  2  0
 17 22  1  0
 18 26  1  0
 18 28  1  0
 19 25  1  0
 19 21  1  0
 20 26  1  0
 21 20  1  0
 22 21  2  0
 23 24  1  0
 23 17  2  0
 24 19  2  0
 25 18  1  0
 26 16  1  0
 28 30  2  0
 29 28  1  0
 31 29  1  0
 32 41  2  0
 32 37  1  0
 33 29  1  0
 33 37  1  0
 34 33  1  0
 35 36  1  0
 35 34  1  0
 36 32  1  0
 37 38  2  0
 38 39  1  0
 40 39  2  0
 41 40  1  0
 42 16  1  0
 42 43  1  0
 42 52  1  0
 43 46  1  0
 44 48  1  0
 44 43  1  0
 45 44  2  0
 48 47  1  0
 50 48  1  0
 50 51  1  0
 50 49  1  0
 52 55  1  1
 52 53  1  0
 54 52  1  0
 56 57  1  0
 57 58  1  0
 58 59  1  0
 60 59  1  0
 60 61  1  0
 61 62  1  0
 62 63  1  0
 63 64  1  0
 64 65  1  0
 66 65  1  0
 67 75  1  0
 68 73  1  0
 69 70  1  0
 69 68  1  0
 71 70  1  0
 71 80  1  0
 71 72  1  0
 73 67  1  0
 73 72  1  0
 74 67  2  0
 75 66  1  0
 75 76  1  0
 77 78  2  0
 78 97  1  0
 79 78  1  0
 79 82  1  0
 80 77  1  0
 80 81  1  0
 81 79  2  0
 82 83  1  0
 83 84  2  0
 85 88  1  0
 85 84  1  0
 86 85  2  0
 87 86  1  0
 87 82  2  0
 88 89  1  0
 89 90  1  0
 90 91  2  0
 92 91  1  0
 92 96  1  0
 93 92  2  0
 94 89  2  0
 94 93  1  0
 95 94  1  0
 97 98  1  0
 98101  1  0
 98100  1  0
 99 97  2  0
102103  1  0
102 77  1  0
104102  1  0
M  ISO  4  14 101  15 101  67 100  75 100
M  END
>  <TORSDO>  (3) 
F 34

>  <SCORE>  (3) 
-5.795

>  <name>  (3) 
2

>  <ligand_id>  (3) 
2

>  <original_smiles>  (3) 
[H]c1c([H])c([H])c2c(c1[H])C([H])([H])C([H])([H])C([H])([H])C2([H])N([H])C(=O)C1([H])N(C(=O)C([H])(N([H])C(=O)C([H])(N([H])C([H])([H])[H])C([H])([H])[H])C(C([H])([H])[H])(C([H])([H])[H])C([H])([H])[H])C([H])([H])c2c([H])c(OC([H])([H])C([H])([H])OC([H])([H])C([H])([H])[N+]([H])([H])C([H])(C(=O)N([H])C([H])([H])C([H])([H])OC([H])([H])C([H])([H])OC([H])([H])C([H])([H])OC([H])([H])C([H])([H])N([H])C(=O)N3C([H])([H])C([H])([H])C([H])([H])C([H])(n4nc(-c5c([H])c([H])c(Oc6c([H])c([H])c(F)c([H])c6F)c([H])c5[H])c(C(=O)N([H])[H])c4N([H])[H])C3([H])[H])C([H])([H])[H])c([H])c([H])c2C1([H])[H]

>  <smiles>  (3) 
[H]c1c([H])c([H])c2c(c1[H])C([H])([H])C([H])([H])C([H])([H])C2([H])N([H])C(=O)C1([H])N(C(=O)C([H])(N([H])C(=O)C([H])(N([H])C([H])([H])[H])C([H])([H])[H])C(C([H])([H])[H])(C([H])([H])[H])C([H])([H])[H])C([H])([H])c2c([H])c(OC([H])([H])C([H])([H])OC([H])([H])C([H])([H])[N+]([H])([H])C([H])(C(=O)N([H])C([H])([H])C([H])([H])OC([H])([H])C([H])([H])OC([H])([H])C([H])([H])OC([H])([H])C([H])([H])N([H])C(=O)N3C([H])([H])C([H])([H])C([H])([H])C([H])(n4nc(-c5c([H])c([H])c(Oc6c([H])c([H])c(F)c([H])c6F)c([H])c5[H])c(C(=O)N([H])[H])c4N([H])[H])C3([H])[H])C([H])([H])[H])c([H])c([H])c2C1([H])[H]

$$$$
3:0:0
     RDKit          3D

 95102  0  0  1  0  0  0  0  0999 V2000
  -29.4040  -20.5270   20.0440 C   0  0  0  0  0  0  0  0  0  0  0  0
  -29.3730  -19.2600   20.5240 N   0  0  0  0  0  0  0  0  0  0  0  0
  -30.1190  -20.8310   19.0880 O   0  0  0  0  0  0  0  0  0  0  0  0
  -28.7540  -19.0850   21.3020 H   0  0  0  0  0  0  0  0  0  0  0  0
  -28.4660  -21.6050   20.6740 C   0  0  0  0  0  2  0  0  0  0  0  0
  -28.9810  -22.9540   20.5290 O   0  0  0  0  0  0  0  0  0  0  0  0
  -27.9910  -24.0130   20.4470 C   0  0  0  0  0  2  0  0  0  0  0  0
  -28.4310  -25.3560   21.1250 C   0  0  0  0  0  2  0  0  0  0  0  0
  -28.4150  -26.5740   20.3360 O   0  0  0  0  0  0  0  0  0  0  0  0
  -24.5660  -31.8810   23.2300 C   0  0  0  0  0  0  0  0  0  0  0  0
  -27.2530  -27.3230   20.3380 C   0  0  0  0  0  0  0  0  0  0  0  0
  -23.3900  -30.4390   21.6010 C   0  0  0  0  0  3  0  0  0  0  0  0
  -24.8690  -28.8580   20.2500 C   0  0  0  0  0  0  0  0  0  0  0  0
  -25.9220  -30.7830   21.4430 C   0  0  0  0  0  2  0  0  0  0  0  0
  -26.0180  -29.3900   20.8450 C   0  0  0  0  0  0  0  0  0  0  0  0
  -27.2150  -28.6340   20.8800 C   0  0  0  0  0  3  0  0  0  0  0  0
  -26.0860  -26.8080   19.7390 C   0  0  0  0  0  3  0  0  0  0  0  0
  -24.8990  -27.5680   19.6900 C   0  0  0  0  0  3  0  0  0  0  0  0
  -23.6270  -29.7220   20.2440 C   0  0  0  0  0  2  0  0  0  0  0  0
  -24.6440  -31.0520   22.1490 N   0  0  0  0  0  0  0  0  0  0  0  0
  -23.4750  -32.1650   23.7420 O   0  0  0  0  0  0  0  0  0  0  0  0
  -22.7180  -29.4450   22.5760 C   0  0  0  0  0  0  0  0  0  0  0  0
  -21.3980  -29.2470   22.4160 N   0  0  0  0  0  0  0  0  0  0  0  0
  -23.3820  -28.8530   23.4310 O   0  0  0  0  0  0  0  0  0  0  0  0
  -20.9250  -29.7740   21.6950 H   0  0  0  0  0  0  0  0  0  0  0  0
  -18.0220  -28.0260   22.8440 C   0  0  0  0  0  0  0  0  0  0  0  0
  -20.5660  -28.3260   23.1920 C   0  0  0  0  0  3  0  0  0  0  0  0
  -20.7060  -26.8770   22.6720 C   0  0  0  0  0  2  0  0  0  0  0  0
  -19.6430  -26.5040   21.6340 C   0  0  0  0  0  2  0  0  0  0  0  0
  -18.2380  -26.6560   22.2240 C   0  0  0  0  0  2  0  0  0  0  0  0
  -19.1170  -28.8170   23.2840 C   0  0  0  0  0  0  0  0  0  0  0  0
  -18.8640  -30.0970   23.8220 C   0  0  0  0  0  3  0  0  0  0  0  0
  -17.5490  -30.5890   23.9240 C   0  0  0  0  0  3  0  0  0  0  0  0
  -16.4680  -29.7950   23.5030 C   0  0  0  0  0  3  0  0  0  0  0  0
  -16.7060  -28.5160   22.9670 C   0  0  0  0  0  3  0  0  0  0  0  0
  -25.8380  -32.5270   23.8590 C   0  0  0  0  0  3  0  0  0  0  0  0
  -25.5180  -33.9270   24.1680 N   0  0  0  0  0  0  0  0  0  0  0  0
  -25.8570  -34.9730   23.4030 C   0  0  0  0  0  0  0  0  0  0  0  0
  -26.5460  -34.8610   22.3840 O   0  0  0  0  0  0  0  0  0  0  0  0
  -24.9120  -34.0890   24.9590 H   0  0  0  0  0  0  0  0  0  0  0  0
  -24.1270  -36.7530   22.9950 C   0  0  0  0  0  1  0  0  0  0  0  0
  -25.3540  -36.3640   23.8340 C   0  0  0  0  0  3  0  0  0  0  0  0
  -27.4670  -37.2680   24.6990 C   0  0  0  0  0  1  0  0  0  0  0  0
  -26.3830  -37.4210   23.7320 N   0  0  0  0  0  0  0  0  0  0  0  0
  -25.9700  -38.3410   23.8640 H   0  0  0  0  0  0  0  0  0  0  0  0
  -26.3460  -31.7750   25.1510 C   0  0  1  0  0  0  0  0  0  0  0  0
  -25.2430  -31.5400   26.2080 C   0  0  0  0  0  1  0  0  0  0  0  0
  -26.9420  -30.3970   24.7790 C   0  0  0  0  0  1  0  0  0  0  0  0
  -27.4840  -32.5830   25.8160 C   0  0  0  0  0  1  0  0  0  0  0  0
  -29.8750  -18.0370   19.8390 C   0  0  0  0  0  3  0  0  0  0  0  0
  -28.6380  -17.4970   19.0920 C   0  0  0  0  0  0  0  0  0  0  0  0
  -28.5920  -17.6580   17.7770 N   0  0  0  0  0  0  0  0  0  0  0  0
  -27.7090  -16.9700   19.7020 O   0  0  0  0  0  0  0  0  0  0  0  0
  -29.3470  -18.1260   17.2930 H   0  0  0  0  0  0  0  0  0  0  0  0
  -27.7840  -17.3540   17.2530 H   0  0  0  0  0  0  0  0  0  0  0  0
  -30.2190  -17.2530   22.3280 C   0  0  0  0  0  1  0  0  0  0  0  0
  -30.5150  -16.9690   20.8410 C   0  0  0  0  0  3  0  0  0  0  0  0
  -30.9250  -14.5250   20.0840 C   0  0  0  0  0  0  0  0  0  0  0  0
  -30.6040  -12.3520   18.9410 C   0  0  0  0  0  2  0  0  0  0  0  0
  -29.6160  -12.5520   17.7710 C   0  0  0  0  0  2  0  0  0  0  0  0
  -28.1550  -12.4290   18.2510 C   0  0  0  0  0  2  0  0  0  0  0  0
  -27.8720  -13.2710   19.5250 C   0  0  0  0  0  3  0  0  0  0  0  0
  -28.9620  -13.0290   20.5930 C   0  0  0  0  0  2  0  0  0  0  0  0
  -30.2650  -13.3380   19.9790 N   0  0  0  0  0  0  0  0  0  0  0  0
  -32.0510  -14.7110   19.6140 O   0  0  0  0  0  0  0  0  0  0  0  0
  -30.1890  -15.5340   20.6050 N   0  0  0  0  0  0  0  0  0  0  0  0
  -29.2570  -15.2610   20.8810 H   0  0  0  0  0  0  0  0  0  0  0  0
  -25.5120  -13.9220   20.3210 C   0  0  0  0  0  0  0  0  0  0  0  0
  -24.4440  -13.1690   20.7260 C   0  0  0  0  0  0  0  0  0  0  0  0
  -24.8780  -11.8100   20.6790 C   0  0  0  0  0  0  0  0  0  0  0  0
  -26.5320  -13.0220   20.0530 N   0  0  0  0  0  0  0  0  0  0  0  0
  -26.1550  -11.7460   20.3260 N   0  0  0  0  0  0  0  0  0  0  0  0
  -24.1350  -10.5620   20.8970 C   0  0  0  0  0  0  0  0  0  0  0  0
  -24.5560   -9.6090   21.8490 C   0  0  0  0  0  3  0  0  0  0  0  0
  -23.8160   -8.4260   22.0520 C   0  0  0  0  0  3  0  0  0  0  0  0
  -22.6400   -8.1860   21.3030 C   0  0  0  0  0  0  0  0  0  0  0  0
  -22.2370   -9.1290   20.3390 C   0  0  0  0  0  3  0  0  0  0  0  0
  -22.9780  -10.3040   20.1340 C   0  0  0  0  0  3  0  0  0  0  0  0
  -21.8700   -7.0540   21.4130 O   0  0  0  0  0  0  0  0  0  0  0  0
  -21.7730   -6.3630   22.5940 C   0  0  0  0  0  0  0  0  0  0  0  0
  -21.3020   -6.9710   23.7780 C   0  0  0  0  0  3  0  0  0  0  0  0
  -21.1530   -6.2060   24.9520 C   0  0  0  0  0  3  0  0  0  0  0  0
  -21.4640   -4.8330   24.9420 C   0  0  0  0  0  0  0  0  0  0  0  0
  -21.9290   -4.2240   23.7630 C   0  0  0  0  0  3  0  0  0  0  0  0
  -22.0800   -4.9870   22.5910 C   0  0  0  0  0  0  0  0  0  0  0  0
  -22.5070   -4.3900   21.4530 F   0  0  0  0  0  0  0  0  0  0  0  0
  -21.3140   -4.0950   26.0670 F   0  0  0  0  0  0  0  0  0  0  0  0
  -23.0670  -13.6740   21.0480 C   0  0  0  0  0  0  0  0  0  0  0  0
  -22.3600  -12.9950   21.9440 N   0  0  0  0  0  0  0  0  0  0  0  0
  -22.6260  -14.7040   20.5380 O   0  0  0  0  0  0  0  0  0  0  0  0
  -22.7290  -12.1620   22.3780 H   0  0  0  0  0  0  0  0  0  0  0  0
  -21.4360  -13.3130   22.2010 H   0  0  0  0  0  0  0  0  0  0  0  0
  -25.6880  -15.2890   20.1420 N   0  0  0  0  0  0  0  0  0  0  0  0
  -24.9290  -15.9460   20.2890 H   0  0  0  0  0  0  0  0  0  0  0  0
  -26.5340  -15.7540   19.8080 H   0  0  0  0  0  0  0  0  0  0  0  0
  1  2  1  0
  1  5  1  0
  2  4  1  0
  3  1  2  0
  6  5  1  0
  7  6  1  0
  7  8  1  0
  9 11  1  0
  9  8  1  0
 10 21  2  0
 11 16  1  0
 12 20  1  0
 12 22  1  0
 13 15  1  0
 14 20  1  0
 15 16  2  0
 15 14  1  0
 17 11  2  0
 18 17  1  0
 18 13  2  0
 19 13  1  0
 19 12  1  0
 20 10  1  0
 22 24  2  0
 23 22  1  0
 25 23  1  0
 26 35  2  0
 26 31  1  0
 27 23  1  0
 27 31  1  0
 28 27  1  0
 29 30  1  0
 29 28  1  0
 30 26  1  0
 31 32  2  0
 32 33  1  0
 34 33  2  0
 35 34  1  0
 36 10  1  0
 36 37  1  0
 36 46  1  0
 37 40  1  0
 38 42  1  0
 38 37  1  0
 39 38  2  0
 42 41  1  0
 44 42  1  0
 44 45  1  0
 44 43  1  0
 46 49  1  1
 46 47  1  0
 48 46  1  0
 50 51  1  0
 50  2  1  0
 50 57  1  0
 51 53  2  0
 52 51  1  0
 54 52  1  0
 55 52  1  0
 57 56  1  0
 58 66  1  0
 59 64  1  0
 60 61  1  0
 60 59  1  0
 62 61  1  0
 62 71  1  0
 62 63  1  0
 64 58  1  0
 64 63  1  0
 65 58  2  0
 66 57  1  0
 66 67  1  0
 68 69  2  0
 69 88  1  0
 70 69  1  0
 70 73  1  0
 71 68  1  0
 71 72  1  0
 72 70  2  0
 73 74  1  0
 74 75  2  0
 76 79  1  0
 76 75  1  0
 77 76  2  0
 78 77  1  0
 78 73  2  0
 79 80  1  0
 80 81  1  0
 81 82  2  0
 83 82  1  0
 83 87  1  0
 84 83  2  0
 85 80  2  0
 85 84  1  0
 86 85  1  0
 88 89  1  0
 89 92  1  0
 89 91  1  0
 90 88  2  0
 93 94  1  0
 93 68  1  0
 95 93  1  0
M  ISO  4   8 101   9 101  58 100  66 100
M  END
>  <TORSDO>  (4) 
F 23

>  <SCORE>  (4) 
-12.987

>  <name>  (4) 
3

>  <ligand_id>  (4) 
3

>  <original_smiles>  (4) 
[H]c1c([H])c([H])c2c(c1[H])C([H])([H])C([H])([H])C([H])([H])C2([H])N([H])C(=O)C1([H])N(C(=O)C([H])(N([H])C(=O)C([H])(N([H])C([H])([H])[H])C([H])([H])[H])C(C([H])([H])[H])(C([H])([H])[H])C([H])([H])[H])C([H])([H])c2c([H])c(OC([H])([H])C([H])([H])OC([H])([H])C(=O)N([H])C([H])(C(=O)N([H])[H])C([H])(N([H])C(=O)N3C([H])([H])C([H])([H])C([H])([H])C([H])(n4nc(-c5c([H])c([H])c(Oc6c([H])c([H])c(F)c([H])c6F)c([H])c5[H])c(C(=O)N([H])[H])c4N([H])[H])C3([H])[H])C([H])([H])[H])c([H])c([H])c2C1([H])[H]

>  <smiles>  (4) 
[H]c1c([H])c([H])c2c(c1[H])C([H])([H])C([H])([H])C([H])([H])C2([H])N([H])C(=O)C1([H])N(C(=O)C([H])(N([H])C(=O)C([H])(N([H])C([H])([H])[H])C([H])([H])[H])C(C([H])([H])[H])(C([H])([H])[H])C([H])([H])[H])C([H])([H])c2c([H])c(OC([H])([H])C([H])([H])OC([H])([H])C(=O)N([H])C([H])(C(=O)N([H])[H])C([H])(N([H])C(=O)N3C([H])([H])C([H])([H])C([H])([H])C([H])(n4nc(-c5c([H])c([H])c(Oc6c([H])c([H])c(F)c([H])c6F)c([H])c5[H])c(C(=O)N([H])[H])c4N([H])[H])C3([H])[H])C([H])([H])[H])c([H])c([H])c2C1([H])[H]

$$$$
4:0:0
     RDKit          3D

 97104  0  0  1  0  0  0  0  0999 V2000
  -29.2020  -18.7530   16.9320 C   0  0  0  0  0  0  0  0  0  0  0  0
  -28.7270  -18.6880   18.1820 N   0  0  0  0  0  0  0  0  0  0  0  0
  -28.6450  -19.3930   16.0400 O   0  0  0  0  0  0  0  0  0  0  0  0
  -29.2630  -18.1190   18.8270 H   0  0  0  0  0  0  0  0  0  0  0  0
  -27.5800  -19.4220   18.7080 C   0  0  0  0  0  2  0  0  0  0  0  0
  -28.0020  -20.6770   19.5030 C   0  0  0  0  0  2  0  0  0  0  0  0
  -28.8980  -21.6590   18.7290 C   0  0  0  0  0  2  0  0  0  0  0  0
  -29.1660  -22.7800   19.5500 O   0  0  0  0  0  0  0  0  0  0  0  0
  -30.0530  -23.7140   18.9480 C   0  0  0  0  0  2  0  0  0  0  0  0
  -29.8880  -25.0520   19.6720 C   0  0  0  0  0  2  0  0  0  0  0  0
  -28.4560  -25.5880   19.5470 C   0  0  0  0  0  2  0  0  0  0  0  0
  -28.3610  -26.8260   20.2370 O   0  0  0  0  0  0  0  0  0  0  0  0
  -24.5390  -31.9690   23.2580 C   0  0  0  0  0  0  0  0  0  0  0  0
  -27.1530  -27.4860   20.2330 C   0  0  0  0  0  0  0  0  0  0  0  0
  -23.3150  -30.5490   21.6420 C   0  0  0  0  0  3  0  0  0  0  0  0
  -24.7520  -28.9780   20.2430 C   0  0  0  0  0  0  0  0  0  0  0  0
  -25.8390  -30.8930   21.4270 C   0  0  0  0  0  2  0  0  0  0  0  0
  -25.9110  -29.5110   20.8180 C   0  0  0  0  0  0  0  0  0  0  0  0
  -27.1090  -28.7680   20.8150 C   0  0  0  0  0  3  0  0  0  0  0  0
  -25.9690  -26.9530   19.6680 C   0  0  0  0  0  3  0  0  0  0  0  0
  -24.7740  -27.6950   19.6710 C   0  0  0  0  0  3  0  0  0  0  0  0
  -23.5130  -29.8420   20.2750 C   0  0  0  0  0  2  0  0  0  0  0  0
  -24.5830  -31.1530   22.1680 N   0  0  0  0  0  0  0  0  0  0  0  0
  -23.4600  -32.2580   23.7970 O   0  0  0  0  0  0  0  0  0  0  0  0
  -22.6630  -29.5490   22.6230 C   0  0  0  0  0  0  0  0  0  0  0  0
  -21.3430  -29.3500   22.4790 N   0  0  0  0  0  0  0  0  0  0  0  0
  -23.3400  -28.9510   23.4630 O   0  0  0  0  0  0  0  0  0  0  0  0
  -20.8580  -29.8840   21.7720 H   0  0  0  0  0  0  0  0  0  0  0  0
  -17.9740  -28.1320   22.9440 C   0  0  0  0  0  0  0  0  0  0  0  0
  -20.5210  -28.4260   23.2620 C   0  0  0  0  0  3  0  0  0  0  0  0
  -20.6510  -26.9790   22.7340 C   0  0  0  0  0  2  0  0  0  0  0  0
  -19.5740  -26.6130   21.7070 C   0  0  0  0  0  2  0  0  0  0  0  0
  -18.1780  -26.7630   22.3180 C   0  0  0  0  0  2  0  0  0  0  0  0
  -19.0740  -28.9190   23.3740 C   0  0  0  0  0  0  0  0  0  0  0  0
  -18.8300  -30.1980   23.9180 C   0  0  0  0  0  3  0  0  0  0  0  0
  -17.5170  -30.6910   24.0390 C   0  0  0  0  0  3  0  0  0  0  0  0
  -16.4310  -29.9010   23.6270 C   0  0  0  0  0  3  0  0  0  0  0  0
  -16.6600  -28.6230   23.0860 C   0  0  0  0  0  3  0  0  0  0  0  0
  -25.8330  -32.5990   23.8630 C   0  0  0  0  0  3  0  0  0  0  0  0
  -25.5410  -34.0060   24.1640 N   0  0  0  0  0  0  0  0  0  0  0  0
  -25.8910  -35.0370   23.3850 C   0  0  0  0  0  0  0  0  0  0  0  0
  -26.5690  -34.9050   22.3620 O   0  0  0  0  0  0  0  0  0  0  0  0
  -24.9410  -34.1850   24.9560 H   0  0  0  0  0  0  0  0  0  0  0  0
  -24.1980  -36.8490   22.9630 C   0  0  0  0  0  1  0  0  0  0  0  0
  -25.4150  -36.4400   23.8080 C   0  0  0  0  0  3  0  0  0  0  0  0
  -27.5420  -37.3100   24.6730 C   0  0  0  0  0  1  0  0  0  0  0  0
  -26.4660  -37.4750   23.6990 N   0  0  0  0  0  0  0  0  0  0  0  0
  -26.0710  -38.4040   23.8180 H   0  0  0  0  0  0  0  0  0  0  0  0
  -26.3470  -31.8460   25.1510 C   0  0  1  0  0  0  0  0  0  0  0  0
  -25.2540  -31.6320   26.2240 C   0  0  0  0  0  1  0  0  0  0  0  0
  -26.9210  -30.4580   24.7780 C   0  0  0  0  0  1  0  0  0  0  0  0
  -27.5030  -32.6450   25.7980 C   0  0  0  0  0  1  0  0  0  0  0  0
  -30.5130  -18.0050   16.6490 C   0  0  0  0  0  2  0  0  0  0  0  0
  -31.3100  -17.8670   17.8280 O   0  0  0  0  0  0  0  0  0  0  0  0
  -31.9650  -19.0580   18.2660 C   0  0  0  0  0  2  0  0  0  0  0  0
  -32.4380  -18.8420   19.7060 C   0  0  0  0  0  2  0  0  0  0  0  0
  -31.3220  -18.5100   20.5190 O   0  0  0  0  0  0  0  0  0  0  0  0
  -31.7200  -18.0670   21.8100 C   0  0  0  0  0  2  0  0  0  0  0  0
  -30.5650  -17.2890   22.4540 C   0  0  0  0  0  2  0  0  0  0  0  0
  -30.6400  -15.3750   20.7340 C   0  0  0  0  0  0  0  0  0  0  0  0
  -30.5810  -13.1590   19.6400 C   0  0  0  0  0  2  0  0  0  0  0  0
  -29.6910  -13.1190   18.3860 C   0  0  0  0  0  2  0  0  0  0  0  0
  -28.2220  -12.8470   18.7600 C   0  0  0  0  0  2  0  0  0  0  0  0
  -27.7190  -13.7780   19.8930 C   0  0  0  0  0  3  0  0  0  0  0  0
  -28.7130  -13.7880   21.0720 C   0  0  0  0  0  2  0  0  0  0  0  0
  -30.0460  -14.1680   20.5640 N   0  0  0  0  0  0  0  0  0  0  0  0
  -31.6180  -15.7410   20.0780 O   0  0  0  0  0  0  0  0  0  0  0  0
  -30.1380  -16.0620   21.7710 N   0  0  0  0  0  0  0  0  0  0  0  0
  -29.3680  -15.5850   22.2150 H   0  0  0  0  0  0  0  0  0  0  0  0
  -25.2710  -14.2100   20.5610 C   0  0  0  0  0  0  0  0  0  0  0  0
  -24.2500  -13.3590   20.8890 C   0  0  0  0  0  0  0  0  0  0  0  0
  -24.8030  -12.0420   20.8350 C   0  0  0  0  0  0  0  0  0  0  0  0
  -26.3760  -13.4070   20.3320 N   0  0  0  0  0  0  0  0  0  0  0  0
  -26.0970  -12.0970   20.5530 N   0  0  0  0  0  0  0  0  0  0  0  0
  -24.1610  -10.7290   20.9780 C   0  0  0  0  0  0  0  0  0  0  0  0
  -24.5950   -9.7970   21.9460 C   0  0  0  0  0  3  0  0  0  0  0  0
  -23.9500   -8.5490   22.0760 C   0  0  0  0  0  3  0  0  0  0  0  0
  -22.8590   -8.2220   21.2380 C   0  0  0  0  0  0  0  0  0  0  0  0
  -22.4460   -9.1440   20.2590 C   0  0  0  0  0  3  0  0  0  0  0  0
  -23.0920  -10.3850   20.1260 C   0  0  0  0  0  3  0  0  0  0  0  0
  -22.1870   -7.0250   21.2750 O   0  0  0  0  0  0  0  0  0  0  0  0
  -22.0440   -6.3140   22.4400 C   0  0  0  0  0  0  0  0  0  0  0  0
  -21.4090   -6.8640   23.5750 C   0  0  0  0  0  3  0  0  0  0  0  0
  -21.2240   -6.0760   24.7280 C   0  0  0  0  0  3  0  0  0  0  0  0
  -21.6630   -4.7380   24.7460 C   0  0  0  0  0  0  0  0  0  0  0  0
  -22.2900   -4.1880   23.6150 C   0  0  0  0  0  3  0  0  0  0  0  0
  -22.4780   -4.9730   22.4650 C   0  0  0  0  0  0  0  0  0  0  0  0
  -23.0630   -4.4310   21.3700 F   0  0  0  0  0  0  0  0  0  0  0  0
  -21.4770   -3.9790   25.8520 F   0  0  0  0  0  0  0  0  0  0  0  0
  -22.8200  -13.7320   21.1450 C   0  0  0  0  0  0  0  0  0  0  0  0
  -22.1290  -12.9730   21.9890 N   0  0  0  0  0  0  0  0  0  0  0  0
  -22.3180  -14.7310   20.6300 O   0  0  0  0  0  0  0  0  0  0  0  0
  -22.5450  -12.1650   22.4270 H   0  0  0  0  0  0  0  0  0  0  0  0
  -21.1690  -13.2040   22.2000 H   0  0  0  0  0  0  0  0  0  0  0  0
  -25.3490  -15.5930   20.4220 N   0  0  0  0  0  0  0  0  0  0  0  0
  -24.5450  -16.1990   20.5420 H   0  0  0  0  0  0  0  0  0  0  0  0
  -26.1870  -16.0960   20.1590 H   0  0  0  0  0  0  0  0  0  0  0  0
  1  2  1  0
  2  5  1  0
  2  4  1  0
  3  1  2  0
  5  6  1  0
  7  6  1  0
  7  8  1  0
  9  8  1  0
  9 10  1  0
 11 10  1  0
 11 12  1  0
 13 24  2  0
 14 12  1  0
 14 19  1  0
 15 23  1  0
 15 25  1  0
 16 22  1  0
 16 18  1  0
 17 23  1  0
 18 17  1  0
 19 18  2  0
 20 21  1  0
 20 14  2  0
 21 16  2  0
 22 15  1  0
 23 13  1  0
 25 27  2  0
 26 25  1  0
 28 26  1  0
 29 38  2  0
 29 34  1  0
 30 26  1  0
 30 34  1  0
 31 30  1  0
 32 33  1  0
 32 31  1  0
 33 29  1  0
 34 35  2  0
 35 36  1  0
 37 36  2  0
 38 37  1  0
 39 13  1  0
 39 40  1  0
 39 49  1  0
 40 43  1  0
 41 45  1  0
 41 40  1  0
 42 41  2  0
 45 44  1  0
 47 45  1  0
 47 48  1  0
 47 46  1  0
 49 52  1  1
 49 50  1  0
 51 49  1  0
 53  1  1  0
 53 54  1  0
 54 55  1  0
 55 56  1  0
 56 57  1  0
 57 58  1  0
 58 59  1  0
 60 68  1  0
 61 66  1  0
 62 63  1  0
 62 61  1  0
 64 63  1  0
 64 73  1  0
 64 65  1  0
 66 60  1  0
 66 65  1  0
 67 60  2  0
 68 69  1  0
 68 59  1  0
 70 71  2  0
 71 90  1  0
 72 71  1  0
 72 75  1  0
 73 74  1  0
 73 70  1  0
 74 72  2  0
 75 76  1  0
 76 77  2  0
 78 81  1  0
 78 77  1  0
 79 78  2  0
 80 79  1  0
 80 75  2  0
 81 82  1  0
 82 87  2  0
 82 83  1  0
 83 84  2  0
 84 85  1  0
 85 89  1  0
 86 85  2  0
 87 86  1  0
 88 87  1  0
 90 91  1  0
 91 94  1  0
 91 93  1  0
 92 90  2  0
 95 96  1  0
 95 70  1  0
 97 95  1  0
M  ISO  4  11 101  12 101  60 100  68 100
M  END
>  <TORSDO>  (5) 
F 30

>  <SCORE>  (5) 
-10.678

>  <name>  (5) 
4

>  <ligand_id>  (5) 
4

>  <original_smiles>  (5) 
[H]c1c([H])c([H])c2c(c1[H])C([H])([H])C([H])([H])C([H])([H])C2([H])N([H])C(=O)C1([H])N(C(=O)C([H])(N([H])C(=O)C([H])(N([H])C([H])([H])[H])C([H])([H])[H])C(C([H])([H])[H])(C([H])([H])[H])C([H])([H])[H])C([H])([H])c2c([H])c(OC([H])([H])C([H])([H])C([H])([H])OC([H])([H])C([H])([H])C([H])([H])N([H])C(=O)C([H])([H])OC([H])([H])C([H])([H])OC([H])([H])C([H])([H])N([H])C(=O)N3C([H])([H])C([H])([H])C([H])([H])C([H])(n4nc(-c5c([H])c([H])c(Oc6c([H])c([H])c(F)c([H])c6F)c([H])c5[H])c(C(=O)N([H])[H])c4N([H])[H])C3([H])[H])c([H])c([H])c2C1([H])[H]

>  <smiles>  (5) 
[H]c1c([H])c([H])c2c(c1[H])C([H])([H])C([H])([H])C([H])([H])C2([H])N([H])C(=O)C1([H])N(C(=O)C([H])(N([H])C(=O)C([H])(N([H])C([H])([H])[H])C([H])([H])[H])C(C([H])([H])[H])(C([H])([H])[H])C([H])([H])[H])C([H])([H])c2c([H])c(OC([H])([H])C([H])([H])C([H])([H])OC([H])([H])C([H])([H])C([H])([H])N([H])C(=O)C([H])([H])OC([H])([H])C([H])([H])OC([H])([H])C([H])([H])N([H])C(=O)N3C([H])([H])C([H])([H])C([H])([H])C([H])(n4nc(-c5c([H])c([H])c(Oc6c([H])c([H])c(F)c([H])c6F)c([H])c5[H])c(C(=O)N([H])[H])c4N([H])[H])C3([H])[H])c([H])c([H])c2C1([H])[H]

$$$$
5:0:0
     RDKit          3D

100107  0  0  1  0  0  0  0  0999 V2000
  -30.4140  -23.6410   15.2480 C   0  0  0  0  0  2  0  0  0  0  0  0
  -29.9700  -24.9850   15.0970 O   0  0  0  0  0  0  0  0  0  0  0  0
  -28.6750  -25.2000   15.6480 C   0  0  0  0  0  2  0  0  0  0  0  0
  -28.2920  -26.6850   15.5850 C   0  0  0  0  0  2  0  0  0  0  0  0
  -29.7140  -27.5500   17.4490 C   0  0  0  0  0  0  0  0  0  0  0  0
  -28.5270  -27.3660   16.8530 N   0  0  0  0  0  0  0  0  0  0  0  0
  -30.7860  -27.2260   16.9350 O   0  0  0  0  0  0  0  0  0  0  0  0
  -27.7000  -27.6630   17.3580 H   0  0  0  0  0  0  0  0  0  0  0  0
  -29.6900  -28.2200   18.8190 C   0  0  0  0  0  2  0  0  0  0  0  0
  -29.6340  -27.2140   19.9980 C   0  0  0  0  0  2  0  0  0  0  0  0
  -28.3950  -26.5000   20.0760 O   0  0  0  0  0  0  0  0  0  0  0  0
  -24.5770  -31.6910   23.1740 C   0  0  0  0  0  0  0  0  0  0  0  0
  -27.2390  -27.2420   20.1600 C   0  0  0  0  0  0  0  0  0  0  0  0
  -23.3820  -30.3010   21.5070 C   0  0  0  0  0  3  0  0  0  0  0  0
  -24.8460  -28.7380   20.1210 C   0  0  0  0  0  0  0  0  0  0  0  0
  -25.9060  -30.6370   21.3540 C   0  0  0  0  0  2  0  0  0  0  0  0
  -25.9880  -29.2580   20.7360 C   0  0  0  0  0  0  0  0  0  0  0  0
  -27.1820  -28.5160   20.7720 C   0  0  0  0  0  3  0  0  0  0  0  0
  -26.0720  -26.7120   19.5730 C   0  0  0  0  0  3  0  0  0  0  0  0
  -24.8790  -27.4580   19.5380 C   0  0  0  0  0  3  0  0  0  0  0  0
  -23.6100  -29.6100   20.1340 C   0  0  0  0  0  2  0  0  0  0  0  0
  -24.6390  -30.8870   22.0730 N   0  0  0  0  0  0  0  0  0  0  0  0
  -23.4900  -31.9820   23.6910 O   0  0  0  0  0  0  0  0  0  0  0  0
  -22.6990  -29.2930   22.4570 C   0  0  0  0  0  0  0  0  0  0  0  0
  -21.3700  -29.1530   22.3200 N   0  0  0  0  0  0  0  0  0  0  0  0
  -23.3590  -28.6430   23.2700 O   0  0  0  0  0  0  0  0  0  0  0  0
  -20.9050  -29.7280   21.6320 H   0  0  0  0  0  0  0  0  0  0  0  0
  -17.9540  -28.0900   22.7980 C   0  0  0  0  0  0  0  0  0  0  0  0
  -20.5190  -28.2400   23.0780 C   0  0  0  0  0  3  0  0  0  0  0  0
  -20.5650  -26.8140   22.4790 C   0  0  0  0  0  2  0  0  0  0  0  0
  -19.4520  -26.5520   21.4600 C   0  0  0  0  0  2  0  0  0  0  0  0
  -18.0760  -26.7440   22.1040 C   0  0  0  0  0  2  0  0  0  0  0  0
  -19.1010  -28.8000   23.2400 C   0  0  0  0  0  0  0  0  0  0  0  0
  -18.9340  -30.0640   23.8460 C   0  0  0  0  0  3  0  0  0  0  0  0
  -17.6500  -30.6150   24.0190 C   0  0  0  0  0  3  0  0  0  0  0  0
  -16.5170  -29.9000   23.5940 C   0  0  0  0  0  3  0  0  0  0  0  0
  -16.6690  -28.6400   22.9870 C   0  0  0  0  0  3  0  0  0  0  0  0
  -25.8630  -32.3000   23.8190 C   0  0  0  0  0  3  0  0  0  0  0  0
  -25.5650  -33.6960   24.1670 N   0  0  0  0  0  0  0  0  0  0  0  0
  -25.9090  -34.7540   23.4180 C   0  0  0  0  0  0  0  0  0  0  0  0
  -26.5800  -34.6560   22.3870 O   0  0  0  0  0  0  0  0  0  0  0  0
  -24.9670  -33.8460   24.9650 H   0  0  0  0  0  0  0  0  0  0  0  0
  -24.1850  -36.5510   23.0820 C   0  0  0  0  0  1  0  0  0  0  0  0
  -25.4290  -36.1410   23.8860 C   0  0  0  0  0  3  0  0  0  0  0  0
  -27.5750  -37.0070   24.7050 C   0  0  0  0  0  1  0  0  0  0  0  0
  -26.4650  -37.1890   23.7720 N   0  0  0  0  0  0  0  0  0  0  0  0
  -26.0650  -38.1100   23.9320 H   0  0  0  0  0  0  0  0  0  0  0  0
  -26.3600  -31.5020   25.0850 C   0  0  1  0  0  0  0  0  0  0  0  0
  -25.2550  -31.2530   26.1380 C   0  0  0  0  0  1  0  0  0  0  0  0
  -26.9350  -30.1270   24.6700 C   0  0  0  0  0  1  0  0  0  0  0  0
  -27.5120  -32.2720   25.7710 C   0  0  0  0  0  1  0  0  0  0  0  0
  -31.0300  -23.4210   16.6370 C   0  0  0  0  0  2  0  0  0  0  0  0
  -31.1450  -21.9220   16.9450 C   0  0  0  0  0  2  0  0  0  0  0  0
  -31.1030  -21.8750   19.4390 C   0  0  0  0  0  0  0  0  0  0  0  0
  -31.7090  -21.6690   18.2620 N   0  0  0  0  0  0  0  0  0  0  0  0
  -29.9550  -22.3180   19.5420 O   0  0  0  0  0  0  0  0  0  0  0  0
  -32.6260  -21.2410   18.2820 H   0  0  0  0  0  0  0  0  0  0  0  0
  -31.8990  -21.4710   20.6880 C   0  0  0  0  0  2  0  0  0  0  0  0
  -31.3700  -20.2860   21.3010 O   0  0  0  0  0  0  0  0  0  0  0  0
  -31.3540  -19.1170   20.4820 C   0  0  0  0  0  2  0  0  0  0  0  0
  -30.7260  -17.9340   21.2340 C   0  0  0  0  0  2  0  0  0  0  0  0
  -30.2410  -16.8660   20.2340 C   0  0  0  0  0  2  0  0  0  0  0  0
  -30.7030  -14.4570   20.5140 C   0  0  0  0  0  0  0  0  0  0  0  0
  -30.3780  -12.2880   19.4170 C   0  0  0  0  0  2  0  0  0  0  0  0
  -29.4670  -12.5230   18.1930 C   0  0  0  0  0  2  0  0  0  0  0  0
  -27.9840  -12.4080   18.5890 C   0  0  0  0  0  2  0  0  0  0  0  0
  -27.6340  -13.2600   19.8390 C   0  0  0  0  0  3  0  0  0  0  0  0
  -28.6670  -13.0400   20.9730 C   0  0  0  0  0  2  0  0  0  0  0  0
  -30.0110  -13.2910   20.4270 N   0  0  0  0  0  0  0  0  0  0  0  0
  -31.8590  -14.5860   20.1070 O   0  0  0  0  0  0  0  0  0  0  0  0
  -29.9610  -15.5390   20.8030 N   0  0  0  0  0  0  0  0  0  0  0  0
  -29.0150  -15.3730   21.1130 H   0  0  0  0  0  0  0  0  0  0  0  0
  -25.2300  -13.8940   20.4980 C   0  0  0  0  0  0  0  0  0  0  0  0
  -24.1480  -13.1340   20.8600 C   0  0  0  0  0  0  0  0  0  0  0  0
  -24.6000  -11.7780   20.8530 C   0  0  0  0  0  0  0  0  0  0  0  0
  -26.2710  -13.0010   20.2990 N   0  0  0  0  0  0  0  0  0  0  0  0
  -25.8930  -11.7230   20.5700 N   0  0  0  0  0  0  0  0  0  0  0  0
  -23.8580  -10.5260   21.0510 C   0  0  0  0  0  0  0  0  0  0  0  0
  -24.2800   -9.5570   21.9860 C   0  0  0  0  0  3  0  0  0  0  0  0
  -23.5390   -8.3680   22.1680 C   0  0  0  0  0  3  0  0  0  0  0  0
  -22.3620   -8.1440   21.4180 C   0  0  0  0  0  0  0  0  0  0  0  0
  -21.9600   -9.1020   20.4710 C   0  0  0  0  0  3  0  0  0  0  0  0
  -22.7010  -10.2810   20.2860 C   0  0  0  0  0  3  0  0  0  0  0  0
  -21.5970   -7.0050   21.5080 O   0  0  0  0  0  0  0  0  0  0  0  0
  -21.5600   -6.2540   22.6530 C   0  0  0  0  0  0  0  0  0  0  0  0
  -21.1870   -6.8070   23.8970 C   0  0  0  0  0  3  0  0  0  0  0  0
  -21.0940   -5.9820   25.0360 C   0  0  0  0  0  3  0  0  0  0  0  0
  -21.3650   -4.6030   24.9320 C   0  0  0  0  0  0  0  0  0  0  0  0
  -21.7310   -4.0510   23.6920 C   0  0  0  0  0  3  0  0  0  0  0  0
  -21.8240   -4.8720   22.5560 C   0  0  0  0  0  0  0  0  0  0  0  0
  -22.1560   -4.3300   21.3580 F   0  0  0  0  0  0  0  0  0  0  0  0
  -21.2680   -3.8080   26.0230 F   0  0  0  0  0  0  0  0  0  0  0  0
  -22.7510  -13.6250   21.1000 C   0  0  0  0  0  0  0  0  0  0  0  0
  -22.0080  -12.9450   21.9670 N   0  0  0  0  0  0  0  0  0  0  0  0
  -22.3240  -14.6460   20.5580 O   0  0  0  0  0  0  0  0  0  0  0  0
  -22.3670  -12.1210   22.4250 H   0  0  0  0  0  0  0  0  0  0  0  0
  -21.0640  -13.2470   22.1720 H   0  0  0  0  0  0  0  0  0  0  0  0
  -25.4060  -15.2600   20.3050 N   0  0  0  0  0  0  0  0  0  0  0  0
  -24.6300  -15.9100   20.3740 H   0  0  0  0  0  0  0  0  0  0  0  0
  -26.2600  -15.7000   19.9850 H   0  0  0  0  0  0  0  0  0  0  0  0
  1 52  1  0
  2  1  1  0
  2  3  1  0
  4  3  1  0
  4  6  1  0
  5  9  1  0
  6  8  1  0
  6  5  1  0
  7  5  2  0
  9 10  1  0
 10 11  1  0
 11 13  1  0
 12 23  2  0
 13 18  1  0
 14 22  1  0
 14 24  1  0
 15 21  1  0
 15 17  1  0
 16 22  1  0
 17 18  2  0
 17 16  1  0
 19 13  2  0
 20 19  1  0
 20 15  2  0
 21 14  1  0
 22 12  1  0
 24 26  2  0
 25 24  1  0
 27 25  1  0
 28 37  2  0
 28 33  1  0
 29 25  1  0
 29 33  1  0
 30 29  1  0
 31 32  1  0
 31 30  1  0
 32 28  1  0
 33 34  2  0
 34 35  1  0
 36 35  2  0
 37 36  1  0
 38 12  1  0
 38 39  1  0
 38 48  1  0
 39 42  1  0
 40 44  1  0
 40 39  1  0
 41 40  2  0
 44 43  1  0
 46 44  1  0
 46 47  1  0
 46 45  1  0
 48 51  1  1
 48 49  1  0
 50 48  1  0
 52 53  1  0
 53 55  1  0
 54 56  2  0
 54 58  1  0
 55 57  1  0
 55 54  1  0
 58 59  1  0
 60 61  1  0
 60 59  1  0
 62 71  1  0
 62 61  1  0
 63 71  1  0
 64 69  1  0
 65 66  1  0
 65 64  1  0
 67 66  1  0
 67 76  1  0
 67 68  1  0
 69 63  1  0
 69 68  1  0
 70 63  2  0
 71 72  1  0
 73 74  2  0
 74 93  1  0
 75 74  1  0
 75 78  1  0
 76 73  1  0
 76 77  1  0
 77 75  2  0
 78 79  1  0
 79 80  2  0
 81 84  1  0
 81 80  1  0
 82 81  2  0
 83 82  1  0
 83 78  2  0
 84 85  1  0
 85 86  1  0
 86 87  2  0
 88 87  1  0
 88 92  1  0
 89 88  2  0
 90 85  2  0
 90 89  1  0
 91 90  1  0
 93 94  1  0
 94 97  1  0
 94 96  1  0
 95 93  2  0
 98 99  1  0
 98 73  1  0
100 98  1  0
M  ISO  4  10 101  11 101  63 100  71 100
M  END
>  <TORSDO>  (6) 
F 30

>  <SCORE>  (6) 
-10.582

>  <name>  (6) 
5

>  <ligand_id>  (6) 
5

>  <original_smiles>  (6) 
[H]c1c([H])c([H])c2c(c1[H])C([H])([H])C([H])([H])C([H])([H])C2([H])N([H])C(=O)C1([H])N(C(=O)C([H])(N([H])C(=O)C([H])(N([H])C([H])([H])[H])C([H])([H])[H])C(C([H])([H])[H])(C([H])([H])[H])C([H])([H])[H])C([H])([H])c2c([H])c(OC([H])([H])C([H])([H])C(=O)N([H])C([H])([H])C([H])([H])OC([H])([H])C([H])([H])C([H])([H])N([H])C(=O)C([H])([H])OC([H])([H])C([H])([H])C([H])([H])N([H])C(=O)N3C([H])([H])C([H])([H])C([H])([H])C([H])(n4nc(-c5c([H])c([H])c(Oc6c([H])c([H])c(F)c([H])c6F)c([H])c5[H])c(C(=O)N([H])[H])c4N([H])[H])C3([H])[H])c([H])c([H])c2C1([H])[H]

>  <smiles>  (6) 
[H]c1c([H])c([H])c2c(c1[H])C([H])([H])C([H])([H])C([H])([H])C2([H])N([H])C(=O)C1([H])N(C(=O)C([H])(N([H])C(=O)C([H])(N([H])C([H])([H])[H])C([H])([H])[H])C(C([H])([H])[H])(C([H])([H])[H])C([H])([H])[H])C([H])([H])c2c([H])c(OC([H])([H])C([H])([H])C(=O)N([H])C([H])([H])C([H])([H])OC([H])([H])C([H])([H])C([H])([H])N([H])C(=O)C([H])([H])OC([H])([H])C([H])([H])C([H])([H])N([H])C(=O)N3C([H])([H])C([H])([H])C([H])([H])C([H])(n4nc(-c5c([H])c([H])c(Oc6c([H])c([H])c(F)c([H])c6F)c([H])c5[H])c(C(=O)N([H])[H])c4N([H])[H])C3([H])[H])c([H])c([H])c2C1([H])[H]

$$$$
6:0:0
     RDKit          3D

 99106  0  0  1  0  0  0  0  0999 V2000
  -27.8030  -21.3140   23.9370 C   0  0  0  0  0  0  0  0  0  0  0  0
  -27.5320  -21.3390   22.6290 N   0  0  0  0  0  0  0  0  0  0  0  0
  -27.8130  -22.3420   24.6170 O   0  0  0  0  0  0  0  0  0  0  0  0
  -27.5500  -20.4690   22.1130 H   0  0  0  0  0  0  0  0  0  0  0  0
  -27.2450  -22.5620   21.8910 C   0  0  0  0  0  2  0  0  0  0  0  0
  -26.4910  -22.2740   20.5930 C   0  0  0  0  0  2  0  0  0  0  0  0
  -26.7140  -23.3750   19.7300 O   0  0  0  0  0  0  0  0  0  0  0  0
  -25.6700  -23.5580   18.7880 C   0  0  0  0  0  2  0  0  0  0  0  0
  -26.0230  -24.7320   17.8660 C   0  0  0  0  0  2  0  0  0  0  0  0
  -24.8320  -25.2230   17.2640 O   0  0  0  0  0  0  0  0  0  0  0  0
  -25.0490  -29.5540   22.8890 C   0  0  0  0  0  0  0  0  0  0  0  0
  -24.2700  -26.2770   17.9330 C   0  0  0  0  0  0  0  0  0  0  0  0
  -23.0280  -29.7290   21.4680 C   0  0  0  0  0  3  0  0  0  0  0  0
  -23.1340  -28.4940   19.2420 C   0  0  0  0  0  0  0  0  0  0  0  0
  -25.2580  -28.9660   20.4810 C   0  0  0  0  0  2  0  0  0  0  0  0
  -24.4640  -28.1350   19.4960 C   0  0  0  0  0  0  0  0  0  0  0  0
  -25.0370  -27.0240   18.8470 C   0  0  0  0  0  3  0  0  0  0  0  0
  -22.9310  -26.6390   17.6810 C   0  0  0  0  0  3  0  0  0  0  0  0
  -22.3590  -27.7460   18.3380 C   0  0  0  0  0  3  0  0  0  0  0  0
  -22.6030  -29.7050   19.9750 C   0  0  0  0  0  2  0  0  0  0  0  0
  -24.4760  -29.3910   21.6640 N   0  0  0  0  0  0  0  0  0  0  0  0
  -24.4030  -30.0180   23.8400 O   0  0  0  0  0  0  0  0  0  0  0  0
  -22.0740  -28.8070   22.2630 C   0  0  0  0  0  0  0  0  0  0  0  0
  -20.8150  -29.2460   22.4220 N   0  0  0  0  0  0  0  0  0  0  0  0
  -22.4610  -27.7170   22.6940 O   0  0  0  0  0  0  0  0  0  0  0  0
  -20.5790  -30.1570   22.0540 H   0  0  0  0  0  0  0  0  0  0  0  0
  -17.2680  -29.3010   23.0830 C   0  0  0  0  0  0  0  0  0  0  0  0
  -19.7360  -28.5340   23.1040 C   0  0  0  0  0  3  0  0  0  0  0  0
  -19.2600  -27.3190   22.2730 C   0  0  0  0  0  2  0  0  0  0  0  0
  -18.0820  -27.6450   21.3500 C   0  0  0  0  0  2  0  0  0  0  0  0
  -16.8870  -28.1530   22.1630 C   0  0  0  0  0  2  0  0  0  0  0  0
  -18.6080  -29.4880   23.5120 C   0  0  0  0  0  0  0  0  0  0  0  0
  -18.9140  -30.5930   24.3360 C   0  0  0  0  0  3  0  0  0  0  0  0
  -17.9100  -31.4950   24.7320 C   0  0  0  0  0  3  0  0  0  0  0  0
  -16.5800  -31.2910   24.3230 C   0  0  0  0  0  3  0  0  0  0  0  0
  -16.2620  -30.1970   23.5010 C   0  0  0  0  0  3  0  0  0  0  0  0
  -26.5460  -29.1890   23.1500 C   0  0  0  0  0  3  0  0  0  0  0  0
  -26.7810  -27.6430   23.3630 C   0  0  1  0  0  0  0  0  0  0  0  0
  -25.8510  -27.0160   24.4280 C   0  0  0  0  0  1  0  0  0  0  0  0
  -26.5730  -26.8720   22.0380 C   0  0  0  0  0  1  0  0  0  0  0  0
  -28.2400  -27.3850   23.8070 C   0  0  0  0  0  1  0  0  0  0  0  0
  -26.9870  -29.9480   24.3240 N   0  0  0  0  0  0  0  0  0  0  0  0
  -27.8330  -30.9850   24.2850 C   0  0  0  0  0  0  0  0  0  0  0  0
  -28.3870  -31.3580   23.2470 O   0  0  0  0  0  0  0  0  0  0  0  0
  -26.5360  -29.7290   25.2000 H   0  0  0  0  0  0  0  0  0  0  0  0
  -27.3160  -33.0450   25.6340 C   0  0  0  0  0  1  0  0  0  0  0  0
  -28.1070  -31.7280   25.6060 C   0  0  0  0  0  3  0  0  0  0  0  0
  -30.3230  -30.8060   26.1190 C   0  0  0  0  0  1  0  0  0  0  0  0
  -29.5410  -32.0060   25.8390 N   0  0  0  0  0  0  0  0  0  0  0  0
  -29.6620  -32.6500   26.6140 H   0  0  0  0  0  0  0  0  0  0  0  0
  -28.1100  -19.9390   24.5510 C   0  0  0  0  0  2  0  0  0  0  0  0
  -29.4990  -19.7950   25.2190 C   0  0  0  0  0  2  0  0  0  0  0  0
  -30.5190  -19.5610   24.2470 O   0  0  0  0  0  0  0  0  0  0  0  0
  -30.9410  -20.7070   23.5060 C   0  0  0  0  0  2  0  0  0  0  0  0
  -30.4860  -20.6840   22.0380 C   0  0  0  0  0  2  0  0  0  0  0  0
  -31.3000  -19.7770   21.3090 O   0  0  0  0  0  0  0  0  0  0  0  0
  -31.0910  -19.8620   19.9060 C   0  0  0  0  0  2  0  0  0  0  0  0
  -31.9460  -18.7960   19.2150 C   0  0  0  0  0  2  0  0  0  0  0  0
  -31.2750  -17.5400   19.2710 O   0  0  0  0  0  0  0  0  0  0  0  0
  -32.1200  -16.4330   18.9850 C   0  0  0  0  0  2  0  0  0  0  0  0
  -32.5260  -15.6920   20.2710 C   0  0  0  0  0  2  0  0  0  0  0  0
  -32.0560  -13.2730   20.2690 C   0  0  0  0  0  0  0  0  0  0  0  0
  -32.1430  -11.1110   21.4310 C   0  0  0  0  0  2  0  0  0  0  0  0
  -31.5660   -9.9340   20.6320 C   0  0  0  0  0  2  0  0  0  0  0  0
  -30.0530   -9.8220   20.8670 C   0  0  0  0  0  2  0  0  0  0  0  0
  -29.3180  -11.1690   20.6480 C   0  0  0  0  0  3  0  0  0  0  0  0
  -30.0170  -12.3250   21.4010 C   0  0  0  0  0  2  0  0  0  0  0  0
  -31.4450  -12.3450   21.0420 N   0  0  0  0  0  0  0  0  0  0  0  0
  -33.0680  -13.0520   19.5990 O   0  0  0  0  0  0  0  0  0  0  0  0
  -31.6770  -14.5260   20.5280 N   0  0  0  0  0  0  0  0  0  0  0  0
  -30.8630  -14.6560   21.1110 H   0  0  0  0  0  0  0  0  0  0  0  0
  -26.9720  -12.0590   21.2290 C   0  0  0  0  0  0  0  0  0  0  0  0
  -25.7860  -11.4210   21.4690 C   0  0  0  0  0  0  0  0  0  0  0  0
  -26.0610  -10.0230   21.3720 C   0  0  0  0  0  0  0  0  0  0  0  0
  -27.9080  -11.0570   21.0130 N   0  0  0  0  0  0  0  0  0  0  0  0
  -27.3560   -9.8240   21.1520 N   0  0  0  0  0  0  0  0  0  0  0  0
  -25.1590   -8.8650   21.4190 C   0  0  0  0  0  0  0  0  0  0  0  0
  -25.1180   -8.0080   22.5410 C   0  0  0  0  0  3  0  0  0  0  0  0
  -24.2290   -6.9120   22.5700 C   0  0  0  0  0  3  0  0  0  0  0  0
  -23.3660   -6.6660   21.4750 C   0  0  0  0  0  0  0  0  0  0  0  0
  -23.4270   -7.5100   20.3530 C   0  0  0  0  0  3  0  0  0  0  0  0
  -24.3160   -8.5980   20.3220 C   0  0  0  0  0  3  0  0  0  0  0  0
  -22.4900   -5.6100   21.4070 O   0  0  0  0  0  0  0  0  0  0  0  0
  -21.7100   -5.2500   22.4770 C   0  0  0  0  0  0  0  0  0  0  0  0
  -20.7710   -6.1370   23.0460 C   0  0  0  0  0  3  0  0  0  0  0  0
  -19.9410   -5.7040   24.0990 C   0  0  0  0  0  3  0  0  0  0  0  0
  -20.0420   -4.3840   24.5780 C   0  0  0  0  0  0  0  0  0  0  0  0
  -20.9710   -3.4970   24.0070 C   0  0  0  0  0  3  0  0  0  0  0  0
  -21.8010   -3.9280   22.9580 C   0  0  0  0  0  0  0  0  0  0  0  0
  -22.6810   -3.0630   22.3970 F   0  0  0  0  0  0  0  0  0  0  0  0
  -19.2410   -3.9640   25.5840 F   0  0  0  0  0  0  0  0  0  0  0  0
  -24.4490  -12.0710   21.6830 C   0  0  0  0  0  0  0  0  0  0  0  0
  -23.5970  -11.4670   22.5050 N   0  0  0  0  0  0  0  0  0  0  0  0
  -24.1690  -13.1470   21.1580 O   0  0  0  0  0  0  0  0  0  0  0  0
  -23.8340  -10.5960   22.9570 H   0  0  0  0  0  0  0  0  0  0  0  0
  -22.6960  -11.8850   22.6870 H   0  0  0  0  0  0  0  0  0  0  0  0
  -27.3320  -13.4000   21.1580 N   0  0  0  0  0  0  0  0  0  0  0  0
  -26.6550  -14.1470   21.2620 H   0  0  0  0  0  0  0  0  0  0  0  0
  -28.2600  -13.7340   20.9320 H   0  0  0  0  0  0  0  0  0  0  0  0
  1 51  1  0
  1  3  2  0
  2  1  1  0
  4  2  1  0
  5  2  1  0
  6  5  1  0
  7  6  1  0
  8  7  1  0
  9  8  1  0
 10  9  1  0
 10 12  1  0
 11 22  2  0
 12 17  1  0
 13 21  1  0
 13 23  1  0
 14 16  1  0
 14 20  1  0
 15 21  1  0
 16 15  1  0
 17 16  2  0
 18 12  2  0
 18 19  1  0
 19 14  2  0
 20 13  1  0
 21 11  1  0
 23 24  1  0
 23 25  2  0
 26 24  1  0
 27 36  2  0
 27 32  1  0
 28 24  1  0
 28 32  1  0
 29 28  1  0
 30 31  1  0
 30 29  1  0
 31 27  1  0
 32 33  2  0
 33 34  1  0
 35 34  2  0
 36 35  1  0
 37 11  1  0
 37 38  1  0
 37 42  1  0
 38 41  1  1
 38 39  1  0
 40 38  1  0
 42 45  1  0
 43 42  1  0
 43 47  1  0
 44 43  2  0
 47 46  1  0
 47 49  1  0
 49 48  1  0
 49 50  1  0
 51 52  1  0
 53 52  1  0
 54 53  1  0
 55 54  1  0
 56 55  1  0
 57 56  1  0
 58 59  1  0
 58 57  1  0
 60 59  1  0
 60 61  1  0
 61 70  1  0
 62 70  1  0
 62 68  1  0
 64 65  1  0
 64 63  1  0
 66 65  1  0
 66 75  1  0
 66 67  1  0
 68 67  1  0
 68 63  1  0
 69 62  2  0
 70 71  1  0
 72 73  2  0
 73 92  1  0
 74 77  1  0
 74 73  1  0
 75 76  1  0
 75 72  1  0
 76 74  2  0
 77 78  1  0
 78 79  2  0
 80 79  1  0
 81 80  2  0
 82 81  1  0
 82 77  2  0
 83 80  1  0
 83 84  1  0
 84 89  2  0
 84 85  1  0
 85 86  2  0
 86 87  1  0
 87 91  1  0
 88 87  2  0
 89 88  1  0
 90 89  1  0
 92 93  1  0
 93 96  1  0
 93 95  1  0
 94 92  2  0
 97 72  1  0
 97 98  1  0
 99 97  1  0
M  ISO  4   9 101  10 101  62 100  70 100
M  END
>  <TORSDO>  (7) 
F 32

>  <SCORE>  (7) 
13.885

>  <name>  (7) 
6

>  <ligand_id>  (7) 
6

>  <original_smiles>  (7) 
[H]c1c([H])c([H])c2c(c1[H])C([H])([H])C([H])([H])C([H])([H])C2([H])N([H])C(=O)C1([H])N(C(=O)C([H])(N([H])C(=O)C([H])(N([H])C([H])([H])[H])C([H])([H])[H])C(C([H])([H])[H])(C([H])([H])[H])C([H])([H])[H])C([H])([H])c2c([H])c(OC([H])([H])C([H])([H])OC([H])([H])C([H])([H])N([H])C(=O)C([H])([H])C([H])([H])OC([H])([H])C([H])([H])OC([H])([H])C([H])([H])OC([H])([H])C([H])([H])N([H])C(=O)N3C([H])([H])C([H])([H])C([H])([H])C([H])(n4nc(-c5c([H])c([H])c(Oc6c([H])c([H])c(F)c([H])c6F)c([H])c5[H])c(C(=O)N([H])[H])c4N([H])[H])C3([H])[H])c([H])c([H])c2C1([H])[H]

>  <smiles>  (7) 
[H]c1c([H])c([H])c2c(c1[H])C([H])([H])C([H])([H])C([H])([H])C2([H])N([H])C(=O)C1([H])N(C(=O)C([H])(N([H])C(=O)C([H])(N([H])C([H])([H])[H])C([H])([H])[H])C(C([H])([H])[H])(C([H])([H])[H])C([H])([H])[H])C([H])([H])c2c([H])c(OC([H])([H])C([H])([H])OC([H])([H])C([H])([H])N([H])C(=O)C([H])([H])C([H])([H])OC([H])([H])C([H])([H])OC([H])([H])C([H])([H])OC([H])([H])C([H])([H])N([H])C(=O)N3C([H])([H])C([H])([H])C([H])([H])C([H])(n4nc(-c5c([H])c([H])c(Oc6c([H])c([H])c(F)c([H])c6F)c([H])c5[H])c(C(=O)N([H])[H])c4N([H])[H])C3([H])[H])c([H])c([H])c2C1([H])[H]

$$$$
7:0:0
     RDKit          3D

 98105  0  0  1  0  0  0  0  0999 V2000
  -27.4340  -19.5960   23.2740 C   0  0  0  0  0  2  0  0  0  0  0  0
  -27.0810  -18.1200   23.0020 C   0  0  0  0  0  2  0  0  0  0  0  0
  -29.1940  -16.8250   22.7460 C   0  0  0  0  0  0  0  0  0  0  0  0
  -28.0710  -17.1220   23.4150 N   0  0  0  0  0  0  0  0  0  0  0  0
  -29.6950  -17.6120   21.9360 O   0  0  0  0  0  0  0  0  0  0  0  0
  -27.7530  -16.4450   24.0970 H   0  0  0  0  0  0  0  0  0  0  0  0
  -29.7490  -15.3850   22.9030 C   0  0  0  0  0  3  0  0  0  0  0  0
  -30.7960  -14.3460   20.7180 C   0  0  0  0  0  0  0  0  0  0  0  0
  -30.4130  -12.2860   19.4240 C   0  0  0  0  0  2  0  0  0  0  0  0
  -29.4960  -12.5520   18.2100 C   0  0  0  0  0  2  0  0  0  0  0  0
  -28.0090  -12.4160   18.5930 C   0  0  0  0  0  2  0  0  0  0  0  0
  -27.6710  -13.2030   19.8810 C   0  0  0  0  0  3  0  0  0  0  0  0
  -28.6980  -12.8640   20.9800 C   0  0  0  0  0  2  0  0  0  0  0  0
  -30.0530  -13.2160   20.5180 N   0  0  0  0  0  0  0  0  0  0  0  0
  -31.7480  -14.6290   19.9880 O   0  0  0  0  0  0  0  0  0  0  0  0
  -30.6590  -15.1390   21.7890 N   0  0  0  0  0  0  0  0  0  0  0  0
  -31.3640  -15.8580   21.7870 H   0  0  0  0  0  0  0  0  0  0  0  0
  -25.2620  -13.8180   20.5650 C   0  0  0  0  0  0  0  0  0  0  0  0
  -24.1860  -13.0440   20.9100 C   0  0  0  0  0  0  0  0  0  0  0  0
  -24.6390  -11.6890   20.8640 C   0  0  0  0  0  0  0  0  0  0  0  0
  -26.3050  -12.9340   20.3310 N   0  0  0  0  0  0  0  0  0  0  0  0
  -25.9310  -11.6480   20.5670 N   0  0  0  0  0  0  0  0  0  0  0  0
  -23.9040  -10.4280   21.0370 C   0  0  0  0  0  0  0  0  0  0  0  0
  -24.3630   -9.4170   21.9110 C   0  0  0  0  0  3  0  0  0  0  0  0
  -23.6280   -8.2220   22.0710 C   0  0  0  0  0  3  0  0  0  0  0  0
  -22.4220   -8.0290   21.3570 C   0  0  0  0  0  0  0  0  0  0  0  0
  -21.9800   -9.0290   20.4730 C   0  0  0  0  0  3  0  0  0  0  0  0
  -22.7160  -10.2150   20.3090 C   0  0  0  0  0  3  0  0  0  0  0  0
  -21.6630   -6.8840   21.4260 O   0  0  0  0  0  0  0  0  0  0  0  0
  -21.6870   -6.0690   22.5290 C   0  0  0  0  0  0  0  0  0  0  0  0
  -21.4030   -6.5610   23.8220 C   0  0  0  0  0  3  0  0  0  0  0  0
  -21.3660   -5.6760   24.9180 C   0  0  0  0  0  3  0  0  0  0  0  0
  -21.6050   -4.3030   24.7230 C   0  0  0  0  0  0  0  0  0  0  0  0
  -21.8810   -3.8120   23.4350 C   0  0  0  0  0  3  0  0  0  0  0  0
  -21.9210   -4.6930   22.3400 C   0  0  0  0  0  0  0  0  0  0  0  0
  -22.1680   -4.2100   21.0980 F   0  0  0  0  0  0  0  0  0  0  0  0
  -21.5610   -3.4510   25.7740 F   0  0  0  0  0  0  0  0  0  0  0  0
  -22.7890  -13.5260   21.1790 C   0  0  0  0  0  0  0  0  0  0  0  0
  -22.0540  -12.8200   22.0310 N   0  0  0  0  0  0  0  0  0  0  0  0
  -22.3570  -14.5590   20.6680 O   0  0  0  0  0  0  0  0  0  0  0  0
  -22.4130  -11.9750   22.4510 H   0  0  0  0  0  0  0  0  0  0  0  0
  -21.1120  -13.1140   22.2490 H   0  0  0  0  0  0  0  0  0  0  0  0
  -25.4380  -15.1900   20.4130 N   0  0  0  0  0  0  0  0  0  0  0  0
  -24.6770  -15.8540   20.5170 H   0  0  0  0  0  0  0  0  0  0  0  0
  -26.2890  -15.6170   20.0690 H   0  0  0  0  0  0  0  0  0  0  0  0
  -30.5680  -15.2650   24.2040 C   0  0  0  0  0  0  0  0  0  0  0  0
  -30.1210  -14.4520   25.1600 N   0  0  0  0  0  0  0  0  0  0  0  0
  -31.6410  -15.8530   24.3380 O   0  0  0  0  0  0  0  0  0  0  0  0
  -29.2750  -13.9110   25.0460 H   0  0  0  0  0  0  0  0  0  0  0  0
  -30.6570  -14.3250   26.0070 H   0  0  0  0  0  0  0  0  0  0  0  0
  -26.2570  -20.4910   22.8440 C   0  0  0  0  0  2  0  0  0  0  0  0
  -26.5270  -21.8670   23.0860 O   0  0  0  0  0  0  0  0  0  0  0  0
  -25.7010  -22.7360   22.3120 C   0  0  0  0  0  2  0  0  0  0  0  0
  -26.5320  -23.2900   21.1470 C   0  0  0  0  0  2  0  0  0  0  0  0
  -27.2200  -24.4510   21.5950 O   0  0  0  0  0  0  0  0  0  0  0  0
  -28.5080  -24.6140   21.0180 C   0  0  0  0  0  2  0  0  0  0  0  0
  -28.9140  -26.0970   21.0790 C   0  0  0  0  0  2  0  0  0  0  0  0
  -28.4150  -26.7730   19.9350 O   0  0  0  0  0  0  0  0  0  0  0  0
  -24.6100  -31.8710   23.2130 C   0  0  0  0  0  0  0  0  0  0  0  0
  -27.2390  -27.4650   20.0830 C   0  0  0  0  0  0  0  0  0  0  0  0
  -23.3980  -30.4930   21.5550 C   0  0  0  0  0  3  0  0  0  0  0  0
  -24.8490  -28.9560   20.1260 C   0  0  0  0  0  0  0  0  0  0  0  0
  -25.9220  -30.8410   21.3660 C   0  0  0  0  0  2  0  0  0  0  0  0
  -26.0020  -29.4690   20.7310 C   0  0  0  0  0  0  0  0  0  0  0  0
  -27.2040  -28.7240   20.7190 C   0  0  0  0  0  3  0  0  0  0  0  0
  -26.0770  -26.9580   19.4740 C   0  0  0  0  0  3  0  0  0  0  0  0
  -24.8740  -27.6950   19.5030 C   0  0  0  0  0  3  0  0  0  0  0  0
  -23.6080  -29.8200   20.1720 C   0  0  0  0  0  2  0  0  0  0  0  0
  -24.6620  -31.0820   22.1040 N   0  0  0  0  0  0  0  0  0  0  0  0
  -23.5290  -32.1430   23.7540 O   0  0  0  0  0  0  0  0  0  0  0  0
  -22.7390  -29.4680   22.5030 C   0  0  0  0  0  0  0  0  0  0  0  0
  -21.4120  -29.3050   22.3770 N   0  0  0  0  0  0  0  0  0  0  0  0
  -23.4190  -28.8200   23.3030 O   0  0  0  0  0  0  0  0  0  0  0  0
  -20.9290  -29.8780   21.6970 H   0  0  0  0  0  0  0  0  0  0  0  0
  -18.0260  -28.1360   22.8490 C   0  0  0  0  0  0  0  0  0  0  0  0
  -20.5850  -28.3670   23.1320 C   0  0  0  0  0  3  0  0  0  0  0  0
  -20.6740  -26.9410   22.5420 C   0  0  0  0  0  2  0  0  0  0  0  0
  -19.5730  -26.6400   21.5190 C   0  0  0  0  0  2  0  0  0  0  0  0
  -18.1910  -26.7910   22.1610 C   0  0  0  0  0  2  0  0  0  0  0  0
  -19.1500  -28.8830   23.2900 C   0  0  0  0  0  0  0  0  0  0  0  0
  -18.9440  -30.1420   23.8940 C   0  0  0  0  0  3  0  0  0  0  0  0
  -17.6440  -30.6570   24.0560 C   0  0  0  0  0  3  0  0  0  0  0  0
  -16.5330  -29.9100   23.6280 C   0  0  0  0  0  3  0  0  0  0  0  0
  -16.7250  -28.6500   23.0340 C   0  0  0  0  0  3  0  0  0  0  0  0
  -25.9010  -32.4830   23.8430 C   0  0  0  0  0  3  0  0  0  0  0  0
  -25.5900  -33.8620   24.2380 N   0  0  0  0  0  0  0  0  0  0  0  0
  -25.9030  -34.9470   23.5150 C   0  0  0  0  0  0  0  0  0  0  0  0
  -26.5620  -34.8890   22.4710 O   0  0  0  0  0  0  0  0  0  0  0  0
  -25.0050  -33.9750   25.0530 H   0  0  0  0  0  0  0  0  0  0  0  0
  -24.1510  -36.7320   23.2620 C   0  0  0  0  0  1  0  0  0  0  0  0
  -25.4120  -36.3110   24.0340 C   0  0  0  0  0  3  0  0  0  0  0  0
  -27.5600  -37.1810   24.8460 C   0  0  0  0  0  1  0  0  0  0  0  0
  -26.4320  -37.3790   23.9400 N   0  0  0  0  0  0  0  0  0  0  0  0
  -26.0220  -38.2870   24.1430 H   0  0  0  0  0  0  0  0  0  0  0  0
  -26.4490  -31.6540   25.0680 C   0  0  1  0  0  0  0  0  0  0  0  0
  -25.3770  -31.3600   26.1440 C   0  0  0  0  0  1  0  0  0  0  0  0
  -27.0270  -30.2990   24.5920 C   0  0  0  0  0  1  0  0  0  0  0  0
  -27.6100  -32.4200   25.7430 C   0  0  0  0  0  1  0  0  0  0  0  0
  2  1  1  0
  2  4  1  0
  3  4  1  0
  4  6  1  0
  5  3  2  0
  7  3  1  0
  7 46  1  0
  8 16  1  0
  9 14  1  0
 10 11  1  0
 10  9  1  0
 12 11  1  0
 12 21  1  0
 12 13  1  0
 14  8  1  0
 14 13  1  0
 15  8  2  0
 16  7  1  0
 17 16  1  0
 18 19  2  0
 19 38  1  0
 20 19  1  0
 20 23  1  0
 21 18  1  0
 21 22  1  0
 22 20  2  0
 23 24  1  0
 24 25  2  0
 26 29  1  0
 26 25  1  0
 27 26  2  0
 28 27  1  0
 28 23  2  0
 29 30  1  0
 30 31  1  0
 31 32  2  0
 33 32  1  0
 33 37  1  0
 34 33  2  0
 35 30  2  0
 35 34  1  0
 36 35  1  0
 38 39  1  0
 39 42  1  0
 39 41  1  0
 40 38  2  0
 43 44  1  0
 43 18  1  0
 45 43  1  0
 46 48  2  0
 46 47  1  0
 47 50  1  0
 49 47  1  0
 51 52  1  0
 51  1  1  0
 53 52  1  0
 54 55  1  0
 54 53  1  0
 56 57  1  0
 56 55  1  0
 58 60  1  0
 58 57  1  0
 59 70  2  0
 60 65  1  0
 61 69  1  0
 61 71  1  0
 62 68  1  0
 62 64  1  0
 63 69  1  0
 64 63  1  0
 65 64  2  0
 66 67  1  0
 66 60  2  0
 67 62  2  0
 68 61  1  0
 69 59  1  0
 71 73  2  0
 72 71  1  0
 74 72  1  0
 75 84  2  0
 75 80  1  0
 76 72  1  0
 76 80  1  0
 77 76  1  0
 78 79  1  0
 78 77  1  0
 79 75  1  0
 80 81  2  0
 81 82  1  0
 83 82  2  0
 84 83  1  0
 85 59  1  0
 85 86  1  0
 85 95  1  0
 86 89  1  0
 87 91  1  0
 87 86  1  0
 88 87  2  0
 91 90  1  0
 93 91  1  0
 93 94  1  0
 93 92  1  0
 95 98  1  1
 95 96  1  0
 97 95  1  0
M  ISO  4   8 100  16 100  57 101  58 101
M  END
>  <TORSDO>  (8) 
F 27

>  <SCORE>  (8) 
44.039

>  <name>  (8) 
7

>  <ligand_id>  (8) 
7

>  <original_smiles>  (8) 
[H]c1c([H])c([H])c2c(c1[H])C([H])([H])C([H])([H])C([H])([H])C2([H])N([H])C(=O)C1([H])N(C(=O)C([H])(N([H])C(=O)C([H])(N([H])C([H])([H])[H])C([H])([H])[H])C(C([H])([H])[H])(C([H])([H])[H])C([H])([H])[H])C([H])([H])c2c([H])c(OC([H])([H])C([H])([H])OC([H])([H])C([H])([H])OC([H])([H])C([H])([H])C([H])([H])N([H])C(=O)C([H])(C(=O)N([H])[H])N([H])C(=O)N3C([H])([H])C([H])([H])C([H])([H])C([H])(n4nc(-c5c([H])c([H])c(Oc6c([H])c([H])c(F)c([H])c6F)c([H])c5[H])c(C(=O)N([H])[H])c4N([H])[H])C3([H])[H])c([H])c([H])c2C1([H])[H]

>  <smiles>  (8) 
[H]c1c([H])c([H])c2c(c1[H])C([H])([H])C([H])([H])C([H])([H])C2([H])N([H])C(=O)C1([H])N(C(=O)C([H])(N([H])C(=O)C([H])(N([H])C([H])([H])[H])C([H])([H])[H])C(C([H])([H])[H])(C([H])([H])[H])C([H])([H])[H])C([H])([H])c2c([H])c(OC([H])([H])C([H])([H])OC([H])([H])C([H])([H])OC([H])([H])C([H])([H])C([H])([H])N([H])C(=O)C([H])(C(=O)N([H])[H])N([H])C(=O)N3C([H])([H])C([H])([H])C([H])([H])C([H])(n4nc(-c5c([H])c([H])c(Oc6c([H])c([H])c(F)c([H])c6F)c([H])c5[H])c(C(=O)N([H])[H])c4N([H])[H])C3([H])[H])c([H])c([H])c2C1([H])[H]

$$$$
8:0:0
     RDKit          3D

 98105  0  0  1  0  0  0  0  0999 V2000
  -33.4100  -19.5440   18.8540 C   0  0  0  0  0  2  0  0  0  0  0  0
  -34.3970  -20.2100   21.0580 C   0  0  0  0  0  0  0  0  0  0  0  0
  -33.5290  -19.5180   20.3090 N   0  0  0  0  0  0  0  0  0  0  0  0
  -35.1760  -21.0430   20.5920 O   0  0  0  0  0  0  0  0  0  0  0  0
  -32.8650  -18.9450   20.8200 H   0  0  0  0  0  0  0  0  0  0  0  0
  -34.4240  -19.8760   22.5600 C   0  0  0  0  0  2  0  0  0  0  0  0
  -33.6770  -20.7980   23.3640 O   0  0  0  0  0  0  0  0  0  0  0  0
  -32.2810  -20.9560   23.1070 C   0  0  0  0  0  2  0  0  0  0  0  0
  -31.4400  -19.6830   23.3100 C   0  0  0  0  0  2  0  0  0  0  0  0
  -31.3780  -18.9630   22.0900 O   0  0  0  0  0  0  0  0  0  0  0  0
  -30.5380  -17.8210   22.1520 C   0  0  0  0  0  2  0  0  0  0  0  0
  -30.5320  -17.2010   20.7570 C   0  0  0  0  0  2  0  0  0  0  0  0
  -30.7050  -14.7600   20.4680 C   0  0  0  0  0  0  0  0  0  0  0  0
  -30.4160  -12.5450   19.4690 C   0  0  0  0  0  2  0  0  0  0  0  0
  -29.5060  -12.6600   18.2330 C   0  0  0  0  0  2  0  0  0  0  0  0
  -28.0320  -12.5030   18.6450 C   0  0  0  0  0  2  0  0  0  0  0  0
  -27.6390  -13.4150   19.8410 C   0  0  0  0  0  3  0  0  0  0  0  0
  -28.6810  -13.3480   20.9830 C   0  0  0  0  0  2  0  0  0  0  0  0
  -30.0140  -13.5970   20.4060 N   0  0  0  0  0  0  0  0  0  0  0  0
  -31.8610  -14.8850   20.0690 O   0  0  0  0  0  0  0  0  0  0  0  0
  -29.9970  -15.8420   20.7950 N   0  0  0  0  0  0  0  0  0  0  0  0
  -29.0190  -15.7190   21.0050 H   0  0  0  0  0  0  0  0  0  0  0  0
  -25.2310  -13.9680   20.5560 C   0  0  0  0  0  0  0  0  0  0  0  0
  -24.1770  -13.1700   20.9230 C   0  0  0  0  0  0  0  0  0  0  0  0
  -24.6650  -11.8290   20.8790 C   0  0  0  0  0  0  0  0  0  0  0  0
  -26.2920  -13.1110   20.3210 N   0  0  0  0  0  0  0  0  0  0  0  0
  -25.9580  -11.8210   20.5790 N   0  0  0  0  0  0  0  0  0  0  0  0
  -23.9620  -10.5490   21.0450 C   0  0  0  0  0  0  0  0  0  0  0  0
  -24.4000   -9.5850   21.9800 C   0  0  0  0  0  3  0  0  0  0  0  0
  -23.6980   -8.3730   22.1390 C   0  0  0  0  0  3  0  0  0  0  0  0
  -22.5420   -8.1140   21.3660 C   0  0  0  0  0  0  0  0  0  0  0  0
  -22.1250   -9.0630   20.4160 C   0  0  0  0  0  3  0  0  0  0  0  0
  -22.8300  -10.2680   20.2540 C   0  0  0  0  0  3  0  0  0  0  0  0
  -21.8110   -6.9530   21.4340 O   0  0  0  0  0  0  0  0  0  0  0  0
  -21.7310   -6.2200   22.5900 C   0  0  0  0  0  0  0  0  0  0  0  0
  -21.2570   -6.7780   23.7980 C   0  0  0  0  0  3  0  0  0  0  0  0
  -21.1280   -5.9680   24.9460 C   0  0  0  0  0  3  0  0  0  0  0  0
  -21.4630   -4.6020   24.8830 C   0  0  0  0  0  0  0  0  0  0  0  0
  -21.9300   -4.0430   23.6800 C   0  0  0  0  0  3  0  0  0  0  0  0
  -22.0610   -4.8510   22.5350 C   0  0  0  0  0  0  0  0  0  0  0  0
  -22.4890   -4.3040   21.3720 F   0  0  0  0  0  0  0  0  0  0  0  0
  -21.3340   -3.8190   25.9790 F   0  0  0  0  0  0  0  0  0  0  0  0
  -22.7690  -13.6190   21.1860 C   0  0  0  0  0  0  0  0  0  0  0  0
  -22.0530  -12.9130   22.0550 N   0  0  0  0  0  0  0  0  0  0  0  0
  -22.3060  -14.6280   20.6570 O   0  0  0  0  0  0  0  0  0  0  0  0
  -22.4350  -12.0980   22.5110 H   0  0  0  0  0  0  0  0  0  0  0  0
  -21.1060  -13.1940   22.2690 H   0  0  0  0  0  0  0  0  0  0  0  0
  -25.3670  -15.3410   20.3850 N   0  0  0  0  0  0  0  0  0  0  0  0
  -24.5840  -15.9750   20.4990 H   0  0  0  0  0  0  0  0  0  0  0  0
  -26.1960  -15.7910   20.0130 H   0  0  0  0  0  0  0  0  0  0  0  0
  -32.1370  -20.2810   18.4250 C   0  0  0  0  0  2  0  0  0  0  0  0
  -32.2140  -21.5830   18.9780 O   0  0  0  0  0  0  0  0  0  0  0  0
  -30.9940  -22.2960   18.9690 C   0  0  0  0  0  2  0  0  0  0  0  0
  -31.1980  -23.5320   19.8580 C   0  0  0  0  0  2  0  0  0  0  0  0
  -30.0140  -24.3130   19.9490 O   0  0  0  0  0  0  0  0  0  0  0  0
  -29.7920  -25.1680   18.8350 C   0  0  0  0  0  2  0  0  0  0  0  0
  -28.3370  -25.6480   18.8520 C   0  0  0  0  0  2  0  0  0  0  0  0
  -28.1940  -26.7220   19.7790 O   0  0  0  0  0  0  0  0  0  0  0  0
  -24.4340  -31.7440   23.1000 C   0  0  0  0  0  0  0  0  0  0  0  0
  -26.9930  -27.3940   19.8210 C   0  0  0  0  0  0  0  0  0  0  0  0
  -23.1830  -30.4020   21.4400 C   0  0  0  0  0  3  0  0  0  0  0  0
  -24.5950  -28.8920   19.9460 C   0  0  0  0  0  0  0  0  0  0  0  0
  -25.7050  -30.7470   21.2040 C   0  0  0  0  0  2  0  0  0  0  0  0
  -25.7640  -29.3920   20.5290 C   0  0  0  0  0  0  0  0  0  0  0  0
  -26.9600  -28.6460   20.4720 C   0  0  0  0  0  3  0  0  0  0  0  0
  -25.7990  -26.8990   19.2400 C   0  0  0  0  0  3  0  0  0  0  0  0
  -24.6050  -27.6400   19.3030 C   0  0  0  0  0  3  0  0  0  0  0  0
  -23.3590  -29.7570   20.0380 C   0  0  0  0  0  2  0  0  0  0  0  0
  -24.4600  -30.9760   21.9740 N   0  0  0  0  0  0  0  0  0  0  0  0
  -23.3660  -32.0120   23.6670 O   0  0  0  0  0  0  0  0  0  0  0  0
  -22.5410  -29.3590   22.3840 C   0  0  0  0  0  0  0  0  0  0  0  0
  -21.2110  -29.2060   22.2860 N   0  0  0  0  0  0  0  0  0  0  0  0
  -23.2340  -28.6950   23.1580 O   0  0  0  0  0  0  0  0  0  0  0  0
  -20.7150  -29.7910   21.6270 H   0  0  0  0  0  0  0  0  0  0  0  0
  -17.8300  -28.0610   22.8310 C   0  0  0  0  0  0  0  0  0  0  0  0
  -20.3960  -28.2590   23.0450 C   0  0  0  0  0  3  0  0  0  0  0  0
  -20.4570  -26.8470   22.4190 C   0  0  0  0  0  2  0  0  0  0  0  0
  -19.3240  -26.5800   21.4240 C   0  0  0  0  0  2  0  0  0  0  0  0
  -17.9620  -26.7310   22.1070 C   0  0  0  0  0  2  0  0  0  0  0  0
  -18.9720  -28.7860   23.2570 C   0  0  0  0  0  0  0  0  0  0  0  0
  -18.7960  -30.0340   23.8940 C   0  0  0  0  0  3  0  0  0  0  0  0
  -17.5060  -30.5560   24.1070 C   0  0  0  0  0  3  0  0  0  0  0  0
  -16.3770  -29.8270   23.6970 C   0  0  0  0  0  3  0  0  0  0  0  0
  -16.5390  -28.5820   23.0650 C   0  0  0  0  0  3  0  0  0  0  0  0
  -25.7390  -32.3430   23.7120 C   0  0  0  0  0  3  0  0  0  0  0  0
  -26.2760  -31.5290   24.9510 C   0  0  1  0  0  0  0  0  0  0  0  0
  -25.2060  -31.2710   26.0380 C   0  0  0  0  0  1  0  0  0  0  0  0
  -26.8320  -30.1580   24.5000 C   0  0  0  0  0  1  0  0  0  0  0  0
  -27.4520  -32.2890   25.6070 C   0  0  0  0  0  1  0  0  0  0  0  0
  -25.4510  -33.7330   24.0880 N   0  0  0  0  0  0  0  0  0  0  0  0
  -25.7900  -34.8050   23.3580 C   0  0  0  0  0  0  0  0  0  0  0  0
  -26.4510  -34.7240   22.3180 O   0  0  0  0  0  0  0  0  0  0  0  0
  -24.8650  -33.8720   24.8990 H   0  0  0  0  0  0  0  0  0  0  0  0
  -24.0820  -36.6260   23.0700 C   0  0  0  0  0  1  0  0  0  0  0  0
  -25.3240  -36.1840   23.8610 C   0  0  0  0  0  3  0  0  0  0  0  0
  -27.4780  -37.0120   24.7000 C   0  0  0  0  0  1  0  0  0  0  0  0
  -26.3690  -37.2270   23.7750 N   0  0  0  0  0  0  0  0  0  0  0  0
  -25.9750  -38.1460   23.9590 H   0  0  0  0  0  0  0  0  0  0  0  0
  1  3  1  0
  2  6  1  0
  3  5  1  0
  3  2  1  0
  4  2  2  0
  6  7  1  0
  8  9  1  0
  8  7  1  0
 10 11  1  0
 10  9  1  0
 12 21  1  0
 12 11  1  0
 13 21  1  0
 14 19  1  0
 15 16  1  0
 15 14  1  0
 17 16  1  0
 17 26  1  0
 17 18  1  0
 19 13  1  0
 19 18  1  0
 20 13  2  0
 21 22  1  0
 23 24  2  0
 24 43  1  0
 25 24  1  0
 25 28  1  0
 26 23  1  0
 26 27  1  0
 27 25  2  0
 28 29  1  0
 29 30  2  0
 31 34  1  0
 31 30  1  0
 32 31  2  0
 33 32  1  0
 33 28  2  0
 34 35  1  0
 35 36  1  0
 36 37  2  0
 38 37  1  0
 38 42  1  0
 39 38  2  0
 40 35  2  0
 40 39  1  0
 41 40  1  0
 43 44  1  0
 44 47  1  0
 44 46  1  0
 45 43  2  0
 48 49  1  0
 48 23  1  0
 50 48  1  0
 51  1  1  0
 51 52  1  0
 53 52  1  0
 53 54  1  0
 54 55  1  0
 56 57  1  0
 56 55  1  0
 57 58  1  0
 58 60  1  0
 59 70  2  0
 60 65  1  0
 61 69  1  0
 61 71  1  0
 62 68  1  0
 62 64  1  0
 63 69  1  0
 64 63  1  0
 65 64  2  0
 66 67  1  0
 66 60  2  0
 67 62  2  0
 68 61  1  0
 69 59  1  0
 71 73  2  0
 72 71  1  0
 74 72  1  0
 75 84  2  0
 75 80  1  0
 76 72  1  0
 76 80  1  0
 77 76  1  0
 78 79  1  0
 78 77  1  0
 79 75  1  0
 80 81  2  0
 81 82  1  0
 83 82  2  0
 84 83  1  0
 85 59  1  0
 85 90  1  0
 85 86  1  0
 86 89  1  1
 86 87  1  0
 88 86  1  0
 90 93  1  0
 91 95  1  0
 91 90  1  0
 92 91  2  0
 95 94  1  0
 97 95  1  0
 97 98  1  0
 97 96  1  0
M  ISO  4  13 100  21 100  57 101  58 101
M  END
>  <TORSDO>  (9) 
F 31

>  <SCORE>  (9) 
-10.658

>  <name>  (9) 
8

>  <ligand_id>  (9) 
8

>  <original_smiles>  (9) 
[H]c1c([H])c([H])c2c(c1[H])C([H])([H])C([H])([H])C([H])([H])C2([H])N([H])C(=O)C1([H])N(C(=O)C([H])(N([H])C(=O)C([H])(N([H])C([H])([H])[H])C([H])([H])[H])C(C([H])([H])[H])(C([H])([H])[H])C([H])([H])[H])C([H])([H])c2c([H])c(OC([H])([H])C([H])([H])OC([H])([H])C([H])([H])OC([H])([H])C([H])([H])N([H])C(=O)C([H])([H])OC([H])([H])C([H])([H])OC([H])([H])C([H])([H])N([H])C(=O)N3C([H])([H])C([H])([H])C([H])([H])C([H])(n4nc(-c5c([H])c([H])c(Oc6c([H])c([H])c(F)c([H])c6F)c([H])c5[H])c(C(=O)N([H])[H])c4N([H])[H])C3([H])[H])c([H])c([H])c2C1([H])[H]

>  <smiles>  (9) 
[H]c1c([H])c([H])c2c(c1[H])C([H])([H])C([H])([H])C([H])([H])C2([H])N([H])C(=O)C1([H])N(C(=O)C([H])(N([H])C(=O)C([H])(N([H])C([H])([H])[H])C([H])([H])[H])C(C([H])([H])[H])(C([H])([H])[H])C([H])([H])[H])C([H])([H])c2c([H])c(OC([H])([H])C([H])([H])OC([H])([H])C([H])([H])OC([H])([H])C([H])([H])N([H])C(=O)C([H])([H])OC([H])([H])C([H])([H])OC([H])([H])C([H])([H])N([H])C(=O)N3C([H])([H])C([H])([H])C([H])([H])C([H])(n4nc(-c5c([H])c([H])c(Oc6c([H])c([H])c(F)c([H])c6F)c([H])c5[H])c(C(=O)N([H])[H])c4N([H])[H])C3([H])[H])c([H])c([H])c2C1([H])[H]

$$$$
9:0:0
     RDKit          3D

107111  0  0  1  0  0  0  0  0999 V2000
  -28.1860  -17.2040   20.7560 C   0  0  0  0  0  3  0  0  0  0  0  0
  -29.0160  -16.0730   21.4600 C   0  0  0  0  0  0  0  0  0  0  0  0
  -28.5350  -14.8140   21.6260 N   0  0  0  0  0  0  0  0  0  0  0  0
  -30.1320  -16.3640   21.8840 O   0  0  0  0  0  0  0  0  0  0  0  0
  -27.6070  -14.6130   21.2710 H   0  0  0  0  0  0  0  0  0  0  0  0
  -29.1670  -13.7410   22.4470 C   0  0  0  0  0  2  0  0  0  0  0  0
  -29.5080  -12.3900   21.7330 C   0  0  0  0  0  2  0  0  0  0  0  0
  -30.7290  -11.8070   22.2660 O   0  0  0  0  0  0  0  0  0  0  0  0
  -31.1920  -10.5960   21.6140 C   0  0  0  0  0  2  0  0  0  0  0  0
  -32.5450  -10.6730   20.7840 C   0  0  0  0  0  2  0  0  0  0  0  0
  -32.6640  -10.8250   19.2610 O   0  0  0  0  0  0  0  0  0  0  0  0
  -32.3610  -12.1430   17.3490 C   0  0  0  0  0  2  0  0  0  0  0  0
  -32.7790  -13.5840   16.7590 C   0  0  0  0  0  2  0  0  0  0  0  0
  -31.6800  -14.5240   16.8320 O   0  0  0  0  0  0  0  0  0  0  0  0
  -31.9780  -15.9190   16.7630 C   0  0  0  0  0  2  0  0  0  0  0  0
  -31.4930  -16.6740   18.0380 C   0  0  0  0  0  2  0  0  0  0  0  0
  -31.5960  -14.5440   19.1780 C   0  0  0  0  0  0  0  0  0  0  0  0
  -31.4660  -11.9410   18.6760 C   0  0  0  0  0  3  0  0  0  0  0  0
  -30.2160  -10.6200   17.8230 C   0  0  0  0  0 15  0  0  0  0  0  0
  -28.2370  -10.9180   17.9870 C   0  0  0  0  0 15  0  0  0  0  0  0
  -27.6430  -12.6240   18.8190 C   0  0  0  0  0  1  0  0  0  0  0  0
  -29.0010  -13.8840   19.5700 C   0  0  0  0  0  1  0  0  0  0  0  0
  -30.7950  -13.5160   19.4100 N   0  0  0  0  0  0  0  0  0  0  0  0
  -32.7090  -14.3700   18.7220 O   0  0  0  0  0  0  0  0  0  0  0  0
  -31.0490  -15.7490   19.0850 N   0  0  0  0  0  0  0  0  0  0  0  0
  -30.0960  -15.8750   19.4060 H   0  0  0  0  0  0  0  0  0  0  0  0
  -25.7360  -13.5520   19.9510 C   0  0  0  0  0  0  0  0  0  0  0  0
  -24.6340  -12.9480   20.4450 C   0  0  0  0  0  0  0  0  0  0  0  0
  -24.8940  -11.5390   20.4350 C   0  0  0  0  0  0  0  0  0  0  0  0
  -26.5370  -12.5030   19.6190 N   0  0  0  0  0  0  0  0  0  0  0  0
  -26.0880  -11.2850   19.9520 N   0  0  0  0  0  0  0  0  0  0  0  0
  -24.0400  -10.4080   20.7570 C   0  0  0  0  0  0  0  0  0  0  0  0
  -24.5180   -9.3360   21.5400 C   0  0  0  0  0  3  0  0  0  0  0  0
  -23.6600   -8.2670   21.8670 C   0  0  0  0  0  3  0  0  0  0  0  0
  -22.3200   -8.2750   21.4100 C   0  0  0  0  0  0  0  0  0  0  0  0
  -21.8670   -9.3260   20.5940 C   0  0  0  0  0  3  0  0  0  0  0  0
  -22.7230  -10.3860   20.2660 C   0  0  0  0  0  3  0  0  0  0  0  0
  -21.4140   -7.2800   21.6660 O   0  0  0  0  0  0  0  0  0  0  0  0
  -21.5370   -6.4680   22.7600 C   0  0  0  0  0  0  0  0  0  0  0  0
  -21.6360   -6.9860   24.0710 C   0  0  0  0  0  3  0  0  0  0  0  0
  -21.6900   -6.1070   25.1710 C   0  0  0  0  0  3  0  0  0  0  0  0
  -21.6370   -4.7160   24.9630 C   0  0  0  0  0  0  0  0  0  0  0  0
  -21.5390   -4.2000   23.6580 C   0  0  0  0  0  3  0  0  0  0  0  0
  -21.4880   -5.0740   22.5620 C   0  0  0  0  0  0  0  0  0  0  0  0
  -21.3700   -4.5780   21.3060 F   0  0  0  0  0  0  0  0  0  0  0  0
  -21.6780   -3.8700   26.0190 F   0  0  0  0  0  0  0  0  0  0  0  0
  -23.3610  -13.6440   20.7520 C   0  0  0  0  0  0  0  0  0  0  0  0
  -22.5950  -13.1170   21.6940 N   0  0  0  0  0  0  0  0  0  0  0  0
  -23.0690  -14.6950   20.1800 O   0  0  0  0  0  0  0  0  0  0  0  0
  -22.8550  -12.2660   22.1710 H   0  0  0  0  0  0  0  0  0  0  0  0
  -21.7380  -13.5790   21.9570 H   0  0  0  0  0  0  0  0  0  0  0  0
  -26.0880  -14.8760   19.6610 N   0  0  0  0  0  0  0  0  0  0  0  0
  -25.2730  -15.4720   19.5320 H   0  0  0  0  0  0  0  0  0  0  0  0
  -26.7440  -14.9860   18.8990 H   0  0  0  0  0  0  0  0  0  0  0  0
  -29.0990  -18.3450   20.3970 N   0  0  0  0  0  4  0  0  0  0  0  0
  -29.8820  -18.2560   21.0250 H   0  0  0  0  0  0  0  0  0  0  0  0
  -29.4270  -18.1090   19.4710 H   0  0  0  0  0  0  0  0  0  0  0  0
  -28.5820  -19.7590   20.3860 C   0  0  0  0  0  2  0  0  0  0  0  0
  -29.6740  -20.8800   20.4450 C   0  0  0  0  0  2  0  0  0  0  0  0
  -29.0580  -22.1650   20.2540 O   0  0  0  0  0  0  0  0  0  0  0  0
  -29.8800  -23.3440   20.4080 C   0  0  0  0  0  2  0  0  0  0  0  0
  -29.1940  -24.5260   19.6660 C   0  0  0  0  0  2  0  0  0  0  0  0
  -29.5250  -25.9040   20.0230 O   0  0  0  0  0  0  0  0  0  0  0  0
  -25.6780  -30.7620   23.5390 C   0  0  0  0  0  0  0  0  0  0  0  0
  -28.4520  -26.7840   19.9630 C   0  0  0  0  0  0  0  0  0  0  0  0
  -24.5860  -29.6970   21.5960 C   0  0  0  0  0  3  0  0  0  0  0  0
  -26.1220  -28.4000   20.0320 C   0  0  0  0  0  0  0  0  0  0  0  0
  -27.1300  -29.9960   21.6610 C   0  0  0  0  0  2  0  0  0  0  0  0
  -27.2390  -28.7540   20.7970 C   0  0  0  0  0  0  0  0  0  0  0  0
  -28.4120  -27.9560   20.7610 C   0  0  0  0  0  3  0  0  0  0  0  0
  -27.3310  -26.4980   19.1450 C   0  0  0  0  0  3  0  0  0  0  0  0
  -26.1670  -27.2770   19.1970 C   0  0  0  0  0  3  0  0  0  0  0  0
  -24.8930  -29.2730   20.1380 C   0  0  0  0  0  2  0  0  0  0  0  0
  -25.8110  -30.1560   22.3250 N   0  0  0  0  0  0  0  0  0  0  0  0
  -24.5590  -30.9710   24.0330 O   0  0  0  0  0  0  0  0  0  0  0  0
  -23.8450  -28.5420   22.3090 C   0  0  0  0  0  0  0  0  0  0  0  0
  -22.5310  -28.4230   22.0530 N   0  0  0  0  0  0  0  0  0  0  0  0
  -24.4530  -27.7650   23.0510 O   0  0  0  0  0  0  0  0  0  0  0  0
  -22.1070  -29.1050   21.4400 H   0  0  0  0  0  0  0  0  0  0  0  0
  -19.1000  -27.2890   22.1250 C   0  0  0  0  0  0  0  0  0  0  0  0
  -21.6410  -27.3920   22.5880 C   0  0  0  0  0  3  0  0  0  0  0  0
  -21.7390  -26.0880   21.7620 C   0  0  0  0  0  2  0  0  0  0  0  0
  -20.6960  -26.0010   20.6430 C   0  0  0  0  0  2  0  0  0  0  0  0
  -19.2820  -26.0800   21.2220 C   0  0  0  0  0  2  0  0  0  0  0  0
  -20.2100  -27.9140   22.7520 C   0  0  0  0  0  0  0  0  0  0  0  0
  -19.9900  -29.0550   23.5530 C   0  0  0  0  0  3  0  0  0  0  0  0
  -18.6900  -29.5690   23.7320 C   0  0  0  0  0  3  0  0  0  0  0  0
  -17.5950  -28.9360   23.1210 C   0  0  0  0  0  3  0  0  0  0  0  0
  -17.8000  -27.7970   22.3230 C   0  0  0  0  0  3  0  0  0  0  0  0
  -26.9200  -31.2420   24.3540 C   0  0  0  0  0  3  0  0  0  0  0  0
  -27.3180  -30.2550   25.5180 C   0  0  1  0  0  0  0  0  0  0  0  0
  -26.1390  -29.8780   26.4450 C   0  0  0  0  0  1  0  0  0  0  0  0
  -27.9060  -28.9440   24.9470 C   0  0  0  0  0  1  0  0  0  0  0  0
  -28.4270  -30.8920   26.3890 C   0  0  0  0  0  1  0  0  0  0  0  0
  -26.6080  -32.5750   24.8850 N   0  0  0  0  0  0  0  0  0  0  0  0
  -27.0560  -33.7240   24.3640 C   0  0  0  0  0  0  0  0  0  0  0  0
  -27.8420  -33.7670   23.4130 O   0  0  0  0  0  0  0  0  0  0  0  0
  -25.9250  -32.6190   25.6270 H   0  0  0  0  0  0  0  0  0  0  0  0
  -25.4260  -35.6270   24.1300 C   0  0  0  0  0  1  0  0  0  0  0  0
  -26.5520  -35.0370   24.9950 C   0  0  0  0  0  3  0  0  0  0  0  0
  -28.5860  -35.6730   26.2130 C   0  0  0  0  0  1  0  0  0  0  0  0
  -27.6160  -36.0450   25.1870 N   0  0  0  0  0  0  0  0  0  0  0  0
  -27.2180  -36.9450   25.4360 H   0  0  0  0  0  0  0  0  0  0  0  0
  -26.0190  -17.2080   19.2240 C   0  0  0  0  0  1  0  0  0  0  0  0
  -27.4370  -16.6650   19.4930 C   0  0  0  0  0  3  0  0  0  0  0  0
  -28.2190  -16.8640   18.3240 O   0  0  0  0  0  0  0  0  0  0  0  0
  -28.7290  -16.0670   18.1630 H   0  0  0  0  0  0  0  0  0  0  0  0
  1  2  1  0
  2  3  1  0
  2  4  2  0
  3  6  1  0
  5  3  1  0
  7  8  1  0
  7  6  1  0
  9  8  1  0
 10  9  1  0
 11 10  1  0
 12 18  1  0
 13 14  1  0
 13 12  1  0
 15 14  1  0
 15 16  1  0
 16 25  1  0
 17 23  1  0
 18 11  1  0
 18 23  1  0
 21 30  1  0
 23 22  1  0
 24 17  2  0
 25 17  1  0
 25 26  1  0
 27 28  2  0
 28 47  1  0
 29 28  1  0
 29 32  1  0
 30 27  1  0
 30 31  1  0
 31 29  2  0
 32 33  1  0
 33 34  2  0
 35 38  1  0
 35 34  1  0
 36 35  2  0
 37 36  1  0
 37 32  2  0
 38 39  1  0
 39 40  1  0
 40 41  2  0
 42 41  1  0
 42 46  1  0
 43 42  2  0
 44 39  2  0
 44 43  1  0
 45 44  1  0
 47 48  1  0
 48 51  1  0
 48 50  1  0
 49 47  2  0
 52 27  1  0
 53 52  1  0
 54 52  1  0
 55  1  1  0
 55 56  1  0
 57 55  1  0
 58 55  1  0
 58 59  1  0
 60 61  1  0
 60 59  1  0
 62 63  1  0
 62 61  1  0
 64 75  2  0
 65 63  1  0
 65 70  1  0
 66 76  1  0
 66 74  1  0
 67 73  1  0
 67 69  1  0
 68 74  1  0
 69 68  1  0
 70 69  2  0
 71 72  1  0
 71 65  2  0
 72 67  2  0
 73 66  1  0
 74 64  1  0
 76 78  2  0
 77 76  1  0
 79 77  1  0
 80 89  2  0
 80 85  1  0
 81 77  1  0
 81 85  1  0
 82 81  1  0
 83 84  1  0
 83 82  1  0
 84 80  1  0
 85 86  2  0
 86 87  1  0
 88 87  2  0
 89 88  1  0
 90 64  1  0
 90 95  1  0
 90 91  1  0
 91 94  1  1
 91 92  1  0
 93 91  1  0
 95 98  1  0
 96 95  1  0
 96100  1  0
 97 96  2  0
100 99  1  0
100102  1  0
102103  1  0
102101  1  0
105104  1  0
105  1  1  0
106105  1  0
107106  1  0
M  ISO  4  17 100  25 100  62 101  63 101
M  END
>  <TORSDO>  (10) 
F 36

>  <SCORE>  (10) 
-4.748

>  <name>  (10) 
9

>  <ligand_id>  (10) 
9

>  <original_smiles>  (10) 
[H]OC([H])(C([H])([H])[H])C([H])(C(=O)N([H])C([H])([H])C([H])([H])OC([H])([H])C([H])([H])OC([H])([H])C([H])([H])OC([H])([H])C([H])([H])N([H])C(=O)N1C([H])([H])C([H])([H])C([H])([H])C([H])(n2nc(-c3c([H])c([H])c(Oc4c([H])c([H])c(F)c([H])c4F)c([H])c3[H])c(C(=O)N([H])[H])c2N([H])[H])C1([H])[H])[N+]([H])([H])C([H])([H])C([H])([H])OC([H])([H])C([H])([H])Oc1c([H])c([H])c2c(c1[H])C([H])([H])N(C(=O)C([H])(N([H])C(=O)C([H])(N([H])C([H])([H])[H])C([H])([H])[H])C(C([H])([H])[H])(C([H])([H])[H])C([H])([H])[H])C([H])(C(=O)N([H])C1([H])c3c([H])c([H])c([H])c([H])c3C([H])([H])C([H])([H])C1([H])[H])C2([H])[H]

>  <smiles>  (10) 
[H]OC([H])(C([H])([H])[H])C([H])(C(=O)N([H])C([H])([H])C([H])([H])OC([H])([H])C([H])([H])OC([H])([H])C([H])([H])OC([H])([H])C([H])([H])N([H])C(=O)N1C([H])([H])C([H])([H])C([H])([H])C([H])(n2nc(-c3c([H])c([H])c(Oc4c([H])c([H])c(F)c([H])c4F)c([H])c3[H])c(C(=O)N([H])[H])c2N([H])[H])C1([H])[H])[N+]([H])([H])C([H])([H])C([H])([H])OC([H])([H])C([H])([H])Oc1c([H])c([H])c2c(c1[H])C([H])([H])N(C(=O)C([H])(N([H])C(=O)C([H])(N([H])C([H])([H])[H])C([H])([H])[H])C(C([H])([H])[H])(C([H])([H])[H])C([H])([H])[H])C([H])(C(=O)N([H])C1([H])c3c([H])c([H])c([H])c([H])c3C([H])([H])C([H])([H])C1([H])[H])C2([H])[H]

$$$$
10:0:0
     RDKit          3D

101108  0  0  1  0  0  0  0  0999 V2000
  -27.9070  -21.9400   20.4080 C   0  0  0  0  0  0  0  0  0  0  0  0
  -27.9370  -20.7460   19.8010 N   0  0  0  0  0  0  0  0  0  0  0  0
  -26.9420  -22.7040   20.3410 O   0  0  0  0  0  0  0  0  0  0  0  0
  -28.7750  -20.1930   19.9150 H   0  0  0  0  0  0  0  0  0  0  0  0
  -28.9610  -22.0580   22.7180 C   0  0  0  0  0  1  0  0  0  0  0  0
  -29.1600  -22.3390   21.2110 C   0  0  0  0  0  3  0  0  0  0  0  0
  -29.5010  -23.7630   20.9850 N   0  0  0  0  0  4  0  0  0  0  0  0
  -28.8070  -24.1220   20.3460 H   0  0  0  0  0  0  0  0  0  0  0  0
  -29.3590  -24.2470   21.8590 H   0  0  0  0  0  0  0  0  0  0  0  0
  -30.8690  -24.0120   20.4600 C   0  0  0  0  0  2  0  0  0  0  0  0
  -31.4080  -25.4170   20.7980 C   0  0  0  0  0  2  0  0  0  0  0  0
  -31.0990  -26.3130   19.7370 O   0  0  0  0  0  0  0  0  0  0  0  0
  -26.3410  -30.0070   23.5480 C   0  0  0  0  0  0  0  0  0  0  0  0
  -29.8630  -26.8950   19.8160 C   0  0  0  0  0  0  0  0  0  0  0  0
  -25.5390  -29.0900   21.3940 C   0  0  0  0  0  3  0  0  0  0  0  0
  -27.3400  -28.1400   19.8580 C   0  0  0  0  0  0  0  0  0  0  0  0
  -28.0100  -29.6540   21.7340 C   0  0  0  0  0  2  0  0  0  0  0  0
  -28.3320  -28.5430   20.7610 C   0  0  0  0  0  0  0  0  0  0  0  0
  -29.5980  -27.9210   20.7490 C   0  0  0  0  0  3  0  0  0  0  0  0
  -28.8640  -26.4960   18.9100 C   0  0  0  0  0  3  0  0  0  0  0  0
  -27.5970  -27.1120   18.9320 C   0  0  0  0  0  3  0  0  0  0  0  0
  -26.0160  -28.8660   19.9330 C   0  0  0  0  0  2  0  0  0  0  0  0
  -26.6370  -29.5830   22.2880 N   0  0  0  0  0  0  0  0  0  0  0  0
  -25.1730  -30.0350   23.9570 O   0  0  0  0  0  0  0  0  0  0  0  0
  -24.8770  -27.7870   21.9000 C   0  0  0  0  0  0  0  0  0  0  0  0
  -23.8890  -27.2880   21.1400 N   0  0  0  0  0  0  0  0  0  0  0  0
  -25.2720  -27.2350   22.9290 O   0  0  0  0  0  0  0  0  0  0  0  0
  -23.6190  -27.8020   20.3140 H   0  0  0  0  0  0  0  0  0  0  0  0
  -21.4900  -24.9890   19.7250 C   0  0  0  0  0  0  0  0  0  0  0  0
  -23.1470  -26.0560   21.3980 C   0  0  0  0  0  3  0  0  0  0  0  0
  -24.0330  -24.8120   21.1570 C   0  0  0  0  0  2  0  0  0  0  0  0
  -23.9100  -24.2500   19.7370 C   0  0  0  0  0  2  0  0  0  0  0  0
  -22.4590  -23.8560   19.4380 C   0  0  0  0  0  2  0  0  0  0  0  0
  -21.8190  -26.0300   20.6330 C   0  0  0  0  0  0  0  0  0  0  0  0
  -20.8950  -27.0800   20.8340 C   0  0  0  0  0  3  0  0  0  0  0  0
  -19.6630  -27.0940   20.1550 C   0  0  0  0  0  3  0  0  0  0  0  0
  -19.3360  -26.0520   19.2700 C   0  0  0  0  0  3  0  0  0  0  0  0
  -20.2470  -25.0020   19.0590 C   0  0  0  0  0  3  0  0  0  0  0  0
  -27.4550  -30.5000   24.5280 C   0  0  0  0  0  3  0  0  0  0  0  0
  -27.7550  -29.4820   25.6950 C   0  0  1  0  0  0  0  0  0  0  0  0
  -26.4840  -28.9040   26.3600 C   0  0  0  0  0  1  0  0  0  0  0  0
  -28.5990  -28.2930   25.1780 C   0  0  0  0  0  1  0  0  0  0  0  0
  -28.5940  -30.1760   26.7940 C   0  0  0  0  0  1  0  0  0  0  0  0
  -27.0250  -31.7960   25.0670 N   0  0  0  0  0  0  0  0  0  0  0  0
  -27.4760  -32.9830   24.6400 C   0  0  0  0  0  0  0  0  0  0  0  0
  -28.3630  -33.0970   23.7910 O   0  0  0  0  0  0  0  0  0  0  0  0
  -26.2640  -31.7810   25.7300 H   0  0  0  0  0  0  0  0  0  0  0  0
  -25.8070  -34.8290   24.2770 C   0  0  0  0  0  1  0  0  0  0  0  0
  -26.8390  -34.2450   25.2540 C   0  0  0  0  0  3  0  0  0  0  0  0
  -28.7280  -34.8790   26.6910 C   0  0  0  0  0  1  0  0  0  0  0  0
  -27.8250  -35.2870   25.6170 N   0  0  0  0  0  0  0  0  0  0  0  0
  -27.3550  -36.1410   25.9050 H   0  0  0  0  0  0  0  0  0  0  0  0
  -26.9130  -20.1840   18.9250 C   0  0  0  0  0  2  0  0  0  0  0  0
  -27.5280  -19.1250   18.0010 C   0  0  0  0  0  2  0  0  0  0  0  0
  -28.4990  -19.7450   17.1670 O   0  0  0  0  0  0  0  0  0  0  0  0
  -29.4020  -18.8350   16.5510 C   0  0  0  0  0  2  0  0  0  0  0  0
  -30.7890  -18.9360   17.2160 C   0  0  0  0  0  2  0  0  0  0  0  0
  -30.9220  -18.0940   18.3570 O   0  0  0  0  0  0  0  0  0  0  0  0
  -31.3760  -16.7810   18.0510 C   0  0  0  0  0  2  0  0  0  0  0  0
  -32.0460  -16.1840   19.2940 C   0  0  0  0  0  2  0  0  0  0  0  0
  -31.0590  -15.8210   20.2550 O   0  0  0  0  0  0  0  0  0  0  0  0
  -31.5340  -15.7840   21.6010 C   0  0  0  0  0  2  0  0  0  0  0  0
  -32.4890  -14.6030   21.8690 C   0  0  0  0  0  2  0  0  0  0  0  0
  -32.1620  -12.1630   21.5120 C   0  0  0  0  0  0  0  0  0  0  0  0
  -31.4300   -9.9100   20.8270 C   0  0  0  0  0  2  0  0  0  0  0  0
  -30.7490   -9.9660   19.4470 C   0  0  0  0  0  2  0  0  0  0  0  0
  -29.2500  -10.2890   19.5930 C   0  0  0  0  0  2  0  0  0  0  0  0
  -29.0030  -11.5360   20.4800 C   0  0  0  0  0  3  0  0  0  0  0  0
  -29.7770  -11.4060   21.8090 C   0  0  0  0  0  2  0  0  0  0  0  0
  -31.2040  -11.2000   21.4910 N   0  0  0  0  0  0  0  0  0  0  0  0
  -33.3250  -11.9860   21.1390 O   0  0  0  0  0  0  0  0  0  0  0  0
  -31.7320  -13.3590   21.9120 N   0  0  0  0  0  0  0  0  0  0  0  0
  -30.7590  -13.4320   22.1680 H   0  0  0  0  0  0  0  0  0  0  0  0
  -26.8590  -12.9460   20.7210 C   0  0  0  0  0  0  0  0  0  0  0  0
  -25.5500  -12.5960   20.9080 C   0  0  0  0  0  0  0  0  0  0  0  0
  -25.5380  -11.1720   21.0090 C   0  0  0  0  0  0  0  0  0  0  0  0
  -27.5770  -11.7600   20.7100 N   0  0  0  0  0  0  0  0  0  0  0  0
  -26.7730  -10.6920   20.9420 N   0  0  0  0  0  0  0  0  0  0  0  0
  -24.4190  -10.2300   21.1100 C   0  0  0  0  0  0  0  0  0  0  0  0
  -24.4130   -9.1940   22.0700 C   0  0  0  0  0  3  0  0  0  0  0  0
  -23.3190   -8.3070   22.1590 C   0  0  0  0  0  3  0  0  0  0  0  0
  -22.2160   -8.4550   21.2850 C   0  0  0  0  0  0  0  0  0  0  0  0
  -22.2370   -9.4740   20.3170 C   0  0  0  0  0  3  0  0  0  0  0  0
  -23.3290  -10.3520   20.2260 C   0  0  0  0  0  3  0  0  0  0  0  0
  -21.1210   -7.6250   21.2780 O   0  0  0  0  0  0  0  0  0  0  0  0
  -20.7370   -6.9320   22.3970 C   0  0  0  0  0  0  0  0  0  0  0  0
  -20.4000   -7.5870   23.6020 C   0  0  0  0  0  3  0  0  0  0  0  0
  -19.9460   -6.8400   24.7060 C   0  0  0  0  0  3  0  0  0  0  0  0
  -19.8160   -5.4420   24.6060 C   0  0  0  0  0  0  0  0  0  0  0  0
  -20.1470   -4.7880   23.4060 C   0  0  0  0  0  3  0  0  0  0  0  0
  -20.6040   -5.5320   22.3030 C   0  0  0  0  0  0  0  0  0  0  0  0
  -20.8990   -4.8990   21.1420 F   0  0  0  0  0  0  0  0  0  0  0  0
  -19.3730   -4.7240   25.6650 F   0  0  0  0  0  0  0  0  0  0  0  0
  -24.3650  -13.5180   20.9030 C   0  0  0  0  0  0  0  0  0  0  0  0
  -23.3240  -13.1890   21.6590 N   0  0  0  0  0  0  0  0  0  0  0  0
  -24.3740  -14.5680   20.2610 O   0  0  0  0  0  0  0  0  0  0  0  0
  -23.3210  -12.3420   22.2060 H   0  0  0  0  0  0  0  0  0  0  0  0
  -22.5190  -13.7980   21.6890 H   0  0  0  0  0  0  0  0  0  0  0  0
  -27.4990  -14.1680   20.5510 N   0  0  0  0  0  0  0  0  0  0  0  0
  -26.9980  -15.0480   20.5810 H   0  0  0  0  0  0  0  0  0  0  0  0
  -28.5040  -14.2750   20.5660 H   0  0  0  0  0  0  0  0  0  0  0  0
  1  6  1  0
  2  4  1  0
  2  1  1  0
  3  1  2  0
  6  5  1  0
  7  6  1  0
  7  9  1  0
  8  7  1  0
 10 11  1  0
 10  7  1  0
 12 14  1  0
 12 11  1  0
 13 24  2  0
 14 19  1  0
 15 25  1  0
 15 23  1  0
 16 22  1  0
 16 18  1  0
 17 23  1  0
 18 17  1  0
 19 18  2  0
 20 21  1  0
 20 14  2  0
 21 16  2  0
 22 15  1  0
 23 13  1  0
 25 27  2  0
 26 25  1  0
 28 26  1  0
 29 34  1  0
 30 26  1  0
 31 30  1  0
 32 31  1  0
 33 29  1  0
 33 32  1  0
 34 35  2  0
 34 30  1  0
 36 35  1  0
 37 36  2  0
 38 37  1  0
 38 29  2  0
 39 13  1  0
 39 44  1  0
 39 40  1  0
 40 41  1  1
 40 43  1  0
 42 40  1  0
 44 47  1  0
 45 44  1  0
 45 49  1  0
 46 45  2  0
 49 48  1  0
 49 51  1  0
 51 52  1  0
 51 50  1  0
 53  2  1  0
 54 53  1  0
 55 54  1  0
 56 55  1  0
 56 57  1  0
 57 58  1  0
 59 58  1  0
 59 60  1  0
 60 61  1  0
 61 62  1  0
 62 63  1  0
 63 72  1  0
 64 72  1  0
 65 70  1  0
 66 67  1  0
 66 65  1  0
 68 67  1  0
 68 77  1  0
 68 69  1  0
 70 64  1  0
 70 69  1  0
 71 64  2  0
 72 73  1  0
 74 75  2  0
 75 76  1  0
 76 79  1  0
 77 74  1  0
 77 78  1  0
 78 76  2  0
 79 80  1  0
 80 81  2  0
 82 81  1  0
 83 82  2  0
 84 83  1  0
 84 79  2  0
 85 82  1  0
 85 86  1  0
 86 87  1  0
 87 88  2  0
 89 88  1  0
 89 93  1  0
 90 89  2  0
 91 86  2  0
 91 90  1  0
 92 91  1  0
 94 75  1  0
 94 95  1  0
 95 98  1  0
 95 97  1  0
 96 94  2  0
 99101  1  0
 99100  1  0
 99 74  1  0
M  ISO  4  11 101  12 101  64 100  72 100
M  END
>  <TORSDO>  (11) 
F 31

>  <SCORE>  (11) 
-5.334

>  <name>  (11) 
10

>  <ligand_id>  (11) 
10

>  <original_smiles>  (11) 
[H]c1c([H])c([H])c2c(c1[H])C([H])([H])C([H])([H])C([H])([H])C2([H])N([H])C(=O)C1([H])N(C(=O)C([H])(N([H])C(=O)C([H])(N([H])C([H])([H])[H])C([H])([H])[H])C(C([H])([H])[H])(C([H])([H])[H])C([H])([H])[H])C([H])([H])c2c([H])c(OC([H])([H])C([H])([H])[N+]([H])([H])C([H])(C(=O)N([H])C([H])([H])C([H])([H])OC([H])([H])C([H])([H])OC([H])([H])C([H])([H])OC([H])([H])C([H])([H])N([H])C(=O)N3C([H])([H])C([H])([H])C([H])([H])C([H])(n4nc(-c5c([H])c([H])c(Oc6c([H])c([H])c(F)c([H])c6F)c([H])c5[H])c(C(=O)N([H])[H])c4N([H])[H])C3([H])[H])C([H])([H])[H])c([H])c([H])c2C1([H])[H]

>  <smiles>  (11) 
[H]c1c([H])c([H])c2c(c1[H])C([H])([H])C([H])([H])C([H])([H])C2([H])N([H])C(=O)C1([H])N(C(=O)C([H])(N([H])C(=O)C([H])(N([H])C([H])([H])[H])C([H])([H])[H])C(C([H])([H])[H])(C([H])([H])[H])C([H])([H])[H])C([H])([H])c2c([H])c(OC([H])([H])C([H])([H])[N+]([H])([H])C([H])(C(=O)N([H])C([H])([H])C([H])([H])OC([H])([H])C([H])([H])OC([H])([H])C([H])([H])OC([H])([H])C([H])([H])N([H])C(=O)N3C([H])([H])C([H])([H])C([H])([H])C([H])(n4nc(-c5c([H])c([H])c(Oc6c([H])c([H])c(F)c([H])c6F)c([H])c5[H])c(C(=O)N([H])[H])c4N([H])[H])C3([H])[H])C([H])([H])[H])c([H])c([H])c2C1([H])[H]

$$$$
11:0:0
     RDKit          3D

 92 99  0  0  1  0  0  0  0  0999 V2000
  -27.9620  -21.5560   19.6440 C   0  0  0  0  0  2  0  0  0  0  0  0
  -27.5850  -22.0990   21.0340 C   0  0  0  0  0  2  0  0  0  0  0  0
  -28.2460  -23.3230   21.3430 O   0  0  0  0  0  0  0  0  0  0  0  0
  -27.7790  -24.4350   20.5890 C   0  0  0  0  0  2  0  0  0  0  0  0
  -28.4630  -25.7220   21.0840 C   0  0  0  0  0  2  0  0  0  0  0  0
  -28.3930  -26.7770   20.1300 O   0  0  0  0  0  0  0  0  0  0  0  0
  -24.5750  -31.8990   23.2430 C   0  0  0  0  0  0  0  0  0  0  0  0
  -27.2200  -27.4840   20.1600 C   0  0  0  0  0  0  0  0  0  0  0  0
  -23.3660  -30.4950   21.6020 C   0  0  0  0  0  3  0  0  0  0  0  0
  -24.8190  -28.9580   20.1810 C   0  0  0  0  0  0  0  0  0  0  0  0
  -25.8870  -30.8610   21.4010 C   0  0  0  0  0  2  0  0  0  0  0  0
  -25.9720  -29.4890   20.7700 C   0  0  0  0  0  0  0  0  0  0  0  0
  -27.1780  -28.7580   20.7610 C   0  0  0  0  0  3  0  0  0  0  0  0
  -26.0580  -26.9600   19.5580 C   0  0  0  0  0  3  0  0  0  0  0  0
  -24.8540  -27.6900   19.5750 C   0  0  0  0  0  3  0  0  0  0  0  0
  -23.5720  -29.8090   20.2240 C   0  0  0  0  0  2  0  0  0  0  0  0
  -24.6270  -31.0970   22.1420 N   0  0  0  0  0  0  0  0  0  0  0  0
  -23.4950  -32.1740   23.7840 O   0  0  0  0  0  0  0  0  0  0  0  0
  -22.7160  -29.4740   22.5640 C   0  0  0  0  0  0  0  0  0  0  0  0
  -21.3920  -29.2940   22.4370 N   0  0  0  0  0  0  0  0  0  0  0  0
  -23.4010  -28.8470   23.3790 O   0  0  0  0  0  0  0  0  0  0  0  0
  -20.9040  -29.8490   21.7480 H   0  0  0  0  0  0  0  0  0  0  0  0
  -18.0150  -28.1150   22.9300 C   0  0  0  0  0  0  0  0  0  0  0  0
  -20.5720  -28.3610   23.2080 C   0  0  0  0  0  3  0  0  0  0  0  0
  -20.6700  -26.9290   22.6320 C   0  0  0  0  0  2  0  0  0  0  0  0
  -19.5690  -26.6120   21.6150 C   0  0  0  0  0  2  0  0  0  0  0  0
  -18.1880  -26.7620   22.2570 C   0  0  0  0  0  2  0  0  0  0  0  0
  -19.1360  -28.8720   23.3620 C   0  0  0  0  0  0  0  0  0  0  0  0
  -18.9230  -30.1380   23.9480 C   0  0  0  0  0  3  0  0  0  0  0  0
  -17.6210  -30.6470   24.1090 C   0  0  0  0  0  3  0  0  0  0  0  0
  -16.5140  -29.8850   23.6960 C   0  0  0  0  0  3  0  0  0  0  0  0
  -16.7110  -28.6220   23.1130 C   0  0  0  0  0  3  0  0  0  0  0  0
  -25.8650  -32.5270   23.8610 C   0  0  0  0  0  3  0  0  0  0  0  0
  -26.3870  -31.7530   25.1320 C   0  0  1  0  0  0  0  0  0  0  0  0
  -25.2990  -31.5160   26.2040 C   0  0  0  0  0  1  0  0  0  0  0  0
  -26.9620  -30.3730   24.7310 C   0  0  0  0  0  1  0  0  0  0  0  0
  -27.5420  -32.5430   25.7930 C   0  0  0  0  0  1  0  0  0  0  0  0
  -25.5610  -33.9250   24.1890 N   0  0  0  0  0  0  0  0  0  0  0  0
  -25.8990  -34.9750   23.4250 C   0  0  0  0  0  0  0  0  0  0  0  0
  -26.5710  -34.8660   22.3960 O   0  0  0  0  0  0  0  0  0  0  0  0
  -24.9680  -34.0840   24.9890 H   0  0  0  0  0  0  0  0  0  0  0  0
  -24.1740  -36.7650   23.0580 C   0  0  0  0  0  1  0  0  0  0  0  0
  -25.4120  -36.3630   23.8760 C   0  0  0  0  0  3  0  0  0  0  0  0
  -27.5460  -37.2430   24.7100 C   0  0  0  0  0  1  0  0  0  0  0  0
  -26.4470  -37.4150   23.7650 N   0  0  0  0  0  0  0  0  0  0  0  0
  -26.0420  -38.3350   23.9130 H   0  0  0  0  0  0  0  0  0  0  0  0
  -27.5610  -20.1990   19.5480 O   0  0  0  0  0  0  0  0  0  0  0  0
  -27.8960  -19.6180   18.2930 C   0  0  0  0  0  2  0  0  0  0  0  0
  -27.6710  -18.1030   18.3920 C   0  0  0  0  0  2  0  0  0  0  0  0
  -29.7150  -17.3150   19.5630 C   0  0  0  0  0  0  0  0  0  0  0  0
  -28.4030  -17.5650   19.5350 N   0  0  0  0  0  0  0  0  0  0  0  0
  -30.4370  -17.4070   18.5700 O   0  0  0  0  0  0  0  0  0  0  0  0
  -27.8900  -17.4910   20.4040 H   0  0  0  0  0  0  0  0  0  0  0  0
  -30.2970  -16.8780   20.9090 C   0  0  0  0  0  2  0  0  0  0  0  0
  -30.7750  -14.4750   20.5460 C   0  0  0  0  0  0  0  0  0  0  0  0
  -30.4920  -12.3380   19.3730 C   0  0  0  0  0  2  0  0  0  0  0  0
  -29.5760  -12.5730   18.1550 C   0  0  0  0  0  2  0  0  0  0  0  0
  -28.0900  -12.4470   18.5520 C   0  0  0  0  0  2  0  0  0  0  0  0
  -27.7360  -13.2780   19.8120 C   0  0  0  0  0  3  0  0  0  0  0  0
  -28.7610  -13.0160   20.9380 C   0  0  0  0  0  2  0  0  0  0  0  0
  -30.1070  -13.3030   20.4080 N   0  0  0  0  0  0  0  0  0  0  0  0
  -31.8900  -14.6890   20.0630 O   0  0  0  0  0  0  0  0  0  0  0  0
  -30.0560  -15.4520   21.1070 N   0  0  0  0  0  0  0  0  0  0  0  0
  -29.1520  -15.1910   21.4690 H   0  0  0  0  0  0  0  0  0  0  0  0
  -25.3180  -13.9090   20.4450 C   0  0  0  0  0  0  0  0  0  0  0  0
  -24.2400  -13.1480   20.8030 C   0  0  0  0  0  0  0  0  0  0  0  0
  -24.6980  -11.7950   20.8100 C   0  0  0  0  0  0  0  0  0  0  0  0
  -26.3670  -13.0210   20.2560 N   0  0  0  0  0  0  0  0  0  0  0  0
  -25.9940  -11.7440   20.5350 N   0  0  0  0  0  0  0  0  0  0  0  0
  -23.9650  -10.5380   21.0100 C   0  0  0  0  0  0  0  0  0  0  0  0
  -24.3910   -9.5790   21.9550 C   0  0  0  0  0  3  0  0  0  0  0  0
  -23.6630   -8.3850   22.1390 C   0  0  0  0  0  3  0  0  0  0  0  0
  -22.4940   -8.1430   21.3800 C   0  0  0  0  0  0  0  0  0  0  0  0
  -22.0880   -9.0900   20.4230 C   0  0  0  0  0  3  0  0  0  0  0  0
  -22.8170  -10.2760   20.2370 C   0  0  0  0  0  3  0  0  0  0  0  0
  -21.7360   -7.0010   21.4730 O   0  0  0  0  0  0  0  0  0  0  0  0
  -21.6920   -6.2590   22.6260 C   0  0  0  0  0  0  0  0  0  0  0  0
  -21.2920   -6.8200   23.8600 C   0  0  0  0  0  3  0  0  0  0  0  0
  -21.1950   -6.0040   25.0050 C   0  0  0  0  0  3  0  0  0  0  0  0
  -21.4880   -4.6290   24.9170 C   0  0  0  0  0  0  0  0  0  0  0  0
  -21.8840   -4.0690   23.6910 C   0  0  0  0  0  3  0  0  0  0  0  0
  -21.9820   -4.8820   22.5480 C   0  0  0  0  0  0  0  0  0  0  0  0
  -22.3440   -4.3340   21.3630 F   0  0  0  0  0  0  0  0  0  0  0  0
  -21.3900   -3.8430   26.0150 F   0  0  0  0  0  0  0  0  0  0  0  0
  -22.8370  -13.6320   21.0350 C   0  0  0  0  0  0  0  0  0  0  0  0
  -22.0890  -12.9530   21.8970 N   0  0  0  0  0  0  0  0  0  0  0  0
  -22.4130  -14.6490   20.4860 O   0  0  0  0  0  0  0  0  0  0  0  0
  -22.4460  -12.1330   22.3680 H   0  0  0  0  0  0  0  0  0  0  0  0
  -21.1460  -13.2580   22.0900 H   0  0  0  0  0  0  0  0  0  0  0  0
  -25.4910  -15.2760   20.2470 N   0  0  0  0  0  0  0  0  0  0  0  0
  -24.7260  -15.9350   20.3410 H   0  0  0  0  0  0  0  0  0  0  0  0
  -26.3410  -15.6980   19.9010 H   0  0  0  0  0  0  0  0  0  0  0  0
  1  2  1  0
  2  3  1  0
  4  5  1  0
  4  3  1  0
  6  8  1  0
  6  5  1  0
  7 18  2  0
  8 13  1  0
  9 17  1  0
  9 19  1  0
 10 16  1  0
 10 12  1  0
 11 17  1  0
 12 11  1  0
 13 12  2  0
 14 15  1  0
 14  8  2  0
 15 10  2  0
 16  9  1  0
 17  7  1  0
 19 21  2  0
 20 19  1  0
 22 20  1  0
 23 32  2  0
 23 28  1  0
 24 20  1  0
 24 28  1  0
 25 24  1  0
 26 27  1  0
 26 25  1  0
 27 23  1  0
 28 29  2  0
 29 30  1  0
 31 30  2  0
 32 31  1  0
 33  7  1  0
 33 38  1  0
 33 34  1  0
 34 37  1  1
 34 35  1  0
 36 34  1  0
 38 41  1  0
 39 43  1  0
 39 38  1  0
 40 39  2  0
 43 42  1  0
 45 43  1  0
 45 46  1  0
 45 44  1  0
 47  1  1  0
 48 49  1  0
 48 47  1  0
 49 51  1  0
 50 54  1  0
 51 50  1  0
 51 53  1  0
 52 50  2  0
 54 63  1  0
 55 63  1  0
 56 61  1  0
 57 58  1  0
 57 56  1  0
 59 58  1  0
 59 68  1  0
 59 60  1  0
 61 55  1  0
 61 60  1  0
 62 55  2  0
 63 64  1  0
 65 66  2  0
 66 67  1  0
 66 85  1  0
 67 70  1  0
 68 65  1  0
 68 69  1  0
 69 67  2  0
 70 71  1  0
 71 72  2  0
 73 76  1  0
 73 72  1  0
 74 73  2  0
 75 74  1  0
 75 70  2  0
 76 77  1  0
 77 78  1  0
 78 79  2  0
 80 79  1  0
 80 84  1  0
 81 80  2  0
 82 77  2  0
 82 81  1  0
 83 82  1  0
 85 86  1  0
 86 89  1  0
 86 88  1  0
 87 85  2  0
 90 91  1  0
 90 65  1  0
 92 90  1  0
M  ISO  4   5 101   6 101  55 100  63 100
M  END
>  <TORSDO>  (12) 
F 25

>  <SCORE>  (12) 
-12.211

>  <name>  (12) 
11

>  <ligand_id>  (12) 
11

>  <original_smiles>  (12) 
[H]c1c([H])c([H])c2c(c1[H])C([H])([H])C([H])([H])C([H])([H])C2([H])N([H])C(=O)C1([H])N(C(=O)C([H])(N([H])C(=O)C([H])(N([H])C([H])([H])[H])C([H])([H])[H])C(C([H])([H])[H])(C([H])([H])[H])C([H])([H])[H])C([H])([H])c2c([H])c(OC([H])([H])C([H])([H])OC([H])([H])C([H])([H])OC([H])([H])C([H])([H])N([H])C(=O)C([H])([H])N([H])C(=O)N3C([H])([H])C([H])([H])C([H])([H])C([H])(n4nc(-c5c([H])c([H])c(Oc6c([H])c([H])c(F)c([H])c6F)c([H])c5[H])c(C(=O)N([H])[H])c4N([H])[H])C3([H])[H])c([H])c([H])c2C1([H])[H]

>  <smiles>  (12) 
[H]c1c([H])c([H])c2c(c1[H])C([H])([H])C([H])([H])C([H])([H])C2([H])N([H])C(=O)C1([H])N(C(=O)C([H])(N([H])C(=O)C([H])(N([H])C([H])([H])[H])C([H])([H])[H])C(C([H])([H])[H])(C([H])([H])[H])C([H])([H])[H])C([H])([H])c2c([H])c(OC([H])([H])C([H])([H])OC([H])([H])C([H])([H])OC([H])([H])C([H])([H])N([H])C(=O)C([H])([H])N([H])C(=O)N3C([H])([H])C([H])([H])C([H])([H])C([H])(n4nc(-c5c([H])c([H])c(Oc6c([H])c([H])c(F)c([H])c6F)c([H])c5[H])c(C(=O)N([H])[H])c4N([H])[H])C3([H])[H])c([H])c([H])c2C1([H])[H]

$$$$
12:0:0
     RDKit          3D

 97105  0  0  1  0  0  0  0  0999 V2000
  -28.4870  -24.5670   22.0970 C   0  0  0  0  0  0  0  0  0  0  0  0
  -27.6190  -22.3680   19.2380 C   0  0  0  0  0  0  0  0  0  0  0  0
  -29.7630  -22.5680   20.5070 C   0  0  0  0  0  2  0  0  0  0  0  0
  -28.0920  -24.3790   20.5980 C   0  0  0  0  0  3  0  0  0  0  0  0
  -29.6480  -22.3960   22.0200 C   0  0  0  0  0  3  0  0  0  0  0  0
  -28.4590  -23.0560   20.0530 N   0  0  0  0  0  0  0  0  0  0  0  0
  -28.0630  -25.4930   22.7900 O   0  0  0  0  0  0  0  0  0  0  0  0
  -26.5150  -22.8140   18.9140 O   0  0  0  0  0  0  0  0  0  0  0  0
  -29.3730  -23.6660   22.6090 O   0  0  0  0  0  0  0  0  0  0  0  0
  -28.0510  -21.0030   18.6690 C   0  0  0  0  0  2  0  0  0  0  0  0
  -28.1410  -20.0280   19.7110 O   0  0  0  0  0  0  0  0  0  0  0  0
  -29.0530  -18.9870   19.3880 C   0  0  0  0  0  2  0  0  0  0  0  0
  -28.8960  -17.7860   20.3330 C   0  0  0  0  0  2  0  0  0  0  0  0
  -30.1170  -16.8510   20.2320 C   0  0  0  0  0  2  0  0  0  0  0  0
  -30.6480  -14.4600   20.4290 C   0  0  0  0  0  0  0  0  0  0  0  0
  -30.3500  -12.3020   19.3150 C   0  0  0  0  0  2  0  0  0  0  0  0
  -29.4090  -12.5410   18.1160 C   0  0  0  0  0  2  0  0  0  0  0  0
  -27.9340  -12.4170   18.5490 C   0  0  0  0  0  2  0  0  0  0  0  0
  -27.6060  -13.2430   19.8220 C   0  0  0  0  0  3  0  0  0  0  0  0
  -28.6640  -13.0000   20.9250 C   0  0  0  0  0  2  0  0  0  0  0  0
  -29.9890  -13.2780   20.3510 N   0  0  0  0  0  0  0  0  0  0  0  0
  -31.7870  -14.6360   19.9890 O   0  0  0  0  0  0  0  0  0  0  0  0
  -29.8730  -15.5050   20.7550 N   0  0  0  0  0  0  0  0  0  0  0  0
  -28.9550  -15.2950   21.1170 H   0  0  0  0  0  0  0  0  0  0  0  0
  -25.2040  -13.8570   20.5230 C   0  0  0  0  0  0  0  0  0  0  0  0
  -24.1360  -13.0880   20.8980 C   0  0  0  0  0  0  0  0  0  0  0  0
  -24.5970  -11.7350   20.8720 C   0  0  0  0  0  0  0  0  0  0  0  0
  -26.2510  -12.9740   20.3000 N   0  0  0  0  0  0  0  0  0  0  0  0
  -25.8870  -11.6930   20.5640 N   0  0  0  0  0  0  0  0  0  0  0  0
  -23.8700  -10.4740   21.0680 C   0  0  0  0  0  0  0  0  0  0  0  0
  -24.3200   -9.4950   21.9810 C   0  0  0  0  0  3  0  0  0  0  0  0
  -23.5940   -8.2990   22.1670 C   0  0  0  0  0  3  0  0  0  0  0  0
  -22.4020   -8.0720   21.4390 C   0  0  0  0  0  0  0  0  0  0  0  0
  -21.9680   -9.0400   20.5150 C   0  0  0  0  0  3  0  0  0  0  0  0
  -22.6940  -10.2280   20.3290 C   0  0  0  0  0  3  0  0  0  0  0  0
  -21.6490   -6.9260   21.5320 O   0  0  0  0  0  0  0  0  0  0  0  0
  -21.6460   -6.1580   22.6690 C   0  0  0  0  0  0  0  0  0  0  0  0
  -21.3010   -6.6920   23.9300 C   0  0  0  0  0  3  0  0  0  0  0  0
  -21.2470   -5.8510   25.0590 C   0  0  0  0  0  3  0  0  0  0  0  0
  -21.5250   -4.4770   24.9280 C   0  0  0  0  0  0  0  0  0  0  0  0
  -21.8630   -3.9420   23.6720 C   0  0  0  0  0  3  0  0  0  0  0  0
  -21.9200   -4.7800   22.5450 C   0  0  0  0  0  0  0  0  0  0  0  0
  -22.2250   -4.2580   21.3320 F   0  0  0  0  0  0  0  0  0  0  0  0
  -21.4660   -3.6670   26.0110 F   0  0  0  0  0  0  0  0  0  0  0  0
  -22.7380  -13.5670   21.1690 C   0  0  0  0  0  0  0  0  0  0  0  0
  -22.0120  -12.8820   22.0450 N   0  0  0  0  0  0  0  0  0  0  0  0
  -22.2990  -14.5880   20.6400 O   0  0  0  0  0  0  0  0  0  0  0  0
  -22.3730  -12.0550   22.4950 H   0  0  0  0  0  0  0  0  0  0  0  0
  -21.0760  -13.1890   22.2700 H   0  0  0  0  0  0  0  0  0  0  0  0
  -25.3670  -15.2260   20.3330 N   0  0  0  0  0  0  0  0  0  0  0  0
  -24.5930  -15.8730   20.4270 H   0  0  0  0  0  0  0  0  0  0  0  0
  -26.2030  -15.6570   19.9620 H   0  0  0  0  0  0  0  0  0  0  0  0
  -28.6090  -25.4900   19.6420 C   0  0  0  0  0  2  0  0  0  0  0  0
  -28.4540  -26.8280   20.1190 O   0  0  0  0  0  0  0  0  0  0  0  0
  -24.6070  -31.8950   23.2220 C   0  0  0  0  0  0  0  0  0  0  0  0
  -27.2330  -27.4670   20.1160 C   0  0  0  0  0  0  0  0  0  0  0  0
  -23.3810  -30.4900   21.5920 C   0  0  0  0  0  3  0  0  0  0  0  0
  -24.8210  -28.9450   20.1590 C   0  0  0  0  0  0  0  0  0  0  0  0
  -25.9000  -30.8560   21.3630 C   0  0  0  0  0  2  0  0  0  0  0  0
  -25.9800  -29.4820   20.7300 C   0  0  0  0  0  0  0  0  0  0  0  0
  -27.1820  -28.7470   20.7090 C   0  0  0  0  0  3  0  0  0  0  0  0
  -26.0550  -26.9290   19.5500 C   0  0  0  0  0  3  0  0  0  0  0  0
  -24.8520  -27.6670   19.5700 C   0  0  0  0  0  3  0  0  0  0  0  0
  -23.5750  -29.8010   20.2130 C   0  0  0  0  0  2  0  0  0  0  0  0
  -24.6480  -31.0960   22.1170 N   0  0  0  0  0  0  0  0  0  0  0  0
  -23.5320  -32.1670   23.7740 O   0  0  0  0  0  0  0  0  0  0  0  0
  -22.7420  -29.4720   22.5640 C   0  0  0  0  0  0  0  0  0  0  0  0
  -21.4170  -29.2890   22.4500 N   0  0  0  0  0  0  0  0  0  0  0  0
  -23.4350  -28.8500   23.3730 O   0  0  0  0  0  0  0  0  0  0  0  0
  -20.9190  -29.8440   21.7690 H   0  0  0  0  0  0  0  0  0  0  0  0
  -18.0520  -28.0820   22.9710 C   0  0  0  0  0  0  0  0  0  0  0  0
  -20.6100  -28.3500   23.2300 C   0  0  0  0  0  3  0  0  0  0  0  0
  -20.7150  -26.9160   22.6590 C   0  0  0  0  0  2  0  0  0  0  0  0
  -19.6090  -26.5840   21.6520 C   0  0  0  0  0  2  0  0  0  0  0  0
  -18.2300  -26.7300   22.3030 C   0  0  0  0  0  2  0  0  0  0  0  0
  -19.1700  -28.8490   23.3920 C   0  0  0  0  0  0  0  0  0  0  0  0
  -18.9500  -30.1160   23.9760 C   0  0  0  0  0  3  0  0  0  0  0  0
  -17.6450  -30.6150   24.1430 C   0  0  0  0  0  3  0  0  0  0  0  0
  -16.5420  -29.8440   23.7380 C   0  0  0  0  0  3  0  0  0  0  0  0
  -16.7460  -28.5800   23.1580 C   0  0  0  0  0  3  0  0  0  0  0  0
  -25.9010  -32.5260   23.8270 C   0  0  0  0  0  3  0  0  0  0  0  0
  -25.5910  -33.9200   24.1740 N   0  0  0  0  0  0  0  0  0  0  0  0
  -25.9080  -34.9800   23.4170 C   0  0  0  0  0  0  0  0  0  0  0  0
  -26.5620  -34.8870   22.3760 O   0  0  0  0  0  0  0  0  0  0  0  0
  -25.0090  -34.0640   24.9850 H   0  0  0  0  0  0  0  0  0  0  0  0
  -24.1620  -36.7630   23.1060 C   0  0  0  0  0  1  0  0  0  0  0  0
  -25.4200  -36.3610   23.8920 C   0  0  0  0  0  3  0  0  0  0  0  0
  -27.5680  -37.2500   24.6850 C   0  0  0  0  0  1  0  0  0  0  0  0
  -26.4440  -37.4210   23.7680 N   0  0  0  0  0  0  0  0  0  0  0  0
  -26.0360  -38.3380   23.9290 H   0  0  0  0  0  0  0  0  0  0  0  0
  -26.4450  -31.7450   25.0860 C   0  0  1  0  0  0  0  0  0  0  0  0
  -25.3730  -31.4950   26.1730 C   0  0  0  0  0  1  0  0  0  0  0  0
  -27.0250  -30.3740   24.6670 C   0  0  0  0  0  1  0  0  0  0  0  0
  -27.6050  -32.5370   25.7330 C   0  0  0  0  0  1  0  0  0  0  0  0
  -30.9480  -21.8570   22.6510 C   0  0  0  0  0  2  0  0  0  0  0  0
  -30.7020  -21.3650   23.9610 O   0  0  0  0  0  0  0  0  0  0  0  0
  -30.0630  -20.6620   23.8950 H   0  0  0  0  0  0  0  0  0  0  0  0
  1  9  1  0
  1  7  2  0
  2  6  1  0
  3  5  1  0
  4 53  1  0
  4  1  1  0
  5  9  1  0
  5 95  1  0
  6  3  1  0
  6  4  1  0
  8  2  2  0
 10  2  1  0
 10 11  1  0
 12 11  1  0
 12 13  1  0
 14 13  1  0
 14 23  1  0
 15 23  1  0
 16 21  1  0
 17 18  1  0
 17 16  1  0
 19 18  1  0
 19 28  1  0
 19 20  1  0
 21 15  1  0
 21 20  1  0
 22 15  2  0
 23 24  1  0
 25 26  2  0
 26 45  1  0
 27 26  1  0
 27 30  1  0
 28 25  1  0
 28 29  1  0
 29 27  2  0
 30 31  1  0
 31 32  2  0
 33 36  1  0
 33 32  1  0
 34 33  2  0
 35 34  1  0
 35 30  2  0
 36 37  1  0
 37 38  1  0
 38 39  2  0
 40 39  1  0
 40 44  1  0
 41 40  2  0
 42 37  2  0
 42 41  1  0
 43 42  1  0
 45 46  1  0
 46 49  1  0
 46 48  1  0
 47 45  2  0
 50 51  1  0
 50 25  1  0
 52 50  1  0
 53 54  1  0
 55 66  2  0
 56 54  1  0
 56 61  1  0
 57 65  1  0
 57 67  1  0
 58 64  1  0
 58 60  1  0
 59 65  1  0
 60 59  1  0
 61 60  2  0
 62 63  1  0
 62 56  2  0
 63 58  2  0
 64 57  1  0
 65 55  1  0
 67 69  2  0
 68 67  1  0
 70 68  1  0
 71 80  2  0
 71 76  1  0
 72 68  1  0
 72 76  1  0
 73 72  1  0
 74 75  1  0
 74 73  1  0
 75 71  1  0
 76 77  2  0
 77 78  1  0
 79 78  2  0
 80 79  1  0
 81 55  1  0
 81 82  1  0
 81 91  1  0
 82 85  1  0
 83 87  1  0
 83 82  1  0
 84 83  2  0
 87 86  1  0
 89 87  1  0
 89 90  1  0
 89 88  1  0
 91 94  1  1
 91 92  1  0
 93 91  1  0
 95 96  1  0
 97 96  1  0
M  ISO  4  15 100  23 100  53 101  54 101
M  END
>  <TORSDO>  (13) 
F 24

>  <SCORE>  (13) 
-13.159

>  <name>  (13) 
12

>  <ligand_id>  (13) 
12

>  <original_smiles>  (13) 
[H]OC([H])([H])C1([H])OC(=O)C([H])(C([H])([H])Oc2c([H])c([H])c3c(c2[H])C([H])([H])N(C(=O)C([H])(N([H])C(=O)C([H])(N([H])C([H])([H])[H])C([H])([H])[H])C(C([H])([H])[H])(C([H])([H])[H])C([H])([H])[H])C([H])(C(=O)N([H])C2([H])c4c([H])c([H])c([H])c([H])c4C([H])([H])C([H])([H])C2([H])[H])C3([H])[H])N(C(=O)C([H])([H])OC([H])([H])C([H])([H])C([H])([H])N([H])C(=O)N2C([H])([H])C([H])([H])C([H])([H])C([H])(n3nc(-c4c([H])c([H])c(Oc5c([H])c([H])c(F)c([H])c5F)c([H])c4[H])c(C(=O)N([H])[H])c3N([H])[H])C2([H])[H])C1([H])[H]

>  <smiles>  (13) 
[H]OC([H])([H])C1([H])OC(=O)C([H])(C([H])([H])Oc2c([H])c([H])c3c(c2[H])C([H])([H])N(C(=O)C([H])(N([H])C(=O)C([H])(N([H])C([H])([H])[H])C([H])([H])[H])C(C([H])([H])[H])(C([H])([H])[H])C([H])([H])[H])C([H])(C(=O)N([H])C2([H])c4c([H])c([H])c([H])c([H])c4C([H])([H])C([H])([H])C2([H])[H])C3([H])[H])N(C(=O)C([H])([H])OC([H])([H])C([H])([H])C([H])([H])N([H])C(=O)N2C([H])([H])C([H])([H])C([H])([H])C([H])(n3nc(-c4c([H])c([H])c(Oc5c([H])c([H])c(F)c([H])c5F)c([H])c4[H])c(C(=O)N([H])[H])c3N([H])[H])C2([H])[H])C1([H])[H]

$$$$
13:0:0
     RDKit          3D

102109  0  0  1  0  0  0  0  0999 V2000
  -27.7920  -23.0360   18.8820 C   0  0  0  0  0  0  0  0  0  0  0  0
  -28.0120  -23.9400   19.8410 N   0  0  0  0  0  0  0  0  0  0  0  0
  -27.8780  -21.8170   19.0410 O   0  0  0  0  0  0  0  0  0  0  0  0
  -27.8520  -24.9110   19.6020 H   0  0  0  0  0  0  0  0  0  0  0  0
  -26.0620  -23.3400   17.0570 C   0  0  0  0  0  1  0  0  0  0  0  0
  -27.5230  -23.5810   17.4770 C   0  0  0  0  0  3  0  0  0  0  0  0
  -28.4880  -22.9090   16.5830 N   0  0  0  0  0  4  0  0  0  0  0  0
  -28.5600  -21.9760   16.9730 H   0  0  0  0  0  0  0  0  0  0  0  0
  -28.1350  -22.8510   15.6440 H   0  0  0  0  0  0  0  0  0  0  0  0
  -29.8610  -23.4810   16.6100 C   0  0  0  0  0  2  0  0  0  0  0  0
  -30.9100  -22.3720   16.7650 C   0  0  0  0  0  2  0  0  0  0  0  0
  -30.5250  -21.5930   17.8930 O   0  0  0  0  0  0  0  0  0  0  0  0
  -31.4160  -20.5270   18.2030 C   0  0  0  0  0  2  0  0  0  0  0  0
  -30.6110  -19.2330   18.4230 C   0  0  0  0  0  2  0  0  0  0  0  0
  -30.8470  -18.6640   19.7090 O   0  0  0  0  0  0  0  0  0  0  0  0
  -30.1450  -17.4390   19.8750 C   0  0  0  0  0  2  0  0  0  0  0  0
  -30.4720  -16.7830   21.2340 C   0  0  0  0  0  2  0  0  0  0  0  0
  -30.7280  -14.4030   20.6070 C   0  0  0  0  0  0  0  0  0  0  0  0
  -30.4210  -12.2810   19.4070 C   0  0  0  0  0  2  0  0  0  0  0  0
  -29.4960  -12.5150   18.1960 C   0  0  0  0  0  2  0  0  0  0  0  0
  -28.0170  -12.3750   18.6060 C   0  0  0  0  0  2  0  0  0  0  0  0
  -27.6680  -13.2000   19.8750 C   0  0  0  0  0  3  0  0  0  0  0  0
  -28.7040  -12.9510   20.9940 C   0  0  0  0  0  2  0  0  0  0  0  0
  -30.0430  -13.2420   20.4530 N   0  0  0  0  0  0  0  0  0  0  0  0
  -31.8260  -14.6200   20.0920 O   0  0  0  0  0  0  0  0  0  0  0  0
  -30.0670  -15.3770   21.2470 N   0  0  0  0  0  0  0  0  0  0  0  0
  -29.1660  -15.1430   21.6380 H   0  0  0  0  0  0  0  0  0  0  0  0
  -25.2620  -13.8160   20.5630 C   0  0  0  0  0  0  0  0  0  0  0  0
  -24.1850  -13.0460   20.9130 C   0  0  0  0  0  0  0  0  0  0  0  0
  -24.6390  -11.6910   20.8690 C   0  0  0  0  0  0  0  0  0  0  0  0
  -26.3060  -12.9300   20.3320 N   0  0  0  0  0  0  0  0  0  0  0  0
  -25.9310  -11.6470   20.5740 N   0  0  0  0  0  0  0  0  0  0  0  0
  -23.9050  -10.4310   21.0390 C   0  0  0  0  0  0  0  0  0  0  0  0
  -24.3620   -9.4230   21.9160 C   0  0  0  0  0  3  0  0  0  0  0  0
  -23.6300   -8.2260   22.0750 C   0  0  0  0  0  3  0  0  0  0  0  0
  -22.4300   -8.0270   21.3520 C   0  0  0  0  0  0  0  0  0  0  0  0
  -21.9910   -9.0260   20.4640 C   0  0  0  0  0  3  0  0  0  0  0  0
  -22.7230  -10.2130   20.3030 C   0  0  0  0  0  3  0  0  0  0  0  0
  -21.6650   -6.8870   21.4220 O   0  0  0  0  0  0  0  0  0  0  0  0
  -21.6860   -6.0730   22.5260 C   0  0  0  0  0  0  0  0  0  0  0  0
  -21.4020   -6.5640   23.8200 C   0  0  0  0  0  3  0  0  0  0  0  0
  -21.3670   -5.6790   24.9150 C   0  0  0  0  0  3  0  0  0  0  0  0
  -21.6050   -4.3060   24.7210 C   0  0  0  0  0  0  0  0  0  0  0  0
  -21.8830   -3.8140   23.4330 C   0  0  0  0  0  3  0  0  0  0  0  0
  -21.9210   -4.6960   22.3380 C   0  0  0  0  0  0  0  0  0  0  0  0
  -22.1660   -4.2150   21.0960 F   0  0  0  0  0  0  0  0  0  0  0  0
  -21.5650   -3.4530   25.7720 F   0  0  0  0  0  0  0  0  0  0  0  0
  -22.7880  -13.5270   21.1790 C   0  0  0  0  0  0  0  0  0  0  0  0
  -22.0500  -12.8270   22.0350 N   0  0  0  0  0  0  0  0  0  0  0  0
  -22.3580  -14.5560   20.6610 O   0  0  0  0  0  0  0  0  0  0  0  0
  -22.4130  -11.9960   22.4800 H   0  0  0  0  0  0  0  0  0  0  0  0
  -21.1100  -13.1320   22.2480 H   0  0  0  0  0  0  0  0  0  0  0  0
  -25.4410  -15.1850   20.4030 N   0  0  0  0  0  0  0  0  0  0  0  0
  -24.6840  -15.8530   20.5080 H   0  0  0  0  0  0  0  0  0  0  0  0
  -26.3000  -15.6120   20.0810 H   0  0  0  0  0  0  0  0  0  0  0  0
  -28.1720  -22.5160   21.9210 C   0  0  0  0  0  1  0  0  0  0  0  0
  -28.6350  -23.7770   21.1520 C   0  0  0  0  0  3  0  0  0  0  0  0
  -28.4480  -25.0890   21.9620 C   0  0  0  0  0  3  0  0  0  0  0  0
  -27.0890  -25.2270   22.3500 O   0  0  0  0  0  0  0  0  0  0  0  0
  -26.9600  -26.1190   22.6540 H   0  0  0  0  0  0  0  0  0  0  0  0
  -28.9870  -26.4000   21.3170 C   0  0  0  0  0  2  0  0  0  0  0  0
  -28.3820  -26.7010   20.0550 O   0  0  0  0  0  0  0  0  0  0  0  0
  -24.6160  -31.8710   23.2130 C   0  0  0  0  0  0  0  0  0  0  0  0
  -27.2410  -27.4680   20.1020 C   0  0  0  0  0  0  0  0  0  0  0  0
  -23.4030  -30.4960   21.5460 C   0  0  0  0  0  3  0  0  0  0  0  0
  -24.8520  -28.9610   20.1140 C   0  0  0  0  0  0  0  0  0  0  0  0
  -25.9280  -30.8430   21.3700 C   0  0  0  0  0  2  0  0  0  0  0  0
  -26.0060  -29.4790   20.7220 C   0  0  0  0  0  0  0  0  0  0  0  0
  -27.2020  -28.7370   20.7210 C   0  0  0  0  0  3  0  0  0  0  0  0
  -26.0820  -26.9640   19.4830 C   0  0  0  0  0  3  0  0  0  0  0  0
  -24.8800  -27.6990   19.4960 C   0  0  0  0  0  3  0  0  0  0  0  0
  -23.6170  -29.8300   20.1590 C   0  0  0  0  0  2  0  0  0  0  0  0
  -24.6650  -31.0880   22.1000 N   0  0  0  0  0  0  0  0  0  0  0  0
  -23.5350  -32.1430   23.7530 O   0  0  0  0  0  0  0  0  0  0  0  0
  -22.7440  -29.4700   22.4960 C   0  0  0  0  0  0  0  0  0  0  0  0
  -21.4160  -29.3050   22.3690 N   0  0  0  0  0  0  0  0  0  0  0  0
  -23.4240  -28.8260   23.2990 O   0  0  0  0  0  0  0  0  0  0  0  0
  -20.9290  -29.8800   21.6970 H   0  0  0  0  0  0  0  0  0  0  0  0
  -18.0300  -28.1400   22.8520 C   0  0  0  0  0  0  0  0  0  0  0  0
  -20.5900  -28.3680   23.1290 C   0  0  0  0  0  3  0  0  0  0  0  0
  -20.6780  -26.9420   22.5400 C   0  0  0  0  0  2  0  0  0  0  0  0
  -19.5720  -26.6400   21.5230 C   0  0  0  0  0  2  0  0  0  0  0  0
  -18.1920  -26.7950   22.1650 C   0  0  0  0  0  2  0  0  0  0  0  0
  -19.1550  -28.8870   23.2920 C   0  0  0  0  0  0  0  0  0  0  0  0
  -18.9470  -30.1480   23.8920 C   0  0  0  0  0  3  0  0  0  0  0  0
  -17.6450  -30.6580   24.0600 C   0  0  0  0  0  3  0  0  0  0  0  0
  -16.5360  -29.9080   23.6320 C   0  0  0  0  0  3  0  0  0  0  0  0
  -16.7300  -28.6510   23.0350 C   0  0  0  0  0  3  0  0  0  0  0  0
  -25.9080  -32.4830   23.8440 C   0  0  0  0  0  3  0  0  0  0  0  0
  -25.5950  -33.8620   24.2360 N   0  0  0  0  0  0  0  0  0  0  0  0
  -25.9040  -34.9470   23.5130 C   0  0  0  0  0  0  0  0  0  0  0  0
  -26.5550  -34.8940   22.4650 O   0  0  0  0  0  0  0  0  0  0  0  0
  -25.0260  -33.9810   25.0610 H   0  0  0  0  0  0  0  0  0  0  0  0
  -24.1490  -36.7280   23.2640 C   0  0  0  0  0  1  0  0  0  0  0  0
  -25.4100  -36.3070   24.0340 C   0  0  0  0  0  3  0  0  0  0  0  0
  -27.5560  -37.1790   24.8470 C   0  0  0  0  0  1  0  0  0  0  0  0
  -26.4270  -37.3770   23.9420 N   0  0  0  0  0  0  0  0  0  0  0  0
  -26.0140  -38.2830   24.1430 H   0  0  0  0  0  0  0  0  0  0  0  0
  -26.4520  -31.6600   25.0750 C   0  0  1  0  0  0  0  0  0  0  0  0
  -25.3800  -31.3680   26.1490 C   0  0  0  0  0  1  0  0  0  0  0  0
  -27.0340  -30.3040   24.6120 C   0  0  0  0  0  1  0  0  0  0  0  0
  -27.6090  -32.4320   25.7510 C   0  0  0  0  0  1  0  0  0  0  0  0
  1  3  2  0
  1  2  1  0
  2 57  1  0
  4  2  1  0
  6  5  1  0
  6  1  1  0
  7 10  1  0
  7  8  1  0
  7  6  1  0
  9  7  1  0
 10 11  1  0
 11 12  1  0
 12 13  1  0
 13 14  1  0
 14 15  1  0
 15 16  1  0
 16 17  1  0
 17 26  1  0
 18 26  1  0
 19 24  1  0
 20 21  1  0
 20 19  1  0
 22 21  1  0
 22 31  1  0
 22 23  1  0
 24 18  1  0
 24 23  1  0
 25 18  2  0
 26 27  1  0
 28 29  2  0
 29 48  1  0
 30 29  1  0
 30 33  1  0
 31 28  1  0
 31 32  1  0
 32 30  2  0
 33 34  1  0
 34 35  2  0
 36 39  1  0
 36 35  1  0
 37 36  2  0
 38 37  1  0
 38 33  2  0
 39 40  1  0
 40 41  1  0
 41 42  2  0
 43 42  1  0
 43 47  1  0
 44 43  2  0
 45 40  2  0
 45 44  1  0
 46 45  1  0
 48 49  1  0
 49 52  1  0
 49 51  1  0
 50 48  2  0
 53 54  1  0
 53 28  1  0
 55 53  1  0
 57 56  1  0
 57 58  1  0
 58 61  1  0
 58 59  1  0
 59 60  1  0
 62 64  1  0
 62 61  1  0
 63 74  2  0
 64 69  1  0
 65 73  1  0
 65 75  1  0
 66 72  1  0
 66 68  1  0
 67 73  1  0
 68 67  1  0
 69 68  2  0
 70 71  1  0
 70 64  2  0
 71 66  2  0
 72 65  1  0
 73 63  1  0
 75 77  2  0
 76 75  1  0
 78 76  1  0
 79 88  2  0
 79 84  1  0
 80 76  1  0
 80 84  1  0
 81 80  1  0
 82 83  1  0
 82 81  1  0
 83 79  1  0
 84 85  2  0
 85 86  1  0
 87 86  2  0
 88 87  1  0
 89 63  1  0
 89 90  1  0
 89 99  1  0
 90 93  1  0
 91 95  1  0
 91 90  1  0
 92 91  2  0
 95 94  1  0
 97 95  1  0
 97 98  1  0
 97 96  1  0
 99102  1  1
 99100  1  0
101 99  1  0
M  ISO  4  18 100  26 100  61 101  62 101
M  END
>  <TORSDO>  (14) 
F 30

>  <SCORE>  (14) 
-10.402

>  <name>  (14) 
13

>  <ligand_id>  (14) 
13

>  <original_smiles>  (14) 
[H]OC([H])(C([H])([H])Oc1c([H])c([H])c2c(c1[H])C([H])([H])N(C(=O)C([H])(N([H])C(=O)C([H])(N([H])C([H])([H])[H])C([H])([H])[H])C(C([H])([H])[H])(C([H])([H])[H])C([H])([H])[H])C([H])(C(=O)N([H])C1([H])c3c([H])c([H])c([H])c([H])c3C([H])([H])C([H])([H])C1([H])[H])C2([H])[H])C([H])(N([H])C(=O)C([H])(C([H])([H])[H])[N+]([H])([H])C([H])([H])C([H])([H])OC([H])([H])C([H])([H])OC([H])([H])C([H])([H])N([H])C(=O)N1C([H])([H])C([H])([H])C([H])([H])C([H])(n2nc(-c3c([H])c([H])c(Oc4c([H])c([H])c(F)c([H])c4F)c([H])c3[H])c(C(=O)N([H])[H])c2N([H])[H])C1([H])[H])C([H])([H])[H]

>  <smiles>  (14) 
[H]OC([H])(C([H])([H])Oc1c([H])c([H])c2c(c1[H])C([H])([H])N(C(=O)C([H])(N([H])C(=O)C([H])(N([H])C([H])([H])[H])C([H])([H])[H])C(C([H])([H])[H])(C([H])([H])[H])C([H])([H])[H])C([H])(C(=O)N([H])C1([H])c3c([H])c([H])c([H])c([H])c3C([H])([H])C([H])([H])C1([H])[H])C2([H])[H])C([H])(N([H])C(=O)C([H])(C([H])([H])[H])[N+]([H])([H])C([H])([H])C([H])([H])OC([H])([H])C([H])([H])OC([H])([H])C([H])([H])N([H])C(=O)N1C([H])([H])C([H])([H])C([H])([H])C([H])(n2nc(-c3c([H])c([H])c(Oc4c([H])c([H])c(F)c([H])c4F)c([H])c3[H])c(C(=O)N([H])[H])c2N([H])[H])C1([H])[H])C([H])([H])[H]

$$$$
14:0:0
     RDKit          3D

 93100  0  0  1  0  0  0  0  0999 V2000
  -25.1720  -23.3380   22.0120 O   0  0  0  0  0  0  0  0  0  0  0  0
  -26.2330  -22.5500   22.5490 C   0  0  0  0  0  2  0  0  0  0  0  0
  -27.1620  -22.1360   21.4030 C   0  0  0  0  0  2  0  0  0  0  0  0
  -27.8580  -23.2870   20.9350 O   0  0  0  0  0  0  0  0  0  0  0  0
  -28.6680  -23.0240   19.7970 C   0  0  0  0  0  2  0  0  0  0  0  0
  -29.5750  -24.2400   19.5130 C   0  0  0  0  0  2  0  0  0  0  0  0
  -30.8040  -24.2090   20.2400 O   0  0  0  0  0  0  0  0  0  0  0  0
  -31.4300  -22.9330   20.2120 C   0  0  0  0  0  2  0  0  0  0  0  0
  -32.7020  -22.9100   21.0740 C   0  0  0  0  0  2  0  0  0  0  0  0
  -33.9700  -20.7620   21.0540 C   0  0  0  0  0  0  0  0  0  0  0  0
  -34.6360  -18.4370   20.5590 C   0  0  0  0  0  2  0  0  0  0  0  0
  -34.2500  -18.0470   19.1180 C   0  0  0  0  0  2  0  0  0  0  0  0
  -32.7880  -17.5610   19.0440 C   0  0  0  0  0  2  0  0  0  0  0  0
  -31.8040  -18.5330   19.7430 C   0  0  0  0  0  3  0  0  0  0  0  0
  -32.3180  -18.8710   21.1600 C   0  0  0  0  0  2  0  0  0  0  0  0
  -33.6770  -19.4380   21.0480 N   0  0  0  0  0  0  0  0  0  0  0  0
  -35.0520  -21.2340   20.6970 O   0  0  0  0  0  0  0  0  0  0  0  0
  -32.9600  -21.5300   21.4660 N   0  0  0  0  0  0  0  0  0  0  0  0
  -32.1740  -21.0280   21.8550 H   0  0  0  0  0  0  0  0  0  0  0  0
  -29.2290  -18.6350   19.6990 C   0  0  0  0  0  0  0  0  0  0  0  0
  -28.2770  -17.6520   19.7250 C   0  0  0  0  0  0  0  0  0  0  0  0
  -28.9880  -16.4160   19.8140 C   0  0  0  0  0  0  0  0  0  0  0  0
  -30.4510  -17.9850   19.7830 N   0  0  0  0  0  0  0  0  0  0  0  0
  -30.2910  -16.6430   19.9070 N   0  0  0  0  0  0  0  0  0  0  0  0
  -28.5070  -15.0300   19.7650 C   0  0  0  0  0  0  0  0  0  0  0  0
  -28.7270  -14.1350   20.8330 C   0  0  0  0  0  3  0  0  0  0  0  0
  -28.2440  -12.8100   20.7690 C   0  0  0  0  0  3  0  0  0  0  0  0
  -27.5260  -12.3710   19.6300 C   0  0  0  0  0  0  0  0  0  0  0  0
  -27.3310  -13.2600   18.5580 C   0  0  0  0  0  3  0  0  0  0  0  0
  -27.8180  -14.5750   18.6210 C   0  0  0  0  0  3  0  0  0  0  0  0
  -27.0370  -11.0970   19.4710 O   0  0  0  0  0  0  0  0  0  0  0  0
  -26.5820  -10.3630   20.5370 C   0  0  0  0  0  0  0  0  0  0  0  0
  -25.5340  -10.8190   21.3660 C   0  0  0  0  0  3  0  0  0  0  0  0
  -25.0500   -9.9980   22.4040 C   0  0  0  0  0  3  0  0  0  0  0  0
  -25.6010   -8.7200   22.6100 C   0  0  0  0  0  0  0  0  0  0  0  0
  -26.6430   -8.2630   21.7820 C   0  0  0  0  0  3  0  0  0  0  0  0
  -27.1270   -9.0800   20.7470 C   0  0  0  0  0  0  0  0  0  0  0  0
  -28.1140   -8.6240   19.9380 F   0  0  0  0  0  0  0  0  0  0  0  0
  -25.1330   -7.9280   23.6030 F   0  0  0  0  0  0  0  0  0  0  0  0
  -26.7940  -17.8330   19.5780 C   0  0  0  0  0  0  0  0  0  0  0  0
  -26.0020  -16.9500   20.1780 N   0  0  0  0  0  0  0  0  0  0  0  0
  -26.3260  -18.7950   18.9700 O   0  0  0  0  0  0  0  0  0  0  0  0
  -26.3800  -16.1720   20.6990 H   0  0  0  0  0  0  0  0  0  0  0  0
  -24.9990  -17.0520   20.1100 H   0  0  0  0  0  0  0  0  0  0  0  0
  -29.1610  -20.0220   19.5910 N   0  0  0  0  0  0  0  0  0  0  0  0
  -28.2780  -20.4970   19.4340 H   0  0  0  0  0  0  0  0  0  0  0  0
  -29.9640  -20.6210   19.4610 H   0  0  0  0  0  0  0  0  0  0  0  0
  -24.9040  -24.5320   22.7430 C   0  0  0  0  0  2  0  0  0  0  0  0
  -26.0460  -25.5490   22.5820 C   0  0  0  0  0  2  0  0  0  0  0  0
  -26.3250  -25.7290   21.1990 O   0  0  0  0  0  0  0  0  0  0  0  0
  -27.7110  -25.8930   20.9330 C   0  0  0  0  0  2  0  0  0  0  0  0
  -27.9270  -26.4910   19.5320 C   0  0  0  0  0  2  0  0  0  0  0  0
  -27.9490  -27.9210   19.5800 O   0  0  0  0  0  0  0  0  0  0  0  0
  -24.5820  -32.4860   23.8510 C   0  0  0  0  0  0  0  0  0  0  0  0
  -26.7770  -28.6050   19.8200 C   0  0  0  0  0  0  0  0  0  0  0  0
  -23.1840  -31.4170   22.1130 C   0  0  0  0  0  3  0  0  0  0  0  0
  -24.4440  -30.1210   20.3180 C   0  0  0  0  0  0  0  0  0  0  0  0
  -25.6910  -31.7550   21.7440 C   0  0  0  0  0  2  0  0  0  0  0  0
  -25.6680  -30.5160   20.8720 C   0  0  0  0  0  0  0  0  0  0  0  0
  -26.8360  -29.7680   20.6170 C   0  0  0  0  0  3  0  0  0  0  0  0
  -25.5330  -28.2160   19.2720 C   0  0  0  0  0  3  0  0  0  0  0  0
  -24.3700  -28.9690   19.5180 C   0  0  0  0  0  3  0  0  0  0  0  0
  -23.2430  -30.9840   20.6240 C   0  0  0  0  0  2  0  0  0  0  0  0
  -24.5100  -31.8890   22.6270 N   0  0  0  0  0  0  0  0  0  0  0  0
  -23.5650  -32.6820   24.5290 O   0  0  0  0  0  0  0  0  0  0  0  0
  -22.5850  -30.2560   22.9400 C   0  0  0  0  0  0  0  0  0  0  0  0
  -21.2770  -30.0070   22.7620 N   0  0  0  0  0  0  0  0  0  0  0  0
  -23.2940  -29.5870   23.6960 O   0  0  0  0  0  0  0  0  0  0  0  0
  -20.7650  -30.6070   22.1320 H   0  0  0  0  0  0  0  0  0  0  0  0
  -18.0310  -28.4260   22.8830 C   0  0  0  0  0  0  0  0  0  0  0  0
  -20.5100  -28.9410   23.4050 C   0  0  0  0  0  3  0  0  0  0  0  0
  -20.8240  -27.5670   22.7700 C   0  0  0  0  0  2  0  0  0  0  0  0
  -19.8570  -27.1890   21.6430 C   0  0  0  0  0  2  0  0  0  0  0  0
  -18.4170  -27.1460   22.1610 C   0  0  0  0  0  2  0  0  0  0  0  0
  -19.0150  -29.2770   23.4520 C   0  0  0  0  0  0  0  0  0  0  0  0
  -18.6040  -30.4740   24.0810 C   0  0  0  0  0  3  0  0  0  0  0  0
  -17.2410  -30.8200   24.1480 C   0  0  0  0  0  3  0  0  0  0  0  0
  -16.2710  -29.9670   23.5960 C   0  0  0  0  0  3  0  0  0  0  0  0
  -16.6660  -28.7710   22.9690 C   0  0  0  0  0  3  0  0  0  0  0  0
  -25.9420  -32.9700   24.4450 C   0  0  0  0  0  3  0  0  0  0  0  0
  -26.4700  -32.0580   25.6190 C   0  0  1  0  0  0  0  0  0  0  0  0
  -25.4150  -31.7830   26.7150 C   0  0  0  0  0  1  0  0  0  0  0  0
  -26.9540  -30.6940   25.0750 C   0  0  0  0  0  1  0  0  0  0  0  0
  -27.6960  -32.7260   26.2880 C   0  0  0  0  0  1  0  0  0  0  0  0
  -25.7540  -34.3520   24.9040 N   0  0  0  0  0  0  0  0  0  0  0  0
  -26.1440  -35.4400   24.2250 C   0  0  0  0  0  0  0  0  0  0  0  0
  -26.7700  -35.3760   23.1640 O   0  0  0  0  0  0  0  0  0  0  0  0
  -25.2020  -34.4810   25.7390 H   0  0  0  0  0  0  0  0  0  0  0  0
  -24.5540  -37.3820   24.0820 C   0  0  0  0  0  1  0  0  0  0  0  0
  -25.7800  -36.8150   24.8160 C   0  0  0  0  0  3  0  0  0  0  0  0
  -27.9990  -37.4550   25.6470 C   0  0  0  0  0  1  0  0  0  0  0  0
  -26.8890  -37.7920   24.7600 N   0  0  0  0  0  0  0  0  0  0  0  0
  -26.5620  -38.7240   25.0000 H   0  0  0  0  0  0  0  0  0  0  0  0
  1  2  1  0
  1 48  1  0
  3  2  1  0
  4  3  1  0
  5  4  1  0
  6  5  1  0
  6  7  1  0
  8  7  1  0
  8  9  1  0
  9 18  1  0
 10 18  1  0
 11 16  1  0
 12 11  1  0
 13 12  1  0
 14 13  1  0
 14 23  1  0
 14 15  1  0
 16 10  1  0
 16 15  1  0
 17 10  2  0
 18 19  1  0
 20 21  2  0
 20 23  1  0
 21 22  1  0
 22 24  2  0
 23 24  1  0
 25 22  1  0
 25 26  1  0
 27 26  2  0
 28 27  1  0
 29 30  1  0
 29 28  2  0
 30 25  2  0
 31 28  1  0
 31 32  1  0
 32 37  2  0
 32 33  1  0
 33 34  2  0
 34 35  1  0
 35 39  1  0
 36 35  2  0
 37 36  1  0
 38 37  1  0
 40 21  1  0
 40 41  1  0
 41 43  1  0
 42 40  2  0
 44 41  1  0
 45 20  1  0
 46 45  1  0
 47 45  1  0
 49 48  1  0
 50 49  1  0
 51 50  1  0
 52 53  1  0
 52 51  1  0
 53 55  1  0
 54 65  2  0
 55 60  1  0
 56 64  1  0
 56 66  1  0
 57 63  1  0
 57 59  1  0
 58 64  1  0
 59 58  1  0
 60 59  2  0
 61 62  1  0
 61 55  2  0
 62 57  2  0
 63 56  1  0
 64 54  1  0
 66 68  2  0
 67 66  1  0
 69 67  1  0
 70 79  2  0
 70 75  1  0
 71 67  1  0
 71 75  1  0
 72 71  1  0
 73 74  1  0
 73 72  1  0
 74 70  1  0
 75 76  2  0
 76 77  1  0
 78 77  2  0
 79 78  1  0
 80 54  1  0
 80 85  1  0
 80 81  1  0
 81 84  1  1
 81 82  1  0
 83 81  1  0
 85 88  1  0
 86 90  1  0
 86 85  1  0
 87 86  2  0
 90 89  1  0
 92 90  1  0
 92 93  1  0
 92 91  1  0
M  ISO  4  10 100  18 100  52 101  53 101
M  END
>  <TORSDO>  (15) 
F 29

>  <SCORE>  (15) 
-2.990

>  <name>  (15) 
14

>  <ligand_id>  (15) 
14

>  <original_smiles>  (15) 
[H]c1c([H])c([H])c2c(c1[H])C([H])([H])C([H])([H])C([H])([H])C2([H])N([H])C(=O)C1([H])N(C(=O)C([H])(N([H])C(=O)C([H])(N([H])C([H])([H])[H])C([H])([H])[H])C(C([H])([H])[H])(C([H])([H])[H])C([H])([H])[H])C([H])([H])c2c([H])c(OC([H])([H])C([H])([H])OC([H])([H])C([H])([H])OC([H])([H])C([H])([H])OC([H])([H])C([H])([H])OC([H])([H])C([H])([H])N([H])C(=O)N3C([H])([H])C([H])([H])C([H])([H])C([H])(n4nc(-c5c([H])c([H])c(Oc6c([H])c([H])c(F)c([H])c6F)c([H])c5[H])c(C(=O)N([H])[H])c4N([H])[H])C3([H])[H])c([H])c([H])c2C1([H])[H]

>  <smiles>  (15) 
[H]c1c([H])c([H])c2c(c1[H])C([H])([H])C([H])([H])C([H])([H])C2([H])N([H])C(=O)C1([H])N(C(=O)C([H])(N([H])C(=O)C([H])(N([H])C([H])([H])[H])C([H])([H])[H])C(C([H])([H])[H])(C([H])([H])[H])C([H])([H])[H])C([H])([H])c2c([H])c(OC([H])([H])C([H])([H])OC([H])([H])C([H])([H])OC([H])([H])C([H])([H])OC([H])([H])C([H])([H])OC([H])([H])C([H])([H])N([H])C(=O)N3C([H])([H])C([H])([H])C([H])([H])C([H])(n4nc(-c5c([H])c([H])c(Oc6c([H])c([H])c(F)c([H])c6F)c([H])c5[H])c(C(=O)N([H])[H])c4N([H])[H])C3([H])[H])c([H])c([H])c2C1([H])[H]

$$$$
15:0:0
     RDKit          3D

 95102  0  0  1  0  0  0  0  0999 V2000
  -31.7120  -20.1590   17.6740 C   0  0  0  0  0  2  0  0  0  0  0  0
  -32.8240  -19.4240   18.4490 C   0  0  0  0  0  2  0  0  0  0  0  0
  -31.6120  -17.4110   19.3440 C   0  0  0  0  0  0  0  0  0  0  0  0
  -32.3290  -18.5330   19.4980 N   0  0  0  0  0  0  0  0  0  0  0  0
  -31.2250  -17.0110   18.2440 O   0  0  0  0  0  0  0  0  0  0  0  0
  -32.6030  -18.7680   20.4440 H   0  0  0  0  0  0  0  0  0  0  0  0
  -31.2740  -16.6420   20.6460 C   0  0  0  0  0  3  0  0  0  0  0  0
  -31.4140  -14.2050   19.9950 C   0  0  0  0  0  0  0  0  0  0  0  0
  -30.9110  -12.1380   18.7590 C   0  0  0  0  0  2  0  0  0  0  0  0
  -29.9330  -12.4850   17.6160 C   0  0  0  0  0  2  0  0  0  0  0  0
  -28.4700  -12.4780   18.1080 C   0  0  0  0  0  2  0  0  0  0  0  0
  -28.2690  -13.2590   19.4320 C   0  0  0  0  0  3  0  0  0  0  0  0
  -29.3430  -12.8600   20.4690 C   0  0  0  0  0  2  0  0  0  0  0  0
  -30.6550  -13.0900   19.8470 N   0  0  0  0  0  0  0  0  0  0  0  0
  -32.5780  -14.2850   19.5970 O   0  0  0  0  0  0  0  0  0  0  0  0
  -30.7430  -15.2800   20.4470 N   0  0  0  0  0  0  0  0  0  0  0  0
  -29.7550  -15.1600   20.5900 H   0  0  0  0  0  0  0  0  0  0  0  0
  -25.9370  -14.0320   20.2080 C   0  0  0  0  0  0  0  0  0  0  0  0
  -24.8320  -13.3350   20.6140 C   0  0  0  0  0  0  0  0  0  0  0  0
  -25.2040  -11.9560   20.5930 C   0  0  0  0  0  0  0  0  0  0  0  0
  -26.9170  -13.0830   19.9590 N   0  0  0  0  0  0  0  0  0  0  0  0
  -26.4790  -11.8300   20.2490 N   0  0  0  0  0  0  0  0  0  0  0  0
  -24.4030  -10.7460   20.8230 C   0  0  0  0  0  0  0  0  0  0  0  0
  -24.7870   -9.7760   21.7760 C   0  0  0  0  0  3  0  0  0  0  0  0
  -23.9900   -8.6290   21.9880 C   0  0  0  0  0  3  0  0  0  0  0  0
  -22.7990   -8.4470   21.2480 C   0  0  0  0  0  0  0  0  0  0  0  0
  -22.4380   -9.4030   20.2830 C   0  0  0  0  0  3  0  0  0  0  0  0
  -23.2330  -10.5400   20.0680 C   0  0  0  0  0  3  0  0  0  0  0  0
  -21.9790   -7.3510   21.3680 O   0  0  0  0  0  0  0  0  0  0  0  0
  -21.8740   -6.6560   22.5440 C   0  0  0  0  0  0  0  0  0  0  0  0
  -21.4790   -7.2830   23.7480 C   0  0  0  0  0  3  0  0  0  0  0  0
  -21.3180   -6.5190   24.9190 C   0  0  0  0  0  3  0  0  0  0  0  0
  -21.5380   -5.1290   24.8930 C   0  0  0  0  0  0  0  0  0  0  0  0
  -21.9310   -4.5030   23.6950 C   0  0  0  0  0  3  0  0  0  0  0  0
  -22.0950   -5.2630   22.5260 C   0  0  0  0  0  0  0  0  0  0  0  0
  -22.4490   -4.6510   21.3700 F   0  0  0  0  0  0  0  0  0  0  0  0
  -21.3790   -4.3930   26.0160 F   0  0  0  0  0  0  0  0  0  0  0  0
  -23.4760  -13.9040   20.9200 C   0  0  0  0  0  0  0  0  0  0  0  0
  -22.7380  -13.2740   21.8270 N   0  0  0  0  0  0  0  0  0  0  0  0
  -23.0820  -14.9420   20.3850 O   0  0  0  0  0  0  0  0  0  0  0  0
  -23.0750  -12.4360   22.2780 H   0  0  0  0  0  0  0  0  0  0  0  0
  -21.8230  -13.6290   22.0690 H   0  0  0  0  0  0  0  0  0  0  0  0
  -26.1780  -15.3860   20.0080 N   0  0  0  0  0  0  0  0  0  0  0  0
  -25.4520  -16.0820   20.1360 H   0  0  0  0  0  0  0  0  0  0  0  0
  -27.0380  -15.7740   19.6490 H   0  0  0  0  0  0  0  0  0  0  0  0
  -28.9400  -17.7970   20.9950 C   0  0  0  0  0  1  0  0  0  0  0  0
  -30.2070  -16.8320   22.9720 C   0  0  0  0  0  1  0  0  0  0  0  0
  -30.3310  -17.4690   21.5780 C   0  0  0  0  0  3  0  0  0  0  0  0
  -30.9500  -21.0090   18.5270 O   0  0  0  0  0  0  0  0  0  0  0  0
  -29.8290  -21.5650   17.8450 C   0  0  0  0  0  2  0  0  0  0  0  0
  -29.1260  -22.6440   18.6890 C   0  0  0  0  0  2  0  0  0  0  0  0
  -29.6470  -23.9110   18.3060 O   0  0  0  0  0  0  0  0  0  0  0  0
  -28.7850  -25.0110   18.5810 C   0  0  0  0  0  2  0  0  0  0  0  0
  -28.6450  -25.2720   20.0930 C   0  0  0  0  0  2  0  0  0  0  0  0
  -28.5930  -26.6660   20.3670 O   0  0  0  0  0  0  0  0  0  0  0  0
  -24.6560  -31.7990   23.2440 C   0  0  0  0  0  0  0  0  0  0  0  0
  -27.3860  -27.3290   20.3050 C   0  0  0  0  0  0  0  0  0  0  0  0
  -23.4900  -30.3640   21.5990 C   0  0  0  0  0  3  0  0  0  0  0  0
  -24.9780  -28.8060   20.2410 C   0  0  0  0  0  0  0  0  0  0  0  0
  -26.0190  -30.7310   21.4570 C   0  0  0  0  0  2  0  0  0  0  0  0
  -26.1210  -29.3530   20.8380 C   0  0  0  0  0  0  0  0  0  0  0  0
  -27.3240  -28.6230   20.8620 C   0  0  0  0  0  3  0  0  0  0  0  0
  -26.2220  -26.7810   19.7150 C   0  0  0  0  0  3  0  0  0  0  0  0
  -25.0210  -27.5150   19.6850 C   0  0  0  0  0  3  0  0  0  0  0  0
  -23.7290  -29.6540   20.2410 C   0  0  0  0  0  2  0  0  0  0  0  0
  -24.7390  -30.9770   22.1590 N   0  0  0  0  0  0  0  0  0  0  0  0
  -23.5610  -32.0790   23.7500 O   0  0  0  0  0  0  0  0  0  0  0  0
  -22.8170  -29.3620   22.5620 C   0  0  0  0  0  0  0  0  0  0  0  0
  -21.5010  -29.1530   22.3910 N   0  0  0  0  0  0  0  0  0  0  0  0
  -23.4790  -28.7680   23.4170 O   0  0  0  0  0  0  0  0  0  0  0  0
  -21.0260  -29.6830   21.6740 H   0  0  0  0  0  0  0  0  0  0  0  0
  -18.1340  -27.9080   22.7810 C   0  0  0  0  0  0  0  0  0  0  0  0
  -20.6710  -28.2270   23.1580 C   0  0  0  0  0  3  0  0  0  0  0  0
  -20.8270  -26.7780   22.6440 C   0  0  0  0  0  2  0  0  0  0  0  0
  -19.7820  -26.3970   21.5910 C   0  0  0  0  0  2  0  0  0  0  0  0
  -18.3680  -26.5390   22.1650 C   0  0  0  0  0  2  0  0  0  0  0  0
  -19.2170  -28.7080   23.2330 C   0  0  0  0  0  0  0  0  0  0  0  0
  -18.9470  -29.9870   23.7640 C   0  0  0  0  0  3  0  0  0  0  0  0
  -17.6290  -30.4710   23.8430 C   0  0  0  0  0  3  0  0  0  0  0  0
  -16.5570  -29.6690   23.4130 C   0  0  0  0  0  3  0  0  0  0  0  0
  -16.8110  -28.3890   22.8870 C   0  0  0  0  0  3  0  0  0  0  0  0
  -25.9290  -32.4440   23.8790 C   0  0  0  0  0  3  0  0  0  0  0  0
  -26.4390  -31.6860   25.1650 C   0  0  1  0  0  0  0  0  0  0  0  0
  -25.3350  -31.4360   26.2210 C   0  0  0  0  0  1  0  0  0  0  0  0
  -27.0500  -30.3150   24.7920 C   0  0  0  0  0  1  0  0  0  0  0  0
  -27.5690  -32.5000   25.8370 C   0  0  0  0  0  1  0  0  0  0  0  0
  -25.6030  -33.8410   24.1960 N   0  0  0  0  0  0  0  0  0  0  0  0
  -25.9400  -34.8900   23.4340 C   0  0  0  0  0  0  0  0  0  0  0  0
  -26.6220  -34.7850   22.4120 O   0  0  0  0  0  0  0  0  0  0  0  0
  -24.9890  -33.9960   24.9820 H   0  0  0  0  0  0  0  0  0  0  0  0
  -24.1930  -36.6570   23.0580 C   0  0  0  0  0  1  0  0  0  0  0  0
  -25.4380  -36.2770   23.8750 C   0  0  0  0  0  3  0  0  0  0  0  0
  -27.5590  -37.1890   24.7040 C   0  0  0  0  0  1  0  0  0  0  0  0
  -26.4590  -37.3390   23.7540 N   0  0  0  0  0  0  0  0  0  0  0  0
  -26.0470  -38.2550   23.8990 H   0  0  0  0  0  0  0  0  0  0  0  0
  1  2  1  0
  1 49  1  0
  2  4  1  0
  3  4  1  0
  4  6  1  0
  5  3  2  0
  7  3  1  0
  7 48  1  0
  8 16  1  0
  9 14  1  0
 10 11  1  0
 10  9  1  0
 12 11  1  0
 12 21  1  0
 12 13  1  0
 14  8  1  0
 14 13  1  0
 15  8  2  0
 16 17  1  0
 16  7  1  0
 18 19  2  0
 19 38  1  0
 20 19  1  0
 20 23  1  0
 21 18  1  0
 21 22  1  0
 22 20  2  0
 23 24  1  0
 24 25  2  0
 26 29  1  0
 26 25  1  0
 27 26  2  0
 28 27  1  0
 28 23  2  0
 29 30  1  0
 30 31  1  0
 31 32  2  0
 33 32  1  0
 33 37  1  0
 34 33  2  0
 35 30  2  0
 35 34  1  0
 36 35  1  0
 38 39  1  0
 39 42  1  0
 39 41  1  0
 40 38  2  0
 43 44  1  0
 43 18  1  0
 45 43  1  0
 46 48  1  0
 48 47  1  0
 50 49  1  0
 50 51  1  0
 52 53  1  0
 52 51  1  0
 53 54  1  0
 54 55  1  0
 56 67  2  0
 57 55  1  0
 57 62  1  0
 58 66  1  0
 58 68  1  0
 59 65  1  0
 59 61  1  0
 60 66  1  0
 61 62  2  0
 61 60  1  0
 63 57  2  0
 64 63  1  0
 64 59  2  0
 65 58  1  0
 66 56  1  0
 68 70  2  0
 69 68  1  0
 71 69  1  0
 72 81  2  0
 72 77  1  0
 73 69  1  0
 73 77  1  0
 74 73  1  0
 75 76  1  0
 75 74  1  0
 76 72  1  0
 77 78  2  0
 78 79  1  0
 80 79  2  0
 81 80  1  0
 82 56  1  0
 82 87  1  0
 82 83  1  0
 83 86  1  1
 83 84  1  0
 85 83  1  0
 87 90  1  0
 88 92  1  0
 88 87  1  0
 89 88  2  0
 92 91  1  0
 94 92  1  0
 94 95  1  0
 94 93  1  0
M  ISO  4   8 100  16 100  54 101  55 101
M  END
>  <TORSDO>  (16) 
F 26

>  <SCORE>  (16) 
-10.642

>  <name>  (16) 
15

>  <ligand_id>  (16) 
15

>  <original_smiles>  (16) 
[H]c1c([H])c([H])c2c(c1[H])C([H])([H])C([H])([H])C([H])([H])C2([H])N([H])C(=O)C1([H])N(C(=O)C([H])(N([H])C(=O)C([H])(N([H])C([H])([H])[H])C([H])([H])[H])C(C([H])([H])[H])(C([H])([H])[H])C([H])([H])[H])C([H])([H])c2c([H])c(OC([H])([H])C([H])([H])OC([H])([H])C([H])([H])OC([H])([H])C([H])([H])N([H])C(=O)C([H])(N([H])C(=O)N3C([H])([H])C([H])([H])C([H])([H])C([H])(n4nc(-c5c([H])c([H])c(Oc6c([H])c([H])c(F)c([H])c6F)c([H])c5[H])c(C(=O)N([H])[H])c4N([H])[H])C3([H])[H])C([H])(C([H])([H])[H])C([H])([H])[H])c([H])c([H])c2C1([H])[H]

>  <smiles>  (16) 
[H]c1c([H])c([H])c2c(c1[H])C([H])([H])C([H])([H])C([H])([H])C2([H])N([H])C(=O)C1([H])N(C(=O)C([H])(N([H])C(=O)C([H])(N([H])C([H])([H])[H])C([H])([H])[H])C(C([H])([H])[H])(C([H])([H])[H])C([H])([H])[H])C([H])([H])c2c([H])c(OC([H])([H])C([H])([H])OC([H])([H])C([H])([H])OC([H])([H])C([H])([H])N([H])C(=O)C([H])(N([H])C(=O)N3C([H])([H])C([H])([H])C([H])([H])C([H])(n4nc(-c5c([H])c([H])c(Oc6c([H])c([H])c(F)c([H])c6F)c([H])c5[H])c(C(=O)N([H])[H])c4N([H])[H])C3([H])[H])C([H])(C([H])([H])[H])C([H])([H])[H])c([H])c([H])c2C1([H])[H]

$$$$
16:0:0
     RDKit          3D

 96103  0  0  1  0  0  0  0  0999 V2000
  -24.8940  -22.9150   21.3810 C   0  0  0  0  0  2  0  0  0  0  0  0
  -25.3860  -23.0590   22.7040 O   0  0  0  0  0  0  0  0  0  0  0  0
  -24.6580  -22.2940   23.6550 C   0  0  0  0  0  2  0  0  0  0  0  0
  -25.2870  -22.5040   25.0450 C   0  0  0  0  0  2  0  0  0  0  0  0
  -26.6850  -22.7920   25.0100 O   0  0  0  0  0  0  0  0  0  0  0  0
  -27.4710  -21.9050   24.2190 C   0  0  0  0  0  2  0  0  0  0  0  0
  -28.9240  -22.3930   24.1960 C   0  0  0  0  0  2  0  0  0  0  0  0
  -29.5410  -21.9150   23.0090 O   0  0  0  0  0  0  0  0  0  0  0  0
  -30.8680  -22.3840   22.8370 C   0  0  0  0  0  2  0  0  0  0  0  0
  -31.3760  -21.8710   21.4840 C   0  0  0  0  0  2  0  0  0  0  0  0
  -32.8750  -22.1460   21.2570 C   0  0  0  0  0  2  0  0  0  0  0  0
  -34.2790  -21.2090   19.4510 C   0  0  0  0  0  0  0  0  0  0  0  0
  -34.7700  -19.1180   18.2580 C   0  0  0  0  0  2  0  0  0  0  0  0
  -33.8160  -18.9900   17.0530 C   0  0  0  0  0  2  0  0  0  0  0  0
  -32.4840  -18.3340   17.4710 C   0  0  0  0  0  2  0  0  0  0  0  0
  -31.8700  -18.9730   18.7450 C   0  0  0  0  0  3  0  0  0  0  0  0
  -32.9370  -19.1090   19.8520 C   0  0  0  0  0  2  0  0  0  0  0  0
  -34.0670  -19.8760   19.3020 N   0  0  0  0  0  0  0  0  0  0  0  0
  -35.2360  -21.8070   18.9560 O   0  0  0  0  0  0  0  0  0  0  0  0
  -33.2230  -21.9200   19.8580 N   0  0  0  0  0  0  0  0  0  0  0  0
  -33.1950  -22.7950   19.3540 H   0  0  0  0  0  0  0  0  0  0  0  0
  -29.4220  -18.6780   19.4880 C   0  0  0  0  0  0  0  0  0  0  0  0
  -28.6930  -17.5640   19.8120 C   0  0  0  0  0  0  0  0  0  0  0  0
  -29.5900  -16.4590   19.7020 C   0  0  0  0  0  0  0  0  0  0  0  0
  -30.7030  -18.2260   19.2080 N   0  0  0  0  0  0  0  0  0  0  0  0
  -30.8080  -16.8850   19.3900 N   0  0  0  0  0  0  0  0  0  0  0  0
  -29.3490  -15.0150   19.8200 C   0  0  0  0  0  0  0  0  0  0  0  0
  -30.1140  -14.2070   20.6890 C   0  0  0  0  0  3  0  0  0  0  0  0
  -29.8510  -12.8240   20.7970 C   0  0  0  0  0  3  0  0  0  0  0  0
  -28.8110  -12.2370   20.0350 C   0  0  0  0  0  0  0  0  0  0  0  0
  -28.0690  -13.0430   19.1540 C   0  0  0  0  0  3  0  0  0  0  0  0
  -28.3360  -14.4180   19.0440 C   0  0  0  0  0  3  0  0  0  0  0  0
  -28.5000  -10.8990   20.0580 O   0  0  0  0  0  0  0  0  0  0  0  0
  -28.7110  -10.1300   21.1740 C   0  0  0  0  0  0  0  0  0  0  0  0
  -28.1500  -10.4640   22.4250 C   0  0  0  0  0  3  0  0  0  0  0  0
  -28.3330   -9.6090   23.5300 C   0  0  0  0  0  3  0  0  0  0  0  0
  -29.0680   -8.4160   23.3820 C   0  0  0  0  0  0  0  0  0  0  0  0
  -29.6230   -8.0800   22.1360 C   0  0  0  0  0  3  0  0  0  0  0  0
  -29.4420   -8.9340   21.0330 C   0  0  0  0  0  0  0  0  0  0  0  0
  -29.9610   -8.5940   19.8290 F   0  0  0  0  0  0  0  0  0  0  0  0
  -29.2390   -7.5900   24.4420 F   0  0  0  0  0  0  0  0  0  0  0  0
  -27.2230  -17.5160   20.1130 C   0  0  0  0  0  0  0  0  0  0  0  0
  -26.7990  -16.5760   20.9510 N   0  0  0  0  0  0  0  0  0  0  0  0
  -26.4460  -18.3440   19.6420 O   0  0  0  0  0  0  0  0  0  0  0  0
  -27.4370  -15.9080   21.3580 H   0  0  0  0  0  0  0  0  0  0  0  0
  -25.8200  -16.5280   21.1930 H   0  0  0  0  0  0  0  0  0  0  0  0
  -29.1030  -20.0290   19.3890 N   0  0  0  0  0  0  0  0  0  0  0  0
  -28.1690  -20.3850   19.5620 H   0  0  0  0  0  0  0  0  0  0  0  0
  -29.7630  -20.7540   19.1330 H   0  0  0  0  0  0  0  0  0  0  0  0
  -26.0430  -23.1910   20.4040 C   0  0  0  0  0  2  0  0  0  0  0  0
  -27.9160  -24.8030   20.2530 C   0  0  0  0  0  0  0  0  0  0  0  0
  -26.7130  -24.4480   20.7180 N   0  0  0  0  0  0  0  0  0  0  0  0
  -28.5980  -24.0590   19.5440 O   0  0  0  0  0  0  0  0  0  0  0  0
  -26.2180  -25.1010   21.3090 H   0  0  0  0  0  0  0  0  0  0  0  0
  -28.4160  -26.2100   20.6000 C   0  0  0  0  0  2  0  0  0  0  0  0
  -28.1100  -27.1140   19.5370 O   0  0  0  0  0  0  0  0  0  0  0  0
  -24.4620  -32.0150   23.1740 C   0  0  0  0  0  0  0  0  0  0  0  0
  -26.9340  -27.8000   19.6940 C   0  0  0  0  0  0  0  0  0  0  0  0
  -23.1560  -30.6750   21.5530 C   0  0  0  0  0  3  0  0  0  0  0  0
  -24.5230  -29.2320   19.9570 C   0  0  0  0  0  0  0  0  0  0  0  0
  -25.6520  -31.0910   21.1920 C   0  0  0  0  0  2  0  0  0  0  0  0
  -25.7090  -29.7540   20.4890 C   0  0  0  0  0  0  0  0  0  0  0  0
  -26.9180  -29.0400   20.3630 C   0  0  0  0  0  3  0  0  0  0  0  0
  -25.7380  -27.2860   19.1520 C   0  0  0  0  0  3  0  0  0  0  0  0
  -24.5280  -27.9930   19.2920 C   0  0  0  0  0  3  0  0  0  0  0  0
  -23.2740  -30.0640   20.1310 C   0  0  0  0  0  2  0  0  0  0  0  0
  -24.4450  -31.2730   22.0310 N   0  0  0  0  0  0  0  0  0  0  0  0
  -23.4210  -32.2440   23.8020 O   0  0  0  0  0  0  0  0  0  0  0  0
  -22.5910  -29.5980   22.5050 C   0  0  0  0  0  0  0  0  0  0  0  0
  -21.2700  -29.3660   22.4270 N   0  0  0  0  0  0  0  0  0  0  0  0
  -23.3330  -28.9760   23.2700 O   0  0  0  0  0  0  0  0  0  0  0  0
  -20.7280  -29.9220   21.7810 H   0  0  0  0  0  0  0  0  0  0  0  0
  -17.9840  -27.9710   22.9660 C   0  0  0  0  0  0  0  0  0  0  0  0
  -20.5260  -28.3720   23.2000 C   0  0  0  0  0  3  0  0  0  0  0  0
  -20.7020  -26.9570   22.6030 C   0  0  0  0  0  2  0  0  0  0  0  0
  -19.6020  -26.5840   21.6030 C   0  0  0  0  0  2  0  0  0  0  0  0
  -18.2260  -26.6420   22.2710 C   0  0  0  0  0  2  0  0  0  0  0  0
  -19.0640  -28.7910   23.3890 C   0  0  0  0  0  0  0  0  0  0  0  0
  -18.7830  -30.0330   23.9990 C   0  0  0  0  0  3  0  0  0  0  0  0
  -17.4540  -30.4570   24.1890 C   0  0  0  0  0  3  0  0  0  0  0  0
  -16.3890  -29.6340   23.7840 C   0  0  0  0  0  3  0  0  0  0  0  0
  -16.6550  -28.3930   23.1780 C   0  0  0  0  0  3  0  0  0  0  0  0
  -25.7840  -32.6330   23.7290 C   0  0  0  0  0  3  0  0  0  0  0  0
  -25.4870  -34.0050   24.1540 N   0  0  0  0  0  0  0  0  0  0  0  0
  -25.7600  -35.1000   23.4310 C   0  0  0  0  0  0  0  0  0  0  0  0
  -26.3610  -35.0600   22.3550 O   0  0  0  0  0  0  0  0  0  0  0  0
  -24.9460  -34.1110   25.0000 H   0  0  0  0  0  0  0  0  0  0  0  0
  -23.9900  -36.8800   23.2890 C   0  0  0  0  0  1  0  0  0  0  0  0
  -25.2890  -36.4550   23.9930 C   0  0  0  0  0  3  0  0  0  0  0  0
  -27.4690  -37.3240   24.7150 C   0  0  0  0  0  1  0  0  0  0  0  0
  -26.2980  -37.5290   23.8650 N   0  0  0  0  0  0  0  0  0  0  0  0
  -25.8940  -38.4320   24.0940 H   0  0  0  0  0  0  0  0  0  0  0  0
  -26.4090  -31.8010   24.9160 C   0  0  1  0  0  0  0  0  0  0  0  0
  -25.4060  -31.4900   26.0500 C   0  0  0  0  0  1  0  0  0  0  0  0
  -26.9740  -30.4550   24.4030 C   0  0  0  0  0  1  0  0  0  0  0  0
  -27.6000  -32.5760   25.5290 C   0  0  0  0  0  1  0  0  0  0  0  0
  1  2  1  0
  2  3  1  0
  3  4  1  0
  5  4  1  0
  6  5  1  0
  7  6  1  0
  8  7  1  0
  9  8  1  0
 10  9  1  0
 11 10  1  0
 12 20  1  0
 13 18  1  0
 14 15  1  0
 14 13  1  0
 16 15  1  0
 16 25  1  0
 16 17  1  0
 18 12  1  0
 18 17  1  0
 19 12  2  0
 20 11  1  0
 21 20  1  0
 22 23  2  0
 23 42  1  0
 24 23  1  0
 24 27  1  0
 25 26  1  0
 25 22  1  0
 26 24  2  0
 27 28  1  0
 28 29  2  0
 30 33  1  0
 30 29  1  0
 31 30  2  0
 32 31  1  0
 32 27  2  0
 33 34  1  0
 34 35  1  0
 35 36  2  0
 37 36  1  0
 37 41  1  0
 38 37  2  0
 39 34  2  0
 39 38  1  0
 40 39  1  0
 42 43  1  0
 43 46  1  0
 43 45  1  0
 44 42  2  0
 47 22  1  0
 47 48  1  0
 49 47  1  0
 50 52  1  0
 50  1  1  0
 51 55  1  0
 51 52  1  0
 52 54  1  0
 53 51  2  0
 56 58  1  0
 56 55  1  0
 57 68  2  0
 58 63  1  0
 59 67  1  0
 59 69  1  0
 60 66  1  0
 60 62  1  0
 61 67  1  0
 62 61  1  0
 63 62  2  0
 64 65  1  0
 64 58  2  0
 65 60  2  0
 66 59  1  0
 67 57  1  0
 69 71  2  0
 70 69  1  0
 72 70  1  0
 73 82  2  0
 73 78  1  0
 74 70  1  0
 74 78  1  0
 75 74  1  0
 76 77  1  0
 76 75  1  0
 77 73  1  0
 78 79  2  0
 79 80  1  0
 81 80  2  0
 82 81  1  0
 83 57  1  0
 83 84  1  0
 83 93  1  0
 84 87  1  0
 85 89  1  0
 85 84  1  0
 86 85  2  0
 89 88  1  0
 91 89  1  0
 91 92  1  0
 91 90  1  0
 93 96  1  1
 93 94  1  0
 95 93  1  0
M  ISO  4  12 100  20 100  55 101  56 101
M  END
>  <TORSDO>  (17) 
F 29

>  <SCORE>  (17) 
16.727

>  <name>  (17) 
16

>  <ligand_id>  (17) 
16

>  <original_smiles>  (17) 
[H]c1c([H])c([H])c2c(c1[H])C([H])([H])C([H])([H])C([H])([H])C2([H])N([H])C(=O)C1([H])N(C(=O)C([H])(N([H])C(=O)C([H])(N([H])C([H])([H])[H])C([H])([H])[H])C(C([H])([H])[H])(C([H])([H])[H])C([H])([H])[H])C([H])([H])c2c([H])c(OC([H])([H])C(=O)N([H])C([H])([H])C([H])([H])OC([H])([H])C([H])([H])OC([H])([H])C([H])([H])OC([H])([H])C([H])([H])C([H])([H])N([H])C(=O)N3C([H])([H])C([H])([H])C([H])([H])C([H])(n4nc(-c5c([H])c([H])c(Oc6c([H])c([H])c(F)c([H])c6F)c([H])c5[H])c(C(=O)N([H])[H])c4N([H])[H])C3([H])[H])c([H])c([H])c2C1([H])[H]

>  <smiles>  (17) 
[H]c1c([H])c([H])c2c(c1[H])C([H])([H])C([H])([H])C([H])([H])C2([H])N([H])C(=O)C1([H])N(C(=O)C([H])(N([H])C(=O)C([H])(N([H])C([H])([H])[H])C([H])([H])[H])C(C([H])([H])[H])(C([H])([H])[H])C([H])([H])[H])C([H])([H])c2c([H])c(OC([H])([H])C(=O)N([H])C([H])([H])C([H])([H])OC([H])([H])C([H])([H])OC([H])([H])C([H])([H])OC([H])([H])C([H])([H])C([H])([H])N([H])C(=O)N3C([H])([H])C([H])([H])C([H])([H])C([H])(n4nc(-c5c([H])c([H])c(Oc6c([H])c([H])c(F)c([H])c6F)c([H])c5[H])c(C(=O)N([H])[H])c4N([H])[H])C3([H])[H])c([H])c([H])c2C1([H])[H]

$$$$
17:0:0
     RDKit          3D

103110  0  0  1  0  0  0  0  0999 V2000
  -25.2600  -22.9540   20.5990 C   0  0  0  0  0  0  0  0  0  0  0  0
  -25.4790  -23.5160   21.7930 N   0  0  0  0  0  0  0  0  0  0  0  0
  -24.1540  -22.8850   20.0580 O   0  0  0  0  0  0  0  0  0  0  0  0
  -26.4340  -23.5420   22.1210 H   0  0  0  0  0  0  0  0  0  0  0  0
  -26.5220  -22.3660   19.9110 C   0  0  0  0  0  0  0  0  0  0  0  0
  -27.2920  -21.6070   20.7050 N   0  0  0  0  0  0  0  0  0  0  0  0
  -26.7570  -22.5940   18.7210 O   0  0  0  0  0  0  0  0  0  0  0  0
  -26.9560  -21.4420   21.6440 H   0  0  0  0  0  0  0  0  0  0  0  0
  -28.5860  -21.0410   20.3390 C   0  0  0  0  0  2  0  0  0  0  0  0
  -29.7490  -21.9160   20.8430 C   0  0  0  0  0  2  0  0  0  0  0  0
  -29.4280  -23.2850   20.6450 O   0  0  0  0  0  0  0  0  0  0  0  0
  -30.5450  -24.1610   20.6680 C   0  0  0  0  0  2  0  0  0  0  0  0
  -30.0270  -25.6060   20.6760 C   0  0  0  0  0  2  0  0  0  0  0  0
  -29.2310  -25.8200   19.5130 O   0  0  0  0  0  0  0  0  0  0  0  0
  -25.6320  -30.4760   23.5430 C   0  0  0  0  0  0  0  0  0  0  0  0
  -28.1290  -26.6210   19.6840 C   0  0  0  0  0  0  0  0  0  0  0  0
  -24.3990  -29.5210   21.6180 C   0  0  0  0  0  3  0  0  0  0  0  0
  -25.8110  -28.2110   19.9440 C   0  0  0  0  0  0  0  0  0  0  0  0
  -26.9410  -29.7550   21.5560 C   0  0  0  0  0  2  0  0  0  0  0  0
  -26.9700  -28.5380   20.6590 C   0  0  0  0  0  0  0  0  0  0  0  0
  -28.1300  -27.7470   20.5390 C   0  0  0  0  0  3  0  0  0  0  0  0
  -26.9610  -26.3070   18.9620 C   0  0  0  0  0  3  0  0  0  0  0  0
  -25.7980  -27.0910   19.0940 C   0  0  0  0  0  3  0  0  0  0  0  0
  -24.6160  -29.1160   20.1340 C   0  0  0  0  0  2  0  0  0  0  0  0
  -25.6730  -29.9190   22.3000 N   0  0  0  0  0  0  0  0  0  0  0  0
  -24.5530  -30.7040   24.1060 O   0  0  0  0  0  0  0  0  0  0  0  0
  -23.6560  -28.3730   22.3360 C   0  0  0  0  0  0  0  0  0  0  0  0
  -22.3360  -28.2790   22.1050 N   0  0  0  0  0  0  0  0  0  0  0  0
  -24.2660  -27.5770   23.0550 O   0  0  0  0  0  0  0  0  0  0  0  0
  -21.9100  -28.9720   21.5070 H   0  0  0  0  0  0  0  0  0  0  0  0
  -18.9090  -27.1440   22.1360 C   0  0  0  0  0  0  0  0  0  0  0  0
  -21.4410  -27.2550   22.6410 C   0  0  0  0  0  3  0  0  0  0  0  0
  -21.5570  -25.9380   21.8380 C   0  0  0  0  0  2  0  0  0  0  0  0
  -20.5340  -25.8320   20.7040 C   0  0  0  0  0  2  0  0  0  0  0  0
  -19.1070  -25.9210   21.2560 C   0  0  0  0  0  2  0  0  0  0  0  0
  -20.0070  -27.7790   22.7740 C   0  0  0  0  0  0  0  0  0  0  0  0
  -19.7740  -28.9320   23.5530 C   0  0  0  0  0  3  0  0  0  0  0  0
  -18.4740  -29.4510   23.7010 C   0  0  0  0  0  3  0  0  0  0  0  0
  -17.3880  -28.8080   23.0830 C   0  0  0  0  0  3  0  0  0  0  0  0
  -17.6050  -27.6550   22.3080 C   0  0  0  0  0  3  0  0  0  0  0  0
  -26.9350  -30.8780   24.3030 C   0  0  0  0  0  3  0  0  0  0  0  0
  -27.3500  -29.8430   25.4200 C   0  0  1  0  0  0  0  0  0  0  0  0
  -26.2070  -29.4960   26.4010 C   0  0  0  0  0  1  0  0  0  0  0  0
  -27.8440  -28.5230   24.7820 C   0  0  0  0  0  1  0  0  0  0  0  0
  -28.5310  -30.4060   26.2470 C   0  0  0  0  0  1  0  0  0  0  0  0
  -26.7160  -32.2090   24.8850 N   0  0  0  0  0  0  0  0  0  0  0  0
  -27.1870  -33.3510   24.3660 C   0  0  0  0  0  0  0  0  0  0  0  0
  -27.9250  -33.3840   23.3770 O   0  0  0  0  0  0  0  0  0  0  0  0
  -26.0820  -32.2620   25.6690 H   0  0  0  0  0  0  0  0  0  0  0  0
  -25.6560  -35.3420   24.2450 C   0  0  0  0  0  1  0  0  0  0  0  0
  -26.7740  -34.6650   25.0560 C   0  0  0  0  0  3  0  0  0  0  0  0
  -28.8870  -35.1480   26.2080 C   0  0  0  0  0  1  0  0  0  0  0  0
  -27.8950  -35.6120   25.2410 N   0  0  0  0  0  0  0  0  0  0  0  0
  -27.5530  -36.5170   25.5520 H   0  0  0  0  0  0  0  0  0  0  0  0
  -24.4470  -24.0380   22.6810 C   0  0  0  0  0  2  0  0  0  0  0  0
  -23.8940  -22.9220   23.5780 C   0  0  0  0  0  2  0  0  0  0  0  0
  -24.9310  -22.4430   24.4290 O   0  0  0  0  0  0  0  0  0  0  0  0
  -24.5190  -21.3060   25.1790 C   0  0  0  0  0  2  0  0  0  0  0  0
  -25.6200  -20.8580   26.1500 C   0  0  0  0  0  2  0  0  0  0  0  0
  -26.7290  -20.2850   25.4630 O   0  0  0  0  0  0  0  0  0  0  0  0
  -27.5140  -19.4750   26.3350 C   0  0  0  0  0  2  0  0  0  0  0  0
  -28.9330  -19.2660   25.7890 C   0  0  0  0  0  2  0  0  0  0  0  0
  -28.9400  -18.4620   24.6110 O   0  0  0  0  0  0  0  0  0  0  0  0
  -30.2700  -18.2190   24.1600 C   0  0  0  0  0  2  0  0  0  0  0  0
  -30.2950  -17.9720   22.6480 C   0  0  0  0  0  2  0  0  0  0  0  0
  -30.6540  -15.8180   21.4810 C   0  0  0  0  0  0  0  0  0  0  0  0
  -30.6840  -13.7420   20.1510 C   0  0  0  0  0  2  0  0  0  0  0  0
  -29.8780  -13.9270   18.8520 C   0  0  0  0  0  2  0  0  0  0  0  0
  -28.3850  -13.6270   19.0880 C   0  0  0  0  0  2  0  0  0  0  0  0
  -27.8190  -14.3630   20.3320 C   0  0  0  0  0  3  0  0  0  0  0  0
  -28.7440  -14.1740   21.5530 C   0  0  0  0  0  2  0  0  0  0  0  0
  -30.1000  -14.6160   21.1820 N   0  0  0  0  0  0  0  0  0  0  0  0
  -31.7260  -16.2070   21.0070 O   0  0  0  0  0  0  0  0  0  0  0  0
  -29.9480  -16.5930   22.3120 N   0  0  0  0  0  0  0  0  0  0  0  0
  -29.0730  -16.2360   22.6690 H   0  0  0  0  0  0  0  0  0  0  0  0
  -25.2970  -14.7060   20.7280 C   0  0  0  0  0  0  0  0  0  0  0  0
  -24.2760  -13.8190   20.9440 C   0  0  0  0  0  0  0  0  0  0  0  0
  -24.8760  -12.5230   20.9490 C   0  0  0  0  0  0  0  0  0  0  0  0
  -26.4490  -13.9420   20.6220 N   0  0  0  0  0  0  0  0  0  0  0  0
  -26.1920  -12.6220   20.8080 N   0  0  0  0  0  0  0  0  0  0  0  0
  -24.2690  -11.1880   21.0220 C   0  0  0  0  0  0  0  0  0  0  0  0
  -24.6930  -10.2350   21.9730 C   0  0  0  0  0  3  0  0  0  0  0  0
  -24.0790   -8.9660   22.0370 C   0  0  0  0  0  3  0  0  0  0  0  0
  -23.0280   -8.6400   21.1460 C   0  0  0  0  0  0  0  0  0  0  0  0
  -22.6260   -9.5840   20.1860 C   0  0  0  0  0  3  0  0  0  0  0  0
  -23.2410  -10.8450   20.1210 C   0  0  0  0  0  3  0  0  0  0  0  0
  -22.3920   -7.4220   21.1160 O   0  0  0  0  0  0  0  0  0  0  0  0
  -22.2130   -6.6750   22.2520 C   0  0  0  0  0  0  0  0  0  0  0  0
  -21.5790   -7.2020   23.3990 C   0  0  0  0  0  3  0  0  0  0  0  0
  -21.3540   -6.3790   24.5200 C   0  0  0  0  0  3  0  0  0  0  0  0
  -21.7530   -5.0290   24.4940 C   0  0  0  0  0  0  0  0  0  0  0  0
  -22.3780   -4.5010   23.3520 C   0  0  0  0  0  3  0  0  0  0  0  0
  -22.6060   -5.3220   22.2330 C   0  0  0  0  0  0  0  0  0  0  0  0
  -23.1900   -4.8030   21.1280 F   0  0  0  0  0  0  0  0  0  0  0  0
  -21.5300   -4.2360   25.5690 F   0  0  0  0  0  0  0  0  0  0  0  0
  -22.8140  -14.1440   21.0460 C   0  0  0  0  0  0  0  0  0  0  0  0
  -22.0620  -13.3520   21.8020 N   0  0  0  0  0  0  0  0  0  0  0  0
  -22.3380  -15.1340   20.4920 O   0  0  0  0  0  0  0  0  0  0  0  0
  -22.4560  -12.5500   22.2720 H   0  0  0  0  0  0  0  0  0  0  0  0
  -21.0780  -13.5490   21.9110 H   0  0  0  0  0  0  0  0  0  0  0  0
  -25.3390  -16.0910   20.5960 N   0  0  0  0  0  0  0  0  0  0  0  0
  -24.5030  -16.6640   20.6170 H   0  0  0  0  0  0  0  0  0  0  0  0
  -26.1790  -16.6250   20.4060 H   0  0  0  0  0  0  0  0  0  0  0  0
  1  2  1  0
  2  4  1  0
  2 55  1  0
  3  1  2  0
  5  1  1  0
  5  6  1  0
  6  8  1  0
  7  5  2  0
  9  6  1  0
  9 10  1  0
 11 12  1  0
 11 10  1  0
 12 13  1  0
 14 16  1  0
 14 13  1  0
 15 26  2  0
 16 21  1  0
 17 25  1  0
 17 27  1  0
 18 24  1  0
 18 20  1  0
 19 25  1  0
 20 19  1  0
 21 20  2  0
 22 23  1  0
 22 16  2  0
 23 18  2  0
 24 17  1  0
 25 15  1  0
 27 29  2  0
 28 27  1  0
 30 28  1  0
 31 40  2  0
 31 36  1  0
 32 28  1  0
 32 36  1  0
 33 32  1  0
 34 35  1  0
 34 33  1  0
 35 31  1  0
 36 37  2  0
 37 38  1  0
 39 38  2  0
 40 39  1  0
 41 15  1  0
 41 46  1  0
 41 42  1  0
 42 45  1  1
 42 43  1  0
 44 42  1  0
 46 49  1  0
 47 46  1  0
 47 51  1  0
 48 47  2  0
 51 50  1  0
 51 53  1  0
 53 54  1  0
 53 52  1  0
 55 56  1  0
 56 57  1  0
 57 58  1  0
 58 59  1  0
 60 59  1  0
 60 61  1  0
 62 61  1  0
 63 62  1  0
 64 63  1  0
 65 64  1  0
 66 74  1  0
 67 72  1  0
 68 69  1  0
 68 67  1  0
 70 69  1  0
 70 79  1  0
 70 71  1  0
 72 66  1  0
 72 71  1  0
 73 66  2  0
 74 65  1  0
 74 75  1  0
 76 77  2  0
 77 78  1  0
 77 96  1  0
 78 81  1  0
 79 76  1  0
 79 80  1  0
 80 78  2  0
 81 82  1  0
 82 83  2  0
 84 83  1  0
 85 84  2  0
 86 85  1  0
 86 81  2  0
 87 84  1  0
 87 88  1  0
 88 89  1  0
 89 90  2  0
 91 90  1  0
 91 95  1  0
 92 91  2  0
 93 88  2  0
 93 92  1  0
 94 93  1  0
 96 97  1  0
 97100  1  0
 97 99  1  0
 98 96  2  0
101102  1  0
101 76  1  0
103101  1  0
M  ISO  4  13 101  14 101  66 100  74 100
M  END
>  <TORSDO>  (18) 
F 33

>  <SCORE>  (18) 
17.541

>  <name>  (18) 
17

>  <ligand_id>  (18) 
17

>  <original_smiles>  (18) 
[H]c1c([H])c([H])c2c(c1[H])C([H])([H])C([H])([H])C([H])([H])C2([H])N([H])C(=O)C1([H])N(C(=O)C([H])(N([H])C(=O)C([H])(N([H])C([H])([H])[H])C([H])([H])[H])C(C([H])([H])[H])(C([H])([H])[H])C([H])([H])[H])C([H])([H])c2c([H])c(OC([H])([H])C([H])([H])OC([H])([H])C([H])([H])N([H])C(=O)C(=O)N([H])C([H])([H])C([H])([H])OC([H])([H])C([H])([H])OC([H])([H])C([H])([H])OC([H])([H])C([H])([H])N([H])C(=O)N3C([H])([H])C([H])([H])C([H])([H])C([H])(n4nc(-c5c([H])c([H])c(Oc6c([H])c([H])c(F)c([H])c6F)c([H])c5[H])c(C(=O)N([H])[H])c4N([H])[H])C3([H])[H])c([H])c([H])c2C1([H])[H]

>  <smiles>  (18) 
[H]c1c([H])c([H])c2c(c1[H])C([H])([H])C([H])([H])C([H])([H])C2([H])N([H])C(=O)C1([H])N(C(=O)C([H])(N([H])C(=O)C([H])(N([H])C([H])([H])[H])C([H])([H])[H])C(C([H])([H])[H])(C([H])([H])[H])C([H])([H])[H])C([H])([H])c2c([H])c(OC([H])([H])C([H])([H])OC([H])([H])C([H])([H])N([H])C(=O)C(=O)N([H])C([H])([H])C([H])([H])OC([H])([H])C([H])([H])OC([H])([H])C([H])([H])OC([H])([H])C([H])([H])N([H])C(=O)N3C([H])([H])C([H])([H])C([H])([H])C([H])(n4nc(-c5c([H])c([H])c(Oc6c([H])c([H])c(F)c([H])c6F)c([H])c5[H])c(C(=O)N([H])[H])c4N([H])[H])C3([H])[H])c([H])c([H])c2C1([H])[H]

$$$$
18:0:0
     RDKit          3D

103110  0  0  1  0  0  0  0  0999 V2000
  -29.4920  -21.3010   20.9940 C   0  0  0  0  0  0  0  0  0  0  0  0
  -30.3820  -20.3460   20.7030 N   0  0  0  0  0  0  0  0  0  0  0  0
  -28.3770  -21.3600   20.4700 O   0  0  0  0  0  0  0  0  0  0  0  0
  -31.2820  -20.3700   21.1690 H   0  0  0  0  0  0  0  0  0  0  0  0
  -29.9150  -22.3470   22.0310 C   0  0  0  0  0  3  0  0  0  0  0  0
  -28.7650  -22.7070   22.8780 N   0  0  0  0  0  4  0  0  0  0  0  0
  -28.0600  -23.1020   22.2790 H   0  0  0  0  0  0  0  0  0  0  0  0
  -29.0150  -23.3820   23.5790 H   0  0  0  0  0  0  0  0  0  0  0  0
  -28.3830  -21.8880   23.3170 H   0  0  0  0  0  0  0  0  0  0  0  0
  -30.5170  -23.6050   21.3670 C   0  0  0  0  0  2  0  0  0  0  0  0
  -29.6210  -24.7130   21.4860 O   0  0  0  0  0  0  0  0  0  0  0  0
  -29.8030  -25.6750   20.4490 C   0  0  0  0  0  2  0  0  0  0  0  0
  -29.5950  -27.0950   20.9970 C   0  0  0  0  0  2  0  0  0  0  0  0
  -29.3240  -28.0140   19.9380 O   0  0  0  0  0  0  0  0  0  0  0  0
  -24.3780  -31.7690   23.3730 C   0  0  0  0  0  0  0  0  0  0  0  0
  -28.0380  -28.4900   19.9460 C   0  0  0  0  0  0  0  0  0  0  0  0
  -23.5720  -30.4080   21.4690 C   0  0  0  0  0  3  0  0  0  0  0  0
  -25.3850  -29.4320   19.9620 C   0  0  0  0  0  0  0  0  0  0  0  0
  -25.9630  -31.3140   21.5080 C   0  0  0  0  0  2  0  0  0  0  0  0
  -26.3680  -30.0980   20.7040 C   0  0  0  0  0  0  0  0  0  0  0  0
  -27.6980  -29.6320   20.6990 C   0  0  0  0  0  3  0  0  0  0  0  0
  -27.0490  -27.8330   19.1910 C   0  0  0  0  0  3  0  0  0  0  0  0
  -25.7200  -28.2970   19.2020 C   0  0  0  0  0  3  0  0  0  0  0  0
  -23.9810  -29.9930   20.0300 C   0  0  0  0  0  2  0  0  0  0  0  0
  -24.6490  -31.1710   22.1790 N   0  0  0  0  0  0  0  0  0  0  0  0
  -23.2400  -31.7320   23.8610 O   0  0  0  0  0  0  0  0  0  0  0  0
  -23.1130  -29.1460   22.2330 C   0  0  0  0  0  0  0  0  0  0  0  0
  -21.8630  -28.7210   21.9910 N   0  0  0  0  0  0  0  0  0  0  0  0
  -23.8820  -28.5560   22.9980 O   0  0  0  0  0  0  0  0  0  0  0  0
  -21.2930  -29.2620   21.3550 H   0  0  0  0  0  0  0  0  0  0  0  0
  -18.7660  -26.8690   22.1480 C   0  0  0  0  0  0  0  0  0  0  0  0
  -21.2290  -27.5330   22.5630 C   0  0  0  0  0  3  0  0  0  0  0  0
  -21.6030  -26.2640   21.7660 C   0  0  0  0  0  2  0  0  0  0  0  0
  -20.5880  -25.9200   20.6720 C   0  0  0  0  0  2  0  0  0  0  0  0
  -19.1960  -25.7050   21.2720 C   0  0  0  0  0  2  0  0  0  0  0  0
  -19.7210  -27.7370   22.7420 C   0  0  0  0  0  0  0  0  0  0  0  0
  -19.2670  -28.8240   23.5190 C   0  0  0  0  0  3  0  0  0  0  0  0
  -17.8920  -29.0470   23.7130 C   0  0  0  0  0  3  0  0  0  0  0  0
  -16.9510  -28.1750   23.1380 C   0  0  0  0  0  3  0  0  0  0  0  0
  -17.3890  -27.0880   22.3610 C   0  0  0  0  0  3  0  0  0  0  0  0
  -25.4720  -32.5500   24.1670 C   0  0  0  0  0  3  0  0  0  0  0  0
  -25.0310  -33.9480   24.2690 N   0  0  0  0  0  0  0  0  0  0  0  0
  -25.4740  -34.9420   23.4880 C   0  0  0  0  0  0  0  0  0  0  0  0
  -26.3600  -34.7870   22.6430 O   0  0  0  0  0  0  0  0  0  0  0  0
  -24.2700  -34.1400   24.9020 H   0  0  0  0  0  0  0  0  0  0  0  0
  -23.7830  -36.5600   22.5750 C   0  0  0  0  0  1  0  0  0  0  0  0
  -24.8300  -36.3270   23.6750 C   0  0  0  0  0  3  0  0  0  0  0  0
  -26.6750  -37.4420   24.8480 C   0  0  0  0  0  1  0  0  0  0  0  0
  -25.8080  -37.4360   23.6720 N   0  0  0  0  0  0  0  0  0  0  0  0
  -25.3340  -38.3330   23.6250 H   0  0  0  0  0  0  0  0  0  0  0  0
  -25.7560  -31.9460   25.5970 C   0  0  1  0  0  0  0  0  0  0  0  0
  -24.4770  -31.6760   26.4210 C   0  0  0  0  0  1  0  0  0  0  0  0
  -26.5360  -30.6150   25.4790 C   0  0  0  0  0  1  0  0  0  0  0  0
  -26.6540  -32.9120   26.4050 C   0  0  0  0  0  1  0  0  0  0  0  0
  -30.2700  -19.3530   19.6380 C   0  0  0  0  0  2  0  0  0  0  0  0
  -31.4100  -19.5710   18.6310 C   0  0  0  0  0  2  0  0  0  0  0  0
  -32.5700  -18.9470   19.1700 O   0  0  0  0  0  0  0  0  0  0  0  0
  -33.7260  -19.0740   18.3560 C   0  0  0  0  0  2  0  0  0  0  0  0
  -34.2790  -17.6700   18.0730 C   0  0  0  0  0  2  0  0  0  0  0  0
  -35.1080  -17.2720   19.1600 O   0  0  0  0  0  0  0  0  0  0  0  0
  -36.2970  -16.6230   18.7240 C   0  0  0  0  0  2  0  0  0  0  0  0
  -36.9770  -15.9430   19.9170 C   0  0  0  0  0  2  0  0  0  0  0  0
  -36.4850  -14.6140   20.0510 O   0  0  0  0  0  0  0  0  0  0  0  0
  -37.5190  -13.6860   20.3550 C   0  0  0  0  0  2  0  0  0  0  0  0
  -36.9670  -12.2540   20.2590 C   0  0  0  0  0  2  0  0  0  0  0  0
  -35.6460  -12.1810   18.1440 C   0  0  0  0  0  0  0  0  0  0  0  0
  -34.1170  -12.2850   16.2130 C   0  0  0  0  0  2  0  0  0  0  0  0
  -33.7130  -13.7370   15.8910 C   0  0  0  0  0  2  0  0  0  0  0  0
  -32.5100  -14.1780   16.7460 C   0  0  0  0  0  2  0  0  0  0  0  0
  -32.6980  -13.8610   18.2520 C   0  0  0  0  0  3  0  0  0  0  0  0
  -33.1510  -12.3970   18.4430 C   0  0  0  0  0  2  0  0  0  0  0  0
  -34.3810  -12.1880   17.6540 N   0  0  0  0  0  0  0  0  0  0  0  0
  -36.6550  -12.1600   17.4340 O   0  0  0  0  0  0  0  0  0  0  0  0
  -35.7350  -12.1980   19.4770 N   0  0  0  0  0  0  0  0  0  0  0  0
  -34.8650  -12.2280   19.9880 H   0  0  0  0  0  0  0  0  0  0  0  0
  -31.1810  -15.2520   19.7970 C   0  0  0  0  0  0  0  0  0  0  0  0
  -29.8930  -15.0680   20.2230 C   0  0  0  0  0  0  0  0  0  0  0  0
  -29.4630  -13.8330   19.6510 C   0  0  0  0  0  0  0  0  0  0  0  0
  -31.4840  -14.1520   19.0120 N   0  0  0  0  0  0  0  0  0  0  0  0
  -30.4520  -13.2700   18.9710 N   0  0  0  0  0  0  0  0  0  0  0  0
  -28.1480  -13.1780   19.6680 C   0  0  0  0  0  0  0  0  0  0  0  0
  -27.9630  -11.9070   20.2560 C   0  0  0  0  0  3  0  0  0  0  0  0
  -26.6860  -11.3060   20.2750 C   0  0  0  0  0  3  0  0  0  0  0  0
  -25.5780  -11.9750   19.7020 C   0  0  0  0  0  0  0  0  0  0  0  0
  -25.7720  -13.2300   19.0970 C   0  0  0  0  0  3  0  0  0  0  0  0
  -27.0450  -13.8250   19.0760 C   0  0  0  0  0  3  0  0  0  0  0  0
  -24.3070  -11.4570   19.6500 O   0  0  0  0  0  0  0  0  0  0  0  0
  -23.7670  -10.7650   20.7050 C   0  0  0  0  0  0  0  0  0  0  0  0
  -23.6250  -11.3480   21.9830 C   0  0  0  0  0  3  0  0  0  0  0  0
  -23.0020  -10.6270   23.0200 C   0  0  0  0  0  3  0  0  0  0  0  0
  -22.5140   -9.3280   22.7810 C   0  0  0  0  0  0  0  0  0  0  0  0
  -22.6510   -8.7480   21.5070 C   0  0  0  0  0  3  0  0  0  0  0  0
  -23.2740   -9.4660   20.4720 C   0  0  0  0  0  0  0  0  0  0  0  0
  -23.3830   -8.9120   19.2410 F   0  0  0  0  0  0  0  0  0  0  0  0
  -21.9090   -8.6360   23.7740 F   0  0  0  0  0  0  0  0  0  0  0  0
  -29.0720  -16.0270   21.0370 C   0  0  0  0  0  0  0  0  0  0  0  0
  -28.1460  -15.5140   21.8390 N   0  0  0  0  0  0  0  0  0  0  0  0
  -29.2820  -17.2390   21.0010 O   0  0  0  0  0  0  0  0  0  0  0  0
  -27.9840  -14.5190   21.8840 H   0  0  0  0  0  0  0  0  0  0  0  0
  -27.5880  -16.1280   22.4160 H   0  0  0  0  0  0  0  0  0  0  0  0
  -32.1120  -16.2660   20.0020 N   0  0  0  0  0  0  0  0  0  0  0  0
  -31.9130  -17.0780   20.5730 H   0  0  0  0  0  0  0  0  0  0  0  0
  -33.0600  -16.2480   19.6460 H   0  0  0  0  0  0  0  0  0  0  0  0
  1  5  1  0
  2  1  1  0
  2  4  1  0
  3  1  2  0
  5 10  1  0
  5  6  1  0
  6  9  1  0
  6  8  1  0
  7  6  1  0
 10 11  1  0
 12 13  1  0
 12 11  1  0
 14 16  1  0
 14 13  1  0
 15 26  2  0
 16 21  1  0
 17 25  1  0
 17 27  1  0
 18 24  1  0
 18 20  1  0
 19 25  1  0
 20 19  1  0
 21 20  2  0
 22 23  1  0
 22 16  2  0
 23 18  2  0
 24 17  1  0
 25 15  1  0
 27 29  2  0
 28 27  1  0
 30 28  1  0
 31 40  2  0
 31 36  1  0
 32 28  1  0
 32 36  1  0
 33 32  1  0
 34 35  1  0
 34 33  1  0
 35 31  1  0
 36 37  2  0
 37 38  1  0
 39 38  2  0
 40 39  1  0
 41 15  1  0
 41 42  1  0
 41 51  1  0
 42 45  1  0
 43 47  1  0
 43 42  1  0
 44 43  2  0
 47 46  1  0
 49 47  1  0
 49 48  1  0
 50 49  1  0
 51 54  1  1
 51 52  1  0
 53 51  1  0
 55  2  1  0
 56 57  1  0
 56 55  1  0
 58 57  1  0
 59 58  1  0
 59 60  1  0
 61 60  1  0
 61 62  1  0
 62 63  1  0
 63 64  1  0
 65 64  1  0
 66 74  1  0
 67 72  1  0
 68 67  1  0
 68 69  1  0
 70 69  1  0
 70 71  1  0
 70 79  1  0
 72 66  1  0
 72 71  1  0
 73 66  2  0
 74 75  1  0
 74 65  1  0
 76101  1  0
 76 77  2  0
 77 96  1  0
 78 81  1  0
 78 77  1  0
 79 76  1  0
 80 79  1  0
 80 78  2  0
 81 82  1  0
 82 83  2  0
 84 83  1  0
 85 84  2  0
 86 85  1  0
 86 81  2  0
 87 84  1  0
 87 88  1  0
 88 89  1  0
 89 90  2  0
 91 90  1  0
 91 95  1  0
 92 91  2  0
 93 88  2  0
 93 92  1  0
 94 93  1  0
 96 97  1  0
 97 99  1  0
 97100  1  0
 98 96  2  0
101102  1  0
103101  1  0
M  ISO  4  13 101  14 101  66 100  74 100
M  END
>  <TORSDO>  (19) 
F 33

>  <SCORE>  (19) 
-2.660

>  <name>  (19) 
18

>  <ligand_id>  (19) 
18

>  <original_smiles>  (19) 
[H]c1c([H])c([H])c2c(c1[H])C([H])([H])C([H])([H])C([H])([H])C2([H])N([H])C(=O)C1([H])N(C(=O)C([H])(N([H])C(=O)C([H])(N([H])C([H])([H])[H])C([H])([H])[H])C(C([H])([H])[H])(C([H])([H])[H])C([H])([H])[H])C([H])([H])c2c([H])c(OC([H])([H])C([H])([H])OC([H])([H])C([H])(C(=O)N([H])C([H])([H])C([H])([H])OC([H])([H])C([H])([H])OC([H])([H])C([H])([H])OC([H])([H])C([H])([H])N([H])C(=O)N3C([H])([H])C([H])([H])C([H])([H])C([H])(n4nc(-c5c([H])c([H])c(Oc6c([H])c([H])c(F)c([H])c6F)c([H])c5[H])c(C(=O)N([H])[H])c4N([H])[H])C3([H])[H])[N+]([H])([H])[H])c([H])c([H])c2C1([H])[H]

>  <smiles>  (19) 
[H]c1c([H])c([H])c2c(c1[H])C([H])([H])C([H])([H])C([H])([H])C2([H])N([H])C(=O)C1([H])N(C(=O)C([H])(N([H])C(=O)C([H])(N([H])C([H])([H])[H])C([H])([H])[H])C(C([H])([H])[H])(C([H])([H])[H])C([H])([H])[H])C([H])([H])c2c([H])c(OC([H])([H])C([H])([H])OC([H])([H])C([H])(C(=O)N([H])C([H])([H])C([H])([H])OC([H])([H])C([H])([H])OC([H])([H])C([H])([H])OC([H])([H])C([H])([H])N([H])C(=O)N3C([H])([H])C([H])([H])C([H])([H])C([H])(n4nc(-c5c([H])c([H])c(Oc6c([H])c([H])c(F)c([H])c6F)c([H])c5[H])c(C(=O)N([H])[H])c4N([H])[H])C3([H])[H])[N+]([H])([H])[H])c([H])c([H])c2C1([H])[H]

$$$$
19:0:0
     RDKit          3D

 93100  0  0  1  0  0  0  0  0999 V2000
  -29.6910  -18.1260   20.1340 C   0  0  0  0  0  0  0  0  0  0  0  0
  -29.9900  -19.4420   20.0680 N   0  0  0  0  0  0  0  0  0  0  0  0
  -28.5230  -17.7300   20.0670 O   0  0  0  0  0  0  0  0  0  0  0  0
  -30.9690  -19.6930   20.1050 H   0  0  0  0  0  0  0  0  0  0  0  0
  -29.0090  -20.5480   20.0220 C   0  0  0  0  0  2  0  0  0  0  0  0
  -29.6090  -21.9810   20.1910 C   0  0  0  0  0  2  0  0  0  0  0  0
  -28.6450  -22.9940   19.8430 O   0  0  0  0  0  0  0  0  0  0  0  0
  -29.0350  -24.3680   20.0680 C   0  0  0  0  0  2  0  0  0  0  0  0
  -27.9000  -25.3370   19.6210 C   0  0  0  0  0  2  0  0  0  0  0  0
  -28.0570  -26.7520   19.9360 O   0  0  0  0  0  0  0  0  0  0  0  0
  -24.4050  -31.9800   23.2190 C   0  0  0  0  0  0  0  0  0  0  0  0
  -26.9060  -27.5390   19.9540 C   0  0  0  0  0  0  0  0  0  0  0  0
  -23.1340  -30.6020   21.6120 C   0  0  0  0  0  3  0  0  0  0  0  0
  -24.5230  -29.0940   20.0960 C   0  0  0  0  0  0  0  0  0  0  0  0
  -25.6580  -30.9450   21.3240 C   0  0  0  0  0  2  0  0  0  0  0  0
  -25.7120  -29.5860   20.6490 C   0  0  0  0  0  0  0  0  0  0  0  0
  -26.9030  -28.8170   20.5770 C   0  0  0  0  0  3  0  0  0  0  0  0
  -25.6910  -27.0900   19.3790 C   0  0  0  0  0  3  0  0  0  0  0  0
  -24.5110  -27.8460   19.4580 C   0  0  0  0  0  3  0  0  0  0  0  0
  -23.2850  -29.9520   20.2130 C   0  0  0  0  0  2  0  0  0  0  0  0
  -24.4200  -31.1910   22.1080 N   0  0  0  0  0  0  0  0  0  0  0  0
  -23.3460  -32.2460   23.8030 O   0  0  0  0  0  0  0  0  0  0  0  0
  -22.5220  -29.5620   22.5820 C   0  0  0  0  0  0  0  0  0  0  0  0
  -21.2070  -29.3210   22.4540 N   0  0  0  0  0  0  0  0  0  0  0  0
  -23.2290  -28.9770   23.4070 O   0  0  0  0  0  0  0  0  0  0  0  0
  -20.6930  -29.8520   21.7650 H   0  0  0  0  0  0  0  0  0  0  0  0
  -17.9020  -27.9310   22.9110 C   0  0  0  0  0  0  0  0  0  0  0  0
  -20.4300  -28.3570   23.2350 C   0  0  0  0  0  3  0  0  0  0  0  0
  -20.6350  -26.9180   22.7110 C   0  0  0  0  0  2  0  0  0  0  0  0
  -19.5820  -26.4940   21.6800 C   0  0  0  0  0  2  0  0  0  0  0  0
  -18.1790  -26.5740   22.2850 C   0  0  0  0  0  2  0  0  0  0  0  0
  -18.9590  -28.7740   23.3420 C   0  0  0  0  0  0  0  0  0  0  0  0
  -18.6480  -30.0400   23.8860 C   0  0  0  0  0  3  0  0  0  0  0  0
  -17.3110  -30.4650   24.0010 C   0  0  0  0  0  3  0  0  0  0  0  0
  -16.2670  -29.6200   23.5870 C   0  0  0  0  0  3  0  0  0  0  0  0
  -16.5630  -28.3540   23.0490 C   0  0  0  0  0  3  0  0  0  0  0  0
  -25.7130  -32.6050   23.7930 C   0  0  0  0  0  3  0  0  0  0  0  0
  -25.4240  -34.0070   24.1220 N   0  0  0  0  0  0  0  0  0  0  0  0
  -25.7250  -35.0510   23.3390 C   0  0  0  0  0  0  0  0  0  0  0  0
  -26.3470  -34.9340   22.2790 O   0  0  0  0  0  0  0  0  0  0  0  0
  -24.8640  -34.1730   24.9470 H   0  0  0  0  0  0  0  0  0  0  0  0
  -23.9800  -36.8400   23.0590 C   0  0  0  0  0  1  0  0  0  0  0  0
  -25.2650  -36.4450   23.8050 C   0  0  0  0  0  3  0  0  0  0  0  0
  -27.4380  -37.3420   24.5100 C   0  0  0  0  0  1  0  0  0  0  0  0
  -26.2890  -37.4950   23.6210 N   0  0  0  0  0  0  0  0  0  0  0  0
  -25.8910  -38.4180   23.7750 H   0  0  0  0  0  0  0  0  0  0  0  0
  -26.2680  -31.8400   25.0570 C   0  0  1  0  0  0  0  0  0  0  0  0
  -25.2040  -31.5940   26.1510 C   0  0  0  0  0  1  0  0  0  0  0  0
  -26.8570  -30.4680   24.6540 C   0  0  0  0  0  1  0  0  0  0  0  0
  -27.4250  -32.6480   25.6920 C   0  0  0  0  0  1  0  0  0  0  0  0
  -30.8420  -17.0840   20.3200 C   0  0  0  0  0  3  0  0  0  0  0  0
  -30.9740  -14.6910   19.4380 C   0  0  0  0  0  0  0  0  0  0  0  0
  -30.5430  -12.4810   18.4040 C   0  0  0  0  0  2  0  0  0  0  0  0
  -29.4550  -12.6220   17.3200 C   0  0  0  0  0  2  0  0  0  0  0  0
  -28.0470  -12.5080   17.9400 C   0  0  0  0  0  2  0  0  0  0  0  0
  -27.8670  -13.4110   19.1900 C   0  0  0  0  0  3  0  0  0  0  0  0
  -29.0490  -13.2300   20.1660 C   0  0  0  0  0  2  0  0  0  0  0  0
  -30.2890  -13.5110   19.4230 N   0  0  0  0  0  0  0  0  0  0  0  0
  -32.0370  -14.8510   18.8310 O   0  0  0  0  0  0  0  0  0  0  0  0
  -30.3540  -15.7100   20.0610 N   0  0  0  0  0  0  0  0  0  0  0  0
  -29.4390  -15.5140   20.4330 H   0  0  0  0  0  0  0  0  0  0  0  0
  -25.6420  -14.0920   20.2910 C   0  0  0  0  0  0  0  0  0  0  0  0
  -24.5860  -13.3540   20.7560 C   0  0  0  0  0  0  0  0  0  0  0  0
  -24.9460  -11.9850   20.5590 C   0  0  0  0  0  0  0  0  0  0  0  0
  -26.5800  -13.1760   19.8430 N   0  0  0  0  0  0  0  0  0  0  0  0
  -26.1740  -11.8990   20.0590 N   0  0  0  0  0  0  0  0  0  0  0  0
  -24.1740  -10.7520   20.7610 C   0  0  0  0  0  0  0  0  0  0  0  0
  -24.6460   -9.7120   21.5920 C   0  0  0  0  0  3  0  0  0  0  0  0
  -23.8750   -8.5460   21.7880 C   0  0  0  0  0  3  0  0  0  0  0  0
  -22.6180   -8.4120   21.1520 C   0  0  0  0  0  0  0  0  0  0  0  0
  -22.1620   -9.4410   20.3080 C   0  0  0  0  0  3  0  0  0  0  0  0
  -22.9340  -10.5990   20.1120 C   0  0  0  0  0  3  0  0  0  0  0  0
  -21.8130   -7.3030   21.2580 O   0  0  0  0  0  0  0  0  0  0  0  0
  -21.8090   -6.5250   22.3880 C   0  0  0  0  0  0  0  0  0  0  0  0
  -21.4760   -7.0530   23.6550 C   0  0  0  0  0  3  0  0  0  0  0  0
  -21.4140   -6.2020   24.7770 C   0  0  0  0  0  3  0  0  0  0  0  0
  -21.6780   -4.8270   24.6330 C   0  0  0  0  0  0  0  0  0  0  0  0
  -22.0080   -4.3000   23.3730 C   0  0  0  0  0  3  0  0  0  0  0  0
  -22.0700   -5.1460   22.2530 C   0  0  0  0  0  0  0  0  0  0  0  0
  -22.3660   -4.6310   21.0350 F   0  0  0  0  0  0  0  0  0  0  0  0
  -21.6130   -4.0090   25.7100 F   0  0  0  0  0  0  0  0  0  0  0  0
  -23.2780  -13.8850   21.2650 C   0  0  0  0  0  0  0  0  0  0  0  0
  -22.6460  -13.1740   22.1940 N   0  0  0  0  0  0  0  0  0  0  0  0
  -22.8310  -14.9620   20.8780 O   0  0  0  0  0  0  0  0  0  0  0  0
  -23.0250  -12.3030   22.5340 H   0  0  0  0  0  0  0  0  0  0  0  0
  -21.7750  -13.5120   22.5760 H   0  0  0  0  0  0  0  0  0  0  0  0
  -25.8710  -15.4610   20.1960 N   0  0  0  0  0  0  0  0  0  0  0  0
  -25.1730  -16.1430   20.4730 H   0  0  0  0  0  0  0  0  0  0  0  0
  -26.7050  -15.8880   19.8080 H   0  0  0  0  0  0  0  0  0  0  0  0
  -32.3410  -18.3790   21.9970 C   0  0  0  0  0  1  0  0  0  0  0  0
  -32.5000  -15.9140   21.8900 C   0  0  0  0  0  1  0  0  0  0  0  0
  -30.4570  -16.9940   22.8730 C   0  0  0  0  0  1  0  0  0  0  0  0
  -31.5140  -17.0980   21.7480 C   0  0  2  0  0  0  0  0  0  0  0  0
  2  4  1  0
  2  1  1  0
  3  1  2  0
  5  2  1  0
  5  6  1  0
  7  8  1  0
  7  6  1  0
  9 10  1  0
  9  8  1  0
 10 12  1  0
 11 22  2  0
 12 17  1  0
 13 21  1  0
 13 23  1  0
 14 20  1  0
 14 16  1  0
 15 21  1  0
 16 15  1  0
 17 16  2  0
 18 19  1  0
 18 12  2  0
 19 14  2  0
 20 13  1  0
 21 11  1  0
 23 25  2  0
 24 23  1  0
 26 24  1  0
 27 36  2  0
 27 32  1  0
 28 24  1  0
 28 32  1  0
 29 28  1  0
 30 31  1  0
 30 29  1  0
 31 27  1  0
 32 33  2  0
 33 34  1  0
 35 34  2  0
 36 35  1  0
 37 11  1  0
 37 38  1  0
 37 47  1  0
 38 41  1  0
 39 43  1  0
 39 38  1  0
 40 39  2  0
 43 42  1  0
 45 46  1  0
 45 43  1  0
 45 44  1  0
 47 50  1  1
 47 48  1  0
 49 47  1  0
 51  1  1  0
 51 93  1  0
 52 60  1  0
 53 58  1  0
 54 55  1  0
 54 53  1  0
 56 55  1  0
 56 65  1  0
 56 57  1  0
 58 52  1  0
 58 57  1  0
 59 52  2  0
 60 51  1  0
 60 61  1  0
 62 63  2  0
 63 82  1  0
 64 63  1  0
 64 67  1  0
 65 66  1  0
 65 62  1  0
 66 64  2  0
 67 68  1  0
 68 69  2  0
 70 73  1  0
 70 69  1  0
 71 70  2  0
 72 71  1  0
 72 67  2  0
 73 74  1  0
 74 75  1  0
 75 76  2  0
 77 76  1  0
 77 81  1  0
 78 77  2  0
 79 74  2  0
 79 78  1  0
 80 79  1  0
 82 83  1  0
 83 85  1  0
 83 86  1  0
 84 82  2  0
 87 62  1  0
 87 88  1  0
 89 87  1  0
 93 91  1  6
 93 90  1  0
 93 92  1  0
M  ISO  4   9 101  10 101  52 100  60 100
M  END
>  <TORSDO>  (20) 
F 23

>  <SCORE>  (20) 
-8.653

>  <name>  (20) 
19

>  <ligand_id>  (20) 
19

>  <original_smiles>  (20) 
[H]c1c([H])c([H])c2c(c1[H])C([H])([H])C([H])([H])C([H])([H])C2([H])N([H])C(=O)C1([H])N(C(=O)C([H])(N([H])C(=O)C([H])(N([H])C([H])([H])[H])C([H])([H])[H])C(C([H])([H])[H])(C([H])([H])[H])C([H])([H])[H])C([H])([H])c2c([H])c(OC([H])([H])C([H])([H])OC([H])([H])C([H])([H])N([H])C(=O)C([H])(N([H])C(=O)N3C([H])([H])C([H])([H])C([H])([H])C([H])(n4nc(-c5c([H])c([H])c(Oc6c([H])c([H])c(F)c([H])c6F)c([H])c5[H])c(C(=O)N([H])[H])c4N([H])[H])C3([H])[H])C(C([H])([H])[H])(C([H])([H])[H])C([H])([H])[H])c([H])c([H])c2C1([H])[H]

>  <smiles>  (20) 
[H]c1c([H])c([H])c2c(c1[H])C([H])([H])C([H])([H])C([H])([H])C2([H])N([H])C(=O)C1([H])N(C(=O)C([H])(N([H])C(=O)C([H])(N([H])C([H])([H])[H])C([H])([H])[H])C(C([H])([H])[H])(C([H])([H])[H])C([H])([H])[H])C([H])([H])c2c([H])c(OC([H])([H])C([H])([H])OC([H])([H])C([H])([H])N([H])C(=O)C([H])(N([H])C(=O)N3C([H])([H])C([H])([H])C([H])([H])C([H])(n4nc(-c5c([H])c([H])c(Oc6c([H])c([H])c(F)c([H])c6F)c([H])c5[H])c(C(=O)N([H])[H])c4N([H])[H])C3([H])[H])C(C([H])([H])[H])(C([H])([H])[H])C([H])([H])[H])c([H])c([H])c2C1([H])[H]

$$$$
20:0:0
     RDKit          3D

 93100  0  0  1  0  0  0  0  0999 V2000
  -28.3790  -22.9000   19.7700 C   0  0  0  0  0  0  0  0  0  0  0  0
  -27.5910  -21.9150   19.3250 N   0  0  0  0  0  0  0  0  0  0  0  0
  -29.4130  -22.6850   20.4100 O   0  0  0  0  0  0  0  0  0  0  0  0
  -26.7630  -22.1800   18.8080 H   0  0  0  0  0  0  0  0  0  0  0  0
  -27.7490  -20.4920   19.6140 C   0  0  0  0  0  2  0  0  0  0  0  0
  -28.3520  -19.7100   18.4320 C   0  0  0  0  0  2  0  0  0  0  0  0
  -29.6530  -20.2000   18.1070 O   0  0  0  0  0  0  0  0  0  0  0  0
  -30.6980  -19.2290   18.1100 C   0  0  0  0  0  2  0  0  0  0  0  0
  -31.0580  -18.8340   19.5540 C   0  0  0  0  0  2  0  0  0  0  0  0
  -30.1580  -17.8170   19.9760 O   0  0  0  0  0  0  0  0  0  0  0  0
  -29.9970  -17.7220   21.3810 C   0  0  0  0  0  2  0  0  0  0  0  0
  -30.7120  -16.4710   21.9020 C   0  0  0  0  0  2  0  0  0  0  0  0
  -30.8550  -14.4070   20.4680 C   0  0  0  0  0  0  0  0  0  0  0  0
  -30.5540  -12.3410   19.1360 C   0  0  0  0  0  2  0  0  0  0  0  0
  -29.5780  -12.5740   17.9640 C   0  0  0  0  0  2  0  0  0  0  0  0
  -28.1030  -12.4610   18.4010 C   0  0  0  0  0  2  0  0  0  0  0  0
  -27.8050  -13.2440   19.7090 C   0  0  0  0  0  3  0  0  0  0  0  0
  -28.8620  -12.9140   20.7800 C   0  0  0  0  0  2  0  0  0  0  0  0
  -30.1790  -13.2590   20.2200 N   0  0  0  0  0  0  0  0  0  0  0  0
  -31.9550  -14.6690   19.9700 O   0  0  0  0  0  0  0  0  0  0  0  0
  -30.2070  -15.2480   21.2810 N   0  0  0  0  0  0  0  0  0  0  0  0
  -29.2610  -14.9830   21.5140 H   0  0  0  0  0  0  0  0  0  0  0  0
  -25.4090  -13.9010   20.3930 C   0  0  0  0  0  0  0  0  0  0  0  0
  -24.3250  -13.1530   20.7670 C   0  0  0  0  0  0  0  0  0  0  0  0
  -24.7670  -11.7940   20.7670 C   0  0  0  0  0  0  0  0  0  0  0  0
  -26.4440  -12.9970   20.1890 N   0  0  0  0  0  0  0  0  0  0  0  0
  -26.0580  -11.7250   20.4650 N   0  0  0  0  0  0  0  0  0  0  0  0
  -24.0200  -10.5470   20.9780 C   0  0  0  0  0  0  0  0  0  0  0  0
  -24.4560   -9.5830   21.9110 C   0  0  0  0  0  3  0  0  0  0  0  0
  -23.7210   -8.3940   22.1110 C   0  0  0  0  0  3  0  0  0  0  0  0
  -22.5340   -8.1610   21.3740 C   0  0  0  0  0  0  0  0  0  0  0  0
  -22.1170   -9.1160   20.4300 C   0  0  0  0  0  3  0  0  0  0  0  0
  -22.8530  -10.2960   20.2290 C   0  0  0  0  0  3  0  0  0  0  0  0
  -21.7640   -7.0270   21.4820 O   0  0  0  0  0  0  0  0  0  0  0  0
  -21.7340   -6.2840   22.6340 C   0  0  0  0  0  0  0  0  0  0  0  0
  -21.3740   -6.8490   23.8780 C   0  0  0  0  0  3  0  0  0  0  0  0
  -21.2890   -6.0350   25.0240 C   0  0  0  0  0  3  0  0  0  0  0  0
  -21.5570   -4.6560   24.9290 C   0  0  0  0  0  0  0  0  0  0  0  0
  -21.9080   -4.0880   23.6910 C   0  0  0  0  0  3  0  0  0  0  0  0
  -21.9960   -4.9020   22.5470 C   0  0  0  0  0  0  0  0  0  0  0  0
  -22.3140   -4.3480   21.3540 F   0  0  0  0  0  0  0  0  0  0  0  0
  -21.4670   -3.8710   26.0270 F   0  0  0  0  0  0  0  0  0  0  0  0
  -22.9330  -13.6540   21.0200 C   0  0  0  0  0  0  0  0  0  0  0  0
  -22.1900  -12.9910   21.9000 N   0  0  0  0  0  0  0  0  0  0  0  0
  -22.5070  -14.6680   20.4660 O   0  0  0  0  0  0  0  0  0  0  0  0
  -22.5440  -12.1770   22.3800 H   0  0  0  0  0  0  0  0  0  0  0  0
  -21.2500  -13.3030   22.0920 H   0  0  0  0  0  0  0  0  0  0  0  0
  -25.6050  -15.2640   20.1860 N   0  0  0  0  0  0  0  0  0  0  0  0
  -24.8630  -15.9500   20.2630 H   0  0  0  0  0  0  0  0  0  0  0  0
  -26.4700  -15.6600   19.8380 H   0  0  0  0  0  0  0  0  0  0  0  0
  -27.9090  -24.3310   19.4780 C   0  0  0  0  0  2  0  0  0  0  0  0
  -28.4100  -25.3890   20.4970 C   0  0  0  0  0  2  0  0  0  0  0  0
  -28.3880  -26.7460   20.0440 O   0  0  0  0  0  0  0  0  0  0  0  0
  -24.6100  -31.8820   23.2290 C   0  0  0  0  0  0  0  0  0  0  0  0
  -27.1980  -27.4340   20.1160 C   0  0  0  0  0  0  0  0  0  0  0  0
  -23.3880  -30.4850   21.5990 C   0  0  0  0  0  3  0  0  0  0  0  0
  -24.8170  -28.9460   20.1630 C   0  0  0  0  0  0  0  0  0  0  0  0
  -25.9140  -30.8300   21.3840 C   0  0  0  0  0  2  0  0  0  0  0  0
  -25.9770  -29.4570   20.7490 C   0  0  0  0  0  0  0  0  0  0  0  0
  -27.1760  -28.7030   20.7320 C   0  0  0  0  0  3  0  0  0  0  0  0
  -26.0150  -26.9430   19.5170 C   0  0  0  0  0  3  0  0  0  0  0  0
  -24.8250  -27.6880   19.5430 C   0  0  0  0  0  3  0  0  0  0  0  0
  -23.5820  -29.8140   20.2140 C   0  0  0  0  0  2  0  0  0  0  0  0
  -24.6550  -31.0820   22.1270 N   0  0  0  0  0  0  0  0  0  0  0  0
  -23.5350  -32.1570   23.7760 O   0  0  0  0  0  0  0  0  0  0  0  0
  -22.7390  -29.4650   22.5650 C   0  0  0  0  0  0  0  0  0  0  0  0
  -21.4140  -29.2860   22.4470 N   0  0  0  0  0  0  0  0  0  0  0  0
  -23.4250  -28.8370   23.3780 O   0  0  0  0  0  0  0  0  0  0  0  0
  -20.9180  -29.8330   21.7550 H   0  0  0  0  0  0  0  0  0  0  0  0
  -18.0350  -28.1110   22.9550 C   0  0  0  0  0  0  0  0  0  0  0  0
  -20.5930  -28.3560   23.2230 C   0  0  0  0  0  3  0  0  0  0  0  0
  -20.6940  -26.9240   22.6480 C   0  0  0  0  0  2  0  0  0  0  0  0
  -19.5870  -26.6050   21.6400 C   0  0  0  0  0  2  0  0  0  0  0  0
  -18.2060  -26.7600   22.2860 C   0  0  0  0  0  2  0  0  0  0  0  0
  -19.1570  -28.8700   23.3800 C   0  0  0  0  0  0  0  0  0  0  0  0
  -18.9450  -30.1360   23.9650 C   0  0  0  0  0  3  0  0  0  0  0  0
  -17.6430  -30.6420   24.1370 C   0  0  0  0  0  3  0  0  0  0  0  0
  -16.5340  -29.8790   23.7300 C   0  0  0  0  0  3  0  0  0  0  0  0
  -16.7320  -28.6160   23.1430 C   0  0  0  0  0  3  0  0  0  0  0  0
  -25.9050  -32.5100   23.8390 C   0  0  0  0  0  3  0  0  0  0  0  0
  -26.4370  -31.7270   25.1020 C   0  0  1  0  0  0  0  0  0  0  0  0
  -25.3600  -31.4770   26.1820 C   0  0  0  0  0  1  0  0  0  0  0  0
  -27.0150  -30.3550   24.6880 C   0  0  0  0  0  1  0  0  0  0  0  0
  -27.6020  -32.5090   25.7530 C   0  0  0  0  0  1  0  0  0  0  0  0
  -25.5980  -33.9060   24.1820 N   0  0  0  0  0  0  0  0  0  0  0  0
  -25.9190  -34.9620   23.4250 C   0  0  0  0  0  0  0  0  0  0  0  0
  -26.5760  -34.8660   22.3840 O   0  0  0  0  0  0  0  0  0  0  0  0
  -25.0330  -34.0560   25.0050 H   0  0  0  0  0  0  0  0  0  0  0  0
  -24.1830  -36.7490   23.1010 C   0  0  0  0  0  1  0  0  0  0  0  0
  -25.4350  -36.3470   23.8960 C   0  0  0  0  0  3  0  0  0  0  0  0
  -27.5790  -37.2220   24.7020 C   0  0  0  0  0  1  0  0  0  0  0  0
  -26.4630  -37.4030   23.7780 N   0  0  0  0  0  0  0  0  0  0  0  0
  -26.0580  -38.3190   23.9550 H   0  0  0  0  0  0  0  0  0  0  0  0
  1  3  2  0
  2  5  1  0
  2  1  1  0
  4  2  1  0
  6  5  1  0
  7  8  1  0
  7  6  1  0
  8  9  1  0
  9 10  1  0
 10 11  1  0
 11 12  1  0
 13 21  1  0
 14 19  1  0
 15 16  1  0
 15 14  1  0
 17 16  1  0
 17 26  1  0
 17 18  1  0
 19 13  1  0
 19 18  1  0
 20 13  2  0
 21 22  1  0
 21 12  1  0
 23 24  2  0
 24 43  1  0
 25 24  1  0
 25 28  1  0
 26 23  1  0
 26 27  1  0
 27 25  2  0
 28 29  1  0
 29 30  2  0
 31 34  1  0
 31 30  1  0
 32 31  2  0
 33 32  1  0
 33 28  2  0
 34 35  1  0
 35 36  1  0
 36 37  2  0
 38 37  1  0
 38 42  1  0
 39 38  2  0
 40 35  2  0
 40 39  1  0
 41 40  1  0
 43 44  1  0
 44 47  1  0
 44 46  1  0
 45 43  2  0
 48 49  1  0
 48 23  1  0
 50 48  1  0
 51  1  1  0
 51 52  1  0
 53 55  1  0
 53 52  1  0
 54 65  2  0
 55 60  1  0
 56 64  1  0
 56 66  1  0
 57 63  1  0
 57 59  1  0
 58 64  1  0
 59 58  1  0
 60 59  2  0
 61 62  1  0
 61 55  2  0
 62 57  2  0
 63 56  1  0
 64 54  1  0
 66 68  2  0
 67 66  1  0
 69 67  1  0
 70 79  2  0
 70 75  1  0
 71 67  1  0
 71 75  1  0
 72 71  1  0
 73 74  1  0
 73 72  1  0
 74 70  1  0
 75 76  2  0
 76 77  1  0
 78 77  2  0
 79 78  1  0
 80 54  1  0
 80 85  1  0
 80 81  1  0
 81 84  1  1
 81 82  1  0
 83 81  1  0
 85 88  1  0
 86 90  1  0
 86 85  1  0
 87 86  2  0
 90 89  1  0
 92 90  1  0
 92 93  1  0
 92 91  1  0
M  ISO  4  13 100  21 100  52 101  53 101
M  END
>  <TORSDO>  (21) 
F 26

>  <SCORE>  (21) 
-11.925

>  <name>  (21) 
20

>  <ligand_id>  (21) 
20

>  <original_smiles>  (21) 
[H]c1c([H])c([H])c2c(c1[H])C([H])([H])C([H])([H])C([H])([H])C2([H])N([H])C(=O)C1([H])N(C(=O)C([H])(N([H])C(=O)C([H])(N([H])C([H])([H])[H])C([H])([H])[H])C(C([H])([H])[H])(C([H])([H])[H])C([H])([H])[H])C([H])([H])c2c([H])c(OC([H])([H])C([H])([H])C(=O)N([H])C([H])([H])C([H])([H])OC([H])([H])C([H])([H])OC([H])([H])C([H])([H])N([H])C(=O)N3C([H])([H])C([H])([H])C([H])([H])C([H])(n4nc(-c5c([H])c([H])c(Oc6c([H])c([H])c(F)c([H])c6F)c([H])c5[H])c(C(=O)N([H])[H])c4N([H])[H])C3([H])[H])c([H])c([H])c2C1([H])[H]

>  <smiles>  (21) 
[H]c1c([H])c([H])c2c(c1[H])C([H])([H])C([H])([H])C([H])([H])C2([H])N([H])C(=O)C1([H])N(C(=O)C([H])(N([H])C(=O)C([H])(N([H])C([H])([H])[H])C([H])([H])[H])C(C([H])([H])[H])(C([H])([H])[H])C([H])([H])[H])C([H])([H])c2c([H])c(OC([H])([H])C([H])([H])C(=O)N([H])C([H])([H])C([H])([H])OC([H])([H])C([H])([H])OC([H])([H])C([H])([H])N([H])C(=O)N3C([H])([H])C([H])([H])C([H])([H])C([H])(n4nc(-c5c([H])c([H])c(Oc6c([H])c([H])c(F)c([H])c6F)c([H])c5[H])c(C(=O)N([H])[H])c4N([H])[H])C3([H])[H])c([H])c([H])c2C1([H])[H]

$$$$
21:0:0
     RDKit          3D

101108  0  0  1  0  0  0  0  0999 V2000
  -24.1080  -21.9420   18.7810 C   0  0  0  0  0  1  0  0  0  0  0  0
  -25.5330  -22.4370   18.4740 C   0  0  0  0  0  3  0  0  0  0  0  0
  -25.5080  -23.8300   17.7960 C   0  0  0  0  0  0  0  0  0  0  0  0
  -26.6640  -24.2410   17.2670 N   0  0  0  0  0  0  0  0  0  0  0  0
  -24.4850  -24.5180   17.7710 O   0  0  0  0  0  0  0  0  0  0  0  0
  -27.4500  -23.6140   17.4270 H   0  0  0  0  0  0  0  0  0  0  0  0
  -26.9820  -25.5550   16.7240 C   0  0  0  0  0  2  0  0  0  0  0  0
  -28.3660  -25.9910   17.2270 C   0  0  0  0  0  2  0  0  0  0  0  0
  -28.2770  -26.1930   18.6310 O   0  0  0  0  0  0  0  0  0  0  0  0
  -29.3770  -26.9020   19.1870 C   0  0  0  0  0  2  0  0  0  0  0  0
  -28.9740  -27.3230   20.6020 C   0  0  0  0  0  2  0  0  0  0  0  0
  -27.6560  -27.8420   20.5060 O   0  0  0  0  0  0  0  0  0  0  0  0
  -28.1640  -32.9740   25.3990 C   0  0  0  0  0  0  0  0  0  0  0  0
  -27.1850  -28.3930   21.6630 C   0  0  0  0  0  0  0  0  0  0  0  0
  -26.6030  -31.1270   25.9250 C   0  0  0  0  0  3  0  0  0  0  0  0
  -26.1120  -29.5180   24.0080 C   0  0  0  0  0  0  0  0  0  0  0  0
  -27.1140  -31.7540   23.5020 C   0  0  0  0  0  2  0  0  0  0  0  0
  -26.8870  -30.3030   23.1450 C   0  0  0  0  0  0  0  0  0  0  0  0
  -27.4310  -29.7450   21.9710 C   0  0  0  0  0  3  0  0  0  0  0  0
  -26.4070  -27.6050   22.5340 C   0  0  0  0  0  3  0  0  0  0  0  0
  -25.8740  -28.1620   23.7130 C   0  0  0  0  0  3  0  0  0  0  0  0
  -25.5600  -30.2040   25.2370 C   0  0  0  0  0  2  0  0  0  0  0  0
  -27.3510  -31.9800   24.9450 N   0  0  0  0  0  0  0  0  0  0  0  0
  -28.2620  -33.2190   26.6090 O   0  0  0  0  0  0  0  0  0  0  0  0
  -27.5240  -30.2540   26.8070 C   0  0  0  0  0  0  0  0  0  0  0  0
  -27.1480  -30.0930   28.0850 N   0  0  0  0  0  0  0  0  0  0  0  0
  -28.5300  -29.7190   26.3340 O   0  0  0  0  0  0  0  0  0  0  0  0
  -26.3150  -30.5720   28.3950 H   0  0  0  0  0  0  0  0  0  0  0  0
  -27.1880  -29.2270   31.5910 C   0  0  0  0  0  0  0  0  0  0  0  0
  -27.8360  -29.2840   29.0900 C   0  0  0  0  0  3  0  0  0  0  0  0
  -27.3640  -27.8130   29.0380 C   0  0  0  0  0  2  0  0  0  0  0  0
  -26.2130  -27.5140   30.0040 C   0  0  0  0  0  2  0  0  0  0  0  0
  -26.6280  -27.8220   31.4450 C   0  0  0  0  0  2  0  0  0  0  0  0
  -27.7420  -29.9190   30.4810 C   0  0  0  0  0  0  0  0  0  0  0  0
  -28.2150  -31.2370   30.6630 C   0  0  0  0  0  3  0  0  0  0  0  0
  -28.1480  -31.8590   31.9230 C   0  0  0  0  0  3  0  0  0  0  0  0
  -27.6140  -31.1630   33.0220 C   0  0  0  0  0  3  0  0  0  0  0  0
  -27.1410  -29.8500   32.8550 C   0  0  0  0  0  3  0  0  0  0  0  0
  -28.9910  -33.8680   24.4200 C   0  0  0  0  0  3  0  0  0  0  0  0
  -28.8120  -35.2630   24.8400 N   0  0  0  0  0  0  0  0  0  0  0  0
  -28.0280  -36.1500   24.2110 C   0  0  0  0  0  0  0  0  0  0  0  0
  -27.4310  -35.8910   23.1620 O   0  0  0  0  0  0  0  0  0  0  0  0
  -29.2250  -35.5290   25.7210 H   0  0  0  0  0  0  0  0  0  0  0  0
  -26.5340  -37.6430   25.5730 C   0  0  0  0  0  1  0  0  0  0  0  0
  -27.8850  -37.5460   24.8470 C   0  0  0  0  0  3  0  0  0  0  0  0
  -29.3540  -38.7930   23.3250 C   0  0  0  0  0  1  0  0  0  0  0  0
  -28.0070  -38.6520   23.8710 N   0  0  0  0  0  0  0  0  0  0  0  0
  -27.7410  -39.5360   24.2950 H   0  0  0  0  0  0  0  0  0  0  0  0
  -30.5220  -33.4870   24.3730 C   0  0  1  0  0  0  0  0  0  0  0  0
  -31.1960  -33.4500   25.7640 C   0  0  0  0  0  1  0  0  0  0  0  0
  -30.7160  -32.1000   23.7170 C   0  0  0  0  0  1  0  0  0  0  0  0
  -31.2870  -34.5050   23.4960 C   0  0  0  0  0  1  0  0  0  0  0  0
  -27.5600  -22.7720   19.9230 C   0  0  0  0  0  0  0  0  0  0  0  0
  -26.2730  -22.4570   19.7410 N   0  0  0  0  0  0  0  0  0  0  0  0
  -28.3020  -23.0820   18.9860 O   0  0  0  0  0  0  0  0  0  0  0  0
  -25.7440  -22.2280   20.5720 H   0  0  0  0  0  0  0  0  0  0  0  0
  -28.0820  -22.7310   21.3730 C   0  0  0  0  0  2  0  0  0  0  0  0
  -29.3980  -23.2790   21.4820 O   0  0  0  0  0  0  0  0  0  0  0  0
  -30.4420  -22.4460   20.9790 C   0  0  0  0  0  2  0  0  0  0  0  0
  -31.3850  -23.3000   20.1210 C   0  0  0  0  0  2  0  0  0  0  0  0
  -32.2030  -22.4270   19.3560 O   0  0  0  0  0  0  0  0  0  0  0  0
  -32.5010  -22.9460   18.0720 C   0  0  0  0  0  2  0  0  0  0  0  0
  -33.4540  -21.9840   17.3580 C   0  0  0  0  0  2  0  0  0  0  0  0
  -33.9960  -22.2810   14.9480 C   0  0  0  0  0  0  0  0  0  0  0  0
  -35.2310  -21.0310   13.2330 C   0  0  0  0  0  2  0  0  0  0  0  0
  -34.3460  -19.8530   12.7680 C   0  0  0  0  0  2  0  0  0  0  0  0
  -34.5290  -18.6230   13.6860 C   0  0  0  0  0  2  0  0  0  0  0  0
  -34.4430  -18.9730   15.1980 C   0  0  0  0  0  3  0  0  0  0  0  0
  -35.3310  -20.1990   15.5050 C   0  0  0  0  0  2  0  0  0  0  0  0
  -34.8910  -21.3060   14.6360 N   0  0  0  0  0  0  0  0  0  0  0  0
  -33.6790  -23.1900   14.1820 O   0  0  0  0  0  0  0  0  0  0  0  0
  -33.1490  -21.9950   15.9340 N   0  0  0  0  0  0  0  0  0  0  0  0
  -32.2500  -22.4180   15.7580 H   0  0  0  0  0  0  0  0  0  0  0  0
  -34.0780  -17.2370   17.0680 C   0  0  0  0  0  0  0  0  0  0  0  0
  -34.8170  -16.1580   17.4700 C   0  0  0  0  0  0  0  0  0  0  0  0
  -35.9720  -16.1390   16.6300 C   0  0  0  0  0  0  0  0  0  0  0  0
  -34.7920  -17.8260   16.0350 N   0  0  0  0  0  0  0  0  0  0  0  0
  -35.9650  -17.1810   15.8100 N   0  0  0  0  0  0  0  0  0  0  0  0
  -37.0570  -15.1560   16.5210 C   0  0  0  0  0  0  0  0  0  0  0  0
  -38.4140  -15.5430   16.5860 C   0  0  0  0  0  3  0  0  0  0  0  0
  -39.4400  -14.5800   16.4960 C   0  0  0  0  0  3  0  0  0  0  0  0
  -39.1150  -13.2110   16.3420 C   0  0  0  0  0  0  0  0  0  0  0  0
  -37.7640  -12.8330   16.2500 C   0  0  0  0  0  3  0  0  0  0  0  0
  -36.7440  -13.7960   16.3340 C   0  0  0  0  0  3  0  0  0  0  0  0
  -40.0450  -12.2070   16.2190 O   0  0  0  0  0  0  0  0  0  0  0  0
  -41.3020  -12.3210   16.7550 C   0  0  0  0  0  0  0  0  0  0  0  0
  -41.5080  -12.5780   18.1270 C   0  0  0  0  0  3  0  0  0  0  0  0
  -42.8170  -12.6180   18.6460 C   0  0  0  0  0  3  0  0  0  0  0  0
  -43.9190  -12.3950   17.7990 C   0  0  0  0  0  0  0  0  0  0  0  0
  -43.7160  -12.1340   16.4320 C   0  0  0  0  0  3  0  0  0  0  0  0
  -42.4100  -12.0950   15.9140 C   0  0  0  0  0  0  0  0  0  0  0  0
  -42.2180  -11.8210   14.6010 F   0  0  0  0  0  0  0  0  0  0  0  0
  -45.1770  -12.4270   18.2970 F   0  0  0  0  0  0  0  0  0  0  0  0
  -34.4320  -15.1420   18.5070 C   0  0  0  0  0  0  0  0  0  0  0  0
  -35.4120  -14.5550   19.1850 N   0  0  0  0  0  0  0  0  0  0  0  0
  -33.2530  -14.8960   18.7550 O   0  0  0  0  0  0  0  0  0  0  0  0
  -36.3820  -14.7770   19.0050 H   0  0  0  0  0  0  0  0  0  0  0  0
  -35.1870  -13.8830   19.9030 H   0  0  0  0  0  0  0  0  0  0  0  0
  -32.8530  -17.7560   17.4820 N   0  0  0  0  0  0  0  0  0  0  0  0
  -32.2910  -17.3200   18.2050 H   0  0  0  0  0  0  0  0  0  0  0  0
  -32.4060  -18.5640   17.0670 H   0  0  0  0  0  0  0  0  0  0  0  0
  2  1  1  0
  2 54  1  0
  3  2  1  0
  4  6  1  0
  4  3  1  0
  5  3  2  0
  7  8  1  0
  7  4  1  0
  8  9  1  0
  9 10  1  0
 10 11  1  0
 12 11  1  0
 12 14  1  0
 13 24  2  0
 14 19  2  0
 14 20  1  0
 15 25  1  0
 16 22  1  0
 17 23  1  0
 18 17  1  0
 18 16  2  0
 19 18  1  0
 20 21  2  0
 21 16  1  0
 22 15  1  0
 23 13  1  0
 23 15  1  0
 25 26  1  0
 26 28  1  0
 27 25  2  0
 29 38  1  0
 30 26  1  0
 30 34  1  0
 31 30  1  0
 31 32  1  0
 32 33  1  0
 33 29  1  0
 34 35  1  0
 34 29  2  0
 35 36  2  0
 36 37  1  0
 38 37  2  0
 39 40  1  0
 39 13  1  0
 40 43  1  0
 41 40  1  0
 41 45  1  0
 42 41  2  0
 45 44  1  0
 46 47  1  0
 47 48  1  0
 47 45  1  0
 49 39  1  0
 49 50  1  1
 51 49  1  0
 52 49  1  0
 53 57  1  0
 54 53  1  0
 54 56  1  0
 55 53  2  0
 57 58  1  0
 59 58  1  0
 60 59  1  0
 61 60  1  0
 62 61  1  0
 63 62  1  0
 64 72  1  0
 65 70  1  0
 66 65  1  0
 66 67  1  0
 68 67  1  0
 68 69  1  0
 68 77  1  0
 70 64  1  0
 70 69  1  0
 71 64  2  0
 72 63  1  0
 73 72  1  0
 74 75  2  0
 74 99  1  0
 75 94  1  0
 76 75  1  0
 77 74  1  0
 78 77  1  0
 78 76  2  0
 79 80  1  0
 79 76  1  0
 81 80  2  0
 82 81  1  0
 83 84  1  0
 83 82  2  0
 84 79  2  0
 85 82  1  0
 85 86  1  0
 86 87  1  0
 87 88  2  0
 89 93  1  0
 89 88  1  0
 90 89  2  0
 91 90  1  0
 91 86  2  0
 92 91  1  0
 94 96  2  0
 94 95  1  0
 95 98  1  0
 97 95  1  0
 99100  1  0
101 99  1  0
M  ISO  4  11 101  12 101  64 100  72 100
M  END
>  <TORSDO>  (22) 
F 30

>  <SCORE>  (22) 
-3.381

>  <name>  (22) 
21

>  <ligand_id>  (22) 
21

>  <original_smiles>  (22) 
[H]c1c([H])c([H])c2c(c1[H])C([H])([H])C([H])([H])C([H])([H])C2([H])N([H])C(=O)C1([H])N(C(=O)C([H])(N([H])C(=O)C([H])(N([H])C([H])([H])[H])C([H])([H])[H])C(C([H])([H])[H])(C([H])([H])[H])C([H])([H])[H])C([H])([H])c2c([H])c(OC([H])([H])C([H])([H])OC([H])([H])C([H])([H])N([H])C(=O)C([H])(N([H])C(=O)C([H])([H])OC([H])([H])C([H])([H])OC([H])([H])C([H])([H])N([H])C(=O)N3C([H])([H])C([H])([H])C([H])([H])C([H])(n4nc(-c5c([H])c([H])c(Oc6c([H])c([H])c(F)c([H])c6F)c([H])c5[H])c(C(=O)N([H])[H])c4N([H])[H])C3([H])[H])C([H])([H])[H])c([H])c([H])c2C1([H])[H]

>  <smiles>  (22) 
[H]c1c([H])c([H])c2c(c1[H])C([H])([H])C([H])([H])C([H])([H])C2([H])N([H])C(=O)C1([H])N(C(=O)C([H])(N([H])C(=O)C([H])(N([H])C([H])([H])[H])C([H])([H])[H])C(C([H])([H])[H])(C([H])([H])[H])C([H])([H])[H])C([H])([H])c2c([H])c(OC([H])([H])C([H])([H])OC([H])([H])C([H])([H])N([H])C(=O)C([H])(N([H])C(=O)C([H])([H])OC([H])([H])C([H])([H])OC([H])([H])C([H])([H])N([H])C(=O)N3C([H])([H])C([H])([H])C([H])([H])C([H])(n4nc(-c5c([H])c([H])c(Oc6c([H])c([H])c(F)c([H])c6F)c([H])c5[H])c(C(=O)N([H])[H])c4N([H])[H])C3([H])[H])C([H])([H])[H])c([H])c([H])c2C1([H])[H]

$$$$
22:0:0
     RDKit          3D

 97104  0  0  1  0  0  0  0  0999 V2000
  -32.2920  -23.7210   14.0020 C   0  0  0  0  0  3  0  0  0  0  0  0
  -30.8830  -23.6290   14.6210 C   0  0  0  0  0  0  0  0  0  0  0  0
  -30.2120  -24.7610   14.8900 N   0  0  0  0  0  0  0  0  0  0  0  0
  -30.3910  -22.5160   14.8290 O   0  0  0  0  0  0  0  0  0  0  0  0
  -30.6260  -25.6560   14.6620 H   0  0  0  0  0  0  0  0  0  0  0  0
  -28.8750  -24.7700   15.4830 C   0  0  0  0  0  2  0  0  0  0  0  0
  -27.8630  -25.6090   14.6870 C   0  0  0  0  0  2  0  0  0  0  0  0
  -26.6060  -25.6700   15.3580 O   0  0  0  0  0  0  0  0  0  0  0  0
  -26.7650  -25.7980   16.7690 C   0  0  0  0  0  2  0  0  0  0  0  0
  -26.0170  -27.0370   17.2860 C   0  0  0  0  0  2  0  0  0  0  0  0
  -23.9500  -25.7090   17.5680 C   0  0  0  0  0  0  0  0  0  0  0  0
  -22.9070  -24.4380   19.4070 C   0  0  0  0  0  2  0  0  0  0  0  0
  -21.6820  -25.1900   19.9600 C   0  0  0  0  0  2  0  0  0  0  0  0
  -22.1000  -26.2070   21.0420 C   0  0  0  0  0  2  0  0  0  0  0  0
  -23.2860  -27.0990   20.5930 C   0  0  0  0  0  3  0  0  0  0  0  0
  -24.4170  -26.2310   20.0080 C   0  0  0  0  0  2  0  0  0  0  0  0
  -23.8670  -25.4300   18.8990 N   0  0  0  0  0  0  0  0  0  0  0  0
  -23.3320  -25.0800   16.7080 O   0  0  0  0  0  0  0  0  0  0  0  0
  -24.5710  -26.8390   17.2140 N   0  0  0  0  0  0  0  0  0  0  0  0
  -24.2030  -27.2070   16.3480 H   0  0  0  0  0  0  0  0  0  0  0  0
  -23.7110  -29.3180   21.8330 C   0  0  0  0  0  0  0  0  0  0  0  0
  -24.2440  -29.5890   23.0640 C   0  0  0  0  0  0  0  0  0  0  0  0
  -24.6080  -28.3260   23.6240 C   0  0  0  0  0  0  0  0  0  0  0  0
  -23.7710  -27.9410   21.6880 N   0  0  0  0  0  0  0  0  0  0  0  0
  -24.3650  -27.3520   22.7580 N   0  0  0  0  0  0  0  0  0  0  0  0
  -25.1160  -27.9810   24.9570 C   0  0  0  0  0  0  0  0  0  0  0  0
  -26.4770  -27.6710   25.1710 C   0  0  0  0  0  3  0  0  0  0  0  0
  -26.9460  -27.3620   26.4660 C   0  0  0  0  0  3  0  0  0  0  0  0
  -26.0520  -27.3620   27.5630 C   0  0  0  0  0  0  0  0  0  0  0  0
  -24.6950  -27.6490   27.3400 C   0  0  0  0  0  3  0  0  0  0  0  0
  -24.2280  -27.9510   26.0510 C   0  0  0  0  0  3  0  0  0  0  0  0
  -26.4120  -27.0470   28.8520 O   0  0  0  0  0  0  0  0  0  0  0  0
  -27.0010  -27.9700   29.6800 C   0  0  0  0  0  0  0  0  0  0  0  0
  -26.6380  -29.3340   29.6530 C   0  0  0  0  0  3  0  0  0  0  0  0
  -27.2160  -30.2340   30.5690 C   0  0  0  0  0  3  0  0  0  0  0  0
  -28.1500  -29.7720   31.5160 C   0  0  0  0  0  0  0  0  0  0  0  0
  -28.5100  -28.4130   31.5470 C   0  0  0  0  0  3  0  0  0  0  0  0
  -27.9330  -27.5130   30.6320 C   0  0  0  0  0  0  0  0  0  0  0  0
  -28.2670  -26.2010   30.6800 F   0  0  0  0  0  0  0  0  0  0  0  0
  -28.7010  -30.6340   32.4020 F   0  0  0  0  0  0  0  0  0  0  0  0
  -24.3250  -30.9330   23.7290 C   0  0  0  0  0  0  0  0  0  0  0  0
  -25.5090  -31.3200   24.1920 N   0  0  0  0  0  0  0  0  0  0  0  0
  -23.3430  -31.6710   23.7990 O   0  0  0  0  0  0  0  0  0  0  0  0
  -26.3210  -30.7250   24.1190 H   0  0  0  0  0  0  0  0  0  0  0  0
  -25.6060  -32.2280   24.6240 H   0  0  0  0  0  0  0  0  0  0  0  0
  -23.1670  -30.1230   20.8350 N   0  0  0  0  0  0  0  0  0  0  0  0
  -23.0580  -31.1250   20.9470 H   0  0  0  0  0  0  0  0  0  0  0  0
  -22.7690  -29.7740   19.9730 H   0  0  0  0  0  0  0  0  0  0  0  0
  -33.1120  -24.6170   14.8440 N   0  0  0  0  0  4  0  0  0  0  0  0
  -32.7610  -25.5530   14.6940 H   0  0  0  0  0  0  0  0  0  0  0  0
  -32.8330  -24.3520   15.7790 H   0  0  0  0  0  0  0  0  0  0  0  0
  -34.5880  -24.5310   14.7020 C   0  0  0  0  0  2  0  0  0  0  0  0
  -35.2710  -25.9050   14.5600 C   0  0  0  0  0  2  0  0  0  0  0  0
  -36.3120  -25.9910   15.5330 O   0  0  0  0  0  0  0  0  0  0  0  0
  -37.6150  -31.9340   19.1480 C   0  0  0  0  0  0  0  0  0  0  0  0
  -36.1520  -26.6150   16.7520 C   0  0  0  0  0  0  0  0  0  0  0  0
  -36.6430  -30.0860   20.4780 C   0  0  0  0  0  3  0  0  0  0  0  0
  -35.7810  -28.0940   19.1390 C   0  0  0  0  0  0  0  0  0  0  0  0
  -36.1840  -30.2670   17.9700 C   0  0  0  0  0  2  0  0  0  0  0  0
  -36.0760  -28.7580   17.9440 C   0  0  0  0  0  0  0  0  0  0  0  0
  -36.2570  -28.0230   16.7550 C   0  0  0  0  0  3  0  0  0  0  0  0
  -35.8640  -25.9560   17.9730 C   0  0  0  0  0  3  0  0  0  0  0  0
  -35.6780  -26.6920   19.1590 C   0  0  0  0  0  3  0  0  0  0  0  0
  -35.5850  -28.9530   20.3670 C   0  0  0  0  0  2  0  0  0  0  0  0
  -36.8630  -30.7970   19.1760 N   0  0  0  0  0  0  0  0  0  0  0  0
  -38.0820  -32.4170   20.1890 O   0  0  0  0  0  0  0  0  0  0  0  0
  -37.9360  -29.4940   21.0780 C   0  0  0  0  0  0  0  0  0  0  0  0
  -37.9360  -29.2770   22.4020 N   0  0  0  0  0  0  0  0  0  0  0  0
  -38.8980  -29.2140   20.3550 O   0  0  0  0  0  0  0  0  0  0  0  0
  -37.1130  -29.5450   22.9250 H   0  0  0  0  0  0  0  0  0  0  0  0
  -39.0590  -28.5620   25.7600 C   0  0  0  0  0  0  0  0  0  0  0  0
  -39.0270  -28.6900   23.1790 C   0  0  0  0  0  3  0  0  0  0  0  0
  -38.9240  -27.1470   23.2050 C   0  0  0  0  0  2  0  0  0  0  0  0
  -38.1560  -26.6150   24.4200 C   0  0  0  0  0  2  0  0  0  0  0  0
  -38.8330  -27.0610   25.7190 C   0  0  0  0  0  2  0  0  0  0  0  0
  -39.1340  -29.3300   24.5670 C   0  0  0  0  0  0  0  0  0  0  0  0
  -39.3090  -30.7270   24.6630 C   0  0  0  0  0  3  0  0  0  0  0  0
  -39.4140  -31.3570   25.9160 C   0  0  0  0  0  3  0  0  0  0  0  0
  -39.3530  -30.5910   27.0940 C   0  0  0  0  0  3  0  0  0  0  0  0
  -39.1810  -29.1980   27.0130 C   0  0  0  0  0  3  0  0  0  0  0  0
  -37.9010  -32.6960   17.8160 C   0  0  0  0  0  3  0  0  0  0  0  0
  -37.6520  -34.1230   18.0590 N   0  0  0  0  0  0  0  0  0  0  0  0
  -36.8970  -34.9070   17.2790 C   0  0  0  0  0  0  0  0  0  0  0  0
  -36.3910  -34.5140   16.2240 O   0  0  0  0  0  0  0  0  0  0  0  0
  -37.9890  -34.4980   18.9340 H   0  0  0  0  0  0  0  0  0  0  0  0
  -35.1720  -36.5770   18.0290 C   0  0  0  0  0  1  0  0  0  0  0  0
  -36.6660  -36.3580   17.7420 C   0  0  0  0  0  3  0  0  0  0  0  0
  -38.5920  -37.5010   16.7350 C   0  0  0  0  0  1  0  0  0  0  0  0
  -37.1380  -37.3670   16.7680 N   0  0  0  0  0  0  0  0  0  0  0  0
  -36.7410  -38.2810   16.9750 H   0  0  0  0  0  0  0  0  0  0  0  0
  -39.3650  -32.4700   17.2710 C   0  0  1  0  0  0  0  0  0  0  0  0
  -40.4060  -33.4510   17.8600 C   0  0  0  0  0  1  0  0  0  0  0  0
  -39.8420  -31.0320   17.5790 C   0  0  0  0  0  1  0  0  0  0  0  0
  -39.3810  -32.6220   15.7320 C   0  0  0  0  0  1  0  0  0  0  0  0
  -32.3060  -24.2530   12.5500 C   0  0  0  0  0  2  0  0  0  0  0  0
  -31.8860  -25.6160   12.4700 O   0  0  0  0  0  0  0  0  0  0  0  0
  -30.9330  -25.6470   12.4810 H   0  0  0  0  0  0  0  0  0  0  0  0
  1 95  1  0
  1  2  1  0
  1 49  1  0
  2  4  2  0
  2  3  1  0
  3  6  1  0
  5  3  1  0
  7  8  1  0
  7  6  1  0
  8  9  1  0
  9 10  1  0
 11 17  1  0
 12 13  1  0
 13 14  1  0
 15 16  1  0
 15 14  1  0
 15 24  1  0
 17 12  1  0
 17 16  1  0
 18 11  2  0
 19 10  1  0
 19 11  1  0
 20 19  1  0
 21 22  2  0
 22 23  1  0
 22 41  1  0
 23 26  1  0
 24 21  1  0
 24 25  1  0
 25 23  2  0
 26 27  2  0
 26 31  1  0
 27 28  1  0
 28 29  2  0
 29 32  1  0
 30 29  1  0
 31 30  2  0
 32 33  1  0
 33 38  1  0
 34 33  2  0
 34 35  1  0
 35 36  2  0
 36 37  1  0
 36 40  1  0
 38 39  1  0
 38 37  2  0
 41 43  2  0
 41 42  1  0
 42 45  1  0
 44 42  1  0
 46 47  1  0
 46 21  1  0
 48 46  1  0
 49 51  1  0
 50 49  1  0
 52 49  1  0
 53 52  1  0
 53 54  1  0
 54 56  1  0
 55 65  1  0
 55 66  2  0
 56 61  2  0
 56 62  1  0
 57 67  1  0
 58 63  1  0
 58 64  1  0
 59 65  1  0
 60 59  1  0
 60 58  2  0
 61 60  1  0
 62 63  2  0
 64 57  1  0
 65 57  1  0
 67 68  1  0
 68 70  1  0
 69 67  2  0
 71 80  1  0
 72 68  1  0
 72 73  1  0
 72 76  1  0
 73 74  1  0
 74 75  1  0
 75 71  1  0
 76 77  1  0
 76 71  2  0
 77 78  2  0
 78 79  1  0
 80 79  2  0
 81 82  1  0
 81 55  1  0
 82 85  1  0
 83 87  1  0
 83 82  1  0
 84 83  2  0
 87 86  1  0
 88 89  1  0
 89 90  1  0
 89 87  1  0
 91 93  1  6
 91 81  1  0
 91 92  1  0
 94 91  1  0
 96 97  1  0
 96 95  1  0
M  ISO  4  11 100  19 100  53 101  54 101
M  END
>  <TORSDO>  (23) 
F 27

>  <SCORE>  (23) 
-4.913

>  <name>  (23) 
22

>  <ligand_id>  (23) 
22

>  <original_smiles>  (23) 
[H]OC([H])([H])C([H])(C(=O)N([H])C([H])([H])C([H])([H])OC([H])([H])C([H])([H])N([H])C(=O)N1C([H])([H])C([H])([H])C([H])([H])C([H])(n2nc(-c3c([H])c([H])c(Oc4c([H])c([H])c(F)c([H])c4F)c([H])c3[H])c(C(=O)N([H])[H])c2N([H])[H])C1([H])[H])[N+]([H])([H])C([H])([H])C([H])([H])Oc1c([H])c([H])c2c(c1[H])C([H])([H])N(C(=O)C([H])(N([H])C(=O)C([H])(N([H])C([H])([H])[H])C([H])([H])[H])C(C([H])([H])[H])(C([H])([H])[H])C([H])([H])[H])C([H])(C(=O)N([H])C1([H])c3c([H])c([H])c([H])c([H])c3C([H])([H])C([H])([H])C1([H])[H])C2([H])[H]

>  <smiles>  (23) 
[H]OC([H])([H])C([H])(C(=O)N([H])C([H])([H])C([H])([H])OC([H])([H])C([H])([H])N([H])C(=O)N1C([H])([H])C([H])([H])C([H])([H])C([H])(n2nc(-c3c([H])c([H])c(Oc4c([H])c([H])c(F)c([H])c4F)c([H])c3[H])c(C(=O)N([H])[H])c2N([H])[H])C1([H])[H])[N+]([H])([H])C([H])([H])C([H])([H])Oc1c([H])c([H])c2c(c1[H])C([H])([H])N(C(=O)C([H])(N([H])C(=O)C([H])(N([H])C([H])([H])[H])C([H])([H])[H])C(C([H])([H])[H])(C([H])([H])[H])C([H])([H])[H])C([H])(C(=O)N([H])C1([H])c3c([H])c([H])c([H])c([H])c3C([H])([H])C([H])([H])C1([H])[H])C2([H])[H]

$$$$
23:0:0
     RDKit          3D

 96103  0  0  1  0  0  0  0  0999 V2000
  -29.9900  -21.1890   24.3390 C   0  0  0  0  0  2  0  0  0  0  0  0
  -28.8350  -21.0690   22.1280 C   0  0  0  0  0  0  0  0  0  0  0  0
  -29.5130  -20.5210   23.1380 N   0  0  0  0  0  0  0  0  0  0  0  0
  -28.3890  -22.2180   22.1600 O   0  0  0  0  0  0  0  0  0  0  0  0
  -29.8120  -19.5690   22.9670 H   0  0  0  0  0  0  0  0  0  0  0  0
  -28.6740  -20.1900   20.8840 C   0  0  0  0  0  2  0  0  0  0  0  0
  -29.6280  -19.1320   20.9430 O   0  0  0  0  0  0  0  0  0  0  0  0
  -29.4440  -18.1480   19.9420 C   0  0  0  0  0  2  0  0  0  0  0  0
  -30.7690  -17.3900   19.8040 C   0  0  0  0  0  2  0  0  0  0  0  0
  -31.1650  -16.6090   21.0740 C   0  0  0  0  0  2  0  0  0  0  0  0
  -31.1260  -14.2690   20.2520 C   0  0  0  0  0  0  0  0  0  0  0  0
  -30.6670  -12.0960   19.1960 C   0  0  0  0  0  2  0  0  0  0  0  0
  -29.7520  -12.3050   17.9760 C   0  0  0  0  0  2  0  0  0  0  0  0
  -28.2720  -12.2730   18.3990 C   0  0  0  0  0  2  0  0  0  0  0  0
  -27.9760  -13.1960   19.6120 C   0  0  0  0  0  3  0  0  0  0  0  0
  -29.0110  -12.9810   20.7410 C   0  0  0  0  0  2  0  0  0  0  0  0
  -30.3630  -13.1500   20.1740 N   0  0  0  0  0  0  0  0  0  0  0  0
  -32.1710  -14.4250   19.6120 O   0  0  0  0  0  0  0  0  0  0  0  0
  -30.6520  -15.2380   21.0410 N   0  0  0  0  0  0  0  0  0  0  0  0
  -29.8320  -15.0220   21.5910 H   0  0  0  0  0  0  0  0  0  0  0  0
  -25.6180  -13.9680   20.3100 C   0  0  0  0  0  0  0  0  0  0  0  0
  -24.5060  -13.2730   20.7000 C   0  0  0  0  0  0  0  0  0  0  0  0
  -24.8750  -11.8930   20.6860 C   0  0  0  0  0  0  0  0  0  0  0  0
  -26.6060  -13.0180   20.0940 N   0  0  0  0  0  0  0  0  0  0  0  0
  -26.1600  -11.7650   20.3720 N   0  0  0  0  0  0  0  0  0  0  0  0
  -24.0690  -10.6840   20.8990 C   0  0  0  0  0  0  0  0  0  0  0  0
  -24.5270   -9.6260   21.7140 C   0  0  0  0  0  3  0  0  0  0  0  0
  -23.7260   -8.4810   21.9170 C   0  0  0  0  0  3  0  0  0  0  0  0
  -22.4540   -8.3860   21.3040 C   0  0  0  0  0  0  0  0  0  0  0  0
  -22.0120   -9.4330   20.4770 C   0  0  0  0  0  3  0  0  0  0  0  0
  -22.8120  -10.5700   20.2710 C   0  0  0  0  0  3  0  0  0  0  0  0
  -21.6180   -7.3020   21.4240 O   0  0  0  0  0  0  0  0  0  0  0  0
  -21.6440   -6.4900   22.5310 C   0  0  0  0  0  0  0  0  0  0  0  0
  -21.5080   -7.0100   23.8370 C   0  0  0  0  0  3  0  0  0  0  0  0
  -21.4700   -6.1370   24.9420 C   0  0  0  0  0  3  0  0  0  0  0  0
  -21.5600   -4.7460   24.7430 C   0  0  0  0  0  0  0  0  0  0  0  0
  -21.6880   -4.2260   23.4440 C   0  0  0  0  0  3  0  0  0  0  0  0
  -21.7280   -5.0980   22.3410 C   0  0  0  0  0  0  0  0  0  0  0  0
  -21.8330   -4.5910   21.0890 F   0  0  0  0  0  0  0  0  0  0  0  0
  -21.5160   -3.9050   25.8030 F   0  0  0  0  0  0  0  0  0  0  0  0
  -23.1440  -13.8430   20.9760 C   0  0  0  0  0  0  0  0  0  0  0  0
  -22.3840  -13.2170   21.8670 N   0  0  0  0  0  0  0  0  0  0  0  0
  -22.7660  -14.8830   20.4360 O   0  0  0  0  0  0  0  0  0  0  0  0
  -22.7010  -12.3770   22.3270 H   0  0  0  0  0  0  0  0  0  0  0  0
  -21.4720  -13.5840   22.0970 H   0  0  0  0  0  0  0  0  0  0  0  0
  -25.8710  -15.3210   20.1030 N   0  0  0  0  0  0  0  0  0  0  0  0
  -25.1390  -16.0200   20.1650 H   0  0  0  0  0  0  0  0  0  0  0  0
  -26.7300  -15.6770   19.7040 H   0  0  0  0  0  0  0  0  0  0  0  0
  -31.4980  -21.4750   24.2410 C   0  0  0  0  0  2  0  0  0  0  0  0
  -31.8010  -22.2360   23.0770 O   0  0  0  0  0  0  0  0  0  0  0  0
  -31.7180  -21.5150   21.8520 C   0  0  0  0  0  2  0  0  0  0  0  0
  -31.6010  -22.5170   20.7000 C   0  0  0  0  0  2  0  0  0  0  0  0
  -30.3180  -23.1390   20.6910 O   0  0  0  0  0  0  0  0  0  0  0  0
  -30.3600  -24.4010   20.0330 C   0  0  0  0  0  2  0  0  0  0  0  0
  -28.9640  -25.0070   19.8360 C   0  0  0  0  0  2  0  0  0  0  0  0
  -29.1120  -26.4180   19.6880 O   0  0  0  0  0  0  0  0  0  0  0  0
  -25.4300  -31.0690   23.5760 C   0  0  0  0  0  0  0  0  0  0  0  0
  -27.9630  -27.1660   19.7830 C   0  0  0  0  0  0  0  0  0  0  0  0
  -24.2200  -30.0850   21.6560 C   0  0  0  0  0  3  0  0  0  0  0  0
  -25.6450  -28.7620   20.0080 C   0  0  0  0  0  0  0  0  0  0  0  0
  -26.7620  -30.3340   21.6000 C   0  0  0  0  0  2  0  0  0  0  0  0
  -26.8030  -29.1050   20.7160 C   0  0  0  0  0  0  0  0  0  0  0  0
  -27.9680  -28.3170   20.5970 C   0  0  0  0  0  3  0  0  0  0  0  0
  -26.7870  -26.8260   19.0760 C   0  0  0  0  0  3  0  0  0  0  0  0
  -25.6300  -27.6220   19.1850 C   0  0  0  0  0  3  0  0  0  0  0  0
  -24.4510  -29.6710   20.1770 C   0  0  0  0  0  2  0  0  0  0  0  0
  -25.4880  -30.4970   22.3380 N   0  0  0  0  0  0  0  0  0  0  0  0
  -24.3440  -31.2920   24.1280 O   0  0  0  0  0  0  0  0  0  0  0  0
  -23.4800  -28.9370   22.3790 C   0  0  0  0  0  0  0  0  0  0  0  0
  -22.1510  -28.8720   22.1930 N   0  0  0  0  0  0  0  0  0  0  0  0
  -24.1000  -28.1160   23.0610 O   0  0  0  0  0  0  0  0  0  0  0  0
  -21.7130  -29.5870   21.6290 H   0  0  0  0  0  0  0  0  0  0  0  0
  -18.6990  -27.8220   22.3640 C   0  0  0  0  0  0  0  0  0  0  0  0
  -21.2550  -27.8540   22.7430 C   0  0  0  0  0  3  0  0  0  0  0  0
  -21.2940  -26.5590   21.8980 C   0  0  0  0  0  2  0  0  0  0  0  0
  -20.2130  -26.5140   20.8130 C   0  0  0  0  0  2  0  0  0  0  0  0
  -18.8210  -26.6210   21.4410 C   0  0  0  0  0  2  0  0  0  0  0  0
  -19.8460  -28.4100   22.9630 C   0  0  0  0  0  0  0  0  0  0  0  0
  -19.6820  -29.5460   23.7840 C   0  0  0  0  0  3  0  0  0  0  0  0
  -18.4050  -30.0900   24.0160 C   0  0  0  0  0  3  0  0  0  0  0  0
  -17.2730  -29.4970   23.4300 C   0  0  0  0  0  3  0  0  0  0  0  0
  -17.4210  -28.3630   22.6120 C   0  0  0  0  0  3  0  0  0  0  0  0
  -26.7220  -31.4920   24.3430 C   0  0  0  0  0  3  0  0  0  0  0  0
  -26.4900  -32.8370   24.8880 N   0  0  0  0  0  0  0  0  0  0  0  0
  -26.9630  -33.9670   24.3450 C   0  0  0  0  0  0  0  0  0  0  0  0
  -27.7070  -33.9770   23.3600 O   0  0  0  0  0  0  0  0  0  0  0  0
  -25.8460  -32.9080   25.6610 H   0  0  0  0  0  0  0  0  0  0  0  0
  -25.4100  -35.9390   24.1770 C   0  0  0  0  0  1  0  0  0  0  0  0
  -26.5400  -35.2990   24.9970 C   0  0  0  0  0  3  0  0  0  0  0  0
  -28.6610  -35.8320   26.1150 C   0  0  0  0  0  1  0  0  0  0  0  0
  -27.6550  -36.2610   25.1480 N   0  0  0  0  0  0  0  0  0  0  0  0
  -27.3070  -37.1730   25.4330 H   0  0  0  0  0  0  0  0  0  0  0  0
  -27.1210  -30.4850   25.4910 C   0  0  1  0  0  0  0  0  0  0  0  0
  -25.9580  -30.1410   26.4490 C   0  0  0  0  0  1  0  0  0  0  0  0
  -27.6470  -29.1610   24.8900 C   0  0  0  0  0  1  0  0  0  0  0  0
  -28.2700  -31.0820   26.3380 C   0  0  0  0  0  1  0  0  0  0  0  0
  2  4  2  0
  2  3  1  0
  3  1  1  0
  5  3  1  0
  6  7  1  0
  6  2  1  0
  8  7  1  0
  9  8  1  0
  9 10  1  0
 11 19  1  0
 12 17  1  0
 13 14  1  0
 13 12  1  0
 15 14  1  0
 15 24  1  0
 15 16  1  0
 17 11  1  0
 17 16  1  0
 18 11  2  0
 19 10  1  0
 19 20  1  0
 21 22  2  0
 22 41  1  0
 23 22  1  0
 23 26  1  0
 24 21  1  0
 24 25  1  0
 25 23  2  0
 26 27  1  0
 27 28  2  0
 29 32  1  0
 29 28  1  0
 30 29  2  0
 31 30  1  0
 31 26  2  0
 32 33  1  0
 33 34  1  0
 34 35  2  0
 36 35  1  0
 36 40  1  0
 37 36  2  0
 38 33  2  0
 38 37  1  0
 39 38  1  0
 41 42  1  0
 42 45  1  0
 42 44  1  0
 43 41  2  0
 46 47  1  0
 46 21  1  0
 48 46  1  0
 49  1  1  0
 50 49  1  0
 51 50  1  0
 52 51  1  0
 53 52  1  0
 54 53  1  0
 55 54  1  0
 56 58  1  0
 56 55  1  0
 57 68  2  0
 58 63  1  0
 59 67  1  0
 59 69  1  0
 60 66  1  0
 60 62  1  0
 61 67  1  0
 62 61  1  0
 63 62  2  0
 64 65  1  0
 64 58  2  0
 65 60  2  0
 66 59  1  0
 67 57  1  0
 69 71  2  0
 70 69  1  0
 72 70  1  0
 73 82  2  0
 73 78  1  0
 74 70  1  0
 74 78  1  0
 75 74  1  0
 76 77  1  0
 76 75  1  0
 77 73  1  0
 78 79  2  0
 79 80  1  0
 81 80  2  0
 82 81  1  0
 83 57  1  0
 83 84  1  0
 83 93  1  0
 84 87  1  0
 85 84  1  0
 85 89  1  0
 86 85  2  0
 89 88  1  0
 89 91  1  0
 91 92  1  0
 91 90  1  0
 93 96  1  1
 93 94  1  0
 95 93  1  0
M  ISO  4  11 100  19 100  55 101  56 101
M  END
>  <TORSDO>  (24) 
F 29

>  <SCORE>  (24) 
-8.428

>  <name>  (24) 
23

>  <ligand_id>  (24) 
23

>  <original_smiles>  (24) 
[H]c1c([H])c([H])c2c(c1[H])C([H])([H])C([H])([H])C([H])([H])C2([H])N([H])C(=O)C1([H])N(C(=O)C([H])(N([H])C(=O)C([H])(N([H])C([H])([H])[H])C([H])([H])[H])C(C([H])([H])[H])(C([H])([H])[H])C([H])([H])[H])C([H])([H])c2c([H])c(OC([H])([H])C([H])([H])OC([H])([H])C([H])([H])OC([H])([H])C([H])([H])N([H])C(=O)C([H])([H])OC([H])([H])C([H])([H])C([H])([H])N([H])C(=O)N3C([H])([H])C([H])([H])C([H])([H])C([H])(n4nc(-c5c([H])c([H])c(Oc6c([H])c([H])c(F)c([H])c6F)c([H])c5[H])c(C(=O)N([H])[H])c4N([H])[H])C3([H])[H])c([H])c([H])c2C1([H])[H]

>  <smiles>  (24) 
[H]c1c([H])c([H])c2c(c1[H])C([H])([H])C([H])([H])C([H])([H])C2([H])N([H])C(=O)C1([H])N(C(=O)C([H])(N([H])C(=O)C([H])(N([H])C([H])([H])[H])C([H])([H])[H])C(C([H])([H])[H])(C([H])([H])[H])C([H])([H])[H])C([H])([H])c2c([H])c(OC([H])([H])C([H])([H])OC([H])([H])C([H])([H])OC([H])([H])C([H])([H])N([H])C(=O)C([H])([H])OC([H])([H])C([H])([H])C([H])([H])N([H])C(=O)N3C([H])([H])C([H])([H])C([H])([H])C([H])(n4nc(-c5c([H])c([H])c(Oc6c([H])c([H])c(F)c([H])c6F)c([H])c5[H])c(C(=O)N([H])[H])c4N([H])[H])C3([H])[H])c([H])c([H])c2C1([H])[H]

$$$$
24:0:0
     RDKit          3D

 99106  0  0  1  0  0  0  0  0999 V2000
  -28.8730  -21.8740   19.7790 C   0  0  0  0  0  3  0  0  0  0  0  0
  -29.5730  -19.1960   19.9770 C   0  0  0  0  0  0  0  0  0  0  0  0
  -29.3270  -20.5150   20.4770 N   0  0  0  0  0  0  0  0  0  0  0  0
  -29.4760  -19.0220   18.7610 O   0  0  0  0  0  0  0  0  0  0  0  0
  -29.3870  -20.5890   21.4830 H   0  0  0  0  0  0  0  0  0  0  0  0
  -29.9660  -17.8340   20.8640 C   0  0  0  0  0  0  0  0  0  0  0  0
  -30.5890  -15.1730   20.1590 C   0  0  0  0  0  0  0  0  0  0  0  0
  -30.4650  -12.8510   19.1280 C   0  0  0  0  0  2  0  0  0  0  0  0
  -29.4710  -12.8140   17.9430 C   0  0  0  0  0  2  0  0  0  0  0  0
  -28.0330  -12.5750   18.4430 C   0  0  0  0  0  2  0  0  0  0  0  0
  -27.6720  -13.4650   19.6590 C   0  0  0  0  0  3  0  0  0  0  0  0
  -28.7810  -13.4530   20.7330 C   0  0  0  0  0  2  0  0  0  0  0  0
  -30.0110  -13.9080   20.0750 N   0  0  0  0  0  0  0  0  0  0  0  0
  -31.7760  -15.2700   19.8350 O   0  0  0  0  0  0  0  0  0  0  0  0
  -29.7830  -16.3030   20.4700 N   0  0  0  0  0  4  0  0  0  0  0  0
  -28.8180  -16.0310   20.5610 H   0  0  0  0  0  0  0  0  0  0  0  0
  -25.3260  -14.0060   20.5260 C   0  0  0  0  0  0  0  0  0  0  0  0
  -24.2830  -13.2110   20.9200 C   0  0  0  0  0  0  0  0  0  0  0  0
  -24.7530  -11.8650   20.8230 C   0  0  0  0  0  0  0  0  0  0  0  0
  -26.3600  -13.1410   20.2090 N   0  0  0  0  0  0  0  0  0  0  0  0
  -26.0290  -11.8480   20.4540 N   0  0  0  0  0  0  0  0  0  0  0  0
  -24.0430  -10.5920   21.0020 C   0  0  0  0  0  0  0  0  0  0  0  0
  -24.4910   -9.6190   21.9230 C   0  0  0  0  0  3  0  0  0  0  0  0
  -23.7780   -8.4130   22.0930 C   0  0  0  0  0  3  0  0  0  0  0  0
  -22.6030   -8.1700   21.3400 C   0  0  0  0  0  0  0  0  0  0  0  0
  -22.1750   -9.1320   20.4090 C   0  0  0  0  0  3  0  0  0  0  0  0
  -22.8880  -10.3300   20.2380 C   0  0  0  0  0  3  0  0  0  0  0  0
  -21.8600   -7.0160   21.4210 O   0  0  0  0  0  0  0  0  0  0  0  0
  -21.7920   -6.2830   22.5790 C   0  0  0  0  0  0  0  0  0  0  0  0
  -21.3240   -6.8440   23.7880 C   0  0  0  0  0  3  0  0  0  0  0  0
  -21.2040   -6.0370   24.9370 C   0  0  0  0  0  3  0  0  0  0  0  0
  -21.5380   -4.6710   24.8770 C   0  0  0  0  0  0  0  0  0  0  0  0
  -21.9990   -4.1100   23.6740 C   0  0  0  0  0  3  0  0  0  0  0  0
  -22.1220   -4.9140   22.5260 C   0  0  0  0  0  0  0  0  0  0  0  0
  -22.5450   -4.3650   21.3630 F   0  0  0  0  0  0  0  0  0  0  0  0
  -21.4160   -3.8940   25.9790 F   0  0  0  0  0  0  0  0  0  0  0  0
  -22.8970  -13.6690   21.2660 C   0  0  0  0  0  0  0  0  0  0  0  0
  -22.2210  -12.9530   22.1570 N   0  0  0  0  0  0  0  0  0  0  0  0
  -22.4240  -14.6980   20.7840 O   0  0  0  0  0  0  0  0  0  0  0  0
  -22.6200  -12.1220   22.5710 H   0  0  0  0  0  0  0  0  0  0  0  0
  -21.2910  -13.2380   22.4300 H   0  0  0  0  0  0  0  0  0  0  0  0
  -25.4700  -15.3820   20.3840 N   0  0  0  0  0  0  0  0  0  0  0  0
  -24.6960  -16.0180   20.5380 H   0  0  0  0  0  0  0  0  0  0  0  0
  -26.2760  -15.8350   19.9720 H   0  0  0  0  0  0  0  0  0  0  0  0
  -31.0710  -19.0750   22.8860 C   0  0  0  0  0  1  0  0  0  0  0  0
  -31.1830  -17.9610   21.8330 C   0  0  0  0  0  3  0  0  0  0  0  0
  -32.4180  -18.1060   21.1510 O   0  0  0  0  0  0  0  0  0  0  0  0
  -32.4110  -18.9280   20.6690 H   0  0  0  0  0  0  0  0  0  0  0  0
  -29.0150  -23.4390   20.4310 C   0  0  0  0  0  3  0  0  0  0  0  0
  -28.2460  -24.8330   19.8390 C   0  0  0  0  0  3  0  0  0  0  0  0
  -28.4050  -26.3340   20.2570 O   0  0  0  0  0  0  0  0  0  0  0  0
  -24.6700  -31.9460   23.2480 C   0  0  0  0  0  0  0  0  0  0  0  0
  -27.3370  -27.3070   20.1690 C   0  0  0  0  0  0  0  0  0  0  0  0
  -23.4990  -30.5530   21.5840 C   0  0  0  0  0  3  0  0  0  0  0  0
  -24.9800  -29.0200   20.1450 C   0  0  0  0  0  0  0  0  0  0  0  0
  -26.0490  -30.8560   21.4370 C   0  0  0  0  0  2  0  0  0  0  0  0
  -26.1480  -29.4740   20.7680 C   0  0  0  0  0  0  0  0  0  0  0  0
  -27.3240  -28.6340   20.7650 C   0  0  0  0  0  3  0  0  0  0  0  0
  -26.1440  -26.9650   19.4920 C   0  0  0  0  0  3  0  0  0  0  0  0
  -24.9920  -27.7800   19.4900 C   0  0  0  0  0  3  0  0  0  0  0  0
  -23.7360  -29.8960   20.1980 C   0  0  0  0  0  2  0  0  0  0  0  0
  -24.7590  -31.1400   22.1440 N   0  0  0  0  0  0  0  0  0  0  0  0
  -23.5760  -32.2060   23.7740 O   0  0  0  0  0  0  0  0  0  0  0  0
  -22.8310  -29.5230   22.5310 C   0  0  0  0  0  0  0  0  0  0  0  0
  -21.5050  -29.3370   22.3960 N   0  0  0  0  0  0  0  0  0  0  0  0
  -23.5080  -28.8950   23.3510 O   0  0  0  0  0  0  0  0  0  0  0  0
  -21.0200  -29.8920   21.7050 H   0  0  0  0  0  0  0  0  0  0  0  0
  -18.1350  -28.1010   22.8950 C   0  0  0  0  0  0  0  0  0  0  0  0
  -20.6930  -28.3780   23.1490 C   0  0  0  0  0  3  0  0  0  0  0  0
  -20.8020  -26.9610   22.5430 C   0  0  0  0  0  2  0  0  0  0  0  0
  -19.6920  -26.6490   21.5350 C   0  0  0  0  0  2  0  0  0  0  0  0
  -18.3190  -26.7650   22.1970 C   0  0  0  0  0  2  0  0  0  0  0  0
  -19.2510  -28.8660   23.3300 C   0  0  0  0  0  0  0  0  0  0  0  0
  -19.0250  -30.1140   23.9510 C   0  0  0  0  0  3  0  0  0  0  0  0
  -17.7170  -30.5980   24.1380 C   0  0  0  0  0  3  0  0  0  0  0  0
  -16.6160  -29.8320   23.7150 C   0  0  0  0  0  3  0  0  0  0  0  0
  -16.8260  -28.5850   23.0990 C   0  0  0  0  0  3  0  0  0  0  0  0
  -25.9340  -32.5930   23.8890 C   0  0  0  0  0  3  0  0  0  0  0  0
  -25.6070  -33.9920   24.2090 N   0  0  0  0  0  0  0  0  0  0  0  0
  -25.9320  -35.0470   23.4480 C   0  0  0  0  0  0  0  0  0  0  0  0
  -26.6050  -34.9430   22.4200 O   0  0  0  0  0  0  0  0  0  0  0  0
  -25.0060  -34.1470   25.0060 H   0  0  0  0  0  0  0  0  0  0  0  0
  -24.1830  -36.8240   23.0920 C   0  0  0  0  0  1  0  0  0  0  0  0
  -25.4340  -36.4340   23.8990 C   0  0  0  0  0  3  0  0  0  0  0  0
  -27.5640  -37.3510   24.7110 C   0  0  0  0  0  1  0  0  0  0  0  0
  -26.4550  -37.4980   23.7720 N   0  0  0  0  0  0  0  0  0  0  0  0
  -26.0390  -38.4150   23.9120 H   0  0  0  0  0  0  0  0  0  0  0  0
  -26.4270  -31.8380   25.1850 C   0  0  1  0  0  0  0  0  0  0  0  0
  -25.3140  -31.6060   26.2340 C   0  0  0  0  0  1  0  0  0  0  0  0
  -27.0260  -30.4590   24.8240 C   0  0  0  0  0  1  0  0  0  0  0  0
  -27.5570  -32.6470   25.8640 C   0  0  0  0  0  1  0  0  0  0  0  0
  -27.4320  -21.7160   19.2580 C   0  0  0  0  0  2  0  0  0  0  0  0
  -26.5320  -22.2850   20.2030 O   0  0  0  0  0  0  0  0  0  0  0  0
  -25.6420  -23.2490   19.6530 C   0  0  0  0  0  2  0  0  0  0  0  0
  -24.5520  -22.5780   18.8010 C   0  0  0  0  0  2  0  0  0  0  0  0
  -23.8820  -24.2360   17.0980 C   0  0  0  0  0  3  0  0  0  0  0  0
  -22.3850  -23.7710   18.9810 C   0  0  0  0  0  1  0  0  0  0  0  0
  -23.6250  -23.5630   18.2360 N   0  0  0  0  0  0  0  0  0  0  0  0
  -24.9170  -24.1060   16.4370 O   0  0  0  0  0  0  0  0  0  0  0  0
  1 92  1  0
  1 49  1  0
  1  3  1  0
  2  3  1  0
  2  6  1  0
  3  5  1  0
  4  2  2  0
  6 46  1  0
  7 15  1  0
  8 13  1  0
  9 10  1  0
  9  8  1  0
 11 10  1  0
 11 20  1  0
 11 12  1  0
 13  7  1  0
 13 12  1  0
 14  7  2  0
 15 16  1  0
 15  6  2  0
 17 18  2  0
 18 37  1  0
 19 18  1  0
 19 22  1  0
 20 21  1  0
 20 17  1  0
 21 19  2  0
 22 23  1  0
 23 24  2  0
 25 28  1  0
 25 24  1  0
 26 25  2  0
 27 26  1  0
 27 22  2  0
 28 29  1  0
 29 30  1  0
 30 31  2  0
 32 31  1  0
 32 36  1  0
 33 32  2  0
 34 29  2  0
 34 33  1  0
 35 34  1  0
 37 38  1  0
 38 41  1  0
 38 40  1  0
 39 37  2  0
 42 17  1  0
 42 43  1  0
 44 42  1  0
 46 45  1  0
 47 46  1  0
 48 47  1  0
 50 51  1  0
 50 49  2  0
 52 63  2  0
 53 51  1  0
 53 58  1  0
 54 62  1  0
 54 64  1  0
 55 61  1  0
 55 57  1  0
 56 62  1  0
 57 56  1  0
 58 57  2  0
 59 53  2  0
 60 59  1  0
 60 55  2  0
 61 54  1  0
 62 52  1  0
 64 66  2  0
 65 64  1  0
 67 65  1  0
 68 77  2  0
 68 73  1  0
 69 65  1  0
 69 73  1  0
 70 69  1  0
 71 72  1  0
 71 70  1  0
 72 68  1  0
 73 74  2  0
 74 75  1  0
 76 75  2  0
 77 76  1  0
 78 52  1  0
 78 79  1  0
 78 88  1  0
 79 82  1  0
 80 84  1  0
 80 79  1  0
 81 80  2  0
 84 83  1  0
 86 84  1  0
 86 87  1  0
 86 85  1  0
 88 91  1  1
 88 89  1  0
 90 88  1  0
 92 93  1  0
 94 93  1  0
 95 94  1  0
 96 98  1  0
 98 95  1  0
 98 97  1  0
 99 96  2  0
M  ISO  4   7 100  15 100  50 101  51 101
M  END
>  <TORSDO>  (25) 
F 27

>  <SCORE>  (25) 
-12.868

>  <name>  (25) 
24

>  <ligand_id>  (25) 
24

>  <original_smiles>  (25) 
[H]OC([H])(C([H])([H])[H])C([H])(C(=O)N([H])C([H])(C([H])([H])OC([H])([H])C([H])([H])N(C([H])=O)C([H])([H])[H])C([H])([H])C([H])([H])Oc1c([H])c([H])c2c(c1[H])C([H])([H])N(C(=O)C([H])(N([H])C(=O)C([H])(N([H])C([H])([H])[H])C([H])([H])[H])C(C([H])([H])[H])(C([H])([H])[H])C([H])([H])[H])C([H])(C(=O)N([H])C1([H])c3c([H])c([H])c([H])c([H])c3C([H])([H])C([H])([H])C1([H])[H])C2([H])[H])N([H])C(=O)N1C([H])([H])C([H])([H])C([H])([H])C([H])(n2nc(-c3c([H])c([H])c(Oc4c([H])c([H])c(F)c([H])c4F)c([H])c3[H])c(C(=O)N([H])[H])c2N([H])[H])C1([H])[H]

>  <smiles>  (25) 
[H]OC([H])(C([H])([H])[H])C([H])(C(=O)N([H])C([H])(C([H])([H])OC([H])([H])C([H])([H])N(C([H])=O)C([H])([H])[H])C([H])([H])C([H])([H])Oc1c([H])c([H])c2c(c1[H])C([H])([H])N(C(=O)C([H])(N([H])C(=O)C([H])(N([H])C([H])([H])[H])C([H])([H])[H])C(C([H])([H])[H])(C([H])([H])[H])C([H])([H])[H])C([H])(C(=O)N([H])C1([H])c3c([H])c([H])c([H])c([H])c3C([H])([H])C([H])([H])C1([H])[H])C2([H])[H])N([H])C(=O)N1C([H])([H])C([H])([H])C([H])([H])C([H])(n2nc(-c3c([H])c([H])c(Oc4c([H])c([H])c(F)c([H])c4F)c([H])c3[H])c(C(=O)N([H])[H])c2N([H])[H])C1([H])[H]

$$$$
25:0:0
     RDKit          3D

 97104  0  0  1  0  0  0  0  0999 V2000
  -29.1960  -18.9100   22.4060 C   0  0  0  0  0  2  0  0  0  0  0  0
  -30.9010  -17.2050   21.7630 C   0  0  0  0  0  0  0  0  0  0  0  0
  -29.8470  -17.9880   21.4790 N   0  0  0  0  0  0  0  0  0  0  0  0
  -31.3290  -17.0900   22.9140 O   0  0  0  0  0  0  0  0  0  0  0  0
  -29.5520  -18.0380   20.5090 H   0  0  0  0  0  0  0  0  0  0  0  0
  -31.5610  -16.3960   20.6200 C   0  0  0  0  0  3  0  0  0  0  0  0
  -31.5270  -13.9990   20.0240 C   0  0  0  0  0  0  0  0  0  0  0  0
  -30.9100  -11.9430   18.8270 C   0  0  0  0  0  2  0  0  0  0  0  0
  -29.9270  -12.2980   17.6930 C   0  0  0  0  0  2  0  0  0  0  0  0
  -28.4740  -12.3260   18.2120 C   0  0  0  0  0  2  0  0  0  0  0  0
  -28.3170  -13.1530   19.5180 C   0  0  0  0  0  3  0  0  0  0  0  0
  -29.4000  -12.7630   20.5500 C   0  0  0  0  0  2  0  0  0  0  0  0
  -30.7150  -12.9210   19.9060 N   0  0  0  0  0  0  0  0  0  0  0  0
  -32.6530  -14.0590   19.5230 O   0  0  0  0  0  0  0  0  0  0  0  0
  -30.9330  -15.0870   20.5140 N   0  0  0  0  0  0  0  0  0  0  0  0
  -29.9770  -15.0140   20.8200 H   0  0  0  0  0  0  0  0  0  0  0  0
  -26.0580  -14.0150   20.4010 C   0  0  0  0  0  0  0  0  0  0  0  0
  -24.9320  -13.3600   20.8230 C   0  0  0  0  0  0  0  0  0  0  0  0
  -25.2240  -11.9660   20.7210 C   0  0  0  0  0  0  0  0  0  0  0  0
  -26.9720  -13.0250   20.0760 N   0  0  0  0  0  0  0  0  0  0  0  0
  -26.4770  -11.7860   20.3230 N   0  0  0  0  0  0  0  0  0  0  0  0
  -24.3660  -10.7920   20.9230 C   0  0  0  0  0  0  0  0  0  0  0  0
  -24.7440   -9.7410   21.7870 C   0  0  0  0  0  3  0  0  0  0  0  0
  -23.8940   -8.6290   21.9770 C   0  0  0  0  0  3  0  0  0  0  0  0
  -22.6520   -8.5630   21.3040 C   0  0  0  0  0  0  0  0  0  0  0  0
  -22.2900   -9.6000   20.4280 C   0  0  0  0  0  3  0  0  0  0  0  0
  -23.1380  -10.7040   20.2360 C   0  0  0  0  0  3  0  0  0  0  0  0
  -21.7760   -7.5100   21.4070 O   0  0  0  0  0  0  0  0  0  0  0  0
  -21.7070   -6.7390   22.5400 C   0  0  0  0  0  0  0  0  0  0  0  0
  -21.4350   -7.2980   23.8080 C   0  0  0  0  0  3  0  0  0  0  0  0
  -21.3040   -6.4610   24.9340 C   0  0  0  0  0  3  0  0  0  0  0  0
  -21.4360   -5.0660   24.7930 C   0  0  0  0  0  0  0  0  0  0  0  0
  -21.7020   -4.5070   23.5310 C   0  0  0  0  0  3  0  0  0  0  0  0
  -21.8330   -5.3410   22.4090 C   0  0  0  0  0  0  0  0  0  0  0  0
  -22.0680   -4.7960   21.1900 F   0  0  0  0  0  0  0  0  0  0  0  0
  -21.3040   -4.2610   25.8730 F   0  0  0  0  0  0  0  0  0  0  0  0
  -23.6210  -13.9870   21.2040 C   0  0  0  0  0  0  0  0  0  0  0  0
  -22.8930  -13.3690   22.1260 N   0  0  0  0  0  0  0  0  0  0  0  0
  -23.2580  -15.0590   20.7200 O   0  0  0  0  0  0  0  0  0  0  0  0
  -23.2000  -12.5030   22.5420 H   0  0  0  0  0  0  0  0  0  0  0  0
  -22.0160  -13.7720   22.4260 H   0  0  0  0  0  0  0  0  0  0  0  0
  -26.3740  -15.3620   20.2480 N   0  0  0  0  0  0  0  0  0  0  0  0
  -25.6880  -16.0920   20.4050 H   0  0  0  0  0  0  0  0  0  0  0  0
  -27.2160  -15.7040   19.8020 H   0  0  0  0  0  0  0  0  0  0  0  0
  -31.4020  -17.1180   19.2660 C   0  0  0  0  0  0  0  0  0  0  0  0
  -32.4810  -17.6710   18.7240 N   0  0  0  0  0  0  0  0  0  0  0  0
  -30.3210  -17.1300   18.6760 O   0  0  0  0  0  0  0  0  0  0  0  0
  -33.3760  -17.6380   19.1960 H   0  0  0  0  0  0  0  0  0  0  0  0
  -32.4250  -18.1040   17.8140 H   0  0  0  0  0  0  0  0  0  0  0  0
  -28.7680  -20.1930   21.6790 C   0  0  0  0  0  2  0  0  0  0  0  0
  -29.9180  -20.9670   21.3580 O   0  0  0  0  0  0  0  0  0  0  0  0
  -29.6000  -22.1290   20.6000 C   0  0  0  0  0  2  0  0  0  0  0  0
  -30.8690  -22.9580   20.3480 C   0  0  0  0  0  2  0  0  0  0  0  0
  -31.0360  -23.9670   21.3390 O   0  0  0  0  0  0  0  0  0  0  0  0
  -31.9520  -24.9810   20.9150 C   0  0  0  0  0  2  0  0  0  0  0  0
  -31.8260  -26.2660   21.7790 C   0  0  0  0  0  2  0  0  0  0  0  0
  -31.4260  -27.6240   21.4740 O   0  0  0  0  0  0  0  0  0  0  0  0
  -25.8290  -31.2770   23.8490 C   0  0  0  0  0  0  0  0  0  0  0  0
  -30.1090  -27.9730   21.2460 C   0  0  0  0  0  0  0  0  0  0  0  0
  -25.3820  -29.7760   21.9310 C   0  0  0  0  0  3  0  0  0  0  0  0
  -27.4440  -28.7920   20.7940 C   0  0  0  0  0  0  0  0  0  0  0  0
  -27.7020  -30.7840   22.2850 C   0  0  0  0  0  2  0  0  0  0  0  0
  -28.2740  -29.5420   21.6360 C   0  0  0  0  0  0  0  0  0  0  0  0
  -29.6070  -29.1390   21.8580 C   0  0  0  0  0  3  0  0  0  0  0  0
  -29.2680  -27.2320   20.3860 C   0  0  0  0  0  3  0  0  0  0  0  0
  -27.9370  -27.6360   20.1630 C   0  0  0  0  0  3  0  0  0  0  0  0
  -26.0310  -29.2970   20.6030 C   0  0  0  0  0  2  0  0  0  0  0  0
  -26.3070  -30.6250   22.7510 N   0  0  0  0  0  0  0  0  0  0  0  0
  -24.6320  -31.2140   24.1620 O   0  0  0  0  0  0  0  0  0  0  0  0
  -24.8540  -28.5390   22.6910 C   0  0  0  0  0  0  0  0  0  0  0  0
  -23.6890  -28.0260   22.2650 N   0  0  0  0  0  0  0  0  0  0  0  0
  -25.4970  -28.0470   23.6240 O   0  0  0  0  0  0  0  0  0  0  0  0
  -23.2170  -28.4970   21.5070 H   0  0  0  0  0  0  0  0  0  0  0  0
  -20.7570  -25.9430   21.9380 C   0  0  0  0  0  0  0  0  0  0  0  0
  -23.0200  -26.8410   22.8030 C   0  0  0  0  0  3  0  0  0  0  0  0
  -23.6350  -25.5430   22.2320 C   0  0  0  0  0  2  0  0  0  0  0  0
  -22.9150  -25.0370   20.9790 C   0  0  0  0  0  2  0  0  0  0  0  0
  -21.4400  -24.7570   21.2780 C   0  0  0  0  0  2  0  0  0  0  0  0
  -21.4990  -26.9320   22.6350 C   0  0  0  0  0  0  0  0  0  0  0  0
  -20.8160  -28.0370   23.1870 C   0  0  0  0  0  3  0  0  0  0  0  0
  -19.4200  -28.1610   23.0540 C   0  0  0  0  0  3  0  0  0  0  0  0
  -18.6890  -27.1680   22.3800 C   0  0  0  0  0  3  0  0  0  0  0  0
  -19.3560  -26.0620   21.8270 C   0  0  0  0  0  3  0  0  0  0  0  0
  -26.7560  -32.1490   24.7520 C   0  0  0  0  0  3  0  0  0  0  0  0
  -27.0040  -31.5210   26.1790 C   0  0  1  0  0  0  0  0  0  0  0  0
  -25.7080  -31.1190   26.9200 C   0  0  0  0  0  1  0  0  0  0  0  0
  -27.8950  -30.2610   26.0700 C   0  0  0  0  0  1  0  0  0  0  0  0
  -27.7690  -32.5280   27.0700 C   0  0  0  0  0  1  0  0  0  0  0  0
  -26.1400  -33.4770   24.8670 N   0  0  0  0  0  0  0  0  0  0  0  0
  -26.5030  -34.5460   24.1460 C   0  0  0  0  0  0  0  0  0  0  0  0
  -27.4510  -34.5310   23.3560 O   0  0  0  0  0  0  0  0  0  0  0  0
  -25.3190  -33.5470   25.4530 H   0  0  0  0  0  0  0  0  0  0  0  0
  -24.6860  -35.9830   23.1650 C   0  0  0  0  0  1  0  0  0  0  0  0
  -25.6820  -35.8370   24.3250 C   0  0  0  0  0  3  0  0  0  0  0  0
  -27.3080  -37.1190   25.6450 C   0  0  0  0  0  1  0  0  0  0  0  0
  -26.5170  -37.0540   24.4200 N   0  0  0  0  0  0  0  0  0  0  0  0
  -25.9410  -37.8900   24.3710 H   0  0  0  0  0  0  0  0  0  0  0  0
  2  4  2  0
  3  2  1  0
  3  1  1  0
  5  3  1  0
  6 45  1  0
  6  2  1  0
  7 15  1  0
  8 13  1  0
  9 10  1  0
  9  8  1  0
 11 10  1  0
 11 20  1  0
 11 12  1  0
 13  7  1  0
 13 12  1  0
 14  7  2  0
 15  6  1  0
 15 16  1  0
 17 18  2  0
 18 37  1  0
 19 18  1  0
 19 22  1  0
 20 21  1  0
 20 17  1  0
 21 19  2  0
 22 23  1  0
 23 24  2  0
 25 28  1  0
 25 24  1  0
 26 25  2  0
 27 26  1  0
 27 22  2  0
 28 29  1  0
 29 30  1  0
 30 31  2  0
 32 31  1  0
 32 36  1  0
 33 32  2  0
 34 29  2  0
 34 33  1  0
 35 34  1  0
 37 38  1  0
 38 41  1  0
 38 40  1  0
 39 37  2  0
 42 17  1  0
 42 43  1  0
 44 42  1  0
 46 48  1  0
 46 45  1  0
 47 45  2  0
 49 46  1  0
 50  1  1  0
 51 50  1  0
 52 51  1  0
 53 52  1  0
 53 54  1  0
 55 54  1  0
 55 56  1  0
 57 56  1  0
 58 69  2  0
 59 57  1  0
 59 64  1  0
 60 70  1  0
 60 68  1  0
 61 63  1  0
 62 68  1  0
 63 64  2  0
 63 62  1  0
 65 59  2  0
 66 65  1  0
 66 61  2  0
 67 61  1  0
 67 60  1  0
 68 58  1  0
 70 72  2  0
 71 70  1  0
 73 71  1  0
 74 79  1  0
 75 71  1  0
 76 75  1  0
 77 78  1  0
 77 76  1  0
 78 74  1  0
 79 75  1  0
 79 80  2  0
 81 80  1  0
 82 81  2  0
 83 74  2  0
 83 82  1  0
 84 58  1  0
 84 89  1  0
 84 85  1  0
 85 86  1  1
 85 88  1  0
 87 85  1  0
 89 92  1  0
 90 94  1  0
 90 89  1  0
 91 90  2  0
 94 93  1  0
 94 96  1  0
 96 95  1  0
 97 96  1  0
M  ISO  4   7 100  15 100  56 101  57 101
M  END
>  <TORSDO>  (26) 
F 26

>  <SCORE>  (26) 
-6.073

>  <name>  (26) 
25

>  <ligand_id>  (26) 
25

>  <original_smiles>  (26) 
[H]c1c([H])c([H])c2c(c1[H])C([H])([H])C([H])([H])C([H])([H])C2([H])N([H])C(=O)C1([H])N(C(=O)C([H])(N([H])C(=O)C([H])(N([H])C([H])([H])[H])C([H])([H])[H])C(C([H])([H])[H])(C([H])([H])[H])C([H])([H])[H])C([H])([H])c2c([H])c(OC([H])([H])C([H])([H])OC([H])([H])C([H])([H])OC([H])([H])C([H])([H])N([H])C(=O)C([H])(C(=O)N([H])[H])N([H])C(=O)N3C([H])([H])C([H])([H])C([H])([H])C([H])(n4nc(-c5c([H])c([H])c(Oc6c([H])c([H])c(F)c([H])c6F)c([H])c5[H])c(C(=O)N([H])[H])c4N([H])[H])C3([H])[H])c([H])c([H])c2C1([H])[H]

>  <smiles>  (26) 
[H]c1c([H])c([H])c2c(c1[H])C([H])([H])C([H])([H])C([H])([H])C2([H])N([H])C(=O)C1([H])N(C(=O)C([H])(N([H])C(=O)C([H])(N([H])C([H])([H])[H])C([H])([H])[H])C(C([H])([H])[H])(C([H])([H])[H])C([H])([H])[H])C([H])([H])c2c([H])c(OC([H])([H])C([H])([H])OC([H])([H])C([H])([H])OC([H])([H])C([H])([H])N([H])C(=O)C([H])(C(=O)N([H])[H])N([H])C(=O)N3C([H])([H])C([H])([H])C([H])([H])C([H])(n4nc(-c5c([H])c([H])c(Oc6c([H])c([H])c(F)c([H])c6F)c([H])c5[H])c(C(=O)N([H])[H])c4N([H])[H])C3([H])[H])c([H])c([H])c2C1([H])[H]

$$$$
26:0:0
     RDKit          3D

 90 97  0  0  1  0  0  0  0  0999 V2000
  -29.1660  -20.5720   21.1000 C   0  0  0  0  0  2  0  0  0  0  0  0
  -29.4860  -18.1030   20.7590 C   0  0  0  0  0  0  0  0  0  0  0  0
  -29.9010  -19.3790   20.6540 N   0  0  0  0  0  0  0  0  0  0  0  0
  -28.4340  -17.7870   21.3180 O   0  0  0  0  0  0  0  0  0  0  0  0
  -30.7850  -19.5360   20.1880 H   0  0  0  0  0  0  0  0  0  0  0  0
  -30.3920  -17.2120   18.5580 C   0  0  0  0  0  1  0  0  0  0  0  0
  -30.3640  -17.0220   20.0940 C   0  0  0  0  0  3  0  0  0  0  0  0
  -30.6970  -14.5390   20.1720 C   0  0  0  0  0  0  0  0  0  0  0  0
  -30.3410  -12.3850   19.0480 C   0  0  0  0  0  2  0  0  0  0  0  0
  -29.3680  -12.6190   17.8720 C   0  0  0  0  0  2  0  0  0  0  0  0
  -27.9080  -12.4860   18.3450 C   0  0  0  0  0  2  0  0  0  0  0  0
  -27.6130  -13.2980   19.6340 C   0  0  0  0  0  3  0  0  0  0  0  0
  -28.7070  -13.0840   20.7090 C   0  0  0  0  0  2  0  0  0  0  0  0
  -30.0100  -13.3680   20.0910 N   0  0  0  0  0  0  0  0  0  0  0  0
  -31.8570  -14.6570   19.7720 O   0  0  0  0  0  0  0  0  0  0  0  0
  -29.9620  -15.6370   20.4330 N   0  0  0  0  0  0  0  0  0  0  0  0
  -29.0170  -15.5190   20.7670 H   0  0  0  0  0  0  0  0  0  0  0  0
  -25.2290  -13.8830   20.4010 C   0  0  0  0  0  0  0  0  0  0  0  0
  -24.1780  -13.1020   20.7990 C   0  0  0  0  0  0  0  0  0  0  0  0
  -24.6520  -11.7550   20.7650 C   0  0  0  0  0  0  0  0  0  0  0  0
  -26.2770  -13.0120   20.1500 N   0  0  0  0  0  0  0  0  0  0  0  0
  -25.9360  -11.7270   20.4270 N   0  0  0  0  0  0  0  0  0  0  0  0
  -23.9440  -10.4870   20.9790 C   0  0  0  0  0  0  0  0  0  0  0  0
  -24.4010   -9.5330   21.9140 C   0  0  0  0  0  3  0  0  0  0  0  0
  -23.6910   -8.3300   22.1130 C   0  0  0  0  0  3  0  0  0  0  0  0
  -22.5100   -8.0720   21.3780 C   0  0  0  0  0  0  0  0  0  0  0  0
  -22.0720   -9.0150   20.4320 C   0  0  0  0  0  3  0  0  0  0  0  0
  -22.7830  -10.2100   20.2310 C   0  0  0  0  0  3  0  0  0  0  0  0
  -21.7690   -6.9200   21.4880 O   0  0  0  0  0  0  0  0  0  0  0  0
  -21.7380   -6.1920   22.6510 C   0  0  0  0  0  0  0  0  0  0  0  0
  -21.3190   -6.7590   23.8740 C   0  0  0  0  0  3  0  0  0  0  0  0
  -21.2340   -5.9560   25.0290 C   0  0  0  0  0  3  0  0  0  0  0  0
  -21.5580   -4.5890   24.9630 C   0  0  0  0  0  0  0  0  0  0  0  0
  -21.9710   -4.0220   23.7450 C   0  0  0  0  0  3  0  0  0  0  0  0
  -22.0560   -4.8210   22.5910 C   0  0  0  0  0  0  0  0  0  0  0  0
  -22.4340   -4.2640   21.4140 F   0  0  0  0  0  0  0  0  0  0  0  0
  -21.4710   -3.8150   26.0700 F   0  0  0  0  0  0  0  0  0  0  0  0
  -22.7830  -13.5680   21.1020 C   0  0  0  0  0  0  0  0  0  0  0  0
  -22.0830  -12.8710   21.9900 N   0  0  0  0  0  0  0  0  0  0  0  0
  -22.3240  -14.5860   20.5870 O   0  0  0  0  0  0  0  0  0  0  0  0
  -22.4690  -12.0480   22.4300 H   0  0  0  0  0  0  0  0  0  0  0  0
  -21.1490  -13.1690   22.2360 H   0  0  0  0  0  0  0  0  0  0  0  0
  -25.3750  -15.2540   20.2150 N   0  0  0  0  0  0  0  0  0  0  0  0
  -24.6070  -15.9010   20.3540 H   0  0  0  0  0  0  0  0  0  0  0  0
  -26.2160  -15.7100   19.8840 H   0  0  0  0  0  0  0  0  0  0  0  0
  -29.7660  -21.8980   20.5540 C   0  0  0  0  0  2  0  0  0  0  0  0
  -28.9280  -23.0010   20.9160 O   0  0  0  0  0  0  0  0  0  0  0  0
  -29.3590  -24.3000   20.4720 C   0  0  0  0  0  2  0  0  0  0  0  0
  -28.1920  -25.2970   20.6800 C   0  0  0  0  0  2  0  0  0  0  0  0
  -28.4130  -26.6570   20.2300 O   0  0  0  0  0  0  0  0  0  0  0  0
  -24.6310  -31.9120   23.2590 C   0  0  0  0  0  0  0  0  0  0  0  0
  -27.2690  -27.4390   20.2000 C   0  0  0  0  0  0  0  0  0  0  0  0
  -23.4270  -30.5050   21.6220 C   0  0  0  0  0  3  0  0  0  0  0  0
  -24.8820  -28.9700   20.2010 C   0  0  0  0  0  0  0  0  0  0  0  0
  -25.9570  -30.8580   21.4300 C   0  0  0  0  0  2  0  0  0  0  0  0
  -26.0430  -29.4860   20.7910 C   0  0  0  0  0  0  0  0  0  0  0  0
  -27.2420  -28.7280   20.7870 C   0  0  0  0  0  3  0  0  0  0  0  0
  -26.0920  -26.9580   19.5810 C   0  0  0  0  0  3  0  0  0  0  0  0
  -24.9020  -27.7060   19.5940 C   0  0  0  0  0  3  0  0  0  0  0  0
  -23.6380  -29.8260   20.2440 C   0  0  0  0  0  2  0  0  0  0  0  0
  -24.6890  -31.1070   22.1610 N   0  0  0  0  0  0  0  0  0  0  0  0
  -23.5480  -32.1860   23.7970 O   0  0  0  0  0  0  0  0  0  0  0  0
  -22.7760  -29.4850   22.5830 C   0  0  0  0  0  0  0  0  0  0  0  0
  -21.4510  -29.3010   22.4570 N   0  0  0  0  0  0  0  0  0  0  0  0
  -23.4590  -28.8630   23.4010 O   0  0  0  0  0  0  0  0  0  0  0  0
  -20.9610  -29.8520   21.7660 H   0  0  0  0  0  0  0  0  0  0  0  0
  -18.0760  -28.1040   22.9550 C   0  0  0  0  0  0  0  0  0  0  0  0
  -20.6340  -28.3650   23.2310 C   0  0  0  0  0  3  0  0  0  0  0  0
  -20.7400  -26.9310   22.6620 C   0  0  0  0  0  2  0  0  0  0  0  0
  -19.6390  -26.6040   21.6480 C   0  0  0  0  0  2  0  0  0  0  0  0
  -18.2550  -26.7510   22.2880 C   0  0  0  0  0  2  0  0  0  0  0  0
  -19.1940  -28.8690   23.3830 C   0  0  0  0  0  0  0  0  0  0  0  0
  -18.9720  -30.1370   23.9650 C   0  0  0  0  0  3  0  0  0  0  0  0
  -17.6670  -30.6380   24.1250 C   0  0  0  0  0  3  0  0  0  0  0  0
  -16.5640  -29.8690   23.7140 C   0  0  0  0  0  3  0  0  0  0  0  0
  -16.7700  -28.6040   23.1340 C   0  0  0  0  0  3  0  0  0  0  0  0
  -25.9150  -32.5480   23.8740 C   0  0  0  0  0  3  0  0  0  0  0  0
  -25.6040  -33.9460   24.2020 N   0  0  0  0  0  0  0  0  0  0  0  0
  -25.9330  -34.9960   23.4380 C   0  0  0  0  0  0  0  0  0  0  0  0
  -26.6040  -34.8920   22.4070 O   0  0  0  0  0  0  0  0  0  0  0  0
  -25.0090  -34.1010   25.0030 H   0  0  0  0  0  0  0  0  0  0  0  0
  -24.2010  -36.7850   23.0770 C   0  0  0  0  0  1  0  0  0  0  0  0
  -25.4420  -36.3850   23.8920 C   0  0  0  0  0  3  0  0  0  0  0  0
  -27.5730  -37.2750   24.7250 C   0  0  0  0  0  1  0  0  0  0  0  0
  -26.4730  -37.4400   23.7790 N   0  0  0  0  0  0  0  0  0  0  0  0
  -26.0640  -38.3590   23.9260 H   0  0  0  0  0  0  0  0  0  0  0  0
  -26.4380  -31.7790   25.1500 C   0  0  1  0  0  0  0  0  0  0  0  0
  -25.3510  -31.5390   26.2220 C   0  0  0  0  0  1  0  0  0  0  0  0
  -27.0250  -30.4030   24.7580 C   0  0  0  0  0  1  0  0  0  0  0  0
  -27.5880  -32.5790   25.8080 C   0  0  0  0  0  1  0  0  0  0  0  0
  2  4  2  0
  3  2  1  0
  3  1  1  0
  5  3  1  0
  7  6  1  0
  7 16  1  0
  7  2  1  0
  8 16  1  0
  9 14  1  0
 10 11  1  0
 10  9  1  0
 12 11  1  0
 12 21  1  0
 12 13  1  0
 14  8  1  0
 14 13  1  0
 15  8  2  0
 16 17  1  0
 18 19  2  0
 19 38  1  0
 20 19  1  0
 20 23  1  0
 21 18  1  0
 21 22  1  0
 22 20  2  0
 23 24  1  0
 24 25  2  0
 26 29  1  0
 26 25  1  0
 27 26  2  0
 28 27  1  0
 28 23  2  0
 29 30  1  0
 30 31  1  0
 31 32  2  0
 33 32  1  0
 33 37  1  0
 34 33  2  0
 35 30  2  0
 35 34  1  0
 36 35  1  0
 38 39  1  0
 39 42  1  0
 39 41  1  0
 40 38  2  0
 43 44  1  0
 43 18  1  0
 45 43  1  0
 46 47  1  0
 46  1  1  0
 48 49  1  0
 48 47  1  0
 50 49  1  0
 51 62  2  0
 52 50  1  0
 52 57  1  0
 53 61  1  0
 53 63  1  0
 54 60  1  0
 54 56  1  0
 55 61  1  0
 56 55  1  0
 57 56  2  0
 58 59  1  0
 58 52  2  0
 59 54  2  0
 60 53  1  0
 61 51  1  0
 63 65  2  0
 64 63  1  0
 66 64  1  0
 67 76  2  0
 67 72  1  0
 68 64  1  0
 68 72  1  0
 69 68  1  0
 70 71  1  0
 70 69  1  0
 71 67  1  0
 72 73  2  0
 73 74  1  0
 75 74  2  0
 76 75  1  0
 77 51  1  0
 77 78  1  0
 77 87  1  0
 78 81  1  0
 79 83  1  0
 79 78  1  0
 80 79  2  0
 83 82  1  0
 85 83  1  0
 85 86  1  0
 85 84  1  0
 87 90  1  1
 87 88  1  0
 89 87  1  0
M  ISO  4   8 100  16 100  49 101  50 101
M  END
>  <TORSDO>  (27) 
F 22

>  <SCORE>  (27) 
-12.660

>  <name>  (27) 
26

>  <ligand_id>  (27) 
26

>  <original_smiles>  (27) 
[H]c1c([H])c([H])c2c(c1[H])C([H])([H])C([H])([H])C([H])([H])C2([H])N([H])C(=O)C1([H])N(C(=O)C([H])(N([H])C(=O)C([H])(N([H])C([H])([H])[H])C([H])([H])[H])C(C([H])([H])[H])(C([H])([H])[H])C([H])([H])[H])C([H])([H])c2c([H])c(OC([H])([H])C([H])([H])OC([H])([H])C([H])([H])N([H])C(=O)C([H])(N([H])C(=O)N3C([H])([H])C([H])([H])C([H])([H])C([H])(n4nc(-c5c([H])c([H])c(Oc6c([H])c([H])c(F)c([H])c6F)c([H])c5[H])c(C(=O)N([H])[H])c4N([H])[H])C3([H])[H])C([H])([H])[H])c([H])c([H])c2C1([H])[H]

>  <smiles>  (27) 
[H]c1c([H])c([H])c2c(c1[H])C([H])([H])C([H])([H])C([H])([H])C2([H])N([H])C(=O)C1([H])N(C(=O)C([H])(N([H])C(=O)C([H])(N([H])C([H])([H])[H])C([H])([H])[H])C(C([H])([H])[H])(C([H])([H])[H])C([H])([H])[H])C([H])([H])c2c([H])c(OC([H])([H])C([H])([H])OC([H])([H])C([H])([H])N([H])C(=O)C([H])(N([H])C(=O)N3C([H])([H])C([H])([H])C([H])([H])C([H])(n4nc(-c5c([H])c([H])c(Oc6c([H])c([H])c(F)c([H])c6F)c([H])c5[H])c(C(=O)N([H])[H])c4N([H])[H])C3([H])[H])C([H])([H])[H])c([H])c([H])c2C1([H])[H]

$$$$
27:0:0
     RDKit          3D

101108  0  0  1  0  0  0  0  0999 V2000
  -25.7000  -21.9630   18.4100 C   0  0  0  0  0  0  0  0  0  0  0  0
  -25.3280  -23.2350   18.6060 N   0  0  0  0  0  0  0  0  0  0  0  0
  -24.9210  -21.0060   18.4040 O   0  0  0  0  0  0  0  0  0  0  0  0
  -26.0540  -23.9370   18.5450 H   0  0  0  0  0  0  0  0  0  0  0  0
  -27.2250  -21.7320   18.2590 C   0  0  0  0  0  0  0  0  0  0  0  0
  -27.8390  -22.5040   17.3560 N   0  0  0  0  0  0  0  0  0  0  0  0
  -27.7930  -20.8610   18.9220 O   0  0  0  0  0  0  0  0  0  0  0  0
  -27.2700  -23.1780   16.8600 H   0  0  0  0  0  0  0  0  0  0  0  0
  -29.2300  -22.3440   16.9340 C   0  0  0  0  0  2  0  0  0  0  0  0
  -30.2370  -22.6930   18.0420 C   0  0  0  0  0  2  0  0  0  0  0  0
  -29.9990  -24.0190   18.4930 O   0  0  0  0  0  0  0  0  0  0  0  0
  -31.0390  -24.4840   19.3450 C   0  0  0  0  0  2  0  0  0  0  0  0
  -30.6780  -25.8660   19.8960 C   0  0  0  0  0  2  0  0  0  0  0  0
  -29.8070  -25.7200   21.0130 O   0  0  0  0  0  0  0  0  0  0  0  0
  -25.6780  -30.9480   23.4840 C   0  0  0  0  0  0  0  0  0  0  0  0
  -28.6420  -26.4280   20.8880 C   0  0  0  0  0  0  0  0  0  0  0  0
  -24.6650  -29.4960   21.7540 C   0  0  0  0  0  3  0  0  0  0  0  0
  -26.2660  -27.9020   20.5720 C   0  0  0  0  0  0  0  0  0  0  0  0
  -27.1940  -29.8440   21.8480 C   0  0  0  0  0  2  0  0  0  0  0  0
  -27.3430  -28.4510   21.2800 C   0  0  0  0  0  0  0  0  0  0  0  0
  -28.5340  -27.7160   21.4480 C   0  0  0  0  0  3  0  0  0  0  0  0
  -27.5530  -25.8740   20.1880 C   0  0  0  0  0  3  0  0  0  0  0  0
  -26.3610  -26.6060   20.0280 C   0  0  0  0  0  3  0  0  0  0  0  0
  -25.0320  -28.7630   20.4340 C   0  0  0  0  0  2  0  0  0  0  0  0
  -25.8560  -30.1130   22.4230 N   0  0  0  0  0  0  0  0  0  0  0  0
  -24.5440  -31.2450   23.8820 O   0  0  0  0  0  0  0  0  0  0  0  0
  -23.8940  -28.5120   22.6620 C   0  0  0  0  0  0  0  0  0  0  0  0
  -22.5860  -28.3620   22.4050 N   0  0  0  0  0  0  0  0  0  0  0  0
  -24.4760  -27.8870   23.5530 O   0  0  0  0  0  0  0  0  0  0  0  0
  -22.1830  -28.9170   21.6630 H   0  0  0  0  0  0  0  0  0  0  0  0
  -19.1250  -27.3650   22.6640 C   0  0  0  0  0  0  0  0  0  0  0  0
  -21.6690  -27.4630   23.1040 C   0  0  0  0  0  3  0  0  0  0  0  0
  -21.7250  -26.0380   22.5070 C   0  0  0  0  0  2  0  0  0  0  0  0
  -20.6740  -25.7980   21.4190 C   0  0  0  0  0  2  0  0  0  0  0  0
  -19.2640  -26.0180   21.9760 C   0  0  0  0  0  2  0  0  0  0  0  0
  -20.2560  -28.0500   23.1790 C   0  0  0  0  0  0  0  0  0  0  0  0
  -20.0760  -29.3160   23.7780 C   0  0  0  0  0  3  0  0  0  0  0  0
  -18.7960  -29.8950   23.8690 C   0  0  0  0  0  3  0  0  0  0  0  0
  -17.6770  -29.2040   23.3710 C   0  0  0  0  0  3  0  0  0  0  0  0
  -17.8420  -27.9420   22.7740 C   0  0  0  0  0  3  0  0  0  0  0  0
  -26.8890  -31.5900   24.2330 C   0  0  0  0  0  3  0  0  0  0  0  0
  -27.1700  -30.9320   25.6400 C   0  0  1  0  0  0  0  0  0  0  0  0
  -25.9180  -30.8320   26.5400 C   0  0  0  0  0  1  0  0  0  0  0  0
  -27.7460  -29.5080   25.4700 C   0  0  0  0  0  1  0  0  0  0  0  0
  -28.2400  -31.7530   26.3990 C   0  0  0  0  0  1  0  0  0  0  0  0
  -26.6100  -33.0250   24.3740 N   0  0  0  0  0  0  0  0  0  0  0  0
  -27.1230  -33.9790   23.5870 C   0  0  0  0  0  0  0  0  0  0  0  0
  -27.9470  -33.7440   22.6980 O   0  0  0  0  0  0  0  0  0  0  0  0
  -25.9010  -33.2840   25.0450 H   0  0  0  0  0  0  0  0  0  0  0  0
  -25.5850  -35.7930   22.7690 C   0  0  0  0  0  1  0  0  0  0  0  0
  -26.6430  -35.4250   23.8200 C   0  0  0  0  0  3  0  0  0  0  0  0
  -28.6530  -36.2980   24.9280 C   0  0  0  0  0  1  0  0  0  0  0  0
  -27.7380  -36.4180   23.7960 N   0  0  0  0  0  0  0  0  0  0  0  0
  -27.3670  -37.3640   23.7890 H   0  0  0  0  0  0  0  0  0  0  0  0
  -24.0130  -23.6500   19.0890 C   0  0  0  0  0  2  0  0  0  0  0  0
  -24.1470  -24.3730   20.4400 C   0  0  0  0  0  2  0  0  0  0  0  0
  -23.9600  -23.4410   21.6520 C   0  0  0  0  0  2  0  0  0  0  0  0
  -25.0440  -22.5240   21.7740 O   0  0  0  0  0  0  0  0  0  0  0  0
  -26.2600  -23.0770   22.2800 C   0  0  0  0  0  2  0  0  0  0  0  0
  -27.4460  -22.5210   21.4800 C   0  0  0  0  0  2  0  0  0  0  0  0
  -28.6600  -22.6720   22.2100 O   0  0  0  0  0  0  0  0  0  0  0  0
  -29.7790  -22.2170   21.4630 C   0  0  0  0  0  2  0  0  0  0  0  0
  -31.0220  -22.0510   22.3490 C   0  0  0  0  0  2  0  0  0  0  0  0
  -33.3940  -21.4950   21.8540 C   0  0  0  0  0  0  0  0  0  0  0  0
  -34.8560  -19.6610   21.1240 C   0  0  0  0  0  2  0  0  0  0  0  0
  -34.5790  -19.3660   19.6350 C   0  0  0  0  0  2  0  0  0  0  0  0
  -33.4070  -18.3740   19.4690 C   0  0  0  0  0  2  0  0  0  0  0  0
  -32.1690  -18.7630   20.3220 C   0  0  0  0  0  3  0  0  0  0  0  0
  -32.5880  -19.1010   21.7700 C   0  0  0  0  0  2  0  0  0  0  0  0
  -33.6050  -20.1610   21.7090 N   0  0  0  0  0  0  0  0  0  0  0  0
  -34.2990  -22.3290   21.8770 O   0  0  0  0  0  0  0  0  0  0  0  0
  -32.1860  -21.9190   21.4810 N   0  0  0  0  0  0  0  0  0  0  0  0
  -32.2850  -22.7490   20.9160 H   0  0  0  0  0  0  0  0  0  0  0  0
  -29.7720  -17.8540   20.1080 C   0  0  0  0  0  0  0  0  0  0  0  0
  -29.2800  -16.5790   20.0730 C   0  0  0  0  0  0  0  0  0  0  0  0
  -30.4090  -15.7150   20.2140 C   0  0  0  0  0  0  0  0  0  0  0  0
  -31.1420  -17.7270   20.2820 N   0  0  0  0  0  0  0  0  0  0  0  0
  -31.5150  -16.4270   20.3950 N   0  0  0  0  0  0  0  0  0  0  0  0
  -30.5090  -14.2520   20.1280 C   0  0  0  0  0  0  0  0  0  0  0  0
  -30.8330  -13.4720   21.2610 C   0  0  0  0  0  3  0  0  0  0  0  0
  -30.9090  -12.0670   21.1650 C   0  0  0  0  0  3  0  0  0  0  0  0
  -30.6540  -11.4280   19.9290 C   0  0  0  0  0  0  0  0  0  0  0  0
  -30.3530  -12.2080   18.7980 C   0  0  0  0  0  3  0  0  0  0  0  0
  -30.2820  -13.6080   18.8940 C   0  0  0  0  0  3  0  0  0  0  0  0
  -30.7280  -10.0700   19.7330 O   0  0  0  0  0  0  0  0  0  0  0  0
  -30.2370   -9.1820   20.6560 C   0  0  0  0  0  0  0  0  0  0  0  0
  -28.8730   -9.1620   21.0200 C   0  0  0  0  0  3  0  0  0  0  0  0
  -28.3980   -8.1870   21.9210 C   0  0  0  0  0  3  0  0  0  0  0  0
  -29.2830   -7.2290   22.4520 C   0  0  0  0  0  0  0  0  0  0  0  0
  -30.6400   -7.2460   22.0880 C   0  0  0  0  0  3  0  0  0  0  0  0
  -31.1150   -8.2190   21.1910 C   0  0  0  0  0  0  0  0  0  0  0  0
  -32.4200   -8.2160   20.8280 F   0  0  0  0  0  0  0  0  0  0  0  0
  -28.8250   -6.2890   23.3130 F   0  0  0  0  0  0  0  0  0  0  0  0
  -27.8550  -16.1770   19.8210 C   0  0  0  0  0  0  0  0  0  0  0  0
  -27.4250  -15.0520   20.3850 N   0  0  0  0  0  0  0  0  0  0  0  0
  -27.0960  -16.8830   19.1570 O   0  0  0  0  0  0  0  0  0  0  0  0
  -28.0400  -14.4840   20.9490 H   0  0  0  0  0  0  0  0  0  0  0  0
  -26.4680  -14.7560   20.2540 H   0  0  0  0  0  0  0  0  0  0  0  0
  -29.1710  -19.1040   19.9870 N   0  0  0  0  0  0  0  0  0  0  0  0
  -28.1810  -19.2070   19.7900 H   0  0  0  0  0  0  0  0  0  0  0  0
  -29.6730  -19.9810   19.9650 H   0  0  0  0  0  0  0  0  0  0  0  0
  1  2  1  0
  2 55  1  0
  3  1  2  0
  4  2  1  0
  5  1  1  0
  5  7  2  0
  6  5  1  0
  8  6  1  0
  9  6  1  0
  9 10  1  0
 10 11  1  0
 11 12  1  0
 12 13  1  0
 13 14  1  0
 15 26  2  0
 16 14  1  0
 16 21  1  0
 17 25  1  0
 17 27  1  0
 18 20  1  0
 19 25  1  0
 20 21  2  0
 20 19  1  0
 22 16  2  0
 23 22  1  0
 23 18  2  0
 24 18  1  0
 24 17  1  0
 25 15  1  0
 27 29  2  0
 28 27  1  0
 30 28  1  0
 31 40  2  0
 31 36  1  0
 32 28  1  0
 32 36  1  0
 33 32  1  0
 34 35  1  0
 34 33  1  0
 35 31  1  0
 36 37  2  0
 37 38  1  0
 39 38  2  0
 40 39  1  0
 41 15  1  0
 41 46  1  0
 41 42  1  0
 42 45  1  1
 42 43  1  0
 44 42  1  0
 46 49  1  0
 47 51  1  0
 47 46  1  0
 48 47  2  0
 51 50  1  0
 53 51  1  0
 53 52  1  0
 54 53  1  0
 55 56  1  0
 56 57  1  0
 57 58  1  0
 58 59  1  0
 60 61  1  0
 60 59  1  0
 62 61  1  0
 62 63  1  0
 64 71  2  0
 65 70  1  0
 66 65  1  0
 67 66  1  0
 68 67  1  0
 68 69  1  0
 70 69  1  0
 70 64  1  0
 72 64  1  0
 72 63  1  0
 73 72  1  0
 74 77  1  0
 75 74  2  0
 75 76  1  0
 76 78  2  0
 77 68  1  0
 77 78  1  0
 79 76  1  0
 79 80  1  0
 81 80  2  0
 82 81  1  0
 83 84  1  0
 83 82  2  0
 84 79  2  0
 85 82  1  0
 85 86  1  0
 86 87  2  0
 86 91  1  0
 87 88  1  0
 88 89  2  0
 89 93  1  0
 90 89  1  0
 91 90  2  0
 92 91  1  0
 94 75  1  0
 94 95  1  0
 95 97  1  0
 96 94  2  0
 98 95  1  0
 99 74  1  0
100 99  1  0
101 99  1  0
M  ISO  4  13 101  14 101  64 100  72 100
M  END
>  <TORSDO>  (28) 
F 31

>  <SCORE>  (28) 
-3.928

>  <name>  (28) 
27

>  <ligand_id>  (28) 
27

>  <original_smiles>  (28) 
[H]c1c([H])c([H])c2c(c1[H])C([H])([H])C([H])([H])C([H])([H])C2([H])N([H])C(=O)C1([H])N(C(=O)C([H])(N([H])C(=O)C([H])(N([H])C([H])([H])[H])C([H])([H])[H])C(C([H])([H])[H])(C([H])([H])[H])C([H])([H])[H])C([H])([H])c2c([H])c(OC([H])([H])C([H])([H])OC([H])([H])C([H])([H])N([H])C(=O)C(=O)N([H])C([H])([H])C([H])([H])C([H])([H])OC([H])([H])C([H])([H])OC([H])([H])C([H])([H])N([H])C(=O)N3C([H])([H])C([H])([H])C([H])([H])C([H])(n4nc(-c5c([H])c([H])c(Oc6c([H])c([H])c(F)c([H])c6F)c([H])c5[H])c(C(=O)N([H])[H])c4N([H])[H])C3([H])[H])c([H])c([H])c2C1([H])[H]

>  <smiles>  (28) 
[H]c1c([H])c([H])c2c(c1[H])C([H])([H])C([H])([H])C([H])([H])C2([H])N([H])C(=O)C1([H])N(C(=O)C([H])(N([H])C(=O)C([H])(N([H])C([H])([H])[H])C([H])([H])[H])C(C([H])([H])[H])(C([H])([H])[H])C([H])([H])[H])C([H])([H])c2c([H])c(OC([H])([H])C([H])([H])OC([H])([H])C([H])([H])N([H])C(=O)C(=O)N([H])C([H])([H])C([H])([H])C([H])([H])OC([H])([H])C([H])([H])OC([H])([H])C([H])([H])N([H])C(=O)N3C([H])([H])C([H])([H])C([H])([H])C([H])(n4nc(-c5c([H])c([H])c(Oc6c([H])c([H])c(F)c([H])c6F)c([H])c5[H])c(C(=O)N([H])[H])c4N([H])[H])C3([H])[H])c([H])c([H])c2C1([H])[H]

$$$$
28:0:0
     RDKit          3D

110117  0  0  1  0  0  0  0  0999 V2000
  -31.4660  -22.3690   21.5810 C   0  0  0  0  0  3  0  0  0  0  0  0
  -32.8960  -21.8320   21.3420 C   0  0  0  0  0  0  0  0  0  0  0  0
  -33.1820  -20.5940   21.7660 N   0  0  0  0  0  0  0  0  0  0  0  0
  -33.7510  -22.5630   20.8330 O   0  0  0  0  0  0  0  0  0  0  0  0
  -32.4420  -20.0530   22.1930 H   0  0  0  0  0  0  0  0  0  0  0  0
  -34.4990  -19.9570   21.7170 C   0  0  0  0  0  2  0  0  0  0  0  0
  -34.9540  -19.6560   20.2740 C   0  0  0  0  0  2  0  0  0  0  0  0
  -33.9840  -18.8230   19.6580 O   0  0  0  0  0  0  0  0  0  0  0  0
  -33.4950  -19.2880   18.4050 C   0  0  0  0  0  2  0  0  0  0  0  0
  -32.2700  -18.4290   18.0300 C   0  0  0  0  0  2  0  0  0  0  0  0
  -31.1170  -18.9030   18.7330 O   0  0  0  0  0  0  0  0  0  0  0  0
  -30.4430  -17.9390   19.5470 C   0  0  0  0  0  2  0  0  0  0  0  0
  -31.2880  -17.5870   20.7770 C   0  0  0  0  0  2  0  0  0  0  0  0
  -30.5830  -16.7470   21.8640 C   0  0  0  0  0  2  0  0  0  0  0  0
  -30.7410  -14.4790   20.7260 C   0  0  0  0  0  0  0  0  0  0  0  0
  -30.4220  -12.3820   19.4830 C   0  0  0  0  0  2  0  0  0  0  0  0
  -29.4990  -12.6080   18.2740 C   0  0  0  0  0  2  0  0  0  0  0  0
  -28.0180  -12.4910   18.6840 C   0  0  0  0  0  2  0  0  0  0  0  0
  -27.6600  -13.3030   19.9570 C   0  0  0  0  0  3  0  0  0  0  0  0
  -28.6950  -13.0380   21.0720 C   0  0  0  0  0  2  0  0  0  0  0  0
  -30.0350  -13.3360   20.5300 N   0  0  0  0  0  0  0  0  0  0  0  0
  -31.8390  -14.6830   20.2110 O   0  0  0  0  0  0  0  0  0  0  0  0
  -30.1220  -15.4140   21.4610 N   0  0  0  0  0  0  0  0  0  0  0  0
  -29.2240  -15.1340   21.8270 H   0  0  0  0  0  0  0  0  0  0  0  0
  -25.2330  -13.9040   20.5880 C   0  0  0  0  0  0  0  0  0  0  0  0
  -24.1530  -13.1260   20.9240 C   0  0  0  0  0  0  0  0  0  0  0  0
  -24.6200  -11.7780   20.9050 C   0  0  0  0  0  0  0  0  0  0  0  0
  -26.2890  -13.0250   20.3950 N   0  0  0  0  0  0  0  0  0  0  0  0
  -25.9190  -11.7410   20.6370 N   0  0  0  0  0  0  0  0  0  0  0  0
  -23.8900  -10.5140   21.0710 C   0  0  0  0  0  0  0  0  0  0  0  0
  -24.2850   -9.5450   22.0210 C   0  0  0  0  0  3  0  0  0  0  0  0
  -23.5490   -8.3510   22.1740 C   0  0  0  0  0  3  0  0  0  0  0  0
  -22.4050   -8.1130   21.3780 C   0  0  0  0  0  0  0  0  0  0  0  0
  -22.0290   -9.0710   20.4200 C   0  0  0  0  0  3  0  0  0  0  0  0
  -22.7660  -10.2580   20.2660 C   0  0  0  0  0  3  0  0  0  0  0  0
  -21.6450   -6.9700   21.4420 O   0  0  0  0  0  0  0  0  0  0  0  0
  -21.5260   -6.2410   22.6000 C   0  0  0  0  0  0  0  0  0  0  0  0
  -21.0210   -6.8110   23.7880 C   0  0  0  0  0  3  0  0  0  0  0  0
  -20.8660   -6.0140   24.9400 C   0  0  0  0  0  3  0  0  0  0  0  0
  -21.1900   -4.6450   24.8970 C   0  0  0  0  0  0  0  0  0  0  0  0
  -21.6760   -4.0730   23.7100 C   0  0  0  0  0  3  0  0  0  0  0  0
  -21.8410   -4.8680   22.5630 C   0  0  0  0  0  0  0  0  0  0  0  0
  -22.2960   -4.3070   21.4170 F   0  0  0  0  0  0  0  0  0  0  0  0
  -21.0320   -3.8760   25.9990 F   0  0  0  0  0  0  0  0  0  0  0  0
  -22.7500  -13.6040   21.1600 C   0  0  0  0  0  0  0  0  0  0  0  0
  -22.0050  -12.9110   22.0160 N   0  0  0  0  0  0  0  0  0  0  0  0
  -22.3210  -14.6280   20.6320 O   0  0  0  0  0  0  0  0  0  0  0  0
  -22.3610  -12.0810   22.4680 H   0  0  0  0  0  0  0  0  0  0  0  0
  -21.0670  -13.2190   22.2240 H   0  0  0  0  0  0  0  0  0  0  0  0
  -25.3910  -15.2740   20.4180 N   0  0  0  0  0  0  0  0  0  0  0  0
  -24.6080  -15.9150   20.4900 H   0  0  0  0  0  0  0  0  0  0  0  0
  -26.2510  -15.7430   20.1600 H   0  0  0  0  0  0  0  0  0  0  0  0
  -31.4420  -23.7890   21.1590 N   0  0  0  0  0  4  0  0  0  0  0  0
  -32.3930  -24.0910   21.3350 H   0  0  0  0  0  0  0  0  0  0  0  0
  -31.3330  -23.7850   20.1530 H   0  0  0  0  0  0  0  0  0  0  0  0
  -30.4760  -24.6850   21.8430 C   0  0  0  0  0  2  0  0  0  0  0  0
  -30.6110  -26.1520   21.3860 C   0  0  0  0  0  2  0  0  0  0  0  0
  -29.5500  -26.5350   20.5170 O   0  0  0  0  0  0  0  0  0  0  0  0
  -29.6680  -26.0780   19.1760 C   0  0  0  0  0  2  0  0  0  0  0  0
  -28.5380  -26.6780   18.3320 C   0  0  0  0  0  2  0  0  0  0  0  0
  -27.2980  -26.0990   18.7510 O   0  0  0  0  0  0  0  0  0  0  0  0
  -24.4250  -31.1910   22.8650 C   0  0  0  0  0  0  0  0  0  0  0  0
  -26.2470  -26.9470   19.0250 C   0  0  0  0  0  0  0  0  0  0  0  0
  -22.9070  -30.1210   21.2280 C   0  0  0  0  0  3  0  0  0  0  0  0
  -24.0220  -28.6280   19.4870 C   0  0  0  0  0  0  0  0  0  0  0  0
  -25.4150  -30.2610   20.7780 C   0  0  0  0  0  2  0  0  0  0  0  0
  -25.2790  -28.9730   19.9960 C   0  0  0  0  0  0  0  0  0  0  0  0
  -26.3880  -28.1340   19.7790 C   0  0  0  0  0  3  0  0  0  0  0  0
  -24.9690  -26.5930   18.5420 C   0  0  0  0  0  3  0  0  0  0  0  0
  -23.8560  -27.4290   18.7630 C   0  0  0  0  0  3  0  0  0  0  0  0
  -22.8920  -29.5910   19.7670 C   0  0  0  0  0  2  0  0  0  0  0  0
  -24.2750  -30.5290   21.6820 N   0  0  0  0  0  0  0  0  0  0  0  0
  -23.4440  -31.5060   23.5490 O   0  0  0  0  0  0  0  0  0  0  0  0
  -22.2460  -29.0680   22.1470 C   0  0  0  0  0  0  0  0  0  0  0  0
  -20.9040  -29.0110   22.1210 N   0  0  0  0  0  0  0  0  0  0  0  0
  -22.9320  -28.3130   22.8390 O   0  0  0  0  0  0  0  0  0  0  0  0
  -20.4190  -29.6720   21.5330 H   0  0  0  0  0  0  0  0  0  0  0  0
  -17.4830  -28.0200   22.7400 C   0  0  0  0  0  0  0  0  0  0  0  0
  -20.0650  -28.0740   22.8680 C   0  0  0  0  0  3  0  0  0  0  0  0
  -20.0270  -26.6910   22.1800 C   0  0  0  0  0  2  0  0  0  0  0  0
  -18.8450  -26.5290   21.2170 C   0  0  0  0  0  2  0  0  0  0  0  0
  -17.5170  -26.7200   21.9550 C   0  0  0  0  0  2  0  0  0  0  0  0
  -18.6800  -28.6640   23.1550 C   0  0  0  0  0  0  0  0  0  0  0  0
  -18.5900  -29.8880   23.8540 C   0  0  0  0  0  3  0  0  0  0  0  0
  -17.3390  -30.4660   24.1350 C   0  0  0  0  0  3  0  0  0  0  0  0
  -16.1600  -29.8170   23.7350 C   0  0  0  0  0  3  0  0  0  0  0  0
  -16.2310  -28.5950   23.0440 C   0  0  0  0  0  3  0  0  0  0  0  0
  -25.8340  -31.6080   23.3970 C   0  0  0  0  0  3  0  0  0  0  0  0
  -25.7060  -32.9520   23.9750 N   0  0  0  0  0  0  0  0  0  0  0  0
  -26.0950  -34.0810   23.3660 C   0  0  0  0  0  0  0  0  0  0  0  0
  -26.6690  -34.0880   22.2740 O   0  0  0  0  0  0  0  0  0  0  0  0
  -25.1890  -33.0230   24.8390 H   0  0  0  0  0  0  0  0  0  0  0  0
  -24.5650  -36.0740   23.4530 C   0  0  0  0  0  1  0  0  0  0  0  0
  -25.8020  -35.4140   24.0820 C   0  0  0  0  0  3  0  0  0  0  0  0
  -28.0740  -35.9170   24.8660 C   0  0  0  0  0  1  0  0  0  0  0  0
  -26.9410  -36.3590   24.0560 N   0  0  0  0  0  0  0  0  0  0  0  0
  -26.6560  -37.2760   24.3900 H   0  0  0  0  0  0  0  0  0  0  0  0
  -26.4190  -30.5970   24.4570 C   0  0  1  0  0  0  0  0  0  0  0  0
  -25.4470  -30.2830   25.6180 C   0  0  0  0  0  1  0  0  0  0  0  0
  -26.7930  -29.2600   23.7770 C   0  0  0  0  0  1  0  0  0  0  0  0
  -27.7200  -31.1690   25.0640 C   0  0  0  0  0  1  0  0  0  0  0  0
  -30.3520  -21.5180   20.8750 C   0  0  0  0  0  3  0  0  0  0  0  0
  -30.2000  -21.7690   19.3640 C   0  0  0  0  0  0  0  0  0  0  0  0
  -29.0330  -21.4210   18.8490 N   0  0  0  0  0  0  0  0  0  0  0  0
  -31.0690  -22.3290   18.7010 O   0  0  0  0  0  0  0  0  0  0  0  0
  -28.3710  -21.0260   19.5060 H   0  0  0  0  0  0  0  0  0  0  0  0
  -28.7830  -21.5910   17.8860 H   0  0  0  0  0  0  0  0  0  0  0  0
  -29.0360  -21.6410   21.5430 N   0  0  0  0  0  0  0  0  0  0  0  0
  -28.5990  -22.5370   21.3540 H   0  0  0  0  0  0  0  0  0  0  0  0
  -29.1260  -21.6000   22.5530 H   0  0  0  0  0  0  0  0  0  0  0  0
  1  2  1  0
  2  3  1  0
  3  5  1  0
  4  2  2  0
  6  3  1  0
  7  6  1  0
  8  7  1  0
  9  8  1  0
 10  9  1  0
 10 11  1  0
 11 12  1  0
 12 13  1  0
 13 14  1  0
 15 23  1  0
 16 21  1  0
 17 18  1  0
 17 16  1  0
 19 18  1  0
 19 28  1  0
 19 20  1  0
 21 15  1  0
 21 20  1  0
 22 15  2  0
 23 24  1  0
 23 14  1  0
 25 26  2  0
 26 45  1  0
 27 26  1  0
 27 30  1  0
 28 25  1  0
 28 29  1  0
 29 27  2  0
 30 31  1  0
 31 32  2  0
 33 36  1  0
 33 32  1  0
 34 33  2  0
 35 34  1  0
 35 30  2  0
 36 37  1  0
 37 38  1  0
 38 39  2  0
 40 39  1  0
 40 44  1  0
 41 40  2  0
 42 37  2  0
 42 41  1  0
 43 42  1  0
 45 46  1  0
 46 49  1  0
 46 48  1  0
 47 45  2  0
 50 51  1  0
 50 25  1  0
 52 50  1  0
 53 54  1  0
 53  1  1  0
 53 56  1  0
 55 53  1  0
 57 56  1  0
 58 57  1  0
 59 58  1  0
 60 61  1  0
 60 59  1  0
 61 63  1  0
 62 73  2  0
 63 68  1  0
 64 72  1  0
 64 74  1  0
 65 71  1  0
 65 67  1  0
 66 72  1  0
 67 66  1  0
 68 67  2  0
 69 70  1  0
 69 63  2  0
 70 65  2  0
 71 64  1  0
 72 62  1  0
 74 76  2  0
 75 74  1  0
 77 75  1  0
 78 87  2  0
 78 83  1  0
 79 75  1  0
 79 83  1  0
 80 79  1  0
 81 82  1  0
 81 80  1  0
 82 78  1  0
 83 84  2  0
 84 85  1  0
 86 85  2  0
 87 86  1  0
 88 62  1  0
 88 89  1  0
 88 98  1  0
 89 92  1  0
 90 89  1  0
 90 94  1  0
 91 90  2  0
 94 93  1  0
 96 94  1  0
 96 97  1  0
 96 95  1  0
 98101  1  1
 98 99  1  0
100 98  1  0
102103  1  0
102108  1  0
102  1  1  0
104103  1  0
104106  1  0
105103  2  0
107104  1  0
108110  1  0
109108  1  0
M  ISO  4  15 100  23 100  60 101  61 101
M  END
>  <TORSDO>  (29) 
F 35

>  <SCORE>  (29) 
-8.849

>  <name>  (29) 
28

>  <ligand_id>  (29) 
28

>  <original_smiles>  (29) 
[H]c1c([H])c([H])c2c(c1[H])C([H])([H])C([H])([H])C([H])([H])C2([H])N([H])C(=O)C1([H])N(C(=O)C([H])(N([H])C(=O)C([H])(N([H])C([H])([H])[H])C([H])([H])[H])C(C([H])([H])[H])(C([H])([H])[H])C([H])([H])[H])C([H])([H])c2c([H])c(OC([H])([H])C([H])([H])OC([H])([H])C([H])([H])[N+]([H])([H])C([H])(C(=O)N([H])C([H])([H])C([H])([H])OC([H])([H])C([H])([H])OC([H])([H])C([H])([H])C([H])([H])N([H])C(=O)N3C([H])([H])C([H])([H])C([H])([H])C([H])(n4nc(-c5c([H])c([H])c(Oc6c([H])c([H])c(F)c([H])c6F)c([H])c5[H])c(C(=O)N([H])[H])c4N([H])[H])C3([H])[H])C([H])(C(=O)N([H])[H])N([H])[H])c([H])c([H])c2C1([H])[H]

>  <smiles>  (29) 
[H]c1c([H])c([H])c2c(c1[H])C([H])([H])C([H])([H])C([H])([H])C2([H])N([H])C(=O)C1([H])N(C(=O)C([H])(N([H])C(=O)C([H])(N([H])C([H])([H])[H])C([H])([H])[H])C(C([H])([H])[H])(C([H])([H])[H])C([H])([H])[H])C([H])([H])c2c([H])c(OC([H])([H])C([H])([H])OC([H])([H])C([H])([H])[N+]([H])([H])C([H])(C(=O)N([H])C([H])([H])C([H])([H])OC([H])([H])C([H])([H])OC([H])([H])C([H])([H])C([H])([H])N([H])C(=O)N3C([H])([H])C([H])([H])C([H])([H])C([H])(n4nc(-c5c([H])c([H])c(Oc6c([H])c([H])c(F)c([H])c6F)c([H])c5[H])c(C(=O)N([H])[H])c4N([H])[H])C3([H])[H])C([H])(C(=O)N([H])[H])N([H])[H])c([H])c([H])c2C1([H])[H]

$$$$
29:0:0
     RDKit          3D

103110  0  0  1  0  0  0  0  0999 V2000
  -28.1610  -21.1520   19.5590 C   0  0  0  0  0  3  0  0  0  0  0  0
  -28.7420  -19.7570   19.2510 C   0  0  0  0  0  0  0  0  0  0  0  0
  -29.6550  -19.7020   18.2670 N   0  0  0  0  0  0  0  0  0  0  0  0
  -28.3990  -18.7590   19.8870 O   0  0  0  0  0  0  0  0  0  0  0  0
  -29.8460  -20.5420   17.7390 H   0  0  0  0  0  0  0  0  0  0  0  0
  -30.3470  -18.5060   17.7960 C   0  0  0  0  0  2  0  0  0  0  0  0
  -31.3820  -17.9750   18.8020 C   0  0  0  0  0  2  0  0  0  0  0  0
  -32.1880  -19.0280   19.3210 O   0  0  0  0  0  0  0  0  0  0  0  0
  -33.5490  -18.8900   18.9270 C   0  0  0  0  0  2  0  0  0  0  0  0
  -34.4160  -18.4770   20.1210 C   0  0  0  0  0  2  0  0  0  0  0  0
  -34.4390  -17.0580   20.2120 O   0  0  0  0  0  0  0  0  0  0  0  0
  -35.7490  -16.5500   20.4280 C   0  0  0  0  0  2  0  0  0  0  0  0
  -35.6860  -15.0220   20.5990 C   0  0  0  0  0  2  0  0  0  0  0  0
  -34.5680  -14.1500   18.5480 C   0  0  0  0  0  0  0  0  0  0  0  0
  -33.2010  -13.3920   16.6420 C   0  0  0  0  0  2  0  0  0  0  0  0
  -32.3340  -14.5440   16.0990 C   0  0  0  0  0  2  0  0  0  0  0  0
  -31.0040  -14.6380   16.8710 C   0  0  0  0  0  2  0  0  0  0  0  0
  -31.2080  -14.6360   18.4080 C   0  0  0  0  0  3  0  0  0  0  0  0
  -32.1490  -13.4880   18.8340 C   0  0  0  0  0  2  0  0  0  0  0  0
  -33.4100  -13.6200   18.0790 N   0  0  0  0  0  0  0  0  0  0  0  0
  -35.5520  -14.3750   17.8390 O   0  0  0  0  0  0  0  0  0  0  0  0
  -34.5790  -14.4240   19.8560 N   0  0  0  0  0  0  0  0  0  0  0  0
  -33.7320  -14.2280   20.3670 H   0  0  0  0  0  0  0  0  0  0  0  0
  -29.1580  -15.6030   19.6280 C   0  0  0  0  0  0  0  0  0  0  0  0
  -28.0250  -15.0120   20.1220 C   0  0  0  0  0  0  0  0  0  0  0  0
  -28.1660  -13.6150   19.8700 C   0  0  0  0  0  0  0  0  0  0  0  0
  -29.9280  -14.5720   19.1130 N   0  0  0  0  0  0  0  0  0  0  0  0
  -29.3430  -13.3640   19.3110 N   0  0  0  0  0  0  0  0  0  0  0  0
  -27.2260  -12.5060   20.0770 C   0  0  0  0  0  0  0  0  0  0  0  0
  -27.4730  -11.4990   21.0360 C   0  0  0  0  0  3  0  0  0  0  0  0
  -26.5460  -10.4510   21.2280 C   0  0  0  0  0  3  0  0  0  0  0  0
  -25.3570  -10.4050   20.4620 C   0  0  0  0  0  0  0  0  0  0  0  0
  -25.1280  -11.3980   19.4930 C   0  0  0  0  0  3  0  0  0  0  0  0
  -26.0540  -12.4360   19.2980 C   0  0  0  0  0  3  0  0  0  0  0  0
  -24.4130   -9.4130   20.5620 O   0  0  0  0  0  0  0  0  0  0  0  0
  -23.8660   -9.0590   21.7680 C   0  0  0  0  0  0  0  0  0  0  0  0
  -23.1400   -9.9790   22.5560 C   0  0  0  0  0  3  0  0  0  0  0  0
  -22.5340   -9.5560   23.7550 C   0  0  0  0  0  3  0  0  0  0  0  0
  -22.6440   -8.2140   24.1650 C   0  0  0  0  0  0  0  0  0  0  0  0
  -23.3640   -7.2950   23.3810 C   0  0  0  0  0  3  0  0  0  0  0  0
  -23.9690   -7.7160   22.1840 C   0  0  0  0  0  0  0  0  0  0  0  0
  -24.6420   -6.8220   21.4210 F   0  0  0  0  0  0  0  0  0  0  0  0
  -22.0570   -7.8040   25.3140 F   0  0  0  0  0  0  0  0  0  0  0  0
  -26.8340  -15.7140   20.7120 C   0  0  0  0  0  0  0  0  0  0  0  0
  -26.1610  -15.0780   21.6650 N   0  0  0  0  0  0  0  0  0  0  0  0
  -26.5220  -16.8500   20.3620 O   0  0  0  0  0  0  0  0  0  0  0  0
  -26.4300  -14.1530   21.9650 H   0  0  0  0  0  0  0  0  0  0  0  0
  -25.3650  -15.5230   22.1010 H   0  0  0  0  0  0  0  0  0  0  0  0
  -29.5910  -16.9220   19.5610 N   0  0  0  0  0  0  0  0  0  0  0  0
  -29.0560  -17.6910   19.9500 H   0  0  0  0  0  0  0  0  0  0  0  0
  -30.4860  -17.2050   19.1830 H   0  0  0  0  0  0  0  0  0  0  0  0
  -29.2490  -22.0660   19.9600 N   0  0  0  0  0  4  0  0  0  0  0  0
  -28.9560  -22.4450   20.8510 H   0  0  0  0  0  0  0  0  0  0  0  0
  -30.0460  -21.4720   20.1340 H   0  0  0  0  0  0  0  0  0  0  0  0
  -29.5810  -23.1350   18.9840 C   0  0  0  0  0  2  0  0  0  0  0  0
  -31.0640  -23.1360   18.5850 C   0  0  0  0  0  2  0  0  0  0  0  0
  -31.3890  -24.4750   18.2340 O   0  0  0  0  0  0  0  0  0  0  0  0
  -32.4170  -24.5960   17.2580 C   0  0  0  0  0  2  0  0  0  0  0  0
  -31.8660  -24.7840   15.8300 C   0  0  0  0  0  2  0  0  0  0  0  0
  -31.3410  -26.0980   15.6750 O   0  0  0  0  0  0  0  0  0  0  0  0
  -26.7070  -26.9970   20.9820 C   0  0  0  0  0  0  0  0  0  0  0  0
  -30.0280  -26.2920   16.0330 C   0  0  0  0  0  0  0  0  0  0  0  0
  -25.7170  -26.7390   18.7280 C   0  0  0  0  0  3  0  0  0  0  0  0
  -27.3610  -26.8230   16.7820 C   0  0  0  0  0  0  0  0  0  0  0  0
  -28.0660  -27.7020   19.0160 C   0  0  0  0  0  2  0  0  0  0  0  0
  -28.4080  -27.1100   17.6660 C   0  0  0  0  0  0  0  0  0  0  0  0
  -29.7440  -26.8530   17.2920 C   0  0  0  0  0  3  0  0  0  0  0  0
  -28.9650  -26.0140   15.1420 C   0  0  0  0  0  3  0  0  0  0  0  0
  -27.6320  -26.2740   15.5160 C   0  0  0  0  0  3  0  0  0  0  0  0
  -25.9630  -27.1550   17.2530 C   0  0  0  0  0  2  0  0  0  0  0  0
  -26.8500  -27.1230   19.6320 N   0  0  0  0  0  0  0  0  0  0  0  0
  -25.6400  -26.6120   21.4800 O   0  0  0  0  0  0  0  0  0  0  0  0
  -25.3940  -25.2290   18.7630 C   0  0  0  0  0  0  0  0  0  0  0  0
  -24.1700  -24.8740   18.3390 N   0  0  0  0  0  0  0  0  0  0  0  0
  -26.2370  -24.4070   19.1330 O   0  0  0  0  0  0  0  0  0  0  0  0
  -23.5360  -25.6080   18.0560 H   0  0  0  0  0  0  0  0  0  0  0  0
  -21.2510  -22.9170   17.5060 C   0  0  0  0  0  0  0  0  0  0  0  0
  -23.6560  -23.5090   18.2450 C   0  0  0  0  0  3  0  0  0  0  0  0
  -24.1170  -22.8300   16.9350 C   0  0  0  0  0  2  0  0  0  0  0  0
  -23.1090  -22.9820   15.7890 C   0  0  0  0  0  2  0  0  0  0  0  0
  -21.7580  -22.3770   16.1780 C   0  0  0  0  0  2  0  0  0  0  0  0
  -22.1410  -23.4630   18.4670 C   0  0  0  0  0  0  0  0  0  0  0  0
  -21.6160  -23.9840   19.6700 C   0  0  0  0  0  3  0  0  0  0  0  0
  -20.2310  -23.9630   19.9200 C   0  0  0  0  0  3  0  0  0  0  0  0
  -19.3550  -23.4050   18.9730 C   0  0  0  0  0  3  0  0  0  0  0  0
  -19.8660  -22.8820   17.7700 C   0  0  0  0  0  3  0  0  0  0  0  0
  -27.8670  -27.3530   21.9650 C   0  0  0  0  0  3  0  0  0  0  0  0
  -27.3330  -28.2920   22.9590 N   0  0  0  0  0  0  0  0  0  0  0  0
  -27.5880  -29.6070   22.9740 C   0  0  0  0  0  0  0  0  0  0  0  0
  -28.3650  -30.1500   22.1840 O   0  0  0  0  0  0  0  0  0  0  0  0
  -26.6460  -27.9290   23.6040 H   0  0  0  0  0  0  0  0  0  0  0  0
  -25.7300  -31.2510   23.3700 C   0  0  0  0  0  1  0  0  0  0  0  0
  -26.8640  -30.4570   24.0360 C   0  0  0  0  0  3  0  0  0  0  0  0
  -28.6810  -30.6990   25.6680 C   0  0  0  0  0  1  0  0  0  0  0  0
  -27.7620  -31.3800   24.7600 N   0  0  0  0  0  0  0  0  0  0  0  0
  -27.2270  -32.0550   25.2980 H   0  0  0  0  0  0  0  0  0  0  0  0
  -28.4960  -26.0890   22.6690 C   0  0  1  0  0  0  0  0  0  0  0  0
  -27.4510  -25.1600   23.3290 C   0  0  0  0  0  1  0  0  0  0  0  0
  -29.3020  -25.2500   21.6480 C   0  0  0  0  0  1  0  0  0  0  0  0
  -29.4920  -26.5390   23.7640 C   0  0  0  0  0  1  0  0  0  0  0  0
  -27.0390  -21.2150   20.6220 C   0  0  0  0  0  2  0  0  0  0  0  0
  -27.4840  -21.7870   21.8500 O   0  0  0  0  0  0  0  0  0  0  0  0
  -27.9420  -21.1080   22.3410 H   0  0  0  0  0  0  0  0  0  0  0  0
  1 52  1  0
  1101  1  0
  2  1  1  0
  2  4  2  0
  3  2  1  0
  5  3  1  0
  6  3  1  0
  6  7  1  0
  7  8  1  0
  9  8  1  0
  9 10  1  0
 10 11  1  0
 11 12  1  0
 12 13  1  0
 14 22  1  0
 15 20  1  0
 16 15  1  0
 16 17  1  0
 18 17  1  0
 18 19  1  0
 18 27  1  0
 20 14  1  0
 20 19  1  0
 21 14  2  0
 22 23  1  0
 22 13  1  0
 24 25  2  0
 25 44  1  0
 26 29  1  0
 26 25  1  0
 27 28  1  0
 27 24  1  0
 28 26  2  0
 29 30  1  0
 30 31  2  0
 32 35  1  0
 32 31  1  0
 33 32  2  0
 34 33  1  0
 34 29  2  0
 35 36  1  0
 36 41  2  0
 36 37  1  0
 37 38  2  0
 38 39  1  0
 39 43  1  0
 40 39  2  0
 41 40  1  0
 42 41  1  0
 44 45  1  0
 45 47  1  0
 45 48  1  0
 46 44  2  0
 49 24  1  0
 49 50  1  0
 51 49  1  0
 52 54  1  0
 52 53  1  0
 55 52  1  0
 56 55  1  0
 57 56  1  0
 58 57  1  0
 59 58  1  0
 60 59  1  0
 60 62  1  0
 61 72  2  0
 62 67  1  0
 63 73  1  0
 63 71  1  0
 64 70  1  0
 64 66  1  0
 65 71  1  0
 66 65  1  0
 67 66  2  0
 68 69  1  0
 68 62  2  0
 69 64  2  0
 70 63  1  0
 71 61  1  0
 73 75  2  0
 74 73  1  0
 76 74  1  0
 77 86  2  0
 77 82  1  0
 78 74  1  0
 78 82  1  0
 79 78  1  0
 80 81  1  0
 80 79  1  0
 81 77  1  0
 82 83  2  0
 83 84  1  0
 85 84  2  0
 86 85  1  0
 87 61  1  0
 87 97  1  0
 87 88  1  0
 88 89  1  0
 88 91  1  0
 89 93  1  0
 90 89  2  0
 93 92  1  0
 93 95  1  0
 95 96  1  0
 95 94  1  0
 97 98  1  1
 97100  1  0
 99 97  1  0
101102  1  0
102103  1  0
M  ISO  4  14 100  22 100  59 101  60 101
M  END
>  <TORSDO>  (30) 
F 33

>  <SCORE>  (30) 
1.175

>  <name>  (30) 
29

>  <ligand_id>  (30) 
29

>  <original_smiles>  (30) 
[H]OC([H])([H])C([H])(C(=O)N([H])C([H])([H])C([H])([H])OC([H])([H])C([H])([H])OC([H])([H])C([H])([H])N([H])C(=O)N1C([H])([H])C([H])([H])C([H])([H])C([H])(n2nc(-c3c([H])c([H])c(Oc4c([H])c([H])c(F)c([H])c4F)c([H])c3[H])c(C(=O)N([H])[H])c2N([H])[H])C1([H])[H])[N+]([H])([H])C([H])([H])C([H])([H])OC([H])([H])C([H])([H])Oc1c([H])c([H])c2c(c1[H])C([H])([H])N(C(=O)C([H])(N([H])C(=O)C([H])(N([H])C([H])([H])[H])C([H])([H])[H])C(C([H])([H])[H])(C([H])([H])[H])C([H])([H])[H])C([H])(C(=O)N([H])C1([H])c3c([H])c([H])c([H])c([H])c3C([H])([H])C([H])([H])C1([H])[H])C2([H])[H]

>  <smiles>  (30) 
[H]OC([H])([H])C([H])(C(=O)N([H])C([H])([H])C([H])([H])OC([H])([H])C([H])([H])OC([H])([H])C([H])([H])N([H])C(=O)N1C([H])([H])C([H])([H])C([H])([H])C([H])(n2nc(-c3c([H])c([H])c(Oc4c([H])c([H])c(F)c([H])c4F)c([H])c3[H])c(C(=O)N([H])[H])c2N([H])[H])C1([H])[H])[N+]([H])([H])C([H])([H])C([H])([H])OC([H])([H])C([H])([H])Oc1c([H])c([H])c2c(c1[H])C([H])([H])N(C(=O)C([H])(N([H])C(=O)C([H])(N([H])C([H])([H])[H])C([H])([H])[H])C(C([H])([H])[H])(C([H])([H])[H])C([H])([H])[H])C([H])(C(=O)N([H])C1([H])c3c([H])c([H])c([H])c([H])c3C([H])([H])C([H])([H])C1([H])[H])C2([H])[H]

$$$$
30:0:0
     RDKit          3D

 98105  0  0  1  0  0  0  0  0999 V2000
  -33.4100  -19.5440   18.8540 C   0  0  0  0  0  2  0  0  0  0  0  0
  -34.3970  -20.2100   21.0580 C   0  0  0  0  0  0  0  0  0  0  0  0
  -33.5290  -19.5180   20.3090 N   0  0  0  0  0  0  0  0  0  0  0  0
  -35.1760  -21.0430   20.5920 O   0  0  0  0  0  0  0  0  0  0  0  0
  -32.8650  -18.9450   20.8200 H   0  0  0  0  0  0  0  0  0  0  0  0
  -34.4240  -19.8760   22.5600 C   0  0  0  0  0  2  0  0  0  0  0  0
  -33.6770  -20.7980   23.3640 O   0  0  0  0  0  0  0  0  0  0  0  0
  -32.2810  -20.9560   23.1070 C   0  0  0  0  0  2  0  0  0  0  0  0
  -31.4400  -19.6830   23.3100 C   0  0  0  0  0  2  0  0  0  0  0  0
  -31.3780  -18.9630   22.0900 O   0  0  0  0  0  0  0  0  0  0  0  0
  -30.5380  -17.8210   22.1520 C   0  0  0  0  0  2  0  0  0  0  0  0
  -30.5320  -17.2010   20.7570 C   0  0  0  0  0  2  0  0  0  0  0  0
  -30.7050  -14.7600   20.4680 C   0  0  0  0  0  0  0  0  0  0  0  0
  -30.4160  -12.5450   19.4690 C   0  0  0  0  0  2  0  0  0  0  0  0
  -29.5060  -12.6600   18.2330 C   0  0  0  0  0  2  0  0  0  0  0  0
  -28.0320  -12.5030   18.6450 C   0  0  0  0  0  2  0  0  0  0  0  0
  -27.6390  -13.4150   19.8410 C   0  0  0  0  0  3  0  0  0  0  0  0
  -28.6810  -13.3480   20.9830 C   0  0  0  0  0  2  0  0  0  0  0  0
  -30.0140  -13.5970   20.4060 N   0  0  0  0  0  0  0  0  0  0  0  0
  -31.8610  -14.8850   20.0690 O   0  0  0  0  0  0  0  0  0  0  0  0
  -29.9970  -15.8420   20.7950 N   0  0  0  0  0  0  0  0  0  0  0  0
  -29.0190  -15.7190   21.0050 H   0  0  0  0  0  0  0  0  0  0  0  0
  -25.2310  -13.9680   20.5560 C   0  0  0  0  0  0  0  0  0  0  0  0
  -24.1770  -13.1700   20.9230 C   0  0  0  0  0  0  0  0  0  0  0  0
  -24.6650  -11.8290   20.8790 C   0  0  0  0  0  0  0  0  0  0  0  0
  -26.2920  -13.1110   20.3210 N   0  0  0  0  0  0  0  0  0  0  0  0
  -25.9580  -11.8210   20.5790 N   0  0  0  0  0  0  0  0  0  0  0  0
  -23.9620  -10.5490   21.0450 C   0  0  0  0  0  0  0  0  0  0  0  0
  -24.4000   -9.5850   21.9800 C   0  0  0  0  0  3  0  0  0  0  0  0
  -23.6980   -8.3730   22.1390 C   0  0  0  0  0  3  0  0  0  0  0  0
  -22.5420   -8.1140   21.3660 C   0  0  0  0  0  0  0  0  0  0  0  0
  -22.1250   -9.0630   20.4160 C   0  0  0  0  0  3  0  0  0  0  0  0
  -22.8300  -10.2680   20.2540 C   0  0  0  0  0  3  0  0  0  0  0  0
  -21.8110   -6.9530   21.4340 O   0  0  0  0  0  0  0  0  0  0  0  0
  -21.7310   -6.2200   22.5900 C   0  0  0  0  0  0  0  0  0  0  0  0
  -21.2570   -6.7780   23.7980 C   0  0  0  0  0  3  0  0  0  0  0  0
  -21.1280   -5.9680   24.9460 C   0  0  0  0  0  3  0  0  0  0  0  0
  -21.4630   -4.6020   24.8830 C   0  0  0  0  0  0  0  0  0  0  0  0
  -21.9300   -4.0430   23.6800 C   0  0  0  0  0  3  0  0  0  0  0  0
  -22.0610   -4.8510   22.5350 C   0  0  0  0  0  0  0  0  0  0  0  0
  -22.4890   -4.3040   21.3720 F   0  0  0  0  0  0  0  0  0  0  0  0
  -21.3340   -3.8190   25.9790 F   0  0  0  0  0  0  0  0  0  0  0  0
  -22.7690  -13.6190   21.1860 C   0  0  0  0  0  0  0  0  0  0  0  0
  -22.0530  -12.9130   22.0550 N   0  0  0  0  0  0  0  0  0  0  0  0
  -22.3060  -14.6280   20.6570 O   0  0  0  0  0  0  0  0  0  0  0  0
  -22.4350  -12.0980   22.5110 H   0  0  0  0  0  0  0  0  0  0  0  0
  -21.1060  -13.1940   22.2690 H   0  0  0  0  0  0  0  0  0  0  0  0
  -25.3670  -15.3410   20.3850 N   0  0  0  0  0  0  0  0  0  0  0  0
  -24.5840  -15.9750   20.4990 H   0  0  0  0  0  0  0  0  0  0  0  0
  -26.1960  -15.7910   20.0130 H   0  0  0  0  0  0  0  0  0  0  0  0
  -32.1370  -20.2810   18.4250 C   0  0  0  0  0  2  0  0  0  0  0  0
  -32.2140  -21.5830   18.9780 O   0  0  0  0  0  0  0  0  0  0  0  0
  -30.9940  -22.2960   18.9690 C   0  0  0  0  0  2  0  0  0  0  0  0
  -31.1980  -23.5320   19.8580 C   0  0  0  0  0  2  0  0  0  0  0  0
  -30.0140  -24.3130   19.9490 O   0  0  0  0  0  0  0  0  0  0  0  0
  -29.7920  -25.1680   18.8350 C   0  0  0  0  0  2  0  0  0  0  0  0
  -28.3370  -25.6480   18.8520 C   0  0  0  0  0  2  0  0  0  0  0  0
  -28.1940  -26.7220   19.7790 O   0  0  0  0  0  0  0  0  0  0  0  0
  -24.4340  -31.7440   23.1000 C   0  0  0  0  0  0  0  0  0  0  0  0
  -26.9930  -27.3940   19.8210 C   0  0  0  0  0  0  0  0  0  0  0  0
  -23.1830  -30.4020   21.4400 C   0  0  0  0  0  3  0  0  0  0  0  0
  -24.5950  -28.8920   19.9460 C   0  0  0  0  0  0  0  0  0  0  0  0
  -25.7050  -30.7470   21.2040 C   0  0  0  0  0  2  0  0  0  0  0  0
  -25.7640  -29.3920   20.5290 C   0  0  0  0  0  0  0  0  0  0  0  0
  -26.9600  -28.6460   20.4720 C   0  0  0  0  0  3  0  0  0  0  0  0
  -25.7990  -26.8990   19.2400 C   0  0  0  0  0  3  0  0  0  0  0  0
  -24.6050  -27.6400   19.3030 C   0  0  0  0  0  3  0  0  0  0  0  0
  -23.3590  -29.7570   20.0380 C   0  0  0  0  0  2  0  0  0  0  0  0
  -24.4600  -30.9760   21.9740 N   0  0  0  0  0  0  0  0  0  0  0  0
  -23.3660  -32.0120   23.6670 O   0  0  0  0  0  0  0  0  0  0  0  0
  -22.5410  -29.3590   22.3840 C   0  0  0  0  0  0  0  0  0  0  0  0
  -21.2110  -29.2060   22.2860 N   0  0  0  0  0  0  0  0  0  0  0  0
  -23.2340  -28.6950   23.1580 O   0  0  0  0  0  0  0  0  0  0  0  0
  -20.7150  -29.7910   21.6270 H   0  0  0  0  0  0  0  0  0  0  0  0
  -17.8300  -28.0610   22.8310 C   0  0  0  0  0  0  0  0  0  0  0  0
  -20.3960  -28.2590   23.0450 C   0  0  0  0  0  3  0  0  0  0  0  0
  -20.4570  -26.8470   22.4190 C   0  0  0  0  0  2  0  0  0  0  0  0
  -19.3240  -26.5800   21.4240 C   0  0  0  0  0  2  0  0  0  0  0  0
  -17.9620  -26.7310   22.1070 C   0  0  0  0  0  2  0  0  0  0  0  0
  -18.9720  -28.7860   23.2570 C   0  0  0  0  0  0  0  0  0  0  0  0
  -18.7960  -30.0340   23.8940 C   0  0  0  0  0  3  0  0  0  0  0  0
  -17.5060  -30.5560   24.1070 C   0  0  0  0  0  3  0  0  0  0  0  0
  -16.3770  -29.8270   23.6970 C   0  0  0  0  0  3  0  0  0  0  0  0
  -16.5390  -28.5820   23.0650 C   0  0  0  0  0  3  0  0  0  0  0  0
  -25.7390  -32.3430   23.7120 C   0  0  0  0  0  3  0  0  0  0  0  0
  -26.2760  -31.5290   24.9510 C   0  0  1  0  0  0  0  0  0  0  0  0
  -25.2060  -31.2710   26.0380 C   0  0  0  0  0  1  0  0  0  0  0  0
  -26.8320  -30.1580   24.5000 C   0  0  0  0  0  1  0  0  0  0  0  0
  -27.4520  -32.2890   25.6070 C   0  0  0  0  0  1  0  0  0  0  0  0
  -25.4510  -33.7330   24.0880 N   0  0  0  0  0  0  0  0  0  0  0  0
  -25.7900  -34.8050   23.3580 C   0  0  0  0  0  0  0  0  0  0  0  0
  -26.4510  -34.7240   22.3180 O   0  0  0  0  0  0  0  0  0  0  0  0
  -24.8650  -33.8720   24.8990 H   0  0  0  0  0  0  0  0  0  0  0  0
  -24.0820  -36.6260   23.0700 C   0  0  0  0  0  1  0  0  0  0  0  0
  -25.3240  -36.1840   23.8610 C   0  0  0  0  0  3  0  0  0  0  0  0
  -27.4780  -37.0120   24.7000 C   0  0  0  0  0  1  0  0  0  0  0  0
  -26.3690  -37.2270   23.7750 N   0  0  0  0  0  0  0  0  0  0  0  0
  -25.9750  -38.1460   23.9590 H   0  0  0  0  0  0  0  0  0  0  0  0
  1  3  1  0
  2  6  1  0
  3  5  1  0
  3  2  1  0
  4  2  2  0
  6  7  1  0
  8  9  1  0
  8  7  1  0
 10 11  1  0
 10  9  1  0
 12 21  1  0
 12 11  1  0
 13 21  1  0
 14 19  1  0
 15 16  1  0
 15 14  1  0
 17 16  1  0
 17 26  1  0
 17 18  1  0
 19 13  1  0
 19 18  1  0
 20 13  2  0
 21 22  1  0
 23 24  2  0
 24 43  1  0
 25 24  1  0
 25 28  1  0
 26 23  1  0
 26 27  1  0
 27 25  2  0
 28 29  1  0
 29 30  2  0
 31 34  1  0
 31 30  1  0
 32 31  2  0
 33 32  1  0
 33 28  2  0
 34 35  1  0
 35 36  1  0
 36 37  2  0
 38 37  1  0
 38 42  1  0
 39 38  2  0
 40 35  2  0
 40 39  1  0
 41 40  1  0
 43 44  1  0
 44 47  1  0
 44 46  1  0
 45 43  2  0
 48 49  1  0
 48 23  1  0
 50 48  1  0
 51  1  1  0
 51 52  1  0
 53 52  1  0
 53 54  1  0
 54 55  1  0
 56 57  1  0
 56 55  1  0
 57 58  1  0
 58 60  1  0
 59 70  2  0
 60 65  1  0
 61 69  1  0
 61 71  1  0
 62 68  1  0
 62 64  1  0
 63 69  1  0
 64 63  1  0
 65 64  2  0
 66 67  1  0
 66 60  2  0
 67 62  2  0
 68 61  1  0
 69 59  1  0
 71 73  2  0
 72 71  1  0
 74 72  1  0
 75 84  2  0
 75 80  1  0
 76 72  1  0
 76 80  1  0
 77 76  1  0
 78 79  1  0
 78 77  1  0
 79 75  1  0
 80 81  2  0
 81 82  1  0
 83 82  2  0
 84 83  1  0
 85 59  1  0
 85 90  1  0
 85 86  1  0
 86 89  1  1
 86 87  1  0
 88 86  1  0
 90 93  1  0
 91 95  1  0
 91 90  1  0
 92 91  2  0
 95 94  1  0
 97 95  1  0
 97 98  1  0
 97 96  1  0
M  ISO  4  13 100  21 100  57 101  58 101
M  END
>  <TORSDO>  (31) 
F 31

>  <SCORE>  (31) 
-10.658

>  <name>  (31) 
30

>  <ligand_id>  (31) 
30

>  <original_smiles>  (31) 
[H]c1c([H])c([H])c2c(c1[H])C([H])([H])C([H])([H])C([H])([H])C2([H])N([H])C(=O)C1([H])N(C(=O)C([H])(N([H])C(=O)C([H])(N([H])C([H])([H])[H])C([H])([H])[H])C(C([H])([H])[H])(C([H])([H])[H])C([H])([H])[H])C([H])([H])c2c([H])c(OC([H])([H])C([H])([H])OC([H])([H])C([H])([H])OC([H])([H])C([H])([H])N([H])C(=O)C([H])([H])OC([H])([H])C([H])([H])OC([H])([H])C([H])([H])N([H])C(=O)N3C([H])([H])C([H])([H])C([H])([H])C([H])(n4nc(-c5c([H])c([H])c(Oc6c([H])c([H])c(F)c([H])c6F)c([H])c5[H])c(C(=O)N([H])[H])c4N([H])[H])C3([H])[H])c([H])c([H])c2C1([H])[H]

>  <smiles>  (31) 
[H]c1c([H])c([H])c2c(c1[H])C([H])([H])C([H])([H])C([H])([H])C2([H])N([H])C(=O)C1([H])N(C(=O)C([H])(N([H])C(=O)C([H])(N([H])C([H])([H])[H])C([H])([H])[H])C(C([H])([H])[H])(C([H])([H])[H])C([H])([H])[H])C([H])([H])c2c([H])c(OC([H])([H])C([H])([H])OC([H])([H])C([H])([H])OC([H])([H])C([H])([H])N([H])C(=O)C([H])([H])OC([H])([H])C([H])([H])OC([H])([H])C([H])([H])N([H])C(=O)N3C([H])([H])C([H])([H])C([H])([H])C([H])(n4nc(-c5c([H])c([H])c(Oc6c([H])c([H])c(F)c([H])c6F)c([H])c5[H])c(C(=O)N([H])[H])c4N([H])[H])C3([H])[H])c([H])c([H])c2C1([H])[H]

$$$$
31:0:0
     RDKit          3D

 98105  0  0  1  0  0  0  0  0999 V2000
  -31.9140  -22.5190   18.3020 C   0  0  0  0  0  2  0  0  0  0  0  0
  -30.5390  -22.8920   18.3080 O   0  0  0  0  0  0  0  0  0  0  0  0
  -29.7870  -21.8420   17.6890 N   0  0  0  0  0  0  0  0  0  0  0  0
  -29.0110  -21.2230   18.7600 C   0  0  0  0  0  2  0  0  0  0  0  0
  -29.1040  -19.6950   18.6420 C   0  0  0  0  0  2  0  0  0  0  0  0
  -29.2120  -19.1320   19.9400 O   0  0  0  0  0  0  0  0  0  0  0  0
  -29.4660  -17.7420   19.9000 C   0  0  0  0  0  2  0  0  0  0  0  0
  -29.9620  -17.2810   21.2800 C   0  0  0  0  0  2  0  0  0  0  0  0
  -30.5380  -14.9820   20.5930 C   0  0  0  0  0  0  0  0  0  0  0  0
  -30.3770  -12.8290   19.4140 C   0  0  0  0  0  2  0  0  0  0  0  0
  -29.4310  -12.9700   18.2060 C   0  0  0  0  0  2  0  0  0  0  0  0
  -27.9670  -12.7310   18.6220 C   0  0  0  0  0  2  0  0  0  0  0  0
  -27.5650  -13.5800   19.8550 C   0  0  0  0  0  3  0  0  0  0  0  0
  -28.6080  -13.4180   20.9830 C   0  0  0  0  0  2  0  0  0  0  0  0
  -29.9350  -13.7750   20.4480 N   0  0  0  0  0  0  0  0  0  0  0  0
  -31.5600  -15.3190   19.9920 O   0  0  0  0  0  0  0  0  0  0  0  0
  -29.8660  -15.8330   21.3710 N   0  0  0  0  0  0  0  0  0  0  0  0
  -29.0600  -15.4600   21.8500 H   0  0  0  0  0  0  0  0  0  0  0  0
  -25.1380  -14.0730   20.5570 C   0  0  0  0  0  0  0  0  0  0  0  0
  -24.1040  -13.2480   20.9050 C   0  0  0  0  0  0  0  0  0  0  0  0
  -24.6220  -11.9190   20.8440 C   0  0  0  0  0  0  0  0  0  0  0  0
  -26.2230  -13.2430   20.3190 N   0  0  0  0  0  0  0  0  0  0  0  0
  -25.9150  -11.9400   20.5410 N   0  0  0  0  0  0  0  0  0  0  0  0
  -23.9550  -10.6210   21.0100 C   0  0  0  0  0  0  0  0  0  0  0  0
  -24.4030   -9.6780   21.9590 C   0  0  0  0  0  3  0  0  0  0  0  0
  -23.7350   -8.4430   22.1120 C   0  0  0  0  0  3  0  0  0  0  0  0
  -22.6030   -8.1480   21.3130 C   0  0  0  0  0  0  0  0  0  0  0  0
  -22.1750   -9.0830   20.3550 C   0  0  0  0  0  3  0  0  0  0  0  0
  -22.8430  -10.3090   20.2020 C   0  0  0  0  0  3  0  0  0  0  0  0
  -21.9080   -6.9650   21.3700 O   0  0  0  0  0  0  0  0  0  0  0  0
  -21.8240   -6.2360   22.5280 C   0  0  0  0  0  0  0  0  0  0  0  0
  -21.2940   -6.7820   23.7170 C   0  0  0  0  0  3  0  0  0  0  0  0
  -21.1660   -5.9760   24.8660 C   0  0  0  0  0  3  0  0  0  0  0  0
  -21.5490   -4.6240   24.8250 C   0  0  0  0  0  0  0  0  0  0  0  0
  -22.0690   -4.0760   23.6370 C   0  0  0  0  0  3  0  0  0  0  0  0
  -22.2050   -4.8790   22.4920 C   0  0  0  0  0  0  0  0  0  0  0  0
  -22.6860   -4.3420   21.3460 F   0  0  0  0  0  0  0  0  0  0  0  0
  -21.4180   -3.8440   25.9230 F   0  0  0  0  0  0  0  0  0  0  0  0
  -22.6860  -13.6580   21.1860 C   0  0  0  0  0  0  0  0  0  0  0  0
  -21.9960  -12.9120   22.0410 N   0  0  0  0  0  0  0  0  0  0  0  0
  -22.1980  -14.6720   20.6850 O   0  0  0  0  0  0  0  0  0  0  0  0
  -22.4010  -12.0860   22.4560 H   0  0  0  0  0  0  0  0  0  0  0  0
  -21.0460  -13.1630   22.2760 H   0  0  0  0  0  0  0  0  0  0  0  0
  -25.2400  -15.4540   20.4060 N   0  0  0  0  0  0  0  0  0  0  0  0
  -24.4360  -16.0620   20.5040 H   0  0  0  0  0  0  0  0  0  0  0  0
  -26.0740  -15.9440   20.1080 H   0  0  0  0  0  0  0  0  0  0  0  0
  -28.9500  -22.5190   16.7000 C   0  0  0  0  0  2  0  0  0  0  0  0
  -29.8370  -23.4220   15.8150 C   0  0  0  0  0  2  0  0  0  0  0  0
  -29.8650  -25.1180   14.1860 C   0  0  0  0  0  1  0  0  0  0  0  0
  -29.0580  -24.2010   14.9200 O   0  0  0  0  0  0  0  0  0  0  0  0
  -32.8030  -23.7660   18.4610 C   0  0  0  0  0  2  0  0  0  0  0  0
  -32.4790  -24.6700   19.6710 C   0  0  0  0  0  2  0  0  0  0  0  0
  -30.6120  -26.1260   18.8940 C   0  0  0  0  0  0  0  0  0  0  0  0
  -31.1030  -25.1480   19.6610 N   0  0  0  0  0  0  0  0  0  0  0  0
  -31.3180  -26.8460   18.1830 O   0  0  0  0  0  0  0  0  0  0  0  0
  -30.4210  -24.5880   20.1590 H   0  0  0  0  0  0  0  0  0  0  0  0
  -29.1000  -26.3110   18.9400 C   0  0  0  0  0  2  0  0  0  0  0  0
  -28.7620  -26.9200   20.1850 O   0  0  0  0  0  0  0  0  0  0  0  0
  -24.6990  -31.8840   23.2500 C   0  0  0  0  0  0  0  0  0  0  0  0
  -27.5480  -27.5570   20.2110 C   0  0  0  0  0  0  0  0  0  0  0  0
  -23.5740  -30.4560   21.5720 C   0  0  0  0  0  3  0  0  0  0  0  0
  -25.1030  -28.9610   20.1870 C   0  0  0  0  0  0  0  0  0  0  0  0
  -26.0870  -30.8870   21.4410 C   0  0  0  0  0  2  0  0  0  0  0  0
  -26.2250  -29.5170   20.8140 C   0  0  0  0  0  0  0  0  0  0  0  0
  -27.4440  -28.8120   20.8400 C   0  0  0  0  0  3  0  0  0  0  0  0
  -26.4030  -26.9920   19.6030 C   0  0  0  0  0  3  0  0  0  0  0  0
  -25.1820  -27.6900   19.5890 C   0  0  0  0  0  3  0  0  0  0  0  0
  -23.8370  -29.7850   20.1970 C   0  0  0  0  0  2  0  0  0  0  0  0
  -24.8040  -31.0910   22.1480 N   0  0  0  0  0  0  0  0  0  0  0  0
  -23.5970  -32.1240   23.7600 O   0  0  0  0  0  0  0  0  0  0  0  0
  -22.9280  -29.4140   22.5120 C   0  0  0  0  0  0  0  0  0  0  0  0
  -21.6150  -29.1930   22.3420 N   0  0  0  0  0  0  0  0  0  0  0  0
  -23.6060  -28.8060   23.3450 O   0  0  0  0  0  0  0  0  0  0  0  0
  -21.1300  -29.7430   21.6450 H   0  0  0  0  0  0  0  0  0  0  0  0
  -18.2640  -27.9100   22.7300 C   0  0  0  0  0  0  0  0  0  0  0  0
  -20.8020  -28.2290   23.0830 C   0  0  0  0  0  3  0  0  0  0  0  0
  -20.9580  -26.8040   22.5040 C   0  0  0  0  0  2  0  0  0  0  0  0
  -19.8970  -26.4600   21.4550 C   0  0  0  0  0  2  0  0  0  0  0  0
  -18.4930  -26.5680   22.0560 C   0  0  0  0  0  2  0  0  0  0  0  0
  -19.3480  -28.6960   23.1980 C   0  0  0  0  0  0  0  0  0  0  0  0
  -19.0810  -29.9540   23.7850 C   0  0  0  0  0  3  0  0  0  0  0  0
  -17.7610  -30.4210   23.9130 C   0  0  0  0  0  3  0  0  0  0  0  0
  -16.6890  -29.6320   23.4630 C   0  0  0  0  0  3  0  0  0  0  0  0
  -16.9400  -28.3790   22.8780 C   0  0  0  0  0  3  0  0  0  0  0  0
  -25.9530  -32.5450   23.9050 C   0  0  0  0  0  3  0  0  0  0  0  0
  -25.6020  -33.9380   24.2170 N   0  0  0  0  0  0  0  0  0  0  0  0
  -25.9280  -34.9910   23.4570 C   0  0  0  0  0  0  0  0  0  0  0  0
  -26.6270  -34.8950   22.4440 O   0  0  0  0  0  0  0  0  0  0  0  0
  -24.9880  -34.0870   25.0030 H   0  0  0  0  0  0  0  0  0  0  0  0
  -24.1570  -36.7270   23.0500 C   0  0  0  0  0  1  0  0  0  0  0  0
  -25.3940  -36.3700   23.8890 C   0  0  0  0  0  3  0  0  0  0  0  0
  -27.4900  -37.3200   24.7460 C   0  0  0  0  0  1  0  0  0  0  0  0
  -26.4000  -37.4500   23.7840 N   0  0  0  0  0  0  0  0  0  0  0  0
  -25.9650  -38.3610   23.9150 H   0  0  0  0  0  0  0  0  0  0  0  0
  -26.4460  -31.7890   25.1990 C   0  0  1  0  0  0  0  0  0  0  0  0
  -25.3260  -31.5250   26.2310 C   0  0  0  0  0  1  0  0  0  0  0  0
  -27.0780  -30.4280   24.8240 C   0  0  0  0  0  1  0  0  0  0  0  0
  -27.5520  -32.6130   25.8970 C   0  0  0  0  0  1  0  0  0  0  0  0
  1  2  1  0
  1 51  1  0
  3  2  1  0
  3  4  1  0
  5  4  1  0
  5  6  1  0
  7  6  1  0
  7  8  1  0
  8 17  1  0
  9 17  1  0
 10 15  1  0
 11 12  1  0
 11 10  1  0
 13 12  1  0
 13 22  1  0
 13 14  1  0
 15  9  1  0
 15 14  1  0
 16  9  2  0
 17 18  1  0
 19 20  2  0
 20 39  1  0
 21 20  1  0
 21 24  1  0
 22 23  1  0
 22 19  1  0
 23 21  2  0
 24 25  1  0
 25 26  2  0
 27 30  1  0
 27 26  1  0
 28 27  2  0
 29 28  1  0
 29 24  2  0
 30 31  1  0
 31 32  1  0
 32 33  2  0
 34 33  1  0
 34 38  1  0
 35 34  2  0
 36 31  2  0
 36 35  1  0
 37 36  1  0
 39 40  1  0
 40 43  1  0
 40 42  1  0
 41 39  2  0
 44 45  1  0
 44 19  1  0
 46 44  1  0
 47  3  1  0
 48 47  1  0
 49 50  1  0
 50 48  1  0
 51 52  1  0
 53 57  1  0
 53 54  1  0
 54 52  1  0
 54 56  1  0
 55 53  2  0
 57 58  1  0
 58 60  1  0
 59 70  2  0
 60 65  1  0
 61 69  1  0
 61 71  1  0
 62 68  1  0
 62 64  1  0
 63 69  1  0
 64 65  2  0
 64 63  1  0
 66 60  2  0
 67 66  1  0
 67 62  2  0
 68 61  1  0
 69 59  1  0
 71 73  2  0
 72 71  1  0
 74 72  1  0
 75 84  2  0
 75 80  1  0
 76 72  1  0
 76 80  1  0
 77 76  1  0
 78 79  1  0
 78 77  1  0
 79 75  1  0
 80 81  2  0
 81 82  1  0
 83 82  2  0
 84 83  1  0
 85 59  1  0
 85 86  1  0
 85 95  1  0
 86 89  1  0
 87 91  1  0
 87 86  1  0
 88 87  2  0
 91 90  1  0
 93 91  1  0
 93 94  1  0
 93 92  1  0
 95 98  1  1
 95 96  1  0
 97 95  1  0
M  ISO  4   9 100  17 100  57 101  58 101
M  END
>  <TORSDO>  (32) 
F 30

>  <SCORE>  (32) 
-10.735

>  <name>  (32) 
31

>  <ligand_id>  (32) 
31

>  <original_smiles>  (32) 
[H]c1c([H])c([H])c2c(c1[H])C([H])([H])C([H])([H])C([H])([H])C2([H])N([H])C(=O)C1([H])N(C(=O)C([H])(N([H])C(=O)C([H])(N([H])C([H])([H])[H])C([H])([H])[H])C(C([H])([H])[H])(C([H])([H])[H])C([H])([H])[H])C([H])([H])c2c([H])c(OC([H])([H])C(=O)N([H])C([H])([H])C([H])([H])C([H])([H])ON(C([H])([H])C([H])([H])OC([H])([H])[H])C([H])([H])C([H])([H])OC([H])([H])C([H])([H])N([H])C(=O)N3C([H])([H])C([H])([H])C([H])([H])C([H])(n4nc(-c5c([H])c([H])c(Oc6c([H])c([H])c(F)c([H])c6F)c([H])c5[H])c(C(=O)N([H])[H])c4N([H])[H])C3([H])[H])c([H])c([H])c2C1([H])[H]

>  <smiles>  (32) 
[H]c1c([H])c([H])c2c(c1[H])C([H])([H])C([H])([H])C([H])([H])C2([H])N([H])C(=O)C1([H])N(C(=O)C([H])(N([H])C(=O)C([H])(N([H])C([H])([H])[H])C([H])([H])[H])C(C([H])([H])[H])(C([H])([H])[H])C([H])([H])[H])C([H])([H])c2c([H])c(OC([H])([H])C(=O)N([H])C([H])([H])C([H])([H])C([H])([H])ON(C([H])([H])C([H])([H])OC([H])([H])[H])C([H])([H])C([H])([H])OC([H])([H])C([H])([H])N([H])C(=O)N3C([H])([H])C([H])([H])C([H])([H])C([H])(n4nc(-c5c([H])c([H])c(Oc6c([H])c([H])c(F)c([H])c6F)c([H])c5[H])c(C(=O)N([H])[H])c4N([H])[H])C3([H])[H])c([H])c([H])c2C1([H])[H]

$$$$
32:0:0
     RDKit          3D

 99106  0  0  1  0  0  0  0  0999 V2000
  -29.1990  -23.6240   17.2490 C   0  0  0  0  0  0  0  0  0  0  0  0
  -30.0150  -22.5710   17.2690 N   0  0  0  0  0  0  0  0  0  0  0  0
  -29.3080  -24.5200   16.4120 O   0  0  0  0  0  0  0  0  0  0  0  0
  -29.8250  -21.8430   17.9460 H   0  0  0  0  0  0  0  0  0  0  0  0
  -31.1660  -22.3590   16.4080 C   0  0  0  0  0  2  0  0  0  0  0  0
  -32.1820  -21.4800   17.1410 C   0  0  0  0  0  2  0  0  0  0  0  0
  -31.4810  -20.4950   17.8970 O   0  0  0  0  0  0  0  0  0  0  0  0
  -32.2790  -19.8510   18.8810 C   0  0  0  0  0  2  0  0  0  0  0  0
  -31.3910  -19.5240   20.0860 C   0  0  0  0  0  2  0  0  0  0  0  0
  -30.3720  -18.6220   19.6590 O   0  0  0  0  0  0  0  0  0  0  0  0
  -29.8380  -17.7980   20.6870 C   0  0  0  0  0  2  0  0  0  0  0  0
  -30.8750  -16.7430   21.1250 C   0  0  0  0  0  2  0  0  0  0  0  0
  -30.9540  -14.3740   20.3960 C   0  0  0  0  0  0  0  0  0  0  0  0
  -30.5290  -12.2860   19.1750 C   0  0  0  0  0  2  0  0  0  0  0  0
  -29.5880  -12.5680   17.9930 C   0  0  0  0  0  2  0  0  0  0  0  0
  -28.1150  -12.4890   18.4380 C   0  0  0  0  0  2  0  0  0  0  0  0
  -27.8220  -13.2950   19.7280 C   0  0  0  0  0  3  0  0  0  0  0  0
  -28.8800  -13.0110   20.8170 C   0  0  0  0  0  2  0  0  0  0  0  0
  -30.2100  -13.2540   20.2360 N   0  0  0  0  0  0  0  0  0  0  0  0
  -32.0620  -14.5290   19.8850 O   0  0  0  0  0  0  0  0  0  0  0  0
  -30.3530  -15.3780   21.0440 N   0  0  0  0  0  0  0  0  0  0  0  0
  -29.4310  -15.2020   21.4100 H   0  0  0  0  0  0  0  0  0  0  0  0
  -25.4340  -13.9560   20.4360 C   0  0  0  0  0  0  0  0  0  0  0  0
  -24.3490  -13.2040   20.8080 C   0  0  0  0  0  0  0  0  0  0  0  0
  -24.7830  -11.8440   20.7760 C   0  0  0  0  0  0  0  0  0  0  0  0
  -26.4630  -13.0510   20.2090 N   0  0  0  0  0  0  0  0  0  0  0  0
  -26.0740  -11.7770   20.4690 N   0  0  0  0  0  0  0  0  0  0  0  0
  -24.0270  -10.5990   20.9660 C   0  0  0  0  0  0  0  0  0  0  0  0
  -24.4440   -9.6200   21.8970 C   0  0  0  0  0  3  0  0  0  0  0  0
  -23.6970   -8.4350   22.0770 C   0  0  0  0  0  3  0  0  0  0  0  0
  -22.5180   -8.2200   21.3240 C   0  0  0  0  0  0  0  0  0  0  0  0
  -22.1190   -9.1860   20.3820 C   0  0  0  0  0  3  0  0  0  0  0  0
  -22.8660  -10.3610   20.2030 C   0  0  0  0  0  3  0  0  0  0  0  0
  -21.7420   -7.0880   21.4120 O   0  0  0  0  0  0  0  0  0  0  0  0
  -21.6810   -6.3430   22.5620 C   0  0  0  0  0  0  0  0  0  0  0  0
  -21.2670   -6.9030   23.7910 C   0  0  0  0  0  3  0  0  0  0  0  0
  -21.1540   -6.0860   24.9340 C   0  0  0  0  0  3  0  0  0  0  0  0
  -21.4440   -4.7110   24.8480 C   0  0  0  0  0  0  0  0  0  0  0  0
  -21.8490   -4.1510   23.6250 C   0  0  0  0  0  3  0  0  0  0  0  0
  -21.9650   -4.9660   22.4840 C   0  0  0  0  0  0  0  0  0  0  0  0
  -22.3350   -4.4180   21.3010 F   0  0  0  0  0  0  0  0  0  0  0  0
  -21.3270   -3.9240   25.9430 F   0  0  0  0  0  0  0  0  0  0  0  0
  -22.9640  -13.7090   21.0850 C   0  0  0  0  0  0  0  0  0  0  0  0
  -22.2250  -13.0280   21.9570 N   0  0  0  0  0  0  0  0  0  0  0  0
  -22.5430  -14.7410   20.5640 O   0  0  0  0  0  0  0  0  0  0  0  0
  -22.5790  -12.1950   22.4020 H   0  0  0  0  0  0  0  0  0  0  0  0
  -21.2930  -13.3470   22.1790 H   0  0  0  0  0  0  0  0  0  0  0  0
  -25.6250  -15.3200   20.2540 N   0  0  0  0  0  0  0  0  0  0  0  0
  -24.8690  -15.9900   20.3600 H   0  0  0  0  0  0  0  0  0  0  0  0
  -26.4790  -15.7370   19.9040 H   0  0  0  0  0  0  0  0  0  0  0  0
  -28.1010  -23.6930   18.3320 C   0  0  0  0  0  3  0  0  0  0  0  0
  -27.3030  -21.3220   18.2520 C   0  0  0  0  0  0  0  0  0  0  0  0
  -26.9760  -20.0860   19.0740 C   0  0  0  0  0  1  0  0  0  0  0  0
  -27.7440  -22.3970   18.9170 N   0  0  0  0  0  0  0  0  0  0  0  0
  -27.1620  -21.2960   17.0290 O   0  0  0  0  0  0  0  0  0  0  0  0
  -27.7800  -22.3350   19.9240 H   0  0  0  0  0  0  0  0  0  0  0  0
  -28.5400  -24.6380   19.4700 C   0  0  0  0  0  2  0  0  0  0  0  0
  -28.7800  -26.0750   18.9780 C   0  0  0  0  0  2  0  0  0  0  0  0
  -28.5560  -27.0230   20.0050 O   0  0  0  0  0  0  0  0  0  0  0  0
  -24.6830  -31.9780   23.2090 C   0  0  0  0  0  0  0  0  0  0  0  0
  -27.3320  -27.6510   20.0330 C   0  0  0  0  0  0  0  0  0  0  0  0
  -23.4530  -30.5600   21.5960 C   0  0  0  0  0  3  0  0  0  0  0  0
  -24.8940  -29.0690   20.1130 C   0  0  0  0  0  0  0  0  0  0  0  0
  -25.9560  -30.9830   21.3230 C   0  0  0  0  0  2  0  0  0  0  0  0
  -26.0480  -29.6170   20.6820 C   0  0  0  0  0  0  0  0  0  0  0  0
  -27.2630  -28.9070   20.6560 C   0  0  0  0  0  3  0  0  0  0  0  0
  -26.1590  -27.0990   19.4620 C   0  0  0  0  0  3  0  0  0  0  0  0
  -24.9390  -27.8000   19.5070 C   0  0  0  0  0  3  0  0  0  0  0  0
  -23.6340  -29.9000   20.2020 C   0  0  0  0  0  2  0  0  0  0  0  0
  -24.7170  -31.1840   22.1030 N   0  0  0  0  0  0  0  0  0  0  0  0
  -23.6130  -32.2260   23.7820 O   0  0  0  0  0  0  0  0  0  0  0  0
  -22.8570  -29.5190   22.5670 C   0  0  0  0  0  0  0  0  0  0  0  0
  -21.5400  -29.2870   22.4610 N   0  0  0  0  0  0  0  0  0  0  0  0
  -23.5780  -28.9230   23.3720 O   0  0  0  0  0  0  0  0  0  0  0  0
  -21.0150  -29.8160   21.7770 H   0  0  0  0  0  0  0  0  0  0  0  0
  -18.2240  -27.9660   22.9880 C   0  0  0  0  0  0  0  0  0  0  0  0
  -20.7700  -28.3280   23.2470 C   0  0  0  0  0  3  0  0  0  0  0  0
  -20.9320  -26.8980   22.6820 C   0  0  0  0  0  2  0  0  0  0  0  0
  -19.8400  -26.5210   21.6780 C   0  0  0  0  0  2  0  0  0  0  0  0
  -18.4540  -26.6200   22.3240 C   0  0  0  0  0  2  0  0  0  0  0  0
  -19.3120  -28.7770   23.4070 C   0  0  0  0  0  0  0  0  0  0  0  0
  -19.0450  -30.0380   23.9830 C   0  0  0  0  0  3  0  0  0  0  0  0
  -17.7220  -30.4890   24.1490 C   0  0  0  0  0  3  0  0  0  0  0  0
  -16.6480  -29.6750   23.7500 C   0  0  0  0  0  3  0  0  0  0  0  0
  -16.8980  -28.4180   23.1720 C   0  0  0  0  0  3  0  0  0  0  0  0
  -25.9780  -32.6280   23.7900 C   0  0  0  0  0  3  0  0  0  0  0  0
  -25.6540  -34.0160   24.1430 N   0  0  0  0  0  0  0  0  0  0  0  0
  -25.9540  -35.0790   23.3850 C   0  0  0  0  0  0  0  0  0  0  0  0
  -26.6070  -34.9980   22.3420 O   0  0  0  0  0  0  0  0  0  0  0  0
  -25.0810  -34.1540   24.9620 H   0  0  0  0  0  0  0  0  0  0  0  0
  -24.2010  -36.8520   23.0620 C   0  0  0  0  0  1  0  0  0  0  0  0
  -25.4490  -36.4520   23.8640 C   0  0  0  0  0  3  0  0  0  0  0  0
  -27.5740  -37.3550   24.7020 C   0  0  0  0  0  1  0  0  0  0  0  0
  -26.4640  -37.5230   23.7650 N   0  0  0  0  0  0  0  0  0  0  0  0
  -26.0430  -38.4320   23.9300 H   0  0  0  0  0  0  0  0  0  0  0  0
  -26.5560  -31.8540   25.0380 C   0  0  1  0  0  0  0  0  0  0  0  0
  -25.5080  -31.5960   26.1460 C   0  0  0  0  0  1  0  0  0  0  0  0
  -27.1390  -30.4870   24.6100 C   0  0  0  0  0  1  0  0  0  0  0  0
  -27.7240  -32.6580   25.6600 C   0  0  0  0  0  1  0  0  0  0  0  0
  1  2  1  0
  1 51  1  0
  2  4  1  0
  3  1  2  0
  5  6  1  0
  5  2  1  0
  6  7  1  0
  7  8  1  0
  8  9  1  0
 10  9  1  0
 10 11  1  0
 11 12  1  0
 13 21  1  0
 14 19  1  0
 15 16  1  0
 15 14  1  0
 17 16  1  0
 17 26  1  0
 17 18  1  0
 19 13  1  0
 19 18  1  0
 20 13  2  0
 21 12  1  0
 21 22  1  0
 23 24  2  0
 24 43  1  0
 25 24  1  0
 25 28  1  0
 26 23  1  0
 26 27  1  0
 27 25  2  0
 28 29  1  0
 29 30  2  0
 31 34  1  0
 31 30  1  0
 32 31  2  0
 33 32  1  0
 33 28  2  0
 34 35  1  0
 35 36  1  0
 36 37  2  0
 38 37  1  0
 38 42  1  0
 39 38  2  0
 40 35  2  0
 40 39  1  0
 41 40  1  0
 43 44  1  0
 44 47  1  0
 44 46  1  0
 45 43  2  0
 48 49  1  0
 48 23  1  0
 50 48  1  0
 51 54  1  0
 51 57  1  0
 52 54  1  0
 52 53  1  0
 54 56  1  0
 55 52  2  0
 58 57  1  0
 58 59  1  0
 59 61  1  0
 60 71  2  0
 61 66  1  0
 62 70  1  0
 62 72  1  0
 63 69  1  0
 63 65  1  0
 64 70  1  0
 65 64  1  0
 66 65  2  0
 67 68  1  0
 67 61  2  0
 68 63  2  0
 69 62  1  0
 70 60  1  0
 72 74  2  0
 73 72  1  0
 75 73  1  0
 76 85  2  0
 76 81  1  0
 77 73  1  0
 77 81  1  0
 78 77  1  0
 79 80  1  0
 79 78  1  0
 80 76  1  0
 81 82  2  0
 82 83  1  0
 84 83  2  0
 85 84  1  0
 86 60  1  0
 86 87  1  0
 86 96  1  0
 87 90  1  0
 88 92  1  0
 88 87  1  0
 89 88  2  0
 92 91  1  0
 94 92  1  0
 94 95  1  0
 94 93  1  0
 96 99  1  1
 96 97  1  0
 98 96  1  0
M  ISO  4  13 100  21 100  58 101  59 101
M  END
>  <TORSDO>  (33) 
F 28

>  <SCORE>  (33) 
-11.240

>  <name>  (33) 
32

>  <ligand_id>  (33) 
32

>  <original_smiles>  (33) 
[H]c1c([H])c([H])c2c(c1[H])C([H])([H])C([H])([H])C([H])([H])C2([H])N([H])C(=O)C1([H])N(C(=O)C([H])(N([H])C(=O)C([H])(N([H])C([H])([H])[H])C([H])([H])[H])C(C([H])([H])[H])(C([H])([H])[H])C([H])([H])[H])C([H])([H])c2c([H])c(OC([H])([H])C([H])([H])C([H])(C(=O)N([H])C([H])([H])C([H])([H])OC([H])([H])C([H])([H])OC([H])([H])C([H])([H])N([H])C(=O)N3C([H])([H])C([H])([H])C([H])([H])C([H])(n4nc(-c5c([H])c([H])c(Oc6c([H])c([H])c(F)c([H])c6F)c([H])c5[H])c(C(=O)N([H])[H])c4N([H])[H])C3([H])[H])N([H])C(=O)C([H])([H])[H])c([H])c([H])c2C1([H])[H]

>  <smiles>  (33) 
[H]c1c([H])c([H])c2c(c1[H])C([H])([H])C([H])([H])C([H])([H])C2([H])N([H])C(=O)C1([H])N(C(=O)C([H])(N([H])C(=O)C([H])(N([H])C([H])([H])[H])C([H])([H])[H])C(C([H])([H])[H])(C([H])([H])[H])C([H])([H])[H])C([H])([H])c2c([H])c(OC([H])([H])C([H])([H])C([H])(C(=O)N([H])C([H])([H])C([H])([H])OC([H])([H])C([H])([H])OC([H])([H])C([H])([H])N([H])C(=O)N3C([H])([H])C([H])([H])C([H])([H])C([H])(n4nc(-c5c([H])c([H])c(Oc6c([H])c([H])c(F)c([H])c6F)c([H])c5[H])c(C(=O)N([H])[H])c4N([H])[H])C3([H])[H])N([H])C(=O)C([H])([H])[H])c([H])c([H])c2C1([H])[H]

$$$$
33:0:0
     RDKit          3D

104111  0  0  1  0  0  0  0  0999 V2000
  -25.7780  -20.3890   19.7400 N   0  0  0  0  0  4  0  0  0  0  0  0
  -25.1120  -20.6190   19.0180 H   0  0  0  0  0  0  0  0  0  0  0  0
  -25.2890  -20.4680   20.6160 H   0  0  0  0  0  0  0  0  0  0  0  0
  -26.1460  -18.9630   19.5940 C   0  0  0  0  0  3  0  0  0  0  0  0
  -24.8860  -18.1140   19.7630 C   0  0  0  0  0  0  0  0  0  0  0  0
  -24.9810  -16.9920   20.4590 N   0  0  0  0  0  0  0  0  0  0  0  0
  -23.8150  -18.4870   19.2860 O   0  0  0  0  0  0  0  0  0  0  0  0
  -25.8640  -16.6820   20.8620 H   0  0  0  0  0  0  0  0  0  0  0  0
  -24.1600  -16.4340   20.6490 H   0  0  0  0  0  0  0  0  0  0  0  0
  -26.8320  -18.6690   18.2370 C   0  0  0  0  0  2  0  0  0  0  0  0
  -28.2320  -18.4850   18.4560 O   0  0  0  0  0  0  0  0  0  0  0  0
  -28.6430  -17.1190   18.4710 C   0  0  0  0  0  2  0  0  0  0  0  0
  -29.8250  -16.9590   19.4340 C   0  0  0  0  0  2  0  0  0  0  0  0
  -29.3240  -16.5580   20.7060 O   0  0  0  0  0  0  0  0  0  0  0  0
  -30.2330  -16.7340   21.7940 C   0  0  0  0  0  2  0  0  0  0  0  0
  -31.4250  -15.7580   21.7650 C   0  0  0  0  0  2  0  0  0  0  0  0
  -31.4710  -13.4530   20.8230 C   0  0  0  0  0  0  0  0  0  0  0  0
  -30.9790  -11.3760   19.6030 C   0  0  0  0  0  2  0  0  0  0  0  0
  -30.1040  -11.6850   18.3730 C   0  0  0  0  0  2  0  0  0  0  0  0
  -28.6100  -11.7130   18.7450 C   0  0  0  0  0  2  0  0  0  0  0  0
  -28.3250  -12.5920   19.9920 C   0  0  0  0  0  3  0  0  0  0  0  0
  -29.2960  -12.2250   21.1360 C   0  0  0  0  0  2  0  0  0  0  0  0
  -30.6770  -12.3720   20.6370 N   0  0  0  0  0  0  0  0  0  0  0  0
  -32.5590  -13.6130   20.2610 O   0  0  0  0  0  0  0  0  0  0  0  0
  -30.9530  -14.3850   21.6260 N   0  0  0  0  0  0  0  0  0  0  0  0
  -30.0750  -14.1570   22.0690 H   0  0  0  0  0  0  0  0  0  0  0  0
  -26.0060  -13.4860   20.6870 C   0  0  0  0  0  0  0  0  0  0  0  0
  -24.8300  -12.8460   20.9700 C   0  0  0  0  0  0  0  0  0  0  0  0
  -25.1040  -11.4490   20.8530 C   0  0  0  0  0  0  0  0  0  0  0  0
  -26.9280  -12.4850   20.4110 N   0  0  0  0  0  0  0  0  0  0  0  0
  -26.3850  -11.2520   20.5730 N   0  0  0  0  0  0  0  0  0  0  0  0
  -24.2090  -10.2900   20.9450 C   0  0  0  0  0  0  0  0  0  0  0  0
  -24.4280   -9.2620   21.8880 C   0  0  0  0  0  3  0  0  0  0  0  0
  -23.5430   -8.1650   21.9680 C   0  0  0  0  0  3  0  0  0  0  0  0
  -22.4210   -8.0940   21.1080 C   0  0  0  0  0  0  0  0  0  0  0  0
  -22.2210   -9.1090   20.1560 C   0  0  0  0  0  3  0  0  0  0  0  0
  -23.1040  -10.1960   20.0750 C   0  0  0  0  0  3  0  0  0  0  0  0
  -21.5230   -7.0560   21.0980 O   0  0  0  0  0  0  0  0  0  0  0  0
  -21.1820   -6.3840   22.2450 C   0  0  0  0  0  0  0  0  0  0  0  0
  -20.6280   -7.0450   23.3630 C   0  0  0  0  0  3  0  0  0  0  0  0
  -20.2330   -6.3050   24.4960 C   0  0  0  0  0  3  0  0  0  0  0  0
  -20.3790   -4.9040   24.5100 C   0  0  0  0  0  0  0  0  0  0  0  0
  -20.9230   -4.2440   23.3950 C   0  0  0  0  0  3  0  0  0  0  0  0
  -21.3210   -4.9830   22.2650 C   0  0  0  0  0  0  0  0  0  0  0  0
  -21.8260   -4.3360   21.1860 F   0  0  0  0  0  0  0  0  0  0  0  0
  -19.9900   -4.1920   25.5940 F   0  0  0  0  0  0  0  0  0  0  0  0
  -23.5000  -13.4880   21.2460 C   0  0  0  0  0  0  0  0  0  0  0  0
  -22.6770  -12.8630   22.0800 N   0  0  0  0  0  0  0  0  0  0  0  0
  -23.2040  -14.5750   20.7560 O   0  0  0  0  0  0  0  0  0  0  0  0
  -22.9300  -11.9780   22.4940 H   0  0  0  0  0  0  0  0  0  0  0  0
  -21.7830  -13.2750   22.3100 H   0  0  0  0  0  0  0  0  0  0  0  0
  -26.3700  -14.8290   20.6470 N   0  0  0  0  0  0  0  0  0  0  0  0
  -25.9050  -15.3610   21.3740 H   0  0  0  0  0  0  0  0  0  0  0  0
  -27.3700  -15.0020   20.6620 H   0  0  0  0  0  0  0  0  0  0  0  0
  -26.9090  -21.3410   19.7320 C   0  0  0  0  0  2  0  0  0  0  0  0
  -26.4320  -22.8090   19.7600 C   0  0  0  0  0  3  0  0  0  0  0  0
  -25.6800  -23.1200   20.9960 N   0  0  0  0  0  0  0  0  0  0  0  0
  -26.2770  -23.0160   21.8220 H   0  0  0  0  0  0  0  0  0  0  0  0
  -24.8980  -22.4830   21.1490 H   0  0  0  0  0  0  0  0  0  0  0  0
  -27.6390  -23.7500   19.6190 C   0  0  0  0  0  2  0  0  0  0  0  0
  -27.1970  -25.0930   19.7820 O   0  0  0  0  0  0  0  0  0  0  0  0
  -28.2310  -26.0470   19.5680 C   0  0  0  0  0  2  0  0  0  0  0  0
  -28.2010  -26.6210   18.1340 C   0  0  0  0  0  2  0  0  0  0  0  0
  -27.8790  -28.0060   18.1480 O   0  0  0  0  0  0  0  0  0  0  0  0
  -24.2350  -31.5150   23.1020 C   0  0  0  0  0  0  0  0  0  0  0  0
  -26.6310  -28.4180   18.5520 C   0  0  0  0  0  0  0  0  0  0  0  0
  -22.8610  -30.4000   21.3690 C   0  0  0  0  0  3  0  0  0  0  0  0
  -24.1420  -29.4740   19.3700 C   0  0  0  0  0  0  0  0  0  0  0  0
  -25.2430  -31.1660   20.8520 C   0  0  0  0  0  2  0  0  0  0  0  0
  -25.3320  -30.0150   19.8730 C   0  0  0  0  0  0  0  0  0  0  0  0
  -26.5730  -29.4950   19.4580 C   0  0  0  0  0  3  0  0  0  0  0  0
  -25.4260  -27.8700   18.0580 C   0  0  0  0  0  3  0  0  0  0  0  0
  -24.1820  -28.3990   18.4650 C   0  0  0  0  0  3  0  0  0  0  0  0
  -22.8540  -30.1050   19.8450 C   0  0  0  0  0  2  0  0  0  0  0  0
  -24.1420  -31.0280   21.8320 N   0  0  0  0  0  0  0  0  0  0  0  0
  -23.2620  -31.4870   23.8700 O   0  0  0  0  0  0  0  0  0  0  0  0
  -22.5090  -29.0960   22.1180 C   0  0  0  0  0  0  0  0  0  0  0  0
  -21.2320  -28.6910   22.0440 N   0  0  0  0  0  0  0  0  0  0  0  0
  -23.3770  -28.4600   22.7220 O   0  0  0  0  0  0  0  0  0  0  0  0
  -20.5800  -29.2710   21.5350 H   0  0  0  0  0  0  0  0  0  0  0  0
  -18.2390  -26.6910   22.3110 C   0  0  0  0  0  0  0  0  0  0  0  0
  -20.6820  -27.4730   22.6350 C   0  0  0  0  0  3  0  0  0  0  0  0
  -21.0840  -26.2250   21.8140 C   0  0  0  0  0  2  0  0  0  0  0  0
  -20.0450  -25.8390   20.7570 C   0  0  0  0  0  2  0  0  0  0  0  0
  -18.6910  -25.5540   21.4110 C   0  0  0  0  0  2  0  0  0  0  0  0
  -19.1730  -27.6010   22.8740 C   0  0  0  0  0  0  0  0  0  0  0  0
  -18.6960  -28.6610   23.6740 C   0  0  0  0  0  3  0  0  0  0  0  0
  -17.3180  -28.8160   23.9210 C   0  0  0  0  0  3  0  0  0  0  0  0
  -16.4010  -27.9010   23.3770 C   0  0  0  0  0  3  0  0  0  0  0  0
  -16.8620  -26.8420   22.5750 C   0  0  0  0  0  3  0  0  0  0  0  0
  -25.5550  -32.1460   23.6440 C   0  0  0  0  0  3  0  0  0  0  0  0
  -25.2210  -33.4630   24.2000 N   0  0  0  0  0  0  0  0  0  0  0  0
  -25.4520  -34.6280   23.5820 C   0  0  0  0  0  0  0  0  0  0  0  0
  -26.0410  -34.7080   22.4990 O   0  0  0  0  0  0  0  0  0  0  0  0
  -24.6870  -33.4740   25.0560 H   0  0  0  0  0  0  0  0  0  0  0  0
  -23.6430  -36.3730   23.6090 C   0  0  0  0  0  1  0  0  0  0  0  0
  -24.9480  -35.9080   24.2730 C   0  0  0  0  0  3  0  0  0  0  0  0
  -27.1010  -36.7490   25.0980 C   0  0  0  0  0  1  0  0  0  0  0  0
  -25.9320  -37.0120   24.2620 N   0  0  0  0  0  0  0  0  0  0  0  0
  -25.5060  -37.8780   24.5780 H   0  0  0  0  0  0  0  0  0  0  0  0
  -26.2730  -31.2500   24.7260 C   0  0  1  0  0  0  0  0  0  0  0  0
  -25.3430  -30.8020   25.8780 C   0  0  0  0  0  1  0  0  0  0  0  0
  -26.8600  -29.9800   24.0680 C   0  0  0  0  0  1  0  0  0  0  0  0
  -27.4630  -32.0240   25.3410 C   0  0  0  0  0  1  0  0  0  0  0  0
  1  3  1  0
  2  1  1  0
  4 10  1  0
  4  1  1  0
  4  5  1  0
  5  6  1  0
  6  9  1  0
  6  8  1  0
  7  5  2  0
 10 11  1  0
 11 12  1  0
 12 13  1  0
 13 14  1  0
 14 15  1  0
 16 15  1  0
 17 25  1  0
 18 23  1  0
 19 20  1  0
 19 18  1  0
 21 20  1  0
 21 30  1  0
 21 22  1  0
 23 17  1  0
 23 22  1  0
 24 17  2  0
 25 16  1  0
 25 26  1  0
 27 28  2  0
 28 47  1  0
 29 32  1  0
 29 28  1  0
 30 31  1  0
 30 27  1  0
 31 29  2  0
 32 33  1  0
 33 34  2  0
 35 34  1  0
 36 35  2  0
 37 36  1  0
 37 32  2  0
 38 35  1  0
 38 39  1  0
 39 44  2  0
 39 40  1  0
 40 41  2  0
 41 42  1  0
 42 46  1  0
 43 42  2  0
 44 43  1  0
 45 44  1  0
 47 48  1  0
 48 51  1  0
 48 50  1  0
 49 47  2  0
 52 54  1  0
 52 27  1  0
 52 53  1  0
 55  1  1  0
 55 56  1  0
 56 60  1  0
 56 57  1  0
 57 59  1  0
 57 58  1  0
 60 61  1  0
 62 61  1  0
 63 64  1  0
 63 62  1  0
 64 66  1  0
 65 76  2  0
 66 71  1  0
 67 75  1  0
 67 77  1  0
 68 74  1  0
 68 70  1  0
 69 75  1  0
 70 69  1  0
 71 70  2  0
 72 73  1  0
 72 66  2  0
 73 68  2  0
 74 67  1  0
 75 65  1  0
 77 79  2  0
 78 77  1  0
 80 78  1  0
 81 90  2  0
 81 86  1  0
 82 78  1  0
 82 86  1  0
 83 82  1  0
 84 85  1  0
 84 83  1  0
 85 81  1  0
 86 87  2  0
 87 88  1  0
 89 88  2  0
 90 89  1  0
 91 65  1  0
 91 92  1  0
 91101  1  0
 92 95  1  0
 93 92  1  0
 93 97  1  0
 94 93  2  0
 97 96  1  0
 99 97  1  0
 99100  1  0
 99 98  1  0
101104  1  1
101102  1  0
103101  1  0
M  ISO  4  17 100  25 100  63 101  64 101
M  END
>  <TORSDO>  (34) 
F 32

>  <SCORE>  (34) 
-4.590

>  <name>  (34) 
33

>  <ligand_id>  (34) 
33

>  <original_smiles>  (34) 
[H]c1c([H])c([H])c2c(c1[H])C([H])([H])C([H])([H])C([H])([H])C2([H])N([H])C(=O)C1([H])N(C(=O)C([H])(N([H])C(=O)C([H])(N([H])C([H])([H])[H])C([H])([H])[H])C(C([H])([H])[H])(C([H])([H])[H])C([H])([H])[H])C([H])([H])c2c([H])c(OC([H])([H])C([H])([H])OC([H])([H])C([H])(N([H])[H])C([H])([H])[N+]([H])([H])C([H])(C(=O)N([H])[H])C([H])([H])OC([H])([H])C([H])([H])OC([H])([H])C([H])([H])N([H])C(=O)N3C([H])([H])C([H])([H])C([H])([H])C([H])(n4nc(-c5c([H])c([H])c(Oc6c([H])c([H])c(F)c([H])c6F)c([H])c5[H])c(C(=O)N([H])[H])c4N([H])[H])C3([H])[H])c([H])c([H])c2C1([H])[H]

>  <smiles>  (34) 
[H]c1c([H])c([H])c2c(c1[H])C([H])([H])C([H])([H])C([H])([H])C2([H])N([H])C(=O)C1([H])N(C(=O)C([H])(N([H])C(=O)C([H])(N([H])C([H])([H])[H])C([H])([H])[H])C(C([H])([H])[H])(C([H])([H])[H])C([H])([H])[H])C([H])([H])c2c([H])c(OC([H])([H])C([H])([H])OC([H])([H])C([H])(N([H])[H])C([H])([H])[N+]([H])([H])C([H])(C(=O)N([H])[H])C([H])([H])OC([H])([H])C([H])([H])OC([H])([H])C([H])([H])N([H])C(=O)N3C([H])([H])C([H])([H])C([H])([H])C([H])(n4nc(-c5c([H])c([H])c(Oc6c([H])c([H])c(F)c([H])c6F)c([H])c5[H])c(C(=O)N([H])[H])c4N([H])[H])C3([H])[H])c([H])c([H])c2C1([H])[H]

$$$$
34:0:0
     RDKit          3D

 94101  0  0  1  0  0  0  0  0999 V2000
  -29.8500  -18.1320   20.9690 C   0  0  0  0  0  0  0  0  0  0  0  0
  -30.0540  -19.4240   20.6190 N   0  0  0  0  0  0  0  0  0  0  0  0
  -29.4040  -17.8280   22.0780 O   0  0  0  0  0  0  0  0  0  0  0  0
  -30.4560  -19.5990   19.7080 H   0  0  0  0  0  0  0  0  0  0  0  0
  -29.6050  -20.6130   21.3690 C   0  0  0  0  0  2  0  0  0  0  0  0
  -29.9680  -21.9580   20.6740 C   0  0  0  0  0  2  0  0  0  0  0  0
  -29.1710  -23.0470   21.1700 O   0  0  0  0  0  0  0  0  0  0  0  0
  -29.5700  -24.3700   20.7530 C   0  0  0  0  0  2  0  0  0  0  0  0
  -28.3310  -25.2310   20.3810 C   0  0  0  0  0  2  0  0  0  0  0  0
  -28.4890  -26.6690   20.4750 O   0  0  0  0  0  0  0  0  0  0  0  0
  -24.6100  -31.9270   23.3690 C   0  0  0  0  0  0  0  0  0  0  0  0
  -27.3270  -27.4280   20.4030 C   0  0  0  0  0  0  0  0  0  0  0  0
  -23.4410  -30.4970   21.7280 C   0  0  0  0  0  3  0  0  0  0  0  0
  -24.9270  -28.9510   20.3470 C   0  0  0  0  0  0  0  0  0  0  0  0
  -25.9730  -30.8590   21.5700 C   0  0  0  0  0  2  0  0  0  0  0  0
  -26.0760  -29.4800   20.9460 C   0  0  0  0  0  0  0  0  0  0  0  0
  -27.2800  -28.7300   20.9650 C   0  0  0  0  0  3  0  0  0  0  0  0
  -26.1520  -26.9280   19.7900 C   0  0  0  0  0  3  0  0  0  0  0  0
  -24.9620  -27.6750   19.7630 C   0  0  0  0  0  3  0  0  0  0  0  0
  -23.6780  -29.8030   20.3610 C   0  0  0  0  0  2  0  0  0  0  0  0
  -24.6920  -31.1110   22.2800 N   0  0  0  0  0  0  0  0  0  0  0  0
  -23.5180  -32.2010   23.8840 O   0  0  0  0  0  0  0  0  0  0  0  0
  -22.7760  -29.4840   22.6910 C   0  0  0  0  0  0  0  0  0  0  0  0
  -21.4630  -29.2660   22.5170 N   0  0  0  0  0  0  0  0  0  0  0  0
  -23.4430  -28.8990   23.5470 O   0  0  0  0  0  0  0  0  0  0  0  0
  -20.9860  -29.7920   21.7980 H   0  0  0  0  0  0  0  0  0  0  0  0
  -18.1050  -27.9850   22.9060 C   0  0  0  0  0  0  0  0  0  0  0  0
  -20.6390  -28.3300   23.2830 C   0  0  0  0  0  3  0  0  0  0  0  0
  -20.8100  -26.8840   22.7610 C   0  0  0  0  0  2  0  0  0  0  0  0
  -19.7640  -26.4940   21.7100 C   0  0  0  0  0  2  0  0  0  0  0  0
  -18.3510  -26.6190   22.2860 C   0  0  0  0  0  2  0  0  0  0  0  0
  -19.1800  -28.7940   23.3590 C   0  0  0  0  0  0  0  0  0  0  0  0
  -18.8970  -30.0700   23.8950 C   0  0  0  0  0  3  0  0  0  0  0  0
  -17.5720  -30.5360   23.9840 C   0  0  0  0  0  3  0  0  0  0  0  0
  -16.5120  -29.7240   23.5480 C   0  0  0  0  0  3  0  0  0  0  0  0
  -16.7780  -28.4510   23.0150 C   0  0  0  0  0  3  0  0  0  0  0  0
  -25.8810  -32.5740   24.0010 C   0  0  0  0  0  3  0  0  0  0  0  0
  -25.5660  -33.9820   24.2820 N   0  0  0  0  0  0  0  0  0  0  0  0
  -25.9260  -35.0110   23.5030 C   0  0  0  0  0  0  0  0  0  0  0  0
  -26.6270  -34.8750   22.4960 O   0  0  0  0  0  0  0  0  0  0  0  0
  -24.9480  -34.1600   25.0600 H   0  0  0  0  0  0  0  0  0  0  0  0
  -24.2240  -36.8020   23.0340 C   0  0  0  0  0  1  0  0  0  0  0  0
  -25.4290  -36.4140   23.9050 C   0  0  0  0  0  3  0  0  0  0  0  0
  -27.5320  -37.3110   24.8000 C   0  0  0  0  0  1  0  0  0  0  0  0
  -26.4720  -37.4570   23.8060 N   0  0  0  0  0  0  0  0  0  0  0  0
  -26.0650  -38.3830   23.9090 H   0  0  0  0  0  0  0  0  0  0  0  0
  -26.3660  -31.8400   25.3110 C   0  0  1  0  0  0  0  0  0  0  0  0
  -25.2460  -31.6270   26.3560 C   0  0  0  0  0  1  0  0  0  0  0  0
  -26.9640  -30.4540   24.9710 C   0  0  0  0  0  1  0  0  0  0  0  0
  -27.4960  -32.6570   25.9810 C   0  0  0  0  0  1  0  0  0  0  0  0
  -30.1790  -17.0150   19.9310 C   0  0  0  0  0  3  0  0  0  0  0  0
  -30.7140  -14.5810   20.2160 C   0  0  0  0  0  0  0  0  0  0  0  0
  -30.3930  -12.4450   19.0420 C   0  0  0  0  0  2  0  0  0  0  0  0
  -29.4180  -12.7020   17.8720 C   0  0  0  0  0  2  0  0  0  0  0  0
  -27.9560  -12.5550   18.3370 C   0  0  0  0  0  2  0  0  0  0  0  0
  -27.6570  -13.3400   19.6410 C   0  0  0  0  0  3  0  0  0  0  0  0
  -28.7450  -13.0900   20.7120 C   0  0  0  0  0  2  0  0  0  0  0  0
  -30.0530  -13.3970   20.1110 N   0  0  0  0  0  0  0  0  0  0  0  0
  -31.8790  -14.7340   19.8450 O   0  0  0  0  0  0  0  0  0  0  0  0
  -29.9090  -15.6410   20.3990 N   0  0  0  0  0  0  0  0  0  0  0  0
  -28.9510  -15.4640   20.6520 H   0  0  0  0  0  0  0  0  0  0  0  0
  -25.2700  -13.9300   20.4000 C   0  0  0  0  0  0  0  0  0  0  0  0
  -24.2170  -13.1490   20.7940 C   0  0  0  0  0  0  0  0  0  0  0  0
  -24.6880  -11.8010   20.7540 C   0  0  0  0  0  0  0  0  0  0  0  0
  -26.3170  -13.0560   20.1490 N   0  0  0  0  0  0  0  0  0  0  0  0
  -25.9720  -11.7720   20.4200 N   0  0  0  0  0  0  0  0  0  0  0  0
  -23.9770  -10.5320   20.9560 C   0  0  0  0  0  0  0  0  0  0  0  0
  -24.4200   -9.5800   21.9000 C   0  0  0  0  0  3  0  0  0  0  0  0
  -23.7080   -8.3750   22.0900 C   0  0  0  0  0  3  0  0  0  0  0  0
  -22.5400   -8.1160   21.3360 C   0  0  0  0  0  0  0  0  0  0  0  0
  -22.1160   -9.0560   20.3800 C   0  0  0  0  0  3  0  0  0  0  0  0
  -22.8290  -10.2520   20.1890 C   0  0  0  0  0  3  0  0  0  0  0  0
  -21.7990   -6.9620   21.4340 O   0  0  0  0  0  0  0  0  0  0  0  0
  -21.7430   -6.2400   22.5990 C   0  0  0  0  0  0  0  0  0  0  0  0
  -21.2720   -6.8070   23.8050 C   0  0  0  0  0  3  0  0  0  0  0  0
  -21.1650   -6.0100   24.9620 C   0  0  0  0  0  3  0  0  0  0  0  0
  -21.5180   -4.6480   24.9150 C   0  0  0  0  0  0  0  0  0  0  0  0
  -21.9830   -4.0820   23.7150 C   0  0  0  0  0  3  0  0  0  0  0  0
  -22.0920   -4.8750   22.5600 C   0  0  0  0  0  0  0  0  0  0  0  0
  -22.5200   -4.3200   21.4010 F   0  0  0  0  0  0  0  0  0  0  0  0
  -21.4080   -3.8800   26.0240 F   0  0  0  0  0  0  0  0  0  0  0  0
  -22.8200  -13.6140   21.0920 C   0  0  0  0  0  0  0  0  0  0  0  0
  -22.1110  -12.9110   21.9670 N   0  0  0  0  0  0  0  0  0  0  0  0
  -22.3650  -14.6370   20.5820 O   0  0  0  0  0  0  0  0  0  0  0  0
  -22.4920  -12.0840   22.4050 H   0  0  0  0  0  0  0  0  0  0  0  0
  -21.1750  -13.2060   22.2060 H   0  0  0  0  0  0  0  0  0  0  0  0
  -25.4180  -15.3020   20.2140 N   0  0  0  0  0  0  0  0  0  0  0  0
  -24.6330  -15.9370   20.3150 H   0  0  0  0  0  0  0  0  0  0  0  0
  -26.2230  -15.7410   19.7790 H   0  0  0  0  0  0  0  0  0  0  0  0
  -29.2440  -17.2160   18.7220 C   0  0  0  0  0  0  0  0  0  0  0  0
  -29.7810  -17.6470   17.5850 N   0  0  0  0  0  0  0  0  0  0  0  0
  -28.0460  -16.9350   18.7880 O   0  0  0  0  0  0  0  0  0  0  0  0
  -30.7730  -17.8260   17.5140 H   0  0  0  0  0  0  0  0  0  0  0  0
  -29.2050  -17.7680   16.7640 H   0  0  0  0  0  0  0  0  0  0  0  0
  1  3  2  0
  2  1  1  0
  2  5  1  0
  4  2  1  0
  6  7  1  0
  6  5  1  0
  8  7  1  0
  9 10  1  0
  9  8  1  0
 11 22  2  0
 12 10  1  0
 12 17  1  0
 13 21  1  0
 13 23  1  0
 14 20  1  0
 14 16  1  0
 15 21  1  0
 16 17  2  0
 16 15  1  0
 18 12  2  0
 19 18  1  0
 19 14  2  0
 20 13  1  0
 21 11  1  0
 23 25  2  0
 24 23  1  0
 26 24  1  0
 27 36  2  0
 27 32  1  0
 28 24  1  0
 28 32  1  0
 29 28  1  0
 30 31  1  0
 30 29  1  0
 31 27  1  0
 32 33  2  0
 33 34  1  0
 35 34  2  0
 36 35  1  0
 37 11  1  0
 37 38  1  0
 37 47  1  0
 38 41  1  0
 39 43  1  0
 39 38  1  0
 40 39  2  0
 43 42  1  0
 45 43  1  0
 45 46  1  0
 45 44  1  0
 47 50  1  1
 47 48  1  0
 49 47  1  0
 51 90  1  0
 51 60  1  0
 51  1  1  0
 52 60  1  0
 53 58  1  0
 54 55  1  0
 54 53  1  0
 56 55  1  0
 56 65  1  0
 56 57  1  0
 58 52  1  0
 58 57  1  0
 59 52  2  0
 60 61  1  0
 62 63  2  0
 63 82  1  0
 64 63  1  0
 64 67  1  0
 65 62  1  0
 65 66  1  0
 66 64  2  0
 67 68  1  0
 68 69  2  0
 70 73  1  0
 70 69  1  0
 71 70  2  0
 72 71  1  0
 72 67  2  0
 73 74  1  0
 74 75  1  0
 75 76  2  0
 77 76  1  0
 77 81  1  0
 78 77  2  0
 79 74  2  0
 79 78  1  0
 80 79  1  0
 82 83  1  0
 83 86  1  0
 83 85  1  0
 84 82  2  0
 87 88  1  0
 87 62  1  0
 89 87  1  0
 90 92  2  0
 91 90  1  0
 93 91  1  0
 94 91  1  0
M  ISO  4   9 101  10 101  52 100  60 100
M  END
>  <TORSDO>  (35) 
F 23

>  <SCORE>  (35) 
-12.266

>  <name>  (35) 
34

>  <ligand_id>  (35) 
34

>  <original_smiles>  (35) 
[H]c1c([H])c([H])c2c(c1[H])C([H])([H])C([H])([H])C([H])([H])C2([H])N([H])C(=O)C1([H])N(C(=O)C([H])(N([H])C(=O)C([H])(N([H])C([H])([H])[H])C([H])([H])[H])C(C([H])([H])[H])(C([H])([H])[H])C([H])([H])[H])C([H])([H])c2c([H])c(OC([H])([H])C([H])([H])OC([H])([H])C([H])([H])N([H])C(=O)C([H])(C(=O)N([H])[H])N([H])C(=O)N3C([H])([H])C([H])([H])C([H])([H])C([H])(n4nc(-c5c([H])c([H])c(Oc6c([H])c([H])c(F)c([H])c6F)c([H])c5[H])c(C(=O)N([H])[H])c4N([H])[H])C3([H])[H])c([H])c([H])c2C1([H])[H]

>  <smiles>  (35) 
[H]c1c([H])c([H])c2c(c1[H])C([H])([H])C([H])([H])C([H])([H])C2([H])N([H])C(=O)C1([H])N(C(=O)C([H])(N([H])C(=O)C([H])(N([H])C([H])([H])[H])C([H])([H])[H])C(C([H])([H])[H])(C([H])([H])[H])C([H])([H])[H])C([H])([H])c2c([H])c(OC([H])([H])C([H])([H])OC([H])([H])C([H])([H])N([H])C(=O)C([H])(C(=O)N([H])[H])N([H])C(=O)N3C([H])([H])C([H])([H])C([H])([H])C([H])(n4nc(-c5c([H])c([H])c(Oc6c([H])c([H])c(F)c([H])c6F)c([H])c5[H])c(C(=O)N([H])[H])c4N([H])[H])C3([H])[H])c([H])c([H])c2C1([H])[H]

$$$$
36:0:0
     RDKit          3D

 95102  0  0  1  0  0  0  0  0999 V2000
  -31.5780  -23.8580   15.7390 C   0  0  0  0  0  2  0  0  0  0  0  0
  -30.6390  -22.8100   15.9330 O   0  0  0  0  0  0  0  0  0  0  0  0
  -30.4310  -22.0180   14.7750 C   0  0  0  0  0  2  0  0  0  0  0  0
  -29.3590  -20.9770   15.1070 C   0  0  0  0  0  2  0  0  0  0  0  0
  -29.8770  -20.0460   16.0500 O   0  0  0  0  0  0  0  0  0  0  0  0
  -28.8750  -19.1610   16.5280 C   0  0  0  0  0  2  0  0  0  0  0  0
  -29.5210  -17.9660   17.2420 C   0  0  0  0  0  2  0  0  0  0  0  0
  -29.7280  -18.2170   18.6330 O   0  0  0  0  0  0  0  0  0  0  0  0
  -30.2980  -17.0830   19.2740 C   0  0  0  0  0  2  0  0  0  0  0  0
  -30.1250  -17.1260   20.8130 C   0  0  0  0  0  2  0  0  0  0  0  0
  -30.7980  -14.7600   21.1780 C   0  0  0  0  0  0  0  0  0  0  0  0
  -30.6830  -12.5480   20.1280 C   0  0  0  0  0  2  0  0  0  0  0  0
  -29.8790  -12.7080   18.8190 C   0  0  0  0  0  2  0  0  0  0  0  0
  -28.3630  -12.5670   19.0830 C   0  0  0  0  0  2  0  0  0  0  0  0
  -27.8760  -13.4340   20.2740 C   0  0  0  0  0  3  0  0  0  0  0  0
  -28.8050  -13.2590   21.4970 C   0  0  0  0  0  2  0  0  0  0  0  0
  -30.1840  -13.5560   21.0720 N   0  0  0  0  0  0  0  0  0  0  0  0
  -31.9700  -14.9650   20.8580 O   0  0  0  0  0  0  0  0  0  0  0  0
  -29.9540  -15.7810   21.3730 N   0  0  0  0  0  0  0  0  0  0  0  0
  -29.0160  -15.5260   21.6410 H   0  0  0  0  0  0  0  0  0  0  0  0
  -25.4050  -14.0230   20.7070 C   0  0  0  0  0  0  0  0  0  0  0  0
  -24.3130  -13.2430   20.9800 C   0  0  0  0  0  0  0  0  0  0  0  0
  -24.7930  -11.8990   21.0240 C   0  0  0  0  0  0  0  0  0  0  0  0
  -26.4800  -13.1540   20.6090 N   0  0  0  0  0  0  0  0  0  0  0  0
  -26.1080  -11.8710   20.8520 N   0  0  0  0  0  0  0  0  0  0  0  0
  -24.0650  -10.6300   21.1610 C   0  0  0  0  0  0  0  0  0  0  0  0
  -24.4340   -9.6690   22.1290 C   0  0  0  0  0  3  0  0  0  0  0  0
  -23.7110   -8.4650   22.2540 C   0  0  0  0  0  3  0  0  0  0  0  0
  -22.6010   -8.2130   21.4130 C   0  0  0  0  0  0  0  0  0  0  0  0
  -22.2490   -9.1620   20.4390 C   0  0  0  0  0  3  0  0  0  0  0  0
  -22.9750  -10.3580   20.3100 C   0  0  0  0  0  3  0  0  0  0  0  0
  -21.8520   -7.0610   21.4470 O   0  0  0  0  0  0  0  0  0  0  0  0
  -21.7410   -6.3070   22.5890 C   0  0  0  0  0  0  0  0  0  0  0  0
  -21.2530   -6.8520   23.7960 C   0  0  0  0  0  3  0  0  0  0  0  0
  -21.0880   -6.0260   24.9270 C   0  0  0  0  0  3  0  0  0  0  0  0
  -21.4020   -4.6550   24.8480 C   0  0  0  0  0  0  0  0  0  0  0  0
  -21.8840   -4.1100   23.6450 C   0  0  0  0  0  3  0  0  0  0  0  0
  -22.0480   -4.9340   22.5180 C   0  0  0  0  0  0  0  0  0  0  0  0
  -22.4920   -4.4000   21.3540 F   0  0  0  0  0  0  0  0  0  0  0  0
  -21.2390   -3.8580   25.9300 F   0  0  0  0  0  0  0  0  0  0  0  0
  -22.8900  -13.7060   21.1000 C   0  0  0  0  0  0  0  0  0  0  0  0
  -22.0860  -13.0200   21.9060 N   0  0  0  0  0  0  0  0  0  0  0  0
  -22.4930  -14.7100   20.5110 O   0  0  0  0  0  0  0  0  0  0  0  0
  -22.4150  -12.2080   22.4070 H   0  0  0  0  0  0  0  0  0  0  0  0
  -21.1280  -13.3140   22.0270 H   0  0  0  0  0  0  0  0  0  0  0  0
  -25.5700  -15.3930   20.5150 N   0  0  0  0  0  0  0  0  0  0  0  0
  -24.7860  -16.0370   20.5110 H   0  0  0  0  0  0  0  0  0  0  0  0
  -26.4420  -15.8340   20.2540 H   0  0  0  0  0  0  0  0  0  0  0  0
  -31.7180  -24.6020   17.0710 C   0  0  0  0  0  2  0  0  0  0  0  0
  -30.1180  -25.6010   18.6960 C   0  0  0  0  0  0  0  0  0  0  0  0
  -30.3950  -24.9990   17.5370 N   0  0  0  0  0  0  0  0  0  0  0  0
  -30.9990  -25.9480   19.4880 O   0  0  0  0  0  0  0  0  0  0  0  0
  -29.6180  -24.7210   16.9510 H   0  0  0  0  0  0  0  0  0  0  0  0
  -28.6330  -25.8380   18.9910 C   0  0  0  0  0  2  0  0  0  0  0  0
  -28.4750  -26.8040   20.0330 O   0  0  0  0  0  0  0  0  0  0  0  0
  -24.6110  -31.8650   23.2160 C   0  0  0  0  0  0  0  0  0  0  0  0
  -27.2660  -27.4630   20.0900 C   0  0  0  0  0  0  0  0  0  0  0  0
  -23.4040  -30.4670   21.5730 C   0  0  0  0  0  3  0  0  0  0  0  0
  -24.8550  -28.9370   20.1450 C   0  0  0  0  0  0  0  0  0  0  0  0
  -25.9270  -30.8330   21.3700 C   0  0  0  0  0  2  0  0  0  0  0  0
  -26.0110  -29.4630   20.7320 C   0  0  0  0  0  0  0  0  0  0  0  0
  -27.2160  -28.7280   20.7150 C   0  0  0  0  0  3  0  0  0  0  0  0
  -26.0810  -26.9320   19.5290 C   0  0  0  0  0  3  0  0  0  0  0  0
  -24.8810  -27.6640   19.5510 C   0  0  0  0  0  3  0  0  0  0  0  0
  -23.6110  -29.7920   20.1910 C   0  0  0  0  0  2  0  0  0  0  0  0
  -24.6660  -31.0700   22.1110 N   0  0  0  0  0  0  0  0  0  0  0  0
  -23.5300  -32.1320   23.7590 O   0  0  0  0  0  0  0  0  0  0  0  0
  -22.7590  -29.4390   22.5280 C   0  0  0  0  0  0  0  0  0  0  0  0
  -21.4320  -29.2650   22.4110 N   0  0  0  0  0  0  0  0  0  0  0  0
  -23.4480  -28.8000   23.3290 O   0  0  0  0  0  0  0  0  0  0  0  0
  -20.9380  -29.8330   21.7390 H   0  0  0  0  0  0  0  0  0  0  0  0
  -18.0550  -28.0920   22.9290 C   0  0  0  0  0  0  0  0  0  0  0  0
  -20.6170  -28.3250   23.1810 C   0  0  0  0  0  3  0  0  0  0  0  0
  -20.7020  -26.8990   22.5900 C   0  0  0  0  0  2  0  0  0  0  0  0
  -19.5880  -26.5960   21.5820 C   0  0  0  0  0  2  0  0  0  0  0  0
  -18.2140  -26.7470   22.2400 C   0  0  0  0  0  2  0  0  0  0  0  0
  -19.1850  -28.8390   23.3570 C   0  0  0  0  0  0  0  0  0  0  0  0
  -18.9820  -30.1000   23.9600 C   0  0  0  0  0  3  0  0  0  0  0  0
  -17.6840  -30.6130   24.1400 C   0  0  0  0  0  3  0  0  0  0  0  0
  -16.5690  -29.8600   23.7300 C   0  0  0  0  0  3  0  0  0  0  0  0
  -16.7560  -28.6020   23.1310 C   0  0  0  0  0  3  0  0  0  0  0  0
  -25.8980  -32.4950   23.8350 C   0  0  0  0  0  3  0  0  0  0  0  0
  -26.4260  -31.7140   25.0990 C   0  0  1  0  0  0  0  0  0  0  0  0
  -25.3420  -31.4640   26.1740 C   0  0  0  0  0  1  0  0  0  0  0  0
  -27.0080  -30.3410   24.6880 C   0  0  0  0  0  1  0  0  0  0  0  0
  -27.5790  -32.5050   25.7610 C   0  0  0  0  0  1  0  0  0  0  0  0
  -25.5860  -33.8890   24.1760 N   0  0  0  0  0  0  0  0  0  0  0  0
  -25.9150  -34.9470   23.4250 C   0  0  0  0  0  0  0  0  0  0  0  0
  -26.5860  -34.8530   22.3940 O   0  0  0  0  0  0  0  0  0  0  0  0
  -24.9890  -34.0350   24.9770 H   0  0  0  0  0  0  0  0  0  0  0  0
  -24.1820  -36.7370   23.0800 C   0  0  0  0  0  1  0  0  0  0  0  0
  -25.4210  -36.3300   23.8910 C   0  0  0  0  0  3  0  0  0  0  0  0
  -27.5560  -37.2120   24.7280 C   0  0  0  0  0  1  0  0  0  0  0  0
  -26.4510  -37.3880   23.7900 N   0  0  0  0  0  0  0  0  0  0  0  0
  -26.0430  -38.3050   23.9470 H   0  0  0  0  0  0  0  0  0  0  0  0
  1  2  1  0
  1 49  1  0
  3  4  1  0
  3  2  1  0
  4  5  1  0
  5  6  1  0
  6  7  1  0
  7  8  1  0
  8  9  1  0
  9 10  1  0
 10 19  1  0
 11 19  1  0
 12 17  1  0
 13 14  1  0
 13 12  1  0
 15 14  1  0
 15 24  1  0
 15 16  1  0
 17 11  1  0
 17 16  1  0
 18 11  2  0
 19 20  1  0
 21 22  2  0
 22 23  1  0
 22 41  1  0
 23 26  1  0
 24 21  1  0
 24 25  1  0
 25 23  2  0
 26 27  1  0
 27 28  2  0
 29 32  1  0
 29 28  1  0
 30 29  2  0
 31 30  1  0
 31 26  2  0
 32 33  1  0
 33 34  1  0
 34 35  2  0
 36 35  1  0
 36 40  1  0
 37 36  2  0
 38 33  2  0
 38 37  1  0
 39 38  1  0
 41 42  1  0
 42 45  1  0
 42 44  1  0
 43 41  2  0
 46 21  1  0
 47 46  1  0
 48 46  1  0
 49 51  1  0
 50 54  1  0
 50 52  2  0
 51 50  1  0
 53 51  1  0
 54 55  1  0
 55 57  1  0
 56 67  2  0
 57 62  1  0
 58 66  1  0
 58 68  1  0
 59 65  1  0
 59 61  1  0
 60 66  1  0
 61 60  1  0
 62 61  2  0
 63 64  1  0
 63 57  2  0
 64 59  2  0
 65 58  1  0
 66 56  1  0
 68 70  2  0
 69 68  1  0
 71 69  1  0
 72 81  2  0
 72 77  1  0
 73 69  1  0
 73 77  1  0
 74 73  1  0
 75 76  1  0
 75 74  1  0
 76 72  1  0
 77 78  2  0
 78 79  1  0
 80 79  2  0
 81 80  1  0
 82 56  1  0
 82 87  1  0
 82 83  1  0
 83 86  1  1
 83 84  1  0
 85 83  1  0
 87 90  1  0
 88 92  1  0
 88 87  1  0
 89 88  2  0
 92 91  1  0
 94 92  1  0
 94 95  1  0
 94 93  1  0
M  ISO  4  11 100  19 100  54 101  55 101
M  END
>  <TORSDO>  (36) 
F 28

>  <SCORE>  (36) 
-10.541

>  <name>  (36) 
36

>  <ligand_id>  (36) 
36

>  <original_smiles>  (36) 
[H]c1c([H])c([H])c2c(c1[H])C([H])([H])C([H])([H])C([H])([H])C2([H])N([H])C(=O)C1([H])N(C(=O)C([H])(N([H])C(=O)C([H])(N([H])C([H])([H])[H])C([H])([H])[H])C(C([H])([H])[H])(C([H])([H])[H])C([H])([H])[H])C([H])([H])c2c([H])c(OC([H])([H])C(=O)N([H])C([H])([H])C([H])([H])OC([H])([H])C([H])([H])OC([H])([H])C([H])([H])OC([H])([H])C([H])([H])N([H])C(=O)N3C([H])([H])C([H])([H])C([H])([H])C([H])(n4nc(-c5c([H])c([H])c(Oc6c([H])c([H])c(F)c([H])c6F)c([H])c5[H])c(C(=O)N([H])[H])c4N([H])[H])C3([H])[H])c([H])c([H])c2C1([H])[H]

>  <smiles>  (36) 
[H]c1c([H])c([H])c2c(c1[H])C([H])([H])C([H])([H])C([H])([H])C2([H])N([H])C(=O)C1([H])N(C(=O)C([H])(N([H])C(=O)C([H])(N([H])C([H])([H])[H])C([H])([H])[H])C(C([H])([H])[H])(C([H])([H])[H])C([H])([H])[H])C([H])([H])c2c([H])c(OC([H])([H])C(=O)N([H])C([H])([H])C([H])([H])OC([H])([H])C([H])([H])OC([H])([H])C([H])([H])OC([H])([H])C([H])([H])N([H])C(=O)N3C([H])([H])C([H])([H])C([H])([H])C([H])(n4nc(-c5c([H])c([H])c(Oc6c([H])c([H])c(F)c([H])c6F)c([H])c5[H])c(C(=O)N([H])[H])c4N([H])[H])C3([H])[H])c([H])c([H])c2C1([H])[H]

$$$$
37:0:0
     RDKit          3D

 92 99  0  0  1  0  0  0  0  0999 V2000
  -30.5330  -21.2470   20.8490 C   0  0  0  0  0  2  0  0  0  0  0  0
  -31.1070  -20.1430   20.0400 N   0  0  0  0  0  4  0  0  0  0  0  0
  -30.4160  -19.4120   19.9360 H   0  0  0  0  0  0  0  0  0  0  0  0
  -31.2980  -20.4950   19.1150 H   0  0  0  0  0  0  0  0  0  0  0  0
  -32.3680  -19.5550   20.5540 C   0  0  0  0  0  2  0  0  0  0  0  0
  -32.1830  -18.7410   21.8440 C   0  0  0  0  0  2  0  0  0  0  0  0
  -31.2360  -17.7090   21.5910 O   0  0  0  0  0  0  0  0  0  0  0  0
  -31.3030  -16.6520   22.5450 C   0  0  0  0  0  2  0  0  0  0  0  0
  -30.1690  -15.6640   22.2410 C   0  0  0  0  0  2  0  0  0  0  0  0
  -30.7630  -14.4580   20.2000 C   0  0  0  0  0  0  0  0  0  0  0  0
  -30.3730  -12.3670   18.9650 C   0  0  0  0  0  2  0  0  0  0  0  0
  -29.3980  -12.6370   17.8000 C   0  0  0  0  0  2  0  0  0  0  0  0
  -27.9330  -12.5260   18.2690 C   0  0  0  0  0  2  0  0  0  0  0  0
  -27.6570  -13.3280   19.5680 C   0  0  0  0  0  3  0  0  0  0  0  0
  -28.7320  -13.0300   20.6340 C   0  0  0  0  0  2  0  0  0  0  0  0
  -30.0520  -13.3120   20.0430 N   0  0  0  0  0  0  0  0  0  0  0  0
  -31.8310  -14.6900   19.6360 O   0  0  0  0  0  0  0  0  0  0  0  0
  -30.1140  -15.4540   20.8010 N   0  0  0  0  0  0  0  0  0  0  0  0
  -30.3760  -16.3330   20.3760 H   0  0  0  0  0  0  0  0  0  0  0  0
  -25.2770  -13.9690   20.3190 C   0  0  0  0  0  0  0  0  0  0  0  0
  -24.2090  -13.2090   20.7150 C   0  0  0  0  0  0  0  0  0  0  0  0
  -24.6560  -11.8530   20.6860 C   0  0  0  0  0  0  0  0  0  0  0  0
  -26.3100  -13.0750   20.0750 N   0  0  0  0  0  0  0  0  0  0  0  0
  -25.9380  -11.7990   20.3500 N   0  0  0  0  0  0  0  0  0  0  0  0
  -23.9230  -10.5980   20.9050 C   0  0  0  0  0  0  0  0  0  0  0  0
  -24.3640   -9.6400   21.8450 C   0  0  0  0  0  3  0  0  0  0  0  0
  -23.6340   -8.4500   22.0480 C   0  0  0  0  0  3  0  0  0  0  0  0
  -22.4510   -8.2080   21.3120 C   0  0  0  0  0  0  0  0  0  0  0  0
  -22.0270   -9.1550   20.3630 C   0  0  0  0  0  3  0  0  0  0  0  0
  -22.7580  -10.3370   20.1570 C   0  0  0  0  0  3  0  0  0  0  0  0
  -21.6920   -7.0680   21.4250 O   0  0  0  0  0  0  0  0  0  0  0  0
  -21.6530   -6.3400   22.5860 C   0  0  0  0  0  0  0  0  0  0  0  0
  -21.2610   -6.9160   23.8140 C   0  0  0  0  0  3  0  0  0  0  0  0
  -21.1690   -6.1160   24.9700 C   0  0  0  0  0  3  0  0  0  0  0  0
  -21.4600   -4.7400   24.9000 C   0  0  0  0  0  0  0  0  0  0  0  0
  -21.8450   -4.1630   23.6770 C   0  0  0  0  0  3  0  0  0  0  0  0
  -21.9380   -4.9610   22.5230 C   0  0  0  0  0  0  0  0  0  0  0  0
  -22.2920   -4.3960   21.3430 F   0  0  0  0  0  0  0  0  0  0  0  0
  -21.3640   -3.9690   26.0080 F   0  0  0  0  0  0  0  0  0  0  0  0
  -22.8210  -13.7010   21.0170 C   0  0  0  0  0  0  0  0  0  0  0  0
  -22.1080  -13.0190   21.9050 N   0  0  0  0  0  0  0  0  0  0  0  0
  -22.3800  -14.7260   20.4980 O   0  0  0  0  0  0  0  0  0  0  0  0
  -22.4780  -12.1900   22.3480 H   0  0  0  0  0  0  0  0  0  0  0  0
  -21.1800  -13.3330   22.1510 H   0  0  0  0  0  0  0  0  0  0  0  0
  -25.4520  -15.3360   20.1290 N   0  0  0  0  0  0  0  0  0  0  0  0
  -24.7000  -16.0050   20.2570 H   0  0  0  0  0  0  0  0  0  0  0  0
  -26.3150  -15.7640   19.8180 H   0  0  0  0  0  0  0  0  0  0  0  0
  -30.0560  -22.4070   19.9620 C   0  0  0  0  0  2  0  0  0  0  0  0
  -29.4710  -23.4170   20.7750 O   0  0  0  0  0  0  0  0  0  0  0  0
  -29.3160  -24.6450   20.0740 C   0  0  0  0  0  2  0  0  0  0  0  0
  -28.4060  -25.5950   20.8600 C   0  0  0  0  0  2  0  0  0  0  0  0
  -28.4660  -26.8960   20.2740 O   0  0  0  0  0  0  0  0  0  0  0  0
  -24.5850  -31.9960   23.3150 C   0  0  0  0  0  0  0  0  0  0  0  0
  -27.2830  -27.5900   20.2730 C   0  0  0  0  0  0  0  0  0  0  0  0
  -23.3950  -30.5720   21.6750 C   0  0  0  0  0  3  0  0  0  0  0  0
  -24.8680  -29.0470   20.2590 C   0  0  0  0  0  0  0  0  0  0  0  0
  -25.9120  -30.9690   21.4730 C   0  0  0  0  0  2  0  0  0  0  0  0
  -26.0160  -29.5970   20.8450 C   0  0  0  0  0  0  0  0  0  0  0  0
  -27.2300  -28.8790   20.8460 C   0  0  0  0  0  3  0  0  0  0  0  0
  -26.1250  -27.0490   19.6780 C   0  0  0  0  0  3  0  0  0  0  0  0
  -24.9160  -27.7710   19.6690 C   0  0  0  0  0  3  0  0  0  0  0  0
  -23.6120  -29.8860   20.2990 C   0  0  0  0  0  2  0  0  0  0  0  0
  -24.6480  -31.1950   22.2130 N   0  0  0  0  0  0  0  0  0  0  0  0
  -23.5010  -32.2560   23.8530 O   0  0  0  0  0  0  0  0  0  0  0  0
  -22.7550  -29.5480   22.6400 C   0  0  0  0  0  0  0  0  0  0  0  0
  -21.4400  -29.3260   22.4890 N   0  0  0  0  0  0  0  0  0  0  0  0
  -23.4400  -28.9520   23.4770 O   0  0  0  0  0  0  0  0  0  0  0  0
  -20.9470  -29.8580   21.7850 H   0  0  0  0  0  0  0  0  0  0  0  0
  -18.1000  -28.0200   22.9070 C   0  0  0  0  0  0  0  0  0  0  0  0
  -20.6360  -28.3770   23.2570 C   0  0  0  0  0  3  0  0  0  0  0  0
  -20.8100  -26.9360   22.7230 C   0  0  0  0  0  2  0  0  0  0  0  0
  -19.7560  -26.5490   21.6820 C   0  0  0  0  0  2  0  0  0  0  0  0
  -18.3490  -26.6600   22.2760 C   0  0  0  0  0  2  0  0  0  0  0  0
  -19.1750  -28.8310   23.3540 C   0  0  0  0  0  0  0  0  0  0  0  0
  -18.8910  -30.1030   23.9000 C   0  0  0  0  0  3  0  0  0  0  0  0
  -17.5650  -30.5600   24.0070 C   0  0  0  0  0  3  0  0  0  0  0  0
  -16.5030  -29.7450   23.5780 C   0  0  0  0  0  3  0  0  0  0  0  0
  -16.7730  -28.4770   23.0320 C   0  0  0  0  0  3  0  0  0  0  0  0
  -25.8640  -32.6420   23.9340 C   0  0  0  0  0  3  0  0  0  0  0  0
  -26.3750  -31.8960   25.2270 C   0  0  1  0  0  0  0  0  0  0  0  0
  -25.2750  -31.6670   26.2890 C   0  0  0  0  0  1  0  0  0  0  0  0
  -26.9690  -30.5170   24.8600 C   0  0  0  0  0  1  0  0  0  0  0  0
  -27.5170  -32.7060   25.8840 C   0  0  0  0  0  1  0  0  0  0  0  0
  -25.5490  -34.0450   24.2320 N   0  0  0  0  0  0  0  0  0  0  0  0
  -25.8950  -35.0830   23.4580 C   0  0  0  0  0  0  0  0  0  0  0  0
  -26.5830  -34.9600   22.4410 O   0  0  0  0  0  0  0  0  0  0  0  0
  -24.9440  -34.2150   25.0220 H   0  0  0  0  0  0  0  0  0  0  0  0
  -24.1730  -36.8630   23.0310 C   0  0  0  0  0  1  0  0  0  0  0  0
  -25.3970  -36.4790   23.8780 C   0  0  0  0  0  3  0  0  0  0  0  0
  -27.5110  -37.3810   24.7380 C   0  0  0  0  0  1  0  0  0  0  0  0
  -26.4310  -37.5300   23.7660 N   0  0  0  0  0  0  0  0  0  0  0  0
  -26.0220  -38.4530   23.8840 H   0  0  0  0  0  0  0  0  0  0  0  0
  2  5  1  0
  2  1  1  0
  3  2  1  0
  4  2  1  0
  5  6  1  0
  7  6  1  0
  7  8  1  0
  9  8  1  0
 10 18  1  0
 11 16  1  0
 12 13  1  0
 12 11  1  0
 14 13  1  0
 14 23  1  0
 14 15  1  0
 16 10  1  0
 16 15  1  0
 17 10  2  0
 18  9  1  0
 19 18  1  0
 20 21  2  0
 21 40  1  0
 22 21  1  0
 22 25  1  0
 23 20  1  0
 23 24  1  0
 24 22  2  0
 25 26  1  0
 26 27  2  0
 28 31  1  0
 28 27  1  0
 29 28  2  0
 30 29  1  0
 30 25  2  0
 31 32  1  0
 32 33  1  0
 33 34  2  0
 35 34  1  0
 35 39  1  0
 36 35  2  0
 37 32  2  0
 37 36  1  0
 38 37  1  0
 40 41  1  0
 41 44  1  0
 41 43  1  0
 42 40  2  0
 45 46  1  0
 45 20  1  0
 47 45  1  0
 48 49  1  0
 48  1  1  0
 50 49  1  0
 50 51  1  0
 52 51  1  0
 53 64  2  0
 54 52  1  0
 54 59  1  0
 55 63  1  0
 55 65  1  0
 56 62  1  0
 56 58  1  0
 57 63  1  0
 58 59  2  0
 58 57  1  0
 60 54  2  0
 61 60  1  0
 61 56  2  0
 62 55  1  0
 63 53  1  0
 65 67  2  0
 66 65  1  0
 68 66  1  0
 69 78  2  0
 69 74  1  0
 70 66  1  0
 70 74  1  0
 71 70  1  0
 72 73  1  0
 72 71  1  0
 73 69  1  0
 74 75  2  0
 75 76  1  0
 77 76  2  0
 78 77  1  0
 79 53  1  0
 79 84  1  0
 79 80  1  0
 80 83  1  1
 80 81  1  0
 82 80  1  0
 84 87  1  0
 85 89  1  0
 85 84  1  0
 86 85  2  0
 89 88  1  0
 91 89  1  0
 91 92  1  0
 91 90  1  0
M  ISO  4  10 100  18 100  51 101  52 101
M  END
>  <TORSDO>  (37) 
F 26

>  <SCORE>  (37) 
-10.693

>  <name>  (37) 
37

>  <ligand_id>  (37) 
37

>  <original_smiles>  (37) 
[H]c1c([H])c([H])c2c(c1[H])C([H])([H])C([H])([H])C([H])([H])C2([H])N([H])C(=O)C1([H])N(C(=O)C([H])(N([H])C(=O)C([H])(N([H])C([H])([H])[H])C([H])([H])[H])C(C([H])([H])[H])(C([H])([H])[H])C([H])([H])[H])C([H])([H])c2c([H])c(OC([H])([H])C([H])([H])OC([H])([H])C([H])([H])[N+]([H])([H])C([H])([H])C([H])([H])OC([H])([H])C([H])([H])N([H])C(=O)N3C([H])([H])C([H])([H])C([H])([H])C([H])(n4nc(-c5c([H])c([H])c(Oc6c([H])c([H])c(F)c([H])c6F)c([H])c5[H])c(C(=O)N([H])[H])c4N([H])[H])C3([H])[H])c([H])c([H])c2C1([H])[H]

>  <smiles>  (37) 
[H]c1c([H])c([H])c2c(c1[H])C([H])([H])C([H])([H])C([H])([H])C2([H])N([H])C(=O)C1([H])N(C(=O)C([H])(N([H])C(=O)C([H])(N([H])C([H])([H])[H])C([H])([H])[H])C(C([H])([H])[H])(C([H])([H])[H])C([H])([H])[H])C([H])([H])c2c([H])c(OC([H])([H])C([H])([H])OC([H])([H])C([H])([H])[N+]([H])([H])C([H])([H])C([H])([H])OC([H])([H])C([H])([H])N([H])C(=O)N3C([H])([H])C([H])([H])C([H])([H])C([H])(n4nc(-c5c([H])c([H])c(Oc6c([H])c([H])c(F)c([H])c6F)c([H])c5[H])c(C(=O)N([H])[H])c4N([H])[H])C3([H])[H])c([H])c([H])c2C1([H])[H]

$$$$
38:0:0
     RDKit          3D

 94101  0  0  1  0  0  0  0  0999 V2000
  -27.8620  -20.2120   21.3170 C   0  0  0  0  0  2  0  0  0  0  0  0
  -28.9980  -20.4090   20.2980 C   0  0  0  0  0  2  0  0  0  0  0  0
  -30.6160  -18.5390   20.6950 C   0  0  0  0  0  0  0  0  0  0  0  0
  -29.6810  -19.1620   19.9670 N   0  0  0  0  0  0  0  0  0  0  0  0
  -30.9300  -18.8800   21.8390 O   0  0  0  0  0  0  0  0  0  0  0  0
  -29.4930  -18.7550   19.0560 H   0  0  0  0  0  0  0  0  0  0  0  0
  -31.3200  -17.3650   20.0060 C   0  0  0  0  0  3  0  0  0  0  0  0
  -31.5420  -14.9670   20.6270 C   0  0  0  0  0  0  0  0  0  0  0  0
  -31.2020  -12.7350   19.6910 C   0  0  0  0  0  2  0  0  0  0  0  0
  -30.3630  -12.9330   18.4150 C   0  0  0  0  0  2  0  0  0  0  0  0
  -28.8710  -12.8220   18.7680 C   0  0  0  0  0  2  0  0  0  0  0  0
  -28.4660  -13.7640   19.9340 C   0  0  0  0  0  3  0  0  0  0  0  0
  -29.4500  -13.6430   21.1250 C   0  0  0  0  0  2  0  0  0  0  0  0
  -30.8200  -13.8170   20.6130 N   0  0  0  0  0  0  0  0  0  0  0  0
  -32.7510  -15.0060   20.3940 O   0  0  0  0  0  0  0  0  0  0  0  0
  -30.8080  -16.0870   20.5240 N   0  0  0  0  0  0  0  0  0  0  0  0
  -29.8320  -16.0460   20.7680 H   0  0  0  0  0  0  0  0  0  0  0  0
  -26.0750  -14.4790   20.5500 C   0  0  0  0  0  0  0  0  0  0  0  0
  -24.9450  -13.7570   20.8210 C   0  0  0  0  0  0  0  0  0  0  0  0
  -25.3270  -12.3840   20.7460 C   0  0  0  0  0  0  0  0  0  0  0  0
  -27.0790  -13.5490   20.3350 N   0  0  0  0  0  0  0  0  0  0  0  0
  -26.6290  -12.2800   20.5090 N   0  0  0  0  0  0  0  0  0  0  0  0
  -24.5190  -11.1630   20.8360 C   0  0  0  0  0  0  0  0  0  0  0  0
  -24.8810  -10.1020   21.6940 C   0  0  0  0  0  3  0  0  0  0  0  0
  -24.0750   -8.9460   21.7780 C   0  0  0  0  0  3  0  0  0  0  0  0
  -22.8950   -8.8470   21.0040 C   0  0  0  0  0  0  0  0  0  0  0  0
  -22.5530   -9.8970   20.1350 C   0  0  0  0  0  3  0  0  0  0  0  0
  -23.3580  -11.0450   20.0470 C   0  0  0  0  0  3  0  0  0  0  0  0
  -22.0650   -7.7510   21.0030 O   0  0  0  0  0  0  0  0  0  0  0  0
  -21.9900   -6.9030   22.0790 C   0  0  0  0  0  0  0  0  0  0  0  0
  -21.6430   -7.3590   23.3690 C   0  0  0  0  0  3  0  0  0  0  0  0
  -21.5110   -6.4420   24.4300 C   0  0  0  0  0  3  0  0  0  0  0  0
  -21.7200   -5.0680   24.2030 C   0  0  0  0  0  0  0  0  0  0  0  0
  -22.0590   -4.6110   22.9170 C   0  0  0  0  0  3  0  0  0  0  0  0
  -22.1930   -5.5240   21.8590 C   0  0  0  0  0  0  0  0  0  0  0  0
  -22.4980   -5.0750   20.6170 F   0  0  0  0  0  0  0  0  0  0  0  0
  -21.5920   -4.1840   25.2190 F   0  0  0  0  0  0  0  0  0  0  0  0
  -23.5620  -14.3020   21.0370 C   0  0  0  0  0  0  0  0  0  0  0  0
  -22.7540  -13.6280   21.8470 N   0  0  0  0  0  0  0  0  0  0  0  0
  -23.2070  -15.3660   20.5300 O   0  0  0  0  0  0  0  0  0  0  0  0
  -23.0480  -12.7680   22.2890 H   0  0  0  0  0  0  0  0  0  0  0  0
  -21.8260  -13.9860   22.0380 H   0  0  0  0  0  0  0  0  0  0  0  0
  -26.3290  -15.8460   20.4570 N   0  0  0  0  0  0  0  0  0  0  0  0
  -25.6050  -16.5380   20.6220 H   0  0  0  0  0  0  0  0  0  0  0  0
  -27.2320  -16.2540   20.2730 H   0  0  0  0  0  0  0  0  0  0  0  0
  -30.5060  -16.7750   17.6420 C   0  0  0  0  0  2  0  0  0  0  0  0
  -31.3390  -17.4230   18.4760 C   0  0  0  0  0  3  0  0  0  0  0  0
  -27.5070  -21.4800   21.8560 O   0  0  0  0  0  0  0  0  0  0  0  0
  -26.7020  -22.2770   20.9950 C   0  0  0  0  0  2  0  0  0  0  0  0
  -26.8780  -23.7460   21.3880 C   0  0  0  0  0  2  0  0  0  0  0  0
  -28.0730  -24.2230   20.7840 O   0  0  0  0  0  0  0  0  0  0  0  0
  -28.3510  -25.5810   21.0860 C   0  0  0  0  0  2  0  0  0  0  0  0
  -29.1910  -26.1880   19.9360 C   0  0  0  0  0  2  0  0  0  0  0  0
  -29.1450  -27.6170   19.8980 O   0  0  0  0  0  0  0  0  0  0  0  0
  -24.7540  -31.9480   23.3730 C   0  0  0  0  0  0  0  0  0  0  0  0
  -27.8990  -28.2040   19.8910 C   0  0  0  0  0  0  0  0  0  0  0  0
  -23.7250  -30.6040   21.5720 C   0  0  0  0  0  3  0  0  0  0  0  0
  -25.3530  -29.4090   20.0160 C   0  0  0  0  0  0  0  0  0  0  0  0
  -26.1930  -31.2700   21.4580 C   0  0  0  0  0  2  0  0  0  0  0  0
  -26.4360  -29.9960   20.6780 C   0  0  0  0  0  0  0  0  0  0  0  0
  -27.7140  -29.3970   20.6160 C   0  0  0  0  0  3  0  0  0  0  0  0
  -26.8000  -27.6360   19.2040 C   0  0  0  0  0  3  0  0  0  0  0  0
  -25.5280  -28.2270   19.2780 C   0  0  0  0  0  3  0  0  0  0  0  0
  -24.0170  -30.1030   20.1310 C   0  0  0  0  0  2  0  0  0  0  0  0
  -24.9070  -31.2800   22.1950 N   0  0  0  0  0  0  0  0  0  0  0  0
  -23.6450  -32.0390   23.9160 O   0  0  0  0  0  0  0  0  0  0  0  0
  -23.1860  -29.4180   22.4050 C   0  0  0  0  0  0  0  0  0  0  0  0
  -21.8930  -29.1060   22.2290 N   0  0  0  0  0  0  0  0  0  0  0  0
  -23.9270  -28.7860   23.1630 O   0  0  0  0  0  0  0  0  0  0  0  0
  -21.3540  -29.6770   21.5940 H   0  0  0  0  0  0  0  0  0  0  0  0
  -18.6650  -27.5010   22.5110 C   0  0  0  0  0  0  0  0  0  0  0  0
  -21.1740  -28.0070   22.8750 C   0  0  0  0  0  3  0  0  0  0  0  0
  -21.4470  -26.6650   22.1570 C   0  0  0  0  0  2  0  0  0  0  0  0
  -20.4020  -26.3320   21.0870 C   0  0  0  0  0  2  0  0  0  0  0  0
  -19.0020  -26.2560   21.7060 C   0  0  0  0  0  2  0  0  0  0  0  0
  -19.6860  -28.3300   23.0470 C   0  0  0  0  0  0  0  0  0  0  0  0
  -19.3220  -29.4910   23.7630 C   0  0  0  0  0  3  0  0  0  0  0  0
  -17.9690  -29.8300   23.9440 C   0  0  0  0  0  3  0  0  0  0  0  0
  -16.9620  -28.9970   23.4290 C   0  0  0  0  0  3  0  0  0  0  0  0
  -17.3100  -27.8330   22.7190 C   0  0  0  0  0  3  0  0  0  0  0  0
  -25.9550  -32.6460   24.0820 C   0  0  0  0  0  3  0  0  0  0  0  0
  -26.4450  -31.8810   25.3720 C   0  0  1  0  0  0  0  0  0  0  0  0
  -25.3080  -31.5520   26.3690 C   0  0  0  0  0  1  0  0  0  0  0  0
  -27.1370  -30.5500   24.9890 C   0  0  0  0  0  1  0  0  0  0  0  0
  -27.5040  -32.7280   26.1150 C   0  0  0  0  0  1  0  0  0  0  0  0
  -25.5390  -34.0130   24.4160 N   0  0  0  0  0  0  0  0  0  0  0  0
  -25.8480  -35.1000   23.6970 C   0  0  0  0  0  0  0  0  0  0  0  0
  -26.5850  -35.0600   22.7070 O   0  0  0  0  0  0  0  0  0  0  0  0
  -24.8880  -34.1100   25.1810 H   0  0  0  0  0  0  0  0  0  0  0  0
  -24.0280  -36.7830   23.2600 C   0  0  0  0  0  1  0  0  0  0  0  0
  -25.2410  -36.4450   24.1410 C   0  0  0  0  0  3  0  0  0  0  0  0
  -27.2610  -37.4490   25.1110 C   0  0  0  0  0  1  0  0  0  0  0  0
  -26.2070  -37.5660   24.1070 N   0  0  0  0  0  0  0  0  0  0  0  0
  -25.7330  -38.4540   24.2460 H   0  0  0  0  0  0  0  0  0  0  0  0
  1 48  1  0
  2  1  1  0
  3  5  2  0
  4  2  1  0
  4  3  1  0
  6  4  1  0
  7 47  1  0
  7 16  1  0
  7  3  1  0
  9 14  1  0
 10 11  1  0
 10  9  1  0
 12 11  1  0
 12 21  1  0
 12 13  1  0
 14  8  1  0
 14 13  1  0
 15  8  2  0
 16  8  1  0
 16 17  1  0
 18 19  2  0
 19 38  1  0
 20 19  1  0
 20 23  1  0
 21 22  1  0
 21 18  1  0
 22 20  2  0
 23 24  1  0
 24 25  2  0
 26 25  1  0
 27 26  2  0
 28 27  1  0
 28 23  2  0
 29 26  1  0
 29 30  1  0
 30 31  1  0
 31 32  2  0
 33 32  1  0
 33 37  1  0
 34 33  2  0
 35 30  2  0
 35 34  1  0
 36 35  1  0
 38 39  1  0
 39 42  1  0
 39 41  1  0
 40 38  2  0
 43 18  1  0
 43 44  1  0
 45 43  1  0
 46 47  2  0
 49 50  1  0
 49 48  1  0
 51 52  1  0
 51 50  1  0
 53 52  1  0
 54 53  1  0
 55 66  2  0
 56 54  1  0
 56 61  1  0
 57 65  1  0
 57 67  1  0
 58 64  1  0
 58 60  1  0
 59 65  1  0
 60 59  1  0
 61 60  2  0
 62 63  1  0
 62 56  2  0
 63 58  2  0
 64 57  1  0
 65 55  1  0
 67 69  2  0
 68 67  1  0
 70 68  1  0
 71 80  2  0
 71 76  1  0
 72 68  1  0
 72 76  1  0
 73 72  1  0
 74 75  1  0
 74 73  1  0
 75 71  1  0
 76 77  2  0
 77 78  1  0
 79 78  2  0
 80 79  1  0
 81 55  1  0
 81 86  1  0
 81 82  1  0
 82 85  1  1
 82 83  1  0
 84 82  1  0
 86 89  1  0
 87 91  1  0
 87 86  1  0
 88 87  2  0
 91 90  1  0
 93 91  1  0
 93 94  1  0
 93 92  1  0
M  ISO  4   8 100  16 100  53 101  54 101
M  END
>  <TORSDO>  (38) 
F 26

>  <SCORE>  (38) 
-7.466

>  <name>  (38) 
38

>  <ligand_id>  (38) 
38

>  <original_smiles>  (38) 
[H]C([H])=C([H])C([H])(C(=O)N([H])C([H])([H])C([H])([H])OC([H])([H])C([H])([H])OC([H])([H])C([H])([H])Oc1c([H])c([H])c2c(c1[H])C([H])([H])N(C(=O)C([H])(N([H])C(=O)C([H])(N([H])C([H])([H])[H])C([H])([H])[H])C(C([H])([H])[H])(C([H])([H])[H])C([H])([H])[H])C([H])(C(=O)N([H])C1([H])c3c([H])c([H])c([H])c([H])c3C([H])([H])C([H])([H])C1([H])[H])C2([H])[H])N([H])C(=O)N1C([H])([H])C([H])([H])C([H])([H])C([H])(n2nc(-c3c([H])c([H])c(Oc4c([H])c([H])c(F)c([H])c4F)c([H])c3[H])c(C(=O)N([H])[H])c2N([H])[H])C1([H])[H]

>  <smiles>  (38) 
[H]C([H])=C([H])C([H])(C(=O)N([H])C([H])([H])C([H])([H])OC([H])([H])C([H])([H])OC([H])([H])C([H])([H])Oc1c([H])c([H])c2c(c1[H])C([H])([H])N(C(=O)C([H])(N([H])C(=O)C([H])(N([H])C([H])([H])[H])C([H])([H])[H])C(C([H])([H])[H])(C([H])([H])[H])C([H])([H])[H])C([H])(C(=O)N([H])C1([H])c3c([H])c([H])c([H])c([H])c3C([H])([H])C([H])([H])C1([H])[H])C2([H])[H])N([H])C(=O)N1C([H])([H])C([H])([H])C([H])([H])C([H])(n2nc(-c3c([H])c([H])c(Oc4c([H])c([H])c(F)c([H])c4F)c([H])c3[H])c(C(=O)N([H])[H])c2N([H])[H])C1([H])[H]

$$$$
39:0:0
     RDKit          3D

 96103  0  0  1  0  0  0  0  0999 V2000
  -30.2460  -21.5590   16.6300 C   0  0  0  0  0  2  0  0  0  0  0  0
  -29.3550  -21.1390   17.6620 O   0  0  0  0  0  0  0  0  0  0  0  0
  -29.1020  -19.7370   17.5920 C   0  0  0  0  0  2  0  0  0  0  0  0
  -28.1330  -19.2680   18.6940 C   0  0  0  0  0  2  0  0  0  0  0  0
  -29.3550  -17.4860   19.9020 C   0  0  0  0  0  0  0  0  0  0  0  0
  -28.8130  -18.7100   19.8620 N   0  0  0  0  0  0  0  0  0  0  0  0
  -29.4000  -16.7620   18.9050 O   0  0  0  0  0  0  0  0  0  0  0  0
  -28.8040  -19.2610   20.7130 H   0  0  0  0  0  0  0  0  0  0  0  0
  -31.3010  -17.5560   21.6010 C   0  0  0  0  0  1  0  0  0  0  0  0
  -29.9110  -16.9910   21.2520 C   0  0  0  0  0  3  0  0  0  0  0  0
  -30.5790  -14.5900   20.7530 C   0  0  0  0  0  0  0  0  0  0  0  0
  -30.3810  -12.4330   19.5820 C   0  0  0  0  0  2  0  0  0  0  0  0
  -29.4780  -12.6360   18.3480 C   0  0  0  0  0  2  0  0  0  0  0  0
  -27.9900  -12.4710   18.7190 C   0  0  0  0  0  2  0  0  0  0  0  0
  -27.5950  -13.2940   19.9760 C   0  0  0  0  0  3  0  0  0  0  0  0
  -28.6090  -13.0620   21.1180 C   0  0  0  0  0  2  0  0  0  0  0  0
  -29.9550  -13.3930   20.6090 N   0  0  0  0  0  0  0  0  0  0  0  0
  -31.6850  -14.8380   20.2610 O   0  0  0  0  0  0  0  0  0  0  0  0
  -29.8190  -15.5250   21.3410 N   0  0  0  0  0  0  0  0  0  0  0  0
  -28.9360  -15.1780   21.6840 H   0  0  0  0  0  0  0  0  0  0  0  0
  -25.1590  -13.8640   20.5900 C   0  0  0  0  0  0  0  0  0  0  0  0
  -24.0950  -13.0750   20.9340 C   0  0  0  0  0  0  0  0  0  0  0  0
  -24.5810  -11.7310   20.9300 C   0  0  0  0  0  0  0  0  0  0  0  0
  -26.2280  -13.0020   20.4030 N   0  0  0  0  0  0  0  0  0  0  0  0
  -25.8820  -11.7150   20.6650 N   0  0  0  0  0  0  0  0  0  0  0  0
  -23.8750  -10.4570   21.1100 C   0  0  0  0  0  0  0  0  0  0  0  0
  -24.3150   -9.4970   22.0470 C   0  0  0  0  0  3  0  0  0  0  0  0
  -23.6090   -8.2860   22.2150 C   0  0  0  0  0  3  0  0  0  0  0  0
  -22.4500   -8.0280   21.4460 C   0  0  0  0  0  0  0  0  0  0  0  0
  -22.0320   -8.9760   20.4960 C   0  0  0  0  0  3  0  0  0  0  0  0
  -22.7380  -10.1780   20.3260 C   0  0  0  0  0  3  0  0  0  0  0  0
  -21.7180   -6.8670   21.5200 O   0  0  0  0  0  0  0  0  0  0  0  0
  -21.6800   -6.1100   22.6630 C   0  0  0  0  0  0  0  0  0  0  0  0
  -21.2580   -6.6470   23.8990 C   0  0  0  0  0  3  0  0  0  0  0  0
  -21.1720   -5.8160   25.0350 C   0  0  0  0  0  3  0  0  0  0  0  0
  -21.4960   -4.4500   24.9350 C   0  0  0  0  0  0  0  0  0  0  0  0
  -21.9120   -3.9120   23.7050 C   0  0  0  0  0  3  0  0  0  0  0  0
  -22.0010   -4.7410   22.5710 C   0  0  0  0  0  0  0  0  0  0  0  0
  -22.3800   -4.2140   21.3820 F   0  0  0  0  0  0  0  0  0  0  0  0
  -21.4050   -3.6500   26.0230 F   0  0  0  0  0  0  0  0  0  0  0  0
  -22.6800  -13.5240   21.1550 C   0  0  0  0  0  0  0  0  0  0  0  0
  -21.9360  -12.8220   22.0030 N   0  0  0  0  0  0  0  0  0  0  0  0
  -22.2380  -14.5330   20.6100 O   0  0  0  0  0  0  0  0  0  0  0  0
  -22.3000  -12.0020   22.4640 H   0  0  0  0  0  0  0  0  0  0  0  0
  -20.9860  -13.1070   22.1910 H   0  0  0  0  0  0  0  0  0  0  0  0
  -25.3040  -15.2370   20.4040 N   0  0  0  0  0  0  0  0  0  0  0  0
  -24.5210  -15.8790   20.4810 H   0  0  0  0  0  0  0  0  0  0  0  0
  -26.1570  -15.6870   20.0990 H   0  0  0  0  0  0  0  0  0  0  0  0
  -30.1590  -23.0680   16.3580 C   0  0  0  0  0  2  0  0  0  0  0  0
  -30.9010  -23.8310   17.3050 O   0  0  0  0  0  0  0  0  0  0  0  0
  -31.1200  -25.1560   16.8280 C   0  0  0  0  0  2  0  0  0  0  0  0
  -31.8870  -26.0210   17.8420 C   0  0  0  0  0  2  0  0  0  0  0  0
  -30.9870  -26.8080   18.6100 O   0  0  0  0  0  0  0  0  0  0  0  0
  -30.7260  -26.3020   19.9120 C   0  0  0  0  0  2  0  0  0  0  0  0
  -29.6130  -27.1520   20.5420 C   0  0  0  0  0  2  0  0  0  0  0  0
  -28.3770  -26.6820   20.0190 O   0  0  0  0  0  0  0  0  0  0  0  0
  -24.5690  -31.8640   23.1980 C   0  0  0  0  0  0  0  0  0  0  0  0
  -27.2470  -27.4610   20.1150 C   0  0  0  0  0  0  0  0  0  0  0  0
  -23.3670  -30.4600   21.5520 C   0  0  0  0  0  3  0  0  0  0  0  0
  -24.8290  -28.9260   20.1350 C   0  0  0  0  0  0  0  0  0  0  0  0
  -25.8860  -30.8340   21.3550 C   0  0  0  0  0  2  0  0  0  0  0  0
  -25.9800  -29.4610   20.7260 C   0  0  0  0  0  0  0  0  0  0  0  0
  -27.1890  -28.7360   20.7280 C   0  0  0  0  0  3  0  0  0  0  0  0
  -26.0780  -26.9300   19.5350 C   0  0  0  0  0  3  0  0  0  0  0  0
  -24.8690  -27.6530   19.5410 C   0  0  0  0  0  3  0  0  0  0  0  0
  -23.5790  -29.7760   20.1750 C   0  0  0  0  0  2  0  0  0  0  0  0
  -24.6250  -31.0670   22.0950 N   0  0  0  0  0  0  0  0  0  0  0  0
  -23.4870  -32.1350   23.7380 O   0  0  0  0  0  0  0  0  0  0  0  0
  -22.7180  -29.4370   22.5120 C   0  0  0  0  0  0  0  0  0  0  0  0
  -21.3910  -29.2660   22.3920 N   0  0  0  0  0  0  0  0  0  0  0  0
  -23.4030  -28.8030   23.3190 O   0  0  0  0  0  0  0  0  0  0  0  0
  -20.9010  -29.8300   21.7100 H   0  0  0  0  0  0  0  0  0  0  0  0
  -18.0090  -28.1080   22.9090 C   0  0  0  0  0  0  0  0  0  0  0  0
  -20.5710  -28.3310   23.1610 C   0  0  0  0  0  3  0  0  0  0  0  0
  -20.6520  -26.9040   22.5690 C   0  0  0  0  0  2  0  0  0  0  0  0
  -19.5370  -26.6050   21.5630 C   0  0  0  0  0  2  0  0  0  0  0  0
  -18.1640  -26.7620   22.2200 C   0  0  0  0  0  2  0  0  0  0  0  0
  -19.1400  -28.8520   23.3360 C   0  0  0  0  0  0  0  0  0  0  0  0
  -18.9430  -30.1140   23.9380 C   0  0  0  0  0  3  0  0  0  0  0  0
  -17.6460  -30.6300   24.1170 C   0  0  0  0  0  3  0  0  0  0  0  0
  -16.5280  -29.8820   23.7080 C   0  0  0  0  0  3  0  0  0  0  0  0
  -16.7120  -28.6220   23.1090 C   0  0  0  0  0  3  0  0  0  0  0  0
  -25.8560  -32.4950   23.8190 C   0  0  0  0  0  3  0  0  0  0  0  0
  -26.3890  -31.7060   25.0780 C   0  0  1  0  0  0  0  0  0  0  0  0
  -25.3070  -31.4440   26.1520 C   0  0  0  0  0  1  0  0  0  0  0  0
  -26.9760  -30.3380   24.6540 C   0  0  0  0  0  1  0  0  0  0  0  0
  -27.5430  -32.4950   25.7400 C   0  0  0  0  0  1  0  0  0  0  0  0
  -25.5410  -33.8870   24.1700 N   0  0  0  0  0  0  0  0  0  0  0  0
  -25.8640  -34.9490   23.4200 C   0  0  0  0  0  0  0  0  0  0  0  0
  -26.5270  -34.8610   22.3830 O   0  0  0  0  0  0  0  0  0  0  0  0
  -24.9520  -34.0270   24.9770 H   0  0  0  0  0  0  0  0  0  0  0  0
  -24.1200  -36.7310   23.0920 C   0  0  0  0  0  1  0  0  0  0  0  0
  -25.3680  -36.3290   23.8950 C   0  0  0  0  0  3  0  0  0  0  0  0
  -27.5040  -37.2150   24.7210 C   0  0  0  0  0  1  0  0  0  0  0  0
  -26.3930  -37.3890   23.7880 N   0  0  0  0  0  0  0  0  0  0  0  0
  -25.9840  -38.3040   23.9520 H   0  0  0  0  0  0  0  0  0  0  0  0
  1  2  1  0
  3  2  1  0
  3  4  1  0
  4  6  1  0
  5 10  1  0
  6  5  1  0
  6  8  1  0
  7  5  2  0
 10 19  1  0
 10  9  1  0
 11 19  1  0
 12 17  1  0
 13 14  1  0
 13 12  1  0
 15 14  1  0
 15 24  1  0
 15 16  1  0
 17 11  1  0
 17 16  1  0
 18 11  2  0
 19 20  1  0
 21 22  2  0
 22 41  1  0
 23 22  1  0
 23 26  1  0
 24 21  1  0
 24 25  1  0
 25 23  2  0
 26 27  1  0
 27 28  2  0
 29 32  1  0
 29 28  1  0
 30 29  2  0
 31 30  1  0
 31 26  2  0
 32 33  1  0
 33 34  1  0
 34 35  2  0
 36 35  1  0
 36 40  1  0
 37 36  2  0
 38 33  2  0
 38 37  1  0
 39 38  1  0
 41 42  1  0
 42 45  1  0
 42 44  1  0
 43 41  2  0
 46 47  1  0
 46 21  1  0
 48 46  1  0
 49  1  1  0
 49 50  1  0
 51 50  1  0
 51 52  1  0
 52 53  1  0
 53 54  1  0
 54 55  1  0
 56 58  1  0
 56 55  1  0
 57 68  2  0
 58 63  1  0
 59 67  1  0
 59 69  1  0
 60 66  1  0
 60 62  1  0
 61 67  1  0
 62 63  2  0
 62 61  1  0
 64 65  1  0
 64 58  2  0
 65 60  2  0
 66 59  1  0
 67 57  1  0
 69 71  2  0
 70 69  1  0
 72 70  1  0
 73 82  2  0
 73 78  1  0
 74 70  1  0
 74 78  1  0
 75 74  1  0
 76 77  1  0
 76 75  1  0
 77 73  1  0
 78 79  2  0
 79 80  1  0
 81 80  2  0
 82 81  1  0
 83 57  1  0
 83 88  1  0
 83 84  1  0
 84 87  1  1
 84 85  1  0
 86 84  1  0
 88 91  1  0
 89 93  1  0
 89 88  1  0
 90 89  2  0
 93 92  1  0
 95 93  1  0
 95 96  1  0
 95 94  1  0
M  ISO  4  11 100  19 100  55 101  56 101
M  END
>  <TORSDO>  (39) 
F 28

>  <SCORE>  (39) 
-11.448

>  <name>  (39) 
39

>  <ligand_id>  (39) 
39

>  <original_smiles>  (39) 
[H]c1c([H])c([H])c2c(c1[H])C([H])([H])C([H])([H])C([H])([H])C2([H])N([H])C(=O)C1([H])N(C(=O)C([H])(N([H])C(=O)C([H])(N([H])C([H])([H])[H])C([H])([H])[H])C(C([H])([H])[H])(C([H])([H])[H])C([H])([H])[H])C([H])([H])c2c([H])c(OC([H])([H])C([H])([H])OC([H])([H])C([H])([H])OC([H])([H])C([H])([H])OC([H])([H])C([H])([H])N([H])C(=O)C([H])(N([H])C(=O)N3C([H])([H])C([H])([H])C([H])([H])C([H])(n4nc(-c5c([H])c([H])c(Oc6c([H])c([H])c(F)c([H])c6F)c([H])c5[H])c(C(=O)N([H])[H])c4N([H])[H])C3([H])[H])C([H])([H])[H])c([H])c([H])c2C1([H])[H]

>  <smiles>  (39) 
[H]c1c([H])c([H])c2c(c1[H])C([H])([H])C([H])([H])C([H])([H])C2([H])N([H])C(=O)C1([H])N(C(=O)C([H])(N([H])C(=O)C([H])(N([H])C([H])([H])[H])C([H])([H])[H])C(C([H])([H])[H])(C([H])([H])[H])C([H])([H])[H])C([H])([H])c2c([H])c(OC([H])([H])C([H])([H])OC([H])([H])C([H])([H])OC([H])([H])C([H])([H])OC([H])([H])C([H])([H])N([H])C(=O)C([H])(N([H])C(=O)N3C([H])([H])C([H])([H])C([H])([H])C([H])(n4nc(-c5c([H])c([H])c(Oc6c([H])c([H])c(F)c([H])c6F)c([H])c5[H])c(C(=O)N([H])[H])c4N([H])[H])C3([H])[H])C([H])([H])[H])c([H])c([H])c2C1([H])[H]

$$$$
40:0:0
     RDKit          3D

 93100  0  0  1  0  0  0  0  0999 V2000
  -29.5800  -21.2960   23.3440 O   0  0  0  0  0  0  0  0  0  0  0  0
  -30.6750  -20.9660   24.1920 C   0  0  0  0  0  2  0  0  0  0  0  0
  -30.8650  -19.4450   24.2320 C   0  0  0  0  0  2  0  0  0  0  0  0
  -31.0980  -17.6210   22.5930 C   0  0  0  0  0  0  0  0  0  0  0  0
  -31.2380  -18.9050   22.9280 N   0  0  0  0  0  0  0  0  0  0  0  0
  -30.6390  -16.7850   23.3780 O   0  0  0  0  0  0  0  0  0  0  0  0
  -31.6020  -19.5530   22.2420 H   0  0  0  0  0  0  0  0  0  0  0  0
  -31.0010  -18.1240   20.0640 C   0  0  0  0  0  1  0  0  0  0  0  0
  -31.5230  -17.1960   21.1800 C   0  0  0  0  0  3  0  0  0  0  0  0
  -31.6410  -14.8800   20.1970 C   0  0  0  0  0  0  0  0  0  0  0  0
  -31.1660  -12.8140   18.9430 C   0  0  0  0  0  2  0  0  0  0  0  0
  -30.2210  -13.1430   17.7710 C   0  0  0  0  0  2  0  0  0  0  0  0
  -28.7470  -13.0900   18.2210 C   0  0  0  0  0  2  0  0  0  0  0  0
  -28.4920  -13.9010   19.5200 C   0  0  0  0  0  3  0  0  0  0  0  0
  -29.5400  -13.5440   20.5970 C   0  0  0  0  0  2  0  0  0  0  0  0
  -30.8840  -13.7660   20.0250 N   0  0  0  0  0  0  0  0  0  0  0  0
  -32.7240  -15.0650   19.6350 O   0  0  0  0  0  0  0  0  0  0  0  0
  -31.0700  -15.8270   20.9460 N   0  0  0  0  0  0  0  0  0  0  0  0
  -30.2190  -15.5780   21.4290 H   0  0  0  0  0  0  0  0  0  0  0  0
  -26.1520  -14.6620   20.2790 C   0  0  0  0  0  0  0  0  0  0  0  0
  -25.0370  -13.9580   20.6500 C   0  0  0  0  0  0  0  0  0  0  0  0
  -25.4010  -12.5790   20.5810 C   0  0  0  0  0  0  0  0  0  0  0  0
  -27.1280  -13.7150   20.0110 N   0  0  0  0  0  0  0  0  0  0  0  0
  -26.6800  -12.4560   20.2470 N   0  0  0  0  0  0  0  0  0  0  0  0
  -24.5930  -11.3660   20.7560 C   0  0  0  0  0  0  0  0  0  0  0  0
  -24.9560  -10.3650   21.6840 C   0  0  0  0  0  3  0  0  0  0  0  0
  -24.1530   -9.2160   21.8470 C   0  0  0  0  0  3  0  0  0  0  0  0
  -22.9740   -9.0590   21.0820 C   0  0  0  0  0  0  0  0  0  0  0  0
  -22.6300  -10.0470   20.1420 C   0  0  0  0  0  3  0  0  0  0  0  0
  -23.4310  -11.1880   19.9770 C   0  0  0  0  0  3  0  0  0  0  0  0
  -22.1460   -7.9640   21.1550 O   0  0  0  0  0  0  0  0  0  0  0  0
  -21.9880   -7.2570   22.3200 C   0  0  0  0  0  0  0  0  0  0  0  0
  -21.5680   -7.8770   23.5170 C   0  0  0  0  0  3  0  0  0  0  0  0
  -21.3520   -7.1010   24.6740 C   0  0  0  0  0  3  0  0  0  0  0  0
  -21.5460   -5.7070   24.6340 C   0  0  0  0  0  0  0  0  0  0  0  0
  -21.9580   -5.0870   23.4410 C   0  0  0  0  0  3  0  0  0  0  0  0
  -22.1760   -5.8610   22.2880 C   0  0  0  0  0  0  0  0  0  0  0  0
  -22.5530   -5.2550   21.1350 F   0  0  0  0  0  0  0  0  0  0  0  0
  -21.3300   -4.9600   25.7420 F   0  0  0  0  0  0  0  0  0  0  0  0
  -23.6810  -14.5240   20.9590 C   0  0  0  0  0  0  0  0  0  0  0  0
  -22.9330  -13.8770   21.8460 N   0  0  0  0  0  0  0  0  0  0  0  0
  -23.2950  -15.5760   20.4500 O   0  0  0  0  0  0  0  0  0  0  0  0
  -23.2550  -13.0260   22.2830 H   0  0  0  0  0  0  0  0  0  0  0  0
  -22.0210  -14.2380   22.0910 H   0  0  0  0  0  0  0  0  0  0  0  0
  -26.4100  -16.0220   20.1290 N   0  0  0  0  0  0  0  0  0  0  0  0
  -25.6980  -16.7300   20.2640 H   0  0  0  0  0  0  0  0  0  0  0  0
  -27.2910  -16.4040   19.8100 H   0  0  0  0  0  0  0  0  0  0  0  0
  -29.2600  -22.6810   23.4090 C   0  0  0  0  0  2  0  0  0  0  0  0
  -28.3050  -23.0880   22.2780 C   0  0  0  0  0  2  0  0  0  0  0  0
  -29.0540  -23.3610   21.0990 O   0  0  0  0  0  0  0  0  0  0  0  0
  -28.4150  -24.2730   20.2100 C   0  0  0  0  0  2  0  0  0  0  0  0
  -28.6630  -25.7350   20.6360 C   0  0  0  0  0  2  0  0  0  0  0  0
  -28.3810  -26.6290   19.5650 O   0  0  0  0  0  0  0  0  0  0  0  0
  -24.6580  -31.5930   23.0520 C   0  0  0  0  0  0  0  0  0  0  0  0
  -27.2060  -27.3250   19.6910 C   0  0  0  0  0  0  0  0  0  0  0  0
  -23.4000  -30.2770   21.3740 C   0  0  0  0  0  3  0  0  0  0  0  0
  -24.8090  -28.7990   19.8460 C   0  0  0  0  0  0  0  0  0  0  0  0
  -25.9150  -30.6470   21.1190 C   0  0  0  0  0  2  0  0  0  0  0  0
  -25.9800  -29.3040   20.4260 C   0  0  0  0  0  0  0  0  0  0  0  0
  -27.1840  -28.5720   20.3500 C   0  0  0  0  0  3  0  0  0  0  0  0
  -26.0230  -26.8200   19.1170 C   0  0  0  0  0  3  0  0  0  0  0  0
  -24.8230  -27.5530   19.1930 C   0  0  0  0  0  3  0  0  0  0  0  0
  -23.5680  -29.6550   19.9610 C   0  0  0  0  0  2  0  0  0  0  0  0
  -24.6780  -30.8510   21.9090 N   0  0  0  0  0  0  0  0  0  0  0  0
  -23.5940  -31.8430   23.6330 O   0  0  0  0  0  0  0  0  0  0  0  0
  -22.7680  -29.2160   22.3020 C   0  0  0  0  0  0  0  0  0  0  0  0
  -21.4400  -29.0430   22.1930 N   0  0  0  0  0  0  0  0  0  0  0  0
  -23.4660  -28.5550   23.0730 O   0  0  0  0  0  0  0  0  0  0  0  0
  -20.9380  -29.6360   21.5480 H   0  0  0  0  0  0  0  0  0  0  0  0
  -18.0760  -27.8210   22.6790 C   0  0  0  0  0  0  0  0  0  0  0  0
  -20.6360  -28.0710   22.9320 C   0  0  0  0  0  3  0  0  0  0  0  0
  -20.7340  -26.6660   22.2910 C   0  0  0  0  0  2  0  0  0  0  0  0
  -19.6190  -26.3850   21.2780 C   0  0  0  0  0  2  0  0  0  0  0  0
  -18.2450  -26.5020   21.9450 C   0  0  0  0  0  2  0  0  0  0  0  0
  -19.1990  -28.5660   23.1280 C   0  0  0  0  0  0  0  0  0  0  0  0
  -18.9860  -29.8040   23.7710 C   0  0  0  0  0  3  0  0  0  0  0  0
  -17.6840  -30.2980   23.9710 C   0  0  0  0  0  3  0  0  0  0  0  0
  -16.5750  -29.5480   23.5400 C   0  0  0  0  0  3  0  0  0  0  0  0
  -16.7720  -28.3120   22.9000 C   0  0  0  0  0  3  0  0  0  0  0  0
  -25.9640  -32.1820   23.6720 C   0  0  0  0  0  3  0  0  0  0  0  0
  -26.5280  -31.3260   24.8720 C   0  0  1  0  0  0  0  0  0  0  0  0
  -25.4750  -31.0180   25.9620 C   0  0  0  0  0  1  0  0  0  0  0  0
  -27.0910  -29.9810   24.3590 C   0  0  0  0  0  1  0  0  0  0  0  0
  -27.7050  -32.0740   25.5440 C   0  0  0  0  0  1  0  0  0  0  0  0
  -25.6690  -33.5540   24.1060 N   0  0  0  0  0  0  0  0  0  0  0  0
  -25.9950  -34.6560   23.4190 C   0  0  0  0  0  0  0  0  0  0  0  0
  -26.6480  -34.6230   22.3710 O   0  0  0  0  0  0  0  0  0  0  0  0
  -25.0910  -33.6570   24.9280 H   0  0  0  0  0  0  0  0  0  0  0  0
  -24.2700  -36.4730   23.2210 C   0  0  0  0  0  1  0  0  0  0  0  0
  -25.5220  -36.0080   23.9810 C   0  0  0  0  0  3  0  0  0  0  0  0
  -27.6740  -36.8220   24.8380 C   0  0  0  0  0  1  0  0  0  0  0  0
  -26.5570  -37.0640   23.9290 N   0  0  0  0  0  0  0  0  0  0  0  0
  -26.1580  -37.9710   24.1520 H   0  0  0  0  0  0  0  0  0  0  0  0
  1 48  1  0
  1  2  1  0
  2  3  1  0
  4  5  1  0
  4  6  2  0
  5  3  1  0
  7  5  1  0
  9  8  1  0
  9  4  1  0
 10 18  1  0
 11 16  1  0
 12 13  1  0
 12 11  1  0
 14 13  1  0
 14 23  1  0
 14 15  1  0
 16 10  1  0
 16 15  1  0
 17 10  2  0
 18  9  1  0
 18 19  1  0
 20 21  2  0
 21 40  1  0
 22 21  1  0
 22 25  1  0
 23 24  1  0
 23 20  1  0
 24 22  2  0
 25 26  1  0
 26 27  2  0
 28 31  1  0
 28 27  1  0
 29 28  2  0
 30 29  1  0
 30 25  2  0
 31 32  1  0
 32 33  1  0
 33 34  2  0
 35 34  1  0
 35 39  1  0
 36 35  2  0
 37 32  2  0
 37 36  1  0
 38 37  1  0
 40 41  1  0
 41 44  1  0
 41 43  1  0
 42 40  2  0
 45 46  1  0
 45 20  1  0
 47 45  1  0
 49 48  1  0
 50 49  1  0
 51 52  1  0
 51 50  1  0
 53 55  1  0
 53 52  1  0
 54 65  2  0
 55 60  1  0
 56 64  1  0
 56 66  1  0
 57 63  1  0
 57 59  1  0
 58 64  1  0
 59 58  1  0
 60 59  2  0
 61 62  1  0
 61 55  2  0
 62 57  2  0
 63 56  1  0
 64 54  1  0
 66 68  2  0
 67 66  1  0
 69 67  1  0
 70 79  2  0
 70 75  1  0
 71 67  1  0
 71 75  1  0
 72 71  1  0
 73 74  1  0
 73 72  1  0
 74 70  1  0
 75 76  2  0
 76 77  1  0
 78 77  2  0
 79 78  1  0
 80 54  1  0
 80 85  1  0
 80 81  1  0
 81 84  1  1
 81 82  1  0
 83 81  1  0
 85 88  1  0
 86 90  1  0
 86 85  1  0
 87 86  2  0
 90 89  1  0
 92 90  1  0
 92 93  1  0
 92 91  1  0
M  ISO  4  10 100  18 100  52 101  53 101
M  END
>  <TORSDO>  (40) 
F 25

>  <SCORE>  (40) 
-9.429

>  <name>  (40) 
40

>  <ligand_id>  (40) 
40

>  <original_smiles>  (40) 
[H]c1c([H])c([H])c2c(c1[H])C([H])([H])C([H])([H])C([H])([H])C2([H])N([H])C(=O)C1([H])N(C(=O)C([H])(N([H])C(=O)C([H])(N([H])C([H])([H])[H])C([H])([H])[H])C(C([H])([H])[H])(C([H])([H])[H])C([H])([H])[H])C([H])([H])c2c([H])c(OC([H])([H])C([H])([H])OC([H])([H])C([H])([H])OC([H])([H])C([H])([H])N([H])C(=O)C([H])(N([H])C(=O)N3C([H])([H])C([H])([H])C([H])([H])C([H])(n4nc(-c5c([H])c([H])c(Oc6c([H])c([H])c(F)c([H])c6F)c([H])c5[H])c(C(=O)N([H])[H])c4N([H])[H])C3([H])[H])C([H])([H])[H])c([H])c([H])c2C1([H])[H]

>  <smiles>  (40) 
[H]c1c([H])c([H])c2c(c1[H])C([H])([H])C([H])([H])C([H])([H])C2([H])N([H])C(=O)C1([H])N(C(=O)C([H])(N([H])C(=O)C([H])(N([H])C([H])([H])[H])C([H])([H])[H])C(C([H])([H])[H])(C([H])([H])[H])C([H])([H])[H])C([H])([H])c2c([H])c(OC([H])([H])C([H])([H])OC([H])([H])C([H])([H])OC([H])([H])C([H])([H])N([H])C(=O)C([H])(N([H])C(=O)N3C([H])([H])C([H])([H])C([H])([H])C([H])(n4nc(-c5c([H])c([H])c(Oc6c([H])c([H])c(F)c([H])c6F)c([H])c5[H])c(C(=O)N([H])[H])c4N([H])[H])C3([H])[H])C([H])([H])[H])c([H])c([H])c2C1([H])[H]

$$$$
41:0:0
     RDKit          3D

 93100  0  0  1  0  0  0  0  0999 V2000
  -29.5800  -21.2960   23.3440 O   0  0  0  0  0  0  0  0  0  0  0  0
  -30.6750  -20.9660   24.1920 C   0  0  0  0  0  2  0  0  0  0  0  0
  -30.8650  -19.4450   24.2320 C   0  0  0  0  0  2  0  0  0  0  0  0
  -31.0980  -17.6210   22.5930 C   0  0  0  0  0  0  0  0  0  0  0  0
  -31.2380  -18.9050   22.9280 N   0  0  0  0  0  0  0  0  0  0  0  0
  -30.6390  -16.7850   23.3780 O   0  0  0  0  0  0  0  0  0  0  0  0
  -31.6020  -19.5530   22.2420 H   0  0  0  0  0  0  0  0  0  0  0  0
  -31.0010  -18.1240   20.0640 C   0  0  0  0  0  1  0  0  0  0  0  0
  -31.5230  -17.1960   21.1800 C   0  0  0  0  0  3  0  0  0  0  0  0
  -31.6410  -14.8800   20.1970 C   0  0  0  0  0  0  0  0  0  0  0  0
  -31.1660  -12.8140   18.9430 C   0  0  0  0  0  2  0  0  0  0  0  0
  -30.2210  -13.1430   17.7710 C   0  0  0  0  0  2  0  0  0  0  0  0
  -28.7470  -13.0900   18.2210 C   0  0  0  0  0  2  0  0  0  0  0  0
  -28.4920  -13.9010   19.5200 C   0  0  0  0  0  3  0  0  0  0  0  0
  -29.5400  -13.5440   20.5970 C   0  0  0  0  0  2  0  0  0  0  0  0
  -30.8840  -13.7660   20.0250 N   0  0  0  0  0  0  0  0  0  0  0  0
  -32.7240  -15.0650   19.6350 O   0  0  0  0  0  0  0  0  0  0  0  0
  -31.0700  -15.8270   20.9460 N   0  0  0  0  0  0  0  0  0  0  0  0
  -30.2190  -15.5780   21.4290 H   0  0  0  0  0  0  0  0  0  0  0  0
  -26.1520  -14.6620   20.2790 C   0  0  0  0  0  0  0  0  0  0  0  0
  -25.0370  -13.9580   20.6500 C   0  0  0  0  0  0  0  0  0  0  0  0
  -25.4010  -12.5790   20.5810 C   0  0  0  0  0  0  0  0  0  0  0  0
  -27.1280  -13.7150   20.0110 N   0  0  0  0  0  0  0  0  0  0  0  0
  -26.6800  -12.4560   20.2470 N   0  0  0  0  0  0  0  0  0  0  0  0
  -24.5930  -11.3660   20.7560 C   0  0  0  0  0  0  0  0  0  0  0  0
  -24.9560  -10.3650   21.6840 C   0  0  0  0  0  3  0  0  0  0  0  0
  -24.1530   -9.2160   21.8470 C   0  0  0  0  0  3  0  0  0  0  0  0
  -22.9740   -9.0590   21.0820 C   0  0  0  0  0  0  0  0  0  0  0  0
  -22.6300  -10.0470   20.1420 C   0  0  0  0  0  3  0  0  0  0  0  0
  -23.4310  -11.1880   19.9770 C   0  0  0  0  0  3  0  0  0  0  0  0
  -22.1460   -7.9640   21.1550 O   0  0  0  0  0  0  0  0  0  0  0  0
  -21.9880   -7.2570   22.3200 C   0  0  0  0  0  0  0  0  0  0  0  0
  -21.5680   -7.8770   23.5170 C   0  0  0  0  0  3  0  0  0  0  0  0
  -21.3520   -7.1010   24.6740 C   0  0  0  0  0  3  0  0  0  0  0  0
  -21.5460   -5.7070   24.6340 C   0  0  0  0  0  0  0  0  0  0  0  0
  -21.9580   -5.0870   23.4410 C   0  0  0  0  0  3  0  0  0  0  0  0
  -22.1760   -5.8610   22.2880 C   0  0  0  0  0  0  0  0  0  0  0  0
  -22.5530   -5.2550   21.1350 F   0  0  0  0  0  0  0  0  0  0  0  0
  -21.3300   -4.9600   25.7420 F   0  0  0  0  0  0  0  0  0  0  0  0
  -23.6810  -14.5240   20.9590 C   0  0  0  0  0  0  0  0  0  0  0  0
  -22.9330  -13.8770   21.8460 N   0  0  0  0  0  0  0  0  0  0  0  0
  -23.2950  -15.5760   20.4500 O   0  0  0  0  0  0  0  0  0  0  0  0
  -23.2550  -13.0260   22.2830 H   0  0  0  0  0  0  0  0  0  0  0  0
  -22.0210  -14.2380   22.0910 H   0  0  0  0  0  0  0  0  0  0  0  0
  -26.4100  -16.0220   20.1290 N   0  0  0  0  0  0  0  0  0  0  0  0
  -25.6980  -16.7300   20.2640 H   0  0  0  0  0  0  0  0  0  0  0  0
  -27.2910  -16.4040   19.8100 H   0  0  0  0  0  0  0  0  0  0  0  0
  -29.2600  -22.6810   23.4090 C   0  0  0  0  0  2  0  0  0  0  0  0
  -28.3050  -23.0880   22.2780 C   0  0  0  0  0  2  0  0  0  0  0  0
  -29.0540  -23.3610   21.0990 O   0  0  0  0  0  0  0  0  0  0  0  0
  -28.4150  -24.2730   20.2100 C   0  0  0  0  0  2  0  0  0  0  0  0
  -28.6630  -25.7350   20.6360 C   0  0  0  0  0  2  0  0  0  0  0  0
  -28.3810  -26.6290   19.5650 O   0  0  0  0  0  0  0  0  0  0  0  0
  -24.6580  -31.5930   23.0520 C   0  0  0  0  0  0  0  0  0  0  0  0
  -27.2060  -27.3250   19.6910 C   0  0  0  0  0  0  0  0  0  0  0  0
  -23.4000  -30.2770   21.3740 C   0  0  0  0  0  3  0  0  0  0  0  0
  -24.8090  -28.7990   19.8460 C   0  0  0  0  0  0  0  0  0  0  0  0
  -25.9150  -30.6470   21.1190 C   0  0  0  0  0  2  0  0  0  0  0  0
  -25.9800  -29.3040   20.4260 C   0  0  0  0  0  0  0  0  0  0  0  0
  -27.1840  -28.5720   20.3500 C   0  0  0  0  0  3  0  0  0  0  0  0
  -26.0230  -26.8200   19.1170 C   0  0  0  0  0  3  0  0  0  0  0  0
  -24.8230  -27.5530   19.1930 C   0  0  0  0  0  3  0  0  0  0  0  0
  -23.5680  -29.6550   19.9610 C   0  0  0  0  0  2  0  0  0  0  0  0
  -24.6780  -30.8510   21.9090 N   0  0  0  0  0  0  0  0  0  0  0  0
  -23.5940  -31.8430   23.6330 O   0  0  0  0  0  0  0  0  0  0  0  0
  -22.7680  -29.2160   22.3020 C   0  0  0  0  0  0  0  0  0  0  0  0
  -21.4400  -29.0430   22.1930 N   0  0  0  0  0  0  0  0  0  0  0  0
  -23.4660  -28.5550   23.0730 O   0  0  0  0  0  0  0  0  0  0  0  0
  -20.9380  -29.6360   21.5480 H   0  0  0  0  0  0  0  0  0  0  0  0
  -18.0760  -27.8210   22.6790 C   0  0  0  0  0  0  0  0  0  0  0  0
  -20.6360  -28.0710   22.9320 C   0  0  0  0  0  3  0  0  0  0  0  0
  -20.7340  -26.6660   22.2910 C   0  0  0  0  0  2  0  0  0  0  0  0
  -19.6190  -26.3850   21.2780 C   0  0  0  0  0  2  0  0  0  0  0  0
  -18.2450  -26.5020   21.9450 C   0  0  0  0  0  2  0  0  0  0  0  0
  -19.1990  -28.5660   23.1280 C   0  0  0  0  0  0  0  0  0  0  0  0
  -18.9860  -29.8040   23.7710 C   0  0  0  0  0  3  0  0  0  0  0  0
  -17.6840  -30.2980   23.9710 C   0  0  0  0  0  3  0  0  0  0  0  0
  -16.5750  -29.5480   23.5400 C   0  0  0  0  0  3  0  0  0  0  0  0
  -16.7720  -28.3120   22.9000 C   0  0  0  0  0  3  0  0  0  0  0  0
  -25.9640  -32.1820   23.6720 C   0  0  0  0  0  3  0  0  0  0  0  0
  -26.5280  -31.3260   24.8720 C   0  0  1  0  0  0  0  0  0  0  0  0
  -25.4750  -31.0180   25.9620 C   0  0  0  0  0  1  0  0  0  0  0  0
  -27.0910  -29.9810   24.3590 C   0  0  0  0  0  1  0  0  0  0  0  0
  -27.7050  -32.0740   25.5440 C   0  0  0  0  0  1  0  0  0  0  0  0
  -25.6690  -33.5540   24.1060 N   0  0  0  0  0  0  0  0  0  0  0  0
  -25.9950  -34.6560   23.4190 C   0  0  0  0  0  0  0  0  0  0  0  0
  -26.6480  -34.6230   22.3710 O   0  0  0  0  0  0  0  0  0  0  0  0
  -25.0910  -33.6570   24.9280 H   0  0  0  0  0  0  0  0  0  0  0  0
  -24.2700  -36.4730   23.2210 C   0  0  0  0  0  1  0  0  0  0  0  0
  -25.5220  -36.0080   23.9810 C   0  0  0  0  0  3  0  0  0  0  0  0
  -27.6740  -36.8220   24.8380 C   0  0  0  0  0  1  0  0  0  0  0  0
  -26.5570  -37.0640   23.9290 N   0  0  0  0  0  0  0  0  0  0  0  0
  -26.1580  -37.9710   24.1520 H   0  0  0  0  0  0  0  0  0  0  0  0
  1 48  1  0
  1  2  1  0
  2  3  1  0
  4  5  1  0
  4  6  2  0
  5  3  1  0
  7  5  1  0
  9  8  1  0
  9  4  1  0
 10 18  1  0
 11 16  1  0
 12 13  1  0
 12 11  1  0
 14 13  1  0
 14 23  1  0
 14 15  1  0
 16 10  1  0
 16 15  1  0
 17 10  2  0
 18  9  1  0
 18 19  1  0
 20 21  2  0
 21 40  1  0
 22 21  1  0
 22 25  1  0
 23 24  1  0
 23 20  1  0
 24 22  2  0
 25 26  1  0
 26 27  2  0
 28 31  1  0
 28 27  1  0
 29 28  2  0
 30 29  1  0
 30 25  2  0
 31 32  1  0
 32 33  1  0
 33 34  2  0
 35 34  1  0
 35 39  1  0
 36 35  2  0
 37 32  2  0
 37 36  1  0
 38 37  1  0
 40 41  1  0
 41 44  1  0
 41 43  1  0
 42 40  2  0
 45 46  1  0
 45 20  1  0
 47 45  1  0
 49 48  1  0
 50 49  1  0
 51 52  1  0
 51 50  1  0
 53 55  1  0
 53 52  1  0
 54 65  2  0
 55 60  1  0
 56 64  1  0
 56 66  1  0
 57 63  1  0
 57 59  1  0
 58 64  1  0
 59 58  1  0
 60 59  2  0
 61 62  1  0
 61 55  2  0
 62 57  2  0
 63 56  1  0
 64 54  1  0
 66 68  2  0
 67 66  1  0
 69 67  1  0
 70 79  2  0
 70 75  1  0
 71 67  1  0
 71 75  1  0
 72 71  1  0
 73 74  1  0
 73 72  1  0
 74 70  1  0
 75 76  2  0
 76 77  1  0
 78 77  2  0
 79 78  1  0
 80 54  1  0
 80 85  1  0
 80 81  1  0
 81 84  1  1
 81 82  1  0
 83 81  1  0
 85 88  1  0
 86 90  1  0
 86 85  1  0
 87 86  2  0
 90 89  1  0
 92 90  1  0
 92 93  1  0
 92 91  1  0
M  ISO  4  10 100  18 100  52 101  53 101
M  END
>  <TORSDO>  (41) 
F 25

>  <SCORE>  (41) 
-9.429

>  <name>  (41) 
41

>  <ligand_id>  (41) 
41

>  <original_smiles>  (41) 
[H]c1c([H])c([H])c2c(c1[H])C([H])([H])C([H])([H])C([H])([H])C2([H])N([H])C(=O)C1([H])N(C(=O)C([H])(N([H])C(=O)C([H])(N([H])C([H])([H])[H])C([H])([H])[H])C(C([H])([H])[H])(C([H])([H])[H])C([H])([H])[H])C([H])([H])c2c([H])c(OC([H])([H])C([H])([H])OC([H])([H])C([H])([H])OC([H])([H])C([H])([H])N([H])C(=O)C([H])(N([H])C(=O)N3C([H])([H])C([H])([H])C([H])([H])C([H])(n4nc(-c5c([H])c([H])c(Oc6c([H])c([H])c(F)c([H])c6F)c([H])c5[H])c(C(=O)N([H])[H])c4N([H])[H])C3([H])[H])C([H])([H])[H])c([H])c([H])c2C1([H])[H]

>  <smiles>  (41) 
[H]c1c([H])c([H])c2c(c1[H])C([H])([H])C([H])([H])C([H])([H])C2([H])N([H])C(=O)C1([H])N(C(=O)C([H])(N([H])C(=O)C([H])(N([H])C([H])([H])[H])C([H])([H])[H])C(C([H])([H])[H])(C([H])([H])[H])C([H])([H])[H])C([H])([H])c2c([H])c(OC([H])([H])C([H])([H])OC([H])([H])C([H])([H])OC([H])([H])C([H])([H])N([H])C(=O)C([H])(N([H])C(=O)N3C([H])([H])C([H])([H])C([H])([H])C([H])(n4nc(-c5c([H])c([H])c(Oc6c([H])c([H])c(F)c([H])c6F)c([H])c5[H])c(C(=O)N([H])[H])c4N([H])[H])C3([H])[H])C([H])([H])[H])c([H])c([H])c2C1([H])[H]

$$$$
42:0:0
     RDKit          3D

103110  0  0  1  0  0  0  0  0999 V2000
  -28.7210  -24.7250   23.3890 C   0  0  0  0  0  3  0  0  0  0  0  0
  -29.7990  -23.1830   25.0270 C   0  0  0  0  0  0  0  0  0  0  0  0
  -29.6330  -23.6470   23.7850 N   0  0  0  0  0  0  0  0  0  0  0  0
  -29.2540  -23.6890   26.0100 O   0  0  0  0  0  0  0  0  0  0  0  0
  -30.1210  -23.1670   23.0430 H   0  0  0  0  0  0  0  0  0  0  0  0
  -30.7600  -22.0020   25.1990 C   0  0  0  0  0  2  0  0  0  0  0  0
  -32.0380  -22.4750   25.5930 O   0  0  0  0  0  0  0  0  0  0  0  0
  -32.3090  -23.1170   24.9430 H   0  0  0  0  0  0  0  0  0  0  0  0
  -29.3010  -25.5310   22.2090 C   0  0  0  0  0  0  0  0  0  0  0  0
  -29.7620  -24.8480   21.1580 N   0  0  0  0  0  0  0  0  0  0  0  0
  -29.3380  -26.7630   22.2550 O   0  0  0  0  0  0  0  0  0  0  0  0
  -29.6620  -23.8430   21.1570 H   0  0  0  0  0  0  0  0  0  0  0  0
  -30.1910  -25.4270   19.8920 C   0  0  0  0  0  2  0  0  0  0  0  0
  -30.9650  -24.3680   19.1000 C   0  0  0  0  0  2  0  0  0  0  0  0
  -30.3180  -23.1220   19.3290 O   0  0  0  0  0  0  0  0  0  0  0  0
  -31.1550  -21.9830   19.2080 C   0  0  0  0  0  2  0  0  0  0  0  0
  -30.3120  -20.7480   19.5640 C   0  0  0  0  0  2  0  0  0  0  0  0
  -30.6810  -20.1930   20.8250 O   0  0  0  0  0  0  0  0  0  0  0  0
  -31.6140  -19.1180   20.7730 C   0  0  0  0  0  2  0  0  0  0  0  0
  -31.0530  -17.9540   19.9390 C   0  0  0  0  0  2  0  0  0  0  0  0
  -31.8890  -15.6780   20.4900 C   0  0  0  0  0  0  0  0  0  0  0  0
  -31.9730  -13.2240   20.2850 C   0  0  0  0  0  2  0  0  0  0  0  0
  -31.1900  -12.8050   19.0220 C   0  0  0  0  0  2  0  0  0  0  0  0
  -29.6860  -12.6430   19.3330 C   0  0  0  0  0  2  0  0  0  0  0  0
  -29.1010  -13.8620   20.0980 C   0  0  0  0  0  3  0  0  0  0  0  0
  -30.0030  -14.2210   21.3020 C   0  0  0  0  0  2  0  0  0  0  0  0
  -31.3710  -14.4620   20.7980 N   0  0  0  0  0  0  0  0  0  0  0  0
  -32.9940  -15.8460   19.9660 O   0  0  0  0  0  0  0  0  0  0  0  0
  -31.0370  -16.6890   20.6640 N   0  0  0  0  0  0  0  0  0  0  0  0
  -30.1770  -16.4540   21.1410 H   0  0  0  0  0  0  0  0  0  0  0  0
  -26.7130  -14.5280   20.8060 C   0  0  0  0  0  0  0  0  0  0  0  0
  -25.5980  -13.7830   21.0720 C   0  0  0  0  0  0  0  0  0  0  0  0
  -25.9890  -12.4180   20.9120 C   0  0  0  0  0  0  0  0  0  0  0  0
  -27.7190  -13.6190   20.5110 N   0  0  0  0  0  0  0  0  0  0  0  0
  -27.2800  -12.3390   20.6220 N   0  0  0  0  0  0  0  0  0  0  0  0
  -25.1960  -11.1840   20.9570 C   0  0  0  0  0  0  0  0  0  0  0  0
  -25.4460  -10.1800   21.9200 C   0  0  0  0  0  3  0  0  0  0  0  0
  -24.6560   -9.0110   21.9540 C   0  0  0  0  0  3  0  0  0  0  0  0
  -23.6060   -8.8350   21.0210 C   0  0  0  0  0  0  0  0  0  0  0  0
  -23.3790   -9.8260   20.0500 C   0  0  0  0  0  3  0  0  0  0  0  0
  -24.1680  -10.9870   20.0140 C   0  0  0  0  0  3  0  0  0  0  0  0
  -22.8070   -7.7200   20.9620 O   0  0  0  0  0  0  0  0  0  0  0  0
  -22.4250   -7.0480   22.0950 C   0  0  0  0  0  0  0  0  0  0  0  0
  -21.6880   -7.6760   23.1230 C   0  0  0  0  0  3  0  0  0  0  0  0
  -21.2550   -6.9300   24.2370 C   0  0  0  0  0  3  0  0  0  0  0  0
  -21.5490   -5.5550   24.3220 C   0  0  0  0  0  0  0  0  0  0  0  0
  -22.2800   -4.9260   23.2980 C   0  0  0  0  0  3  0  0  0  0  0  0
  -22.7140   -5.6700   22.1860 C   0  0  0  0  0  0  0  0  0  0  0  0
  -23.3980   -5.0540   21.1930 F   0  0  0  0  0  0  0  0  0  0  0  0
  -21.1280   -4.8380   25.3900 F   0  0  0  0  0  0  0  0  0  0  0  0
  -24.2190  -14.3020   21.3650 C   0  0  0  0  0  0  0  0  0  0  0  0
  -23.4450  -13.5740   22.1610 N   0  0  0  0  0  0  0  0  0  0  0  0
  -23.8390  -15.3900   20.9290 O   0  0  0  0  0  0  0  0  0  0  0  0
  -23.7640  -12.6940   22.5400 H   0  0  0  0  0  0  0  0  0  0  0  0
  -22.5190  -13.9020   22.3980 H   0  0  0  0  0  0  0  0  0  0  0  0
  -26.9530  -15.9000   20.7770 N   0  0  0  0  0  0  0  0  0  0  0  0
  -26.2200  -16.5850   20.9350 H   0  0  0  0  0  0  0  0  0  0  0  0
  -27.8350  -16.3210   20.5130 H   0  0  0  0  0  0  0  0  0  0  0  0
  -27.3060  -24.1170   23.1360 C   0  0  0  0  0  2  0  0  0  0  0  0
  -26.9370  -23.9930   21.7640 O   0  0  0  0  0  0  0  0  0  0  0  0
  -26.5330  -25.2260   21.1890 C   0  0  0  0  0  2  0  0  0  0  0  0
  -26.7040  -25.1930   19.6570 C   0  0  0  0  0  2  0  0  0  0  0  0
  -26.8770  -26.5140   19.1440 O   0  0  0  0  0  0  0  0  0  0  0  0
  -24.7160  -31.4590   23.7450 C   0  0  0  0  0  0  0  0  0  0  0  0
  -25.8910  -27.4130   19.4670 C   0  0  0  0  0  0  0  0  0  0  0  0
  -23.0210  -30.7080   22.1040 C   0  0  0  0  0  3  0  0  0  0  0  0
  -23.8970  -29.2740   20.1870 C   0  0  0  0  0  0  0  0  0  0  0  0
  -25.5130  -30.6260   21.5380 C   0  0  0  0  0  2  0  0  0  0  0  0
  -25.2090  -29.4400   20.6480 C   0  0  0  0  0  0  0  0  0  0  0  0
  -26.2110  -28.5180   20.2810 C   0  0  0  0  0  3  0  0  0  0  0  0
  -24.5640  -27.2510   19.0090 C   0  0  0  0  0  3  0  0  0  0  0  0
  -23.5670  -28.1790   19.3690 C   0  0  0  0  0  3  0  0  0  0  0  0
  -22.8880  -30.3190   20.6070 C   0  0  0  0  0  2  0  0  0  0  0  0
  -24.4450  -30.9270   22.5190 N   0  0  0  0  0  0  0  0  0  0  0  0
  -23.8030  -31.8060   24.5060 O   0  0  0  0  0  0  0  0  0  0  0  0
  -22.2940  -29.6440   22.9540 C   0  0  0  0  0  0  0  0  0  0  0  0
  -20.9700  -29.5290   22.7570 N   0  0  0  0  0  0  0  0  0  0  0  0
  -22.9150  -28.9280   23.7430 O   0  0  0  0  0  0  0  0  0  0  0  0
  -20.5330  -30.1550   22.0940 H   0  0  0  0  0  0  0  0  0  0  0  0
  -17.6060  -28.2150   22.7780 C   0  0  0  0  0  0  0  0  0  0  0  0
  -20.0860  -28.5700   23.4180 C   0  0  0  0  0  3  0  0  0  0  0  0
  -20.3230  -27.1380   22.8870 C   0  0  0  0  0  2  0  0  0  0  0  0
  -19.3930  -26.7610   21.7280 C   0  0  0  0  0  2  0  0  0  0  0  0
  -17.9270  -26.8650   22.1590 C   0  0  0  0  0  2  0  0  0  0  0  0
  -18.6220  -29.0230   23.3550 C   0  0  0  0  0  0  0  0  0  0  0  0
  -18.2760  -30.2860   23.8820 C   0  0  0  0  0  3  0  0  0  0  0  0
  -16.9460  -30.7420   23.8440 C   0  0  0  0  0  3  0  0  0  0  0  0
  -15.9420  -29.9340   23.2850 C   0  0  0  0  0  3  0  0  0  0  0  0
  -16.2710  -28.6720   22.7580 C   0  0  0  0  0  3  0  0  0  0  0  0
  -26.1820  -31.6760   24.2370 C   0  0  0  0  0  3  0  0  0  0  0  0
  -26.6760  -30.5580   25.2340 C   0  0  1  0  0  0  0  0  0  0  0  0
  -25.7170  -30.3180   26.4230 C   0  0  0  0  0  1  0  0  0  0  0  0
  -26.8630  -29.2120   24.4950 C   0  0  0  0  0  1  0  0  0  0  0  0
  -28.0610  -30.9440   25.8090 C   0  0  0  0  0  1  0  0  0  0  0  0
  -26.2430  -33.0010   24.8670 N   0  0  0  0  0  0  0  0  0  0  0  0
  -26.7900  -34.0880   24.3020 C   0  0  0  0  0  0  0  0  0  0  0  0
  -27.3660  -34.0580   23.2110 O   0  0  0  0  0  0  0  0  0  0  0  0
  -25.7420  -33.1100   25.7360 H   0  0  0  0  0  0  0  0  0  0  0  0
  -25.5690  -36.2820   24.4420 C   0  0  0  0  0  1  0  0  0  0  0  0
  -26.6760  -35.4180   25.0690 C   0  0  0  0  0  3  0  0  0  0  0  0
  -28.9730  -35.5490   25.9270 C   0  0  0  0  0  1  0  0  0  0  0  0
  -27.9420  -36.1830   25.1100 N   0  0  0  0  0  0  0  0  0  0  0  0
  -27.7850  -37.1180   25.4710 H   0  0  0  0  0  0  0  0  0  0  0  0
  1 59  1  0
  1  3  1  0
  2  6  1  0
  2  4  2  0
  3  2  1  0
  5  3  1  0
  6  7  1  0
  8  7  1  0
  9 11  2  0
  9  1  1  0
 10  9  1  0
 12 10  1  0
 13 10  1  0
 14 15  1  0
 14 13  1  0
 16 15  1  0
 16 17  1  0
 17 18  1  0
 19 18  1  0
 20 29  1  0
 20 19  1  0
 21 29  1  0
 21 27  1  0
 22 27  1  0
 23 24  1  0
 23 22  1  0
 25 24  1  0
 25 34  1  0
 25 26  1  0
 27 26  1  0
 28 21  2  0
 29 30  1  0
 31 32  2  0
 32 51  1  0
 33 36  1  0
 33 32  1  0
 34 35  1  0
 34 31  1  0
 35 33  2  0
 36 37  1  0
 37 38  2  0
 39 38  1  0
 40 39  2  0
 41 40  1  0
 41 36  2  0
 42 39  1  0
 42 43  1  0
 43 48  2  0
 43 44  1  0
 44 45  2  0
 45 46  1  0
 46 50  1  0
 47 46  2  0
 48 47  1  0
 49 48  1  0
 51 52  1  0
 52 55  1  0
 52 54  1  0
 53 51  2  0
 56 31  1  0
 56 57  1  0
 58 56  1  0
 60 59  1  0
 61 60  1  0
 62 61  1  0
 63 65  1  0
 63 62  1  0
 64 75  2  0
 65 70  1  0
 66 74  1  0
 66 76  1  0
 67 73  1  0
 67 69  1  0
 68 74  1  0
 69 68  1  0
 70 69  2  0
 71 72  1  0
 71 65  2  0
 72 67  2  0
 73 66  1  0
 74 64  1  0
 76 78  2  0
 77 76  1  0
 79 77  1  0
 80 85  1  0
 81 77  1  0
 82 81  1  0
 83 84  1  0
 83 82  1  0
 84 80  1  0
 85 81  1  0
 85 86  2  0
 87 86  1  0
 88 87  2  0
 89 80  2  0
 89 88  1  0
 90 64  1  0
 90 95  1  0
 90 91  1  0
 91 94  1  1
 91 92  1  0
 93 91  1  0
 95 98  1  0
 96 95  1  0
 96100  1  0
 97 96  2  0
100 99  1  0
100102  1  0
102103  1  0
102101  1  0
M  ISO  4  21 100  29 100  62 101  63 101
M  END
>  <TORSDO>  (42) 
F 32

>  <SCORE>  (42) 
-3.836

>  <name>  (42) 
42

>  <ligand_id>  (42) 
42

>  <original_smiles>  (42) 
[H]OC([H])([H])C(=O)N([H])C([H])(C(=O)N([H])C([H])([H])C([H])([H])OC([H])([H])C([H])([H])OC([H])([H])C([H])([H])N([H])C(=O)N1C([H])([H])C([H])([H])C([H])([H])C([H])(n2nc(-c3c([H])c([H])c(Oc4c([H])c([H])c(F)c([H])c4F)c([H])c3[H])c(C(=O)N([H])[H])c2N([H])[H])C1([H])[H])C([H])([H])OC([H])([H])C([H])([H])Oc1c([H])c([H])c2c(c1[H])C([H])([H])N(C(=O)C([H])(N([H])C(=O)C([H])(N([H])C([H])([H])[H])C([H])([H])[H])C(C([H])([H])[H])(C([H])([H])[H])C([H])([H])[H])C([H])(C(=O)N([H])C1([H])c3c([H])c([H])c([H])c([H])c3C([H])([H])C([H])([H])C1([H])[H])C2([H])[H]

>  <smiles>  (42) 
[H]OC([H])([H])C(=O)N([H])C([H])(C(=O)N([H])C([H])([H])C([H])([H])OC([H])([H])C([H])([H])OC([H])([H])C([H])([H])N([H])C(=O)N1C([H])([H])C([H])([H])C([H])([H])C([H])(n2nc(-c3c([H])c([H])c(Oc4c([H])c([H])c(F)c([H])c4F)c([H])c3[H])c(C(=O)N([H])[H])c2N([H])[H])C1([H])[H])C([H])([H])OC([H])([H])C([H])([H])Oc1c([H])c([H])c2c(c1[H])C([H])([H])N(C(=O)C([H])(N([H])C(=O)C([H])(N([H])C([H])([H])[H])C([H])([H])[H])C(C([H])([H])[H])(C([H])([H])[H])C([H])([H])[H])C([H])(C(=O)N([H])C1([H])c3c([H])c([H])c([H])c([H])c3C([H])([H])C([H])([H])C1([H])[H])C2([H])[H]

$$$$
43:0:0
     RDKit          3D

 97104  0  0  1  0  0  0  0  0999 V2000
  -27.8550  -19.8180   18.1430 C   0  0  0  0  0  2  0  0  0  0  0  0
  -28.1260  -22.2550   18.5380 C   0  0  0  0  0  0  0  0  0  0  0  0
  -27.6040  -21.0670   18.8570 N   0  0  0  0  0  0  0  0  0  0  0  0
  -28.8000  -22.4430   17.5240 O   0  0  0  0  0  0  0  0  0  0  0  0
  -27.0600  -21.0060   19.7050 H   0  0  0  0  0  0  0  0  0  0  0  0
  -27.8150  -23.2590   19.5360 C   0  0  0  0  0  3  0  0  0  0  0  0
  -28.5400  -24.3900   19.6040 C   0  0  0  0  0  3  0  0  0  0  0  0
  -28.3280  -25.4790   20.6290 C   0  0  0  0  0  2  0  0  0  0  0  0
  -28.3730  -26.7660   20.0210 O   0  0  0  0  0  0  0  0  0  0  0  0
  -24.5780  -31.7530   23.3320 C   0  0  0  0  0  0  0  0  0  0  0  0
  -27.1950  -27.4650   20.0630 C   0  0  0  0  0  0  0  0  0  0  0  0
  -23.3540  -30.4170   21.6440 C   0  0  0  0  0  3  0  0  0  0  0  0
  -24.7950  -28.9360   20.1500 C   0  0  0  0  0  0  0  0  0  0  0  0
  -25.8730  -30.7940   21.4340 C   0  0  0  0  0  2  0  0  0  0  0  0
  -25.9550  -29.4500   20.7440 C   0  0  0  0  0  0  0  0  0  0  0  0
  -27.1610  -28.7230   20.6940 C   0  0  0  0  0  3  0  0  0  0  0  0
  -26.0230  -26.9490   19.4690 C   0  0  0  0  0  3  0  0  0  0  0  0
  -24.8240  -27.6850   19.5070 C   0  0  0  0  0  3  0  0  0  0  0  0
  -23.5510  -29.7890   20.2380 C   0  0  0  0  0  2  0  0  0  0  0  0
  -24.6210  -30.9990   22.1970 N   0  0  0  0  0  0  0  0  0  0  0  0
  -23.5020  -32.0030   23.8920 O   0  0  0  0  0  0  0  0  0  0  0  0
  -22.7120  -29.3590   22.5700 C   0  0  0  0  0  0  0  0  0  0  0  0
  -21.3960  -29.1460   22.4070 N   0  0  0  0  0  0  0  0  0  0  0  0
  -23.3950  -28.7340   23.3870 O   0  0  0  0  0  0  0  0  0  0  0  0
  -20.9080  -29.7080   21.7240 H   0  0  0  0  0  0  0  0  0  0  0  0
  -18.0570  -27.8090   22.7430 C   0  0  0  0  0  0  0  0  0  0  0  0
  -20.5860  -28.1730   23.1380 C   0  0  0  0  0  3  0  0  0  0  0  0
  -20.7760  -26.7490   22.5660 C   0  0  0  0  0  2  0  0  0  0  0  0
  -19.7380  -26.3830   21.5010 C   0  0  0  0  0  2  0  0  0  0  0  0
  -18.3230  -26.4690   22.0780 C   0  0  0  0  0  2  0  0  0  0  0  0
  -19.1210  -28.6170   23.2260 C   0  0  0  0  0  0  0  0  0  0  0  0
  -18.8220  -29.8690   23.8030 C   0  0  0  0  0  3  0  0  0  0  0  0
  -17.4920  -30.3170   23.9050 C   0  0  0  0  0  3  0  0  0  0  0  0
  -16.4420  -29.5070   23.4390 C   0  0  0  0  0  3  0  0  0  0  0  0
  -16.7240  -28.2550   22.8640 C   0  0  0  0  0  3  0  0  0  0  0  0
  -25.8710  -32.3560   23.9660 C   0  0  0  0  0  3  0  0  0  0  0  0
  -25.6010  -33.7690   24.2620 N   0  0  0  0  0  0  0  0  0  0  0  0
  -25.9880  -34.7930   23.4900 C   0  0  0  0  0  0  0  0  0  0  0  0
  -26.6800  -34.6450   22.4780 O   0  0  0  0  0  0  0  0  0  0  0  0
  -24.9950  -33.9590   25.0450 H   0  0  0  0  0  0  0  0  0  0  0  0
  -24.3410  -36.6380   23.0380 C   0  0  0  0  0  1  0  0  0  0  0  0
  -25.5350  -36.2060   23.9050 C   0  0  0  0  0  3  0  0  0  0  0  0
  -27.6630  -37.0300   24.8080 C   0  0  0  0  0  1  0  0  0  0  0  0
  -26.6090  -37.2180   23.8150 N   0  0  0  0  0  0  0  0  0  0  0  0
  -26.2320  -38.1550   23.9280 H   0  0  0  0  0  0  0  0  0  0  0  0
  -26.3410  -31.5910   25.2640 C   0  0  1  0  0  0  0  0  0  0  0  0
  -25.2220  -31.4050   26.3150 C   0  0  0  0  0  1  0  0  0  0  0  0
  -26.8880  -30.1910   24.9010 C   0  0  0  0  0  1  0  0  0  0  0  0
  -27.5050  -32.3600   25.9310 C   0  0  0  0  0  1  0  0  0  0  0  0
  -29.1020  -19.1130   18.6960 C   0  0  0  0  0  2  0  0  0  0  0  0
  -30.2640  -19.8340   18.3060 O   0  0  0  0  0  0  0  0  0  0  0  0
  -31.4300  -19.4450   19.0180 C   0  0  0  0  0  2  0  0  0  0  0  0
  -31.6630  -20.3690   20.2200 C   0  0  0  0  0  2  0  0  0  0  0  0
  -30.4730  -20.5200   20.9900 O   0  0  0  0  0  0  0  0  0  0  0  0
  -30.7400  -20.7160   22.3750 C   0  0  0  0  0  2  0  0  0  0  0  0
  -30.5170  -19.4150   23.1720 C   0  0  0  0  0  2  0  0  0  0  0  0
  -31.3500  -18.3570   22.6970 O   0  0  0  0  0  0  0  0  0  0  0  0
  -30.6310  -17.4100   21.9130 C   0  0  0  0  0  2  0  0  0  0  0  0
  -31.5920  -16.4030   21.2650 C   0  0  0  0  0  2  0  0  0  0  0  0
  -31.0460  -14.5390   19.6670 C   0  0  0  0  0  0  0  0  0  0  0  0
  -30.6600  -12.3090   18.6780 C   0  0  0  0  0  2  0  0  0  0  0  0
  -29.6080  -12.2890   17.5560 C   0  0  0  0  0  2  0  0  0  0  0  0
  -28.1850  -12.1580   18.1290 C   0  0  0  0  0  2  0  0  0  0  0  0
  -27.9100  -13.1800   19.2620 C   0  0  0  0  0  3  0  0  0  0  0  0
  -29.0460  -13.1540   20.3060 C   0  0  0  0  0  2  0  0  0  0  0  0
  -30.3310  -13.3880   19.6180 N   0  0  0  0  0  0  0  0  0  0  0  0
  -31.9110  -14.8480   18.8420 O   0  0  0  0  0  0  0  0  0  0  0  0
  -30.8500  -15.2380   20.7900 N   0  0  0  0  0  0  0  0  0  0  0  0
  -30.1490  -14.8660   21.4150 H   0  0  0  0  0  0  0  0  0  0  0  0
  -25.6450  -13.8660   20.2830 C   0  0  0  0  0  0  0  0  0  0  0  0
  -24.5850  -13.1290   20.7380 C   0  0  0  0  0  0  0  0  0  0  0  0
  -24.9630  -11.7590   20.5840 C   0  0  0  0  0  0  0  0  0  0  0  0
  -26.6050  -12.9490   19.8840 N   0  0  0  0  0  0  0  0  0  0  0  0
  -26.2030  -11.6720   20.1190 N   0  0  0  0  0  0  0  0  0  0  0  0
  -24.1950  -10.5250   20.7950 C   0  0  0  0  0  0  0  0  0  0  0  0
  -24.5990   -9.5560   21.7390 C   0  0  0  0  0  3  0  0  0  0  0  0
  -23.8340   -8.3870   21.9390 C   0  0  0  0  0  3  0  0  0  0  0  0
  -22.6510   -8.1770   21.1900 C   0  0  0  0  0  0  0  0  0  0  0  0
  -22.2650   -9.1340   20.2350 C   0  0  0  0  0  3  0  0  0  0  0  0
  -23.0300  -10.2950   20.0350 C   0  0  0  0  0  3  0  0  0  0  0  0
  -21.8570   -7.0600   21.2970 O   0  0  0  0  0  0  0  0  0  0  0  0
  -21.6640   -6.4280   22.5000 C   0  0  0  0  0  0  0  0  0  0  0  0
  -21.1170   -7.0990   23.6150 C   0  0  0  0  0  3  0  0  0  0  0  0
  -20.8690   -6.3930   24.8100 C   0  0  0  0  0  3  0  0  0  0  0  0
  -21.1570   -5.0180   24.8880 C   0  0  0  0  0  0  0  0  0  0  0  0
  -21.7000   -4.3470   23.7780 C   0  0  0  0  0  3  0  0  0  0  0  0
  -21.9480   -5.0500   22.5860 C   0  0  0  0  0  0  0  0  0  0  0  0
  -22.4490   -4.3930   21.5110 F   0  0  0  0  0  0  0  0  0  0  0  0
  -20.9130   -4.3390   26.0330 F   0  0  0  0  0  0  0  0  0  0  0  0
  -23.2590  -13.6570   21.2030 C   0  0  0  0  0  0  0  0  0  0  0  0
  -22.6050  -12.9530   22.1200 N   0  0  0  0  0  0  0  0  0  0  0  0
  -22.8160  -14.7270   20.7890 O   0  0  0  0  0  0  0  0  0  0  0  0
  -22.9760  -12.0860   22.4760 H   0  0  0  0  0  0  0  0  0  0  0  0
  -21.7180  -13.2870   22.4710 H   0  0  0  0  0  0  0  0  0  0  0  0
  -25.8670  -15.2340   20.1580 N   0  0  0  0  0  0  0  0  0  0  0  0
  -25.1620  -15.9230   20.3970 H   0  0  0  0  0  0  0  0  0  0  0  0
  -26.7070  -15.6440   19.7690 H   0  0  0  0  0  0  0  0  0  0  0  0
  1 50  1  0
  1  3  1  0
  2  3  1  0
  2  6  1  0
  3  5  1  0
  4  2  2  0
  6  7  2  0
  7  8  1  0
  9 11  1  0
  9  8  1  0
 10 21  2  0
 11 16  1  0
 12 20  1  0
 12 22  1  0
 13 19  1  0
 13 15  1  0
 14 20  1  0
 15 14  1  0
 16 15  2  0
 17 18  1  0
 17 11  2  0
 18 13  2  0
 19 12  1  0
 20 10  1  0
 22 24  2  0
 23 22  1  0
 25 23  1  0
 26 35  2  0
 26 31  1  0
 27 23  1  0
 27 31  1  0
 28 27  1  0
 29 30  1  0
 29 28  1  0
 30 26  1  0
 31 32  2  0
 32 33  1  0
 34 33  2  0
 35 34  1  0
 36 10  1  0
 36 37  1  0
 36 46  1  0
 37 40  1  0
 38 42  1  0
 38 37  1  0
 39 38  2  0
 42 41  1  0
 44 42  1  0
 44 45  1  0
 44 43  1  0
 46 49  1  1
 46 47  1  0
 48 46  1  0
 51 50  1  0
 51 52  1  0
 52 53  1  0
 53 54  1  0
 54 55  1  0
 55 56  1  0
 57 56  1  0
 58 57  1  0
 59 58  1  0
 60 68  1  0
 61 66  1  0
 62 63  1  0
 62 61  1  0
 64 63  1  0
 64 73  1  0
 64 65  1  0
 66 60  1  0
 66 65  1  0
 67 60  2  0
 68 59  1  0
 68 69  1  0
 70 71  2  0
 71 90  1  0
 72 71  1  0
 72 75  1  0
 73 74  1  0
 73 70  1  0
 74 72  2  0
 75 76  1  0
 76 77  2  0
 78 81  1  0
 78 77  1  0
 79 78  2  0
 80 79  1  0
 80 75  2  0
 81 82  1  0
 82 87  2  0
 82 83  1  0
 83 84  2  0
 84 85  1  0
 85 89  1  0
 86 85  2  0
 87 86  1  0
 88 87  1  0
 90 91  1  0
 91 94  1  0
 91 93  1  0
 92 90  2  0
 95 70  1  0
 95 96  1  0
 97 95  1  0
M  ISO  4   8 101   9 101  60 100  68 100
M  END
>  <TORSDO>  (43) 
F 29

>  <SCORE>  (43) 
-10.236

>  <name>  (43) 
43

>  <ligand_id>  (43) 
43

>  <original_smiles>  (43) 
[H]C(C(=O)N([H])C([H])([H])C([H])([H])OC([H])([H])C([H])([H])OC([H])([H])C([H])([H])OC([H])([H])C([H])([H])N([H])C(=O)N1C([H])([H])C([H])([H])C([H])([H])C([H])(n2nc(-c3c([H])c([H])c(Oc4c([H])c([H])c(F)c([H])c4F)c([H])c3[H])c(C(=O)N([H])[H])c2N([H])[H])C1([H])[H])=C([H])C([H])([H])Oc1c([H])c([H])c2c(c1[H])C([H])([H])N(C(=O)C([H])(N([H])C(=O)C([H])(N([H])C([H])([H])[H])C([H])([H])[H])C(C([H])([H])[H])(C([H])([H])[H])C([H])([H])[H])C([H])(C(=O)N([H])C1([H])c3c([H])c([H])c([H])c([H])c3C([H])([H])C([H])([H])C1([H])[H])C2([H])[H]

>  <smiles>  (43) 
[H]C(C(=O)N([H])C([H])([H])C([H])([H])OC([H])([H])C([H])([H])OC([H])([H])C([H])([H])OC([H])([H])C([H])([H])N([H])C(=O)N1C([H])([H])C([H])([H])C([H])([H])C([H])(n2nc(-c3c([H])c([H])c(Oc4c([H])c([H])c(F)c([H])c4F)c([H])c3[H])c(C(=O)N([H])[H])c2N([H])[H])C1([H])[H])=C([H])C([H])([H])Oc1c([H])c([H])c2c(c1[H])C([H])([H])N(C(=O)C([H])(N([H])C(=O)C([H])(N([H])C([H])([H])[H])C([H])([H])[H])C(C([H])([H])[H])(C([H])([H])[H])C([H])([H])[H])C([H])(C(=O)N([H])C1([H])c3c([H])c([H])c([H])c([H])c3C([H])([H])C([H])([H])C1([H])[H])C2([H])[H]

$$$$
44:0:0
     RDKit          3D

 97104  0  0  1  0  0  0  0  0999 V2000
  -27.8070  -24.9180   21.5330 C   0  0  0  0  0  0  0  0  0  0  0  0
  -26.0420  -23.4100   22.4380 C   0  0  0  0  0  0  0  0  0  0  0  0
  -26.0730  -23.8760   23.6930 N   0  0  0  0  0  4  0  0  0  0  0  0
  -26.8080  -23.8960   21.4370 N   0  0  0  0  0  0  0  0  0  0  0  0
  -25.1900  -22.4000   22.1940 N   0  0  0  0  0  0  0  0  0  0  0  0
  -28.1290  -25.4330   22.6120 O   0  0  0  0  0  0  0  0  0  0  0  0
  -26.7220  -24.6240   23.9170 H   0  0  0  0  0  0  0  0  0  0  0  0
  -25.5100  -23.5020   24.4440 H   0  0  0  0  0  0  0  0  0  0  0  0
  -26.5950  -23.4880   20.5420 H   0  0  0  0  0  0  0  0  0  0  0  0
  -24.5950  -22.0850   22.9480 H   0  0  0  0  0  0  0  0  0  0  0  0
  -28.4010  -25.3600   20.1850 C   0  0  0  0  0  2  0  0  0  0  0  0
  -28.4340  -26.7880   20.0930 O   0  0  0  0  0  0  0  0  0  0  0  0
  -24.6100  -31.8720   23.2130 C   0  0  0  0  0  0  0  0  0  0  0  0
  -27.2380  -27.4730   20.0790 C   0  0  0  0  0  0  0  0  0  0  0  0
  -23.3950  -30.4950   21.5540 C   0  0  0  0  0  3  0  0  0  0  0  0
  -24.8400  -28.9630   20.1160 C   0  0  0  0  0  0  0  0  0  0  0  0
  -25.9190  -30.8460   21.3620 C   0  0  0  0  0  2  0  0  0  0  0  0
  -25.9980  -29.4840   20.7060 C   0  0  0  0  0  0  0  0  0  0  0  0
  -27.1980  -28.7450   20.6840 C   0  0  0  0  0  3  0  0  0  0  0  0
  -26.0630  -26.9580   19.4840 C   0  0  0  0  0  3  0  0  0  0  0  0
  -24.8650  -27.6980   19.5050 C   0  0  0  0  0  3  0  0  0  0  0  0
  -23.6000  -29.8260   20.1680 C   0  0  0  0  0  2  0  0  0  0  0  0
  -24.6590  -31.0850   22.1020 N   0  0  0  0  0  0  0  0  0  0  0  0
  -23.5310  -32.1470   23.7550 O   0  0  0  0  0  0  0  0  0  0  0  0
  -22.7380  -29.4670   22.5020 C   0  0  0  0  0  0  0  0  0  0  0  0
  -21.4120  -29.3030   22.3760 N   0  0  0  0  0  0  0  0  0  0  0  0
  -23.4180  -28.8200   23.3020 O   0  0  0  0  0  0  0  0  0  0  0  0
  -20.9290  -29.8770   21.6990 H   0  0  0  0  0  0  0  0  0  0  0  0
  -18.0270  -28.1370   22.8480 C   0  0  0  0  0  0  0  0  0  0  0  0
  -20.5860  -28.3650   23.1350 C   0  0  0  0  0  3  0  0  0  0  0  0
  -20.6770  -26.9390   22.5430 C   0  0  0  0  0  2  0  0  0  0  0  0
  -19.5770  -26.6390   21.5210 C   0  0  0  0  0  2  0  0  0  0  0  0
  -18.1930  -26.7930   22.1600 C   0  0  0  0  0  2  0  0  0  0  0  0
  -19.1510  -28.8820   23.2910 C   0  0  0  0  0  0  0  0  0  0  0  0
  -18.9450  -30.1420   23.8930 C   0  0  0  0  0  3  0  0  0  0  0  0
  -17.6460  -30.6590   24.0570 C   0  0  0  0  0  3  0  0  0  0  0  0
  -16.5350  -29.9100   23.6320 C   0  0  0  0  0  3  0  0  0  0  0  0
  -16.7260  -28.6510   23.0350 C   0  0  0  0  0  3  0  0  0  0  0  0
  -25.9020  -32.4840   23.8400 C   0  0  0  0  0  3  0  0  0  0  0  0
  -25.5880  -33.8640   24.2330 N   0  0  0  0  0  0  0  0  0  0  0  0
  -25.9030  -34.9480   23.5130 C   0  0  0  0  0  0  0  0  0  0  0  0
  -26.5590  -34.8930   22.4690 O   0  0  0  0  0  0  0  0  0  0  0  0
  -25.0060  -33.9810   25.0490 H   0  0  0  0  0  0  0  0  0  0  0  0
  -24.1490  -36.7320   23.2630 C   0  0  0  0  0  1  0  0  0  0  0  0
  -25.4100  -36.3110   24.0330 C   0  0  0  0  0  3  0  0  0  0  0  0
  -27.5580  -37.1810   24.8460 C   0  0  0  0  0  1  0  0  0  0  0  0
  -26.4290  -37.3790   23.9410 N   0  0  0  0  0  0  0  0  0  0  0  0
  -26.0190  -38.2870   24.1400 H   0  0  0  0  0  0  0  0  0  0  0  0
  -26.4470  -31.6610   25.0720 C   0  0  1  0  0  0  0  0  0  0  0  0
  -25.3750  -31.3720   26.1470 C   0  0  0  0  0  1  0  0  0  0  0  0
  -27.0290  -30.3050   24.6070 C   0  0  0  0  0  1  0  0  0  0  0  0
  -27.6040  -32.4330   25.7480 C   0  0  0  0  0  1  0  0  0  0  0  0
  -25.0160  -21.6570   20.9340 C   0  0  0  0  0  2  0  0  0  0  0  0
  -25.4090  -20.1870   21.1190 C   0  0  0  0  0  2  0  0  0  0  0  0
  -26.9210  -19.9710   21.3190 C   0  0  0  0  0  2  0  0  0  0  0  0
  -27.2190  -18.5150   21.6830 C   0  0  0  0  0  2  0  0  0  0  0  0
  -28.6170  -18.2560   21.6830 O   0  0  0  0  0  0  0  0  0  0  0  0
  -28.8410  -16.8620   21.8330 C   0  0  0  0  0  2  0  0  0  0  0  0
  -30.3250  -16.4740   21.8400 C   0  0  0  0  0  2  0  0  0  0  0  0
  -30.7770  -14.3260   20.7050 C   0  0  0  0  0  0  0  0  0  0  0  0
  -30.4240  -12.2680   19.3930 C   0  0  0  0  0  2  0  0  0  0  0  0
  -29.4900  -12.5280   18.1970 C   0  0  0  0  0  2  0  0  0  0  0  0
  -28.0140  -12.3810   18.6090 C   0  0  0  0  0  2  0  0  0  0  0  0
  -27.6750  -13.1930   19.8860 C   0  0  0  0  0  3  0  0  0  0  0  0
  -28.7100  -12.9170   21.0020 C   0  0  0  0  0  2  0  0  0  0  0  0
  -30.0680  -13.1900   20.4810 N   0  0  0  0  0  0  0  0  0  0  0  0
  -31.7340  -14.6960   20.0200 O   0  0  0  0  0  0  0  0  0  0  0  0
  -30.3670  -15.0190   21.7660 N   0  0  0  0  0  0  0  0  0  0  0  0
  -29.6900  -14.5370   22.3380 H   0  0  0  0  0  0  0  0  0  0  0  0
  -25.2640  -13.8130   20.5660 C   0  0  0  0  0  0  0  0  0  0  0  0
  -24.1870  -13.0440   20.9160 C   0  0  0  0  0  0  0  0  0  0  0  0
  -24.6380  -11.6890   20.8690 C   0  0  0  0  0  0  0  0  0  0  0  0
  -26.3080  -12.9280   20.3380 N   0  0  0  0  0  0  0  0  0  0  0  0
  -25.9320  -11.6450   20.5730 N   0  0  0  0  0  0  0  0  0  0  0  0
  -23.9040  -10.4290   21.0380 C   0  0  0  0  0  0  0  0  0  0  0  0
  -24.3610   -9.4200   21.9150 C   0  0  0  0  0  3  0  0  0  0  0  0
  -23.6300   -8.2230   22.0720 C   0  0  0  0  0  3  0  0  0  0  0  0
  -22.4270   -8.0270   21.3530 C   0  0  0  0  0  0  0  0  0  0  0  0
  -21.9880   -9.0250   20.4660 C   0  0  0  0  0  3  0  0  0  0  0  0
  -22.7200  -10.2140   20.3050 C   0  0  0  0  0  3  0  0  0  0  0  0
  -21.6640   -6.8860   21.4230 O   0  0  0  0  0  0  0  0  0  0  0  0
  -21.6840   -6.0730   22.5270 C   0  0  0  0  0  0  0  0  0  0  0  0
  -21.4000   -6.5640   23.8210 C   0  0  0  0  0  3  0  0  0  0  0  0
  -21.3670   -5.6800   24.9180 C   0  0  0  0  0  3  0  0  0  0  0  0
  -21.6050   -4.3050   24.7220 C   0  0  0  0  0  0  0  0  0  0  0  0
  -21.8800   -3.8140   23.4340 C   0  0  0  0  0  3  0  0  0  0  0  0
  -21.9180   -4.6960   22.3400 C   0  0  0  0  0  0  0  0  0  0  0  0
  -22.1660   -4.2150   21.0980 F   0  0  0  0  0  0  0  0  0  0  0  0
  -21.5670   -3.4540   25.7740 F   0  0  0  0  0  0  0  0  0  0  0  0
  -22.7880  -13.5240   21.1840 C   0  0  0  0  0  0  0  0  0  0  0  0
  -22.0530  -12.8240   22.0400 N   0  0  0  0  0  0  0  0  0  0  0  0
  -22.3570  -14.5560   20.6690 O   0  0  0  0  0  0  0  0  0  0  0  0
  -22.4190  -11.9920   22.4770 H   0  0  0  0  0  0  0  0  0  0  0  0
  -21.1130  -13.1220   22.2620 H   0  0  0  0  0  0  0  0  0  0  0  0
  -25.4360  -15.1850   20.4040 N   0  0  0  0  0  0  0  0  0  0  0  0
  -24.6520  -15.8250   20.4670 H   0  0  0  0  0  0  0  0  0  0  0  0
  -26.2630  -15.6050   19.9980 H   0  0  0  0  0  0  0  0  0  0  0  0
  1  6  2  0
  2  3  2  0
  3  7  1  0
  3  8  1  0
  4  1  1  0
  4  2  1  0
  5  2  1  0
  5 10  1  0
  9  4  1  0
 11  1  1  0
 12 11  1  0
 13 24  2  0
 14 12  1  0
 14 19  1  0
 15 23  1  0
 15 25  1  0
 16 22  1  0
 16 18  1  0
 17 23  1  0
 18 17  1  0
 19 18  2  0
 20 21  1  0
 20 14  2  0
 21 16  2  0
 22 15  1  0
 23 13  1  0
 25 27  2  0
 26 25  1  0
 28 26  1  0
 29 38  2  0
 29 34  1  0
 30 26  1  0
 30 34  1  0
 31 30  1  0
 32 33  1  0
 32 31  1  0
 33 29  1  0
 34 35  2  0
 35 36  1  0
 37 36  2  0
 38 37  1  0
 39 13  1  0
 39 40  1  0
 39 49  1  0
 40 43  1  0
 41 45  1  0
 41 40  1  0
 42 41  2  0
 45 44  1  0
 47 45  1  0
 47 48  1  0
 47 46  1  0
 49 52  1  1
 49 50  1  0
 51 49  1  0
 53 54  1  0
 53  5  1  0
 54 55  1  0
 55 56  1  0
 57 56  1  0
 57 58  1  0
 58 59  1  0
 60 68  1  0
 61 66  1  0
 62 63  1  0
 62 61  1  0
 64 63  1  0
 64 73  1  0
 64 65  1  0
 66 60  1  0
 66 65  1  0
 67 60  2  0
 68 59  1  0
 68 69  1  0
 70 71  2  0
 71 90  1  0
 72 71  1  0
 72 75  1  0
 73 70  1  0
 73 74  1  0
 74 72  2  0
 75 76  1  0
 76 77  2  0
 78 81  1  0
 78 77  1  0
 79 78  2  0
 80 79  1  0
 80 75  2  0
 81 82  1  0
 82 83  1  0
 83 84  2  0
 85 84  1  0
 85 89  1  0
 86 85  2  0
 87 82  2  0
 87 86  1  0
 88 87  1  0
 90 91  1  0
 91 94  1  0
 91 93  1  0
 92 90  2  0
 95 96  1  0
 95 70  1  0
 97 95  1  0
M  ISO  4  11 101  12 101  60 100  68 100
M  END
>  <TORSDO>  (44) 
F 24

>  <SCORE>  (44) 
8.189

>  <name>  (44) 
44

>  <ligand_id>  (44) 
44

>  <original_smiles>  (44) 
[H]c1c([H])c([H])c2c(c1[H])C([H])([H])C([H])([H])C([H])([H])C2([H])N([H])C(=O)C1([H])N(C(=O)C([H])(N([H])C(=O)C([H])(N([H])C([H])([H])[H])C([H])([H])[H])C(C([H])([H])[H])(C([H])([H])[H])C([H])([H])[H])C([H])([H])c2c([H])c(OC([H])([H])C(=O)N([H])C(N([H])[H])=[N+]([H])C([H])([H])C([H])([H])C([H])([H])C([H])([H])OC([H])([H])C([H])([H])N([H])C(=O)N3C([H])([H])C([H])([H])C([H])([H])C([H])(n4nc(-c5c([H])c([H])c(Oc6c([H])c([H])c(F)c([H])c6F)c([H])c5[H])c(C(=O)N([H])[H])c4N([H])[H])C3([H])[H])c([H])c([H])c2C1([H])[H]

>  <smiles>  (44) 
[H]c1c([H])c([H])c2c(c1[H])C([H])([H])C([H])([H])C([H])([H])C2([H])N([H])C(=O)C1([H])N(C(=O)C([H])(N([H])C(=O)C([H])(N([H])C([H])([H])[H])C([H])([H])[H])C(C([H])([H])[H])(C([H])([H])[H])C([H])([H])[H])C([H])([H])c2c([H])c(OC([H])([H])C(=O)N([H])C(N([H])[H])=[N+]([H])C([H])([H])C([H])([H])C([H])([H])C([H])([H])OC([H])([H])C([H])([H])N([H])C(=O)N3C([H])([H])C([H])([H])C([H])([H])C([H])(n4nc(-c5c([H])c([H])c(Oc6c([H])c([H])c(F)c([H])c6F)c([H])c5[H])c(C(=O)N([H])[H])c4N([H])[H])C3([H])[H])c([H])c([H])c2C1([H])[H]

$$$$
45:0:0
     RDKit          3D

 94101  0  0  1  0  0  0  0  0999 V2000
  -28.5490  -19.8070   21.3310 C   0  0  0  0  0  2  0  0  0  0  0  0
  -29.3800  -17.5570   20.6550 C   0  0  0  0  0  0  0  0  0  0  0  0
  -29.5010  -18.8980   20.6740 N   0  0  0  0  0  0  0  0  0  0  0  0
  -28.3900  -16.9860   21.1190 O   0  0  0  0  0  0  0  0  0  0  0  0
  -30.3380  -19.2990   20.2720 H   0  0  0  0  0  0  0  0  0  0  0  0
  -30.5230  -16.7090   20.0420 C   0  0  0  0  0  3  0  0  0  0  0  0
  -30.4820  -14.3530   19.1460 C   0  0  0  0  0  0  0  0  0  0  0  0
  -30.1030  -12.0730   18.2750 C   0  0  0  0  0  2  0  0  0  0  0  0
  -29.0130  -12.0920   17.1850 C   0  0  0  0  0  2  0  0  0  0  0  0
  -27.6110  -11.9610   17.8110 C   0  0  0  0  0  2  0  0  0  0  0  0
  -27.3910  -12.9480   18.9890 C   0  0  0  0  0  3  0  0  0  0  0  0
  -28.5820  -12.9070   19.9760 C   0  0  0  0  0  2  0  0  0  0  0  0
  -29.8230  -13.1650   19.2230 N   0  0  0  0  0  0  0  0  0  0  0  0
  -31.4070  -14.5540   18.3540 O   0  0  0  0  0  0  0  0  0  0  0  0
  -30.0640  -15.3110   19.9840 N   0  0  0  0  0  0  0  0  0  0  0  0
  -29.2810  -15.1010   20.5860 H   0  0  0  0  0  0  0  0  0  0  0  0
  -25.1270  -13.5960   20.0310 C   0  0  0  0  0  0  0  0  0  0  0  0
  -24.1170  -12.8450   20.5650 C   0  0  0  0  0  0  0  0  0  0  0  0
  -24.5490  -11.4860   20.4810 C   0  0  0  0  0  0  0  0  0  0  0  0
  -26.1180  -12.6970   19.6620 N   0  0  0  0  0  0  0  0  0  0  0  0
  -25.7790  -11.4210   19.9850 N   0  0  0  0  0  0  0  0  0  0  0  0
  -23.8400  -10.2390   20.7950 C   0  0  0  0  0  0  0  0  0  0  0  0
  -24.3420   -9.3250   21.7470 C   0  0  0  0  0  3  0  0  0  0  0  0
  -23.6370   -8.1390   22.0470 C   0  0  0  0  0  3  0  0  0  0  0  0
  -22.4130   -7.8580   21.3950 C   0  0  0  0  0  0  0  0  0  0  0  0
  -21.9270   -8.7610   20.4320 C   0  0  0  0  0  3  0  0  0  0  0  0
  -22.6340   -9.9380   20.1320 C   0  0  0  0  0  3  0  0  0  0  0  0
  -21.6700   -6.7220   21.6040 O   0  0  0  0  0  0  0  0  0  0  0  0
  -21.6670   -6.0740   22.8130 C   0  0  0  0  0  0  0  0  0  0  0  0
  -21.2730   -6.7220   24.0040 C   0  0  0  0  0  3  0  0  0  0  0  0
  -21.2180   -6.0010   25.2140 C   0  0  0  0  0  3  0  0  0  0  0  0
  -21.5470   -4.6320   25.2330 C   0  0  0  0  0  0  0  0  0  0  0  0
  -21.9320   -3.9830   24.0460 C   0  0  0  0  0  3  0  0  0  0  0  0
  -21.9910   -4.7030   22.8410 C   0  0  0  0  0  0  0  0  0  0  0  0
  -22.3440   -4.0680   21.6970 F   0  0  0  0  0  0  0  0  0  0  0  0
  -21.4860   -3.9370   26.3910 F   0  0  0  0  0  0  0  0  0  0  0  0
  -22.7830  -13.3480   21.0380 C   0  0  0  0  0  0  0  0  0  0  0  0
  -22.2000  -12.6940   22.0370 N   0  0  0  0  0  0  0  0  0  0  0  0
  -22.2720  -14.3570   20.5550 O   0  0  0  0  0  0  0  0  0  0  0  0
  -22.6290  -11.8810   22.4490 H   0  0  0  0  0  0  0  0  0  0  0  0
  -21.3110  -13.0140   22.3930 H   0  0  0  0  0  0  0  0  0  0  0  0
  -25.2860  -14.9620   19.8140 N   0  0  0  0  0  0  0  0  0  0  0  0
  -24.5610  -15.6360   20.0430 H   0  0  0  0  0  0  0  0  0  0  0  0
  -26.1110  -15.3890   19.4100 H   0  0  0  0  0  0  0  0  0  0  0  0
  -32.4780  -18.2610   20.6400 C   0  0  0  0  0  1  0  0  0  0  0  0
  -32.9750  -15.9120   20.0650 C   0  0  0  0  0  1  0  0  0  0  0  0
  -31.8540  -16.4380   22.2440 C   0  0  0  0  0  1  0  0  0  0  0  0
  -31.9280  -16.8220   20.7480 C   0  0  2  0  0  0  0  0  0  0  0  0
  -28.3480  -21.1680   20.6130 C   0  0  0  0  0  2  0  0  0  0  0  0
  -29.0560  -22.3660   21.2870 C   0  0  0  0  0  2  0  0  0  0  0  0
  -28.7160  -23.6000   20.6450 O   0  0  0  0  0  0  0  0  0  0  0  0
  -29.4730  -24.7240   21.1140 C   0  0  0  0  0  2  0  0  0  0  0  0
  -28.6050  -25.9860   21.3200 C   0  0  0  0  0  2  0  0  0  0  0  0
  -28.4870  -26.7870   20.1420 O   0  0  0  0  0  0  0  0  0  0  0  0
  -24.6990  -31.9320   23.2960 C   0  0  0  0  0  0  0  0  0  0  0  0
  -27.3480  -27.5530   20.1510 C   0  0  0  0  0  0  0  0  0  0  0  0
  -23.4940  -30.5520   21.6310 C   0  0  0  0  0  3  0  0  0  0  0  0
  -24.9540  -29.0420   20.1820 C   0  0  0  0  0  0  0  0  0  0  0  0
  -26.0180  -30.9220   21.4410 C   0  0  0  0  0  2  0  0  0  0  0  0
  -26.1070  -29.5610   20.7840 C   0  0  0  0  0  0  0  0  0  0  0  0
  -27.3110  -28.8210   20.7720 C   0  0  0  0  0  3  0  0  0  0  0  0
  -26.1840  -27.0430   19.5430 C   0  0  0  0  0  3  0  0  0  0  0  0
  -24.9850  -27.7800   19.5610 C   0  0  0  0  0  3  0  0  0  0  0  0
  -23.7050  -29.8950   20.2420 C   0  0  0  0  0  2  0  0  0  0  0  0
  -24.7540  -31.1490   22.1820 N   0  0  0  0  0  0  0  0  0  0  0  0
  -23.6170  -32.1940   23.8420 O   0  0  0  0  0  0  0  0  0  0  0  0
  -22.8470  -29.5140   22.5770 C   0  0  0  0  0  0  0  0  0  0  0  0
  -21.5340  -29.2880   22.4090 N   0  0  0  0  0  0  0  0  0  0  0  0
  -23.5240  -28.9170   23.4160 O   0  0  0  0  0  0  0  0  0  0  0  0
  -21.0480  -29.8230   21.7020 H   0  0  0  0  0  0  0  0  0  0  0  0
  -18.1960  -27.9550   22.7660 C   0  0  0  0  0  0  0  0  0  0  0  0
  -20.7230  -28.3270   23.1570 C   0  0  0  0  0  3  0  0  0  0  0  0
  -20.9160  -26.8930   22.6130 C   0  0  0  0  0  2  0  0  0  0  0  0
  -19.8810  -26.5060   21.5540 C   0  0  0  0  0  2  0  0  0  0  0  0
  -18.4630  -26.6030   22.1270 C   0  0  0  0  0  2  0  0  0  0  0  0
  -19.2580  -28.7720   23.2360 C   0  0  0  0  0  0  0  0  0  0  0  0
  -18.9570  -30.0360   23.7880 C   0  0  0  0  0  3  0  0  0  0  0  0
  -17.6260  -30.4840   23.8790 C   0  0  0  0  0  3  0  0  0  0  0  0
  -16.5770  -29.6640   23.4300 C   0  0  0  0  0  3  0  0  0  0  0  0
  -16.8620  -28.4010   22.8780 C   0  0  0  0  0  3  0  0  0  0  0  0
  -25.9850  -32.5570   23.9230 C   0  0  0  0  0  3  0  0  0  0  0  0
  -25.6790  -33.9510   24.2670 N   0  0  0  0  0  0  0  0  0  0  0  0
  -26.0150  -35.0100   23.5160 C   0  0  0  0  0  0  0  0  0  0  0  0
  -26.6880  -34.9150   22.4860 O   0  0  0  0  0  0  0  0  0  0  0  0
  -25.0850  -34.1000   25.0680 H   0  0  0  0  0  0  0  0  0  0  0  0
  -24.2870  -36.8050   23.1730 C   0  0  0  0  0  1  0  0  0  0  0  0
  -25.5260  -36.3930   23.9840 C   0  0  0  0  0  3  0  0  0  0  0  0
  -27.6620  -37.2690   24.8210 C   0  0  0  0  0  1  0  0  0  0  0  0
  -26.5580  -37.4480   23.8810 N   0  0  0  0  0  0  0  0  0  0  0  0
  -26.1530  -38.3660   24.0410 H   0  0  0  0  0  0  0  0  0  0  0  0
  -26.5040  -31.7710   25.1890 C   0  0  1  0  0  0  0  0  0  0  0  0
  -25.4070  -31.4950   26.2440 C   0  0  0  0  0  1  0  0  0  0  0  0
  -27.1150  -30.4110   24.7770 C   0  0  0  0  0  1  0  0  0  0  0  0
  -27.6340  -32.5730   25.8780 C   0  0  0  0  0  1  0  0  0  0  0  0
  2  3  1  0
  2  4  2  0
  3  1  1  0
  5  3  1  0
  6  2  1  0
  6 48  1  0
  7 13  1  0
  7 15  1  0
  8 13  1  0
  9 10  1  0
  9  8  1  0
 11 10  1  0
 11 20  1  0
 11 12  1  0
 13 12  1  0
 14  7  2  0
 15  6  1  0
 15 16  1  0
 17 18  2  0
 18 37  1  0
 19 18  1  0
 19 22  1  0
 20 21  1  0
 20 17  1  0
 21 19  2  0
 22 23  1  0
 23 24  2  0
 25 28  1  0
 25 24  1  0
 26 25  2  0
 27 26  1  0
 27 22  2  0
 28 29  1  0
 29 34  2  0
 29 30  1  0
 30 31  2  0
 31 32  1  0
 32 36  1  0
 33 32  2  0
 34 33  1  0
 35 34  1  0
 37 38  1  0
 38 41  1  0
 38 40  1  0
 39 37  2  0
 42 17  1  0
 42 43  1  0
 44 42  1  0
 48 45  1  1
 46 48  1  0
 48 47  1  0
 49 50  1  0
 49  1  1  0
 51 52  1  0
 51 50  1  0
 52 53  1  0
 54 56  1  0
 54 53  1  0
 55 66  2  0
 56 61  1  0
 57 65  1  0
 57 67  1  0
 58 64  1  0
 58 60  1  0
 59 65  1  0
 60 59  1  0
 61 60  2  0
 62 63  1  0
 62 56  2  0
 63 58  2  0
 64 57  1  0
 65 55  1  0
 67 69  2  0
 68 67  1  0
 70 68  1  0
 71 80  2  0
 71 76  1  0
 72 68  1  0
 72 76  1  0
 73 72  1  0
 74 75  1  0
 74 73  1  0
 75 71  1  0
 76 77  2  0
 77 78  1  0
 79 78  2  0
 80 79  1  0
 81 55  1  0
 81 82  1  0
 81 91  1  0
 82 85  1  0
 83 87  1  0
 83 82  1  0
 84 83  2  0
 87 86  1  0
 89 87  1  0
 89 90  1  0
 89 88  1  0
 91 94  1  1
 91 92  1  0
 93 91  1  0
M  ISO  4   7 100  15 100  53 101  54 101
M  END
>  <TORSDO>  (45) 
F 24

>  <SCORE>  (45) 
-9.144

>  <name>  (45) 
45

>  <ligand_id>  (45) 
45

>  <original_smiles>  (45) 
[H]c1c([H])c([H])c2c(c1[H])C([H])([H])C([H])([H])C([H])([H])C2([H])N([H])C(=O)C1([H])N(C(=O)C([H])(N([H])C(=O)C([H])(N([H])C([H])([H])[H])C([H])([H])[H])C(C([H])([H])[H])(C([H])([H])[H])C([H])([H])[H])C([H])([H])c2c([H])c(OC([H])([H])C([H])([H])OC([H])([H])C([H])([H])C([H])([H])N([H])C(=O)C([H])(N([H])C(=O)N3C([H])([H])C([H])([H])C([H])([H])C([H])(n4nc(-c5c([H])c([H])c(Oc6c([H])c([H])c(F)c([H])c6F)c([H])c5[H])c(C(=O)N([H])[H])c4N([H])[H])C3([H])[H])C(C([H])([H])[H])(C([H])([H])[H])C([H])([H])[H])c([H])c([H])c2C1([H])[H]

>  <smiles>  (45) 
[H]c1c([H])c([H])c2c(c1[H])C([H])([H])C([H])([H])C([H])([H])C2([H])N([H])C(=O)C1([H])N(C(=O)C([H])(N([H])C(=O)C([H])(N([H])C([H])([H])[H])C([H])([H])[H])C(C([H])([H])[H])(C([H])([H])[H])C([H])([H])[H])C([H])([H])c2c([H])c(OC([H])([H])C([H])([H])OC([H])([H])C([H])([H])C([H])([H])N([H])C(=O)C([H])(N([H])C(=O)N3C([H])([H])C([H])([H])C([H])([H])C([H])(n4nc(-c5c([H])c([H])c(Oc6c([H])c([H])c(F)c([H])c6F)c([H])c5[H])c(C(=O)N([H])[H])c4N([H])[H])C3([H])[H])C(C([H])([H])[H])(C([H])([H])[H])C([H])([H])[H])c([H])c([H])c2C1([H])[H]

$$$$
46:0:0
     RDKit          3D

101109  0  0  1  0  0  0  0  0999 V2000
  -21.3130  -30.4490   22.8350 C   0  0  0  0  0  0  0  0  0  0  0  0
  -22.2800  -29.8220   23.8470 N   0  0  0  0  0  0  0  0  0  0  0  0
  -20.7410  -31.4500   23.2770 O   0  0  0  0  0  0  0  0  0  0  0  0
  -22.2600  -30.4260   24.6640 H   0  0  0  0  0  0  0  0  0  0  0  0
  -20.8800  -30.0570   21.0630 C   0  0  0  0  0  3  0  0  0  0  0  0
  -21.6160  -29.2400   19.7410 N   0  0  0  0  0  4  0  0  0  0  0  0
  -20.8290  -29.2450   19.1060 H   0  0  0  0  0  0  0  0  0  0  0  0
  -22.2440  -29.9510   19.3890 H   0  0  0  0  0  0  0  0  0  0  0  0
  -22.4240  -27.8230   19.2640 C   0  0  0  0  0  2  0  0  0  0  0  0
  -23.9980  -26.8910   19.4590 C   0  0  0  0  0  2  0  0  0  0  0  0
  -25.6510  -26.8840   19.5620 O   0  0  0  0  0  0  0  0  0  0  0  0
  -24.9890  -31.4750   23.1680 C   0  0  0  0  0  0  0  0  0  0  0  0
  -26.5260  -27.6900   18.9040 C   0  0  0  0  0  3  0  0  0  0  0  0
  -23.7240  -30.4720   21.2630 C   0  0  0  0  0  3  0  0  0  0  0  0
  -24.9080  -29.7710   19.2090 C   0  0  0  0  0  0  0  0  0  0  0  0
  -26.1960  -30.7390   21.1250 C   0  0  0  0  0  2  0  0  0  0  0  0
  -26.0470  -29.7220   20.0090 C   0  0  0  0  0  0  0  0  0  0  0  0
  -26.9670  -28.6940   19.7960 C   0  0  0  0  0  2  0  0  0  0  0  0
  -25.7590  -28.0080   17.8060 C   0  0  0  0  0  2  0  0  0  0  0  0
  -24.7990  -29.0020   18.0350 C   0  0  0  0  0  2  0  0  0  0  0  0
  -23.9130  -30.7210   19.7120 C   0  0  0  0  0  2  0  0  0  0  0  0
  -24.9660  -30.9250   21.9230 N   0  0  0  0  0  0  0  0  0  0  0  0
  -23.9670  -31.7280   23.8090 O   0  0  0  0  0  0  0  0  0  0  0  0
  -23.3710  -28.9230   21.7880 C   0  0  0  0  0  3  0  0  0  0  0  0
  -22.1440  -28.0950   21.8950 N   0  0  0  0  0  0  0  0  0  0  0  0
  -24.3140  -28.4090   22.3120 O   0  0  0  0  0  0  0  0  0  0  0  0
  -22.5720  -27.2050   22.1300 H   0  0  0  0  0  0  0  0  0  0  0  0
  -17.9770  -28.3630   22.1240 C   0  0  0  0  0  0  0  0  0  0  0  0
  -20.5890  -27.8300   22.4080 C   0  0  0  0  0  3  0  0  0  0  0  0
  -20.2420  -26.6170   21.6320 C   0  0  0  0  0  2  0  0  0  0  0  0
  -19.2570  -26.8630   20.5190 C   0  0  0  0  0  2  0  0  0  0  0  0
  -17.9120  -27.2790   21.0780 C   0  0  0  0  0  2  0  0  0  0  0  0
  -19.1950  -28.6820   22.7890 C   0  0  0  0  0  0  0  0  0  0  0  0
  -18.9660  -29.6410   23.8550 C   0  0  0  0  0  3  0  0  0  0  0  0
  -17.7770  -30.3780   24.0470 C   0  0  0  0  0  3  0  0  0  0  0  0
  -16.6390  -30.0370   23.3320 C   0  0  0  0  0  3  0  0  0  0  0  0
  -16.7400  -28.9850   22.4170 C   0  0  0  0  0  3  0  0  0  0  0  0
  -26.3340  -31.8420   23.8330 C   0  0  0  0  0  3  0  0  0  0  0  0
  -26.7980  -30.7600   24.8850 C   0  0  1  0  0  0  0  0  0  0  0  0
  -25.7280  -30.4390   25.9530 C   0  0  0  0  0  1  0  0  0  0  0  0
  -27.1840  -29.4180   24.2130 C   0  0  0  0  0  1  0  0  0  0  0  0
  -28.0660  -31.2550   25.6260 C   0  0  0  0  0  1  0  0  0  0  0  0
  -26.1710  -33.1600   24.4590 N   0  0  0  0  0  0  0  0  0  0  0  0
  -26.5540  -34.3150   23.9030 C   0  0  0  0  0  0  0  0  0  0  0  0
  -27.1480  -34.3760   22.8230 O   0  0  0  0  0  0  0  0  0  0  0  0
  -25.6190  -33.1920   25.3070 H   0  0  0  0  0  0  0  0  0  0  0  0
  -25.0090  -36.2950   24.0870 C   0  0  0  0  0  1  0  0  0  0  0  0
  -26.2490  -35.6080   24.6800 C   0  0  0  0  0  3  0  0  0  0  0  0
  -28.5200  -36.0790   25.4710 C   0  0  0  0  0  1  0  0  0  0  0  0
  -27.3800  -36.5620   24.6970 N   0  0  0  0  0  0  0  0  0  0  0  0
  -27.0900  -37.4570   25.0770 H   0  0  0  0  0  0  0  0  0  0  0  0
  -20.2570  -31.3080   20.3520 C   0  0  0  0  0  2  0  0  0  0  0  0
  -18.8330  -31.3520   20.3740 O   0  0  0  0  0  0  0  0  0  0  0  0
  -18.5510  -32.0420   19.7730 H   0  0  0  0  0  0  0  0  0  0  0  0
  -23.3950  -28.5450   24.2540 C   0  0  0  0  0  2  0  0  0  0  0  0
  -24.9110  -27.6100   23.6490 C   0  0  0  0  0  3  0  0  0  0  0  0
  -25.8180  -27.0120   22.2000 C   0  0  0  0  0  2  0  0  0  0  0  0
  -27.3300  -26.4110   21.8660 O   0  0  0  0  0  0  0  0  0  0  0  0
  -28.2240  -26.0970   20.4960 C   0  0  0  0  0  3  0  0  0  0  0  0
  -29.9140  -25.4770   20.1780 C   0  0  0  0  0  3  0  0  0  0  0  0
  -30.9810  -25.4610   18.8990 O   0  0  0  0  0  0  0  0  0  0  0  0
  -32.4000  -24.6710   18.5450 C   0  0  0  0  0  2  0  0  0  0  0  0
  -33.7930  -24.9560   17.3970 C   0  0  0  0  0  2  0  0  0  0  0  0
  -36.3480  -24.0500   16.0510 C   0  0  0  0  0  0  0  0  0  0  0  0
  -37.8450  -23.2420   14.0490 C   0  0  0  0  0  2  0  0  0  0  0  0
  -37.2050  -23.5260   12.6540 C   0  0  0  0  0  2  0  0  0  0  0  0
  -36.1200  -22.4880   12.3110 C   0  0  0  0  0  2  0  0  0  0  0  0
  -35.2290  -22.2020   13.5380 C   0  0  0  0  0  3  0  0  0  0  0  0
  -36.0580  -21.8650   14.7880 C   0  0  0  0  0  2  0  0  0  0  0  0
  -36.7760  -23.0820   15.1050 N   0  0  0  0  0  0  0  0  0  0  0  0
  -37.1900  -24.9610   16.1850 O   0  0  0  0  0  0  0  0  0  0  0  0
  -34.9920  -23.9900   16.6910 N   0  0  0  0  0  0  0  0  0  0  0  0
  -34.6110  -23.0690   16.5250 H   0  0  0  0  0  0  0  0  0  0  0  0
  -32.9050  -21.1880   13.6240 C   0  0  0  0  0  0  0  0  0  0  0  0
  -32.4050  -20.0040   13.1490 C   0  0  0  0  0  0  0  0  0  0  0  0
  -33.5050  -19.3180   12.5530 C   0  0  0  0  0  0  0  0  0  0  0  0
  -34.2470  -21.1740   13.2920 N   0  0  0  0  0  0  0  0  0  0  0  0
  -34.6240  -20.0130   12.7070 N   0  0  0  0  0  0  0  0  0  0  0  0
  -33.5500  -18.0650   11.7910 C   0  0  0  0  0  0  0  0  0  0  0  0
  -34.4770  -17.0450   12.0940 C   0  0  0  0  0  3  0  0  0  0  0  0
  -34.4810  -15.8400   11.3580 C   0  0  0  0  0  3  0  0  0  0  0  0
  -33.5480  -15.6480   10.3120 C   0  0  0  0  0  0  0  0  0  0  0  0
  -32.6410  -16.6760    9.9990 C   0  0  0  0  0  3  0  0  0  0  0  0
  -32.6420  -17.8760   10.7300 C   0  0  0  0  0  3  0  0  0  0  0  0
  -33.4900  -14.5190    9.5280 O   0  0  0  0  0  0  0  0  0  0  0  0
  -33.9600  -13.3130    9.9750 C   0  0  0  0  0  0  0  0  0  0  0  0
  -33.4960  -12.7270   11.1740 C   0  0  0  0  0  3  0  0  0  0  0  0
  -33.9560  -11.4550   11.5590 C   0  0  0  0  0  3  0  0  0  0  0  0
  -34.8700  -10.7570   10.7450 C   0  0  0  0  0  0  0  0  0  0  0  0
  -35.3300  -11.3370    9.5490 C   0  0  0  0  0  3  0  0  0  0  0  0
  -34.8760  -12.6100    9.1650 C   0  0  0  0  0  0  0  0  0  0  0  0
  -35.3060  -13.1570    8.0010 F   0  0  0  0  0  0  0  0  0  0  0  0
  -35.3070   -9.5300   11.1090 F   0  0  0  0  0  0  0  0  0  0  0  0
  -30.9640  -19.5840   13.1670 C   0  0  0  0  0  0  0  0  0  0  0  0
  -30.7120  -18.2820   13.2470 N   0  0  0  0  0  0  0  0  0  0  0  0
  -30.0570  -20.4120   13.1610 O   0  0  0  0  0  0  0  0  0  0  0  0
  -31.4610  -17.6100   13.2780 H   0  0  0  0  0  0  0  0  0  0  0  0
  -29.7590  -17.9560   13.2840 H   0  0  0  0  0  0  0  0  0  0  0  0
  -32.3280  -22.2700   14.2800 N   0  0  0  0  0  0  0  0  0  0  0  0
  -31.3310  -22.3130   14.4740 H   0  0  0  0  0  0  0  0  0  0  0  0
  -32.8040  -23.1440   14.4650 H   0  0  0  0  0  0  0  0  0  0  0  0
  1  3  2  0
  1  2  1  0
  2 55  1  0
  2  4  1  0
  5 52  1  0
  5  1  1  0
  6  5  1  0
  7  6  1  0
  8  6  1  0
  9 10  1  0
  9  6  1  0
 10 11  1  0
 12 23  2  0
 13 19  1  0
 13 11  1  0
 13 18  1  0
 14 21  1  0
 14 24  1  0
 14 22  1  0
 15 21  1  0
 15 17  2  0
 16 22  1  0
 17 16  1  0
 18 17  1  0
 19 20  1  0
 20 15  1  0
 22 12  1  0
 24 25  1  0
 24 26  1  0
 25 27  1  0
 26 56  1  0
 28 37  2  0
 28 33  1  0
 29 25  1  0
 29 33  1  0
 30 29  1  0
 31 32  1  0
 31 30  1  0
 32 28  1  0
 33 34  2  0
 34 35  1  0
 36 35  2  0
 37 36  1  0
 38 12  1  0
 38 43  1  0
 38 39  1  0
 39 42  1  1
 39 40  1  0
 41 39  1  0
 43 46  1  0
 44 43  1  0
 44 48  1  0
 45 44  2  0
 48 47  1  0
 48 50  1  0
 50 51  1  0
 50 49  1  0
 52 53  1  0
 54 53  1  0
 56 57  1  0
 56 55  1  0
 58 57  1  0
 59 58  1  0
 60 59  2  0
 61 60  1  0
 62 61  1  0
 63 62  1  0
 64 71  2  0
 64 72  1  0
 65 70  1  0
 66 65  1  0
 67 66  1  0
 68 67  1  0
 68 69  1  0
 69 70  1  0
 70 64  1  0
 72 63  1  0
 73 72  1  0
 74 99  1  0
 75 94  1  0
 75 74  2  0
 76 78  2  0
 76 75  1  0
 77 68  1  0
 77 74  1  0
 78 77  1  0
 79 80  1  0
 79 76  1  0
 81 80  2  0
 82 81  1  0
 83 82  2  0
 83 84  1  0
 84 79  2  0
 85 86  1  0
 85 82  1  0
 86 87  1  0
 87 88  2  0
 89 93  1  0
 89 88  1  0
 90 89  2  0
 91 90  1  0
 91 86  2  0
 92 91  1  0
 94 95  1  0
 95 97  1  0
 95 98  1  0
 96 94  2  0
 99101  1  0
 99100  1  0
M  ISO  4  10 101  11 101  64 100  72 100
M  END
>  <TORSDO>  (46) 
F 31

>  <SCORE>  (46) 
21.565

>  <name>  (46) 
46

>  <ligand_id>  (46) 
46

>  <original_smiles>  (46) 
[H]OC([H])([H])C([H])(C(=O)N([H])C([H])([H])C([H])([H])C([H])([H])OC([H])([H])C([H])([H])OC([H])([H])C([H])([H])N([H])C(=O)N1C([H])([H])C([H])([H])C([H])([H])C([H])(n2nc(-c3c([H])c([H])c(Oc4c([H])c([H])c(F)c([H])c4F)c([H])c3[H])c(C(=O)N([H])[H])c2N([H])[H])C1([H])[H])[N+]([H])([H])C([H])([H])C([H])([H])Oc1c([H])c([H])c2c(c1[H])C([H])([H])N(C(=O)C([H])(N([H])C(=O)C([H])(N([H])C([H])([H])[H])C([H])([H])[H])C(C([H])([H])[H])(C([H])([H])[H])C([H])([H])[H])C([H])(C(=O)N([H])C1([H])c3c([H])c([H])c([H])c([H])c3C([H])([H])C([H])([H])C1([H])[H])C2([H])[H]

>  <smiles>  (46) 
[H]OC([H])([H])C([H])(C(=O)N([H])C([H])([H])C([H])([H])C([H])([H])OC([H])([H])C([H])([H])OC([H])([H])C([H])([H])N([H])C(=O)N1C([H])([H])C([H])([H])C([H])([H])C([H])(n2nc(-c3c([H])c([H])c(Oc4c([H])c([H])c(F)c([H])c4F)c([H])c3[H])c(C(=O)N([H])[H])c2N([H])[H])C1([H])[H])[N+]([H])([H])C([H])([H])C([H])([H])Oc1c([H])c([H])c2c(c1[H])C([H])([H])N(C(=O)C([H])(N([H])C(=O)C([H])(N([H])C([H])([H])[H])C([H])([H])[H])C(C([H])([H])[H])(C([H])([H])[H])C([H])([H])[H])C([H])(C(=O)N([H])C1([H])c3c([H])c([H])c([H])c([H])c3C([H])([H])C([H])([H])C1([H])[H])C2([H])[H]

$$$$
47:0:0
     RDKit          3D

100107  0  0  1  0  0  0  0  0999 V2000
  -29.2520  -22.9120   21.1700 C   0  0  0  0  0  0  0  0  0  0  0  0
  -29.6550  -21.9060   20.3870 N   0  0  0  0  0  0  0  0  0  0  0  0
  -29.7170  -23.1060   22.2970 O   0  0  0  0  0  0  0  0  0  0  0  0
  -29.2380  -21.8420   19.4680 H   0  0  0  0  0  0  0  0  0  0  0  0
  -28.1950  -23.8580   20.5700 C   0  0  0  0  0  3  0  0  0  0  0  0
  -28.6740  -25.6270   18.8940 C   0  0  0  0  0  0  0  0  0  0  0  0
  -28.8010  -25.1050   20.1160 N   0  0  0  0  0  0  0  0  0  0  0  0
  -28.1870  -24.9940   17.9540 O   0  0  0  0  0  0  0  0  0  0  0  0
  -29.2550  -25.6460   20.8380 H   0  0  0  0  0  0  0  0  0  0  0  0
  -29.1450  -27.0750   18.6970 C   0  0  0  0  0  2  0  0  0  0  0  0
  -28.1280  -27.8380   18.0410 O   0  0  0  0  0  0  0  0  0  0  0  0
  -25.9120  -29.7960   24.5180 C   0  0  0  0  0  0  0  0  0  0  0  0
  -27.0890  -28.2300   18.8460 C   0  0  0  0  0  0  0  0  0  0  0  0
  -24.1360  -29.4010   22.8370 C   0  0  0  0  0  3  0  0  0  0  0  0
  -24.9350  -29.1110   20.4340 C   0  0  0  0  0  0  0  0  0  0  0  0
  -26.4740  -30.1380   22.1170 C   0  0  0  0  0  2  0  0  0  0  0  0
  -26.2530  -29.3680   20.8330 C   0  0  0  0  0  0  0  0  0  0  0  0
  -27.3350  -28.9280   20.0460 C   0  0  0  0  0  3  0  0  0  0  0  0
  -25.7610  -27.9800   18.4470 C   0  0  0  0  0  3  0  0  0  0  0  0
  -24.6800  -28.4080   19.2420 C   0  0  0  0  0  3  0  0  0  0  0  0
  -23.8350  -29.6250   21.3310 C   0  0  0  0  0  2  0  0  0  0  0  0
  -25.5450  -29.7620   23.2050 N   0  0  0  0  0  0  0  0  0  0  0  0
  -25.0890  -29.5770   25.4180 O   0  0  0  0  0  0  0  0  0  0  0  0
  -23.7640  -27.9450   23.1980 C   0  0  0  0  0  0  0  0  0  0  0  0
  -22.5770  -27.5030   22.7470 N   0  0  0  0  0  0  0  0  0  0  0  0
  -24.5420  -27.2350   23.8390 O   0  0  0  0  0  0  0  0  0  0  0  0
  -21.9970  -28.1490   22.2300 H   0  0  0  0  0  0  0  0  0  0  0  0
  -20.1030  -25.1750   21.5230 C   0  0  0  0  0  0  0  0  0  0  0  0
  -22.0360  -26.1570   22.9280 C   0  0  0  0  0  3  0  0  0  0  0  0
  -22.9370  -25.1000   22.2470 C   0  0  0  0  0  2  0  0  0  0  0  0
  -22.5000  -24.7710   20.8170 C   0  0  0  0  0  2  0  0  0  0  0  0
  -21.0610  -24.2450   20.8000 C   0  0  0  0  0  2  0  0  0  0  0  0
  -20.5630  -26.0850   22.5130 C   0  0  0  0  0  0  0  0  0  0  0  0
  -19.6360  -26.9530   23.1290 C   0  0  0  0  0  3  0  0  0  0  0  0
  -18.2750  -26.9180   22.7780 C   0  0  0  0  0  3  0  0  0  0  0  0
  -17.8200  -26.0020   21.8130 C   0  0  0  0  0  3  0  0  0  0  0  0
  -18.7340  -25.1320   21.1900 C   0  0  0  0  0  3  0  0  0  0  0  0
  -27.3730  -30.1330   24.9540 C   0  0  0  0  0  3  0  0  0  0  0  0
  -27.3340  -31.3910   25.7110 N   0  0  0  0  0  0  0  0  0  0  0  0
  -27.9240  -32.5300   25.3250 C   0  0  0  0  0  0  0  0  0  0  0  0
  -28.6300  -32.6090   24.3160 O   0  0  0  0  0  0  0  0  0  0  0  0
  -26.7370  -31.4110   26.5250 H   0  0  0  0  0  0  0  0  0  0  0  0
  -26.7540  -34.7490   25.4710 C   0  0  0  0  0  1  0  0  0  0  0  0
  -27.6970  -33.7780   26.1990 C   0  0  0  0  0  3  0  0  0  0  0  0
  -29.7950  -33.7080   27.4720 C   0  0  0  0  0  1  0  0  0  0  0  0
  -28.9480  -34.4770   26.5640 N   0  0  0  0  0  0  0  0  0  0  0  0
  -28.7470  -35.3730   27.0010 H   0  0  0  0  0  0  0  0  0  0  0  0
  -28.0510  -28.9910   25.8060 C   0  0  1  0  0  0  0  0  0  0  0  0
  -27.1840  -28.5030   26.9910 C   0  0  0  0  0  1  0  0  0  0  0  0
  -28.3720  -27.7680   24.9170 C   0  0  0  0  0  1  0  0  0  0  0  0
  -29.3990  -29.4910   26.3770 C   0  0  0  0  0  1  0  0  0  0  0  0
  -26.9980  -24.2090   21.4860 C   0  0  0  0  0  2  0  0  0  0  0  0
  -27.2620  -25.3290   22.3230 O   0  0  0  0  0  0  0  0  0  0  0  0
  -26.4620  -25.5420   22.7910 H   0  0  0  0  0  0  0  0  0  0  0  0
  -30.6970  -20.9340   20.6910 C   0  0  0  0  0  2  0  0  0  0  0  0
  -30.6270  -20.4050   22.1330 C   0  0  0  0  0  2  0  0  0  0  0  0
  -30.7290  -18.9920   22.0720 O   0  0  0  0  0  0  0  0  0  0  0  0
  -31.5030  -18.4020   23.1060 C   0  0  0  0  0  2  0  0  0  0  0  0
  -31.0500  -16.9490   23.3250 C   0  0  0  0  0  2  0  0  0  0  0  0
  -31.8690  -16.0260   22.6080 O   0  0  0  0  0  0  0  0  0  0  0  0
  -31.1870  -15.3550   21.5550 C   0  0  0  0  0  2  0  0  0  0  0  0
  -31.5740  -13.8660   21.5400 C   0  0  0  0  0  2  0  0  0  0  0  0
  -31.6940  -12.0050   19.9200 C   0  0  0  0  0  0  0  0  0  0  0  0
  -31.2940   -9.6040   20.2950 C   0  0  0  0  0  2  0  0  0  0  0  0
  -30.3160   -9.0000   19.2720 C   0  0  0  0  0  2  0  0  0  0  0  0
  -28.8560   -9.1790   19.7250 C   0  0  0  0  0  2  0  0  0  0  0  0
  -28.5500  -10.6390   20.1380 C   0  0  0  0  0  3  0  0  0  0  0  0
  -29.6230  -11.1800   21.1030 C   0  0  0  0  0  2  0  0  0  0  0  0
  -30.9570  -11.0200   20.4970 N   0  0  0  0  0  0  0  0  0  0  0  0
  -32.6170  -11.7970   19.1310 O   0  0  0  0  0  0  0  0  0  0  0  0
  -31.3610  -13.2640   20.2220 N   0  0  0  0  0  0  0  0  0  0  0  0
  -31.6560  -13.8910   19.4880 H   0  0  0  0  0  0  0  0  0  0  0  0
  -26.5410  -11.8990   21.1480 C   0  0  0  0  0  0  0  0  0  0  0  0
  -25.2940  -11.4770   21.5290 C   0  0  0  0  0  0  0  0  0  0  0  0
  -25.2670  -10.0680   21.2910 C   0  0  0  0  0  0  0  0  0  0  0  0
  -27.2100  -10.7650   20.7110 N   0  0  0  0  0  0  0  0  0  0  0  0
  -26.4470   -9.6500   20.8530 N   0  0  0  0  0  0  0  0  0  0  0  0
  -24.1670   -9.1020   21.3990 C   0  0  0  0  0  0  0  0  0  0  0  0
  -24.1690   -8.0880   22.3800 C   0  0  0  0  0  3  0  0  0  0  0  0
  -23.0940   -7.1790   22.4720 C   0  0  0  0  0  3  0  0  0  0  0  0
  -21.9980   -7.2840   21.5850 C   0  0  0  0  0  0  0  0  0  0  0  0
  -22.0110   -8.2840   20.5950 C   0  0  0  0  0  3  0  0  0  0  0  0
  -23.0880   -9.1800   20.4980 C   0  0  0  0  0  3  0  0  0  0  0  0
  -20.9190   -6.4330   21.5860 O   0  0  0  0  0  0  0  0  0  0  0  0
  -20.2340   -6.1410   22.7390 C   0  0  0  0  0  0  0  0  0  0  0  0
  -19.7450   -7.1540   23.5930 C   0  0  0  0  0  3  0  0  0  0  0  0
  -18.9840   -6.8110   24.7280 C   0  0  0  0  0  3  0  0  0  0  0  0
  -18.7070   -5.4600   25.0080 C   0  0  0  0  0  0  0  0  0  0  0  0
  -19.1890   -4.4500   24.1560 C   0  0  0  0  0  3  0  0  0  0  0  0
  -19.9490   -4.7910   23.0240 C   0  0  0  0  0  0  0  0  0  0  0  0
  -20.3930   -3.8150   22.1940 F   0  0  0  0  0  0  0  0  0  0  0  0
  -17.9690   -5.1300   26.0930 F   0  0  0  0  0  0  0  0  0  0  0  0
  -24.1580  -12.3420   21.9940 C   0  0  0  0  0  0  0  0  0  0  0  0
  -23.3290  -11.8330   22.8980 N   0  0  0  0  0  0  0  0  0  0  0  0
  -24.0300  -13.4990   21.5940 O   0  0  0  0  0  0  0  0  0  0  0  0
  -23.4400  -10.8900   23.2410 H   0  0  0  0  0  0  0  0  0  0  0  0
  -22.5700  -12.3950   23.2550 H   0  0  0  0  0  0  0  0  0  0  0  0
  -27.1560  -13.1470   21.1200 N   0  0  0  0  0  0  0  0  0  0  0  0
  -26.6830  -14.0010   21.3900 H   0  0  0  0  0  0  0  0  0  0  0  0
  -28.0940  -13.3070   20.7740 H   0  0  0  0  0  0  0  0  0  0  0  0
  1  3  2  0
  2 55  1  0
  2  1  1  0
  4  2  1  0
  5  1  1  0
  5 52  1  0
  6  7  1  0
  7  5  1  0
  7  9  1  0
  8  6  2  0
 10  6  1  0
 11 10  1  0
 11 13  1  0
 12 23  2  0
 13 18  1  0
 14 24  1  0
 14 22  1  0
 15 17  1  0
 15 21  1  0
 16 22  1  0
 17 16  1  0
 18 17  2  0
 19 13  2  0
 19 20  1  0
 20 15  2  0
 21 14  1  0
 22 12  1  0
 24 26  2  0
 25 24  1  0
 27 25  1  0
 28 33  1  0
 29 25  1  0
 30 29  1  0
 31 30  1  0
 32 31  1  0
 32 28  1  0
 33 29  1  0
 33 34  2  0
 35 34  1  0
 36 35  2  0
 37 28  2  0
 37 36  1  0
 38 12  1  0
 38 39  1  0
 38 48  1  0
 39 42  1  0
 40 39  1  0
 40 44  1  0
 41 40  2  0
 44 43  1  0
 44 46  1  0
 46 47  1  0
 46 45  1  0
 48 51  1  1
 48 49  1  0
 50 48  1  0
 52 53  1  0
 53 54  1  0
 55 56  1  0
 57 56  1  0
 57 58  1  0
 58 59  1  0
 60 59  1  0
 61 60  1  0
 62 61  1  0
 63 71  1  0
 63 69  1  0
 64 69  1  0
 65 66  1  0
 65 64  1  0
 67 66  1  0
 67 76  1  0
 67 68  1  0
 69 68  1  0
 70 63  2  0
 71 62  1  0
 72 71  1  0
 73 74  2  0
 74 93  1  0
 75 78  1  0
 75 74  1  0
 76 77  1  0
 76 73  1  0
 77 75  2  0
 78 79  1  0
 79 80  2  0
 81 84  1  0
 81 80  1  0
 82 81  2  0
 83 82  1  0
 83 78  2  0
 84 85  1  0
 85 90  2  0
 85 86  1  0
 86 87  2  0
 87 88  1  0
 88 92  1  0
 89 88  2  0
 90 89  1  0
 91 90  1  0
 93 94  1  0
 94 96  1  0
 94 97  1  0
 95 93  2  0
 98 73  1  0
 98 99  1  0
100 98  1  0
M  ISO  4  10 101  11 101  63 100  71 100
M  END
>  <TORSDO>  (47) 
F 29

>  <SCORE>  (47) 
-2.121

>  <name>  (47) 
47

>  <ligand_id>  (47) 
47

>  <original_smiles>  (47) 
[H]OC([H])([H])C([H])(C(=O)N([H])C([H])([H])C([H])([H])OC([H])([H])C([H])([H])OC([H])([H])C([H])([H])N([H])C(=O)N1C([H])([H])C([H])([H])C([H])([H])C([H])(n2nc(-c3c([H])c([H])c(Oc4c([H])c([H])c(F)c([H])c4F)c([H])c3[H])c(C(=O)N([H])[H])c2N([H])[H])C1([H])[H])N([H])C(=O)C([H])([H])Oc1c([H])c([H])c2c(c1[H])C([H])([H])N(C(=O)C([H])(N([H])C(=O)C([H])(N([H])C([H])([H])[H])C([H])([H])[H])C(C([H])([H])[H])(C([H])([H])[H])C([H])([H])[H])C([H])(C(=O)N([H])C1([H])c3c([H])c([H])c([H])c([H])c3C([H])([H])C([H])([H])C1([H])[H])C2([H])[H]

>  <smiles>  (47) 
[H]OC([H])([H])C([H])(C(=O)N([H])C([H])([H])C([H])([H])OC([H])([H])C([H])([H])OC([H])([H])C([H])([H])N([H])C(=O)N1C([H])([H])C([H])([H])C([H])([H])C([H])(n2nc(-c3c([H])c([H])c(Oc4c([H])c([H])c(F)c([H])c4F)c([H])c3[H])c(C(=O)N([H])[H])c2N([H])[H])C1([H])[H])N([H])C(=O)C([H])([H])Oc1c([H])c([H])c2c(c1[H])C([H])([H])N(C(=O)C([H])(N([H])C(=O)C([H])(N([H])C([H])([H])[H])C([H])([H])[H])C(C([H])([H])[H])(C([H])([H])[H])C([H])([H])[H])C([H])(C(=O)N([H])C1([H])c3c([H])c([H])c([H])c([H])c3C([H])([H])C([H])([H])C1([H])[H])C2([H])[H]

$$$$
48:0:0
     RDKit          3D

 98105  0  0  1  0  0  0  0  0999 V2000
  -32.4240  -20.9970   21.0240 C   0  0  0  0  0  1  0  0  0  0  0  0
  -31.7180  -22.0380   21.9090 C   0  0  0  0  0  3  0  0  0  0  0  0
  -30.4370  -24.0960   21.3670 C   0  0  0  0  0  0  0  0  0  0  0  0
  -30.8340  -22.8510   21.0750 N   0  0  0  0  0  0  0  0  0  0  0  0
  -30.5640  -24.5830   22.4920 O   0  0  0  0  0  0  0  0  0  0  0  0
  -30.6570  -22.5180   20.1370 H   0  0  0  0  0  0  0  0  0  0  0  0
  -29.8970  -24.9440   20.2140 C   0  0  0  0  0  2  0  0  0  0  0  0
  -28.5540  -25.6260   20.5200 C   0  0  0  0  0  2  0  0  0  0  0  0
  -28.4470  -26.7810   19.6940 O   0  0  0  0  0  0  0  0  0  0  0  0
  -24.5140  -31.6590   23.0530 C   0  0  0  0  0  0  0  0  0  0  0  0
  -27.2480  -27.4370   19.7810 C   0  0  0  0  0  0  0  0  0  0  0  0
  -23.3260  -30.2790   21.3780 C   0  0  0  0  0  3  0  0  0  0  0  0
  -24.8040  -28.8390   19.8830 C   0  0  0  0  0  0  0  0  0  0  0  0
  -25.8320  -30.7330   21.1520 C   0  0  0  0  0  2  0  0  0  0  0  0
  -25.9510  -29.3880   20.4690 C   0  0  0  0  0  0  0  0  0  0  0  0
  -27.1780  -28.6950   20.4150 C   0  0  0  0  0  3  0  0  0  0  0  0
  -26.0870  -26.8850   19.2010 C   0  0  0  0  0  3  0  0  0  0  0  0
  -24.8650  -27.5830   19.2490 C   0  0  0  0  0  3  0  0  0  0  0  0
  -23.5340  -29.6540   19.9730 C   0  0  0  0  0  2  0  0  0  0  0  0
  -24.5760  -30.9030   21.9210 N   0  0  0  0  0  0  0  0  0  0  0  0
  -23.4330  -31.8760   23.6190 O   0  0  0  0  0  0  0  0  0  0  0  0
  -22.7220  -29.2050   22.3110 C   0  0  0  0  0  0  0  0  0  0  0  0
  -21.4020  -28.9890   22.1970 N   0  0  0  0  0  0  0  0  0  0  0  0
  -23.4380  -28.5700   23.0910 O   0  0  0  0  0  0  0  0  0  0  0  0
  -20.8860  -29.5560   21.5380 H   0  0  0  0  0  0  0  0  0  0  0  0
  -18.0690  -27.6860   22.6900 C   0  0  0  0  0  0  0  0  0  0  0  0
  -20.6230  -28.0020   22.9420 C   0  0  0  0  0  3  0  0  0  0  0  0
  -20.7570  -26.5970   22.3110 C   0  0  0  0  0  2  0  0  0  0  0  0
  -19.6510  -26.2820   21.3000 C   0  0  0  0  0  2  0  0  0  0  0  0
  -18.2730  -26.3670   21.9650 C   0  0  0  0  0  2  0  0  0  0  0  0
  -19.1720  -28.4610   23.1350 C   0  0  0  0  0  0  0  0  0  0  0  0
  -18.9280  -29.6980   23.7720 C   0  0  0  0  0  3  0  0  0  0  0  0
  -17.6120  -30.1570   23.9710 C   0  0  0  0  0  3  0  0  0  0  0  0
  -16.5230  -29.3770   23.5420 C   0  0  0  0  0  3  0  0  0  0  0  0
  -16.7530  -28.1440   22.9050 C   0  0  0  0  0  3  0  0  0  0  0  0
  -25.7900  -32.3040   23.6780 C   0  0  0  0  0  3  0  0  0  0  0  0
  -26.3510  -31.4980   24.9130 C   0  0  1  0  0  0  0  0  0  0  0  0
  -25.2860  -31.1900   25.9910 C   0  0  0  0  0  1  0  0  0  0  0  0
  -26.9610  -30.1530   24.4500 C   0  0  0  0  0  1  0  0  0  0  0  0
  -27.4950  -32.2960   25.5830 C   0  0  0  0  0  1  0  0  0  0  0  0
  -25.4470  -33.6780   24.0640 N   0  0  0  0  0  0  0  0  0  0  0  0
  -25.7490  -34.7670   23.3430 C   0  0  0  0  0  0  0  0  0  0  0  0
  -26.4170  -34.7200   22.3060 O   0  0  0  0  0  0  0  0  0  0  0  0
  -24.8430  -33.7840   24.8660 H   0  0  0  0  0  0  0  0  0  0  0  0
  -23.9670  -36.5200   23.0680 C   0  0  0  0  0  1  0  0  0  0  0  0
  -25.2280  -36.1240   23.8530 C   0  0  0  0  0  3  0  0  0  0  0  0
  -27.3470  -37.0370   24.6910 C   0  0  0  0  0  1  0  0  0  0  0  0
  -26.2290  -37.2090   23.7670 N   0  0  0  0  0  0  0  0  0  0  0  0
  -25.7980  -38.1120   23.9490 H   0  0  0  0  0  0  0  0  0  0  0  0
  -31.0230  -21.4660   23.1870 C   0  0  0  0  0  3  0  0  0  0  0  0
  -29.2340  -20.0520   24.3220 C   0  0  0  0  0  1  0  0  0  0  0  0
  -29.9440  -20.3640   22.9890 C   0  0  0  0  0  3  0  0  0  0  0  0
  -30.0160  -18.1570   21.7630 C   0  0  0  0  0  0  0  0  0  0  0  0
  -30.5750  -19.1680   22.4330 N   0  0  0  0  0  0  0  0  0  0  0  0
  -28.8000  -17.9810   21.6680 O   0  0  0  0  0  0  0  0  0  0  0  0
  -31.5860  -19.1700   22.4900 H   0  0  0  0  0  0  0  0  0  0  0  0
  -31.1490  -17.7570   19.5650 C   0  0  0  0  0  1  0  0  0  0  0  0
  -30.9860  -17.2440   21.0120 C   0  0  0  0  0  3  0  0  0  0  0  0
  -31.2220  -14.8060   20.5920 C   0  0  0  0  0  0  0  0  0  0  0  0
  -30.8760  -12.7140   19.3560 C   0  0  0  0  0  2  0  0  0  0  0  0
  -29.9730  -13.0150   18.1450 C   0  0  0  0  0  2  0  0  0  0  0  0
  -28.4860  -12.9010   18.5360 C   0  0  0  0  0  2  0  0  0  0  0  0
  -28.1430  -13.6870   19.8300 C   0  0  0  0  0  3  0  0  0  0  0  0
  -29.1680  -13.3920   20.9490 C   0  0  0  0  0  2  0  0  0  0  0  0
  -30.5130  -13.6630   20.4160 N   0  0  0  0  0  0  0  0  0  0  0  0
  -32.3820  -14.9480   20.1970 O   0  0  0  0  0  0  0  0  0  0  0  0
  -30.5180  -15.8570   21.0320 N   0  0  0  0  0  0  0  0  0  0  0  0
  -29.5590  -15.7120   21.3110 H   0  0  0  0  0  0  0  0  0  0  0  0
  -25.7330  -14.3150   20.4810 C   0  0  0  0  0  0  0  0  0  0  0  0
  -24.6460  -13.5490   20.8070 C   0  0  0  0  0  0  0  0  0  0  0  0
  -25.0910  -12.1920   20.7660 C   0  0  0  0  0  0  0  0  0  0  0  0
  -26.7740  -13.4230   20.2670 N   0  0  0  0  0  0  0  0  0  0  0  0
  -26.3890  -12.1420   20.4950 N   0  0  0  0  0  0  0  0  0  0  0  0
  -24.3430  -10.9370   20.9160 C   0  0  0  0  0  0  0  0  0  0  0  0
  -24.7330   -9.9530   21.8510 C   0  0  0  0  0  3  0  0  0  0  0  0
  -23.9880   -8.7620   21.9900 C   0  0  0  0  0  3  0  0  0  0  0  0
  -22.8390   -8.5460   21.1910 C   0  0  0  0  0  0  0  0  0  0  0  0
  -22.4700   -9.5190   20.2450 C   0  0  0  0  0  3  0  0  0  0  0  0
  -23.2150  -10.7010   20.1060 C   0  0  0  0  0  3  0  0  0  0  0  0
  -22.0700   -7.4090   21.2380 O   0  0  0  0  0  0  0  0  0  0  0  0
  -21.9480   -6.6690   22.3860 C   0  0  0  0  0  0  0  0  0  0  0  0
  -21.4750   -7.2340   23.5910 C   0  0  0  0  0  3  0  0  0  0  0  0
  -21.3010   -6.4220   24.7290 C   0  0  0  0  0  3  0  0  0  0  0  0
  -21.5870   -5.0460   24.6630 C   0  0  0  0  0  0  0  0  0  0  0  0
  -22.0540   -4.4800   23.4640 C   0  0  0  0  0  3  0  0  0  0  0  0
  -22.2320   -5.2890   22.3280 C   0  0  0  0  0  0  0  0  0  0  0  0
  -22.6600   -4.7360   21.1680 F   0  0  0  0  0  0  0  0  0  0  0  0
  -21.4130   -4.2640   25.7540 F   0  0  0  0  0  0  0  0  0  0  0  0
  -23.2480  -14.0400   21.0500 C   0  0  0  0  0  0  0  0  0  0  0  0
  -22.4930  -13.3430   21.8930 N   0  0  0  0  0  0  0  0  0  0  0  0
  -22.8330  -15.0750   20.5310 O   0  0  0  0  0  0  0  0  0  0  0  0
  -22.8420  -12.5060   22.3350 H   0  0  0  0  0  0  0  0  0  0  0  0
  -21.5540  -13.6530   22.0990 H   0  0  0  0  0  0  0  0  0  0  0  0
  -25.9190  -15.6860   20.3340 N   0  0  0  0  0  0  0  0  0  0  0  0
  -25.1590  -16.3480   20.4490 H   0  0  0  0  0  0  0  0  0  0  0  0
  -26.7980  -16.1330   20.1000 H   0  0  0  0  0  0  0  0  0  0  0  0
  -32.6820  -21.8460   24.8760 C   0  0  0  0  0  1  0  0  0  0  0  0
  -32.0170  -20.9050   24.0430 O   0  0  0  0  0  0  0  0  0  0  0  0
  2  1  1  0
  2 50  1  0
  3  5  2  0
  4  3  1  0
  4  2  1  0
  6  4  1  0
  7  8  1  0
  7  3  1  0
  9 11  1  0
  9  8  1  0
 10 21  2  0
 11 16  1  0
 12 20  1  0
 12 22  1  0
 13 19  1  0
 13 15  1  0
 14 20  1  0
 15 14  1  0
 16 15  2  0
 17 18  1  0
 17 11  2  0
 18 13  2  0
 19 12  1  0
 20 10  1  0
 22 24  2  0
 23 22  1  0
 25 23  1  0
 26 35  2  0
 26 31  1  0
 27 23  1  0
 27 31  1  0
 28 27  1  0
 29 30  1  0
 29 28  1  0
 30 26  1  0
 31 32  2  0
 32 33  1  0
 34 33  2  0
 35 34  1  0
 36 10  1  0
 36 41  1  0
 36 37  1  0
 37 40  1  1
 37 38  1  0
 39 37  1  0
 41 44  1  0
 42 46  1  0
 42 41  1  0
 43 42  2  0
 46 45  1  0
 48 46  1  0
 48 49  1  0
 48 47  1  0
 50 98  1  0
 52 50  1  0
 52 51  1  0
 53 54  1  0
 54 56  1  0
 54 52  1  0
 55 53  2  0
 58 57  1  0
 58 67  1  0
 58 53  1  0
 59 67  1  0
 60 65  1  0
 61 62  1  0
 61 60  1  0
 63 62  1  0
 63 72  1  0
 63 64  1  0
 65 59  1  0
 65 64  1  0
 66 59  2  0
 67 68  1  0
 69 70  2  0
 70 89  1  0
 71 70  1  0
 71 74  1  0
 72 69  1  0
 72 73  1  0
 73 71  2  0
 74 75  1  0
 75 76  2  0
 77 80  1  0
 77 76  1  0
 78 77  2  0
 79 78  1  0
 79 74  2  0
 80 81  1  0
 81 82  1  0
 82 83  2  0
 84 83  1  0
 84 88  1  0
 85 84  2  0
 86 81  2  0
 86 85  1  0
 87 86  1  0
 89 90  1  0
 90 93  1  0
 90 92  1  0
 91 89  2  0
 94 95  1  0
 94 69  1  0
 96 94  1  0
 98 97  1  0
M  ISO  4   8 101   9 101  59 100  67 100
M  END
>  <TORSDO>  (48) 
F 24

>  <SCORE>  (48) 
-7.242

>  <name>  (48) 
48

>  <ligand_id>  (48) 
48

>  <original_smiles>  (48) 
[H]c1c([H])c([H])c2c(c1[H])C([H])([H])C([H])([H])C([H])([H])C2([H])N([H])C(=O)C1([H])N(C(=O)C([H])(N([H])C(=O)C([H])(N([H])C([H])([H])[H])C([H])([H])[H])C(C([H])([H])[H])(C([H])([H])[H])C([H])([H])[H])C([H])([H])c2c([H])c(OC([H])([H])C([H])([H])C(=O)N([H])C([H])(C([H])([H])[H])C([H])(OC([H])([H])[H])C([H])(N([H])C(=O)C([H])(N([H])C(=O)N3C([H])([H])C([H])([H])C([H])([H])C([H])(n4nc(-c5c([H])c([H])c(Oc6c([H])c([H])c(F)c([H])c6F)c([H])c5[H])c(C(=O)N([H])[H])c4N([H])[H])C3([H])[H])C([H])([H])[H])C([H])([H])[H])c([H])c([H])c2C1([H])[H]

>  <smiles>  (48) 
[H]c1c([H])c([H])c2c(c1[H])C([H])([H])C([H])([H])C([H])([H])C2([H])N([H])C(=O)C1([H])N(C(=O)C([H])(N([H])C(=O)C([H])(N([H])C([H])([H])[H])C([H])([H])[H])C(C([H])([H])[H])(C([H])([H])[H])C([H])([H])[H])C([H])([H])c2c([H])c(OC([H])([H])C([H])([H])C(=O)N([H])C([H])(C([H])([H])[H])C([H])(OC([H])([H])[H])C([H])(N([H])C(=O)C([H])(N([H])C(=O)N3C([H])([H])C([H])([H])C([H])([H])C([H])(n4nc(-c5c([H])c([H])c(Oc6c([H])c([H])c(F)c([H])c6F)c([H])c5[H])c(C(=O)N([H])[H])c4N([H])[H])C3([H])[H])C([H])([H])[H])C([H])([H])[H])c([H])c([H])c2C1([H])[H]

$$$$
50:0:0
     RDKit          3D

102 93  0  0  1  0  0  0  0  0999 V2000
  -19.8790  -27.1900   23.0150 C   0  0  0  0  0  1  0  0  0  0  0  0
  -20.9020  -28.8670   22.2470 C   0  0  0  0  0 15  0  0  0  0  0  0
  -22.5150  -29.9400   22.8720 C   0  0  0  0  0  2  0  0  0  0  0  0
  -24.2210  -29.6600   23.3080 N   0  0  0  0  0  2  0  0  0  0  0  0
  -22.2980  -31.1480   22.8690 O   0  0  0  0  0  1  0  0  0  0  0  0
  -24.1940  -30.5860   23.7180 H   0  0  0  0  0  0  0  0  0  0  0  0
  -26.3390  -29.7190   23.4400 C   0  0  0  0  0 15  0  0  0  0  0  0
  -28.4830  -29.1930   22.1980 C   0  0  0  0  0 15  0  0  0  0  0  0
  -28.6680  -28.5650   20.1190 O   0  0  0  0  0 15  0  0  0  0  0  0
  -28.1720  -27.3100   18.4750 C   0  0  0  0  0 15  0  0  0  0  0  0
  -27.3090  -26.6900   16.3960 C   0  0  0  0  0 15  0  0  0  0  0  0
  -26.3740  -25.5310   14.9360 O   0  0  0  0  0 15  0  0  0  0  0  0
  -25.6390  -25.1030   13.0340 C   0  0  0  0  0 15  0  0  0  0  0  0
  -24.8070  -23.7280   11.3520 C   0  0  0  0  0 15  0  0  0  0  0  0
  -23.5060  -22.4020    8.0600 C   0  0  0  0  0  0  0  0  0  0  0  0
  -22.3750  -21.6570    5.4900 C   0  0  0  0  0  2  0  0  0  0  0  0
  -21.6680  -22.4890    4.3180 C   0  0  0  0  0  2  0  0  0  0  0  0
  -20.1800  -22.7410    4.5720 C   0  0  0  0  0  2  0  0  0  0  0  0
  -20.0280  -23.0340    6.0740 C   0  0  0  0  0  3  0  0  0  0  0  0
  -20.8030  -22.0740    7.0760 C   0  0  0  0  0  2  0  0  0  0  0  0
  -22.3270  -22.2100    7.0090 N   0  0  0  0  0  0  0  0  0  0  0  0
  -24.3670  -21.7480    7.4060 O   0  0  0  0  0  0  0  0  0  0  0  0
  -23.9480  -23.3360    9.4940 N   0  0  0  0  0  2  0  0  0  0  0  0
  -24.4260  -24.0750    8.9680 H   0  0  0  0  0  0  0  0  0  0  0  0
  -18.2410  -24.2430    7.3890 C   0  0  0  0  0  0  0  0  0  0  0  0
  -16.8770  -24.2220    7.3940 C   0  0  0  0  0  0  0  0  0  0  0  0
  -16.4870  -23.2520    6.4170 C   0  0  0  0  0  0  0  0  0  0  0  0
  -18.6390  -23.3110    6.4540 N   0  0  0  0  0  0  0  0  0  0  0  0
  -17.5710  -22.6740    5.8900 N   0  0  0  0  0  0  0  0  0  0  0  0
  -15.1410  -22.8990    5.9320 C   0  0  0  0  0  0  0  0  0  0  0  0
  -14.6880  -21.5610    5.9020 C   0  0  0  0  0  3  0  0  0  0  0  0
  -13.3780  -21.2530    5.4680 C   0  0  0  0  0  3  0  0  0  0  0  0
  -12.5020  -22.2870    5.0590 C   0  0  0  0  0  0  0  0  0  0  0  0
  -12.9630  -23.6160    5.0690 C   0  0  0  0  0  3  0  0  0  0  0  0
  -14.2680  -23.9200    5.4980 C   0  0  0  0  0  3  0  0  0  0  0  0
  -11.2260  -22.0800    4.5940 O   0  0  0  0  0  0  0  0  0  0  0  0
  -10.4900  -20.9820    4.9660 C   0  0  0  0  0  0  0  0  0  0  0  0
  -10.2250  -20.6880    6.3220 C   0  0  0  0  0  3  0  0  0  0  0  0
   -9.4100  -19.5900    6.6590 C   0  0  0  0  0  3  0  0  0  0  0  0
   -8.8460  -18.7920    5.6440 C   0  0  0  0  0  0  0  0  0  0  0  0
   -9.1020  -19.0870    4.2940 C   0  0  0  0  0  3  0  0  0  0  0  0
   -9.9180  -20.1810    3.9560 C   0  0  0  0  0  0  0  0  0  0  0  0
  -10.1430  -20.4740    2.6530 F   0  0  0  0  0  0  0  0  0  0  0  0
   -8.0570  -17.7400    5.9670 F   0  0  0  0  0  0  0  0  0  0  0  0
  -15.9930  -25.1190    8.2070 C   0  0  0  0  0  0  0  0  0  0  0  0
  -14.8200  -24.6380    8.6010 N   0  0  0  0  0  0  0  0  0  0  0  0
  -16.3700  -26.2410    8.5460 O   0  0  0  0  0  0  0  0  0  0  0  0
  -14.5260  -23.7080    8.3430 H   0  0  0  0  0  0  0  0  0  0  0  0
  -14.2080  -25.2070    9.1690 H   0  0  0  0  0  0  0  0  0  0  0  0
  -19.1860  -24.9910    8.0860 N   0  0  0  0  0  0  0  0  0  0  0  0
  -18.9220  -25.7150    8.7440 H   0  0  0  0  0  0  0  0  0  0  0  0
  -20.1860  -24.9110    7.9570 H   0  0  0  0  0  0  0  0  0  0  0  0
  -19.1460  -25.8330   22.7670 C   0  0  0  0  0  0  0  0  0  0  0  0
  -20.0590  -24.8230   22.5570 N   0  0  0  0  0  0  0  0  0  0  0  0
  -17.9360  -25.6370   22.6790 O   0  0  0  0  0  0  0  0  0  0  0  0
  -21.0060  -25.0870   22.7890 H   0  0  0  0  0  0  0  0  0  0  0  0
  -20.0240  -23.5770   21.7290 C   0  0  0  0  0  2  0  0  0  0  0  0
  -20.5500  -23.6020   20.2110 C   0  0  0  0  0  2  0  0  0  0  0  0
  -21.9160  -24.0200   19.8440 O   0  0  0  0  0  0  0  0  0  0  0  0
  -22.4230  -23.4680   18.5730 C   0  0  0  0  0  3  0  0  0  0  0  0
  -23.7830  -24.0350   17.8990 C   0  0  0  0  0  3  0  0  0  0  0  0
  -24.5130  -23.4930   16.6830 O   0  0  0  0  0  0  0  0  0  0  0  0
  -18.9260  -25.9360   13.7680 C   0  0  0  0  0  0  0  0  0  0  0  0
  -23.5940  -23.1500   15.7460 C   0  0  0  0  0  0  0  0  0  0  0  0
  -18.8720  -23.9700   14.9850 C   0  0  0  0  0  3  0  0  0  0  0  0
  -20.9990  -22.6390   14.9460 C   0  0  0  0  0  0  0  0  0  0  0  0
  -20.8950  -24.6050   13.5200 C   0  0  0  0  0  2  0  0  0  0  0  0
  -21.6810  -23.7540   14.4390 C   0  0  0  0  0  0  0  0  0  0  0  0
  -22.9890  -24.0640   14.8620 C   0  0  0  0  0  3  0  0  0  0  0  0
  -23.0190  -21.9070   16.0040 C   0  0  0  0  0  3  0  0  0  0  0  0
  -21.6700  -21.6990   15.7220 C   0  0  0  0  0  3  0  0  0  0  0  0
  -19.4980  -22.5840   14.7700 C   0  0  0  0  0  2  0  0  0  0  0  0
  -19.5430  -24.8560   14.0590 N   0  0  0  0  0  0  0  0  0  0  0  0
  -17.7080  -26.0140   13.5730 O   0  0  0  0  0  0  0  0  0  0  0  0
  -19.1950  -24.5280   16.4260 C   0  0  0  0  0  0  0  0  0  0  0  0
  -18.4850  -25.2220   17.3060 N   0  0  0  0  0  0  0  0  0  0  0  0
  -20.2370  -24.3070   16.9290 O   0  0  0  0  0  0  0  0  0  0  0  0
  -18.0130  -25.9530   16.7630 H   0  0  0  0  0  0  0  0  0  0  0  0
  -14.4410  -23.3500   18.8500 C   0  0  0  0  0  3  0  0  0  0  0  0
  -17.6460  -25.0450   18.5050 C   0  0  0  0  0  1  0  0  0  0  0  0
  -18.5180  -22.9010   18.2740 C   0  0  0  0  0 15  0  0  0  0  0  0
  -17.1910  -21.3430   18.3150 C   0  0  0  0  0 15  0  0  0  0  0  0
  -15.2570  -21.6380   18.6890 C   0  0  0  0  0  1  0  0  0  0  0  0
  -15.2340  -24.9390   18.7180 C   0  0  0  0  0  2  0  0  0  0  0  0
  -14.2370  -25.6460   18.0270 C   0  0  0  0  0  2  0  0  0  0  0  0
  -12.9020  -25.1820   17.8020 C   0  0  0  0  0  3  0  0  0  0  0  0
  -12.3060  -24.0290   18.3590 C   0  0  0  0  0  3  0  0  0  0  0  0
  -13.0940  -23.1060   18.9900 C   0  0  0  0  0  2  0  0  0  0  0  0
  -19.7960  -27.1020   13.9020 C   0  0  0  0  0  2  0  0  0  0  0  0
  -18.9650  -27.9310   12.7010 N   0  0  0  0  0  0  0  0  0  0  0  0
  -18.7550  -27.9180   11.3280 C   0  0  0  0  0  0  0  0  0  0  0  0
  -19.4820  -27.2700   10.5820 O   0  0  0  0  0  0  0  0  0  0  0  0
  -18.2530  -28.5050   13.1180 H   0  0  0  0  0  0  0  0  0  0  0  0
  -16.3340  -27.8160   10.3850 C   0  0  0  0  0  1  0  0  0  0  0  0
  -17.5660  -28.7180   10.6230 C   0  0  0  0  0  3  0  0  0  0  0  0
  -18.7280  -30.4990    9.3290 C   0  0  0  0  0  1  0  0  0  0  0  0
  -17.8890  -29.3050    9.2870 N   0  0  0  0  0  0  0  0  0  0  0  0
  -17.0430  -29.5160    8.7640 H   0  0  0  0  0  0  0  0  0  0  0  0
  -20.1600  -27.5780   15.9220 C   0  0  0  0  0  3  0  0  0  0  0  0
  -19.1880  -27.9370   17.1850 C   0  0  0  0  0  1  0  0  0  0  0  0
  -21.2800  -26.8010   16.3720 C   0  0  0  0  0  1  0  0  0  0  0  0
  -20.6750  -29.1660   16.7290 C   0  0  0  0  0  1  0  0  0  0  0  0
  3  4  1  0
  4  6  1  0
  5  3  1  0
 15 23  1  0
 16 21  1  0
 17 18  1  0
 17 16  1  0
 19 18  1  0
 19 28  1  0
 19 20  1  0
 21 20  1  0
 21 15  1  0
 22 15  2  0
 24 23  1  0
 25 26  2  0
 25 50  1  0
 26 45  1  0
 27 26  1  0
 28 25  1  0
 29 27  2  0
 29 28  1  0
 30 27  1  0
 31 30  1  0
 32 31  2  0
 33 34  2  0
 33 32  1  0
 34 35  1  0
 35 30  2  0
 36 37  1  0
 36 33  1  0
 37 38  1  0
 38 39  2  0
 40 44  1  0
 40 39  1  0
 41 40  2  0
 42 41  1  0
 42 37  2  0
 43 42  1  0
 45 47  2  0
 45 46  1  0
 46 49  1  0
 48 46  1  0
 50 51  1  0
 52 50  1  0
 53  1  1  0
 54 53  1  0
 54 56  1  0
 55 53  2  0
 57 54  1  0
 58 57  1  0
 59 58  1  0
 60 59  1  0
 61 60  2  0
 62 61  1  0
 63 89  1  0
 63 73  1  0
 64 70  1  0
 64 62  1  0
 65 75  1  0
 66 71  1  0
 67 73  1  0
 67 68  1  0
 68 69  1  0
 68 66  2  0
 69 64  2  0
 71 70  2  0
 72 66  1  0
 72 65  1  0
 73 65  1  0
 74 63  2  0
 75 77  2  0
 75 76  1  0
 76 80  1  0
 78 76  1  0
 79 83  1  0
 79 88  1  0
 84 79  1  0
 85 84  1  0
 86 85  1  0
 86 87  2  0
 87 88  1  0
 90 93  1  0
 90 89  1  0
 91 90  1  0
 92 91  2  0
 95 94  1  0
 95 91  1  0
 97 96  1  0
 97 95  1  0
 98 97  1  0
 99101  1  0
 99102  1  0
 99100  1  0
M  ISO  4  15 100  23 100  61 101  62 101
M  END
>  <TORSDO>  (49) 
F 31

>  <SCORE>  (49) 
17.889

>  <name>  (49) 
50

>  <ligand_id>  (49) 
50

>  <original_smiles>  (49) 
[H]C(C(=O)N([H])C([H])([H])C([H])([H])OC([H])([H])C([H])([H])Oc1c([H])c([H])c2c(c1[H])C([H])([H])N(C(=O)C([H])(N([H])C(=O)C([H])(N([H])C([H])([H])[H])C([H])([H])[H])C(C([H])([H])[H])(C([H])([H])[H])C([H])([H])[H])C([H])(C(=O)N([H])C1([H])c3c([H])c([H])c([H])c([H])c3C([H])([H])C([H])([H])C1([H])[H])C2([H])[H])=C([H])C(=O)N([H])C([H])([H])C([H])([H])OC([H])([H])C([H])([H])OC([H])([H])C([H])([H])N([H])C(=O)N1C([H])([H])C([H])([H])C([H])([H])C([H])(n2nc(-c3c([H])c([H])c(Oc4c([H])c([H])c(F)c([H])c4F)c([H])c3[H])c(C(=O)N([H])[H])c2N([H])[H])C1([H])[H]

>  <smiles>  (49) 
[H]C(C(=O)N([H])C([H])([H])C([H])([H])OC([H])([H])C([H])([H])Oc1c([H])c([H])c2c(c1[H])C([H])([H])N(C(=O)C([H])(N([H])C(=O)C([H])(N([H])C([H])([H])[H])C([H])([H])[H])C(C([H])([H])[H])(C([H])([H])[H])C([H])([H])[H])C([H])(C(=O)N([H])C1([H])c3c([H])c([H])c([H])c([H])c3C([H])([H])C([H])([H])C1([H])[H])C2([H])[H])=C([H])C(=O)N([H])C([H])([H])C([H])([H])OC([H])([H])C([H])([H])OC([H])([H])C([H])([H])N([H])C(=O)N1C([H])([H])C([H])([H])C([H])([H])C([H])(n2nc(-c3c([H])c([H])c(Oc4c([H])c([H])c(F)c([H])c4F)c([H])c3[H])c(C(=O)N([H])[H])c2N([H])[H])C1([H])[H]

$$$$
51:0:0
     RDKit          3D

 91 98  0  0  1  0  0  0  0  0999 V2000
  -30.1110  -21.5040   22.1450 C   0  0  0  0  0  2  0  0  0  0  0  0
  -30.0960  -20.2080   22.9900 C   0  0  0  0  0  3  0  0  0  0  0  0
  -30.7110  -19.5660   25.2200 C   0  0  0  0  0  1  0  0  0  0  0  0
  -30.8140  -20.5310   24.1820 O   0  0  0  0  0  0  0  0  0  0  0  0
  -30.7880  -19.0420   22.2420 C   0  0  0  0  0  2  0  0  0  0  0  0
  -30.2730  -17.7730   22.6460 O   0  0  0  0  0  0  0  0  0  0  0  0
  -31.2610  -16.7500   22.7660 C   0  0  0  0  0  2  0  0  0  0  0  0
  -31.7080  -16.2080   21.3990 C   0  0  0  0  0  2  0  0  0  0  0  0
  -31.0380  -14.3940   19.8540 C   0  0  0  0  0  0  0  0  0  0  0  0
  -30.5260  -12.2590   18.7300 C   0  0  0  0  0  2  0  0  0  0  0  0
  -29.4990  -12.4110   17.5950 C   0  0  0  0  0  2  0  0  0  0  0  0
  -28.0670  -12.3070   18.1450 C   0  0  0  0  0  2  0  0  0  0  0  0
  -27.8330  -13.2420   19.3570 C   0  0  0  0  0  3  0  0  0  0  0  0
  -28.9550  -13.0810   20.4070 C   0  0  0  0  0  2  0  0  0  0  0  0
  -30.2580  -13.2870   19.7470 N   0  0  0  0  0  0  0  0  0  0  0  0
  -31.9630  -14.6540   19.0810 O   0  0  0  0  0  0  0  0  0  0  0  0
  -30.8260  -15.1380   20.9440 N   0  0  0  0  0  0  0  0  0  0  0  0
  -30.0750  -14.8550   21.5580 H   0  0  0  0  0  0  0  0  0  0  0  0
  -25.5320  -13.9560   20.2740 C   0  0  0  0  0  0  0  0  0  0  0  0
  -24.4570  -13.2310   20.7120 C   0  0  0  0  0  0  0  0  0  0  0  0
  -24.8390  -11.8590   20.6100 C   0  0  0  0  0  0  0  0  0  0  0  0
  -26.5080  -13.0290   19.9400 N   0  0  0  0  0  0  0  0  0  0  0  0
  -26.0960  -11.7610   20.1950 N   0  0  0  0  0  0  0  0  0  0  0  0
  -24.0640  -10.6310   20.8300 C   0  0  0  0  0  0  0  0  0  0  0  0
  -24.4760   -9.6530   21.7630 C   0  0  0  0  0  3  0  0  0  0  0  0
  -23.7030   -8.4910   21.9700 C   0  0  0  0  0  3  0  0  0  0  0  0
  -22.5040   -8.2960   21.2440 C   0  0  0  0  0  0  0  0  0  0  0  0
  -22.1100   -9.2610   20.3000 C   0  0  0  0  0  3  0  0  0  0  0  0
  -22.8830  -10.4160   20.0920 C   0  0  0  0  0  3  0  0  0  0  0  0
  -21.7040   -7.1850   21.3610 O   0  0  0  0  0  0  0  0  0  0  0  0
  -21.5980   -6.4950   22.5420 C   0  0  0  0  0  0  0  0  0  0  0  0
  -21.1660   -7.1190   23.7330 C   0  0  0  0  0  3  0  0  0  0  0  0
  -21.0050   -6.3570   24.9070 C   0  0  0  0  0  3  0  0  0  0  0  0
  -21.2630   -4.9740   24.8910 C   0  0  0  0  0  0  0  0  0  0  0  0
  -21.6860   -4.3500   23.7040 C   0  0  0  0  0  3  0  0  0  0  0  0
  -21.8500   -5.1090   22.5320 C   0  0  0  0  0  0  0  0  0  0  0  0
  -22.2370   -4.4990   21.3860 F   0  0  0  0  0  0  0  0  0  0  0  0
  -21.1000   -4.2390   26.0160 F   0  0  0  0  0  0  0  0  0  0  0  0
  -23.1150  -13.7730   21.1170 C   0  0  0  0  0  0  0  0  0  0  0  0
  -22.4390  -13.1050   22.0440 N   0  0  0  0  0  0  0  0  0  0  0  0
  -22.6800  -14.8220   20.6430 O   0  0  0  0  0  0  0  0  0  0  0  0
  -22.8070  -12.2550   22.4480 H   0  0  0  0  0  0  0  0  0  0  0  0
  -21.5440  -13.4480   22.3580 H   0  0  0  0  0  0  0  0  0  0  0  0
  -25.7590  -15.3210   20.1160 N   0  0  0  0  0  0  0  0  0  0  0  0
  -25.0510  -16.0200   20.3110 H   0  0  0  0  0  0  0  0  0  0  0  0
  -26.6170  -15.7160   19.7500 H   0  0  0  0  0  0  0  0  0  0  0  0
  -28.8350  -22.3640   22.2640 C   0  0  0  0  0  2  0  0  0  0  0  0
  -29.0610  -23.6170   21.6180 O   0  0  0  0  0  0  0  0  0  0  0  0
  -27.9000  -24.4400   21.5140 C   0  0  0  0  0  2  0  0  0  0  0  0
  -28.3190  -25.8980   21.2130 C   0  0  0  0  0  2  0  0  0  0  0  0
  -27.8090  -26.3810   19.9710 O   0  0  0  0  0  0  0  0  0  0  0  0
  -24.4650  -31.8050   23.1750 C   0  0  0  0  0  0  0  0  0  0  0  0
  -26.6970  -27.1770   20.0720 C   0  0  0  0  0  0  0  0  0  0  0  0
  -23.1010  -30.4480   21.6180 C   0  0  0  0  0  3  0  0  0  0  0  0
  -24.3950  -28.8030   20.1600 C   0  0  0  0  0  0  0  0  0  0  0  0
  -25.6300  -30.6590   21.2940 C   0  0  0  0  0  2  0  0  0  0  0  0
  -25.6050  -29.2730   20.6890 C   0  0  0  0  0  0  0  0  0  0  0  0
  -26.7620  -28.4650   20.6450 C   0  0  0  0  0  3  0  0  0  0  0  0
  -25.4780  -26.7160   19.5380 C   0  0  0  0  0  3  0  0  0  0  0  0
  -24.3250  -27.5210   19.5850 C   0  0  0  0  0  3  0  0  0  0  0  0
  -23.2060  -29.7340   20.2450 C   0  0  0  0  0  2  0  0  0  0  0  0
  -24.4200  -30.9860   22.0870 N   0  0  0  0  0  0  0  0  0  0  0  0
  -23.4290  -32.1520   23.7580 O   0  0  0  0  0  0  0  0  0  0  0  0
  -22.4410  -29.4820   22.6290 C   0  0  0  0  0  0  0  0  0  0  0  0
  -21.1170  -29.2940   22.4960 N   0  0  0  0  0  0  0  0  0  0  0  0
  -23.1170  -28.9040   23.4830 O   0  0  0  0  0  0  0  0  0  0  0  0
  -20.6350  -29.8130   21.7760 H   0  0  0  0  0  0  0  0  0  0  0  0
  -17.7620  -28.0280   22.9240 C   0  0  0  0  0  0  0  0  0  0  0  0
  -20.2910  -28.4010   23.3080 C   0  0  0  0  0  3  0  0  0  0  0  0
  -20.4710  -26.9280   22.8770 C   0  0  0  0  0  2  0  0  0  0  0  0
  -19.4370  -26.4730   21.8410 C   0  0  0  0  0  2  0  0  0  0  0  0
  -18.0180  -26.6280   22.3930 C   0  0  0  0  0  2  0  0  0  0  0  0
  -18.8310  -28.8670   23.3390 C   0  0  0  0  0  0  0  0  0  0  0  0
  -18.5400  -30.1720   23.7900 C   0  0  0  0  0  3  0  0  0  0  0  0
  -17.2130  -30.6400   23.8370 C   0  0  0  0  0  3  0  0  0  0  0  0
  -16.1590  -29.7980   23.4410 C   0  0  0  0  0  3  0  0  0  0  0  0
  -16.4340  -28.4960   22.9880 C   0  0  0  0  0  3  0  0  0  0  0  0
  -25.8150  -32.3670   23.7220 C   0  0  0  0  0  3  0  0  0  0  0  0
  -26.3750  -31.5560   24.9550 C   0  0  1  0  0  0  0  0  0  0  0  0
  -25.3410  -31.3510   26.0860 C   0  0  0  0  0  1  0  0  0  0  0  0
  -26.8720  -30.1620   24.5070 C   0  0  0  0  0  1  0  0  0  0  0  0
  -27.5970  -32.2920   25.5540 C   0  0  0  0  0  1  0  0  0  0  0  0
  -25.5940  -33.7750   24.0800 N   0  0  0  0  0  0  0  0  0  0  0  0
  -25.9860  -34.8200   23.3410 C   0  0  0  0  0  0  0  0  0  0  0  0
  -26.6500  -34.6960   22.3070 O   0  0  0  0  0  0  0  0  0  0  0  0
  -25.0150  -33.9500   24.8890 H   0  0  0  0  0  0  0  0  0  0  0  0
  -24.3810  -36.7270   23.0100 C   0  0  0  0  0  1  0  0  0  0  0  0
  -25.5820  -36.2240   23.8260 C   0  0  0  0  0  3  0  0  0  0  0  0
  -27.7590  -36.9470   24.7000 C   0  0  0  0  0  1  0  0  0  0  0  0
  -26.6800  -37.2120   23.7510 N   0  0  0  0  0  0  0  0  0  0  0  0
  -26.3310  -38.1510   23.9230 H   0  0  0  0  0  0  0  0  0  0  0  0
  1 47  1  0
  2  1  1  0
  2  4  1  0
  4  3  1  0
  5  6  1  0
  5  2  1  0
  6  7  1  0
  8  7  1  0
  9 17  1  0
 10 15  1  0
 11 12  1  0
 11 10  1  0
 13 12  1  0
 13 22  1  0
 13 14  1  0
 15  9  1  0
 15 14  1  0
 16  9  2  0
 17  8  1  0
 17 18  1  0
 19 20  2  0
 20 39  1  0
 21 20  1  0
 21 24  1  0
 22 23  1  0
 22 19  1  0
 23 21  2  0
 24 25  1  0
 25 26  2  0
 27 30  1  0
 27 26  1  0
 28 27  2  0
 29 28  1  0
 29 24  2  0
 30 31  1  0
 31 32  1  0
 32 33  2  0
 34 33  1  0
 34 38  1  0
 35 34  2  0
 36 31  2  0
 36 35  1  0
 37 36  1  0
 39 40  1  0
 40 43  1  0
 40 42  1  0
 41 39  2  0
 44 19  1  0
 44 45  1  0
 46 44  1  0
 48 47  1  0
 49 48  1  0
 50 49  1  0
 51 53  1  0
 51 50  1  0
 52 63  2  0
 53 58  1  0
 54 62  1  0
 54 64  1  0
 55 61  1  0
 55 57  1  0
 56 62  1  0
 57 56  1  0
 58 57  2  0
 59 60  1  0
 59 53  2  0
 60 55  2  0
 61 54  1  0
 62 52  1  0
 64 66  2  0
 65 64  1  0
 67 65  1  0
 68 77  2  0
 68 73  1  0
 69 65  1  0
 69 73  1  0
 70 69  1  0
 71 72  1  0
 71 70  1  0
 72 68  1  0
 73 74  2  0
 74 75  1  0
 76 75  2  0
 77 76  1  0
 78 52  1  0
 78 83  1  0
 78 79  1  0
 79 82  1  1
 79 80  1  0
 81 79  1  0
 83 86  1  0
 84 88  1  0
 84 83  1  0
 85 84  2  0
 88 87  1  0
 90 88  1  0
 90 91  1  0
 90 89  1  0
M  ISO  4   9 100  17 100  50 101  51 101
M  END
>  <TORSDO>  (50) 
F 26

>  <SCORE>  (50) 
-8.627

>  <name>  (50) 
51

>  <ligand_id>  (50) 
51

>  <original_smiles>  (50) 
[H]c1c([H])c([H])c2c(c1[H])C([H])([H])C([H])([H])C([H])([H])C2([H])N([H])C(=O)C1([H])N(C(=O)C([H])(N([H])C(=O)C([H])(N([H])C([H])([H])[H])C([H])([H])[H])C(C([H])([H])[H])(C([H])([H])[H])C([H])([H])[H])C([H])([H])c2c([H])c(OC([H])([H])C([H])([H])OC([H])([H])C([H])([H])C([H])(OC([H])([H])[H])C([H])([H])OC([H])([H])C([H])([H])N([H])C(=O)N3C([H])([H])C([H])([H])C([H])([H])C([H])(n4nc(-c5c([H])c([H])c(Oc6c([H])c([H])c(F)c([H])c6F)c([H])c5[H])c(C(=O)N([H])[H])c4N([H])[H])C3([H])[H])c([H])c([H])c2C1([H])[H]

>  <smiles>  (50) 
[H]c1c([H])c([H])c2c(c1[H])C([H])([H])C([H])([H])C([H])([H])C2([H])N([H])C(=O)C1([H])N(C(=O)C([H])(N([H])C(=O)C([H])(N([H])C([H])([H])[H])C([H])([H])[H])C(C([H])([H])[H])(C([H])([H])[H])C([H])([H])[H])C([H])([H])c2c([H])c(OC([H])([H])C([H])([H])OC([H])([H])C([H])([H])C([H])(OC([H])([H])[H])C([H])([H])OC([H])([H])C([H])([H])N([H])C(=O)N3C([H])([H])C([H])([H])C([H])([H])C([H])(n4nc(-c5c([H])c([H])c(Oc6c([H])c([H])c(F)c([H])c6F)c([H])c5[H])c(C(=O)N([H])[H])c4N([H])[H])C3([H])[H])c([H])c([H])c2C1([H])[H]

$$$$
52:0:0
     RDKit          3D

 87 94  0  0  1  0  0  0  0  0999 V2000
  -29.1130  -22.7980   20.1480 O   0  0  0  0  0  0  0  0  0  0  0  0
  -29.2650  -24.1800   20.5710 C   0  0  0  0  0  2  0  0  0  0  0  0
  -28.1950  -25.1410   19.9510 C   0  0  0  0  0  2  0  0  0  0  0  0
  -28.3440  -26.5690   20.2300 O   0  0  0  0  0  0  0  0  0  0  0  0
  -24.6030  -31.8820   23.2540 C   0  0  0  0  0  0  0  0  0  0  0  0
  -27.2030  -27.3700   20.1730 C   0  0  0  0  0  0  0  0  0  0  0  0
  -23.3880  -30.4910   21.6140 C   0  0  0  0  0  3  0  0  0  0  0  0
  -24.8290  -28.9470   20.1790 C   0  0  0  0  0  0  0  0  0  0  0  0
  -25.9230  -30.8160   21.4190 C   0  0  0  0  0  2  0  0  0  0  0  0
  -25.9960  -29.4430   20.7740 C   0  0  0  0  0  0  0  0  0  0  0  0
  -27.1840  -28.6630   20.7670 C   0  0  0  0  0  3  0  0  0  0  0  0
  -26.0140  -26.9200   19.5460 C   0  0  0  0  0  3  0  0  0  0  0  0
  -24.8370  -27.6890   19.5590 C   0  0  0  0  0  3  0  0  0  0  0  0
  -23.5920  -29.8180   20.2320 C   0  0  0  0  0  2  0  0  0  0  0  0
  -24.6560  -31.0790   22.1530 N   0  0  0  0  0  0  0  0  0  0  0  0
  -23.5240  -32.1610   23.7950 O   0  0  0  0  0  0  0  0  0  0  0  0
  -22.7290  -29.4710   22.5730 C   0  0  0  0  0  0  0  0  0  0  0  0
  -21.4040  -29.2960   22.4460 N   0  0  0  0  0  0  0  0  0  0  0  0
  -23.4090  -28.8420   23.3890 O   0  0  0  0  0  0  0  0  0  0  0  0
  -20.9160  -29.8550   21.7610 H   0  0  0  0  0  0  0  0  0  0  0  0
  -18.0240  -28.1080   22.9390 C   0  0  0  0  0  0  0  0  0  0  0  0
  -20.5820  -28.3620   23.2170 C   0  0  0  0  0  3  0  0  0  0  0  0
  -20.6820  -26.9290   22.6440 C   0  0  0  0  0  2  0  0  0  0  0  0
  -19.5830  -26.6070   21.6270 C   0  0  0  0  0  2  0  0  0  0  0  0
  -18.2000  -26.7570   22.2670 C   0  0  0  0  0  2  0  0  0  0  0  0
  -19.1430  -28.8680   23.3700 C   0  0  0  0  0  0  0  0  0  0  0  0
  -18.9250  -30.1340   23.9590 C   0  0  0  0  0  3  0  0  0  0  0  0
  -17.6220  -30.6390   24.1180 C   0  0  0  0  0  3  0  0  0  0  0  0
  -16.5170  -29.8760   23.7040 C   0  0  0  0  0  3  0  0  0  0  0  0
  -16.7190  -28.6120   23.1200 C   0  0  0  0  0  3  0  0  0  0  0  0
  -25.8930  -32.5060   23.8720 C   0  0  0  0  0  3  0  0  0  0  0  0
  -26.4080  -31.7310   25.1470 C   0  0  1  0  0  0  0  0  0  0  0  0
  -25.3180  -31.5010   26.2190 C   0  0  0  0  0  1  0  0  0  0  0  0
  -26.9820  -30.3500   24.7520 C   0  0  0  0  0  1  0  0  0  0  0  0
  -27.5640  -32.5190   25.8080 C   0  0  0  0  0  1  0  0  0  0  0  0
  -25.5920  -33.9060   24.2030 N   0  0  0  0  0  0  0  0  0  0  0  0
  -25.9250  -34.9570   23.4410 C   0  0  0  0  0  0  0  0  0  0  0  0
  -26.5890  -34.8480   22.4060 O   0  0  0  0  0  0  0  0  0  0  0  0
  -25.0030  -34.0650   25.0080 H   0  0  0  0  0  0  0  0  0  0  0  0
  -24.2020  -36.7560   23.0930 C   0  0  0  0  0  1  0  0  0  0  0  0
  -25.4460  -36.3470   23.8980 C   0  0  0  0  0  3  0  0  0  0  0  0
  -27.5900  -37.2240   24.7140 C   0  0  0  0  0  1  0  0  0  0  0  0
  -26.4820  -37.3950   23.7780 N   0  0  0  0  0  0  0  0  0  0  0  0
  -26.0800  -38.3170   23.9270 H   0  0  0  0  0  0  0  0  0  0  0  0
  -29.8660  -21.8260   20.9130 C   0  0  0  0  0  2  0  0  0  0  0  0
  -29.9940  -20.3890   20.2800 C   0  0  0  0  0  2  0  0  0  0  0  0
  -29.6060  -19.3250   21.1790 O   0  0  0  0  0  0  0  0  0  0  0  0
  -30.3560  -18.0820   21.1900 C   0  0  0  0  0  2  0  0  0  0  0  0
  -29.9920  -17.0260   20.1000 C   0  0  0  0  0  2  0  0  0  0  0  0
  -30.6580  -14.5630   20.1340 C   0  0  0  0  0  0  0  0  0  0  0  0
  -30.3320  -12.3860   19.0110 C   0  0  0  0  0  2  0  0  0  0  0  0
  -29.3420  -12.5990   17.8440 C   0  0  0  0  0  2  0  0  0  0  0  0
  -27.8850  -12.4670   18.3310 C   0  0  0  0  0  2  0  0  0  0  0  0
  -27.6040  -13.2910   19.6150 C   0  0  0  0  0  3  0  0  0  0  0  0
  -28.7030  -13.0590   20.6790 C   0  0  0  0  0  2  0  0  0  0  0  0
  -30.0040  -13.3660   20.0610 N   0  0  0  0  0  0  0  0  0  0  0  0
  -31.7760  -14.7380   19.6440 O   0  0  0  0  0  0  0  0  0  0  0  0
  -29.9110  -15.6090   20.5580 N   0  0  0  0  0  0  0  0  0  0  0  0
  -29.0360  -15.3490   20.9880 H   0  0  0  0  0  0  0  0  0  0  0  0
  -25.2410  -13.9170   20.4180 C   0  0  0  0  0  0  0  0  0  0  0  0
  -24.1800  -13.1550   20.8240 C   0  0  0  0  0  0  0  0  0  0  0  0
  -24.6260  -11.7980   20.7700 C   0  0  0  0  0  0  0  0  0  0  0  0
  -26.2680  -13.0270   20.1440 N   0  0  0  0  0  0  0  0  0  0  0  0
  -25.9040  -11.7470   20.4140 N   0  0  0  0  0  0  0  0  0  0  0  0
  -23.8950  -10.5420   20.9820 C   0  0  0  0  0  0  0  0  0  0  0  0
  -24.3570   -9.5630   21.8880 C   0  0  0  0  0  3  0  0  0  0  0  0
  -23.6260   -8.3710   22.0880 C   0  0  0  0  0  3  0  0  0  0  0  0
  -22.4190   -8.1520   21.3830 C   0  0  0  0  0  0  0  0  0  0  0  0
  -21.9750   -9.1210   20.4660 C   0  0  0  0  0  3  0  0  0  0  0  0
  -22.7060  -10.3040   20.2640 C   0  0  0  0  0  3  0  0  0  0  0  0
  -21.6570   -7.0150   21.4950 O   0  0  0  0  0  0  0  0  0  0  0  0
  -21.6560   -6.2580   22.6390 C   0  0  0  0  0  0  0  0  0  0  0  0
  -21.3040   -6.8040   23.8930 C   0  0  0  0  0  3  0  0  0  0  0  0
  -21.2500   -5.9740   25.0310 C   0  0  0  0  0  3  0  0  0  0  0  0
  -21.5350   -4.6010   24.9170 C   0  0  0  0  0  0  0  0  0  0  0  0
  -21.8800   -4.0550   23.6680 C   0  0  0  0  0  3  0  0  0  0  0  0
  -21.9370   -4.8820   22.5310 C   0  0  0  0  0  0  0  0  0  0  0  0
  -22.2490   -4.3460   21.3260 F   0  0  0  0  0  0  0  0  0  0  0  0
  -21.4760   -3.8020   26.0080 F   0  0  0  0  0  0  0  0  0  0  0  0
  -22.7990  -13.6450   21.1510 C   0  0  0  0  0  0  0  0  0  0  0  0
  -22.0980  -12.9520   22.0420 N   0  0  0  0  0  0  0  0  0  0  0  0
  -22.3520  -14.6760   20.6520 O   0  0  0  0  0  0  0  0  0  0  0  0
  -22.4730  -12.1180   22.4680 H   0  0  0  0  0  0  0  0  0  0  0  0
  -21.1730  -13.2630   22.3040 H   0  0  0  0  0  0  0  0  0  0  0  0
  -25.4140  -15.2870   20.2390 N   0  0  0  0  0  0  0  0  0  0  0  0
  -24.6560  -15.9470   20.3780 H   0  0  0  0  0  0  0  0  0  0  0  0
  -26.2510  -15.7180   19.8670 H   0  0  0  0  0  0  0  0  0  0  0  0
  1  2  1  0
  1 45  1  0
  3  4  1  0
  3  2  1  0
  5 16  2  0
  6  4  1  0
  6 11  1  0
  7 15  1  0
  7 17  1  0
  8 14  1  0
  8 10  1  0
  9 15  1  0
 10  9  1  0
 11 10  2  0
 12 13  1  0
 12  6  2  0
 13  8  2  0
 14  7  1  0
 15  5  1  0
 17 19  2  0
 18 17  1  0
 20 18  1  0
 21 30  2  0
 21 26  1  0
 22 18  1  0
 22 26  1  0
 23 22  1  0
 24 25  1  0
 24 23  1  0
 25 21  1  0
 26 27  2  0
 27 28  1  0
 29 28  2  0
 30 29  1  0
 31  5  1  0
 31 36  1  0
 31 32  1  0
 32 35  1  1
 32 33  1  0
 34 32  1  0
 36 39  1  0
 37 41  1  0
 37 36  1  0
 38 37  2  0
 41 40  1  0
 43 41  1  0
 43 44  1  0
 43 42  1  0
 46 45  1  0
 46 47  1  0
 47 48  1  0
 49 58  1  0
 49 48  1  0
 50 58  1  0
 51 56  1  0
 52 53  1  0
 52 51  1  0
 54 53  1  0
 54 63  1  0
 54 55  1  0
 56 50  1  0
 56 55  1  0
 57 50  2  0
 58 59  1  0
 60 61  2  0
 61 80  1  0
 62 61  1  0
 62 65  1  0
 63 64  1  0
 63 60  1  0
 64 62  2  0
 65 66  1  0
 66 67  2  0
 68 71  1  0
 68 67  1  0
 69 68  2  0
 70 69  1  0
 70 65  2  0
 71 72  1  0
 72 73  1  0
 73 74  2  0
 75 74  1  0
 75 79  1  0
 76 75  2  0
 77 72  2  0
 77 76  1  0
 78 77  1  0
 80 81  1  0
 81 84  1  0
 81 83  1  0
 82 80  2  0
 85 86  1  0
 85 60  1  0
 87 85  1  0
M  ISO  4   3 101   4 101  50 100  58 100
M  END
>  <TORSDO>  (51) 
F 23

>  <SCORE>  (51) 
-12.462

>  <name>  (51) 
52

>  <ligand_id>  (51) 
52

>  <original_smiles>  (51) 
[H]c1c([H])c([H])c2c(c1[H])C([H])([H])C([H])([H])C([H])([H])C2([H])N([H])C(=O)C1([H])N(C(=O)C([H])(N([H])C(=O)C([H])(N([H])C([H])([H])[H])C([H])([H])[H])C(C([H])([H])[H])(C([H])([H])[H])C([H])([H])[H])C([H])([H])c2c([H])c(OC([H])([H])C([H])([H])OC([H])([H])C([H])([H])OC([H])([H])C([H])([H])N([H])C(=O)N3C([H])([H])C([H])([H])C([H])([H])C([H])(n4nc(-c5c([H])c([H])c(Oc6c([H])c([H])c(F)c([H])c6F)c([H])c5[H])c(C(=O)N([H])[H])c4N([H])[H])C3([H])[H])c([H])c([H])c2C1([H])[H]

>  <smiles>  (51) 
[H]c1c([H])c([H])c2c(c1[H])C([H])([H])C([H])([H])C([H])([H])C2([H])N([H])C(=O)C1([H])N(C(=O)C([H])(N([H])C(=O)C([H])(N([H])C([H])([H])[H])C([H])([H])[H])C(C([H])([H])[H])(C([H])([H])[H])C([H])([H])[H])C([H])([H])c2c([H])c(OC([H])([H])C([H])([H])OC([H])([H])C([H])([H])OC([H])([H])C([H])([H])N([H])C(=O)N3C([H])([H])C([H])([H])C([H])([H])C([H])(n4nc(-c5c([H])c([H])c(Oc6c([H])c([H])c(F)c([H])c6F)c([H])c5[H])c(C(=O)N([H])[H])c4N([H])[H])C3([H])[H])c([H])c([H])c2C1([H])[H]

$$$$
53:0:0
     RDKit          3D

 94101  0  0  1  0  0  0  0  0999 V2000
  -29.8500  -18.1320   20.9690 C   0  0  0  0  0  0  0  0  0  0  0  0
  -30.0540  -19.4240   20.6190 N   0  0  0  0  0  0  0  0  0  0  0  0
  -29.4040  -17.8280   22.0780 O   0  0  0  0  0  0  0  0  0  0  0  0
  -30.4560  -19.5990   19.7080 H   0  0  0  0  0  0  0  0  0  0  0  0
  -29.6050  -20.6130   21.3690 C   0  0  0  0  0  2  0  0  0  0  0  0
  -29.9680  -21.9580   20.6740 C   0  0  0  0  0  2  0  0  0  0  0  0
  -29.1710  -23.0470   21.1700 O   0  0  0  0  0  0  0  0  0  0  0  0
  -29.5700  -24.3700   20.7530 C   0  0  0  0  0  2  0  0  0  0  0  0
  -28.3310  -25.2310   20.3810 C   0  0  0  0  0  2  0  0  0  0  0  0
  -28.4890  -26.6690   20.4750 O   0  0  0  0  0  0  0  0  0  0  0  0
  -24.6100  -31.9270   23.3690 C   0  0  0  0  0  0  0  0  0  0  0  0
  -27.3270  -27.4280   20.4030 C   0  0  0  0  0  0  0  0  0  0  0  0
  -23.4410  -30.4970   21.7280 C   0  0  0  0  0  3  0  0  0  0  0  0
  -24.9270  -28.9510   20.3470 C   0  0  0  0  0  0  0  0  0  0  0  0
  -25.9730  -30.8590   21.5700 C   0  0  0  0  0  2  0  0  0  0  0  0
  -26.0760  -29.4800   20.9460 C   0  0  0  0  0  0  0  0  0  0  0  0
  -27.2800  -28.7300   20.9650 C   0  0  0  0  0  3  0  0  0  0  0  0
  -26.1520  -26.9280   19.7900 C   0  0  0  0  0  3  0  0  0  0  0  0
  -24.9620  -27.6750   19.7630 C   0  0  0  0  0  3  0  0  0  0  0  0
  -23.6780  -29.8030   20.3610 C   0  0  0  0  0  2  0  0  0  0  0  0
  -24.6920  -31.1110   22.2800 N   0  0  0  0  0  0  0  0  0  0  0  0
  -23.5180  -32.2010   23.8840 O   0  0  0  0  0  0  0  0  0  0  0  0
  -22.7760  -29.4840   22.6910 C   0  0  0  0  0  0  0  0  0  0  0  0
  -21.4630  -29.2660   22.5170 N   0  0  0  0  0  0  0  0  0  0  0  0
  -23.4430  -28.8990   23.5470 O   0  0  0  0  0  0  0  0  0  0  0  0
  -20.9860  -29.7920   21.7980 H   0  0  0  0  0  0  0  0  0  0  0  0
  -18.1050  -27.9850   22.9060 C   0  0  0  0  0  0  0  0  0  0  0  0
  -20.6390  -28.3300   23.2830 C   0  0  0  0  0  3  0  0  0  0  0  0
  -20.8100  -26.8840   22.7610 C   0  0  0  0  0  2  0  0  0  0  0  0
  -19.7640  -26.4940   21.7100 C   0  0  0  0  0  2  0  0  0  0  0  0
  -18.3510  -26.6190   22.2860 C   0  0  0  0  0  2  0  0  0  0  0  0
  -19.1800  -28.7940   23.3590 C   0  0  0  0  0  0  0  0  0  0  0  0
  -18.8970  -30.0700   23.8950 C   0  0  0  0  0  3  0  0  0  0  0  0
  -17.5720  -30.5360   23.9840 C   0  0  0  0  0  3  0  0  0  0  0  0
  -16.5120  -29.7240   23.5480 C   0  0  0  0  0  3  0  0  0  0  0  0
  -16.7780  -28.4510   23.0150 C   0  0  0  0  0  3  0  0  0  0  0  0
  -25.8810  -32.5740   24.0010 C   0  0  0  0  0  3  0  0  0  0  0  0
  -25.5660  -33.9820   24.2820 N   0  0  0  0  0  0  0  0  0  0  0  0
  -25.9260  -35.0110   23.5030 C   0  0  0  0  0  0  0  0  0  0  0  0
  -26.6270  -34.8750   22.4960 O   0  0  0  0  0  0  0  0  0  0  0  0
  -24.9480  -34.1600   25.0600 H   0  0  0  0  0  0  0  0  0  0  0  0
  -24.2240  -36.8020   23.0340 C   0  0  0  0  0  1  0  0  0  0  0  0
  -25.4290  -36.4140   23.9050 C   0  0  0  0  0  3  0  0  0  0  0  0
  -27.5320  -37.3110   24.8000 C   0  0  0  0  0  1  0  0  0  0  0  0
  -26.4720  -37.4570   23.8060 N   0  0  0  0  0  0  0  0  0  0  0  0
  -26.0650  -38.3830   23.9090 H   0  0  0  0  0  0  0  0  0  0  0  0
  -26.3660  -31.8400   25.3110 C   0  0  1  0  0  0  0  0  0  0  0  0
  -25.2460  -31.6270   26.3560 C   0  0  0  0  0  1  0  0  0  0  0  0
  -26.9640  -30.4540   24.9710 C   0  0  0  0  0  1  0  0  0  0  0  0
  -27.4960  -32.6570   25.9810 C   0  0  0  0  0  1  0  0  0  0  0  0
  -30.1790  -17.0150   19.9310 C   0  0  0  0  0  3  0  0  0  0  0  0
  -30.7140  -14.5810   20.2160 C   0  0  0  0  0  0  0  0  0  0  0  0
  -30.3930  -12.4450   19.0420 C   0  0  0  0  0  2  0  0  0  0  0  0
  -29.4180  -12.7020   17.8720 C   0  0  0  0  0  2  0  0  0  0  0  0
  -27.9560  -12.5550   18.3370 C   0  0  0  0  0  2  0  0  0  0  0  0
  -27.6570  -13.3400   19.6410 C   0  0  0  0  0  3  0  0  0  0  0  0
  -28.7450  -13.0900   20.7120 C   0  0  0  0  0  2  0  0  0  0  0  0
  -30.0530  -13.3970   20.1110 N   0  0  0  0  0  0  0  0  0  0  0  0
  -31.8790  -14.7340   19.8450 O   0  0  0  0  0  0  0  0  0  0  0  0
  -29.9090  -15.6410   20.3990 N   0  0  0  0  0  0  0  0  0  0  0  0
  -28.9510  -15.4640   20.6520 H   0  0  0  0  0  0  0  0  0  0  0  0
  -25.2700  -13.9300   20.4000 C   0  0  0  0  0  0  0  0  0  0  0  0
  -24.2170  -13.1490   20.7940 C   0  0  0  0  0  0  0  0  0  0  0  0
  -24.6880  -11.8010   20.7540 C   0  0  0  0  0  0  0  0  0  0  0  0
  -26.3170  -13.0560   20.1490 N   0  0  0  0  0  0  0  0  0  0  0  0
  -25.9720  -11.7720   20.4200 N   0  0  0  0  0  0  0  0  0  0  0  0
  -23.9770  -10.5320   20.9560 C   0  0  0  0  0  0  0  0  0  0  0  0
  -24.4200   -9.5800   21.9000 C   0  0  0  0  0  3  0  0  0  0  0  0
  -23.7080   -8.3750   22.0900 C   0  0  0  0  0  3  0  0  0  0  0  0
  -22.5400   -8.1160   21.3360 C   0  0  0  0  0  0  0  0  0  0  0  0
  -22.1160   -9.0560   20.3800 C   0  0  0  0  0  3  0  0  0  0  0  0
  -22.8290  -10.2520   20.1890 C   0  0  0  0  0  3  0  0  0  0  0  0
  -21.7990   -6.9620   21.4340 O   0  0  0  0  0  0  0  0  0  0  0  0
  -21.7430   -6.2400   22.5990 C   0  0  0  0  0  0  0  0  0  0  0  0
  -21.2720   -6.8070   23.8050 C   0  0  0  0  0  3  0  0  0  0  0  0
  -21.1650   -6.0100   24.9620 C   0  0  0  0  0  3  0  0  0  0  0  0
  -21.5180   -4.6480   24.9150 C   0  0  0  0  0  0  0  0  0  0  0  0
  -21.9830   -4.0820   23.7150 C   0  0  0  0  0  3  0  0  0  0  0  0
  -22.0920   -4.8750   22.5600 C   0  0  0  0  0  0  0  0  0  0  0  0
  -22.5200   -4.3200   21.4010 F   0  0  0  0  0  0  0  0  0  0  0  0
  -21.4080   -3.8800   26.0240 F   0  0  0  0  0  0  0  0  0  0  0  0
  -22.8200  -13.6140   21.0920 C   0  0  0  0  0  0  0  0  0  0  0  0
  -22.1110  -12.9110   21.9670 N   0  0  0  0  0  0  0  0  0  0  0  0
  -22.3650  -14.6370   20.5820 O   0  0  0  0  0  0  0  0  0  0  0  0
  -22.4920  -12.0840   22.4050 H   0  0  0  0  0  0  0  0  0  0  0  0
  -21.1750  -13.2060   22.2060 H   0  0  0  0  0  0  0  0  0  0  0  0
  -25.4180  -15.3020   20.2140 N   0  0  0  0  0  0  0  0  0  0  0  0
  -24.6330  -15.9370   20.3150 H   0  0  0  0  0  0  0  0  0  0  0  0
  -26.2230  -15.7410   19.7790 H   0  0  0  0  0  0  0  0  0  0  0  0
  -29.2440  -17.2160   18.7220 C   0  0  0  0  0  0  0  0  0  0  0  0
  -29.7810  -17.6470   17.5850 N   0  0  0  0  0  0  0  0  0  0  0  0
  -28.0460  -16.9350   18.7880 O   0  0  0  0  0  0  0  0  0  0  0  0
  -30.7730  -17.8260   17.5140 H   0  0  0  0  0  0  0  0  0  0  0  0
  -29.2050  -17.7680   16.7640 H   0  0  0  0  0  0  0  0  0  0  0  0
  1  3  2  0
  2  1  1  0
  2  5  1  0
  4  2  1  0
  6  7  1  0
  6  5  1  0
  8  7  1  0
  9 10  1  0
  9  8  1  0
 11 22  2  0
 12 10  1  0
 12 17  1  0
 13 21  1  0
 13 23  1  0
 14 20  1  0
 14 16  1  0
 15 21  1  0
 16 17  2  0
 16 15  1  0
 18 12  2  0
 19 18  1  0
 19 14  2  0
 20 13  1  0
 21 11  1  0
 23 25  2  0
 24 23  1  0
 26 24  1  0
 27 36  2  0
 27 32  1  0
 28 24  1  0
 28 32  1  0
 29 28  1  0
 30 31  1  0
 30 29  1  0
 31 27  1  0
 32 33  2  0
 33 34  1  0
 35 34  2  0
 36 35  1  0
 37 11  1  0
 37 38  1  0
 37 47  1  0
 38 41  1  0
 39 43  1  0
 39 38  1  0
 40 39  2  0
 43 42  1  0
 45 43  1  0
 45 46  1  0
 45 44  1  0
 47 50  1  1
 47 48  1  0
 49 47  1  0
 51 90  1  0
 51 60  1  0
 51  1  1  0
 52 60  1  0
 53 58  1  0
 54 55  1  0
 54 53  1  0
 56 55  1  0
 56 65  1  0
 56 57  1  0
 58 52  1  0
 58 57  1  0
 59 52  2  0
 60 61  1  0
 62 63  2  0
 63 82  1  0
 64 63  1  0
 64 67  1  0
 65 62  1  0
 65 66  1  0
 66 64  2  0
 67 68  1  0
 68 69  2  0
 70 73  1  0
 70 69  1  0
 71 70  2  0
 72 71  1  0
 72 67  2  0
 73 74  1  0
 74 75  1  0
 75 76  2  0
 77 76  1  0
 77 81  1  0
 78 77  2  0
 79 74  2  0
 79 78  1  0
 80 79  1  0
 82 83  1  0
 83 86  1  0
 83 85  1  0
 84 82  2  0
 87 88  1  0
 87 62  1  0
 89 87  1  0
 90 92  2  0
 91 90  1  0
 93 91  1  0
 94 91  1  0
M  ISO  4   9 101  10 101  52 100  60 100
M  END
>  <TORSDO>  (52) 
F 23

>  <SCORE>  (52) 
-12.266

>  <name>  (52) 
53

>  <ligand_id>  (52) 
53

>  <original_smiles>  (52) 
[H]c1c([H])c([H])c2c(c1[H])C([H])([H])C([H])([H])C([H])([H])C2([H])N([H])C(=O)C1([H])N(C(=O)C([H])(N([H])C(=O)C([H])(N([H])C([H])([H])[H])C([H])([H])[H])C(C([H])([H])[H])(C([H])([H])[H])C([H])([H])[H])C([H])([H])c2c([H])c(OC([H])([H])C([H])([H])OC([H])([H])C([H])([H])N([H])C(=O)C([H])(C(=O)N([H])[H])N([H])C(=O)N3C([H])([H])C([H])([H])C([H])([H])C([H])(n4nc(-c5c([H])c([H])c(Oc6c([H])c([H])c(F)c([H])c6F)c([H])c5[H])c(C(=O)N([H])[H])c4N([H])[H])C3([H])[H])c([H])c([H])c2C1([H])[H]

>  <smiles>  (52) 
[H]c1c([H])c([H])c2c(c1[H])C([H])([H])C([H])([H])C([H])([H])C2([H])N([H])C(=O)C1([H])N(C(=O)C([H])(N([H])C(=O)C([H])(N([H])C([H])([H])[H])C([H])([H])[H])C(C([H])([H])[H])(C([H])([H])[H])C([H])([H])[H])C([H])([H])c2c([H])c(OC([H])([H])C([H])([H])OC([H])([H])C([H])([H])N([H])C(=O)C([H])(C(=O)N([H])[H])N([H])C(=O)N3C([H])([H])C([H])([H])C([H])([H])C([H])(n4nc(-c5c([H])c([H])c(Oc6c([H])c([H])c(F)c([H])c6F)c([H])c5[H])c(C(=O)N([H])[H])c4N([H])[H])C3([H])[H])c([H])c([H])c2C1([H])[H]

$$$$
54:0:0
     RDKit          3D

 97104  0  0  1  0  0  0  0  0999 V2000
  -28.1340  -23.3510   20.1510 C   0  0  0  0  0  3  0  0  0  0  0  0
  -25.9530  -23.6010   21.4380 C   0  0  0  0  0  0  0  0  0  0  0  0
  -27.2800  -23.4160   21.3360 N   0  0  0  0  0  0  0  0  0  0  0  0
  -25.4330  -23.6030   22.5570 O   0  0  0  0  0  0  0  0  0  0  0  0
  -27.7630  -23.3070   22.2170 H   0  0  0  0  0  0  0  0  0  0  0  0
  -25.0520  -23.8510   20.2060 C   0  0  0  0  0  3  0  0  0  0  0  0
  -23.9130  -24.6690   20.6530 N   0  0  0  0  0  4  0  0  0  0  0  0
  -23.4460  -24.1720   21.3930 H   0  0  0  0  0  0  0  0  0  0  0  0
  -23.2730  -24.8600   19.9030 H   0  0  0  0  0  0  0  0  0  0  0  0
  -24.2580  -25.5270   21.0400 H   0  0  0  0  0  0  0  0  0  0  0  0
  -24.5310  -22.5410   19.5490 C   0  0  0  0  0  2  0  0  0  0  0  0
  -25.5030  -21.8250   18.8030 O   0  0  0  0  0  0  0  0  0  0  0  0
  -25.6690  -22.2940   17.9900 H   0  0  0  0  0  0  0  0  0  0  0  0
  -29.1810  -22.0420   20.3430 C   0  0  0  0  0  2  0  0  0  0  0  0
  -28.8470  -20.4210   20.0190 C   0  0  0  0  0  2  0  0  0  0  0  0
  -29.5370  -19.0400   20.6970 C   0  0  0  0  0  2  0  0  0  0  0  0
  -29.7440  -17.5710   19.9120 C   0  0  0  0  0  2  0  0  0  0  0  0
  -30.5170  -14.9700   20.3120 C   0  0  0  0  0  0  0  0  0  0  0  0
  -30.3780  -12.6290   19.3800 C   0  0  0  0  0  2  0  0  0  0  0  0
  -29.4430  -12.6350   18.1470 C   0  0  0  0  0  2  0  0  0  0  0  0
  -27.9770  -12.4390   18.5780 C   0  0  0  0  0  2  0  0  0  0  0  0
  -27.5870  -13.3430   19.7780 C   0  0  0  0  0  3  0  0  0  0  0  0
  -28.6470  -13.3160   20.9010 C   0  0  0  0  0  2  0  0  0  0  0  0
  -29.9290  -13.7100   20.3010 N   0  0  0  0  0  0  0  0  0  0  0  0
  -31.6880  -15.0610   19.9290 O   0  0  0  0  0  0  0  0  0  0  0  0
  -29.7330  -16.1260   20.5410 N   0  0  0  0  0  0  0  0  0  0  0  0
  -28.8430  -15.8890   20.9530 H   0  0  0  0  0  0  0  0  0  0  0  0
  -25.2090  -13.9200   20.5380 C   0  0  0  0  0  0  0  0  0  0  0  0
  -24.1460  -13.1440   20.9070 C   0  0  0  0  0  0  0  0  0  0  0  0
  -24.6060  -11.7910   20.8570 C   0  0  0  0  0  0  0  0  0  0  0  0
  -26.2490  -13.0420   20.2790 N   0  0  0  0  0  0  0  0  0  0  0  0
  -25.8940  -11.7550   20.5350 N   0  0  0  0  0  0  0  0  0  0  0  0
  -23.8770  -10.5290   21.0380 C   0  0  0  0  0  0  0  0  0  0  0  0
  -24.3220   -9.5410   21.9440 C   0  0  0  0  0  3  0  0  0  0  0  0
  -23.5900   -8.3450   22.1150 C   0  0  0  0  0  3  0  0  0  0  0  0
  -22.4010   -8.1290   21.3790 C   0  0  0  0  0  0  0  0  0  0  0  0
  -21.9750   -9.1050   20.4620 C   0  0  0  0  0  3  0  0  0  0  0  0
  -22.7060  -10.2920   20.2880 C   0  0  0  0  0  3  0  0  0  0  0  0
  -21.6410   -6.9870   21.4600 O   0  0  0  0  0  0  0  0  0  0  0  0
  -21.6170   -6.2170   22.5960 C   0  0  0  0  0  0  0  0  0  0  0  0
  -21.2380   -6.7500   23.8480 C   0  0  0  0  0  3  0  0  0  0  0  0
  -21.1600   -5.9080   24.9750 C   0  0  0  0  0  3  0  0  0  0  0  0
  -21.4500   -4.5350   24.8520 C   0  0  0  0  0  0  0  0  0  0  0  0
  -21.8230   -4.0030   23.6050 C   0  0  0  0  0  3  0  0  0  0  0  0
  -21.9030   -4.8420   22.4800 C   0  0  0  0  0  0  0  0  0  0  0  0
  -22.2400   -4.3200   21.2770 F   0  0  0  0  0  0  0  0  0  0  0  0
  -21.3680   -3.7260   25.9340 F   0  0  0  0  0  0  0  0  0  0  0  0
  -22.7520  -13.6220   21.1940 C   0  0  0  0  0  0  0  0  0  0  0  0
  -22.0290  -12.9230   22.0630 N   0  0  0  0  0  0  0  0  0  0  0  0
  -22.3130  -14.6510   20.6840 O   0  0  0  0  0  0  0  0  0  0  0  0
  -22.3960  -12.0900   22.4980 H   0  0  0  0  0  0  0  0  0  0  0  0
  -21.0950  -13.2270   22.2970 H   0  0  0  0  0  0  0  0  0  0  0  0
  -25.3730  -15.2930   20.3750 N   0  0  0  0  0  0  0  0  0  0  0  0
  -24.6040  -15.9430   20.4890 H   0  0  0  0  0  0  0  0  0  0  0  0
  -26.2120  -15.7330   20.0190 H   0  0  0  0  0  0  0  0  0  0  0  0
  -28.5640  -24.9180   19.7020 C   0  0  0  0  0  2  0  0  0  0  0  0
  -28.3530  -26.2990   20.3680 O   0  0  0  0  0  0  0  0  0  0  0  0
  -24.6070  -31.8790   23.2520 C   0  0  0  0  0  0  0  0  0  0  0  0
  -27.2650  -27.2220   20.2240 C   0  0  0  0  0  0  0  0  0  0  0  0
  -23.4350  -30.4800   21.5910 C   0  0  0  0  0  3  0  0  0  0  0  0
  -24.9120  -28.9190   20.1740 C   0  0  0  0  0  0  0  0  0  0  0  0
  -25.9840  -30.7700   21.4570 C   0  0  0  0  0  2  0  0  0  0  0  0
  -26.0720  -29.3820   20.8040 C   0  0  0  0  0  0  0  0  0  0  0  0
  -27.2430  -28.5430   20.8210 C   0  0  0  0  0  3  0  0  0  0  0  0
  -26.0880  -26.8550   19.5420 C   0  0  0  0  0  3  0  0  0  0  0  0
  -24.9300  -27.6700   19.5270 C   0  0  0  0  0  3  0  0  0  0  0  0
  -23.6760  -29.8050   20.2120 C   0  0  0  0  0  2  0  0  0  0  0  0
  -24.6940  -31.0660   22.1560 N   0  0  0  0  0  0  0  0  0  0  0  0
  -23.5130  -32.1550   23.7690 O   0  0  0  0  0  0  0  0  0  0  0  0
  -22.7540  -29.4660   22.5430 C   0  0  0  0  0  0  0  0  0  0  0  0
  -21.4250  -29.3020   22.4130 N   0  0  0  0  0  0  0  0  0  0  0  0
  -23.4230  -28.8270   23.3590 O   0  0  0  0  0  0  0  0  0  0  0  0
  -20.9430  -29.8680   21.7300 H   0  0  0  0  0  0  0  0  0  0  0  0
  -18.0360  -28.1260   22.9130 C   0  0  0  0  0  0  0  0  0  0  0  0
  -20.5990  -28.3600   23.1730 C   0  0  0  0  0  3  0  0  0  0  0  0
  -20.6830  -26.9370   22.5750 C   0  0  0  0  0  2  0  0  0  0  0  0
  -19.5740  -26.6410   21.5610 C   0  0  0  0  0  2  0  0  0  0  0  0
  -18.1970  -26.7880   22.2120 C   0  0  0  0  0  2  0  0  0  0  0  0
  -19.1640  -28.8720   23.3490 C   0  0  0  0  0  0  0  0  0  0  0  0
  -18.9580  -30.1250   23.9660 C   0  0  0  0  0  3  0  0  0  0  0  0
  -17.6570  -30.6340   24.1480 C   0  0  0  0  0  3  0  0  0  0  0  0
  -16.5450  -29.8850   23.7250 C   0  0  0  0  0  3  0  0  0  0  0  0
  -16.7350  -28.6340   23.1140 C   0  0  0  0  0  3  0  0  0  0  0  0
  -25.8740  -32.5210   23.8970 C   0  0  0  0  0  3  0  0  0  0  0  0
  -26.3600  -31.7650   25.1930 C   0  0  1  0  0  0  0  0  0  0  0  0
  -25.2450  -31.5440   26.2410 C   0  0  0  0  0  1  0  0  0  0  0  0
  -26.9470  -30.3810   24.8350 C   0  0  0  0  0  1  0  0  0  0  0  0
  -27.4990  -32.5640   25.8700 C   0  0  0  0  0  1  0  0  0  0  0  0
  -25.5560  -33.9230   24.2110 N   0  0  0  0  0  0  0  0  0  0  0  0
  -25.8950  -34.9730   23.4500 C   0  0  0  0  0  0  0  0  0  0  0  0
  -26.5740  -34.8630   22.4260 O   0  0  0  0  0  0  0  0  0  0  0  0
  -24.9560  -34.0820   25.0060 H   0  0  0  0  0  0  0  0  0  0  0  0
  -24.1590  -36.7590   23.0840 C   0  0  0  0  0  1  0  0  0  0  0  0
  -25.4040  -36.3650   23.8950 C   0  0  0  0  0  3  0  0  0  0  0  0
  -27.5400  -37.2670   24.7080 C   0  0  0  0  0  1  0  0  0  0  0  0
  -26.4330  -37.4220   23.7680 N   0  0  0  0  0  0  0  0  0  0  0  0
  -26.0230  -38.3410   23.9080 H   0  0  0  0  0  0  0  0  0  0  0  0
  1 56  1  0
  1 14  1  0
  1  3  1  0
  2  4  2  0
  3  2  1  0
  3  5  1  0
  6 11  1  0
  6  7  1  0
  6  2  1  0
  7 10  1  0
  7  8  1  0
  9  7  1  0
 12 11  1  0
 13 12  1  0
 15 14  1  0
 15 16  1  0
 17 26  1  0
 17 16  1  0
 18 26  1  0
 19 24  1  0
 20 21  1  0
 20 19  1  0
 22 21  1  0
 22 31  1  0
 22 23  1  0
 24 18  1  0
 24 23  1  0
 25 18  2  0
 26 27  1  0
 28 29  2  0
 29 48  1  0
 30 29  1  0
 30 33  1  0
 31 32  1  0
 31 28  1  0
 32 30  2  0
 33 34  1  0
 34 35  2  0
 36 39  1  0
 36 35  1  0
 37 36  2  0
 38 37  1  0
 38 33  2  0
 39 40  1  0
 40 41  1  0
 41 42  2  0
 43 42  1  0
 43 47  1  0
 44 43  2  0
 45 40  2  0
 45 44  1  0
 46 45  1  0
 48 49  1  0
 49 52  1  0
 49 51  1  0
 50 48  2  0
 53 54  1  0
 53 28  1  0
 55 53  1  0
 56 57  1  0
 58 69  2  0
 59 57  1  0
 59 64  1  0
 60 68  1  0
 60 70  1  0
 61 67  1  0
 61 63  1  0
 62 68  1  0
 63 64  2  0
 63 62  1  0
 65 59  2  0
 66 65  1  0
 66 61  2  0
 67 60  1  0
 68 58  1  0
 70 72  2  0
 71 70  1  0
 73 71  1  0
 74 83  2  0
 74 79  1  0
 75 71  1  0
 75 79  1  0
 76 75  1  0
 77 78  1  0
 77 76  1  0
 78 74  1  0
 79 80  2  0
 80 81  1  0
 82 81  2  0
 83 82  1  0
 84 58  1  0
 84 89  1  0
 84 85  1  0
 85 88  1  1
 85 86  1  0
 87 85  1  0
 89 92  1  0
 90 94  1  0
 90 89  1  0
 91 90  2  0
 94 93  1  0
 96 94  1  0
 96 97  1  0
 96 95  1  0
M  ISO  4  18 100  26 100  56 101  57 101
M  END
>  <TORSDO>  (53) 
F 26

>  <SCORE>  (53) 
-12.411

>  <name>  (53) 
54

>  <ligand_id>  (53) 
54

>  <original_smiles>  (53) 
[H]OC([H])([H])C([H])(C(=O)N([H])C([H])(C([H])([H])Oc1c([H])c([H])c2c(c1[H])C([H])([H])N(C(=O)C([H])(N([H])C(=O)C([H])(N([H])C([H])([H])[H])C([H])([H])[H])C(C([H])([H])[H])(C([H])([H])[H])C([H])([H])[H])C([H])(C(=O)N([H])C1([H])c3c([H])c([H])c([H])c([H])c3C([H])([H])C([H])([H])C1([H])[H])C2([H])[H])C([H])([H])C([H])([H])C([H])([H])C([H])([H])N([H])C(=O)N1C([H])([H])C([H])([H])C([H])([H])C([H])(n2nc(-c3c([H])c([H])c(Oc4c([H])c([H])c(F)c([H])c4F)c([H])c3[H])c(C(=O)N([H])[H])c2N([H])[H])C1([H])[H])[N+]([H])([H])[H]

>  <smiles>  (53) 
[H]OC([H])([H])C([H])(C(=O)N([H])C([H])(C([H])([H])Oc1c([H])c([H])c2c(c1[H])C([H])([H])N(C(=O)C([H])(N([H])C(=O)C([H])(N([H])C([H])([H])[H])C([H])([H])[H])C(C([H])([H])[H])(C([H])([H])[H])C([H])([H])[H])C([H])(C(=O)N([H])C1([H])c3c([H])c([H])c([H])c([H])c3C([H])([H])C([H])([H])C1([H])[H])C2([H])[H])C([H])([H])C([H])([H])C([H])([H])C([H])([H])N([H])C(=O)N1C([H])([H])C([H])([H])C([H])([H])C([H])(n2nc(-c3c([H])c([H])c(Oc4c([H])c([H])c(F)c([H])c4F)c([H])c3[H])c(C(=O)N([H])[H])c2N([H])[H])C1([H])[H])[N+]([H])([H])[H]

$$$$
55:0:0
     RDKit          3D

102112  0  0  1  0  0  0  0  0999 V2000
  -28.1730  -16.6940   21.2400 C   0  0  0  0  0  3  0  0  0  0  0  0
  -28.5350  -17.7390   20.3700 C   0  0  0  0  0  3  0  0  0  0  0  0
  -28.9630  -15.5300   21.3060 C   0  0  0  0  0  3  0  0  0  0  0  0
  -29.6840  -17.6160   19.5650 C   0  0  0  0  0  3  0  0  0  0  0  0
  -33.1500  -12.3150   18.0430 C   0  0  0  0  0  3  0  0  0  0  0  0
  -33.4190  -13.3340   17.1240 C   0  0  0  0  0  3  0  0  0  0  0  0
  -30.1190  -15.3980   20.5010 C   0  0  0  0  0  0  0  0  0  0  0  0
  -30.4780  -16.4470   19.6230 C   0  0  0  0  0  0  0  0  0  0  0  0
  -31.8500  -13.8730   19.4140 C   0  0  0  0  0  0  0  0  0  0  0  0
  -32.1640  -14.9300   18.4890 C   0  0  0  0  0  0  0  0  0  0  0  0
  -32.3730  -12.5510   19.2000 C   0  0  0  0  0  0  0  0  0  0  0  0
  -32.9400  -14.6360   17.3260 C   0  0  0  0  0  0  0  0  0  0  0  0
  -30.9600  -14.1750   20.6010 C   0  0  0  0  0  0  0  0  0  0  0  0
  -31.6980  -16.3370   18.7820 C   0  0  0  0  0  0  0  0  0  0  0  0
  -30.8900  -13.4470   21.5950 O   0  0  0  0  0  0  0  0  0  0  0  0
  -32.2670  -17.3550   18.3780 O   0  0  0  0  0  0  0  0  0  0  0  0
  -32.7470  -10.3420   20.4240 C   0  0  0  0  0  0  0  0  0  0  0  0
  -32.4340   -8.0300   21.2310 C   0  0  0  0  0  2  0  0  0  0  0  0
  -31.6540   -7.2220   20.1750 C   0  0  0  0  0  2  0  0  0  0  0  0
  -30.1340   -7.3960   20.3620 C   0  0  0  0  0  2  0  0  0  0  0  0
  -29.7140   -8.8820   20.5120 C   0  0  0  0  0  3  0  0  0  0  0  0
  -30.6110   -9.5970   21.5480 C   0  0  0  0  0  2  0  0  0  0  0  0
  -32.0150   -9.4370   21.1270 N   0  0  0  0  0  0  0  0  0  0  0  0
  -33.8990  -10.1040   20.0510 O   0  0  0  0  0  0  0  0  0  0  0  0
  -32.0950  -11.4870   20.1320 N   0  0  0  0  0  0  0  0  0  0  0  0
  -31.2060  -11.5680   20.6080 H   0  0  0  0  0  0  0  0  0  0  0  0
  -27.4430  -10.0840   20.6770 C   0  0  0  0  0  0  0  0  0  0  0  0
  -26.2100   -9.6550   21.0910 C   0  0  0  0  0  0  0  0  0  0  0  0
  -26.3810   -8.2950   21.4980 C   0  0  0  0  0  0  0  0  0  0  0  0
  -28.2960   -9.0050   20.8480 N   0  0  0  0  0  0  0  0  0  0  0  0
  -27.6550   -7.9410   21.3940 N   0  0  0  0  0  0  0  0  0  0  0  0
  -25.3960   -7.2930   21.9240 C   0  0  0  0  0  0  0  0  0  0  0  0
  -24.9680   -7.2010   23.2670 C   0  0  0  0  0  3  0  0  0  0  0  0
  -24.0070   -6.2410   23.6490 C   0  0  0  0  0  3  0  0  0  0  0  0
  -23.4590   -5.3620   22.6840 C   0  0  0  0  0  0  0  0  0  0  0  0
  -23.9050   -5.4430   21.3530 C   0  0  0  0  0  3  0  0  0  0  0  0
  -24.8660   -6.3950   20.9760 C   0  0  0  0  0  3  0  0  0  0  0  0
  -22.5390   -4.3820   22.9680 O   0  0  0  0  0  0  0  0  0  0  0  0
  -21.3780   -4.6590   23.6440 C   0  0  0  0  0  0  0  0  0  0  0  0
  -20.3530   -5.4440   23.0720 C   0  0  0  0  0  3  0  0  0  0  0  0
  -19.1470   -5.6460   23.7730 C   0  0  0  0  0  3  0  0  0  0  0  0
  -18.9590   -5.0560   25.0370 C   0  0  0  0  0  0  0  0  0  0  0  0
  -19.9770   -4.2690   25.6050 C   0  0  0  0  0  3  0  0  0  0  0  0
  -21.1810   -4.0690   24.9080 C   0  0  0  0  0  0  0  0  0  0  0  0
  -22.1500   -3.2910   25.4500 F   0  0  0  0  0  0  0  0  0  0  0  0
  -17.7990   -5.2430   25.7080 F   0  0  0  0  0  0  0  0  0  0  0  0
  -24.9240  -10.4260   21.0260 C   0  0  0  0  0  0  0  0  0  0  0  0
  -24.0260  -10.2040   21.9780 N   0  0  0  0  0  0  0  0  0  0  0  0
  -24.7280  -11.2690   20.1510 O   0  0  0  0  0  0  0  0  0  0  0  0
  -24.1950   -9.5250   22.7070 H   0  0  0  0  0  0  0  0  0  0  0  0
  -23.1560  -10.7200   21.9810 H   0  0  0  0  0  0  0  0  0  0  0  0
  -27.9040  -11.2860   20.1490 N   0  0  0  0  0  0  0  0  0  0  0  0
  -27.2830  -12.0630   19.9510 H   0  0  0  0  0  0  0  0  0  0  0  0
  -28.8390  -11.4240   19.7880 H   0  0  0  0  0  0  0  0  0  0  0  0
  -33.2960  -15.5640   16.3340 N   0  0  0  0  0  0  0  0  0  0  0  0
  -33.7010  -15.1240   15.5120 H   0  0  0  0  0  0  0  0  0  0  0  0
  -32.2680  -16.5290   15.9430 C   0  0  0  0  0  2  0  0  0  0  0  0
  -32.6250  -17.9640   16.3810 C   0  0  0  0  0  2  0  0  0  0  0  0
  -32.9110  -18.7880   15.2560 O   0  0  0  0  0  0  0  0  0  0  0  0
  -33.5310  -20.0210   15.6270 C   0  0  0  0  0  2  0  0  0  0  0  0
  -34.7110  -20.3540   14.6980 C   0  0  0  0  0  2  0  0  0  0  0  0
  -34.2440  -21.0060   13.5180 O   0  0  0  0  0  0  0  0  0  0  0  0
  -29.2310  -24.7430   17.0180 C   0  0  0  0  0  0  0  0  0  0  0  0
  -33.4490  -22.1240   13.6420 C   0  0  0  0  0  0  0  0  0  0  0  0
  -29.8690  -25.5860   14.7790 C   0  0  0  0  0  3  0  0  0  0  0  0
  -31.9340  -24.5090   13.7410 C   0  0  0  0  0  0  0  0  0  0  0  0
  -31.5330  -24.2650   16.1970 C   0  0  0  0  0  2  0  0  0  0  0  0
  -32.1380  -23.7590   14.9060 C   0  0  0  0  0  0  0  0  0  0  0  0
  -32.8950  -22.5700   14.8640 C   0  0  0  0  0  3  0  0  0  0  0  0
  -33.2430  -22.8940   12.4780 C   0  0  0  0  0  3  0  0  0  0  0  0
  -32.4810  -24.0780   12.5200 C   0  0  0  0  0  3  0  0  0  0  0  0
  -31.1210  -25.7760   13.8800 C   0  0  0  0  0  2  0  0  0  0  0  0
  -30.1730  -24.8300   16.0370 N   0  0  0  0  0  0  0  0  0  0  0  0
  -28.1380  -25.3160   16.9080 O   0  0  0  0  0  0  0  0  0  0  0  0
  -28.7500  -24.9380   13.9330 C   0  0  0  0  0  0  0  0  0  0  0  0
  -28.5600  -25.4470   12.7040 N   0  0  0  0  0  0  0  0  0  0  0  0
  -28.0970  -23.9860   14.3680 O   0  0  0  0  0  0  0  0  0  0  0  0
  -29.1320  -26.2320   12.4250 H   0  0  0  0  0  0  0  0  0  0  0  0
  -27.8210  -25.3480    9.1700 C   0  0  0  0  0  0  0  0  0  0  0  0
  -27.5910  -24.9720   11.7180 C   0  0  0  0  0  3  0  0  0  0  0  0
  -27.7990  -23.4710   11.4130 C   0  0  0  0  0  2  0  0  0  0  0  0
  -28.7140  -23.2200   10.2110 C   0  0  0  0  0  2  0  0  0  0  0  0
  -28.1410  -23.8780    8.9520 C   0  0  0  0  0  2  0  0  0  0  0  0
  -27.5770  -25.8630   10.4710 C   0  0  0  0  0  0  0  0  0  0  0  0
  -27.3160  -27.2420   10.6240 C   0  0  0  0  0  3  0  0  0  0  0  0
  -27.2930  -28.0990    9.5080 C   0  0  0  0  0  3  0  0  0  0  0  0
  -27.5190  -27.5810    8.2210 C   0  0  0  0  0  3  0  0  0  0  0  0
  -27.7770  -26.2090    8.0530 C   0  0  0  0  0  3  0  0  0  0  0  0
  -29.4900  -23.9400   18.3320 C   0  0  0  0  0  3  0  0  0  0  0  0
  -29.1900  -24.8300   19.4610 N   0  0  0  0  0  0  0  0  0  0  0  0
  -30.1130  -25.3770   20.2640 C   0  0  0  0  0  0  0  0  0  0  0  0
  -31.3170  -25.1230   20.1710 O   0  0  0  0  0  0  0  0  0  0  0  0
  -28.2300  -25.1260   19.5620 H   0  0  0  0  0  0  0  0  0  0  0  0
  -29.9260  -27.8060   20.8880 C   0  0  0  0  0  1  0  0  0  0  0  0
  -29.6230  -26.3670   21.3370 C   0  0  0  0  0  3  0  0  0  0  0  0
  -29.7360  -24.8990   23.3010 C   0  0  0  0  0  1  0  0  0  0  0  0
  -30.2140  -26.1280   22.6710 N   0  0  0  0  0  0  0  0  0  0  0  0
  -30.0140  -26.9020   23.2980 H   0  0  0  0  0  0  0  0  0  0  0  0
  -28.6430  -22.6120   18.4280 C   0  0  1  0  0  0  0  0  0  0  0  0
  -27.1290  -22.8220   18.1980 C   0  0  0  0  0  1  0  0  0  0  0  0
  -29.1430  -21.5750   17.3950 C   0  0  0  0  0  1  0  0  0  0  0  0
  -28.8280  -21.9710   19.8250 C   0  0  0  0  0  1  0  0  0  0  0  0
  1  3  1  0
  2  1  2  0
  4  8  2  0
  4  2  1  0
  5 11  1  0
  6 12  1  0
  6  5  2  0
  7 13  1  0
  7  3  2  0
  8  7  1  0
  9 13  1  0
 10 14  1  0
 10  9  1  0
 11  9  2  0
 11 25  1  0
 12 10  2  0
 13 15  2  0
 14  8  1  0
 16 14  2  0
 17 23  1  0
 19 20  1  0
 19 18  1  0
 21 20  1  0
 21 30  1  0
 21 22  1  0
 23 18  1  0
 23 22  1  0
 24 17  2  0
 25 17  1  0
 25 26  1  0
 27 30  1  0
 27 28  2  0
 28 29  1  0
 29 32  1  0
 30 31  1  0
 31 29  2  0
 32 33  1  0
 33 34  2  0
 35 38  1  0
 35 34  1  0
 36 35  2  0
 37 36  1  0
 37 32  2  0
 38 39  1  0
 39 44  1  0
 40 39  2  0
 40 41  1  0
 41 42  2  0
 42 43  1  0
 42 46  1  0
 44 45  1  0
 44 43  2  0
 47 28  1  0
 47 48  1  0
 48 51  1  0
 48 50  1  0
 49 47  2  0
 52 27  1  0
 53 52  1  0
 54 52  1  0
 55 12  1  0
 56 55  1  0
 57 55  1  0
 57 58  1  0
 59 60  1  0
 59 58  1  0
 61 60  1  0
 62 64  1  0
 62 61  1  0
 64 69  1  0
 65 75  1  0
 65 73  1  0
 66 72  1  0
 66 68  1  0
 68 67  1  0
 69 68  2  0
 70 71  1  0
 70 64  2  0
 71 66  2  0
 72 65  1  0
 73 67  1  0
 73 63  1  0
 74 63  2  0
 75 77  2  0
 76 75  1  0
 78 76  1  0
 79 84  1  0
 80 76  1  0
 81 80  1  0
 82 81  1  0
 83 79  1  0
 83 82  1  0
 84 85  2  0
 84 80  1  0
 86 85  1  0
 87 86  2  0
 88 87  1  0
 88 79  2  0
 89 63  1  0
 89 99  1  0
 89 90  1  0
 90 93  1  0
 90 91  1  0
 91 95  1  0
 92 91  2  0
 95 94  1  0
 95 97  1  0
 97 98  1  0
 97 96  1  0
 99102  1  1
100 99  1  0
101 99  1  0
M  ISO  4  17 100  25 100  61 101  62 101
M  END
>  <TORSDO>  (54) 
F 22

>  <SCORE>  (54) 
5.514

>  <name>  (54) 
55

>  <ligand_id>  (54) 
55

>  <original_smiles>  (54) 
[H]c1c([H])c([H])c2c(c1[H])C(=O)c1c(c(N([H])C([H])([H])C([H])([H])OC([H])([H])C([H])([H])Oc3c([H])c([H])c4c(c3[H])C([H])([H])N(C(=O)C([H])(N([H])C(=O)C([H])(N([H])C([H])([H])[H])C([H])([H])[H])C(C([H])([H])[H])(C([H])([H])[H])C([H])([H])[H])C([H])(C(=O)N([H])C3([H])c5c([H])c([H])c([H])c([H])c5C([H])([H])C([H])([H])C3([H])[H])C4([H])[H])c([H])c([H])c1N([H])C(=O)N1C([H])([H])C([H])([H])C([H])([H])C([H])(n3nc(-c4c([H])c([H])c(Oc5c([H])c([H])c(F)c([H])c5F)c([H])c4[H])c(C(=O)N([H])[H])c3N([H])[H])C1([H])[H])C2=O

>  <smiles>  (54) 
[H]c1c([H])c([H])c2c(c1[H])C(=O)c1c(c(N([H])C([H])([H])C([H])([H])OC([H])([H])C([H])([H])Oc3c([H])c([H])c4c(c3[H])C([H])([H])N(C(=O)C([H])(N([H])C(=O)C([H])(N([H])C([H])([H])[H])C([H])([H])[H])C(C([H])([H])[H])(C([H])([H])[H])C([H])([H])[H])C([H])(C(=O)N([H])C3([H])c5c([H])c([H])c([H])c([H])c5C([H])([H])C([H])([H])C3([H])[H])C4([H])[H])c([H])c([H])c1N([H])C(=O)N1C([H])([H])C([H])([H])C([H])([H])C([H])(n3nc(-c4c([H])c([H])c(Oc5c([H])c([H])c(F)c([H])c5F)c([H])c4[H])c(C(=O)N([H])[H])c3N([H])[H])C1([H])[H])C2=O

$$$$
56:0:0
     RDKit          3D

 95102  0  0  1  0  0  0  0  0999 V2000
  -32.3580  -21.0690   20.4260 C   0  0  0  0  0  2  0  0  0  0  0  0
  -31.3050  -20.2090   21.1550 C   0  0  0  0  0  2  0  0  0  0  0  0
  -30.4270  -17.9400   20.6320 C   0  0  0  0  0  0  0  0  0  0  0  0
  -31.4410  -18.8030   20.7780 N   0  0  0  0  0  0  0  0  0  0  0  0
  -29.2710  -18.2090   20.9600 O   0  0  0  0  0  0  0  0  0  0  0  0
  -32.3660  -18.4970   20.5060 H   0  0  0  0  0  0  0  0  0  0  0  0
  -30.7360  -16.6080   19.9410 C   0  0  0  0  0  3  0  0  0  0  0  0
  -29.9520  -16.5650   18.6920 N   0  0  0  0  0  4  0  0  0  0  0  0
  -28.9750  -16.6820   18.8990 H   0  0  0  0  0  0  0  0  0  0  0  0
  -30.1080  -15.7310   18.1590 H   0  0  0  0  0  0  0  0  0  0  0  0
  -30.2220  -17.3500   18.1250 H   0  0  0  0  0  0  0  0  0  0  0  0
  -30.4740  -15.3750   20.8670 C   0  0  0  0  0  2  0  0  0  0  0  0
  -31.0590  -14.0760   20.2750 C   0  0  0  0  0  0  0  0  0  0  0  0
  -30.6180  -11.9160   19.1790 C   0  0  0  0  0  2  0  0  0  0  0  0
  -29.6580  -12.1420   17.9930 C   0  0  0  0  0  2  0  0  0  0  0  0
  -28.1900  -12.0910   18.4590 C   0  0  0  0  0  2  0  0  0  0  0  0
  -27.9220  -12.9640   19.7170 C   0  0  0  0  0  3  0  0  0  0  0  0
  -28.9980  -12.7130   20.7980 C   0  0  0  0  0  2  0  0  0  0  0  0
  -30.3180  -12.9380   20.1930 N   0  0  0  0  0  0  0  0  0  0  0  0
  -32.1760  -14.1580   19.7610 O   0  0  0  0  0  0  0  0  0  0  0  0
  -25.5880  -13.6930   20.5200 C   0  0  0  0  0  0  0  0  0  0  0  0
  -24.4890  -12.9750   20.9080 C   0  0  0  0  0  0  0  0  0  0  0  0
  -24.8690  -11.6000   20.8330 C   0  0  0  0  0  0  0  0  0  0  0  0
  -26.5710  -12.7590   20.2350 N   0  0  0  0  0  0  0  0  0  0  0  0
  -26.1440  -11.4940   20.4810 N   0  0  0  0  0  0  0  0  0  0  0  0
  -24.0790  -10.3770   21.0190 C   0  0  0  0  0  0  0  0  0  0  0  0
  -24.4610   -9.3870   21.9500 C   0  0  0  0  0  3  0  0  0  0  0  0
  -23.6750   -8.2280   22.1260 C   0  0  0  0  0  3  0  0  0  0  0  0
  -22.4910   -8.0520   21.3710 C   0  0  0  0  0  0  0  0  0  0  0  0
  -22.1270   -9.0300   20.4290 C   0  0  0  0  0  3  0  0  0  0  0  0
  -22.9140  -10.1810   20.2510 C   0  0  0  0  0  3  0  0  0  0  0  0
  -21.6810   -6.9470   21.4560 O   0  0  0  0  0  0  0  0  0  0  0  0
  -21.5710   -6.2220   22.6150 C   0  0  0  0  0  0  0  0  0  0  0  0
  -21.1050   -6.8000   23.8150 C   0  0  0  0  0  3  0  0  0  0  0  0
  -20.9420   -6.0020   24.9660 C   0  0  0  0  0  3  0  0  0  0  0  0
  -21.2360   -4.6260   24.9150 C   0  0  0  0  0  0  0  0  0  0  0  0
  -21.6930   -4.0470   23.7190 C   0  0  0  0  0  3  0  0  0  0  0  0
  -21.8580   -4.8430   22.5720 C   0  0  0  0  0  0  0  0  0  0  0  0
  -22.2800   -4.2760   21.4160 F   0  0  0  0  0  0  0  0  0  0  0  0
  -21.0720   -3.8570   26.0170 F   0  0  0  0  0  0  0  0  0  0  0  0
  -23.1300  -13.5250   21.2370 C   0  0  0  0  0  0  0  0  0  0  0  0
  -22.3940  -12.8540   22.1140 N   0  0  0  0  0  0  0  0  0  0  0  0
  -22.7350  -14.5840   20.7510 O   0  0  0  0  0  0  0  0  0  0  0  0
  -22.7270  -11.9970   22.5300 H   0  0  0  0  0  0  0  0  0  0  0  0
  -21.4820  -13.2020   22.3730 H   0  0  0  0  0  0  0  0  0  0  0  0
  -25.8220  -15.0550   20.3640 N   0  0  0  0  0  0  0  0  0  0  0  0
  -25.0930  -15.7440   20.5150 H   0  0  0  0  0  0  0  0  0  0  0  0
  -26.6790  -15.4570   20.0160 H   0  0  0  0  0  0  0  0  0  0  0  0
  -31.8940  -22.3800   20.1230 O   0  0  0  0  0  0  0  0  0  0  0  0
  -31.6420  -23.2350   21.2350 C   0  0  0  0  0  2  0  0  0  0  0  0
  -30.1310  -23.4730   21.3780 C   0  0  0  0  0  2  0  0  0  0  0  0
  -29.6410  -24.1540   20.2250 O   0  0  0  0  0  0  0  0  0  0  0  0
  -28.2470  -24.4280   20.3140 C   0  0  0  0  0  2  0  0  0  0  0  0
  -27.7390  -25.1170   19.0390 C   0  0  0  0  0  2  0  0  0  0  0  0
  -27.8860  -26.5390   19.1450 O   0  0  0  0  0  0  0  0  0  0  0  0
  -24.5390  -31.5070   22.9640 C   0  0  0  0  0  0  0  0  0  0  0  0
  -26.7420  -27.2940   19.2840 C   0  0  0  0  0  0  0  0  0  0  0  0
  -23.1590  -30.3480   21.2700 C   0  0  0  0  0  3  0  0  0  0  0  0
  -24.4350  -28.8980   19.6090 C   0  0  0  0  0  0  0  0  0  0  0  0
  -25.6860  -30.5980   20.9490 C   0  0  0  0  0  2  0  0  0  0  0  0
  -25.6540  -29.3000   20.1690 C   0  0  0  0  0  0  0  0  0  0  0  0
  -26.8080  -28.5050   20.0060 C   0  0  0  0  0  3  0  0  0  0  0  0
  -25.5080  -26.9160   18.7020 C   0  0  0  0  0  3  0  0  0  0  0  0
  -24.3570  -27.7040   18.8750 C   0  0  0  0  0  3  0  0  0  0  0  0
  -23.2470  -29.8080   19.8190 C   0  0  0  0  0  2  0  0  0  0  0  0
  -24.4830  -30.8250   21.7860 N   0  0  0  0  0  0  0  0  0  0  0  0
  -23.5090  -31.7760   23.5980 O   0  0  0  0  0  0  0  0  0  0  0  0
  -22.5110  -29.2640   22.1620 C   0  0  0  0  0  0  0  0  0  0  0  0
  -21.1730  -29.1630   22.1030 N   0  0  0  0  0  0  0  0  0  0  0  0
  -23.2050  -28.5230   22.8610 O   0  0  0  0  0  0  0  0  0  0  0  0
  -20.6760  -29.8150   21.5110 H   0  0  0  0  0  0  0  0  0  0  0  0
  -17.7720  -28.0970   22.6890 C   0  0  0  0  0  0  0  0  0  0  0  0
  -20.3520  -28.1930   22.8250 C   0  0  0  0  0  3  0  0  0  0  0  0
  -20.3390  -26.8260   22.1040 C   0  0  0  0  0  2  0  0  0  0  0  0
  -19.1640  -26.6670   21.1340 C   0  0  0  0  0  2  0  0  0  0  0  0
  -17.8320  -26.8160   21.8740 C   0  0  0  0  0  2  0  0  0  0  0  0
  -18.9560  -28.7510   23.1230 C   0  0  0  0  0  0  0  0  0  0  0  0
  -18.8450  -29.9570   23.8480 C   0  0  0  0  0  3  0  0  0  0  0  0
  -17.5840  -30.5070   24.1420 C   0  0  0  0  0  3  0  0  0  0  0  0
  -16.4150  -29.8480   23.7240 C   0  0  0  0  0  3  0  0  0  0  0  0
  -16.5110  -28.6440   23.0050 C   0  0  0  0  0  3  0  0  0  0  0  0
  -25.8940  -32.0030   23.5580 C   0  0  0  0  0  3  0  0  0  0  0  0
  -25.6900  -33.3760   24.0410 N   0  0  0  0  0  0  0  0  0  0  0  0
  -26.0450  -34.4780   23.3680 C   0  0  0  0  0  0  0  0  0  0  0  0
  -26.6530  -34.4400   22.2940 O   0  0  0  0  0  0  0  0  0  0  0  0
  -25.1470  -33.4820   24.8840 H   0  0  0  0  0  0  0  0  0  0  0  0
  -24.4140  -36.3890   23.2800 C   0  0  0  0  0  1  0  0  0  0  0  0
  -25.6650  -35.8370   23.9830 C   0  0  0  0  0  3  0  0  0  0  0  0
  -27.8820  -36.5160   24.7890 C   0  0  0  0  0  1  0  0  0  0  0  0
  -26.7540  -36.8360   23.9180 N   0  0  0  0  0  0  0  0  0  0  0  0
  -26.4120  -37.7600   24.1700 H   0  0  0  0  0  0  0  0  0  0  0  0
  -26.4420  -31.0800   24.7160 C   0  0  1  0  0  0  0  0  0  0  0  0
  -25.4070  -30.8050   25.8310 C   0  0  0  0  0  1  0  0  0  0  0  0
  -26.9060  -29.7170   24.1530 C   0  0  0  0  0  1  0  0  0  0  0  0
  -27.6830  -31.7360   25.3650 C   0  0  0  0  0  1  0  0  0  0  0  0
  1  2  1  0
  3  4  1  0
  3  5  2  0
  4  2  1  0
  6  4  1  0
  7  3  1  0
  7 12  1  0
  8  9  1  0
  8  7  1  0
 10  8  1  0
 11  8  1  0
 13 12  1  0
 14 19  1  0
 15 16  1  0
 15 14  1  0
 17 16  1  0
 17 24  1  0
 17 18  1  0
 19 13  1  0
 19 18  1  0
 20 13  2  0
 21 22  2  0
 22 41  1  0
 23 22  1  0
 23 26  1  0
 24 25  1  0
 24 21  1  0
 25 23  2  0
 26 27  1  0
 27 28  2  0
 29 32  1  0
 29 28  1  0
 30 29  2  0
 31 30  1  0
 31 26  2  0
 32 33  1  0
 33 34  1  0
 34 35  2  0
 36 35  1  0
 36 40  1  0
 37 36  2  0
 38 33  2  0
 38 37  1  0
 39 38  1  0
 41 42  1  0
 42 45  1  0
 42 44  1  0
 43 41  2  0
 46 47  1  0
 46 21  1  0
 48 46  1  0
 49  1  1  0
 49 50  1  0
 50 51  1  0
 52 53  1  0
 52 51  1  0
 54 55  1  0
 54 53  1  0
 55 57  1  0
 56 67  2  0
 57 62  1  0
 58 66  1  0
 58 68  1  0
 59 65  1  0
 59 61  1  0
 60 66  1  0
 61 60  1  0
 62 61  2  0
 63 64  1  0
 63 57  2  0
 64 59  2  0
 65 58  1  0
 66 56  1  0
 68 70  2  0
 69 68  1  0
 71 69  1  0
 72 81  2  0
 72 77  1  0
 73 69  1  0
 73 77  1  0
 74 73  1  0
 75 76  1  0
 75 74  1  0
 76 72  1  0
 77 78  2  0
 78 79  1  0
 80 79  2  0
 81 80  1  0
 82 56  1  0
 82 83  1  0
 82 92  1  0
 83 86  1  0
 84 88  1  0
 84 83  1  0
 85 84  2  0
 88 87  1  0
 90 88  1  0
 90 91  1  0
 90 89  1  0
 92 95  1  1
 92 93  1  0
 94 92  1  0
M  ISO  4  12 100  13 100  54 101  55 101
M  END
>  <TORSDO>  (55) 
F 27

>  <SCORE>  (55) 
-10.722

>  <name>  (55) 
56

>  <ligand_id>  (55) 
56

>  <original_smiles>  (55) 
[H]c1c([H])c([H])c2c(c1[H])C([H])([H])C([H])([H])C([H])([H])C2([H])N([H])C(=O)C1([H])N(C(=O)C([H])(N([H])C(=O)C([H])(N([H])C([H])([H])[H])C([H])([H])[H])C(C([H])([H])[H])(C([H])([H])[H])C([H])([H])[H])C([H])([H])c2c([H])c(OC([H])([H])C([H])([H])OC([H])([H])C([H])([H])OC([H])([H])C([H])([H])N([H])C(=O)C([H])(C([H])([H])C(=O)N3C([H])([H])C([H])([H])C([H])([H])C([H])(n4nc(-c5c([H])c([H])c(Oc6c([H])c([H])c(F)c([H])c6F)c([H])c5[H])c(C(=O)N([H])[H])c4N([H])[H])C3([H])[H])[N+]([H])([H])[H])c([H])c([H])c2C1([H])[H]

>  <smiles>  (55) 
[H]c1c([H])c([H])c2c(c1[H])C([H])([H])C([H])([H])C([H])([H])C2([H])N([H])C(=O)C1([H])N(C(=O)C([H])(N([H])C(=O)C([H])(N([H])C([H])([H])[H])C([H])([H])[H])C(C([H])([H])[H])(C([H])([H])[H])C([H])([H])[H])C([H])([H])c2c([H])c(OC([H])([H])C([H])([H])OC([H])([H])C([H])([H])OC([H])([H])C([H])([H])N([H])C(=O)C([H])(C([H])([H])C(=O)N3C([H])([H])C([H])([H])C([H])([H])C([H])(n4nc(-c5c([H])c([H])c(Oc6c([H])c([H])c(F)c([H])c6F)c([H])c5[H])c(C(=O)N([H])[H])c4N([H])[H])C3([H])[H])[N+]([H])([H])[H])c([H])c([H])c2C1([H])[H]

$$$$
57:0:0
     RDKit          3D

 98106  0  0  1  0  0  0  0  0999 V2000
  -31.9180  -18.5750   22.3010 C   0  0  0  0  0  2  0  0  0  0  0  0
  -32.8750  -16.6640   20.8490 C   0  0  0  0  0  0  0  0  0  0  0  0
  -32.9450  -17.7040   21.7040 N   0  0  0  0  0  0  0  0  0  0  0  0
  -33.8230  -15.8800   20.8160 O   0  0  0  0  0  0  0  0  0  0  0  0
  -33.8330  -17.7600   22.1830 H   0  0  0  0  0  0  0  0  0  0  0  0
  -31.6740  -16.4590   19.8810 C   0  0  0  0  0  3  0  0  0  0  0  0
  -31.2510  -14.2660   18.6830 C   0  0  0  0  0  0  0  0  0  0  0  0
  -30.6070  -12.0210   17.8880 C   0  0  0  0  0  2  0  0  0  0  0  0
  -29.3580  -12.0770   16.9880 C   0  0  0  0  0  2  0  0  0  0  0  0
  -28.0690  -12.0320   17.8280 C   0  0  0  0  0  2  0  0  0  0  0  0
  -28.0840  -13.0530   18.9940 C   0  0  0  0  0  3  0  0  0  0  0  0
  -29.4070  -12.9500   19.7900 C   0  0  0  0  0  2  0  0  0  0  0  0
  -30.5430  -13.1200   18.8590 N   0  0  0  0  0  0  0  0  0  0  0  0
  -31.9040  -14.5220   17.6680 O   0  0  0  0  0  0  0  0  0  0  0  0
  -31.2310  -15.0720   19.7430 N   0  0  0  0  0  0  0  0  0  0  0  0
  -30.8470  -14.6930   20.5970 H   0  0  0  0  0  0  0  0  0  0  0  0
  -26.2070  -13.8410   20.5780 C   0  0  0  0  0  0  0  0  0  0  0  0
  -25.1620  -13.1750   21.1620 C   0  0  0  0  0  0  0  0  0  0  0  0
  -25.2790  -11.8140   20.7420 C   0  0  0  0  0  0  0  0  0  0  0  0
  -26.9130  -12.8890   19.8560 N   0  0  0  0  0  0  0  0  0  0  0  0
  -26.3680  -11.6530   20.0010 N   0  0  0  0  0  0  0  0  0  0  0  0
  -24.3870  -10.6680   20.9590 C   0  0  0  0  0  0  0  0  0  0  0  0
  -24.8170   -9.5210   21.6620 C   0  0  0  0  0  3  0  0  0  0  0  0
  -23.9370   -8.4380   21.8730 C   0  0  0  0  0  3  0  0  0  0  0  0
  -22.6100   -8.4960   21.3830 C   0  0  0  0  0  0  0  0  0  0  0  0
  -22.1940   -9.6300   20.6630 C   0  0  0  0  0  3  0  0  0  0  0  0
  -23.0740  -10.7050   20.4490 C   0  0  0  0  0  3  0  0  0  0  0  0
  -21.6940   -7.4810   21.5180 O   0  0  0  0  0  0  0  0  0  0  0  0
  -21.6380   -6.7060   22.6490 C   0  0  0  0  0  0  0  0  0  0  0  0
  -21.4840   -7.2710   23.9320 C   0  0  0  0  0  3  0  0  0  0  0  0
  -21.3610   -6.4360   25.0600 C   0  0  0  0  0  3  0  0  0  0  0  0
  -21.3840   -5.0370   24.9060 C   0  0  0  0  0  0  0  0  0  0  0  0
  -21.5320   -4.4720   23.6270 C   0  0  0  0  0  3  0  0  0  0  0  0
  -21.6560   -5.3040   22.5030 C   0  0  0  0  0  0  0  0  0  0  0  0
  -21.7770   -4.7540   21.2710 F   0  0  0  0  0  0  0  0  0  0  0  0
  -21.2580   -4.2340   25.9880 F   0  0  0  0  0  0  0  0  0  0  0  0
  -24.0610  -13.7800   21.9850 C   0  0  0  0  0  0  0  0  0  0  0  0
  -23.5420  -13.0370   22.9570 N   0  0  0  0  0  0  0  0  0  0  0  0
  -23.6870  -14.9380   21.8020 O   0  0  0  0  0  0  0  0  0  0  0  0
  -23.8640  -12.0950   23.1220 H   0  0  0  0  0  0  0  0  0  0  0  0
  -22.8140  -13.4170   23.5440 H   0  0  0  0  0  0  0  0  0  0  0  0
  -26.6070  -15.1740   20.5880 N   0  0  0  0  0  0  0  0  0  0  0  0
  -26.0780  -15.8970   21.0640 H   0  0  0  0  0  0  0  0  0  0  0  0
  -27.3980  -15.5380   20.0700 H   0  0  0  0  0  0  0  0  0  0  0  0
  -30.3570  -18.6410   19.6530 C   0  0  0  0  0  2  0  0  0  0  0  0
  -30.3970  -17.2410   20.2950 C   0  0  0  0  0  3  0  0  0  0  0  0
  -29.2610  -16.4800   19.8770 O   0  0  0  0  0  0  0  0  0  0  0  0
  -27.9980  -17.0790   20.1300 C   0  0  0  0  0  2  0  0  0  0  0  0
  -26.9520  -16.3510   19.2840 C   0  0  0  0  0  2  0  0  0  0  0  0
  -27.1910  -16.5300   17.9830 F   0  0  0  0  0  0  0  0  0  0  0  0
  -30.9340  -19.3030   21.3600 C   0  0  0  0  0  3  0  0  0  0  0  0
  -31.3950  -20.5820   20.9270 O   0  0  0  0  0  0  0  0  0  0  0  0
  -30.3020  -21.3530   20.4230 C   0  0  0  0  0  2  0  0  0  0  0  0
  -30.7110  -22.5760   19.5880 C   0  0  0  0  0  2  0  0  0  0  0  0
  -29.5040  -23.2810   19.3010 O   0  0  0  0  0  0  0  0  0  0  0  0
  -29.6700  -24.5810   18.7430 C   0  0  0  0  0  2  0  0  0  0  0  0
  -28.2820  -25.2400   18.5940 C   0  0  0  0  0  2  0  0  0  0  0  0
  -28.2890  -26.5970   19.0460 O   0  0  0  0  0  0  0  0  0  0  0  0
  -24.5640  -31.1200   23.0830 C   0  0  0  0  0  0  0  0  0  0  0  0
  -27.0730  -27.2290   19.2340 C   0  0  0  0  0  0  0  0  0  0  0  0
  -23.2640  -29.8960   21.3710 C   0  0  0  0  0  3  0  0  0  0  0  0
  -24.6370  -28.6120   19.6510 C   0  0  0  0  0  0  0  0  0  0  0  0
  -25.7550  -30.3790   21.0220 C   0  0  0  0  0  2  0  0  0  0  0  0
  -25.8240  -29.1080   20.2000 C   0  0  0  0  0  0  0  0  0  0  0  0
  -27.0430  -28.4240   19.9890 C   0  0  0  0  0  3  0  0  0  0  0  0
  -25.8590  -26.7400   18.6950 C   0  0  0  0  0  3  0  0  0  0  0  0
  -24.6470  -27.4250   18.9010 C   0  0  0  0  0  3  0  0  0  0  0  0
  -23.3760  -29.4060   19.9020 C   0  0  0  0  0  2  0  0  0  0  0  0
  -24.5500  -30.4730   21.8820 N   0  0  0  0  0  0  0  0  0  0  0  0
  -23.5260  -31.2770   23.7390 O   0  0  0  0  0  0  0  0  0  0  0  0
  -22.7250  -28.7330   22.2370 C   0  0  0  0  0  0  0  0  0  0  0  0
  -21.4160  -28.4580   22.1260 N   0  0  0  0  0  0  0  0  0  0  0  0
  -23.4820  -28.0860   22.9670 O   0  0  0  0  0  0  0  0  0  0  0  0
  -20.8600  -29.0460   21.5190 H   0  0  0  0  0  0  0  0  0  0  0  0
  -18.1790  -26.8960   22.4990 C   0  0  0  0  0  0  0  0  0  0  0  0
  -20.6990  -27.3840   22.8150 C   0  0  0  0  0  3  0  0  0  0  0  0
  -20.9420  -26.0200   22.1290 C   0  0  0  0  0  2  0  0  0  0  0  0
  -19.8790  -25.6700   21.0830 C   0  0  0  0  0  2  0  0  0  0  0  0
  -18.4880  -25.6260   21.7250 C   0  0  0  0  0  2  0  0  0  0  0  0
  -19.2160  -27.7290   22.9970 C   0  0  0  0  0  0  0  0  0  0  0  0
  -18.8740  -28.9160   23.6800 C   0  0  0  0  0  3  0  0  0  0  0  0
  -17.5250  -29.2740   23.8720 C   0  0  0  0  0  3  0  0  0  0  0  0
  -16.5020  -28.4350   23.3960 C   0  0  0  0  0  3  0  0  0  0  0  0
  -16.8300  -27.2500   22.7110 C   0  0  0  0  0  3  0  0  0  0  0  0
  -25.8810  -31.7140   23.6740 C   0  0  0  0  0  3  0  0  0  0  0  0
  -25.6200  -33.1180   24.0150 N   0  0  0  0  0  0  0  0  0  0  0  0
  -26.0100  -34.1660   23.2800 C   0  0  0  0  0  0  0  0  0  0  0  0
  -26.7020  -34.0510   22.2650 O   0  0  0  0  0  0  0  0  0  0  0  0
  -25.0090  -33.2840   24.8010 H   0  0  0  0  0  0  0  0  0  0  0  0
  -24.3880  -36.0450   22.8750 C   0  0  0  0  0  1  0  0  0  0  0  0
  -25.5610  -35.5660   23.7440 C   0  0  0  0  0  3  0  0  0  0  0  0
  -27.6900  -36.3230   24.7020 C   0  0  0  0  0  1  0  0  0  0  0  0
  -26.6440  -36.5700   23.7120 N   0  0  0  0  0  0  0  0  0  0  0  0
  -26.2760  -37.5040   23.8670 H   0  0  0  0  0  0  0  0  0  0  0  0
  -26.4100  -30.9250   24.9340 C   0  0  1  0  0  0  0  0  0  0  0  0
  -25.3310  -30.6870   26.0160 C   0  0  0  0  0  1  0  0  0  0  0  0
  -26.9770  -29.5480   24.5150 C   0  0  0  0  0  1  0  0  0  0  0  0
  -27.5730  -31.7030   25.5910 C   0  0  0  0  0  1  0  0  0  0  0  0
  2  3  1  0
  3  5  1  0
  3  1  1  0
  4  2  2  0
  6 15  1  0
  6 46  1  0
  6  2  1  0
  7 13  1  0
  7 15  1  0
  8 13  1  0
  9 10  1  0
  9  8  1  0
 11 10  1  0
 11 12  1  0
 11 20  1  0
 13 12  1  0
 14  7  2  0
 15 16  1  0
 17 42  1  0
 17 18  2  0
 18 37  1  0
 19 22  1  0
 19 18  1  0
 20 21  1  0
 20 17  1  0
 21 19  2  0
 22 23  1  0
 23 24  2  0
 25 28  1  0
 25 24  1  0
 26 25  2  0
 27 26  1  0
 27 22  2  0
 28 29  1  0
 29 30  1  0
 30 31  2  0
 32 31  1  0
 32 36  1  0
 33 32  2  0
 34 29  2  0
 34 33  1  0
 35 34  1  0
 37 38  1  0
 38 40  1  0
 38 41  1  0
 39 37  2  0
 42 43  1  0
 44 42  1  0
 45 46  1  0
 45 51  1  0
 46 47  1  0
 47 48  1  0
 49 48  1  0
 50 49  1  0
 51 52  1  0
 51  1  1  0
 53 52  1  0
 54 53  1  0
 55 54  1  0
 56 55  1  0
 57 56  1  0
 57 58  1  0
 58 60  1  0
 59 70  2  0
 60 65  1  0
 61 69  1  0
 61 71  1  0
 62 68  1  0
 62 64  1  0
 63 69  1  0
 64 63  1  0
 65 64  2  0
 66 67  1  0
 66 60  2  0
 67 62  2  0
 68 61  1  0
 69 59  1  0
 71 73  2  0
 72 71  1  0
 74 72  1  0
 75 84  2  0
 75 80  1  0
 76 72  1  0
 76 80  1  0
 77 76  1  0
 78 79  1  0
 78 77  1  0
 79 75  1  0
 80 81  2  0
 81 82  1  0
 83 82  2  0
 84 83  1  0
 85 59  1  0
 85 86  1  0
 85 95  1  0
 86 89  1  0
 87 91  1  0
 87 86  1  0
 88 87  2  0
 91 90  1  0
 93 91  1  0
 93 94  1  0
 93 92  1  0
 95 98  1  1
 95 96  1  0
 97 95  1  0
M  ISO  4   7 100  15 100  57 101  58 101
M  END
>  <TORSDO>  (56) 
F 29

>  <SCORE>  (56) 
-3.583

>  <name>  (56) 
57

>  <ligand_id>  (56) 
57

>  <original_smiles>  (56) 
[H]c1c([H])c([H])c2c(c1[H])C([H])([H])C([H])([H])C([H])([H])C2([H])N([H])C(=O)C1([H])N(C(=O)C([H])(N([H])C(=O)C([H])(N([H])C([H])([H])[H])C([H])([H])[H])C(C([H])([H])[H])(C([H])([H])[H])C([H])([H])[H])C([H])([H])c2c([H])c(OC([H])([H])C([H])([H])OC([H])([H])C([H])([H])OC([H])([H])C([H])([H])N([H])C(=O)C([H])(N([H])C(=O)N3C([H])([H])C([H])([H])C([H])([H])C([H])(n4nc(-c5c([H])c([H])c(Oc6c([H])c([H])c(F)c([H])c6F)c([H])c5[H])c(C(=O)N([H])[H])c4N([H])[H])C3([H])[H])C([H])(OC([H])([H])C([H])([H])F)C([H])([H])[H])c([H])c([H])c2C1([H])[H]

>  <smiles>  (56) 
[H]c1c([H])c([H])c2c(c1[H])C([H])([H])C([H])([H])C([H])([H])C2([H])N([H])C(=O)C1([H])N(C(=O)C([H])(N([H])C(=O)C([H])(N([H])C([H])([H])[H])C([H])([H])[H])C(C([H])([H])[H])(C([H])([H])[H])C([H])([H])[H])C([H])([H])c2c([H])c(OC([H])([H])C([H])([H])OC([H])([H])C([H])([H])OC([H])([H])C([H])([H])N([H])C(=O)C([H])(N([H])C(=O)N3C([H])([H])C([H])([H])C([H])([H])C([H])(n4nc(-c5c([H])c([H])c(Oc6c([H])c([H])c(F)c([H])c6F)c([H])c5[H])c(C(=O)N([H])[H])c4N([H])[H])C3([H])[H])C([H])(OC([H])([H])C([H])([H])F)C([H])([H])[H])c([H])c([H])c2C1([H])[H]

$$$$
58:0:0
     RDKit          3D

101108  0  0  1  0  0  0  0  0999 V2000
  -24.9490  -18.5870   19.9950 C   0  0  0  0  0  1  0  0  0  0  0  0
  -26.1100  -18.5990   18.9780 C   0  0  0  0  0  3  0  0  0  0  0  0
  -25.8520  -17.7460   17.7100 C   0  0  0  0  0  0  0  0  0  0  0  0
  -25.6160  -16.4220   17.8490 N   0  0  0  0  0  0  0  0  0  0  0  0
  -25.8250  -18.3010   16.6070 O   0  0  0  0  0  0  0  0  0  0  0  0
  -25.6150  -16.0570   18.8040 H   0  0  0  0  0  0  0  0  0  0  0  0
  -24.9590  -15.5700   16.8290 C   0  0  0  0  0  2  0  0  0  0  0  0
  -25.6620  -14.2590   16.3770 C   0  0  0  0  0  2  0  0  0  0  0  0
  -25.3560  -13.0360   17.0730 O   0  0  0  0  0  0  0  0  0  0  0  0
  -25.8470  -11.8770   16.3440 C   0  0  0  0  0  2  0  0  0  0  0  0
  -26.1310  -10.5550   17.1600 C   0  0  0  0  0  2  0  0  0  0  0  0
  -26.7990  -10.7080   18.4360 O   0  0  0  0  0  0  0  0  0  0  0  0
  -28.0640  -10.0930   18.7730 C   0  0  0  0  0  2  0  0  0  0  0  0
  -28.7240  -10.5140   20.1710 C   0  0  0  0  0  2  0  0  0  0  0  0
  -30.0930  -13.2690   20.1980 C   0  0  2  0  0  0  0  0  0  0  0  0
  -31.0630  -12.5610   19.0290 C   0  0  0  0  0  2  0  0  0  0  0  0
  -29.7080  -12.6640   17.9010 C   0  0  0  0  0  3  0  0  0  0  0  0
  -28.1730  -13.1120   18.4540 C   0  0  0  0  0  3  0  0  0  0  0  0
  -27.6950  -13.4430   20.0480 C   0  0  0  0  0  3  0  0  0  0  0  0
  -28.9280  -13.4630   21.3280 C   0  0  0  0  0  2  0  0  0  0  0  0
  -30.5560  -12.7300   20.8090 N   0  0  0  0  0  2  0  0  0  0  0  0
  -30.8890  -14.3360   20.3960 O   0  0  0  0  0  1  0  0  0  0  0  0
  -29.7220  -11.6360   20.4510 N   0  0  0  0  0  0  0  0  0  0  0  0
  -30.4330  -11.3190   21.0960 H   0  0  0  0  0  0  0  0  0  0  0  0
  -25.2250  -13.8580   20.6040 C   0  0  0  0  0  0  0  0  0  0  0  0
  -24.1600  -13.0560   20.9140 C   0  0  0  0  0  0  0  0  0  0  0  0
  -24.6470  -11.7150   20.8970 C   0  0  0  0  0  0  0  0  0  0  0  0
  -26.3220  -13.0310   20.4350 N   0  0  0  0  0  0  0  0  0  0  0  0
  -25.9650  -11.7420   20.7160 N   0  0  0  0  0  0  0  0  0  0  0  0
  -23.9220  -10.4290   21.0430 C   0  0  0  0  0  0  0  0  0  0  0  0
  -24.3850   -9.3980   21.8930 C   0  0  0  0  0  3  0  0  0  0  0  0
  -23.6530   -8.1980   22.0430 C   0  0  0  0  0  3  0  0  0  0  0  0
  -22.4330   -8.0160   21.3460 C   0  0  0  0  0  0  0  0  0  0  0  0
  -21.9830   -9.0320   20.4820 C   0  0  0  0  0  3  0  0  0  0  0  0
  -22.7210  -10.2200   20.3290 C   0  0  0  0  0  3  0  0  0  0  0  0
  -21.6640   -6.8740   21.4160 O   0  0  0  0  0  0  0  0  0  0  0  0
  -21.6820   -6.0630   22.5230 C   0  0  0  0  0  0  0  0  0  0  0  0
  -21.4030   -6.5580   23.8170 C   0  0  0  0  0  3  0  0  0  0  0  0
  -21.3750   -5.6810   24.9180 C   0  0  0  0  0  3  0  0  0  0  0  0
  -21.6070   -4.3040   24.7300 C   0  0  0  0  0  0  0  0  0  0  0  0
  -21.8740   -3.8070   23.4420 C   0  0  0  0  0  3  0  0  0  0  0  0
  -21.9090   -4.6850   22.3420 C   0  0  0  0  0  0  0  0  0  0  0  0
  -22.1570   -4.1990   21.1040 F   0  0  0  0  0  0  0  0  0  0  0  0
  -21.5690   -3.4550   25.7840 F   0  0  0  0  0  0  0  0  0  0  0  0
  -22.7580  -13.5210   21.1600 C   0  0  0  0  0  0  0  0  0  0  0  0
  -22.0340  -12.8370   22.0420 N   0  0  0  0  0  0  0  0  0  0  0  0
  -22.3260  -14.5370   20.6190 O   0  0  0  0  0  0  0  0  0  0  0  0
  -22.4420  -12.0710   22.5520 H   0  0  0  0  0  0  0  0  0  0  0  0
  -21.0750  -13.0850   22.2360 H   0  0  0  0  0  0  0  0  0  0  0  0
  -25.3520  -15.2350   20.4820 N   0  0  0  0  0  0  0  0  0  0  0  0
  -24.5360  -15.7650   20.7710 H   0  0  0  0  0  0  0  0  0  0  0  0
  -26.1970  -15.6750   20.8310 H   0  0  0  0  0  0  0  0  0  0  0  0
  -27.3050  -20.7700   19.2700 C   0  0  0  0  0  0  0  0  0  0  0  0
  -26.3720  -20.0120   18.6670 N   0  0  0  0  0  0  0  0  0  0  0  0
  -28.3090  -20.2840   19.7990 O   0  0  0  0  0  0  0  0  0  0  0  0
  -25.6760  -20.4640   18.0790 H   0  0  0  0  0  0  0  0  0  0  0  0
  -27.0310  -22.2820   19.3880 C   0  0  0  0  0  2  0  0  0  0  0  0
  -28.2500  -23.0000   19.5930 O   0  0  0  0  0  0  0  0  0  0  0  0
  -28.0980  -24.2460   20.2860 C   0  0  0  0  0  2  0  0  0  0  0  0
  -28.5480  -25.4520   19.4250 C   0  0  0  0  0  2  0  0  0  0  0  0
  -28.4160  -26.7190   20.0930 O   0  0  0  0  0  0  0  0  0  0  0  0
  -24.6060  -31.8700   23.2120 C   0  0  0  0  0  0  0  0  0  0  0  0
  -27.2190  -27.4150   20.0770 C   0  0  0  0  0  0  0  0  0  0  0  0
  -23.3900  -30.4900   21.5540 C   0  0  0  0  0  3  0  0  0  0  0  0
  -24.8290  -28.9570   20.1020 C   0  0  0  0  0  0  0  0  0  0  0  0
  -25.9130  -30.8310   21.3510 C   0  0  0  0  0  2  0  0  0  0  0  0
  -25.9890  -29.4580   20.7070 C   0  0  0  0  0  0  0  0  0  0  0  0
  -27.1770  -28.6880   20.7000 C   0  0  0  0  0  3  0  0  0  0  0  0
  -26.0320  -26.9290   19.4730 C   0  0  0  0  0  3  0  0  0  0  0  0
  -24.8530  -27.7010   19.4720 C   0  0  0  0  0  3  0  0  0  0  0  0
  -23.5780  -29.8110   20.1690 C   0  0  0  0  0  2  0  0  0  0  0  0
  -24.6570  -31.0730   22.1030 N   0  0  0  0  0  0  0  0  0  0  0  0
  -23.5260  -32.1500   23.7510 O   0  0  0  0  0  0  0  0  0  0  0  0
  -22.7360  -29.4680   22.5110 C   0  0  0  0  0  0  0  0  0  0  0  0
  -21.4090  -29.3030   22.3830 N   0  0  0  0  0  0  0  0  0  0  0  0
  -23.4130  -28.8270   23.3190 O   0  0  0  0  0  0  0  0  0  0  0  0
  -20.9290  -29.8690   21.6990 H   0  0  0  0  0  0  0  0  0  0  0  0
  -18.0260  -28.1380   22.8480 C   0  0  0  0  0  0  0  0  0  0  0  0
  -20.5830  -28.3650   23.1370 C   0  0  0  0  0  3  0  0  0  0  0  0
  -20.6760  -26.9420   22.5440 C   0  0  0  0  0  2  0  0  0  0  0  0
  -19.5740  -26.6390   21.5230 C   0  0  0  0  0  2  0  0  0  0  0  0
  -18.1910  -26.7930   22.1640 C   0  0  0  0  0  2  0  0  0  0  0  0
  -19.1500  -28.8840   23.2910 C   0  0  0  0  0  0  0  0  0  0  0  0
  -18.9440  -30.1440   23.8900 C   0  0  0  0  0  3  0  0  0  0  0  0
  -17.6440  -30.6590   24.0540 C   0  0  0  0  0  3  0  0  0  0  0  0
  -16.5340  -29.9080   23.6320 C   0  0  0  0  0  3  0  0  0  0  0  0
  -16.7250  -28.6500   23.0330 C   0  0  0  0  0  3  0  0  0  0  0  0
  -25.8940  -32.4850   23.8400 C   0  0  0  0  0  3  0  0  0  0  0  0
  -25.5840  -33.8670   24.2330 N   0  0  0  0  0  0  0  0  0  0  0  0
  -25.9010  -34.9500   23.5150 C   0  0  0  0  0  0  0  0  0  0  0  0
  -26.5580  -34.8930   22.4710 O   0  0  0  0  0  0  0  0  0  0  0  0
  -24.9920  -33.9890   25.0420 H   0  0  0  0  0  0  0  0  0  0  0  0
  -24.1450  -36.7360   23.2650 C   0  0  0  0  0  1  0  0  0  0  0  0
  -25.4090  -36.3160   24.0330 C   0  0  0  0  0  3  0  0  0  0  0  0
  -27.5570  -37.1840   24.8480 C   0  0  0  0  0  1  0  0  0  0  0  0
  -26.4310  -37.3820   23.9390 N   0  0  0  0  0  0  0  0  0  0  0  0
  -26.0200  -38.2920   24.1360 H   0  0  0  0  0  0  0  0  0  0  0  0
  -26.4400  -31.6630   25.0700 C   0  0  1  0  0  0  0  0  0  0  0  0
  -25.3740  -31.3670   26.1490 C   0  0  0  0  0  1  0  0  0  0  0  0
  -27.0170  -30.3100   24.5920 C   0  0  0  0  0  1  0  0  0  0  0  0
  -27.5980  -32.4340   25.7470 C   0  0  0  0  0  1  0  0  0  0  0  0
  2  1  1  0
  3  4  1  0
  3  2  1  0
  4  6  1  0
  5  3  2  0
  7  4  1  0
  8  7  1  0
  8  9  1  0
 10  9  1  0
 10 11  1  0
 11 12  1  0
 12 13  1  0
 13 14  1  0
 14 23  1  0
 15 22  1  1
 15 21  1  0
 15 20  1  0
 16 15  1  0
 17 18  2  0
 17 16  1  0
 19 18  1  0
 19 28  1  0
 19 20  1  0
 23 21  1  0
 23 24  1  0
 25 26  2  0
 26 45  1  0
 27 26  1  0
 27 30  1  0
 28 25  1  0
 28 29  1  0
 29 27  2  0
 30 31  1  0
 31 32  2  0
 33 36  1  0
 33 32  1  0
 34 33  2  0
 35 34  1  0
 35 30  2  0
 36 37  1  0
 37 38  1  0
 38 39  2  0
 40 39  1  0
 40 44  1  0
 41 40  2  0
 42 37  2  0
 42 41  1  0
 43 42  1  0
 45 46  1  0
 46 49  1  0
 46 48  1  0
 47 45  2  0
 50 25  1  0
 50 51  1  0
 50 52  1  0
 53 57  1  0
 53 55  2  0
 54  2  1  0
 54 53  1  0
 56 54  1  0
 57 58  1  0
 58 59  1  0
 60 61  1  0
 60 59  1  0
 62 73  2  0
 63 61  1  0
 63 68  1  0
 64 72  1  0
 64 74  1  0
 65 71  1  0
 65 67  1  0
 66 72  1  0
 67 66  1  0
 68 67  2  0
 69 63  2  0
 70 69  1  0
 70 65  2  0
 71 64  1  0
 72 62  1  0
 74 76  2  0
 75 74  1  0
 77 75  1  0
 78 87  2  0
 78 83  1  0
 79 75  1  0
 79 83  1  0
 80 79  1  0
 81 82  1  0
 81 80  1  0
 82 78  1  0
 83 84  2  0
 84 85  1  0
 86 85  2  0
 87 86  1  0
 88 62  1  0
 88 89  1  0
 88 98  1  0
 89 92  1  0
 90 94  1  0
 90 89  1  0
 91 90  2  0
 94 93  1  0
 96 94  1  0
 96 97  1  0
 96 95  1  0
 98101  1  1
 98 99  1  0
100 98  1  0
M  ISO  4  15 100  23 100  60 101  61 101
M  END
>  <TORSDO>  (57) 
F 30

>  <SCORE>  (57) 
26.791

>  <name>  (57) 
58

>  <ligand_id>  (57) 
58

>  <original_smiles>  (57) 
[H]c1c([H])c([H])c2c(c1[H])C([H])([H])C([H])([H])C([H])([H])C2([H])N([H])C(=O)C1([H])N(C(=O)C([H])(N([H])C(=O)C([H])(N([H])C([H])([H])[H])C([H])([H])[H])C(C([H])([H])[H])(C([H])([H])[H])C([H])([H])[H])C([H])([H])c2c([H])c(OC([H])([H])C([H])([H])OC([H])([H])C(=O)N([H])C([H])(C(=O)N([H])C([H])([H])C([H])([H])OC([H])([H])C([H])([H])OC([H])([H])C([H])([H])N([H])C(=O)N3C([H])([H])C([H])([H])C([H])([H])C([H])(n4nc(-c5c([H])c([H])c(Oc6c([H])c([H])c(F)c([H])c6F)c([H])c5[H])c(C(=O)N([H])[H])c4N([H])[H])C3([H])[H])C([H])([H])[H])c([H])c([H])c2C1([H])[H]

>  <smiles>  (57) 
[H]c1c([H])c([H])c2c(c1[H])C([H])([H])C([H])([H])C([H])([H])C2([H])N([H])C(=O)C1([H])N(C(=O)C([H])(N([H])C(=O)C([H])(N([H])C([H])([H])[H])C([H])([H])[H])C(C([H])([H])[H])(C([H])([H])[H])C([H])([H])[H])C([H])([H])c2c([H])c(OC([H])([H])C([H])([H])OC([H])([H])C(=O)N([H])C([H])(C(=O)N([H])C([H])([H])C([H])([H])OC([H])([H])C([H])([H])OC([H])([H])C([H])([H])N([H])C(=O)N3C([H])([H])C([H])([H])C([H])([H])C([H])(n4nc(-c5c([H])c([H])c(Oc6c([H])c([H])c(F)c([H])c6F)c([H])c5[H])c(C(=O)N([H])[H])c4N([H])[H])C3([H])[H])C([H])([H])[H])c([H])c([H])c2C1([H])[H]

$$$$
59:0:0
     RDKit          3D

103110  0  0  1  0  0  0  0  0999 V2000
  -29.4920  -21.3010   20.9940 C   0  0  0  0  0  0  0  0  0  0  0  0
  -30.3820  -20.3460   20.7030 N   0  0  0  0  0  0  0  0  0  0  0  0
  -28.3770  -21.3600   20.4700 O   0  0  0  0  0  0  0  0  0  0  0  0
  -31.2820  -20.3700   21.1690 H   0  0  0  0  0  0  0  0  0  0  0  0
  -29.9150  -22.3470   22.0310 C   0  0  0  0  0  3  0  0  0  0  0  0
  -28.7650  -22.7070   22.8780 N   0  0  0  0  0  4  0  0  0  0  0  0
  -28.0600  -23.1020   22.2790 H   0  0  0  0  0  0  0  0  0  0  0  0
  -29.0150  -23.3820   23.5790 H   0  0  0  0  0  0  0  0  0  0  0  0
  -28.3830  -21.8880   23.3170 H   0  0  0  0  0  0  0  0  0  0  0  0
  -30.5170  -23.6050   21.3670 C   0  0  0  0  0  2  0  0  0  0  0  0
  -29.6210  -24.7130   21.4860 O   0  0  0  0  0  0  0  0  0  0  0  0
  -29.8030  -25.6750   20.4490 C   0  0  0  0  0  2  0  0  0  0  0  0
  -29.5950  -27.0950   20.9970 C   0  0  0  0  0  2  0  0  0  0  0  0
  -29.3240  -28.0140   19.9380 O   0  0  0  0  0  0  0  0  0  0  0  0
  -24.3780  -31.7690   23.3730 C   0  0  0  0  0  0  0  0  0  0  0  0
  -28.0380  -28.4900   19.9460 C   0  0  0  0  0  0  0  0  0  0  0  0
  -23.5720  -30.4080   21.4690 C   0  0  0  0  0  3  0  0  0  0  0  0
  -25.3850  -29.4320   19.9620 C   0  0  0  0  0  0  0  0  0  0  0  0
  -25.9630  -31.3140   21.5080 C   0  0  0  0  0  2  0  0  0  0  0  0
  -26.3680  -30.0980   20.7040 C   0  0  0  0  0  0  0  0  0  0  0  0
  -27.6980  -29.6320   20.6990 C   0  0  0  0  0  3  0  0  0  0  0  0
  -27.0490  -27.8330   19.1910 C   0  0  0  0  0  3  0  0  0  0  0  0
  -25.7200  -28.2970   19.2020 C   0  0  0  0  0  3  0  0  0  0  0  0
  -23.9810  -29.9930   20.0300 C   0  0  0  0  0  2  0  0  0  0  0  0
  -24.6490  -31.1710   22.1790 N   0  0  0  0  0  0  0  0  0  0  0  0
  -23.2400  -31.7320   23.8610 O   0  0  0  0  0  0  0  0  0  0  0  0
  -23.1130  -29.1460   22.2330 C   0  0  0  0  0  0  0  0  0  0  0  0
  -21.8630  -28.7210   21.9910 N   0  0  0  0  0  0  0  0  0  0  0  0
  -23.8820  -28.5560   22.9980 O   0  0  0  0  0  0  0  0  0  0  0  0
  -21.2930  -29.2620   21.3550 H   0  0  0  0  0  0  0  0  0  0  0  0
  -18.7660  -26.8690   22.1480 C   0  0  0  0  0  0  0  0  0  0  0  0
  -21.2290  -27.5330   22.5630 C   0  0  0  0  0  3  0  0  0  0  0  0
  -21.6030  -26.2640   21.7660 C   0  0  0  0  0  2  0  0  0  0  0  0
  -20.5880  -25.9200   20.6720 C   0  0  0  0  0  2  0  0  0  0  0  0
  -19.1960  -25.7050   21.2720 C   0  0  0  0  0  2  0  0  0  0  0  0
  -19.7210  -27.7370   22.7420 C   0  0  0  0  0  0  0  0  0  0  0  0
  -19.2670  -28.8240   23.5190 C   0  0  0  0  0  3  0  0  0  0  0  0
  -17.8920  -29.0470   23.7130 C   0  0  0  0  0  3  0  0  0  0  0  0
  -16.9510  -28.1750   23.1380 C   0  0  0  0  0  3  0  0  0  0  0  0
  -17.3890  -27.0880   22.3610 C   0  0  0  0  0  3  0  0  0  0  0  0
  -25.4720  -32.5500   24.1670 C   0  0  0  0  0  3  0  0  0  0  0  0
  -25.0310  -33.9480   24.2690 N   0  0  0  0  0  0  0  0  0  0  0  0
  -25.4740  -34.9420   23.4880 C   0  0  0  0  0  0  0  0  0  0  0  0
  -26.3600  -34.7870   22.6430 O   0  0  0  0  0  0  0  0  0  0  0  0
  -24.2700  -34.1400   24.9020 H   0  0  0  0  0  0  0  0  0  0  0  0
  -23.7830  -36.5600   22.5750 C   0  0  0  0  0  1  0  0  0  0  0  0
  -24.8300  -36.3270   23.6750 C   0  0  0  0  0  3  0  0  0  0  0  0
  -26.6750  -37.4420   24.8480 C   0  0  0  0  0  1  0  0  0  0  0  0
  -25.8080  -37.4360   23.6720 N   0  0  0  0  0  0  0  0  0  0  0  0
  -25.3340  -38.3330   23.6250 H   0  0  0  0  0  0  0  0  0  0  0  0
  -25.7560  -31.9460   25.5970 C   0  0  1  0  0  0  0  0  0  0  0  0
  -24.4770  -31.6760   26.4210 C   0  0  0  0  0  1  0  0  0  0  0  0
  -26.5360  -30.6150   25.4790 C   0  0  0  0  0  1  0  0  0  0  0  0
  -26.6540  -32.9120   26.4050 C   0  0  0  0  0  1  0  0  0  0  0  0
  -30.2700  -19.3530   19.6380 C   0  0  0  0  0  2  0  0  0  0  0  0
  -31.4100  -19.5710   18.6310 C   0  0  0  0  0  2  0  0  0  0  0  0
  -32.5700  -18.9470   19.1700 O   0  0  0  0  0  0  0  0  0  0  0  0
  -33.7260  -19.0740   18.3560 C   0  0  0  0  0  2  0  0  0  0  0  0
  -34.2790  -17.6700   18.0730 C   0  0  0  0  0  2  0  0  0  0  0  0
  -35.1080  -17.2720   19.1600 O   0  0  0  0  0  0  0  0  0  0  0  0
  -36.2970  -16.6230   18.7240 C   0  0  0  0  0  2  0  0  0  0  0  0
  -36.9770  -15.9430   19.9170 C   0  0  0  0  0  2  0  0  0  0  0  0
  -36.4850  -14.6140   20.0510 O   0  0  0  0  0  0  0  0  0  0  0  0
  -37.5190  -13.6860   20.3550 C   0  0  0  0  0  2  0  0  0  0  0  0
  -36.9670  -12.2540   20.2590 C   0  0  0  0  0  2  0  0  0  0  0  0
  -35.6460  -12.1810   18.1440 C   0  0  0  0  0  0  0  0  0  0  0  0
  -34.1170  -12.2850   16.2130 C   0  0  0  0  0  2  0  0  0  0  0  0
  -33.7130  -13.7370   15.8910 C   0  0  0  0  0  2  0  0  0  0  0  0
  -32.5100  -14.1780   16.7460 C   0  0  0  0  0  2  0  0  0  0  0  0
  -32.6980  -13.8610   18.2520 C   0  0  0  0  0  3  0  0  0  0  0  0
  -33.1510  -12.3970   18.4430 C   0  0  0  0  0  2  0  0  0  0  0  0
  -34.3810  -12.1880   17.6540 N   0  0  0  0  0  0  0  0  0  0  0  0
  -36.6550  -12.1600   17.4340 O   0  0  0  0  0  0  0  0  0  0  0  0
  -35.7350  -12.1980   19.4770 N   0  0  0  0  0  0  0  0  0  0  0  0
  -34.8650  -12.2280   19.9880 H   0  0  0  0  0  0  0  0  0  0  0  0
  -31.1810  -15.2520   19.7970 C   0  0  0  0  0  0  0  0  0  0  0  0
  -29.8930  -15.0680   20.2230 C   0  0  0  0  0  0  0  0  0  0  0  0
  -29.4630  -13.8330   19.6510 C   0  0  0  0  0  0  0  0  0  0  0  0
  -31.4840  -14.1520   19.0120 N   0  0  0  0  0  0  0  0  0  0  0  0
  -30.4520  -13.2700   18.9710 N   0  0  0  0  0  0  0  0  0  0  0  0
  -28.1480  -13.1780   19.6680 C   0  0  0  0  0  0  0  0  0  0  0  0
  -27.9630  -11.9070   20.2560 C   0  0  0  0  0  3  0  0  0  0  0  0
  -26.6860  -11.3060   20.2750 C   0  0  0  0  0  3  0  0  0  0  0  0
  -25.5780  -11.9750   19.7020 C   0  0  0  0  0  0  0  0  0  0  0  0
  -25.7720  -13.2300   19.0970 C   0  0  0  0  0  3  0  0  0  0  0  0
  -27.0450  -13.8250   19.0760 C   0  0  0  0  0  3  0  0  0  0  0  0
  -24.3070  -11.4570   19.6500 O   0  0  0  0  0  0  0  0  0  0  0  0
  -23.7670  -10.7650   20.7050 C   0  0  0  0  0  0  0  0  0  0  0  0
  -23.6250  -11.3480   21.9830 C   0  0  0  0  0  3  0  0  0  0  0  0
  -23.0020  -10.6270   23.0200 C   0  0  0  0  0  3  0  0  0  0  0  0
  -22.5140   -9.3280   22.7810 C   0  0  0  0  0  0  0  0  0  0  0  0
  -22.6510   -8.7480   21.5070 C   0  0  0  0  0  3  0  0  0  0  0  0
  -23.2740   -9.4660   20.4720 C   0  0  0  0  0  0  0  0  0  0  0  0
  -23.3830   -8.9120   19.2410 F   0  0  0  0  0  0  0  0  0  0  0  0
  -21.9090   -8.6360   23.7740 F   0  0  0  0  0  0  0  0  0  0  0  0
  -29.0720  -16.0270   21.0370 C   0  0  0  0  0  0  0  0  0  0  0  0
  -28.1460  -15.5140   21.8390 N   0  0  0  0  0  0  0  0  0  0  0  0
  -29.2820  -17.2390   21.0010 O   0  0  0  0  0  0  0  0  0  0  0  0
  -27.9840  -14.5190   21.8840 H   0  0  0  0  0  0  0  0  0  0  0  0
  -27.5880  -16.1280   22.4160 H   0  0  0  0  0  0  0  0  0  0  0  0
  -32.1120  -16.2660   20.0020 N   0  0  0  0  0  0  0  0  0  0  0  0
  -31.9130  -17.0780   20.5730 H   0  0  0  0  0  0  0  0  0  0  0  0
  -33.0600  -16.2480   19.6460 H   0  0  0  0  0  0  0  0  0  0  0  0
  1  5  1  0
  2  1  1  0
  2  4  1  0
  3  1  2  0
  5 10  1  0
  5  6  1  0
  6  9  1  0
  6  8  1  0
  7  6  1  0
 10 11  1  0
 12 13  1  0
 12 11  1  0
 14 16  1  0
 14 13  1  0
 15 26  2  0
 16 21  1  0
 17 25  1  0
 17 27  1  0
 18 24  1  0
 18 20  1  0
 19 25  1  0
 20 19  1  0
 21 20  2  0
 22 23  1  0
 22 16  2  0
 23 18  2  0
 24 17  1  0
 25 15  1  0
 27 29  2  0
 28 27  1  0
 30 28  1  0
 31 40  2  0
 31 36  1  0
 32 28  1  0
 32 36  1  0
 33 32  1  0
 34 35  1  0
 34 33  1  0
 35 31  1  0
 36 37  2  0
 37 38  1  0
 39 38  2  0
 40 39  1  0
 41 15  1  0
 41 42  1  0
 41 51  1  0
 42 45  1  0
 43 47  1  0
 43 42  1  0
 44 43  2  0
 47 46  1  0
 49 47  1  0
 49 48  1  0
 50 49  1  0
 51 54  1  1
 51 52  1  0
 53 51  1  0
 55  2  1  0
 56 57  1  0
 56 55  1  0
 58 57  1  0
 59 58  1  0
 59 60  1  0
 61 60  1  0
 61 62  1  0
 62 63  1  0
 63 64  1  0
 65 64  1  0
 66 74  1  0
 67 72  1  0
 68 67  1  0
 68 69  1  0
 70 69  1  0
 70 71  1  0
 70 79  1  0
 72 66  1  0
 72 71  1  0
 73 66  2  0
 74 75  1  0
 74 65  1  0
 76101  1  0
 76 77  2  0
 77 96  1  0
 78 81  1  0
 78 77  1  0
 79 76  1  0
 80 79  1  0
 80 78  2  0
 81 82  1  0
 82 83  2  0
 84 83  1  0
 85 84  2  0
 86 85  1  0
 86 81  2  0
 87 84  1  0
 87 88  1  0
 88 89  1  0
 89 90  2  0
 91 90  1  0
 91 95  1  0
 92 91  2  0
 93 88  2  0
 93 92  1  0
 94 93  1  0
 96 97  1  0
 97 99  1  0
 97100  1  0
 98 96  2  0
101102  1  0
103101  1  0
M  ISO  4  13 101  14 101  66 100  74 100
M  END
>  <TORSDO>  (58) 
F 33

>  <SCORE>  (58) 
-2.660

>  <name>  (58) 
59

>  <ligand_id>  (58) 
59

>  <original_smiles>  (58) 
[H]c1c([H])c([H])c2c(c1[H])C([H])([H])C([H])([H])C([H])([H])C2([H])N([H])C(=O)C1([H])N(C(=O)C([H])(N([H])C(=O)C([H])(N([H])C([H])([H])[H])C([H])([H])[H])C(C([H])([H])[H])(C([H])([H])[H])C([H])([H])[H])C([H])([H])c2c([H])c(OC([H])([H])C([H])([H])OC([H])([H])C([H])(C(=O)N([H])C([H])([H])C([H])([H])OC([H])([H])C([H])([H])OC([H])([H])C([H])([H])OC([H])([H])C([H])([H])N([H])C(=O)N3C([H])([H])C([H])([H])C([H])([H])C([H])(n4nc(-c5c([H])c([H])c(Oc6c([H])c([H])c(F)c([H])c6F)c([H])c5[H])c(C(=O)N([H])[H])c4N([H])[H])C3([H])[H])[N+]([H])([H])[H])c([H])c([H])c2C1([H])[H]

>  <smiles>  (58) 
[H]c1c([H])c([H])c2c(c1[H])C([H])([H])C([H])([H])C([H])([H])C2([H])N([H])C(=O)C1([H])N(C(=O)C([H])(N([H])C(=O)C([H])(N([H])C([H])([H])[H])C([H])([H])[H])C(C([H])([H])[H])(C([H])([H])[H])C([H])([H])[H])C([H])([H])c2c([H])c(OC([H])([H])C([H])([H])OC([H])([H])C([H])(C(=O)N([H])C([H])([H])C([H])([H])OC([H])([H])C([H])([H])OC([H])([H])C([H])([H])OC([H])([H])C([H])([H])N([H])C(=O)N3C([H])([H])C([H])([H])C([H])([H])C([H])(n4nc(-c5c([H])c([H])c(Oc6c([H])c([H])c(F)c([H])c6F)c([H])c5[H])c(C(=O)N([H])[H])c4N([H])[H])C3([H])[H])[N+]([H])([H])[H])c([H])c([H])c2C1([H])[H]

$$$$
60:0:0
     RDKit          3D

100107  0  0  1  0  0  0  0  0999 V2000
  -28.2930  -21.4680   20.5240 C   0  0  0  0  0  0  0  0  0  0  0  0
  -28.8330  -20.3300   20.0730 N   0  0  0  0  0  0  0  0  0  0  0  0
  -27.9980  -21.6320   21.7120 O   0  0  0  0  0  0  0  0  0  0  0  0
  -29.0750  -20.2720   19.0950 H   0  0  0  0  0  0  0  0  0  0  0  0
  -28.0420  -22.5910   19.4990 C   0  0  0  0  0  3  0  0  0  0  0  0
  -28.0420  -23.8870   20.2140 N   0  0  0  0  0  4  0  0  0  0  0  0
  -27.1640  -23.9000   20.7080 H   0  0  0  0  0  0  0  0  0  0  0  0
  -28.7610  -23.8300   20.9170 H   0  0  0  0  0  0  0  0  0  0  0  0
  -28.1940  -25.1360   19.4210 C   0  0  0  0  0  2  0  0  0  0  0  0
  -28.3620  -26.3550   20.3470 C   0  0  0  0  0  2  0  0  0  0  0  0
  -28.2770  -27.5780   19.6160 O   0  0  0  0  0  0  0  0  0  0  0  0
  -24.6940  -32.1230   23.7130 C   0  0  0  0  0  0  0  0  0  0  0  0
  -27.1000  -28.2520   19.8210 C   0  0  0  0  0  0  0  0  0  0  0  0
  -23.3530  -30.9180   22.0170 C   0  0  0  0  0  3  0  0  0  0  0  0
  -24.6830  -29.6320   20.2660 C   0  0  0  0  0  0  0  0  0  0  0  0
  -25.8330  -31.3950   21.6190 C   0  0  0  0  0  2  0  0  0  0  0  0
  -25.8810  -30.1220   20.8020 C   0  0  0  0  0  0  0  0  0  0  0  0
  -27.0950  -29.4420   20.5780 C   0  0  0  0  0  3  0  0  0  0  0  0
  -25.8900  -27.7630   19.2860 C   0  0  0  0  0  3  0  0  0  0  0  0
  -24.6810  -28.4480   19.5070 C   0  0  0  0  0  3  0  0  0  0  0  0
  -23.4310  -30.4310   20.5460 C   0  0  0  0  0  2  0  0  0  0  0  0
  -24.6500  -31.4850   22.5080 N   0  0  0  0  0  0  0  0  0  0  0  0
  -23.6710  -32.2820   24.3900 O   0  0  0  0  0  0  0  0  0  0  0  0
  -22.8210  -29.7590   22.8890 C   0  0  0  0  0  0  0  0  0  0  0  0
  -21.5430  -29.3980   22.6950 N   0  0  0  0  0  0  0  0  0  0  0  0
  -23.5590  -29.1850   23.6950 O   0  0  0  0  0  0  0  0  0  0  0  0
  -21.0000  -29.9240   22.0220 H   0  0  0  0  0  0  0  0  0  0  0  0
  -18.4410  -27.5520   22.7820 C   0  0  0  0  0  0  0  0  0  0  0  0
  -20.8410  -28.3090   23.3710 C   0  0  0  0  0  3  0  0  0  0  0  0
  -21.3010  -26.9330   22.8360 C   0  0  0  0  0  2  0  0  0  0  0  0
  -20.4210  -26.4070   21.6980 C   0  0  0  0  0  2  0  0  0  0  0  0
  -18.9660  -26.2710   22.1570 C   0  0  0  0  0  2  0  0  0  0  0  0
  -19.3220  -28.5170   23.3380 C   0  0  0  0  0  0  0  0  0  0  0  0
  -18.7850  -29.7100   23.8670 C   0  0  0  0  0  3  0  0  0  0  0  0
  -17.3970  -29.9410   23.8580 C   0  0  0  0  0  3  0  0  0  0  0  0
  -16.5280  -28.9750   23.3220 C   0  0  0  0  0  3  0  0  0  0  0  0
  -17.0500  -27.7830   22.7880 C   0  0  0  0  0  3  0  0  0  0  0  0
  -26.0270  -32.7030   24.2850 C   0  0  0  0  0  3  0  0  0  0  0  0
  -25.7880  -34.1160   24.6130 N   0  0  0  0  0  0  0  0  0  0  0  0
  -26.1660  -35.1470   23.8470 C   0  0  0  0  0  0  0  0  0  0  0  0
  -26.8250  -35.0100   22.8120 O   0  0  0  0  0  0  0  0  0  0  0  0
  -25.2140  -34.3030   25.4220 H   0  0  0  0  0  0  0  0  0  0  0  0
  -24.5230  -37.0140   23.4940 C   0  0  0  0  0  1  0  0  0  0  0  0
  -25.7460  -36.5550   24.3050 C   0  0  0  0  0  3  0  0  0  0  0  0
  -27.9230  -37.3370   25.1250 C   0  0  0  0  0  1  0  0  0  0  0  0
  -26.8250  -37.5590   24.1870 N   0  0  0  0  0  0  0  0  0  0  0  0
  -26.4610  -38.4950   24.3390 H   0  0  0  0  0  0  0  0  0  0  0  0
  -26.5560  -31.9190   25.5460 C   0  0  1  0  0  0  0  0  0  0  0  0
  -25.4850  -31.7120   26.6410 C   0  0  0  0  0  1  0  0  0  0  0  0
  -27.0950  -30.5310   25.1360 C   0  0  0  0  0  1  0  0  0  0  0  0
  -27.7390  -32.6860   26.1830 C   0  0  0  0  0  1  0  0  0  0  0  0
  -26.7450  -22.3660   18.6750 C   0  0  0  0  0  2  0  0  0  0  0  0
  -25.5500  -22.4320   19.4520 O   0  0  0  0  0  0  0  0  0  0  0  0
  -25.4480  -21.6130   19.9290 H   0  0  0  0  0  0  0  0  0  0  0  0
  -29.1820  -19.1700   20.8920 C   0  0  0  0  0  2  0  0  0  0  0  0
  -30.6980  -19.0850   21.1170 C   0  0  0  0  0  2  0  0  0  0  0  0
  -31.2680  -18.4290   19.9960 O   0  0  0  0  0  0  0  0  0  0  0  0
  -32.6880  -18.4410   19.9830 C   0  0  0  0  0  2  0  0  0  0  0  0
  -33.1430  -17.1780   19.2470 C   0  0  0  0  0  2  0  0  0  0  0  0
  -32.8840  -16.0600   20.0840 O   0  0  0  0  0  0  0  0  0  0  0  0
  -33.5030  -14.8720   19.6210 C   0  0  0  0  0  2  0  0  0  0  0  0
  -33.6310  -13.9130   20.8070 C   0  0  0  0  0  2  0  0  0  0  0  0
  -32.6510  -11.6460   20.6210 C   0  0  0  0  0  0  0  0  0  0  0  0
  -32.0860   -9.5320   21.7420 C   0  0  0  0  0  2  0  0  0  0  0  0
  -31.3330   -8.5170   20.8700 C   0  0  0  0  0  2  0  0  0  0  0  0
  -29.8210   -8.7720   20.9460 C   0  0  0  0  0  2  0  0  0  0  0  0
  -29.4580  -10.2500   20.6600 C   0  0  0  0  0  3  0  0  0  0  0  0
  -30.3290  -11.2220   21.4890 C   0  0  0  0  0  2  0  0  0  0  0  0
  -31.7520  -10.8890   21.2930 N   0  0  0  0  0  0  0  0  0  0  0  0
  -33.6580  -11.1970   20.0670 O   0  0  0  0  0  0  0  0  0  0  0  0
  -32.5300  -12.9520   20.8700 N   0  0  0  0  0  0  0  0  0  0  0  0
  -31.6890  -13.2470   21.3460 H   0  0  0  0  0  0  0  0  0  0  0  0
  -27.3080  -11.6660   20.7240 C   0  0  0  0  0  0  0  0  0  0  0  0
  -26.0010  -11.3370   20.9670 C   0  0  0  0  0  0  0  0  0  0  0  0
  -25.9930   -9.9370   21.2470 C   0  0  0  0  0  0  0  0  0  0  0  0
  -28.0310  -10.4920   20.8690 N   0  0  0  0  0  0  0  0  0  0  0  0
  -27.2310   -9.4580   21.2370 N   0  0  0  0  0  0  0  0  0  0  0  0
  -24.8720   -9.0120   21.4680 C   0  0  0  0  0  0  0  0  0  0  0  0
  -24.6590   -8.3970   22.7210 C   0  0  0  0  0  3  0  0  0  0  0  0
  -23.5640   -7.5260   22.9130 C   0  0  0  0  0  3  0  0  0  0  0  0
  -22.6690   -7.2650   21.8480 C   0  0  0  0  0  0  0  0  0  0  0  0
  -22.9000   -7.8610   20.5960 C   0  0  0  0  0  3  0  0  0  0  0  0
  -23.9940   -8.7240   20.4050 C   0  0  0  0  0  3  0  0  0  0  0  0
  -21.5950   -6.4130   21.9350 O   0  0  0  0  0  0  0  0  0  0  0  0
  -20.8450   -6.3140   23.0800 C   0  0  0  0  0  0  0  0  0  0  0  0
  -20.1350   -7.4170   23.6040 C   0  0  0  0  0  3  0  0  0  0  0  0
  -19.3230   -7.2530   24.7430 C   0  0  0  0  0  3  0  0  0  0  0  0
  -19.2110   -5.9900   25.3530 C   0  0  0  0  0  0  0  0  0  0  0  0
  -19.9120   -4.8910   24.8310 C   0  0  0  0  0  3  0  0  0  0  0  0
  -20.7250   -5.0510   23.6950 C   0  0  0  0  0  0  0  0  0  0  0  0
  -21.3820   -3.9830   23.1820 F   0  0  0  0  0  0  0  0  0  0  0  0
  -18.4230   -5.8310   26.4430 F   0  0  0  0  0  0  0  0  0  0  0  0
  -24.8120  -12.2470   20.8520 C   0  0  0  0  0  0  0  0  0  0  0  0
  -23.7820  -12.0140   21.6580 N   0  0  0  0  0  0  0  0  0  0  0  0
  -24.8090  -13.2030   20.0770 O   0  0  0  0  0  0  0  0  0  0  0  0
  -23.7910  -11.2380   22.3030 H   0  0  0  0  0  0  0  0  0  0  0  0
  -22.9710  -12.6150   21.6260 H   0  0  0  0  0  0  0  0  0  0  0  0
  -27.9360  -12.8570   20.3710 N   0  0  0  0  0  0  0  0  0  0  0  0
  -27.4160  -13.7060   20.1770 H   0  0  0  0  0  0  0  0  0  0  0  0
  -28.9230  -12.9380   20.1610 H   0  0  0  0  0  0  0  0  0  0  0  0
  1  3  2  0
  2  1  1  0
  2 55  1  0
  4  2  1  0
  5 52  1  0
  5  6  1  0
  5  1  1  0
  6  7  1  0
  6  8  1  0
  9  6  1  0
  9 10  1  0
 11 13  1  0
 11 10  1  0
 12 23  2  0
 13 18  1  0
 14 22  1  0
 14 24  1  0
 15 21  1  0
 15 17  1  0
 16 22  1  0
 17 16  1  0
 18 17  2  0
 19 20  1  0
 19 13  2  0
 20 15  2  0
 21 14  1  0
 22 12  1  0
 24 26  2  0
 25 24  1  0
 27 25  1  0
 28 37  2  0
 28 33  1  0
 29 25  1  0
 30 29  1  0
 31 32  1  0
 31 30  1  0
 32 28  1  0
 33 29  1  0
 33 34  2  0
 35 34  1  0
 36 35  2  0
 37 36  1  0
 38 12  1  0
 38 39  1  0
 38 48  1  0
 39 42  1  0
 40 44  1  0
 40 39  1  0
 41 40  2  0
 44 43  1  0
 46 44  1  0
 46 47  1  0
 46 45  1  0
 48 51  1  1
 48 49  1  0
 50 48  1  0
 52 53  1  0
 53 54  1  0
 55 56  1  0
 57 56  1  0
 58 57  1  0
 59 58  1  0
 59 60  1  0
 61 60  1  0
 61 62  1  0
 62 71  1  0
 63 71  1  0
 63 69  1  0
 65 66  1  0
 65 64  1  0
 67 76  1  0
 67 66  1  0
 67 68  1  0
 69 68  1  0
 69 64  1  0
 70 63  2  0
 71 72  1  0
 73 76  1  0
 73 74  2  0
 74 75  1  0
 75 78  1  0
 76 77  1  0
 77 75  2  0
 78 79  1  0
 79 80  2  0
 81 84  1  0
 81 80  1  0
 82 81  2  0
 83 82  1  0
 83 78  2  0
 84 85  1  0
 85 86  2  0
 85 90  1  0
 86 87  1  0
 87 88  2  0
 88 92  1  0
 89 88  1  0
 90 89  2  0
 91 90  1  0
 93 74  1  0
 93 94  1  0
 94 96  1  0
 95 93  2  0
 97 94  1  0
 98 73  1  0
 99 98  1  0
100 98  1  0
M  ISO  4  10 101  11 101  63 100  71 100
M  END
>  <TORSDO>  (59) 
F 30

>  <SCORE>  (59) 
-7.194

>  <name>  (59) 
60

>  <ligand_id>  (59) 
60

>  <original_smiles>  (59) 
[H]OC([H])([H])C([H])(C(=O)N([H])C([H])([H])C([H])([H])OC([H])([H])C([H])([H])OC([H])([H])C([H])([H])N([H])C(=O)N1C([H])([H])C([H])([H])C([H])([H])C([H])(n2nc(-c3c([H])c([H])c(Oc4c([H])c([H])c(F)c([H])c4F)c([H])c3[H])c(C(=O)N([H])[H])c2N([H])[H])C1([H])[H])[N+]([H])([H])C([H])([H])C([H])([H])Oc1c([H])c([H])c2c(c1[H])C([H])([H])N(C(=O)C([H])(N([H])C(=O)C([H])(N([H])C([H])([H])[H])C([H])([H])[H])C(C([H])([H])[H])(C([H])([H])[H])C([H])([H])[H])C([H])(C(=O)N([H])C1([H])c3c([H])c([H])c([H])c([H])c3C([H])([H])C([H])([H])C1([H])[H])C2([H])[H]

>  <smiles>  (59) 
[H]OC([H])([H])C([H])(C(=O)N([H])C([H])([H])C([H])([H])OC([H])([H])C([H])([H])OC([H])([H])C([H])([H])N([H])C(=O)N1C([H])([H])C([H])([H])C([H])([H])C([H])(n2nc(-c3c([H])c([H])c(Oc4c([H])c([H])c(F)c([H])c4F)c([H])c3[H])c(C(=O)N([H])[H])c2N([H])[H])C1([H])[H])[N+]([H])([H])C([H])([H])C([H])([H])Oc1c([H])c([H])c2c(c1[H])C([H])([H])N(C(=O)C([H])(N([H])C(=O)C([H])(N([H])C([H])([H])[H])C([H])([H])[H])C(C([H])([H])[H])(C([H])([H])[H])C([H])([H])[H])C([H])(C(=O)N([H])C1([H])c3c([H])c([H])c([H])c([H])c3C([H])([H])C([H])([H])C1([H])[H])C2([H])[H]

$$$$
61:0:0
     RDKit          3D

 94101  0  0  1  0  0  0  0  0999 V2000
  -30.8540  -20.8960   24.2770 C   0  0  0  0  0  2  0  0  0  0  0  0
  -30.5770  -19.3860   24.2020 C   0  0  0  0  0  2  0  0  0  0  0  0
  -30.8500  -17.5230   22.6070 C   0  0  0  0  0  0  0  0  0  0  0  0
  -31.0830  -18.7890   22.9710 N   0  0  0  0  0  0  0  0  0  0  0  0
  -30.1610  -16.7580   23.2890 O   0  0  0  0  0  0  0  0  0  0  0  0
  -31.6370  -19.3740   22.3600 H   0  0  0  0  0  0  0  0  0  0  0  0
  -31.4660  -17.0320   21.2850 C   0  0  0  0  0  3  0  0  0  0  0  0
  -31.6840  -14.7320   20.2830 C   0  0  0  0  0  0  0  0  0  0  0  0
  -31.2870  -12.6650   18.9980 C   0  0  0  0  0  2  0  0  0  0  0  0
  -30.3270  -12.9660   17.8280 C   0  0  0  0  0  2  0  0  0  0  0  0
  -28.8560  -12.8620   18.2800 C   0  0  0  0  0  2  0  0  0  0  0  0
  -28.5790  -13.6470   19.5890 C   0  0  0  0  0  3  0  0  0  0  0  0
  -29.6390  -13.3080   20.6610 C   0  0  0  0  0  2  0  0  0  0  0  0
  -30.9700  -13.5920   20.0920 N   0  0  0  0  0  0  0  0  0  0  0  0
  -32.7600  -14.9650   19.7230 O   0  0  0  0  0  0  0  0  0  0  0  0
  -31.0770  -15.6430   21.0510 N   0  0  0  0  0  0  0  0  0  0  0  0
  -30.2370  -15.3560   21.5320 H   0  0  0  0  0  0  0  0  0  0  0  0
  -26.2000  -14.3210   20.3140 C   0  0  0  0  0  0  0  0  0  0  0  0
  -25.1170  -13.5780   20.6950 C   0  0  0  0  0  0  0  0  0  0  0  0
  -25.5420  -12.2130   20.6610 C   0  0  0  0  0  0  0  0  0  0  0  0
  -27.2210  -13.4130   20.0770 N   0  0  0  0  0  0  0  0  0  0  0  0
  -26.8270  -12.1400   20.3390 N   0  0  0  0  0  0  0  0  0  0  0  0
  -24.7870  -10.9710   20.8620 C   0  0  0  0  0  0  0  0  0  0  0  0
  -25.1390  -10.0490   21.8720 C   0  0  0  0  0  3  0  0  0  0  0  0
  -24.3870   -8.8700   22.0570 C   0  0  0  0  0  3  0  0  0  0  0  0
  -23.2690   -8.6030   21.2300 C   0  0  0  0  0  0  0  0  0  0  0  0
  -22.9380   -9.5130   20.2110 C   0  0  0  0  0  3  0  0  0  0  0  0
  -23.6900  -10.6850   20.0250 C   0  0  0  0  0  3  0  0  0  0  0  0
  -22.4970   -7.4700   21.3190 O   0  0  0  0  0  0  0  0  0  0  0  0
  -22.1960   -6.8970   22.5290 C   0  0  0  0  0  0  0  0  0  0  0  0
  -21.5500   -7.6210   23.5550 C   0  0  0  0  0  3  0  0  0  0  0  0
  -21.1970   -6.9750   24.7570 C   0  0  0  0  0  3  0  0  0  0  0  0
  -21.4790   -5.6060   24.9300 C   0  0  0  0  0  0  0  0  0  0  0  0
  -22.1170   -4.8840   23.9070 C   0  0  0  0  0  3  0  0  0  0  0  0
  -22.4730   -5.5270   22.7080 C   0  0  0  0  0  0  0  0  0  0  0  0
  -23.0670   -4.8210   21.7170 F   0  0  0  0  0  0  0  0  0  0  0  0
  -21.1330   -4.9820   26.0810 F   0  0  0  0  0  0  0  0  0  0  0  0
  -23.7340  -14.0900   20.9830 C   0  0  0  0  0  0  0  0  0  0  0  0
  -23.0200  -13.4450   21.8990 N   0  0  0  0  0  0  0  0  0  0  0  0
  -23.2990  -15.0990   20.4310 O   0  0  0  0  0  0  0  0  0  0  0  0
  -23.3870  -12.6300   22.3680 H   0  0  0  0  0  0  0  0  0  0  0  0
  -22.0940  -13.7720   22.1350 H   0  0  0  0  0  0  0  0  0  0  0  0
  -26.3950  -15.6870   20.1330 N   0  0  0  0  0  0  0  0  0  0  0  0
  -25.6430  -16.3570   20.2500 H   0  0  0  0  0  0  0  0  0  0  0  0
  -27.2550  -16.1090   19.8050 H   0  0  0  0  0  0  0  0  0  0  0  0
  -29.6520  -17.9430   19.6540 C   0  0  0  0  0  1  0  0  0  0  0  0
  -31.1400  -17.9070   20.0480 C   0  0  0  0  0  2  0  0  0  0  0  0
  -30.0650  -21.5920   23.3140 O   0  0  0  0  0  0  0  0  0  0  0  0
  -30.0990  -23.0070   23.4980 C   0  0  0  0  0  2  0  0  0  0  0  0
  -28.9000  -23.6760   22.8010 C   0  0  0  0  0  2  0  0  0  0  0  0
  -29.2640  -24.2510   21.5460 O   0  0  0  0  0  0  0  0  0  0  0  0
  -28.1430  -24.8240   20.8700 C   0  0  0  0  0  2  0  0  0  0  0  0
  -28.5830  -25.7390   19.7000 C   0  0  0  0  0  2  0  0  0  0  0  0
  -28.5410  -27.1370   20.0240 O   0  0  0  0  0  0  0  0  0  0  0  0
  -24.6010  -32.0190   23.3430 C   0  0  0  0  0  0  0  0  0  0  0  0
  -27.3280  -27.7980   20.0340 C   0  0  0  0  0  0  0  0  0  0  0  0
  -23.4120  -30.6620   21.6510 C   0  0  0  0  0  3  0  0  0  0  0  0
  -24.8890  -29.2340   20.1400 C   0  0  0  0  0  0  0  0  0  0  0  0
  -25.9250  -31.0990   21.4430 C   0  0  0  0  0  2  0  0  0  0  0  0
  -26.0380  -29.7640   20.7370 C   0  0  0  0  0  0  0  0  0  0  0  0
  -27.2580  -29.0540   20.6780 C   0  0  0  0  0  3  0  0  0  0  0  0
  -26.1540  -27.2800   19.4350 C   0  0  0  0  0  3  0  0  0  0  0  0
  -24.9410  -27.9910   19.4870 C   0  0  0  0  0  3  0  0  0  0  0  0
  -23.6210  -30.0530   20.2400 C   0  0  0  0  0  2  0  0  0  0  0  0
  -24.6640  -31.2730   22.2050 N   0  0  0  0  0  0  0  0  0  0  0  0
  -23.5190  -32.2370   23.9070 O   0  0  0  0  0  0  0  0  0  0  0  0
  -22.8020  -29.5790   22.5690 C   0  0  0  0  0  0  0  0  0  0  0  0
  -21.4790  -29.3750   22.4550 N   0  0  0  0  0  0  0  0  0  0  0  0
  -23.5130  -28.9280   23.3380 O   0  0  0  0  0  0  0  0  0  0  0  0
  -20.9660  -29.9550   21.8060 H   0  0  0  0  0  0  0  0  0  0  0  0
  -18.1460  -28.0560   22.9110 C   0  0  0  0  0  0  0  0  0  0  0  0
  -20.6950  -28.3810   23.1890 C   0  0  0  0  0  3  0  0  0  0  0  0
  -20.8410  -26.9780   22.5560 C   0  0  0  0  0  2  0  0  0  0  0  0
  -19.7460  -26.6630   21.5320 C   0  0  0  0  0  2  0  0  0  0  0  0
  -18.3620  -26.7390   22.1820 C   0  0  0  0  0  2  0  0  0  0  0  0
  -19.2420  -28.8340   23.3680 C   0  0  0  0  0  0  0  0  0  0  0  0
  -18.9880  -30.0660   24.0080 C   0  0  0  0  0  3  0  0  0  0  0  0
  -17.6700  -30.5210   24.1950 C   0  0  0  0  0  3  0  0  0  0  0  0
  -16.5880  -29.7400   23.7550 C   0  0  0  0  0  3  0  0  0  0  0  0
  -16.8260  -28.5100   23.1180 C   0  0  0  0  0  3  0  0  0  0  0  0
  -25.8780  -32.6530   23.9790 C   0  0  0  0  0  3  0  0  0  0  0  0
  -26.3800  -31.8890   25.2650 C   0  0  1  0  0  0  0  0  0  0  0  0
  -25.2780  -31.6720   26.3290 C   0  0  0  0  0  1  0  0  0  0  0  0
  -26.9510  -30.5030   24.8860 C   0  0  0  0  0  1  0  0  0  0  0  0
  -27.5330  -32.6800   25.9260 C   0  0  0  0  0  1  0  0  0  0  0  0
  -25.5660  -34.0520   24.2960 N   0  0  0  0  0  0  0  0  0  0  0  0
  -25.9210  -35.1000   23.5400 C   0  0  0  0  0  0  0  0  0  0  0  0
  -26.6150  -34.9900   22.5240 O   0  0  0  0  0  0  0  0  0  0  0  0
  -24.9560  -34.2150   25.0830 H   0  0  0  0  0  0  0  0  0  0  0  0
  -24.2050  -36.8920   23.1310 C   0  0  0  0  0  1  0  0  0  0  0  0
  -25.4240  -36.4910   23.9770 C   0  0  0  0  0  3  0  0  0  0  0  0
  -27.5320  -37.3790   24.8670 C   0  0  0  0  0  1  0  0  0  0  0  0
  -26.4610  -37.5420   23.8850 N   0  0  0  0  0  0  0  0  0  0  0  0
  -26.0530  -38.4640   24.0120 H   0  0  0  0  0  0  0  0  0  0  0  0
  2  1  1  0
  3  4  1  0
  3  5  2  0
  4  2  1  0
  6  4  1  0
  7 47  1  0
  7  3  1  0
  8 16  1  0
  9 14  1  0
 10 11  1  0
 10  9  1  0
 12 11  1  0
 12 21  1  0
 12 13  1  0
 14  8  1  0
 14 13  1  0
 15  8  2  0
 16  7  1  0
 16 17  1  0
 18 19  2  0
 19 38  1  0
 20 19  1  0
 20 23  1  0
 21 18  1  0
 21 22  1  0
 22 20  2  0
 23 24  1  0
 24 25  2  0
 26 29  1  0
 26 25  1  0
 27 26  2  0
 28 27  1  0
 28 23  2  0
 29 30  1  0
 30 35  2  0
 30 31  1  0
 31 32  2  0
 32 33  1  0
 33 37  1  0
 34 33  2  0
 35 34  1  0
 36 35  1  0
 38 39  1  0
 39 42  1  0
 39 41  1  0
 40 38  2  0
 43 44  1  0
 43 18  1  0
 45 43  1  0
 46 47  1  0
 48 49  1  0
 48  1  1  0
 50 49  1  0
 51 50  1  0
 52 51  1  0
 53 54  1  0
 53 52  1  0
 54 56  1  0
 55 66  2  0
 56 61  1  0
 57 65  1  0
 57 67  1  0
 58 64  1  0
 58 60  1  0
 59 65  1  0
 60 59  1  0
 61 60  2  0
 62 63  1  0
 62 56  2  0
 63 58  2  0
 64 57  1  0
 65 55  1  0
 67 69  2  0
 68 67  1  0
 70 68  1  0
 71 80  2  0
 71 76  1  0
 72 68  1  0
 72 76  1  0
 73 72  1  0
 74 75  1  0
 74 73  1  0
 75 71  1  0
 76 77  2  0
 77 78  1  0
 79 78  2  0
 80 79  1  0
 81 55  1  0
 81 86  1  0
 81 82  1  0
 82 85  1  1
 82 83  1  0
 84 82  1  0
 86 89  1  0
 87 91  1  0
 87 86  1  0
 88 87  2  0
 91 90  1  0
 93 91  1  0
 93 94  1  0
 93 92  1  0
M  ISO  4   8 100  16 100  53 101  54 101
M  END
>  <TORSDO>  (60) 
F 26

>  <SCORE>  (60) 
-9.841

>  <name>  (60) 
61

>  <ligand_id>  (60) 
61

>  <original_smiles>  (60) 
[H]c1c([H])c([H])c2c(c1[H])C([H])([H])C([H])([H])C([H])([H])C2([H])N([H])C(=O)C1([H])N(C(=O)C([H])(N([H])C(=O)C([H])(N([H])C([H])([H])[H])C([H])([H])[H])C(C([H])([H])[H])(C([H])([H])[H])C([H])([H])[H])C([H])([H])c2c([H])c(OC([H])([H])C([H])([H])OC([H])([H])C([H])([H])OC([H])([H])C([H])([H])N([H])C(=O)C([H])(N([H])C(=O)N3C([H])([H])C([H])([H])C([H])([H])C([H])(n4nc(-c5c([H])c([H])c(Oc6c([H])c([H])c(F)c([H])c6F)c([H])c5[H])c(C(=O)N([H])[H])c4N([H])[H])C3([H])[H])C([H])([H])C([H])([H])[H])c([H])c([H])c2C1([H])[H]

>  <smiles>  (60) 
[H]c1c([H])c([H])c2c(c1[H])C([H])([H])C([H])([H])C([H])([H])C2([H])N([H])C(=O)C1([H])N(C(=O)C([H])(N([H])C(=O)C([H])(N([H])C([H])([H])[H])C([H])([H])[H])C(C([H])([H])[H])(C([H])([H])[H])C([H])([H])[H])C([H])([H])c2c([H])c(OC([H])([H])C([H])([H])OC([H])([H])C([H])([H])OC([H])([H])C([H])([H])N([H])C(=O)C([H])(N([H])C(=O)N3C([H])([H])C([H])([H])C([H])([H])C([H])(n4nc(-c5c([H])c([H])c(Oc6c([H])c([H])c(F)c([H])c6F)c([H])c5[H])c(C(=O)N([H])[H])c4N([H])[H])C3([H])[H])C([H])([H])C([H])([H])[H])c([H])c([H])c2C1([H])[H]

$$$$
62:0:0
     RDKit          3D

 88 95  0  0  1  0  0  0  0  0999 V2000
  -28.9050  -21.9370   20.2930 C   0  0  0  0  0  2  0  0  0  0  0  0
  -28.0740  -20.7580   20.8270 C   0  0  0  0  0  2  0  0  0  0  0  0
  -28.5430  -19.3510   20.4080 C   0  0  0  0  0  2  0  0  0  0  0  0
  -29.6870  -18.9580   21.1700 O   0  0  0  0  0  0  0  0  0  0  0  0
  -29.7500  -17.5630   21.4810 C   0  0  0  0  0  2  0  0  0  0  0  0
  -30.6870  -16.7770   20.5440 C   0  0  0  0  0  2  0  0  0  0  0  0
  -31.0860  -14.3650   20.0110 C   0  0  0  0  0  0  0  0  0  0  0  0
  -30.7150  -12.1930   18.9050 C   0  0  0  0  0  2  0  0  0  0  0  0
  -29.7290  -12.3810   17.7330 C   0  0  0  0  0  2  0  0  0  0  0  0
  -28.2670  -12.2950   18.2180 C   0  0  0  0  0  2  0  0  0  0  0  0
  -27.9970  -13.1850   19.4610 C   0  0  0  0  0  3  0  0  0  0  0  0
  -29.0780  -12.9400   20.5380 C   0  0  0  0  0  2  0  0  0  0  0  0
  -30.3970  -13.1980   19.9300 N   0  0  0  0  0  0  0  0  0  0  0  0
  -32.1500  -14.5770   19.4230 O   0  0  0  0  0  0  0  0  0  0  0  0
  -30.4480  -15.3370   20.6750 N   0  0  0  0  0  0  0  0  0  0  0  0
  -29.6080  -15.0580   21.1590 H   0  0  0  0  0  0  0  0  0  0  0  0
  -25.6420  -13.8960   20.2290 C   0  0  0  0  0  0  0  0  0  0  0  0
  -24.5610  -13.1700   20.6520 C   0  0  0  0  0  0  0  0  0  0  0  0
  -24.9720  -11.8030   20.6330 C   0  0  0  0  0  0  0  0  0  0  0  0
  -26.6480  -12.9740   19.9840 N   0  0  0  0  0  0  0  0  0  0  0  0
  -26.2480  -11.7110   20.2790 N   0  0  0  0  0  0  0  0  0  0  0  0
  -24.2110  -10.5710   20.8730 C   0  0  0  0  0  0  0  0  0  0  0  0
  -24.6070   -9.6390   21.8580 C   0  0  0  0  0  3  0  0  0  0  0  0
  -23.8500   -8.4690   22.0850 C   0  0  0  0  0  3  0  0  0  0  0  0
  -22.6820   -8.2220   21.3260 C   0  0  0  0  0  0  0  0  0  0  0  0
  -22.3050   -9.1400   20.3290 C   0  0  0  0  0  3  0  0  0  0  0  0
  -23.0630  -10.3010   20.1020 C   0  0  0  0  0  3  0  0  0  0  0  0
  -21.9010   -7.0990   21.4560 O   0  0  0  0  0  0  0  0  0  0  0  0
  -21.7740   -6.4480   22.6570 C   0  0  0  0  0  0  0  0  0  0  0  0
  -21.2990   -7.1030   23.8140 C   0  0  0  0  0  3  0  0  0  0  0  0
  -21.1190   -6.3770   25.0100 C   0  0  0  0  0  3  0  0  0  0  0  0
  -21.4040   -5.0000   25.0470 C   0  0  0  0  0  0  0  0  0  0  0  0
  -21.8720   -4.3450   23.8940 C   0  0  0  0  0  3  0  0  0  0  0  0
  -22.0540   -5.0670   22.7020 C   0  0  0  0  0  0  0  0  0  0  0  0
  -22.4860   -4.4280   21.5870 F   0  0  0  0  0  0  0  0  0  0  0  0
  -21.2240   -4.3000   26.1910 F   0  0  0  0  0  0  0  0  0  0  0  0
  -23.1900  -13.7000   20.9670 C   0  0  0  0  0  0  0  0  0  0  0  0
  -22.4750  -13.0520   21.8800 N   0  0  0  0  0  0  0  0  0  0  0  0
  -22.7640  -14.7240   20.4340 O   0  0  0  0  0  0  0  0  0  0  0  0
  -22.8340  -12.2250   22.3350 H   0  0  0  0  0  0  0  0  0  0  0  0
  -21.5550  -13.3870   22.1300 H   0  0  0  0  0  0  0  0  0  0  0  0
  -25.8510  -15.2550   20.0160 N   0  0  0  0  0  0  0  0  0  0  0  0
  -25.1110  -15.9380   20.1200 H   0  0  0  0  0  0  0  0  0  0  0  0
  -26.7030  -15.6460   19.6380 H   0  0  0  0  0  0  0  0  0  0  0  0
  -28.3530  -23.1330   20.8390 O   0  0  0  0  0  0  0  0  0  0  0  0
  -28.7320  -24.3300   20.1650 C   0  0  0  0  0  2  0  0  0  0  0  0
  -28.2890  -25.5430   21.0020 C   0  0  0  0  0  2  0  0  0  0  0  0
  -28.3750  -26.7630   20.2570 O   0  0  0  0  0  0  0  0  0  0  0  0
  -24.5230  -31.8860   23.3160 C   0  0  0  0  0  0  0  0  0  0  0  0
  -27.2100  -27.4900   20.2400 C   0  0  0  0  0  0  0  0  0  0  0  0
  -23.3330  -30.4890   21.6540 C   0  0  0  0  0  3  0  0  0  0  0  0
  -24.8070  -28.9670   20.2320 C   0  0  0  0  0  0  0  0  0  0  0  0
  -25.8570  -30.8670   21.4750 C   0  0  0  0  0  2  0  0  0  0  0  0
  -25.9560  -29.5020   20.8290 C   0  0  0  0  0  0  0  0  0  0  0  0
  -27.1640  -28.7710   20.8270 C   0  0  0  0  0  3  0  0  0  0  0  0
  -26.0510  -26.9600   19.6380 C   0  0  0  0  0  3  0  0  0  0  0  0
  -24.8490  -27.6960   19.6300 C   0  0  0  0  0  3  0  0  0  0  0  0
  -23.5560  -29.8170   20.2710 C   0  0  0  0  0  2  0  0  0  0  0  0
  -24.5890  -31.0940   22.2080 N   0  0  0  0  0  0  0  0  0  0  0  0
  -23.4360  -32.1510   23.8500 O   0  0  0  0  0  0  0  0  0  0  0  0
  -22.6780  -29.4610   22.6030 C   0  0  0  0  0  0  0  0  0  0  0  0
  -21.3540  -29.2820   22.4690 N   0  0  0  0  0  0  0  0  0  0  0  0
  -23.3570  -28.8280   23.4160 O   0  0  0  0  0  0  0  0  0  0  0  0
  -20.8690  -29.8490   21.7880 H   0  0  0  0  0  0  0  0  0  0  0  0
  -17.9790  -28.0860   22.9220 C   0  0  0  0  0  0  0  0  0  0  0  0
  -20.5320  -28.3360   23.2220 C   0  0  0  0  0  3  0  0  0  0  0  0
  -20.6370  -26.9100   22.6330 C   0  0  0  0  0  2  0  0  0  0  0  0
  -19.5460  -26.5980   21.6040 C   0  0  0  0  0  2  0  0  0  0  0  0
  -18.1580  -26.7410   22.2370 C   0  0  0  0  0  2  0  0  0  0  0  0
  -19.0930  -28.8420   23.3720 C   0  0  0  0  0  0  0  0  0  0  0  0
  -18.8730  -30.1020   23.9680 C   0  0  0  0  0  3  0  0  0  0  0  0
  -17.5690  -30.6070   24.1230 C   0  0  0  0  0  3  0  0  0  0  0  0
  -16.4670  -29.8460   23.6940 C   0  0  0  0  0  3  0  0  0  0  0  0
  -16.6710  -28.5890   23.1010 C   0  0  0  0  0  3  0  0  0  0  0  0
  -25.8030  -32.5140   23.9510 C   0  0  0  0  0  3  0  0  0  0  0  0
  -26.2840  -31.7640   25.2540 C   0  0  1  0  0  0  0  0  0  0  0  0
  -25.1650  -31.5600   26.3020 C   0  0  0  0  0  1  0  0  0  0  0  0
  -26.8610  -30.3740   24.8990 C   0  0  0  0  0  1  0  0  0  0  0  0
  -27.4280  -32.5610   25.9260 C   0  0  0  0  0  1  0  0  0  0  0  0
  -25.5060  -33.9220   24.2410 N   0  0  0  0  0  0  0  0  0  0  0  0
  -25.8780  -34.9530   23.4680 C   0  0  0  0  0  0  0  0  0  0  0  0
  -26.5780  -34.8150   22.4600 O   0  0  0  0  0  0  0  0  0  0  0  0
  -24.8930  -34.1060   25.0210 H   0  0  0  0  0  0  0  0  0  0  0  0
  -24.1870  -36.7590   23.0200 C   0  0  0  0  0  1  0  0  0  0  0  0
  -25.3990  -36.3570   23.8780 C   0  0  0  0  0  3  0  0  0  0  0  0
  -27.5200  -37.2320   24.7520 C   0  0  0  0  0  1  0  0  0  0  0  0
  -26.4500  -37.3930   23.7700 N   0  0  0  0  0  0  0  0  0  0  0  0
  -26.0540  -38.3230   23.8840 H   0  0  0  0  0  0  0  0  0  0  0  0
  1  2  1  0
  1 45  1  0
  3  2  1  0
  3  4  1  0
  4  5  1  0
  6 15  1  0
  6  5  1  0
  7 15  1  0
  8 13  1  0
  9 10  1  0
  9  8  1  0
 11 10  1  0
 11 20  1  0
 11 12  1  0
 13  7  1  0
 13 12  1  0
 14  7  2  0
 15 16  1  0
 17 18  2  0
 18 37  1  0
 19 18  1  0
 19 22  1  0
 20 17  1  0
 20 21  1  0
 21 19  2  0
 22 23  1  0
 23 24  2  0
 25 28  1  0
 25 24  1  0
 26 25  2  0
 27 26  1  0
 27 22  2  0
 28 29  1  0
 29 34  2  0
 29 30  1  0
 30 31  2  0
 31 32  1  0
 32 36  1  0
 33 32  2  0
 34 33  1  0
 35 34  1  0
 37 38  1  0
 38 41  1  0
 38 40  1  0
 39 37  2  0
 42 43  1  0
 42 17  1  0
 44 42  1  0
 46 45  1  0
 46 47  1  0
 48 47  1  0
 49 60  2  0
 50 48  1  0
 50 55  1  0
 51 59  1  0
 51 61  1  0
 52 58  1  0
 52 54  1  0
 53 59  1  0
 54 53  1  0
 55 54  2  0
 56 50  2  0
 57 56  1  0
 57 52  2  0
 58 51  1  0
 59 49  1  0
 61 63  2  0
 62 61  1  0
 64 62  1  0
 65 74  2  0
 65 70  1  0
 66 62  1  0
 66 70  1  0
 67 66  1  0
 68 69  1  0
 68 67  1  0
 69 65  1  0
 70 71  2  0
 71 72  1  0
 73 72  2  0
 74 73  1  0
 75 49  1  0
 75 80  1  0
 75 76  1  0
 76 79  1  1
 76 77  1  0
 78 76  1  0
 80 83  1  0
 81 85  1  0
 81 80  1  0
 82 81  2  0
 85 84  1  0
 87 85  1  0
 87 88  1  0
 87 86  1  0
M  ISO  4   7 100  15 100  47 101  48 101
M  END
>  <TORSDO>  (61) 
F 24

>  <SCORE>  (61) 
-11.788

>  <name>  (61) 
62

>  <ligand_id>  (61) 
62

>  <original_smiles>  (61) 
[H]c1c([H])c([H])c2c(c1[H])C([H])([H])C([H])([H])C([H])([H])C2([H])N([H])C(=O)C1([H])N(C(=O)C([H])(N([H])C(=O)C([H])(N([H])C([H])([H])[H])C([H])([H])[H])C(C([H])([H])[H])(C([H])([H])[H])C([H])([H])[H])C([H])([H])c2c([H])c(OC([H])([H])C([H])([H])OC([H])([H])C([H])([H])C([H])([H])OC([H])([H])C([H])([H])N([H])C(=O)N3C([H])([H])C([H])([H])C([H])([H])C([H])(n4nc(-c5c([H])c([H])c(Oc6c([H])c([H])c(F)c([H])c6F)c([H])c5[H])c(C(=O)N([H])[H])c4N([H])[H])C3([H])[H])c([H])c([H])c2C1([H])[H]

>  <smiles>  (61) 
[H]c1c([H])c([H])c2c(c1[H])C([H])([H])C([H])([H])C([H])([H])C2([H])N([H])C(=O)C1([H])N(C(=O)C([H])(N([H])C(=O)C([H])(N([H])C([H])([H])[H])C([H])([H])[H])C(C([H])([H])[H])(C([H])([H])[H])C([H])([H])[H])C([H])([H])c2c([H])c(OC([H])([H])C([H])([H])OC([H])([H])C([H])([H])C([H])([H])OC([H])([H])C([H])([H])N([H])C(=O)N3C([H])([H])C([H])([H])C([H])([H])C([H])(n4nc(-c5c([H])c([H])c(Oc6c([H])c([H])c(F)c([H])c6F)c([H])c5[H])c(C(=O)N([H])[H])c4N([H])[H])C3([H])[H])c([H])c([H])c2C1([H])[H]

$$$$
63:0:0
     RDKit          3D

 95102  0  0  1  0  0  0  0  0999 V2000
  -30.2230  -20.0450   22.5720 C   0  0  0  0  0  3  0  0  0  0  0  0
  -31.2930  -20.3170   23.6550 C   0  0  0  0  0  0  0  0  0  0  0  0
  -30.9630  -20.0670   24.9160 N   0  0  0  0  0  0  0  0  0  0  0  0
  -32.3950  -20.7810   23.3680 O   0  0  0  0  0  0  0  0  0  0  0  0
  -30.0490  -19.6990   25.1420 H   0  0  0  0  0  0  0  0  0  0  0  0
  -31.6220  -20.2450   25.6600 H   0  0  0  0  0  0  0  0  0  0  0  0
  -30.7260  -19.0940   21.4670 C   0  0  0  0  0  2  0  0  0  0  0  0
  -30.6900  -17.6090   21.8720 C   0  0  0  0  0  2  0  0  0  0  0  0
  -31.5620  -16.7250   20.9670 C   0  0  0  0  0  2  0  0  0  0  0  0
  -31.6730  -15.2760   21.4670 C   0  0  0  0  0  2  0  0  0  0  0  0
  -30.4470  -14.0430   19.6940 C   0  0  0  0  0  0  0  0  0  0  0  0
  -29.8540  -12.0210   18.4310 C   0  0  0  0  0  2  0  0  0  0  0  0
  -28.7260  -12.2160   17.4090 C   0  0  0  0  0  2  0  0  0  0  0  0
  -27.3590  -12.0020   18.0770 C   0  0  0  0  0  2  0  0  0  0  0  0
  -27.1990  -12.8500   19.3650 C   0  0  0  0  0  3  0  0  0  0  0  0
  -28.4180  -12.6900   20.3020 C   0  0  0  0  0  2  0  0  0  0  0  0
  -29.6560  -12.9560   19.5460 N   0  0  0  0  0  0  0  0  0  0  0  0
  -31.1720  -14.4950   18.8030 O   0  0  0  0  0  0  0  0  0  0  0  0
  -30.5930  -14.4250   20.9680 N   0  0  0  0  0  0  0  0  0  0  0  0
  -30.0230  -13.9470   21.6500 H   0  0  0  0  0  0  0  0  0  0  0  0
  -24.9370  -13.3840   20.4760 C   0  0  0  0  0  0  0  0  0  0  0  0
  -23.9520  -12.5760   20.9800 C   0  0  0  0  0  0  0  0  0  0  0  0
  -24.4180  -11.2350   20.8180 C   0  0  0  0  0  0  0  0  0  0  0  0
  -25.9440  -12.5320   20.0470 N   0  0  0  0  0  0  0  0  0  0  0  0
  -25.6420  -11.2330   20.3050 N   0  0  0  0  0  0  0  0  0  0  0  0
  -23.7480   -9.9530   21.0710 C   0  0  0  0  0  0  0  0  0  0  0  0
  -24.2670   -9.0180   21.9940 C   0  0  0  0  0  3  0  0  0  0  0  0
  -23.5960   -7.8000   22.2340 C   0  0  0  0  0  3  0  0  0  0  0  0
  -22.3920   -7.5070   21.5510 C   0  0  0  0  0  0  0  0  0  0  0  0
  -21.8930   -8.4300   20.6160 C   0  0  0  0  0  3  0  0  0  0  0  0
  -22.5640   -9.6400   20.3740 C   0  0  0  0  0  3  0  0  0  0  0  0
  -21.6860   -6.3370   21.7000 O   0  0  0  0  0  0  0  0  0  0  0  0
  -21.6530   -5.6650   22.8940 C   0  0  0  0  0  0  0  0  0  0  0  0
  -21.1640   -6.2660   24.0750 C   0  0  0  0  0  3  0  0  0  0  0  0
  -21.0820   -5.5170   25.2650 C   0  0  0  0  0  3  0  0  0  0  0  0
  -21.4760   -4.1660   25.2760 C   0  0  0  0  0  0  0  0  0  0  0  0
  -21.9580   -3.5620   24.1010 C   0  0  0  0  0  3  0  0  0  0  0  0
  -22.0420   -4.3100   22.9130 C   0  0  0  0  0  0  0  0  0  0  0  0
  -22.4860   -3.7180   21.7780 F   0  0  0  0  0  0  0  0  0  0  0  0
  -21.3910   -3.4430   26.4170 F   0  0  0  0  0  0  0  0  0  0  0  0
  -22.6120  -13.0150   21.4970 C   0  0  0  0  0  0  0  0  0  0  0  0
  -22.0590  -12.2870   22.4620 N   0  0  0  0  0  0  0  0  0  0  0  0
  -22.0680  -14.0370   21.0820 O   0  0  0  0  0  0  0  0  0  0  0  0
  -22.5120  -11.4580   22.8150 H   0  0  0  0  0  0  0  0  0  0  0  0
  -21.1700  -12.5650   22.8550 H   0  0  0  0  0  0  0  0  0  0  0  0
  -25.0520  -14.7620   20.3310 N   0  0  0  0  0  0  0  0  0  0  0  0
  -24.3080  -15.4010   20.5910 H   0  0  0  0  0  0  0  0  0  0  0  0
  -25.8440  -15.2270   19.9020 H   0  0  0  0  0  0  0  0  0  0  0  0
  -29.8260  -21.2640   21.9430 O   0  0  0  0  0  0  0  0  0  0  0  0
  -28.9540  -22.0890   22.7140 C   0  0  0  0  0  2  0  0  0  0  0  0
  -28.3020  -23.1380   21.8110 C   0  0  0  0  0  2  0  0  0  0  0  0
  -29.2070  -24.2020   21.5320 O   0  0  0  0  0  0  0  0  0  0  0  0
  -28.6370  -25.1300   20.6170 C   0  0  0  0  0  2  0  0  0  0  0  0
  -29.4500  -26.4340   20.5510 C   0  0  0  0  0  2  0  0  0  0  0  0
  -29.0740  -27.2110   19.4120 O   0  0  0  0  0  0  0  0  0  0  0  0
  -24.6760  -31.4570   23.0270 C   0  0  0  0  0  0  0  0  0  0  0  0
  -27.8220  -27.7620   19.5060 C   0  0  0  0  0  0  0  0  0  0  0  0
  -23.6280  -30.0490   21.2810 C   0  0  0  0  0  3  0  0  0  0  0  0
  -25.2420  -28.8740   19.6940 C   0  0  0  0  0  0  0  0  0  0  0  0
  -26.0670  -30.7890   21.0740 C   0  0  0  0  0  2  0  0  0  0  0  0
  -26.3260  -29.5080   20.3150 C   0  0  0  0  0  0  0  0  0  0  0  0
  -27.6190  -28.9560   20.2270 C   0  0  0  0  0  3  0  0  0  0  0  0
  -26.7320  -27.1420   18.8660 C   0  0  0  0  0  3  0  0  0  0  0  0
  -25.4380  -27.6840   18.9690 C   0  0  0  0  0  3  0  0  0  0  0  0
  -23.8880  -29.5320   19.8410 C   0  0  0  0  0  2  0  0  0  0  0  0
  -24.8080  -30.7780   21.8530 N   0  0  0  0  0  0  0  0  0  0  0  0
  -23.5850  -31.5230   23.6090 O   0  0  0  0  0  0  0  0  0  0  0  0
  -23.1570  -28.8640   22.1540 C   0  0  0  0  0  0  0  0  0  0  0  0
  -21.8870  -28.4640   21.9810 N   0  0  0  0  0  0  0  0  0  0  0  0
  -23.9300  -28.3130   22.9430 O   0  0  0  0  0  0  0  0  0  0  0  0
  -21.3180  -28.9710   21.3180 H   0  0  0  0  0  0  0  0  0  0  0  0
  -18.7880  -26.6290   22.2540 C   0  0  0  0  0  0  0  0  0  0  0  0
  -21.2370  -27.3470   22.6640 C   0  0  0  0  0  3  0  0  0  0  0  0
  -21.6350  -25.9970   22.0260 C   0  0  0  0  0  2  0  0  0  0  0  0
  -20.6540  -25.5300   20.9450 C   0  0  0  0  0  2  0  0  0  0  0  0
  -19.2450  -25.3760   21.5260 C   0  0  0  0  0  2  0  0  0  0  0  0
  -19.7240  -27.5610   22.7750 C   0  0  0  0  0  0  0  0  0  0  0  0
  -19.2470  -28.7260   23.4150 C   0  0  0  0  0  3  0  0  0  0  0  0
  -17.8650  -28.9630   23.5410 C   0  0  0  0  0  3  0  0  0  0  0  0
  -16.9440  -28.0290   23.0390 C   0  0  0  0  0  3  0  0  0  0  0  0
  -17.4060  -26.8640   22.4010 C   0  0  0  0  0  3  0  0  0  0  0  0
  -25.8810  -32.2050   23.6790 C   0  0  0  0  0  3  0  0  0  0  0  0
  -26.4880  -31.4450   24.9220 C   0  0  1  0  0  0  0  0  0  0  0  0
  -25.4290  -31.0280   25.9700 C   0  0  0  0  0  1  0  0  0  0  0  0
  -27.2350  -30.1670   24.4690 C   0  0  0  0  0  1  0  0  0  0  0  0
  -27.5350  -32.3410   25.6230 C   0  0  0  0  0  1  0  0  0  0  0  0
  -25.4170  -33.5440   24.0620 N   0  0  0  0  0  0  0  0  0  0  0  0
  -25.6370  -34.6560   23.3500 C   0  0  0  0  0  0  0  0  0  0  0  0
  -26.3250  -34.6720   22.3250 O   0  0  0  0  0  0  0  0  0  0  0  0
  -24.7990  -33.6000   24.8590 H   0  0  0  0  0  0  0  0  0  0  0  0
  -23.7150  -36.2510   23.0500 C   0  0  0  0  0  1  0  0  0  0  0  0
  -24.9910  -35.9600   23.8560 C   0  0  0  0  0  3  0  0  0  0  0  0
  -27.0050  -37.0510   24.7430 C   0  0  0  0  0  1  0  0  0  0  0  0
  -25.8980  -37.1280   23.7940 N   0  0  0  0  0  0  0  0  0  0  0  0
  -25.3880  -37.9900   23.9710 H   0  0  0  0  0  0  0  0  0  0  0  0
  1  7  1  0
  1  2  1  0
  2  3  1  0
  3  5  1  0
  3  6  1  0
  4  2  2  0
  7  8  1  0
  9 10  1  0
  9  8  1  0
 11 19  1  0
 12 17  1  0
 13 14  1  0
 13 12  1  0
 15 14  1  0
 15 24  1  0
 15 16  1  0
 17 11  1  0
 17 16  1  0
 18 11  2  0
 19 10  1  0
 19 20  1  0
 21 22  2  0
 22 41  1  0
 23 22  1  0
 23 26  1  0
 24 25  1  0
 24 21  1  0
 25 23  2  0
 26 27  1  0
 27 28  2  0
 29 32  1  0
 29 28  1  0
 30 29  2  0
 31 30  1  0
 31 26  2  0
 32 33  1  0
 33 38  2  0
 33 34  1  0
 34 35  2  0
 35 36  1  0
 36 40  1  0
 37 36  2  0
 38 37  1  0
 39 38  1  0
 41 42  1  0
 42 44  1  0
 42 45  1  0
 43 41  2  0
 46 21  1  0
 46 47  1  0
 48 46  1  0
 49  1  1  0
 49 50  1  0
 51 50  1  0
 52 51  1  0
 53 52  1  0
 54 53  1  0
 55 57  1  0
 55 54  1  0
 56 67  2  0
 57 62  1  0
 58 66  1  0
 58 68  1  0
 59 65  1  0
 59 61  1  0
 60 66  1  0
 61 60  1  0
 62 61  2  0
 63 64  1  0
 63 57  2  0
 64 59  2  0
 65 58  1  0
 66 56  1  0
 68 70  2  0
 69 68  1  0
 71 69  1  0
 72 81  2  0
 72 77  1  0
 73 69  1  0
 73 77  1  0
 74 73  1  0
 75 76  1  0
 75 74  1  0
 76 72  1  0
 77 78  2  0
 78 79  1  0
 80 79  2  0
 81 80  1  0
 82 56  1  0
 82 87  1  0
 82 83  1  0
 83 86  1  1
 83 84  1  0
 85 83  1  0
 87 90  1  0
 88 92  1  0
 88 87  1  0
 89 88  2  0
 92 91  1  0
 94 92  1  0
 94 95  1  0
 94 93  1  0
M  ISO  4  11 100  19 100  54 101  55 101
M  END
>  <TORSDO>  (62) 
F 27

>  <SCORE>  (62) 
-8.156

>  <name>  (62) 
63

>  <ligand_id>  (62) 
63

>  <original_smiles>  (62) 
[H]c1c([H])c([H])c2c(c1[H])C([H])([H])C([H])([H])C([H])([H])C2([H])N([H])C(=O)C1([H])N(C(=O)C([H])(N([H])C(=O)C([H])(N([H])C([H])([H])[H])C([H])([H])[H])C(C([H])([H])[H])(C([H])([H])[H])C([H])([H])[H])C([H])([H])c2c([H])c(OC([H])([H])C([H])([H])OC([H])([H])C([H])([H])OC([H])(C(=O)N([H])[H])C([H])([H])C([H])([H])C([H])([H])C([H])([H])N([H])C(=O)N3C([H])([H])C([H])([H])C([H])([H])C([H])(n4nc(-c5c([H])c([H])c(Oc6c([H])c([H])c(F)c([H])c6F)c([H])c5[H])c(C(=O)N([H])[H])c4N([H])[H])C3([H])[H])c([H])c([H])c2C1([H])[H]

>  <smiles>  (62) 
[H]c1c([H])c([H])c2c(c1[H])C([H])([H])C([H])([H])C([H])([H])C2([H])N([H])C(=O)C1([H])N(C(=O)C([H])(N([H])C(=O)C([H])(N([H])C([H])([H])[H])C([H])([H])[H])C(C([H])([H])[H])(C([H])([H])[H])C([H])([H])[H])C([H])([H])c2c([H])c(OC([H])([H])C([H])([H])OC([H])([H])C([H])([H])OC([H])(C(=O)N([H])[H])C([H])([H])C([H])([H])C([H])([H])C([H])([H])N([H])C(=O)N3C([H])([H])C([H])([H])C([H])([H])C([H])(n4nc(-c5c([H])c([H])c(Oc6c([H])c([H])c(F)c([H])c6F)c([H])c5[H])c(C(=O)N([H])[H])c4N([H])[H])C3([H])[H])c([H])c([H])c2C1([H])[H]

$$$$
64:0:0
     RDKit          3D

 92 99  0  0  1  0  0  0  0  0999 V2000
  -27.8240  -22.5240   21.6380 C   0  0  0  0  0  2  0  0  0  0  0  0
  -28.0590  -24.7330   20.4820 C   0  0  0  0  0  0  0  0  0  0  0  0
  -27.7270  -23.4370   20.5000 N   0  0  0  0  0  0  0  0  0  0  0  0
  -28.5130  -25.3140   21.4720 O   0  0  0  0  0  0  0  0  0  0  0  0
  -27.3860  -23.0400   19.6340 H   0  0  0  0  0  0  0  0  0  0  0  0
  -27.8500  -25.4670   19.1410 C   0  0  0  0  0  2  0  0  0  0  0  0
  -27.8920  -26.8890   19.2900 O   0  0  0  0  0  0  0  0  0  0  0  0
  -24.8060  -31.7120   23.4210 C   0  0  0  0  0  0  0  0  0  0  0  0
  -26.7330  -27.6060   19.5000 C   0  0  0  0  0  0  0  0  0  0  0  0
  -23.3040  -30.6220   21.7830 C   0  0  0  0  0  3  0  0  0  0  0  0
  -24.4560  -29.2030   20.0010 C   0  0  0  0  0  0  0  0  0  0  0  0
  -25.8000  -30.8690   21.2990 C   0  0  0  0  0  2  0  0  0  0  0  0
  -25.7060  -29.5900   20.4960 C   0  0  0  0  0  0  0  0  0  0  0  0
  -26.8440  -28.7990   20.2420 C   0  0  0  0  0  3  0  0  0  0  0  0
  -25.4640  -27.2230   19.0040 C   0  0  0  0  0  3  0  0  0  0  0  0
  -24.3270  -28.0180   19.2550 C   0  0  0  0  0  3  0  0  0  0  0  0
  -23.2920  -30.1160   20.3120 C   0  0  0  0  0  2  0  0  0  0  0  0
  -24.6630  -31.0740   22.2250 N   0  0  0  0  0  0  0  0  0  0  0  0
  -23.8240  -31.9710   24.1310 O   0  0  0  0  0  0  0  0  0  0  0  0
  -22.6990  -29.5240   22.6850 C   0  0  0  0  0  0  0  0  0  0  0  0
  -21.3740  -29.3290   22.5850 N   0  0  0  0  0  0  0  0  0  0  0  0
  -23.4150  -28.8500   23.4290 O   0  0  0  0  0  0  0  0  0  0  0  0
  -20.8530  -29.9240   21.9540 H   0  0  0  0  0  0  0  0  0  0  0  0
  -18.0750  -27.9010   22.9180 C   0  0  0  0  0  0  0  0  0  0  0  0
  -20.5960  -28.3230   23.3040 C   0  0  0  0  0  3  0  0  0  0  0  0
  -20.8210  -26.9160   22.7040 C   0  0  0  0  0  2  0  0  0  0  0  0
  -19.7850  -26.5440   21.6390 C   0  0  0  0  0  2  0  0  0  0  0  0
  -18.3710  -26.5810   22.2250 C   0  0  0  0  0  2  0  0  0  0  0  0
  -19.1210  -28.7250   23.4110 C   0  0  0  0  0  0  0  0  0  0  0  0
  -18.7920  -29.9590   24.0130 C   0  0  0  0  0  3  0  0  0  0  0  0
  -17.4500  -30.3680   24.1330 C   0  0  0  0  0  3  0  0  0  0  0  0
  -16.4190  -29.5400   23.6580 C   0  0  0  0  0  3  0  0  0  0  0  0
  -16.7320  -28.3080   23.0550 C   0  0  0  0  0  3  0  0  0  0  0  0
  -26.2040  -32.1680   23.9460 C   0  0  0  0  0  3  0  0  0  0  0  0
  -26.7640  -31.2550   25.1050 C   0  0  1  0  0  0  0  0  0  0  0  0
  -25.7690  -31.0560   26.2720 C   0  0  0  0  0  1  0  0  0  0  0  0
  -27.1420  -29.8560   24.5620 C   0  0  0  0  0  1  0  0  0  0  0  0
  -28.0570  -31.8740   25.6870 C   0  0  0  0  0  1  0  0  0  0  0  0
  -26.0770  -33.5610   24.3920 N   0  0  0  0  0  0  0  0  0  0  0  0
  -26.5160  -34.6240   23.7060 C   0  0  0  0  0  0  0  0  0  0  0  0
  -27.1460  -34.5250   22.6500 O   0  0  0  0  0  0  0  0  0  0  0  0
  -25.5210  -33.7210   25.2200 H   0  0  0  0  0  0  0  0  0  0  0  0
  -25.0330  -36.6460   23.5220 C   0  0  0  0  0  1  0  0  0  0  0  0
  -26.2110  -36.0180   24.2840 C   0  0  0  0  0  3  0  0  0  0  0  0
  -28.4420  -36.5510   25.1600 C   0  0  0  0  0  1  0  0  0  0  0  0
  -27.3670  -36.9390   24.2500 N   0  0  0  0  0  0  0  0  0  0  0  0
  -27.0810  -37.8850   24.4840 H   0  0  0  0  0  0  0  0  0  0  0  0
  -29.2160  -21.8640   21.7260 C   0  0  0  0  0  2  0  0  0  0  0  0
  -29.0840  -20.4470   21.8100 O   0  0  0  0  0  0  0  0  0  0  0  0
  -30.3270  -19.7630   21.6580 C   0  0  0  0  0  2  0  0  0  0  0  0
  -30.2610  -18.3520   22.2770 C   0  0  0  0  0  2  0  0  0  0  0  0
  -30.7820  -17.3710   21.3830 O   0  0  0  0  0  0  0  0  0  0  0  0
  -30.6380  -16.0520   21.9010 C   0  0  0  0  0  2  0  0  0  0  0  0
  -31.7180  -15.1280   21.3170 C   0  0  0  0  0  2  0  0  0  0  0  0
  -31.8350  -13.7820   19.2780 C   0  0  0  0  0  0  0  0  0  0  0  0
  -31.2580  -11.4510   18.7100 C   0  0  0  0  0  2  0  0  0  0  0  0
  -30.2150  -11.3830   17.5780 C   0  0  0  0  0  2  0  0  0  0  0  0
  -28.7870  -11.4690   18.1470 C   0  0  0  0  0  2  0  0  0  0  0  0
  -28.6100  -12.6400   19.1470 C   0  0  0  0  0  3  0  0  0  0  0  0
  -29.7530  -12.6630   20.1850 C   0  0  0  0  0  2  0  0  0  0  0  0
  -31.0450  -12.6920   19.4740 N   0  0  0  0  0  0  0  0  0  0  0  0
  -32.7840  -13.8040   18.4930 O   0  0  0  0  0  0  0  0  0  0  0  0
  -31.4810  -14.9110   19.8940 N   0  0  0  0  0  0  0  0  0  0  0  0
  -31.7740  -15.7250   19.3710 H   0  0  0  0  0  0  0  0  0  0  0  0
  -26.4820  -13.6370   20.2070 C   0  0  0  0  0  0  0  0  0  0  0  0
  -25.3390  -13.0570   20.6870 C   0  0  0  0  0  0  0  0  0  0  0  0
  -25.5190  -11.6490   20.5300 C   0  0  0  0  0  0  0  0  0  0  0  0
  -27.2990  -12.5940   19.7950 N   0  0  0  0  0  0  0  0  0  0  0  0
  -26.7250  -11.3880   20.0430 N   0  0  0  0  0  0  0  0  0  0  0  0
  -24.5900  -10.5360   20.7600 C   0  0  0  0  0  0  0  0  0  0  0  0
  -24.9010   -9.4840   21.6500 C   0  0  0  0  0  3  0  0  0  0  0  0
  -23.9850   -8.4330   21.8660 C   0  0  0  0  0  3  0  0  0  0  0  0
  -22.7370   -8.4290   21.1950 C   0  0  0  0  0  0  0  0  0  0  0  0
  -22.4410   -9.4670   20.2930 C   0  0  0  0  0  3  0  0  0  0  0  0
  -23.3590  -10.5080   20.0740 C   0  0  0  0  0  3  0  0  0  0  0  0
  -21.7930   -7.4380   21.3230 O   0  0  0  0  0  0  0  0  0  0  0  0
  -21.5910   -6.7860   22.5120 C   0  0  0  0  0  0  0  0  0  0  0  0
  -21.3170   -7.4860   23.7070 C   0  0  0  0  0  3  0  0  0  0  0  0
  -21.0460   -6.7750   24.8930 C   0  0  0  0  0  3  0  0  0  0  0  0
  -21.0430   -5.3670   24.8860 C   0  0  0  0  0  0  0  0  0  0  0  0
  -21.3100   -4.6670   23.6950 C   0  0  0  0  0  3  0  0  0  0  0  0
  -21.5810   -5.3760   22.5120 C   0  0  0  0  0  0  0  0  0  0  0  0
  -21.8210   -4.6970   21.3630 F   0  0  0  0  0  0  0  0  0  0  0  0
  -20.7780   -4.6860   26.0240 F   0  0  0  0  0  0  0  0  0  0  0  0
  -24.1110  -13.7710   21.1750 C   0  0  0  0  0  0  0  0  0  0  0  0
  -23.4210  -13.2100   22.1620 N   0  0  0  0  0  0  0  0  0  0  0  0
  -23.7790  -14.8600   20.7090 O   0  0  0  0  0  0  0  0  0  0  0  0
  -23.6980  -12.3260   22.5600 H   0  0  0  0  0  0  0  0  0  0  0  0
  -22.6000  -13.6730   22.5250 H   0  0  0  0  0  0  0  0  0  0  0  0
  -26.8870  -14.9610   20.0730 N   0  0  0  0  0  0  0  0  0  0  0  0
  -26.2830  -15.7350   20.3230 H   0  0  0  0  0  0  0  0  0  0  0  0
  -27.7660  -15.2600   19.6710 H   0  0  0  0  0  0  0  0  0  0  0  0
  1 48  1  0
  2  3  1  0
  2  4  2  0
  3  1  1  0
  5  3  1  0
  6  7  1  0
  6  2  1  0
  7  9  1  0
  8 19  2  0
  9 14  1  0
 10 18  1  0
 10 20  1  0
 11 17  1  0
 11 13  1  0
 12 18  1  0
 13 12  1  0
 14 13  2  0
 15 16  1  0
 15  9  2  0
 16 11  2  0
 17 10  1  0
 18  8  1  0
 20 22  2  0
 21 20  1  0
 23 21  1  0
 24 33  2  0
 24 29  1  0
 25 21  1  0
 25 29  1  0
 26 25  1  0
 27 28  1  0
 27 26  1  0
 28 24  1  0
 29 30  2  0
 30 31  1  0
 32 31  2  0
 33 32  1  0
 34  8  1  0
 34 39  1  0
 34 35  1  0
 35 38  1  1
 35 36  1  0
 37 35  1  0
 39 42  1  0
 40 44  1  0
 40 39  1  0
 41 40  2  0
 44 43  1  0
 46 44  1  0
 46 47  1  0
 46 45  1  0
 48 49  1  0
 50 49  1  0
 50 51  1  0
 52 53  1  0
 52 51  1  0
 54 53  1  0
 55 61  1  0
 55 63  1  0
 56 61  1  0
 57 58  1  0
 57 56  1  0
 59 58  1  0
 59 68  1  0
 59 60  1  0
 61 60  1  0
 62 55  2  0
 63 54  1  0
 64 63  1  0
 65 66  2  0
 66 85  1  0
 67 66  1  0
 67 70  1  0
 68 69  1  0
 68 65  1  0
 69 67  2  0
 70 71  1  0
 71 72  2  0
 73 76  1  0
 73 72  1  0
 74 73  2  0
 75 74  1  0
 75 70  2  0
 76 77  1  0
 77 78  1  0
 78 79  2  0
 80 79  1  0
 80 84  1  0
 81 80  2  0
 82 77  2  0
 82 81  1  0
 83 82  1  0
 85 86  1  0
 86 89  1  0
 86 88  1  0
 87 85  2  0
 90 65  1  0
 90 91  1  0
 92 90  1  0
M  ISO  4   6 101   7 101  55 100  63 100
M  END
>  <TORSDO>  (63) 
F 25

>  <SCORE>  (63) 
-9.271

>  <name>  (63) 
64

>  <ligand_id>  (63) 
64

>  <original_smiles>  (63) 
[H]c1c([H])c([H])c2c(c1[H])C([H])([H])C([H])([H])C([H])([H])C2([H])N([H])C(=O)C1([H])N(C(=O)C([H])(N([H])C(=O)C([H])(N([H])C([H])([H])[H])C([H])([H])[H])C(C([H])([H])[H])(C([H])([H])[H])C([H])([H])[H])C([H])([H])c2c([H])c(OC([H])([H])C(=O)N([H])C([H])([H])C([H])([H])OC([H])([H])C([H])([H])OC([H])([H])C([H])([H])N([H])C(=O)N3C([H])([H])C([H])([H])C([H])([H])C([H])(n4nc(-c5c([H])c([H])c(Oc6c([H])c([H])c(F)c([H])c6F)c([H])c5[H])c(C(=O)N([H])[H])c4N([H])[H])C3([H])[H])c([H])c([H])c2C1([H])[H]

>  <smiles>  (63) 
[H]c1c([H])c([H])c2c(c1[H])C([H])([H])C([H])([H])C([H])([H])C2([H])N([H])C(=O)C1([H])N(C(=O)C([H])(N([H])C(=O)C([H])(N([H])C([H])([H])[H])C([H])([H])[H])C(C([H])([H])[H])(C([H])([H])[H])C([H])([H])[H])C([H])([H])c2c([H])c(OC([H])([H])C(=O)N([H])C([H])([H])C([H])([H])OC([H])([H])C([H])([H])OC([H])([H])C([H])([H])N([H])C(=O)N3C([H])([H])C([H])([H])C([H])([H])C([H])(n4nc(-c5c([H])c([H])c(Oc6c([H])c([H])c(F)c([H])c6F)c([H])c5[H])c(C(=O)N([H])[H])c4N([H])[H])C3([H])[H])c([H])c([H])c2C1([H])[H]

$$$$
65:0:0
     RDKit          3D

100107  0  0  1  0  0  0  0  0999 V2000
  -28.0720  -21.9270   20.6160 C   0  0  0  0  0  0  0  0  0  0  0  0
  -28.6150  -20.7410   20.3160 N   0  0  0  0  0  0  0  0  0  0  0  0
  -27.7610  -22.2340   21.7710 O   0  0  0  0  0  0  0  0  0  0  0  0
  -28.8730  -20.5680   19.3530 H   0  0  0  0  0  0  0  0  0  0  0  0
  -27.8450  -22.9230   19.4580 C   0  0  0  0  0  3  0  0  0  0  0  0
  -27.8730  -24.3020   20.0080 N   0  0  0  0  0  4  0  0  0  0  0  0
  -27.0200  -24.4170   20.5370 H   0  0  0  0  0  0  0  0  0  0  0  0
  -28.6120  -24.2960   20.6940 H   0  0  0  0  0  0  0  0  0  0  0  0
  -28.0840  -25.4370   19.0730 C   0  0  0  0  0  2  0  0  0  0  0  0
  -28.3600  -26.7620   19.8100 C   0  0  0  0  0  2  0  0  0  0  0  0
  -28.0920  -27.8830   18.9650 O   0  0  0  0  0  0  0  0  0  0  0  0
  -24.4480  -32.2380   23.2150 C   0  0  0  0  0  0  0  0  0  0  0  0
  -26.8870  -28.4840   19.2270 C   0  0  0  0  0  0  0  0  0  0  0  0
  -23.0980  -30.9060   21.6240 C   0  0  0  0  0  3  0  0  0  0  0  0
  -24.4110  -29.6950   19.8060 C   0  0  0  0  0  0  0  0  0  0  0  0
  -25.5080  -31.5570   21.0660 C   0  0  0  0  0  2  0  0  0  0  0  0
  -25.6000  -30.2800   20.2610 C   0  0  0  0  0  0  0  0  0  0  0  0
  -26.8430  -29.6800   19.9710 C   0  0  0  0  0  3  0  0  0  0  0  0
  -25.6840  -27.9030   18.7710 C   0  0  0  0  0  3  0  0  0  0  0  0
  -24.4460  -28.5030   19.0630 C   0  0  0  0  0  3  0  0  0  0  0  0
  -23.1220  -30.4030   20.1570 C   0  0  0  0  0  2  0  0  0  0  0  0
  -24.3790  -31.5750   22.0260 N   0  0  0  0  0  0  0  0  0  0  0  0
  -23.4570  -32.3350   23.9510 O   0  0  0  0  0  0  0  0  0  0  0  0
  -22.7110  -29.7240   22.5420 C   0  0  0  0  0  0  0  0  0  0  0  0
  -21.4360  -29.3040   22.4710 N   0  0  0  0  0  0  0  0  0  0  0  0
  -23.5500  -29.1880   23.2690 O   0  0  0  0  0  0  0  0  0  0  0  0
  -20.8060  -29.8030   21.8590 H   0  0  0  0  0  0  0  0  0  0  0  0
  -18.4270  -27.3570   22.9100 C   0  0  0  0  0  0  0  0  0  0  0  0
  -20.8570  -28.1850   23.2120 C   0  0  0  0  0  3  0  0  0  0  0  0
  -21.2880  -26.8290   22.6050 C   0  0  0  0  0  2  0  0  0  0  0  0
  -20.2930  -26.2870   21.5740 C   0  0  0  0  0  2  0  0  0  0  0  0
  -18.9110  -26.1010   22.2060 C   0  0  0  0  0  2  0  0  0  0  0  0
  -19.3390  -28.3440   23.3680 C   0  0  0  0  0  0  0  0  0  0  0  0
  -18.8340  -29.5110   23.9780 C   0  0  0  0  0  3  0  0  0  0  0  0
  -17.4480  -29.6970   24.1410 C   0  0  0  0  0  3  0  0  0  0  0  0
  -16.5510  -28.7090   23.7010 C   0  0  0  0  0  3  0  0  0  0  0  0
  -17.0410  -27.5410   23.0890 C   0  0  0  0  0  3  0  0  0  0  0  0
  -25.7650  -32.9250   23.6950 C   0  0  0  0  0  3  0  0  0  0  0  0
  -25.4450  -34.3240   24.0100 N   0  0  0  0  0  0  0  0  0  0  0  0
  -25.6810  -35.3600   23.1930 C   0  0  0  0  0  0  0  0  0  0  0  0
  -26.2640  -35.2420   22.1120 O   0  0  0  0  0  0  0  0  0  0  0  0
  -24.9240  -34.4930   24.8580 H   0  0  0  0  0  0  0  0  0  0  0  0
  -23.8960  -37.1030   22.9060 C   0  0  0  0  0  1  0  0  0  0  0  0
  -25.1910  -36.7450   23.6520 C   0  0  0  0  0  3  0  0  0  0  0  0
  -27.3470  -37.6930   24.3420 C   0  0  0  0  0  1  0  0  0  0  0  0
  -26.1920  -37.8170   23.4580 N   0  0  0  0  0  0  0  0  0  0  0  0
  -25.7720  -38.7290   23.6100 H   0  0  0  0  0  0  0  0  0  0  0  0
  -26.4240  -32.2110   24.9360 C   0  0  1  0  0  0  0  0  0  0  0  0
  -25.4410  -31.9560   26.1020 C   0  0  0  0  0  1  0  0  0  0  0  0
  -27.0290  -30.8510   24.5180 C   0  0  0  0  0  1  0  0  0  0  0  0
  -27.5900  -33.0710   25.4790 C   0  0  0  0  0  1  0  0  0  0  0  0
  -26.6800  -22.8970   17.1350 C   0  0  0  0  0  1  0  0  0  0  0  0
  -25.2320  -23.0820   19.2410 C   0  0  0  0  0  1  0  0  0  0  0  0
  -26.5570  -22.5650   18.6380 C   0  0  0  0  0  3  0  0  0  0  0  0
  -28.9220  -19.6740   21.2680 C   0  0  0  0  0  2  0  0  0  0  0  0
  -30.4360  -19.5560   21.4910 C   0  0  0  0  0  2  0  0  0  0  0  0
  -30.9800  -18.8930   20.3610 O   0  0  0  0  0  0  0  0  0  0  0  0
  -32.3890  -19.0110   20.2460 C   0  0  0  0  0  2  0  0  0  0  0  0
  -32.8670  -17.8260   19.4040 C   0  0  0  0  0  2  0  0  0  0  0  0
  -32.5980  -16.6230   20.1080 O   0  0  0  0  0  0  0  0  0  0  0  0
  -33.1470  -15.4890   19.4580 C   0  0  0  0  0  2  0  0  0  0  0  0
  -33.5020  -14.4420   20.5160 C   0  0  0  0  0  2  0  0  0  0  0  0
  -32.7610  -12.0830   20.3290 C   0  0  0  0  0  0  0  0  0  0  0  0
  -32.4380   -9.8980   21.4100 C   0  0  0  0  0  2  0  0  0  0  0  0
  -31.7490   -8.8370   20.5420 C   0  0  0  0  0  2  0  0  0  0  0  0
  -30.2230   -8.9480   20.6730 C   0  0  0  0  0  2  0  0  0  0  0  0
  -29.7180  -10.3930   20.4310 C   0  0  0  0  0  3  0  0  0  0  0  0
  -30.5220  -11.4200   21.2610 C   0  0  0  0  0  2  0  0  0  0  0  0
  -31.9630  -11.2280   21.0090 N   0  0  0  0  0  0  0  0  0  0  0  0
  -33.7940  -11.7450   19.7410 O   0  0  0  0  0  0  0  0  0  0  0  0
  -32.5140  -13.3670   20.6010 N   0  0  0  0  0  0  0  0  0  0  0  0
  -31.6660  -13.5670   21.1110 H   0  0  0  0  0  0  0  0  0  0  0  0
  -27.4220  -11.5610   20.4470 C   0  0  0  0  0  0  0  0  0  0  0  0
  -26.1730  -11.1170   20.7900 C   0  0  0  0  0  0  0  0  0  0  0  0
  -26.3370   -9.7650   21.2210 C   0  0  0  0  0  0  0  0  0  0  0  0
  -28.2820  -10.4970   20.6830 N   0  0  0  0  0  0  0  0  0  0  0  0
  -27.6210   -9.4290   21.2010 N   0  0  0  0  0  0  0  0  0  0  0  0
  -25.3420   -8.7540   21.5970 C   0  0  0  0  0  0  0  0  0  0  0  0
  -25.1700   -8.3480   22.9390 C   0  0  0  0  0  3  0  0  0  0  0  0
  -24.1930   -7.3860   23.2780 C   0  0  0  0  0  3  0  0  0  0  0  0
  -23.3730   -6.8230   22.2710 C   0  0  0  0  0  0  0  0  0  0  0  0
  -23.5640   -7.2120   20.9330 C   0  0  0  0  0  3  0  0  0  0  0  0
  -24.5400   -8.1650   20.5980 C   0  0  0  0  0  3  0  0  0  0  0  0
  -22.4170   -5.8640   22.5040 O   0  0  0  0  0  0  0  0  0  0  0  0
  -21.5860   -5.9260   23.5920 C   0  0  0  0  0  0  0  0  0  0  0  0
  -20.6700   -6.9860   23.7730 C   0  0  0  0  0  3  0  0  0  0  0  0
  -19.7860   -6.9730   24.8700 C   0  0  0  0  0  3  0  0  0  0  0  0
  -19.8090   -5.9010   25.7810 C   0  0  0  0  0  0  0  0  0  0  0  0
  -20.7160   -4.8420   25.6010 C   0  0  0  0  0  3  0  0  0  0  0  0
  -21.6000   -4.8530   24.5080 C   0  0  0  0  0  0  0  0  0  0  0  0
  -22.4570   -3.8200   24.3260 F   0  0  0  0  0  0  0  0  0  0  0  0
  -18.9540   -5.8840   26.8310 F   0  0  0  0  0  0  0  0  0  0  0  0
  -24.8820  -11.8700   20.6380 C   0  0  0  0  0  0  0  0  0  0  0  0
  -23.9240  -11.6310   21.5270 N   0  0  0  0  0  0  0  0  0  0  0  0
  -24.7350  -12.7150   19.7560 O   0  0  0  0  0  0  0  0  0  0  0  0
  -24.0530  -10.9510   22.2620 H   0  0  0  0  0  0  0  0  0  0  0  0
  -23.0490  -12.1330   21.4710 H   0  0  0  0  0  0  0  0  0  0  0  0
  -27.8950  -12.7650   19.9370 N   0  0  0  0  0  0  0  0  0  0  0  0
  -27.2730  -13.5270   19.6870 H   0  0  0  0  0  0  0  0  0  0  0  0
  -28.8580  -12.9360   19.6770 H   0  0  0  0  0  0  0  0  0  0  0  0
  1  3  2  0
  2  1  1  0
  2 55  1  0
  4  2  1  0
  5 54  1  0
  5  6  1  0
  5  1  1  0
  6  7  1  0
  6  8  1  0
  9 10  1  0
  9  6  1  0
 11 13  1  0
 11 10  1  0
 12 23  2  0
 13 18  1  0
 14 22  1  0
 14 24  1  0
 15 21  1  0
 15 17  1  0
 16 22  1  0
 17 16  1  0
 18 17  2  0
 19 20  1  0
 19 13  2  0
 20 15  2  0
 21 14  1  0
 22 12  1  0
 24 26  2  0
 25 24  1  0
 27 25  1  0
 28 37  2  0
 28 33  1  0
 29 25  1  0
 29 33  1  0
 30 29  1  0
 31 32  1  0
 31 30  1  0
 32 28  1  0
 33 34  2  0
 34 35  1  0
 36 35  2  0
 37 36  1  0
 38 12  1  0
 38 39  1  0
 38 48  1  0
 39 42  1  0
 40 44  1  0
 40 39  1  0
 41 40  2  0
 44 43  1  0
 46 47  1  0
 46 44  1  0
 46 45  1  0
 48 51  1  1
 48 49  1  0
 50 48  1  0
 52 54  1  0
 54 53  1  0
 55 56  1  0
 57 56  1  0
 58 57  1  0
 59 60  1  0
 59 58  1  0
 61 60  1  0
 61 62  1  0
 62 71  1  0
 63 71  1  0
 63 69  1  0
 65 66  1  0
 65 64  1  0
 67 66  1  0
 67 76  1  0
 67 68  1  0
 69 68  1  0
 69 64  1  0
 70 63  2  0
 71 72  1  0
 73 76  1  0
 73 74  2  0
 74 75  1  0
 75 78  1  0
 76 77  1  0
 77 75  2  0
 78 79  1  0
 79 80  2  0
 81 84  1  0
 81 80  1  0
 82 81  2  0
 83 82  1  0
 83 78  2  0
 84 85  1  0
 85 86  2  0
 85 90  1  0
 86 87  1  0
 87 88  2  0
 88 92  1  0
 89 88  1  0
 90 89  2  0
 91 90  1  0
 93 74  1  0
 93 94  1  0
 94 96  1  0
 95 93  2  0
 97 94  1  0
 98 73  1  0
 99 98  1  0
100 98  1  0
M  ISO  4  10 101  11 101  63 100  71 100
M  END
>  <TORSDO>  (64) 
F 29

>  <SCORE>  (64) 
-2.901

>  <name>  (64) 
65

>  <ligand_id>  (64) 
65

>  <original_smiles>  (64) 
[H]c1c([H])c([H])c2c(c1[H])C([H])([H])C([H])([H])C([H])([H])C2([H])N([H])C(=O)C1([H])N(C(=O)C([H])(N([H])C(=O)C([H])(N([H])C([H])([H])[H])C([H])([H])[H])C(C([H])([H])[H])(C([H])([H])[H])C([H])([H])[H])C([H])([H])c2c([H])c(OC([H])([H])C([H])([H])[N+]([H])([H])C([H])(C(=O)N([H])C([H])([H])C([H])([H])OC([H])([H])C([H])([H])OC([H])([H])C([H])([H])N([H])C(=O)N3C([H])([H])C([H])([H])C([H])([H])C([H])(n4nc(-c5c([H])c([H])c(Oc6c([H])c([H])c(F)c([H])c6F)c([H])c5[H])c(C(=O)N([H])[H])c4N([H])[H])C3([H])[H])C([H])(C([H])([H])[H])C([H])([H])[H])c([H])c([H])c2C1([H])[H]

>  <smiles>  (64) 
[H]c1c([H])c([H])c2c(c1[H])C([H])([H])C([H])([H])C([H])([H])C2([H])N([H])C(=O)C1([H])N(C(=O)C([H])(N([H])C(=O)C([H])(N([H])C([H])([H])[H])C([H])([H])[H])C(C([H])([H])[H])(C([H])([H])[H])C([H])([H])[H])C([H])([H])c2c([H])c(OC([H])([H])C([H])([H])[N+]([H])([H])C([H])(C(=O)N([H])C([H])([H])C([H])([H])OC([H])([H])C([H])([H])OC([H])([H])C([H])([H])N([H])C(=O)N3C([H])([H])C([H])([H])C([H])([H])C([H])(n4nc(-c5c([H])c([H])c(Oc6c([H])c([H])c(F)c([H])c6F)c([H])c5[H])c(C(=O)N([H])[H])c4N([H])[H])C3([H])[H])C([H])(C([H])([H])[H])C([H])([H])[H])c([H])c([H])c2C1([H])[H]

$$$$
66:0:0
     RDKit          3D

 95102  0  0  1  0  0  0  0  0999 V2000
  -28.0400  -22.1480   20.0050 C   0  0  0  0  0  3  0  0  0  0  0  0
  -28.1420  -24.6420   19.9260 C   0  0  0  0  0  0  0  0  0  0  0  0
  -28.6260  -23.4330   19.5980 N   0  0  0  0  0  0  0  0  0  0  0  0
  -27.4040  -24.8010   20.9020 O   0  0  0  0  0  0  0  0  0  0  0  0
  -29.3170  -23.4050   18.8610 H   0  0  0  0  0  0  0  0  0  0  0  0
  -28.4840  -25.8110   18.9710 C   0  0  0  0  0  2  0  0  0  0  0  0
  -28.3450  -27.1120   19.5580 O   0  0  0  0  0  0  0  0  0  0  0  0
  -24.4950  -31.8430   23.1320 C   0  0  0  0  0  0  0  0  0  0  0  0
  -27.1320  -27.7730   19.5820 C   0  0  0  0  0  0  0  0  0  0  0  0
  -23.2560  -30.5410   21.4340 C   0  0  0  0  0  3  0  0  0  0  0  0
  -24.6890  -29.1860   19.8140 C   0  0  0  0  0  0  0  0  0  0  0  0
  -25.7530  -31.0080   21.1510 C   0  0  0  0  0  2  0  0  0  0  0  0
  -25.8500  -29.6950   20.4010 C   0  0  0  0  0  0  0  0  0  0  0  0
  -27.0690  -28.9920   20.2920 C   0  0  0  0  0  3  0  0  0  0  0  0
  -25.9530  -27.2880   18.9670 C   0  0  0  0  0  3  0  0  0  0  0  0
  -24.7350  -27.9800   19.0920 C   0  0  0  0  0  3  0  0  0  0  0  0
  -23.4190  -29.9890   19.9920 C   0  0  0  0  0  2  0  0  0  0  0  0
  -24.5220  -31.1420   21.9650 N   0  0  0  0  0  0  0  0  0  0  0  0
  -23.4330  -32.0310   23.7410 O   0  0  0  0  0  0  0  0  0  0  0  0
  -22.6850  -29.4220   22.3330 C   0  0  0  0  0  0  0  0  0  0  0  0
  -21.3690  -29.1790   22.2240 N   0  0  0  0  0  0  0  0  0  0  0  0
  -23.4220  -28.7780   23.0840 O   0  0  0  0  0  0  0  0  0  0  0  0
  -20.8310  -29.7600   21.5940 H   0  0  0  0  0  0  0  0  0  0  0  0
  -18.0810  -27.7520   22.6650 C   0  0  0  0  0  0  0  0  0  0  0  0
  -20.6210  -28.1450   22.9370 C   0  0  0  0  0  3  0  0  0  0  0  0
  -20.8040  -26.7620   22.2710 C   0  0  0  0  0  2  0  0  0  0  0  0
  -19.7140  -26.4390   21.2440 C   0  0  0  0  0  2  0  0  0  0  0  0
  -18.3340  -26.4600   21.9050 C   0  0  0  0  0  2  0  0  0  0  0  0
  -19.1570  -28.5510   23.1360 C   0  0  0  0  0  0  0  0  0  0  0  0
  -18.8700  -29.7610   23.8020 C   0  0  0  0  0  3  0  0  0  0  0  0
  -17.5400  -30.1730   24.0040 C   0  0  0  0  0  3  0  0  0  0  0  0
  -16.4790  -29.3710   23.5530 C   0  0  0  0  0  3  0  0  0  0  0  0
  -16.7500  -28.1620   22.8870 C   0  0  0  0  0  3  0  0  0  0  0  0
  -25.7910  -32.4650   23.7450 C   0  0  0  0  0  3  0  0  0  0  0  0
  -26.3690  -31.6300   24.9550 C   0  0  1  0  0  0  0  0  0  0  0  0
  -25.3210  -31.3080   26.0450 C   0  0  0  0  0  1  0  0  0  0  0  0
  -26.9630  -30.2930   24.4570 C   0  0  0  0  0  1  0  0  0  0  0  0
  -27.5260  -32.4120   25.6210 C   0  0  0  0  0  1  0  0  0  0  0  0
  -25.4660  -33.8360   24.1640 N   0  0  0  0  0  0  0  0  0  0  0  0
  -25.7640  -34.9360   23.4580 C   0  0  0  0  0  0  0  0  0  0  0  0
  -26.4120  -34.9030   22.4070 O   0  0  0  0  0  0  0  0  0  0  0  0
  -24.8870  -33.9330   24.9850 H   0  0  0  0  0  0  0  0  0  0  0  0
  -23.9950  -36.7110   23.2500 C   0  0  0  0  0  1  0  0  0  0  0  0
  -25.2650  -36.2860   24.0050 C   0  0  0  0  0  3  0  0  0  0  0  0
  -27.4030  -37.1650   24.8330 C   0  0  0  0  0  1  0  0  0  0  0  0
  -26.2740  -37.3640   23.9260 N   0  0  0  0  0  0  0  0  0  0  0  0
  -25.8570  -38.2670   24.1320 H   0  0  0  0  0  0  0  0  0  0  0  0
  -28.2980  -21.0720   18.9030 C   0  0  0  0  0  3  0  0  0  0  0  0
  -26.3010  -20.9770   17.5940 C   0  0  0  0  0  1  0  0  0  0  0  0
  -27.1020  -20.3550   18.5930 O   0  0  0  0  0  0  0  0  0  0  0  0
  -29.4560  -20.0720   19.1540 C   0  0  0  0  0  2  0  0  0  0  0  0
  -29.0800  -18.9380   19.9450 O   0  0  0  0  0  0  0  0  0  0  0  0
  -30.1620  -18.0410   20.2130 C   0  0  0  0  0  2  0  0  0  0  0  0
  -29.6190  -16.6200   20.4770 C   0  0  0  0  0  2  0  0  0  0  0  0
  -31.1450  -14.7120   20.0940 C   0  0  0  0  0  0  0  0  0  0  0  0
  -30.7820  -12.5100   19.0370 C   0  0  0  0  0  2  0  0  0  0  0  0
  -29.8150  -12.6180   17.8440 C   0  0  0  0  0  2  0  0  0  0  0  0
  -28.3540  -12.4930   18.3190 C   0  0  0  0  0  2  0  0  0  0  0  0
  -28.0390  -13.4300   19.5140 C   0  0  0  0  0  3  0  0  0  0  0  0
  -29.1140  -13.3040   20.6170 C   0  0  0  0  0  2  0  0  0  0  0  0
  -30.4290  -13.5580   20.0070 N   0  0  0  0  0  0  0  0  0  0  0  0
  -32.2230  -14.8800   19.5240 O   0  0  0  0  0  0  0  0  0  0  0  0
  -30.6680  -15.6770   20.8940 N   0  0  0  0  0  0  0  0  0  0  0  0
  -31.4310  -16.1800   21.3220 H   0  0  0  0  0  0  0  0  0  0  0  0
  -25.6950  -14.1170   20.3290 C   0  0  0  0  0  0  0  0  0  0  0  0
  -24.6150  -13.3800   20.7270 C   0  0  0  0  0  0  0  0  0  0  0  0
  -25.0260  -12.0130   20.6570 C   0  0  0  0  0  0  0  0  0  0  0  0
  -26.6980  -13.2010   20.0440 N   0  0  0  0  0  0  0  0  0  0  0  0
  -26.3010  -11.9300   20.3000 N   0  0  0  0  0  0  0  0  0  0  0  0
  -24.2610  -10.7770   20.8520 C   0  0  0  0  0  0  0  0  0  0  0  0
  -24.6250   -9.8330   21.8380 C   0  0  0  0  0  3  0  0  0  0  0  0
  -23.8650   -8.6570   22.0190 C   0  0  0  0  0  3  0  0  0  0  0  0
  -22.7250   -8.4170   21.2140 C   0  0  0  0  0  0  0  0  0  0  0  0
  -22.3800   -9.3490   20.2200 C   0  0  0  0  0  3  0  0  0  0  0  0
  -23.1400  -10.5160   20.0370 C   0  0  0  0  0  3  0  0  0  0  0  0
  -21.9450   -7.2890   21.3000 O   0  0  0  0  0  0  0  0  0  0  0  0
  -21.7360   -6.6480   22.4940 C   0  0  0  0  0  0  0  0  0  0  0  0
  -21.1360   -7.2970   23.5950 C   0  0  0  0  0  3  0  0  0  0  0  0
  -20.8780   -6.5790   24.7800 C   0  0  0  0  0  3  0  0  0  0  0  0
  -21.2100   -5.2130   24.8630 C   0  0  0  0  0  0  0  0  0  0  0  0
  -21.8000   -4.5630   23.7640 C   0  0  0  0  0  3  0  0  0  0  0  0
  -22.0600   -5.2790   22.5820 C   0  0  0  0  0  0  0  0  0  0  0  0
  -22.6090   -4.6420   21.5190 F   0  0  0  0  0  0  0  0  0  0  0  0
  -20.9540   -4.5230   25.9980 F   0  0  0  0  0  0  0  0  0  0  0  0
  -23.2470  -13.9030   21.0560 C   0  0  0  0  0  0  0  0  0  0  0  0
  -22.5270  -13.2260   21.9430 N   0  0  0  0  0  0  0  0  0  0  0  0
  -22.8270  -14.9480   20.5610 O   0  0  0  0  0  0  0  0  0  0  0  0
  -22.8790  -12.3840   22.3720 H   0  0  0  0  0  0  0  0  0  0  0  0
  -21.6120  -13.5620   22.2050 H   0  0  0  0  0  0  0  0  0  0  0  0
  -25.9050  -15.4850   20.1630 N   0  0  0  0  0  0  0  0  0  0  0  0
  -25.1530  -16.1540   20.2790 H   0  0  0  0  0  0  0  0  0  0  0  0
  -26.7400  -15.8960   19.7660 H   0  0  0  0  0  0  0  0  0  0  0  0
  -28.4360  -21.7570   21.4500 C   0  0  0  0  0  2  0  0  0  0  0  0
  -27.6290  -20.7010   21.9450 O   0  0  0  0  0  0  0  0  0  0  0  0
  -27.8890  -20.5370   22.8470 H   0  0  0  0  0  0  0  0  0  0  0  0
  1 93  1  0
  2  4  2  0
  3  2  1  0
  3  1  1  0
  5  3  1  0
  6  7  1  0
  6  2  1  0
  7  9  1  0
  8 19  2  0
  9 14  1  0
 10 18  1  0
 10 20  1  0
 11 17  1  0
 11 13  1  0
 12 18  1  0
 13 12  1  0
 14 13  2  0
 15 16  1  0
 15  9  2  0
 16 11  2  0
 17 10  1  0
 18  8  1  0
 20 22  2  0
 21 20  1  0
 23 21  1  0
 24 33  2  0
 24 29  1  0
 25 21  1  0
 25 29  1  0
 26 25  1  0
 27 28  1  0
 27 26  1  0
 28 24  1  0
 29 30  2  0
 30 31  1  0
 32 31  2  0
 33 32  1  0
 34  8  1  0
 34 39  1  0
 34 35  1  0
 35 38  1  1
 35 36  1  0
 37 35  1  0
 39 42  1  0
 40 44  1  0
 40 39  1  0
 41 40  2  0
 44 43  1  0
 46 44  1  0
 46 47  1  0
 46 45  1  0
 48 51  1  0
 48  1  1  0
 49 50  1  0
 50 48  1  0
 51 52  1  0
 52 53  1  0
 53 54  1  0
 54 63  1  0
 55 63  1  0
 56 61  1  0
 57 58  1  0
 57 56  1  0
 59 58  1  0
 59 68  1  0
 59 60  1  0
 61 55  1  0
 61 60  1  0
 62 55  2  0
 63 64  1  0
 65 66  2  0
 66 85  1  0
 67 66  1  0
 67 70  1  0
 68 69  1  0
 68 65  1  0
 69 67  2  0
 70 71  1  0
 71 72  2  0
 73 76  1  0
 73 72  1  0
 74 73  2  0
 75 74  1  0
 75 70  2  0
 76 77  1  0
 77 82  2  0
 77 78  1  0
 78 79  2  0
 79 80  1  0
 80 84  1  0
 81 80  2  0
 82 81  1  0
 83 82  1  0
 85 86  1  0
 86 89  1  0
 86 88  1  0
 87 85  2  0
 90 91  1  0
 90 65  1  0
 92 90  1  0
 93 94  1  0
 94 95  1  0
M  ISO  4   6 101   7 101  55 100  63 100
M  END
>  <TORSDO>  (65) 
F 26

>  <SCORE>  (65) 
-10.887

>  <name>  (65) 
66

>  <ligand_id>  (65) 
66

>  <original_smiles>  (65) 
[H]OC([H])([H])C([H])(N([H])C(=O)C([H])([H])Oc1c([H])c([H])c2c(c1[H])C([H])([H])N(C(=O)C([H])(N([H])C(=O)C([H])(N([H])C([H])([H])[H])C([H])([H])[H])C(C([H])([H])[H])(C([H])([H])[H])C([H])([H])[H])C([H])(C(=O)N([H])C1([H])c3c([H])c([H])c([H])c([H])c3C([H])([H])C([H])([H])C1([H])[H])C2([H])[H])C([H])(OC([H])([H])[H])C([H])([H])OC([H])([H])C([H])([H])N([H])C(=O)N1C([H])([H])C([H])([H])C([H])([H])C([H])(n2nc(-c3c([H])c([H])c(Oc4c([H])c([H])c(F)c([H])c4F)c([H])c3[H])c(C(=O)N([H])[H])c2N([H])[H])C1([H])[H]

>  <smiles>  (65) 
[H]OC([H])([H])C([H])(N([H])C(=O)C([H])([H])Oc1c([H])c([H])c2c(c1[H])C([H])([H])N(C(=O)C([H])(N([H])C(=O)C([H])(N([H])C([H])([H])[H])C([H])([H])[H])C(C([H])([H])[H])(C([H])([H])[H])C([H])([H])[H])C([H])(C(=O)N([H])C1([H])c3c([H])c([H])c([H])c([H])c3C([H])([H])C([H])([H])C1([H])[H])C2([H])[H])C([H])(OC([H])([H])[H])C([H])([H])OC([H])([H])C([H])([H])N([H])C(=O)N1C([H])([H])C([H])([H])C([H])([H])C([H])(n2nc(-c3c([H])c([H])c(Oc4c([H])c([H])c(F)c([H])c4F)c([H])c3[H])c(C(=O)N([H])[H])c2N([H])[H])C1([H])[H]

$$$$
67:0:0
     RDKit          3D

106113  0  0  1  0  0  0  0  0999 V2000
  -31.6590  -19.4410   19.9340 C   0  0  0  0  0  3  0  0  0  0  0  0
  -31.9430  -20.5350   20.9840 C   0  0  0  0  0  0  0  0  0  0  0  0
  -31.1480  -21.6120   21.0150 N   0  0  0  0  0  0  0  0  0  0  0  0
  -32.9130  -20.4180   21.7400 O   0  0  0  0  0  0  0  0  0  0  0  0
  -30.3350  -21.6230   20.4020 H   0  0  0  0  0  0  0  0  0  0  0  0
  -31.3720  -22.7950   21.8400 C   0  0  0  0  0  2  0  0  0  0  0  0
  -30.0530  -23.4240   22.2970 C   0  0  0  0  0  2  0  0  0  0  0  0
  -29.2660  -23.7820   21.1660 O   0  0  0  0  0  0  0  0  0  0  0  0
  -28.1960  -24.6610   21.5020 C   0  0  0  0  0  2  0  0  0  0  0  0
  -28.6610  -26.1310   21.4480 C   0  0  0  0  0  2  0  0  0  0  0  0
  -28.3560  -26.7050   20.1760 O   0  0  0  0  0  0  0  0  0  0  0  0
  -24.5620  -31.8670   23.2410 C   0  0  0  0  0  0  0  0  0  0  0  0
  -27.1990  -27.4390   20.1780 C   0  0  0  0  0  0  0  0  0  0  0  0
  -23.3480  -30.4590   21.6060 C   0  0  0  0  0  3  0  0  0  0  0  0
  -24.7990  -28.9150   20.1850 C   0  0  0  0  0  0  0  0  0  0  0  0
  -25.8680  -30.8250   21.3990 C   0  0  0  0  0  2  0  0  0  0  0  0
  -25.9530  -29.4510   20.7720 C   0  0  0  0  0  0  0  0  0  0  0  0
  -27.1550  -28.7170   20.7730 C   0  0  0  0  0  3  0  0  0  0  0  0
  -26.0400  -26.9100   19.5790 C   0  0  0  0  0  3  0  0  0  0  0  0
  -24.8350  -27.6400   19.5880 C   0  0  0  0  0  3  0  0  0  0  0  0
  -23.5530  -29.7690   20.2280 C   0  0  0  0  0  2  0  0  0  0  0  0
  -24.6100  -31.0650   22.1410 N   0  0  0  0  0  0  0  0  0  0  0  0
  -23.4840  -32.1440   23.7850 O   0  0  0  0  0  0  0  0  0  0  0  0
  -22.7010  -29.4420   22.5730 C   0  0  0  0  0  0  0  0  0  0  0  0
  -21.3770  -29.2600   22.4470 N   0  0  0  0  0  0  0  0  0  0  0  0
  -23.3860  -28.8200   23.3900 O   0  0  0  0  0  0  0  0  0  0  0  0
  -20.8870  -29.8160   21.7600 H   0  0  0  0  0  0  0  0  0  0  0  0
  -18.0020  -28.0810   22.9530 C   0  0  0  0  0  0  0  0  0  0  0  0
  -20.5600  -28.3280   23.2220 C   0  0  0  0  0  3  0  0  0  0  0  0
  -20.6580  -26.8950   22.6500 C   0  0  0  0  0  2  0  0  0  0  0  0
  -19.5530  -26.5740   21.6380 C   0  0  0  0  0  2  0  0  0  0  0  0
  -18.1720  -26.7270   22.2820 C   0  0  0  0  0  2  0  0  0  0  0  0
  -19.1230  -28.8390   23.3800 C   0  0  0  0  0  0  0  0  0  0  0  0
  -18.9120  -30.1060   23.9650 C   0  0  0  0  0  3  0  0  0  0  0  0
  -17.6110  -30.6160   24.1270 C   0  0  0  0  0  3  0  0  0  0  0  0
  -16.5030  -29.8540   23.7170 C   0  0  0  0  0  3  0  0  0  0  0  0
  -16.6990  -28.5890   23.1360 C   0  0  0  0  0  3  0  0  0  0  0  0
  -25.8530  -32.4950   23.8540 C   0  0  0  0  0  3  0  0  0  0  0  0
  -26.3800  -31.7250   25.1280 C   0  0  1  0  0  0  0  0  0  0  0  0
  -25.2930  -31.4910   26.2030 C   0  0  0  0  0  1  0  0  0  0  0  0
  -26.9570  -30.3470   24.7300 C   0  0  0  0  0  1  0  0  0  0  0  0
  -27.5340  -32.5190   25.7830 C   0  0  0  0  0  1  0  0  0  0  0  0
  -25.5530  -33.8950   24.1790 N   0  0  0  0  0  0  0  0  0  0  0  0
  -25.8910  -34.9420   23.4160 C   0  0  0  0  0  0  0  0  0  0  0  0
  -26.5640  -34.8330   22.3870 O   0  0  0  0  0  0  0  0  0  0  0  0
  -24.9580  -34.0570   24.9790 H   0  0  0  0  0  0  0  0  0  0  0  0
  -24.1740  -36.7430   23.0450 C   0  0  0  0  0  1  0  0  0  0  0  0
  -25.4060  -36.3330   23.8660 C   0  0  0  0  0  3  0  0  0  0  0  0
  -27.5380  -37.2100   24.7150 C   0  0  0  0  0  1  0  0  0  0  0  0
  -26.4440  -37.3820   23.7620 N   0  0  0  0  0  0  0  0  0  0  0  0
  -26.0410  -38.3030   23.9060 H   0  0  0  0  0  0  0  0  0  0  0  0
  -32.9590  -18.8140   19.6270 N   0  0  0  0  0  4  0  0  0  0  0  0
  -33.3850  -18.5280   20.4930 H   0  0  0  0  0  0  0  0  0  0  0  0
  -33.5620  -19.5010   19.2160 H   0  0  0  0  0  0  0  0  0  0  0  0
  -32.8660  -18.0410   18.9960 H   0  0  0  0  0  0  0  0  0  0  0  0
  -30.5370  -18.4120   20.3910 C   0  0  0  0  0  3  0  0  0  0  0  0
  -28.6260  -19.6010   19.2210 C   0  0  0  0  0  0  0  0  0  0  0  0
  -29.3140  -18.5020   19.5720 N   0  0  0  0  0  0  0  0  0  0  0  0
  -28.9390  -20.7290   19.6090 O   0  0  0  0  0  0  0  0  0  0  0  0
  -28.9360  -17.6280   19.2320 H   0  0  0  0  0  0  0  0  0  0  0  0
  -27.4400  -19.4310   18.2560 C   0  0  0  0  0  3  0  0  0  0  0  0
  -27.3980  -20.5790   17.3400 N   0  0  0  0  0  4  0  0  0  0  0  0
  -27.3300  -21.4270   17.8750 H   0  0  0  0  0  0  0  0  0  0  0  0
  -26.6230  -20.5070   16.7050 H   0  0  0  0  0  0  0  0  0  0  0  0
  -28.2500  -20.6200   16.8120 H   0  0  0  0  0  0  0  0  0  0  0  0
  -26.0920  -19.2720   18.9970 C   0  0  0  0  0  2  0  0  0  0  0  0
  -26.0420  -18.1060   19.8050 O   0  0  0  0  0  0  0  0  0  0  0  0
  -25.1690  -18.0560   20.1810 H   0  0  0  0  0  0  0  0  0  0  0  0
  -31.0310  -16.9430   20.4130 C   0  0  0  0  0  2  0  0  0  0  0  0
  -30.1020  -15.7880   20.9000 C   0  0  0  0  0  2  0  0  0  0  0  0
  -30.7430  -14.4310   20.5190 C   0  0  0  0  0  0  0  0  0  0  0  0
  -30.3600  -12.3000   19.3750 C   0  0  0  0  0  2  0  0  0  0  0  0
  -29.4630  -12.5670   18.1510 C   0  0  0  0  0  2  0  0  0  0  0  0
  -27.9780  -12.4560   18.5480 C   0  0  0  0  0  2  0  0  0  0  0  0
  -27.6290  -13.2820   19.8150 C   0  0  0  0  0  3  0  0  0  0  0  0
  -28.6650  -13.0700   20.9430 C   0  0  0  0  0  2  0  0  0  0  0  0
  -30.0070  -13.2960   20.3960 N   0  0  0  0  0  0  0  0  0  0  0  0
  -31.9170  -14.4640   20.1470 O   0  0  0  0  0  0  0  0  0  0  0  0
  -25.2140  -13.8800   20.4700 C   0  0  0  0  0  0  0  0  0  0  0  0
  -24.1410  -13.1110   20.8230 C   0  0  0  0  0  0  0  0  0  0  0  0
  -24.6080  -11.7620   20.8250 C   0  0  0  0  0  0  0  0  0  0  0  0
  -26.2680  -13.0030   20.2740 N   0  0  0  0  0  0  0  0  0  0  0  0
  -25.9060  -11.7230   20.5490 N   0  0  0  0  0  0  0  0  0  0  0  0
  -23.8810  -10.5010   21.0170 C   0  0  0  0  0  0  0  0  0  0  0  0
  -24.2920   -9.5480   21.9740 C   0  0  0  0  0  3  0  0  0  0  0  0
  -23.5650   -8.3510   22.1530 C   0  0  0  0  0  3  0  0  0  0  0  0
  -22.4120   -8.0990   21.3720 C   0  0  0  0  0  0  0  0  0  0  0  0
  -22.0200   -9.0410   20.4040 C   0  0  0  0  0  3  0  0  0  0  0  0
  -22.7490  -10.2280   20.2240 C   0  0  0  0  0  3  0  0  0  0  0  0
  -21.6590   -6.9530   21.4590 O   0  0  0  0  0  0  0  0  0  0  0  0
  -21.5850   -6.2250   22.6190 C   0  0  0  0  0  0  0  0  0  0  0  0
  -21.1340   -6.7970   23.8280 C   0  0  0  0  0  3  0  0  0  0  0  0
  -21.0090   -5.9960   24.9820 C   0  0  0  0  0  3  0  0  0  0  0  0
  -21.3260   -4.6260   24.9240 C   0  0  0  0  0  0  0  0  0  0  0  0
  -21.7710   -4.0540   23.7190 C   0  0  0  0  0  3  0  0  0  0  0  0
  -21.8970   -4.8510   22.5690 C   0  0  0  0  0  0  0  0  0  0  0  0
  -22.3080   -4.2920   21.4040 F   0  0  0  0  0  0  0  0  0  0  0  0
  -21.1970   -3.8550   26.0280 F   0  0  0  0  0  0  0  0  0  0  0  0
  -22.7350  -13.5890   21.0490 C   0  0  0  0  0  0  0  0  0  0  0  0
  -21.9880  -12.9030   21.9070 N   0  0  0  0  0  0  0  0  0  0  0  0
  -22.3080  -14.6050   20.5030 O   0  0  0  0  0  0  0  0  0  0  0  0
  -22.3480  -12.0820   22.3680 H   0  0  0  0  0  0  0  0  0  0  0  0
  -21.0430  -13.2040   22.1050 H   0  0  0  0  0  0  0  0  0  0  0  0
  -25.3700  -15.2470   20.2780 N   0  0  0  0  0  0  0  0  0  0  0  0
  -24.5860  -15.8810   20.3700 H   0  0  0  0  0  0  0  0  0  0  0  0
  -26.2030  -15.7090   19.9330 H   0  0  0  0  0  0  0  0  0  0  0  0
  1 56  1  0
  1  2  1  0
  2  3  1  0
  2  4  2  0
  3  6  1  0
  5  3  1  0
  6  7  1  0
  8  9  1  0
  8  7  1  0
 10  9  1  0
 11 13  1  0
 11 10  1  0
 12 23  2  0
 13 18  1  0
 14 22  1  0
 14 24  1  0
 15 21  1  0
 15 17  1  0
 16 22  1  0
 17 18  2  0
 17 16  1  0
 19 20  1  0
 19 13  2  0
 20 15  2  0
 21 14  1  0
 22 12  1  0
 24 26  2  0
 25 24  1  0
 27 25  1  0
 28 37  2  0
 28 33  1  0
 29 25  1  0
 29 33  1  0
 30 29  1  0
 31 32  1  0
 31 30  1  0
 32 28  1  0
 33 34  2  0
 34 35  1  0
 36 35  2  0
 37 36  1  0
 38 12  1  0
 38 43  1  0
 38 39  1  0
 39 42  1  1
 39 40  1  0
 41 39  1  0
 43 46  1  0
 44 48  1  0
 44 43  1  0
 45 44  2  0
 48 47  1  0
 50 48  1  0
 50 51  1  0
 50 49  1  0
 52  1  1  0
 52 53  1  0
 54 52  1  0
 55 52  1  0
 56 69  1  0
 57 58  1  0
 57 59  2  0
 58 56  1  0
 60 58  1  0
 61 66  1  0
 61 57  1  0
 62 63  1  0
 62 61  1  0
 64 62  1  0
 65 62  1  0
 66 67  1  0
 67 68  1  0
 69 70  1  0
 71 70  1  0
 72 77  1  0
 73 74  1  0
 73 72  1  0
 75 74  1  0
 75 82  1  0
 75 76  1  0
 77 71  1  0
 77 76  1  0
 78 71  2  0
 79 80  2  0
 80 81  1  0
 80 99  1  0
 81 84  1  0
 82 79  1  0
 82 83  1  0
 83 81  2  0
 84 85  1  0
 85 86  2  0
 87 90  1  0
 87 86  1  0
 88 87  2  0
 89 88  1  0
 89 84  2  0
 90 91  1  0
 91 92  1  0
 92 93  2  0
 94 93  1  0
 94 98  1  0
 95 94  2  0
 96 91  2  0
 96 95  1  0
 97 96  1  0
 99100  1  0
100103  1  0
100102  1  0
101 99  2  0
104105  1  0
104 79  1  0
106104  1  0
M  ISO  4  10 101  11 101  70 100  71 100
M  END
>  <TORSDO>  (66) 
F 31

>  <SCORE>  (66) 
-10.941

>  <name>  (66) 
67

>  <ligand_id>  (66) 
67

>  <original_smiles>  (66) 
[H]OC([H])([H])C([H])(C(=O)N([H])C([H])(C([H])([H])C([H])([H])C(=O)N1C([H])([H])C([H])([H])C([H])([H])C([H])(n2nc(-c3c([H])c([H])c(Oc4c([H])c([H])c(F)c([H])c4F)c([H])c3[H])c(C(=O)N([H])[H])c2N([H])[H])C1([H])[H])C([H])(C(=O)N([H])C([H])([H])C([H])([H])OC([H])([H])C([H])([H])Oc1c([H])c([H])c2c(c1[H])C([H])([H])N(C(=O)C([H])(N([H])C(=O)C([H])(N([H])C([H])([H])[H])C([H])([H])[H])C(C([H])([H])[H])(C([H])([H])[H])C([H])([H])[H])C([H])(C(=O)N([H])C1([H])c3c([H])c([H])c([H])c([H])c3C([H])([H])C([H])([H])C1([H])[H])C2([H])[H])[N+]([H])([H])[H])[N+]([H])([H])[H]

>  <smiles>  (66) 
[H]OC([H])([H])C([H])(C(=O)N([H])C([H])(C([H])([H])C([H])([H])C(=O)N1C([H])([H])C([H])([H])C([H])([H])C([H])(n2nc(-c3c([H])c([H])c(Oc4c([H])c([H])c(F)c([H])c4F)c([H])c3[H])c(C(=O)N([H])[H])c2N([H])[H])C1([H])[H])C([H])(C(=O)N([H])C([H])([H])C([H])([H])OC([H])([H])C([H])([H])Oc1c([H])c([H])c2c(c1[H])C([H])([H])N(C(=O)C([H])(N([H])C(=O)C([H])(N([H])C([H])([H])[H])C([H])([H])[H])C(C([H])([H])[H])(C([H])([H])[H])C([H])([H])[H])C([H])(C(=O)N([H])C1([H])c3c([H])c([H])c([H])c([H])c3C([H])([H])C([H])([H])C1([H])[H])C2([H])[H])[N+]([H])([H])[H])[N+]([H])([H])[H]

$$$$
68:0:0
     RDKit          3D

108115  0  0  1  0  0  0  0  0999 V2000
  -29.5200  -23.5760   20.7940 C   0  0  0  0  0  3  0  0  0  0  0  0
  -27.7620  -23.2710   19.0530 C   0  0  0  0  0  0  0  0  0  0  0  0
  -28.1370  -23.3540   20.3370 N   0  0  0  0  0  0  0  0  0  0  0  0
  -28.5070  -23.6280   18.1400 O   0  0  0  0  0  0  0  0  0  0  0  0
  -27.4730  -23.0400   21.0340 H   0  0  0  0  0  0  0  0  0  0  0  0
  -26.5800  -21.4550   17.7880 C   0  0  0  0  0  1  0  0  0  0  0  0
  -25.5530  -22.2780   19.9430 C   0  0  0  0  0  1  0  0  0  0  0  0
  -26.3760  -22.6890   18.6990 C   0  0  1  0  0  0  0  0  0  0  0  0
  -25.6820  -23.7510   17.9530 N   0  0  0  0  0  4  0  0  0  0  0  0
  -26.3040  -24.0930   17.2390 H   0  0  0  0  0  0  0  0  0  0  0  0
  -25.4720  -24.5220   18.5610 H   0  0  0  0  0  0  0  0  0  0  0  0
  -24.8280  -23.4270   17.5350 H   0  0  0  0  0  0  0  0  0  0  0  0
  -29.9150  -22.3540   21.6440 C   0  0  0  0  0  0  0  0  0  0  0  0
  -30.2510  -21.2540   20.9610 N   0  0  0  0  0  0  0  0  0  0  0  0
  -29.8690  -22.3780   22.8730 O   0  0  0  0  0  0  0  0  0  0  0  0
  -30.2760  -21.3270   19.9530 H   0  0  0  0  0  0  0  0  0  0  0  0
  -30.6050  -19.9620   21.5400 C   0  0  0  0  0  2  0  0  0  0  0  0
  -30.3810  -18.8270   20.5320 C   0  0  0  0  0  2  0  0  0  0  0  0
  -30.8760  -17.6200   21.0930 O   0  0  0  0  0  0  0  0  0  0  0  0
  -30.7190  -16.5010   20.2300 C   0  0  0  0  0  2  0  0  0  0  0  0
  -31.5910  -15.3370   20.7270 C   0  0  0  0  0  2  0  0  0  0  0  0
  -32.9540  -15.7140   20.5970 O   0  0  0  0  0  0  0  0  0  0  0  0
  -33.8830  -14.7090   20.9790 C   0  0  0  0  0  2  0  0  0  0  0  0
  -35.2920  -15.2410   20.6700 C   0  0  0  0  0  2  0  0  0  0  0  0
  -35.6500  -14.9370   19.3280 O   0  0  0  0  0  0  0  0  0  0  0  0
  -36.5500  -15.8730   18.7430 C   0  0  0  0  0  2  0  0  0  0  0  0
  -35.7950  -16.8340   17.7940 C   0  0  0  0  0  2  0  0  0  0  0  0
  -34.1610  -15.4240   16.5560 C   0  0  0  0  0  0  0  0  0  0  0  0
  -35.3360  -13.7280   15.3430 C   0  0  0  0  0  2  0  0  0  0  0  0
  -36.0830  -14.4440   14.2110 C   0  0  0  0  0  2  0  0  0  0  0  0
  -35.2100  -14.4390   12.9520 C   0  0  0  0  0  2  0  0  0  0  0  0
  -33.7390  -14.8840   13.1860 C   0  0  0  0  0  3  0  0  0  0  0  0
  -33.1260  -14.2910   14.4940 C   0  0  0  0  0  2  0  0  0  0  0  0
  -34.1150  -14.4860   15.5780 N   0  0  0  0  0  0  0  0  0  0  0  0
  -33.3470  -15.6260   17.4140 O   0  0  0  0  0  0  0  0  0  0  0  0
  -35.3040  -16.1170   16.6160 N   0  0  0  0  0  0  0  0  0  0  0  0
  -35.9730  -15.9140   15.8880 H   0  0  0  0  0  0  0  0  0  0  0  0
  -32.3500  -15.5200   11.1030 C   0  0  0  0  0  0  0  0  0  0  0  0
  -31.8720  -14.7770   10.0560 C   0  0  0  0  0  0  0  0  0  0  0  0
  -32.2420  -13.4250   10.3300 C   0  0  0  0  0  0  0  0  0  0  0  0
  -32.9590  -14.6230   11.9690 N   0  0  0  0  0  0  0  0  0  0  0  0
  -32.8410  -13.3480   11.5150 N   0  0  0  0  0  0  0  0  0  0  0  0
  -32.1090  -12.2130    9.5100 C   0  0  0  0  0  0  0  0  0  0  0  0
  -31.5430  -11.0280   10.0330 C   0  0  0  0  0  3  0  0  0  0  0  0
  -31.3980   -9.8820    9.2230 C   0  0  0  0  0  3  0  0  0  0  0  0
  -31.8220   -9.9120    7.8710 C   0  0  0  0  0  0  0  0  0  0  0  0
  -32.4090  -11.0850    7.3620 C   0  0  0  0  0  3  0  0  0  0  0  0
  -32.5550  -12.2210    8.1720 C   0  0  0  0  0  3  0  0  0  0  0  0
  -31.7440   -8.8400    7.0140 O   0  0  0  0  0  0  0  0  0  0  0  0
  -30.8330   -7.8330    7.2080 C   0  0  0  0  0  0  0  0  0  0  0  0
  -29.4460   -8.0850    7.2870 C   0  0  0  0  0  3  0  0  0  0  0  0
  -28.5420   -7.0100    7.4130 C   0  0  0  0  0  3  0  0  0  0  0  0
  -29.0190   -5.6870    7.4540 C   0  0  0  0  0  0  0  0  0  0  0  0
  -30.4010   -5.4350    7.3750 C   0  0  0  0  0  3  0  0  0  0  0  0
  -31.3040   -6.5060    7.2490 C   0  0  0  0  0  0  0  0  0  0  0  0
  -32.6320   -6.2530    7.1480 F   0  0  0  0  0  0  0  0  0  0  0  0
  -28.1520   -4.6550    7.5700 F   0  0  0  0  0  0  0  0  0  0  0  0
  -31.1960  -15.3010    8.8190 C   0  0  0  0  0  0  0  0  0  0  0  0
  -30.2840  -14.5300    8.2430 N   0  0  0  0  0  0  0  0  0  0  0  0
  -31.4390  -16.4270    8.3840 O   0  0  0  0  0  0  0  0  0  0  0  0
  -30.0730  -13.6180    8.6190 H   0  0  0  0  0  0  0  0  0  0  0  0
  -29.7980  -14.8550    7.4180 H   0  0  0  0  0  0  0  0  0  0  0  0
  -32.3360  -16.8850   11.3800 N   0  0  0  0  0  0  0  0  0  0  0  0
  -31.9380  -17.5570   10.7340 H   0  0  0  0  0  0  0  0  0  0  0  0
  -32.7650  -17.3180   12.1880 H   0  0  0  0  0  0  0  0  0  0  0  0
  -29.6140  -24.8720   21.6330 C   0  0  0  0  0  2  0  0  0  0  0  0
  -29.1410  -26.1050   20.8590 C   0  0  0  0  0  2  0  0  0  0  0  0
  -29.4700  -27.2830   21.5980 O   0  0  0  0  0  0  0  0  0  0  0  0
  -26.4390  -32.3540   25.5070 C   0  0  0  0  0  0  0  0  0  0  0  0
  -28.4900  -28.2430   21.6460 C   0  0  0  0  0  0  0  0  0  0  0  0
  -25.1850  -31.6550   23.4940 C   0  0  0  0  0  3  0  0  0  0  0  0
  -26.4660  -30.1980   21.8430 C   0  0  0  0  0  0  0  0  0  0  0  0
  -27.7370  -31.4890   23.5650 C   0  0  0  0  0  2  0  0  0  0  0  0
  -27.6260  -30.3120   22.6190 C   0  0  0  0  0  0  0  0  0  0  0  0
  -28.6460  -29.3420   22.5180 C   0  0  0  0  0  3  0  0  0  0  0  0
  -27.3210  -28.1530   20.8540 C   0  0  0  0  0  3  0  0  0  0  0  0
  -26.3080  -29.1210   20.9570 C   0  0  0  0  0  3  0  0  0  0  0  0
  -25.4180  -31.2740   22.0090 C   0  0  0  0  0  2  0  0  0  0  0  0
  -26.4680  -31.8290   24.2490 N   0  0  0  0  0  0  0  0  0  0  0  0
  -25.3760  -32.7320   26.0160 O   0  0  0  0  0  0  0  0  0  0  0  0
  -24.2350  -30.6130   24.1270 C   0  0  0  0  0  0  0  0  0  0  0  0
  -22.9420  -30.9630   24.2260 N   0  0  0  0  0  0  0  0  0  0  0  0
  -24.6540  -29.5100   24.4890 O   0  0  0  0  0  0  0  0  0  0  0  0
  -22.6790  -31.8870   23.9130 H   0  0  0  0  0  0  0  0  0  0  0  0
  -19.5200  -31.0380   25.3820 C   0  0  0  0  0  0  0  0  0  0  0  0
  -21.8610  -30.1340   24.7570 C   0  0  0  0  0  3  0  0  0  0  0  0
  -21.1480  -29.3600   23.6250 C   0  0  0  0  0  2  0  0  0  0  0  0
  -19.9240  -30.0950   23.0700 C   0  0  0  0  0  2  0  0  0  0  0  0
  -18.8990  -30.3490   24.1790 C   0  0  0  0  0  2  0  0  0  0  0  0
  -20.9130  -30.9500   25.6450 C   0  0  0  0  0  0  0  0  0  0  0  0
  -21.4430  -31.6400   26.7570 C   0  0  0  0  0  3  0  0  0  0  0  0
  -20.6100  -32.4000   27.5990 C   0  0  0  0  0  3  0  0  0  0  0  0
  -19.2290  -32.4690   27.3440 C   0  0  0  0  0  3  0  0  0  0  0  0
  -18.6870  -31.7860   26.2400 C   0  0  0  0  0  3  0  0  0  0  0  0
  -27.7410  -32.5320   26.3480 C   0  0  0  0  0  3  0  0  0  0  0  0
  -27.8930  -31.4540   27.4880 C   0  0  1  0  0  0  0  0  0  0  0  0
  -26.6420  -31.3170   28.3850 C   0  0  0  0  0  1  0  0  0  0  0  0
  -28.1980  -30.0640   26.8840 C   0  0  0  0  0  1  0  0  0  0  0  0
  -29.0950  -31.8170   28.3930 C   0  0  0  0  0  1  0  0  0  0  0  0
  -27.7220  -33.8890   26.9090 N   0  0  0  0  0  0  0  0  0  0  0  0
  -28.3640  -34.9380   26.3800 C   0  0  0  0  0  0  0  0  0  0  0  0
  -29.1020  -34.8450   25.3950 O   0  0  0  0  0  0  0  0  0  0  0  0
  -27.0930  -34.0520   27.6820 H   0  0  0  0  0  0  0  0  0  0  0  0
  -27.1100  -37.1120   26.2660 C   0  0  0  0  0  1  0  0  0  0  0  0
  -28.1570  -36.3080   27.0510 C   0  0  0  0  0  3  0  0  0  0  0  0
  -30.3670  -36.5150   28.1020 C   0  0  0  0  0  1  0  0  0  0  0  0
  -29.4020  -37.0990   27.1740 N   0  0  0  0  0  0  0  0  0  0  0  0
  -29.1990  -38.0460   27.4810 H   0  0  0  0  0  0  0  0  0  0  0  0
  1 66  1  0
  1 13  1  0
  2  3  1  0
  3  1  1  0
  3  5  1  0
  4  2  2  0
  8  6  1  6
  8  2  1  0
  8  7  1  0
  9 11  1  0
  9  8  1  0
 10  9  1  0
 12  9  1  0
 13 15  2  0
 14 17  1  0
 14 13  1  0
 16 14  1  0
 18 19  1  0
 18 17  1  0
 20 21  1  0
 20 19  1  0
 22 21  1  0
 22 23  1  0
 24 23  1  0
 25 24  1  0
 26 25  1  0
 27 26  1  0
 28 36  1  0
 28 35  2  0
 29 34  1  0
 30 29  1  0
 31 32  1  0
 31 30  1  0
 32 41  1  0
 32 33  1  0
 33 34  1  0
 34 28  1  0
 36 27  1  0
 37 36  1  0
 38 63  1  0
 38 41  1  0
 39 40  1  0
 39 38  2  0
 40 42  2  0
 42 41  1  0
 43 44  1  0
 43 40  1  0
 45 44  2  0
 46 45  1  0
 47 46  2  0
 47 48  1  0
 48 43  2  0
 49 50  1  0
 49 46  1  0
 50 55  2  0
 50 51  1  0
 51 52  2  0
 52 53  1  0
 53 57  1  0
 54 53  2  0
 55 54  1  0
 56 55  1  0
 58 39  1  0
 59 61  1  0
 59 58  1  0
 60 58  2  0
 62 59  1  0
 63 65  1  0
 64 63  1  0
 67 68  1  0
 67 66  1  0
 68 70  1  0
 69 80  2  0
 70 75  1  0
 71 81  1  0
 71 79  1  0
 72 78  1  0
 72 74  1  0
 73 79  1  0
 74 73  1  0
 75 74  2  0
 76 77  1  0
 76 70  2  0
 77 72  2  0
 78 71  1  0
 79 69  1  0
 81 82  1  0
 81 83  2  0
 84 82  1  0
 85 90  2  0
 85 94  1  0
 86 82  1  0
 86 90  1  0
 87 86  1  0
 88 87  1  0
 88 89  1  0
 89 85  1  0
 90 91  1  0
 91 92  2  0
 93 92  1  0
 94 93  2  0
 95 69  1  0
 95100  1  0
 95 96  1  0
 96 97  1  1
 96 99  1  0
 98 96  1  0
100103  1  0
101100  1  0
101105  1  0
102101  2  0
105104  1  0
105107  1  0
107108  1  0
107106  1  0
M  ISO  4  28 100  36 100  67 101  68 101
M  END
>  <TORSDO>  (67) 
F 33

>  <SCORE>  (67) 
27.958

>  <name>  (67) 
68

>  <ligand_id>  (67) 
68

>  <original_smiles>  (67) 
[H]c1c([H])c([H])c2c(c1[H])C([H])([H])C([H])([H])C([H])([H])C2([H])N([H])C(=O)C1([H])N(C(=O)C([H])(N([H])C(=O)C([H])(N([H])C([H])([H])[H])C([H])([H])[H])C(C([H])([H])[H])(C([H])([H])[H])C([H])([H])[H])C([H])([H])c2c([H])c(OC([H])([H])C([H])([H])C([H])(C(=O)N([H])C([H])([H])C([H])([H])OC([H])([H])C([H])([H])OC([H])([H])C([H])([H])OC([H])([H])C([H])([H])N([H])C(=O)N3C([H])([H])C([H])([H])C([H])([H])C([H])(n4nc(-c5c([H])c([H])c(Oc6c([H])c([H])c(F)c([H])c6F)c([H])c5[H])c(C(=O)N([H])[H])c4N([H])[H])C3([H])[H])N([H])C(=O)C(C([H])([H])[H])(C([H])([H])[H])[N+]([H])([H])[H])c([H])c([H])c2C1([H])[H]

>  <smiles>  (67) 
[H]c1c([H])c([H])c2c(c1[H])C([H])([H])C([H])([H])C([H])([H])C2([H])N([H])C(=O)C1([H])N(C(=O)C([H])(N([H])C(=O)C([H])(N([H])C([H])([H])[H])C([H])([H])[H])C(C([H])([H])[H])(C([H])([H])[H])C([H])([H])[H])C([H])([H])c2c([H])c(OC([H])([H])C([H])([H])C([H])(C(=O)N([H])C([H])([H])C([H])([H])OC([H])([H])C([H])([H])OC([H])([H])C([H])([H])OC([H])([H])C([H])([H])N([H])C(=O)N3C([H])([H])C([H])([H])C([H])([H])C([H])(n4nc(-c5c([H])c([H])c(Oc6c([H])c([H])c(F)c([H])c6F)c([H])c5[H])c(C(=O)N([H])[H])c4N([H])[H])C3([H])[H])N([H])C(=O)C(C([H])([H])[H])(C([H])([H])[H])[N+]([H])([H])[H])c([H])c([H])c2C1([H])[H]

$$$$
69:0:0
     RDKit          3D

103109  0  0  1  0  0  0  0  0999 V2000
  -31.5260  -22.7300   22.0230 C   0  0  0  0  0  1  0  0  0  0  0  0
  -30.5990  -21.5060   22.0860 C   0  0  0  0  0  3  0  0  0  0  0  0
  -31.3750  -19.6610   20.5210 C   0  0  0  0  0  3  0  0  0  0  0  0
  -30.6650  -20.7770   20.7560 C   0  0  0  0  0  3  0  0  0  0  0  0
  -31.3460  -19.0630   19.2030 C   0  0  0  0  0  0  0  0  0  0  0  0
  -32.5460  -18.5970   18.8500 N   0  0  0  0  0  0  0  0  0  0  0  0
  -30.3530  -19.0010   18.4750 O   0  0  0  0  0  0  0  0  0  0  0  0
  -33.3020  -18.7670   19.5000 H   0  0  0  0  0  0  0  0  0  0  0  0
  -32.8860  -18.0030   17.5590 C   0  0  0  0  0  2  0  0  0  0  0  0
  -33.7930  -16.7700   17.7160 C   0  0  0  0  0  2  0  0  0  0  0  0
  -33.1940  -15.6100   18.5170 C   0  0  0  0  0  2  0  0  0  0  0  0
  -32.1790  -14.9390   17.7600 O   0  0  0  0  0  0  0  0  0  0  0  0
  -30.8640  -15.0300   18.3070 C   0  0  0  0  0  2  0  0  0  0  0  0
  -30.0040  -13.6880   18.5820 C   0  0  0  0  0  1  0  0  0  0  0  0
  -30.2050  -11.6520   20.4680 C   0  0  0  0  0  1  0  0  0  0  0  0
  -32.0510  -13.0350   21.3310 C   0  0  0  0  0  0  0  0  0  0  0  0
  -31.9880  -12.1940   19.0960 C   0  0  0  0  0  2  0  0  0  0  0  0
  -30.5940  -11.2830   18.1420 C   0  0  0  0  0  3  0  0  0  0  0  0
  -28.7600  -11.6470   18.5870 C   0  0  0  0  0  3  0  0  0  0  0  0
  -28.3500  -13.0160   19.8470 C   0  0  0  0  0  0  0  0  0  0  0  0
  -29.7570  -13.9010   20.8030 C   0  0  0  0  0  3  0  0  0  0  0  0
  -31.4640  -13.4510   20.3620 N   0  0  0  0  0  0  0  0  0  0  0  0
  -33.2330  -13.3260   21.4550 O   0  0  0  0  0  0  0  0  0  0  0  0
  -31.2840  -11.9450   21.5770 N   0  0  0  0  0  0  0  0  0  0  0  0
  -31.5380  -11.2560   22.2710 H   0  0  0  0  0  0  0  0  0  0  0  0
  -26.2760  -13.9300   20.7360 C   0  0  0  0  0  0  0  0  0  0  0  0
  -25.1090  -13.2960   20.9860 C   0  0  0  0  0  0  0  0  0  0  0  0
  -25.3930  -11.8930   20.9420 C   0  0  0  0  0  0  0  0  0  0  0  0
  -27.1550  -12.8990   20.5220 N   0  0  0  0  0  0  0  0  0  0  0  0
  -26.6680  -11.6700   20.7130 N   0  0  0  0  0  0  0  0  0  0  0  0
  -24.5260  -10.7330   21.0210 C   0  0  0  0  0  0  0  0  0  0  0  0
  -24.8080   -9.6840   21.9180 C   0  0  0  0  0  3  0  0  0  0  0  0
  -23.9370   -8.5840   22.0130 C   0  0  0  0  0  3  0  0  0  0  0  0
  -22.7700   -8.5380   21.2160 C   0  0  0  0  0  0  0  0  0  0  0  0
  -22.5190   -9.5700   20.2930 C   0  0  0  0  0  3  0  0  0  0  0  0
  -23.3920  -10.6620   20.1950 C   0  0  0  0  0  3  0  0  0  0  0  0
  -21.8680   -7.5060   21.2360 O   0  0  0  0  0  0  0  0  0  0  0  0
  -21.6960   -6.7390   22.3580 C   0  0  0  0  0  0  0  0  0  0  0  0
  -21.3350   -7.3020   23.6000 C   0  0  0  0  0  3  0  0  0  0  0  0
  -21.1000   -6.4640   24.7090 C   0  0  0  0  0  3  0  0  0  0  0  0
  -21.2170   -5.0680   24.5720 C   0  0  0  0  0  0  0  0  0  0  0  0
  -21.5700   -4.5060   23.3310 C   0  0  0  0  0  3  0  0  0  0  0  0
  -21.8040   -5.3410   22.2270 C   0  0  0  0  0  0  0  0  0  0  0  0
  -22.1300   -4.8020   21.0270 F   0  0  0  0  0  0  0  0  0  0  0  0
  -20.9760   -4.2560   25.6280 F   0  0  0  0  0  0  0  0  0  0  0  0
  -23.7830  -13.9590   21.1330 C   0  0  0  0  0  0  0  0  0  0  0  0
  -22.9070  -13.3680   21.9300 N   0  0  0  0  0  0  0  0  0  0  0  0
  -23.5420  -15.0290   20.5790 O   0  0  0  0  0  0  0  0  0  0  0  0
  -23.1280  -12.5030   22.3990 H   0  0  0  0  0  0  0  0  0  0  0  0
  -22.0000  -13.7920   22.0800 H   0  0  0  0  0  0  0  0  0  0  0  0
  -26.6500  -15.2620   20.5620 N   0  0  0  0  0  0  0  0  0  0  0  0
  -25.9790  -16.0190   20.6170 H   0  0  0  0  0  0  0  0  0  0  0  0
  -27.5840  -15.5630   20.3120 H   0  0  0  0  0  0  0  0  0  0  0  0
  -29.1620  -21.9770   22.4260 C   0  0  0  0  0  3  0  0  0  0  0  0
  -28.2980  -20.6580   22.1860 N   0  0  0  0  0  4  0  0  0  0  0  0
  -28.4300  -20.2950   21.2590 H   0  0  0  0  0  0  0  0  0  0  0  0
  -27.3190  -20.8360   22.3080 H   0  0  0  0  0  0  0  0  0  0  0  0
  -28.5460  -19.9350   22.8400 H   0  0  0  0  0  0  0  0  0  0  0  0
  -28.7650  -22.9110   21.4600 O   0  0  0  0  0  0  0  0  0  0  0  0
  -27.9520  -23.9510   21.9760 C   0  0  0  0  0  2  0  0  0  0  0  0
  -27.4520  -24.8660   20.8560 C   0  0  0  0  0  2  0  0  0  0  0  0
  -28.5630  -25.4090   19.9090 C   0  0  0  0  0  2  0  0  0  0  0  0
  -28.6240  -26.8330   19.8400 O   0  0  0  0  0  0  0  0  0  0  0  0
  -24.5610  -31.6500   23.0090 C   0  0  0  0  0  0  0  0  0  0  0  0
  -27.4260  -27.5030   19.7650 C   0  0  0  0  0  0  0  0  0  0  0  0
  -23.4470  -30.2930   21.2670 C   0  0  0  0  0  3  0  0  0  0  0  0
  -24.9810  -28.8960   19.7950 C   0  0  0  0  0  0  0  0  0  0  0  0
  -25.9540  -30.7600   21.1500 C   0  0  0  0  0  2  0  0  0  0  0  0
  -26.0990  -29.4350   20.4400 C   0  0  0  0  0  0  0  0  0  0  0  0
  -27.3280  -28.7460   20.4170 C   0  0  0  0  0  3  0  0  0  0  0  0
  -26.2900  -26.9780   19.1030 C   0  0  0  0  0  3  0  0  0  0  0  0
  -25.0700  -27.6720   19.1140 C   0  0  0  0  0  3  0  0  0  0  0  0
  -23.7090  -29.6980   19.8560 C   0  0  0  0  0  2  0  0  0  0  0  0
  -24.6700  -30.9120   21.8690 N   0  0  0  0  0  0  0  0  0  0  0  0
  -23.4570  -31.8500   23.5360 O   0  0  0  0  0  0  0  0  0  0  0  0
  -22.8150  -29.1990   22.1570 C   0  0  0  0  0  0  0  0  0  0  0  0
  -21.4900  -29.0250   22.0320 N   0  0  0  0  0  0  0  0  0  0  0  0
  -23.5110  -28.5140   22.9130 O   0  0  0  0  0  0  0  0  0  0  0  0
  -20.9970  -29.6330   21.3910 H   0  0  0  0  0  0  0  0  0  0  0  0
  -18.1080  -27.8340   22.5220 C   0  0  0  0  0  0  0  0  0  0  0  0
  -20.6770  -28.0330   22.7370 C   0  0  0  0  0  3  0  0  0  0  0  0
  -20.7400  -26.6610   22.0290 C   0  0  0  0  0  2  0  0  0  0  0  0
  -19.6040  -26.4460   21.0270 C   0  0  0  0  0  2  0  0  0  0  0  0
  -18.2430  -26.5470   21.7230 C   0  0  0  0  0  2  0  0  0  0  0  0
  -19.2520  -28.5400   22.9830 C   0  0  0  0  0  0  0  0  0  0  0  0
  -19.0720  -29.7450   23.6930 C   0  0  0  0  0  3  0  0  0  0  0  0
  -17.7820  -30.2490   23.9430 C   0  0  0  0  0  3  0  0  0  0  0  0
  -16.6520  -29.5410   23.4970 C   0  0  0  0  0  3  0  0  0  0  0  0
  -16.8170  -28.3350   22.7930 C   0  0  0  0  0  3  0  0  0  0  0  0
  -25.8080  -32.2960   23.6900 C   0  0  0  0  0  3  0  0  0  0  0  0
  -25.4380  -33.6610   24.0860 N   0  0  0  0  0  0  0  0  0  0  0  0
  -25.7490  -34.7640   23.3920 C   0  0  0  0  0  0  0  0  0  0  0  0
  -26.4430  -34.7380   22.3730 O   0  0  0  0  0  0  0  0  0  0  0  0
  -24.8260  -33.7470   24.8820 H   0  0  0  0  0  0  0  0  0  0  0  0
  -23.9590  -36.5020   23.0880 C   0  0  0  0  0  1  0  0  0  0  0  0
  -25.1990  -36.1070   23.9060 C   0  0  0  0  0  3  0  0  0  0  0  0
  -27.2830  -37.0280   24.8220 C   0  0  0  0  0  1  0  0  0  0  0  0
  -26.1920  -37.2040   23.8670 N   0  0  0  0  0  0  0  0  0  0  0  0
  -25.7510  -38.1010   24.0530 H   0  0  0  0  0  0  0  0  0  0  0  0
  -26.3250  -31.4720   24.9320 C   0  0  1  0  0  0  0  0  0  0  0  0
  -25.2210  -31.1430   25.9660 C   0  0  0  0  0  1  0  0  0  0  0  0
  -26.9590  -30.1380   24.4750 C   0  0  0  0  0  1  0  0  0  0  0  0
  -27.4380  -32.2630   25.6560 C   0  0  0  0  0  1  0  0  0  0  0  0
  2  1  1  0
  2 54  1  0
  3  4  2  0
  4  2  1  0
  5  3  1  0
  6  5  1  0
  6  8  1  0
  7  5  2  0
  9 10  1  0
  9  6  1  0
 10 11  1  0
 12 13  1  0
 12 11  1  0
 13 14  1  0
 15 24  1  0
 16 23  2  0
 16 24  1  0
 17 22  1  0
 18 19  2  0
 18 17  1  0
 19 20  1  0
 20 29  1  0
 20 21  2  0
 22 21  1  0
 22 16  1  0
 24 25  1  0
 26 27  2  0
 27 46  1  0
 28 27  1  0
 28 31  1  0
 29 30  1  0
 29 26  1  0
 30 28  2  0
 31 32  1  0
 32 33  2  0
 34 37  1  0
 34 33  1  0
 35 34  2  0
 36 35  1  0
 36 31  2  0
 37 38  1  0
 38 39  1  0
 39 40  2  0
 41 40  1  0
 41 45  1  0
 42 41  2  0
 43 38  2  0
 43 42  1  0
 44 43  1  0
 46 47  1  0
 47 50  1  0
 47 49  1  0
 48 46  2  0
 51 52  1  0
 51 26  1  0
 53 51  1  0
 54 59  1  0
 55 57  1  0
 55 54  1  0
 55 58  1  0
 56 55  1  0
 59 60  1  0
 61 60  1  0
 62 61  1  0
 63 62  1  0
 64 75  2  0
 65 63  1  0
 65 70  1  0
 66 74  1  0
 66 76  1  0
 67 73  1  0
 67 69  1  0
 68 74  1  0
 69 68  1  0
 70 69  2  0
 71 72  1  0
 71 65  2  0
 72 67  2  0
 73 66  1  0
 74 64  1  0
 76 78  2  0
 77 76  1  0
 79 77  1  0
 80 89  2  0
 80 85  1  0
 81 77  1  0
 81 85  1  0
 82 81  1  0
 83 84  1  0
 83 82  1  0
 84 80  1  0
 85 86  2  0
 86 87  1  0
 88 87  2  0
 89 88  1  0
 90 64  1  0
 90 91  1  0
 90100  1  0
 91 94  1  0
 92 96  1  0
 92 91  1  0
 93 92  2  0
 96 95  1  0
 98 96  1  0
 98 99  1  0
 98 97  1  0
100103  1  1
100101  1  0
102100  1  0
M  ISO  4  16 100  24 100  62 101  63 101
M  END
>  <TORSDO>  (68) 
F 31

>  <SCORE>  (68) 
-9.051

>  <name>  (68) 
69

>  <ligand_id>  (68) 
69

>  <original_smiles>  (68) 
[H]C(C(=O)N([H])C([H])([H])C([H])([H])C([H])([H])OC([H])([H])C([H])([H])C([H])([H])N([H])C(=O)N1C([H])([H])C([H])([H])C([H])([H])C([H])(n2nc(-c3c([H])c([H])c(Oc4c([H])c([H])c(F)c([H])c4F)c([H])c3[H])c(C(=O)N([H])[H])c2N([H])[H])C1([H])[H])=C([H])C([H])(C([H])([H])[H])C([H])(OC([H])([H])C([H])([H])C([H])([H])Oc1c([H])c([H])c2c(c1[H])C([H])([H])N(C(=O)C([H])(N([H])C(=O)C([H])(N([H])C([H])([H])[H])C([H])([H])[H])C(C([H])([H])[H])(C([H])([H])[H])C([H])([H])[H])C([H])(C(=O)N([H])C1([H])c3c([H])c([H])c([H])c([H])c3C([H])([H])C([H])([H])C1([H])[H])C2([H])[H])[N+]([H])([H])[H]

>  <smiles>  (68) 
[H]C(C(=O)N([H])C([H])([H])C([H])([H])C([H])([H])OC([H])([H])C([H])([H])C([H])([H])N([H])C(=O)N1C([H])([H])C([H])([H])C([H])([H])C([H])(n2nc(-c3c([H])c([H])c(Oc4c([H])c([H])c(F)c([H])c4F)c([H])c3[H])c(C(=O)N([H])[H])c2N([H])[H])C1([H])[H])=C([H])C([H])(C([H])([H])[H])C([H])(OC([H])([H])C([H])([H])C([H])([H])Oc1c([H])c([H])c2c(c1[H])C([H])([H])N(C(=O)C([H])(N([H])C(=O)C([H])(N([H])C([H])([H])[H])C([H])([H])[H])C(C([H])([H])[H])(C([H])([H])[H])C([H])([H])[H])C([H])(C(=O)N([H])C1([H])c3c([H])c([H])c([H])c([H])c3C([H])([H])C([H])([H])C1([H])[H])C2([H])[H])[N+]([H])([H])[H]

$$$$
70:0:0
     RDKit          3D

101108  0  0  1  0  0  0  0  0999 V2000
  -29.5420  -20.5200   20.7960 C   0  0  0  0  0  3  0  0  0  0  0  0
  -29.9950  -18.0100   20.6090 C   0  0  0  0  0  0  0  0  0  0  0  0
  -30.0790  -19.2860   20.1530 N   0  0  0  0  0  0  0  0  0  0  0  0
  -29.3940  -17.7230   21.6450 O   0  0  0  0  0  0  0  0  0  0  0  0
  -30.6200  -19.4250   19.3090 H   0  0  0  0  0  0  0  0  0  0  0  0
  -32.2700  -17.0360   20.3330 C   0  0  0  0  0  1  0  0  0  0  0  0
  -30.7900  -16.8860   19.8900 C   0  0  0  0  0  3  0  0  0  0  0  0
  -30.7580  -14.3970   19.4630 C   0  0  0  0  0  0  0  0  0  0  0  0
  -30.3300  -12.1570   18.5130 C   0  0  0  0  0  2  0  0  0  0  0  0
  -29.2230  -12.2260   17.4420 C   0  0  0  0  0  2  0  0  0  0  0  0
  -27.8430  -12.0480   18.0930 C   0  0  0  0  0  2  0  0  0  0  0  0
  -27.6440  -12.9520   19.3390 C   0  0  0  0  0  3  0  0  0  0  0  0
  -28.8640  -12.9100   20.2930 C   0  0  0  0  0  2  0  0  0  0  0  0
  -30.0720  -13.2160   19.5130 N   0  0  0  0  0  0  0  0  0  0  0  0
  -31.7500  -14.5080   18.7430 O   0  0  0  0  0  0  0  0  0  0  0  0
  -30.2810  -15.4920   20.1110 N   0  0  0  0  0  0  0  0  0  0  0  0
  -29.4430  -15.4010   20.6710 H   0  0  0  0  0  0  0  0  0  0  0  0
  -25.4880  -13.4840   20.6310 C   0  0  0  0  0  0  0  0  0  0  0  0
  -24.4580  -12.6950   21.0630 C   0  0  0  0  0  0  0  0  0  0  0  0
  -24.7920  -11.3630   20.6760 C   0  0  0  0  0  0  0  0  0  0  0  0
  -26.3990  -12.6290   20.0310 N   0  0  0  0  0  0  0  0  0  0  0  0
  -25.9920  -11.3340   20.1100 N   0  0  0  0  0  0  0  0  0  0  0  0
  -24.0110  -10.1220   20.7640 C   0  0  0  0  0  0  0  0  0  0  0  0
  -24.4380   -9.0340   21.5580 C   0  0  0  0  0  3  0  0  0  0  0  0
  -23.6600   -7.8570   21.6390 C   0  0  0  0  0  3  0  0  0  0  0  0
  -22.4410   -7.7620   20.9240 C   0  0  0  0  0  0  0  0  0  0  0  0
  -22.0350   -8.8380   20.1160 C   0  0  0  0  0  3  0  0  0  0  0  0
  -22.8120  -10.0050   20.0320 C   0  0  0  0  0  3  0  0  0  0  0  0
  -21.6330   -6.6500   20.9240 O   0  0  0  0  0  0  0  0  0  0  0  0
  -21.4070   -5.9250   22.0650 C   0  0  0  0  0  0  0  0  0  0  0  0
  -20.8110   -6.5000   23.2100 C   0  0  0  0  0  3  0  0  0  0  0  0
  -20.5360   -5.7000   24.3380 C   0  0  0  0  0  3  0  0  0  0  0  0
  -20.8460   -4.3280   24.3210 C   0  0  0  0  0  0  0  0  0  0  0  0
  -21.4330   -3.7520   23.1800 C   0  0  0  0  0  3  0  0  0  0  0  0
  -21.7100   -4.5480   22.0560 C   0  0  0  0  0  0  0  0  0  0  0  0
  -22.2590   -3.9850   20.9530 F   0  0  0  0  0  0  0  0  0  0  0  0
  -20.5720   -3.5560   25.4000 F   0  0  0  0  0  0  0  0  0  0  0  0
  -23.1890  -13.1650   21.7150 C   0  0  0  0  0  0  0  0  0  0  0  0
  -22.5720  -12.3200   22.5350 N   0  0  0  0  0  0  0  0  0  0  0  0
  -22.7600  -14.3030   21.5360 O   0  0  0  0  0  0  0  0  0  0  0  0
  -22.9350  -11.3950   22.7080 H   0  0  0  0  0  0  0  0  0  0  0  0
  -21.7280  -12.6130   23.0090 H   0  0  0  0  0  0  0  0  0  0  0  0
  -25.7130  -14.8530   20.6740 N   0  0  0  0  0  0  0  0  0  0  0  0
  -26.6320  -15.2600   20.5510 H   0  0  0  0  0  0  0  0  0  0  0  0
  -25.0660  -15.4750   21.1450 H   0  0  0  0  0  0  0  0  0  0  0  0
  -28.0780  -20.8330   20.3760 C   0  0  0  0  0  2  0  0  0  0  0  0
  -27.8890  -21.5680   19.0280 C   0  0  0  0  0  2  0  0  0  0  0  0
  -26.4720  -20.3560   17.3730 C   0  0  0  0  0  0  0  0  0  0  0  0
  -26.6160  -21.1950   18.4110 N   0  0  0  0  0  0  0  0  0  0  0  0
  -27.4050  -19.8620   16.7350 O   0  0  0  0  0  0  0  0  0  0  0  0
  -25.7630  -21.5780   18.7990 H   0  0  0  0  0  0  0  0  0  0  0  0
  -25.0000  -20.0200   17.0040 C   0  0  0  0  0  0  0  0  0  0  0  0
  -24.2050  -19.7380   18.0320 N   0  0  0  0  0  0  0  0  0  0  0  0
  -24.6150  -20.0000   15.8340 O   0  0  0  0  0  0  0  0  0  0  0  0
  -24.5990  -19.7040   18.9600 H   0  0  0  0  0  0  0  0  0  0  0  0
  -23.2420  -19.4770   17.8840 H   0  0  0  0  0  0  0  0  0  0  0  0
  -30.4880  -21.7640   20.6560 C   0  0  0  0  0  2  0  0  0  0  0  0
  -29.9870  -22.9280   21.3510 O   0  0  0  0  0  0  0  0  0  0  0  0
  -30.4260  -24.2100   20.8430 C   0  0  0  0  0  2  0  0  0  0  0  0
  -29.7330  -25.4000   21.5820 C   0  0  0  0  0  2  0  0  0  0  0  0
  -29.8660  -26.7110   20.9700 O   0  0  0  0  0  0  0  0  0  0  0  0
  -25.2260  -31.6720   23.1900 C   0  0  0  0  0  0  0  0  0  0  0  0
  -28.6770  -27.3820   20.7480 C   0  0  0  0  0  0  0  0  0  0  0  0
  -24.4080  -30.1180   21.4490 C   0  0  0  0  0  3  0  0  0  0  0  0
  -26.1930  -28.6800   20.3190 C   0  0  0  0  0  0  0  0  0  0  0  0
  -26.8950  -30.7000   21.6090 C   0  0  0  0  0  2  0  0  0  0  0  0
  -27.2010  -29.3240   21.0490 C   0  0  0  0  0  0  0  0  0  0  0  0
  -28.4500  -28.6870   21.2540 C   0  0  0  0  0  3  0  0  0  0  0  0
  -27.6560  -26.7570   20.0040 C   0  0  0  0  0  3  0  0  0  0  0  0
  -26.4210  -27.3980   19.7860 C   0  0  0  0  0  3  0  0  0  0  0  0
  -24.8840  -29.4200   20.1440 C   0  0  0  0  0  2  0  0  0  0  0  0
  -25.5180  -30.8490   22.1430 N   0  0  0  0  0  0  0  0  0  0  0  0
  -24.0570  -31.8580   23.5530 O   0  0  0  0  0  0  0  0  0  0  0  0
  -23.7120  -29.0700   22.3450 C   0  0  0  0  0  0  0  0  0  0  0  0
  -22.4070  -28.8510   22.1090 N   0  0  0  0  0  0  0  0  0  0  0  0
  -24.3450  -28.4560   23.2080 O   0  0  0  0  0  0  0  0  0  0  0  0
  -21.9590  -29.4000   21.3890 H   0  0  0  0  0  0  0  0  0  0  0  0
  -19.0070  -27.6770   22.4500 C   0  0  0  0  0  0  0  0  0  0  0  0
  -21.5590  -27.8830   22.8030 C   0  0  0  0  0  3  0  0  0  0  0  0
  -21.6600  -26.4850   22.1480 C   0  0  0  0  0  2  0  0  0  0  0  0
  -20.5820  -26.2380   21.0880 C   0  0  0  0  0  2  0  0  0  0  0  0
  -19.1850  -26.3660   21.7030 C   0  0  0  0  0  2  0  0  0  0  0  0
  -20.1230  -28.3960   22.9530 C   0  0  0  0  0  0  0  0  0  0  0  0
  -19.9050  -29.6270   23.6100 C   0  0  0  0  0  3  0  0  0  0  0  0
  -18.6020  -30.1380   23.7690 C   0  0  0  0  0  3  0  0  0  0  0  0
  -17.5010  -29.4130   23.2830 C   0  0  0  0  0  3  0  0  0  0  0  0
  -17.7030  -28.1850   22.6300 C   0  0  0  0  0  3  0  0  0  0  0  0
  -26.3450  -32.4370   23.9650 C   0  0  0  0  0  3  0  0  0  0  0  0
  -26.7400  -31.7460   25.3270 C   0  0  1  0  0  0  0  0  0  0  0  0
  -25.5280  -31.4010   26.2240 C   0  0  0  0  0  1  0  0  0  0  0  0
  -27.5250  -30.4380   25.0690 C   0  0  0  0  0  1  0  0  0  0  0  0
  -27.6800  -32.6750   26.1320 C   0  0  0  0  0  1  0  0  0  0  0  0
  -25.8650  -33.8050   24.1970 N   0  0  0  0  0  0  0  0  0  0  0  0
  -26.1960  -34.8650   23.4470 C   0  0  0  0  0  0  0  0  0  0  0  0
  -27.0060  -34.8010   22.5180 O   0  0  0  0  0  0  0  0  0  0  0  0
  -25.1560  -33.9220   24.9060 H   0  0  0  0  0  0  0  0  0  0  0  0
  -24.3620  -36.4610   22.8050 C   0  0  0  0  0  1  0  0  0  0  0  0
  -25.5220  -36.2100   23.7800 C   0  0  0  0  0  3  0  0  0  0  0  0
  -27.4360  -37.3340   24.8310 C   0  0  0  0  0  1  0  0  0  0  0  0
  -26.4530  -37.3570   23.7510 N   0  0  0  0  0  0  0  0  0  0  0  0
  -25.9450  -38.2360   23.8070 H   0  0  0  0  0  0  0  0  0  0  0  0
  1 46  1  0
  2  4  2  0
  3  2  1  0
  3  1  1  0
  5  3  1  0
  7 16  1  0
  7  6  1  0
  7  2  1  0
  8 14  1  0
  8 16  1  0
  9 14  1  0
 10 11  1  0
 10  9  1  0
 12 11  1  0
 12 21  1  0
 12 13  1  0
 14 13  1  0
 15  8  2  0
 16 17  1  0
 18 43  1  0
 18 19  2  0
 19 38  1  0
 20 23  1  0
 20 19  1  0
 21 22  1  0
 21 18  1  0
 22 20  2  0
 23 24  1  0
 24 25  2  0
 26 29  1  0
 26 25  1  0
 27 26  2  0
 28 27  1  0
 28 23  2  0
 29 30  1  0
 30 31  1  0
 31 32  2  0
 33 32  1  0
 33 37  1  0
 34 33  2  0
 35 30  2  0
 35 34  1  0
 36 35  1  0
 38 39  1  0
 39 41  1  0
 39 42  1  0
 40 38  2  0
 43 45  1  0
 44 43  1  0
 47 46  1  0
 48 49  1  0
 49 51  1  0
 49 47  1  0
 50 48  2  0
 52 48  1  0
 52 53  1  0
 53 55  1  0
 54 52  2  0
 56 53  1  0
 57  1  1  0
 57 58  1  0
 59 58  1  0
 59 60  1  0
 61 60  1  0
 62 73  2  0
 63 61  1  0
 63 68  1  0
 64 72  1  0
 64 74  1  0
 65 67  1  0
 66 72  1  0
 67 68  2  0
 67 66  1  0
 69 63  2  0
 70 69  1  0
 70 65  2  0
 71 65  1  0
 71 64  1  0
 72 62  1  0
 74 76  2  0
 75 74  1  0
 77 75  1  0
 78 87  2  0
 78 83  1  0
 79 75  1  0
 79 83  1  0
 80 79  1  0
 81 82  1  0
 81 80  1  0
 82 78  1  0
 83 84  2  0
 84 85  1  0
 86 85  2  0
 87 86  1  0
 88 62  1  0
 88 93  1  0
 88 89  1  0
 89 92  1  1
 89 90  1  0
 91 89  1  0
 93 96  1  0
 94 98  1  0
 94 93  1  0
 95 94  2  0
 98 97  1  0
100 98  1  0
100101  1  0
100 99  1  0
M  ISO  4   8 100  16 100  60 101  61 101
M  END
>  <TORSDO>  (69) 
F 26

>  <SCORE>  (69) 
-7.694

>  <name>  (69) 
70

>  <ligand_id>  (69) 
70

>  <original_smiles>  (69) 
[H]c1c([H])c([H])c2c(c1[H])C([H])([H])C([H])([H])C([H])([H])C2([H])N([H])C(=O)C1([H])N(C(=O)C([H])(N([H])C(=O)C([H])(N([H])C([H])([H])[H])C([H])([H])[H])C(C([H])([H])[H])(C([H])([H])[H])C([H])([H])[H])C([H])([H])c2c([H])c(OC([H])([H])C([H])([H])OC([H])([H])C([H])(N([H])C(=O)C([H])(N([H])C(=O)N3C([H])([H])C([H])([H])C([H])([H])C([H])(n4nc(-c5c([H])c([H])c(Oc6c([H])c([H])c(F)c([H])c6F)c([H])c5[H])c(C(=O)N([H])[H])c4N([H])[H])C3([H])[H])C([H])([H])[H])C([H])([H])C([H])([H])N([H])C(=O)C(=O)N([H])[H])c([H])c([H])c2C1([H])[H]

>  <smiles>  (69) 
[H]c1c([H])c([H])c2c(c1[H])C([H])([H])C([H])([H])C([H])([H])C2([H])N([H])C(=O)C1([H])N(C(=O)C([H])(N([H])C(=O)C([H])(N([H])C([H])([H])[H])C([H])([H])[H])C(C([H])([H])[H])(C([H])([H])[H])C([H])([H])[H])C([H])([H])c2c([H])c(OC([H])([H])C([H])([H])OC([H])([H])C([H])(N([H])C(=O)C([H])(N([H])C(=O)N3C([H])([H])C([H])([H])C([H])([H])C([H])(n4nc(-c5c([H])c([H])c(Oc6c([H])c([H])c(F)c([H])c6F)c([H])c5[H])c(C(=O)N([H])[H])c4N([H])[H])C3([H])[H])C([H])([H])[H])C([H])([H])C([H])([H])N([H])C(=O)C(=O)N([H])[H])c([H])c([H])c2C1([H])[H]

$$$$
71:0:0
     RDKit          3D

 97104  0  0  1  0  0  0  0  0999 V2000
  -26.1820  -24.0040   22.5470 C   0  0  0  0  0  2  0  0  0  0  0  0
  -27.9040  -25.4580   21.4730 C   0  0  0  0  0  0  0  0  0  0  0  0
  -27.4520  -24.7230   22.5000 N   0  0  0  0  0  0  0  0  0  0  0  0
  -27.2670  -25.5440   20.4210 O   0  0  0  0  0  0  0  0  0  0  0  0
  -28.0360  -24.6820   23.3240 H   0  0  0  0  0  0  0  0  0  0  0  0
  -29.6500  -26.3430   22.9730 C   0  0  0  0  0  2  0  0  0  0  0  0
  -29.1880  -26.1260   21.7200 C   0  0  0  0  0  0  0  0  0  0  0  0
  -30.0160  -26.5810   20.5220 C   0  0  0  0  0  2  0  0  0  0  0  0
  -29.8030  -27.9630   20.2280 O   0  0  0  0  0  0  0  0  0  0  0  0
  -25.3640  -31.6860   24.3260 C   0  0  0  0  0  0  0  0  0  0  0  0
  -28.5270  -28.4560   20.3750 C   0  0  0  0  0  0  0  0  0  0  0  0
  -24.3260  -30.5400   22.3940 C   0  0  0  0  0  3  0  0  0  0  0  0
  -25.9480  -29.5640   20.6880 C   0  0  0  0  0  0  0  0  0  0  0  0
  -26.7760  -31.2680   22.3200 C   0  0  0  0  0  2  0  0  0  0  0  0
  -27.0320  -30.1010   21.3920 C   0  0  0  0  0  0  0  0  0  0  0  0
  -28.3240  -29.5570   21.2320 C   0  0  0  0  0  3  0  0  0  0  0  0
  -27.4250  -27.9210   19.6710 C   0  0  0  0  0  3  0  0  0  0  0  0
  -26.1380  -28.4690   19.8260 C   0  0  0  0  0  3  0  0  0  0  0  0
  -24.6020  -30.2170   20.9010 C   0  0  0  0  0  2  0  0  0  0  0  0
  -25.5050  -31.1680   23.0740 N   0  0  0  0  0  0  0  0  0  0  0  0
  -24.2650  -31.6860   24.8980 O   0  0  0  0  0  0  0  0  0  0  0  0
  -23.8320  -29.2520   23.0920 C   0  0  0  0  0  0  0  0  0  0  0  0
  -22.6710  -28.7430   22.6500 N   0  0  0  0  0  0  0  0  0  0  0  0
  -24.4980  -28.7210   23.9840 O   0  0  0  0  0  0  0  0  0  0  0  0
  -22.1840  -29.2430   21.9190 H   0  0  0  0  0  0  0  0  0  0  0  0
  -19.8780  -26.5180   22.1100 C   0  0  0  0  0  0  0  0  0  0  0  0
  -22.0310  -27.5200   23.1310 C   0  0  0  0  0  3  0  0  0  0  0  0
  -22.7520  -26.2650   22.5880 C   0  0  0  0  0  2  0  0  0  0  0  0
  -22.1390  -25.7330   21.2890 C   0  0  0  0  0  2  0  0  0  0  0  0
  -20.6650  -25.3720   21.4970 C   0  0  0  0  0  2  0  0  0  0  0  0
  -20.5210  -27.5350   22.8630 C   0  0  0  0  0  0  0  0  0  0  0  0
  -19.7480  -28.5970   23.3820 C   0  0  0  0  0  3  0  0  0  0  0  0
  -18.3590  -28.6500   23.1610 C   0  0  0  0  0  3  0  0  0  0  0  0
  -17.7250  -27.6320   22.4290 C   0  0  0  0  0  3  0  0  0  0  0  0
  -18.4820  -26.5680   21.9090 C   0  0  0  0  0  3  0  0  0  0  0  0
  -26.5670  -32.3240   25.0890 C   0  0  0  0  0  3  0  0  0  0  0  0
  -26.2020  -33.7110   25.4040 N   0  0  0  0  0  0  0  0  0  0  0  0
  -26.6480  -34.7840   24.7370 C   0  0  0  0  0  0  0  0  0  0  0  0
  -27.4770  -34.7100   23.8260 O   0  0  0  0  0  0  0  0  0  0  0  0
  -25.4850  -33.8420   26.1020 H   0  0  0  0  0  0  0  0  0  0  0  0
  -25.0160  -36.6000   24.1350 C   0  0  0  0  0  1  0  0  0  0  0  0
  -26.0850  -36.1580   25.1470 C   0  0  0  0  0  3  0  0  0  0  0  0
  -28.0730  -36.9600   26.3450 C   0  0  0  0  0  1  0  0  0  0  0  0
  -27.1210  -37.2080   25.2650 N   0  0  0  0  0  0  0  0  0  0  0  0
  -26.6960  -38.1170   25.4210 H   0  0  0  0  0  0  0  0  0  0  0  0
  -26.9600  -31.5400   26.4010 C   0  0  1  0  0  0  0  0  0  0  0  0
  -25.7510  -31.1580   27.2840 C   0  0  0  0  0  1  0  0  0  0  0  0
  -27.7200  -30.2380   26.0500 C   0  0  0  0  0  1  0  0  0  0  0  0
  -27.9220  -32.3990   27.2550 C   0  0  0  0  0  1  0  0  0  0  0  0
  -26.1110  -22.8980   21.4850 C   0  0  0  0  0  2  0  0  0  0  0  0
  -26.9350  -23.2340   20.3750 O   0  0  0  0  0  0  0  0  0  0  0  0
  -27.0200  -22.1770   19.4280 C   0  0  0  0  0  2  0  0  0  0  0  0
  -27.9950  -22.5630   18.3110 C   0  0  0  0  0  2  0  0  0  0  0  0
  -29.3190  -22.3380   18.7730 O   0  0  0  0  0  0  0  0  0  0  0  0
  -30.2210  -21.9940   17.7330 C   0  0  0  0  0  2  0  0  0  0  0  0
  -31.6030  -21.7880   18.3610 C   0  0  0  0  0  2  0  0  0  0  0  0
  -31.4610  -20.8730   19.4380 O   0  0  0  0  0  0  0  0  0  0  0  0
  -32.6390  -20.7510   20.2190 C   0  0  0  0  0  2  0  0  0  0  0  0
  -32.2610  -20.1220   21.5700 C   0  0  0  0  0  2  0  0  0  0  0  0
  -32.4590  -17.7760   20.7810 C   0  0  0  0  0  0  0  0  0  0  0  0
  -32.4540  -15.4140   20.0810 C   0  0  0  0  0  2  0  0  0  0  0  0
  -31.8010  -15.2380   18.6970 C   0  0  0  0  0  2  0  0  0  0  0  0
  -30.2760  -15.0740   18.8340 C   0  0  0  0  0  2  0  0  0  0  0  0
  -29.6380  -16.1710   19.7250 C   0  0  0  0  0  3  0  0  0  0  0  0
  -30.4130  -16.3210   21.0530 C   0  0  0  0  0  2  0  0  0  0  0  0
  -31.8340  -16.5730   20.7400 N   0  0  0  0  0  0  0  0  0  0  0  0
  -33.5820  -17.9780   20.3110 O   0  0  0  0  0  0  0  0  0  0  0  0
  -31.7930  -18.7470   21.4090 N   0  0  0  0  0  0  0  0  0  0  0  0
  -30.8770  -18.5220   21.7690 H   0  0  0  0  0  0  0  0  0  0  0  0
  -27.1480  -16.7910   19.9690 C   0  0  0  0  0  0  0  0  0  0  0  0
  -26.0310  -16.0250   20.1610 C   0  0  0  0  0  0  0  0  0  0  0  0
  -26.4880  -14.6750   20.2510 C   0  0  0  0  0  0  0  0  0  0  0  0
  -28.2180  -15.9080   19.9570 N   0  0  0  0  0  0  0  0  0  0  0  0
  -27.8130  -14.6320   20.1810 N   0  0  0  0  0  0  0  0  0  0  0  0
  -25.7380  -13.4150   20.3440 C   0  0  0  0  0  0  0  0  0  0  0  0
  -26.0160  -12.4620   21.3480 C   0  0  0  0  0  3  0  0  0  0  0  0
  -25.2700  -11.2670   21.4270 C   0  0  0  0  0  3  0  0  0  0  0  0
  -24.2300  -11.0160   20.5000 C   0  0  0  0  0  0  0  0  0  0  0  0
  -23.9720  -11.9580   19.4890 C   0  0  0  0  0  3  0  0  0  0  0  0
  -24.7200  -13.1450   19.4080 C   0  0  0  0  0  3  0  0  0  0  0  0
  -23.4700   -9.8720   20.4850 O   0  0  0  0  0  0  0  0  0  0  0  0
  -23.1200   -9.2240   21.6420 C   0  0  0  0  0  0  0  0  0  0  0  0
  -22.4330   -9.8820   22.6850 C   0  0  0  0  0  3  0  0  0  0  0  0
  -22.0310   -9.1600   23.8270 C   0  0  0  0  0  3  0  0  0  0  0  0
  -22.3070   -7.7830   23.9260 C   0  0  0  0  0  0  0  0  0  0  0  0
  -22.9880   -7.1270   22.8860 C   0  0  0  0  0  3  0  0  0  0  0  0
  -23.3910   -7.8440   21.7460 C   0  0  0  0  0  0  0  0  0  0  0  0
  -24.0270   -7.2020   20.7370 F   0  0  0  0  0  0  0  0  0  0  0  0
  -21.9160   -7.0890   25.0190 F   0  0  0  0  0  0  0  0  0  0  0  0
  -24.6070  -16.5040   20.1670 C   0  0  0  0  0  0  0  0  0  0  0  0
  -23.7200  -15.7820   20.8420 N   0  0  0  0  0  0  0  0  0  0  0  0
  -24.2830  -17.5530   19.6100 O   0  0  0  0  0  0  0  0  0  0  0  0
  -23.9900  -14.9330   21.3160 H   0  0  0  0  0  0  0  0  0  0  0  0
  -22.7570  -16.0840   20.8860 H   0  0  0  0  0  0  0  0  0  0  0  0
  -27.3450  -18.1560   19.7860 N   0  0  0  0  0  0  0  0  0  0  0  0
  -26.5740  -18.8110   19.7330 H   0  0  0  0  0  0  0  0  0  0  0  0
  -28.2490  -18.5850   19.6370 H   0  0  0  0  0  0  0  0  0  0  0  0
  2  7  1  0
  2  3  1  0
  3  1  1  0
  3  5  1  0
  4  2  2  0
  7  6  2  0
  8  7  1  0
  9 11  1  0
  9  8  1  0
 10 21  2  0
 11 16  1  0
 12 20  1  0
 12 22  1  0
 13 19  1  0
 13 15  1  0
 14 20  1  0
 15 14  1  0
 16 15  2  0
 17 18  1  0
 17 11  2  0
 18 13  2  0
 19 12  1  0
 20 10  1  0
 22 24  2  0
 23 22  1  0
 25 23  1  0
 26 31  1  0
 27 23  1  0
 28 27  1  0
 29 30  1  0
 29 28  1  0
 30 26  1  0
 31 27  1  0
 31 32  2  0
 33 32  1  0
 34 33  2  0
 35 26  2  0
 35 34  1  0
 36 10  1  0
 36 37  1  0
 36 46  1  0
 37 40  1  0
 38 42  1  0
 38 37  1  0
 39 38  2  0
 42 41  1  0
 42 44  1  0
 44 45  1  0
 44 43  1  0
 46 49  1  1
 46 47  1  0
 48 46  1  0
 50  1  1  0
 51 50  1  0
 52 51  1  0
 53 54  1  0
 53 52  1  0
 55 56  1  0
 55 54  1  0
 56 57  1  0
 57 58  1  0
 58 59  1  0
 60 68  1  0
 61 66  1  0
 62 63  1  0
 62 61  1  0
 64 63  1  0
 64 73  1  0
 64 65  1  0
 66 60  1  0
 66 65  1  0
 67 60  2  0
 68 59  1  0
 68 69  1  0
 70 71  2  0
 71 90  1  0
 71 72  1  0
 72 75  1  0
 73 70  1  0
 73 74  1  0
 74 72  2  0
 75 76  1  0
 76 77  2  0
 78 77  1  0
 79 78  2  0
 80 79  1  0
 80 75  2  0
 81 78  1  0
 81 82  1  0
 82 87  2  0
 82 83  1  0
 83 84  2  0
 84 85  1  0
 85 89  1  0
 86 85  2  0
 87 86  1  0
 88 87  1  0
 90 91  1  0
 91 94  1  0
 91 93  1  0
 92 90  2  0
 95 70  1  0
 96 95  1  0
 97 95  1  0
M  ISO  4   8 101   9 101  60 100  68 100
M  END
>  <TORSDO>  (70) 
F 29

>  <SCORE>  (70) 
-3.313

>  <name>  (70) 
71

>  <ligand_id>  (70) 
71

>  <original_smiles>  (70) 
[H]C([H])=C(C(=O)N([H])C([H])([H])C([H])([H])OC([H])([H])C([H])([H])OC([H])([H])C([H])([H])OC([H])([H])C([H])([H])N([H])C(=O)N1C([H])([H])C([H])([H])C([H])([H])C([H])(n2nc(-c3c([H])c([H])c(Oc4c([H])c([H])c(F)c([H])c4F)c([H])c3[H])c(C(=O)N([H])[H])c2N([H])[H])C1([H])[H])C([H])([H])Oc1c([H])c([H])c2c(c1[H])C([H])([H])N(C(=O)C([H])(N([H])C(=O)C([H])(N([H])C([H])([H])[H])C([H])([H])[H])C(C([H])([H])[H])(C([H])([H])[H])C([H])([H])[H])C([H])(C(=O)N([H])C1([H])c3c([H])c([H])c([H])c([H])c3C([H])([H])C([H])([H])C1([H])[H])C2([H])[H]

>  <smiles>  (70) 
[H]C([H])=C(C(=O)N([H])C([H])([H])C([H])([H])OC([H])([H])C([H])([H])OC([H])([H])C([H])([H])OC([H])([H])C([H])([H])N([H])C(=O)N1C([H])([H])C([H])([H])C([H])([H])C([H])(n2nc(-c3c([H])c([H])c(Oc4c([H])c([H])c(F)c([H])c4F)c([H])c3[H])c(C(=O)N([H])[H])c2N([H])[H])C1([H])[H])C([H])([H])Oc1c([H])c([H])c2c(c1[H])C([H])([H])N(C(=O)C([H])(N([H])C(=O)C([H])(N([H])C([H])([H])[H])C([H])([H])[H])C(C([H])([H])[H])(C([H])([H])[H])C([H])([H])[H])C([H])(C(=O)N([H])C1([H])c3c([H])c([H])c([H])c([H])c3C([H])([H])C([H])([H])C1([H])[H])C2([H])[H]

$$$$
72:0:0
     RDKit          3D

 86 90  0  0  1  0  0  0  0  0999 V2000
  -29.1890  -20.4110   20.2980 C   0  0  0  0  0  1  0  0  0  0  0  0
  -29.8930  -16.6660   20.2090 C   0  0  0  0  0  0  0  0  0  0  0  0
  -30.2680  -13.8990   19.4470 C   0  0  0  0  0  2  0  0  0  0  0  0
  -29.5140  -13.0590   18.3340 C   0  0  0  0  0  2  0  0  0  0  0  0
  -28.1870  -12.4850   18.8330 C   0  0  0  0  0  2  0  0  0  0  0  0
  -27.5280  -13.5180   19.7580 C   0  0  0  0  0  3  0  0  0  0  0  0
  -28.4770  -14.2170   20.8020 C   0  0  0  0  0  2  0  0  0  0  0  0
  -29.4740  -15.1370   20.0940 N   0  0  0  0  0  0  0  0  0  0  0  0
  -31.1400  -16.4520   20.1290 O   0  0  0  0  0  0  0  0  0  0  0  0
  -29.1690  -18.2950   20.2550 N   0  0  0  0  0  2  0  0  0  0  0  0
  -28.1810  -18.0770   20.2530 H   0  0  0  0  0  0  0  0  0  0  0  0
  -25.1680  -13.9230   20.5350 C   0  0  0  0  0  0  0  0  0  0  0  0
  -24.1290  -13.1150   20.8880 C   0  0  0  0  0  0  0  0  0  0  0  0
  -24.6290  -11.7760   20.8430 C   0  0  0  0  0  0  0  0  0  0  0  0
  -26.2400  -13.0900   20.2950 N   0  0  0  0  0  0  0  0  0  0  0  0
  -25.9290  -11.7820   20.5320 N   0  0  0  0  0  0  0  0  0  0  0  0
  -23.9150  -10.5000   21.0210 C   0  0  0  0  0  0  0  0  0  0  0  0
  -24.3300   -9.5400   21.9710 C   0  0  0  0  0  3  0  0  0  0  0  0
  -23.6050   -8.3390   22.1450 C   0  0  0  0  0  3  0  0  0  0  0  0
  -22.4490   -8.0870   21.3690 C   0  0  0  0  0  0  0  0  0  0  0  0
  -22.0500   -9.0350   20.4100 C   0  0  0  0  0  3  0  0  0  0  0  0
  -22.7760  -10.2270   20.2360 C   0  0  0  0  0  3  0  0  0  0  0  0
  -21.7000   -6.9380   21.4500 O   0  0  0  0  0  0  0  0  0  0  0  0
  -21.6110   -6.2140   22.6120 C   0  0  0  0  0  0  0  0  0  0  0  0
  -21.0980   -6.7770   23.8010 C   0  0  0  0  0  3  0  0  0  0  0  0
  -20.9590   -5.9790   24.9550 C   0  0  0  0  0  3  0  0  0  0  0  0
  -21.3220   -4.6190   24.9200 C   0  0  0  0  0  0  0  0  0  0  0  0
  -21.8270   -4.0550   23.7340 C   0  0  0  0  0  3  0  0  0  0  0  0
  -21.9670   -4.8510   22.5840 C   0  0  0  0  0  0  0  0  0  0  0  0
  -22.4330   -4.2960   21.4380 F   0  0  0  0  0  0  0  0  0  0  0  0
  -21.1820   -3.8500   26.0260 F   0  0  0  0  0  0  0  0  0  0  0  0
  -22.7220  -13.5660   21.1470 C   0  0  0  0  0  0  0  0  0  0  0  0
  -22.0020  -12.8640   22.0140 N   0  0  0  0  0  0  0  0  0  0  0  0
  -22.2730  -14.5820   20.6180 O   0  0  0  0  0  0  0  0  0  0  0  0
  -22.3820  -12.0440   22.4640 H   0  0  0  0  0  0  0  0  0  0  0  0
  -21.0590  -13.1510   22.2320 H   0  0  0  0  0  0  0  0  0  0  0  0
  -25.2900  -15.2990   20.3600 N   0  0  0  0  0  0  0  0  0  0  0  0
  -24.5020  -15.9290   20.4630 H   0  0  0  0  0  0  0  0  0  0  0  0
  -26.1270  -15.7600   20.0280 H   0  0  0  0  0  0  0  0  0  0  0  0
  -30.5860  -20.7000   19.7400 C   0  0  0  0  0  0  0  0  0  0  0  0
  -31.3440  -19.6520   19.4560 N   0  0  0  0  0  0  0  0  0  0  0  0
  -30.9910  -21.8460   19.5620 O   0  0  0  0  0  0  0  0  0  0  0  0
  -30.9390  -18.7400   19.6400 H   0  0  0  0  0  0  0  0  0  0  0  0
  -32.2790  -19.7430   19.0870 H   0  0  0  0  0  0  0  0  0  0  0  0
  -28.1660  -22.5360   20.1860 C   0  0  0  0  0 15  0  0  0  0  0  0
  -28.1080  -24.6400   20.3490 O   0  0  0  0  0  1  0  0  0  0  0  0
  -24.6890  -31.7890   23.1670 C   0  0  0  0  0  0  0  0  0  0  0  0
  -27.2020  -26.1380   20.2980 C   0  0  0  0  0  0  0  0  0  0  0  0
  -23.5370  -30.3640   21.5380 C   0  0  0  0  0  3  0  0  0  0  0  0
  -24.9960  -28.5720   20.1930 C   0  0  0  0  0  0  0  0  0  0  0  0
  -26.1370  -30.3150   21.5150 C   0  0  0  0  0  2  0  0  0  0  0  0
  -26.1960  -28.8080   20.8700 C   0  0  0  0  0  0  0  0  0  0  0  0
  -27.2470  -27.6440   20.8720 C   0  0  0  0  0  3  0  0  0  0  0  0
  -25.9630  -26.2770   19.5550 C   0  0  0  0  0  3  0  0  0  0  0  0
  -24.9570  -27.3350   19.5090 C   0  0  0  0  0  3  0  0  0  0  0  0
  -23.8200  -29.6020   20.1990 C   0  0  0  0  0  2  0  0  0  0  0  0
  -24.8200  -30.8710   22.1250 N   0  0  0  0  0  0  0  0  0  0  0  0
  -23.5790  -32.1230   23.6290 O   0  0  0  0  0  0  0  0  0  0  0  0
  -22.7480  -29.4570   22.5270 C   0  0  0  0  0  0  0  0  0  0  0  0
  -21.4070  -29.3540   22.4010 N   0  0  0  0  0  0  0  0  0  0  0  0
  -23.3660  -28.8330   23.3900 O   0  0  0  0  0  0  0  0  0  0  0  0
  -20.9480  -29.9050   21.6890 H   0  0  0  0  0  0  0  0  0  0  0  0
  -17.9850  -28.2110   22.9490 C   0  0  0  0  0  0  0  0  0  0  0  0
  -20.5550  -28.4370   23.1770 C   0  0  0  0  0  3  0  0  0  0  0  0
  -20.6190  -27.0030   22.5980 C   0  0  0  0  0  2  0  0  0  0  0  0
  -19.5030  -26.7110   21.5910 C   0  0  0  0  0  2  0  0  0  0  0  0
  -18.1300  -26.8700   22.2500 C   0  0  0  0  0  2  0  0  0  0  0  0
  -19.1220  -28.9540   23.3680 C   0  0  0  0  0  0  0  0  0  0  0  0
  -18.9240  -30.2040   23.9940 C   0  0  0  0  0  3  0  0  0  0  0  0
  -17.6280  -30.7140   24.1970 C   0  0  0  0  0  3  0  0  0  0  0  0
  -16.5070  -29.9700   23.7860 C   0  0  0  0  0  3  0  0  0  0  0  0
  -16.6870  -28.7200   23.1690 C   0  0  0  0  0  3  0  0  0  0  0  0
  -25.9170  -32.4760   23.8420 C   0  0  0  0  0  3  0  0  0  0  0  0
  -25.5710  -33.8830   24.1660 N   0  0  0  0  0  0  0  0  0  0  0  0
  -25.9050  -34.9620   23.4440 C   0  0  0  0  0  0  0  0  0  0  0  0
  -26.5770  -34.8800   22.4130 O   0  0  0  0  0  0  0  0  0  0  0  0
  -24.9680  -34.0180   24.9640 H   0  0  0  0  0  0  0  0  0  0  0  0
  -24.1670  -36.7730   23.1560 C   0  0  0  0  0  1  0  0  0  0  0  0
  -25.4260  -36.3500   23.9320 C   0  0  0  0  0  3  0  0  0  0  0  0
  -27.5690  -37.2530   24.7340 C   0  0  0  0  0  1  0  0  0  0  0  0
  -26.4510  -37.4130   23.8070 N   0  0  0  0  0  0  0  0  0  0  0  0
  -26.0410  -38.3290   23.9600 H   0  0  0  0  0  0  0  0  0  0  0  0
  -26.3780  -31.7470   25.1660 C   0  0  1  0  0  0  0  0  0  0  0  0
  -25.2420  -31.5430   26.1990 C   0  0  0  0  0  1  0  0  0  0  0  0
  -26.9730  -30.3570   24.8610 C   0  0  0  0  0  1  0  0  0  0  0  0
  -27.5050  -32.5580   25.8500 C   0  0  0  0  0  1  0  0  0  0  0  0
  2 10  1  0
  3  8  1  0
  4  5  1  0
  4  3  1  0
  6  5  1  0
  6 15  1  0
  6  7  1  0
  8  2  1  0
  8  7  1  0
  9  2  2  0
 11 10  1  0
 12 13  2  0
 13 32  1  0
 14 13  1  0
 14 17  1  0
 15 16  1  0
 15 12  1  0
 16 14  2  0
 17 18  1  0
 18 19  2  0
 20 23  1  0
 20 19  1  0
 21 20  2  0
 22 21  1  0
 22 17  2  0
 23 24  1  0
 24 25  1  0
 25 26  2  0
 27 26  1  0
 27 31  1  0
 28 27  2  0
 29 24  2  0
 29 28  1  0
 30 29  1  0
 32 33  1  0
 33 36  1  0
 33 35  1  0
 34 32  2  0
 37 38  1  0
 37 12  1  0
 39 37  1  0
 40  1  1  0
 41 43  1  0
 41 40  1  0
 42 40  2  0
 44 41  1  0
 47 58  2  0
 48 46  1  0
 48 53  1  0
 49 57  1  0
 49 59  1  0
 50 56  1  0
 50 52  1  0
 51 57  1  0
 52 53  2  0
 52 51  1  0
 54 48  2  0
 55 54  1  0
 55 50  2  0
 56 49  1  0
 57 47  1  0
 59 61  2  0
 60 59  1  0
 62 60  1  0
 63 72  2  0
 63 68  1  0
 64 60  1  0
 64 68  1  0
 65 64  1  0
 66 67  1  0
 66 65  1  0
 67 63  1  0
 68 69  2  0
 69 70  1  0
 71 70  2  0
 72 71  1  0
 73 47  1  0
 73 74  1  0
 73 83  1  0
 74 77  1  0
 75 79  1  0
 75 74  1  0
 76 75  2  0
 79 78  1  0
 81 79  1  0
 81 82  1  0
 81 80  1  0
 83 86  1  1
 83 84  1  0
 85 83  1  0
M  ISO  4   2 100  10 100  45 101  46 101
M  END
>  <TORSDO>  (71) 
F 18

>  <SCORE>  (71) 
-16.034

>  <name>  (71) 
72

>  <ligand_id>  (71) 
72

>  <original_smiles>  (71) 
[H]c1c([H])c([H])c2c(c1[H])C([H])([H])C([H])([H])C([H])([H])C2([H])N([H])C(=O)C1([H])N(C(=O)C([H])(N([H])C(=O)C([H])(N([H])C([H])([H])[H])C([H])([H])[H])C(C([H])([H])[H])(C([H])([H])[H])C([H])([H])[H])C([H])([H])c2c([H])c(OC([H])([H])C([H])(C(=O)N([H])[H])N([H])C(=O)N3C([H])([H])C([H])([H])C([H])([H])C([H])(n4nc(-c5c([H])c([H])c(Oc6c([H])c([H])c(F)c([H])c6F)c([H])c5[H])c(C(=O)N([H])[H])c4N([H])[H])C3([H])[H])c([H])c([H])c2C1([H])[H]

>  <smiles>  (71) 
[H]c1c([H])c([H])c2c(c1[H])C([H])([H])C([H])([H])C([H])([H])C2([H])N([H])C(=O)C1([H])N(C(=O)C([H])(N([H])C(=O)C([H])(N([H])C([H])([H])[H])C([H])([H])[H])C(C([H])([H])[H])(C([H])([H])[H])C([H])([H])[H])C([H])([H])c2c([H])c(OC([H])([H])C([H])(C(=O)N([H])[H])N([H])C(=O)N3C([H])([H])C([H])([H])C([H])([H])C([H])(n4nc(-c5c([H])c([H])c(Oc6c([H])c([H])c(F)c([H])c6F)c([H])c5[H])c(C(=O)N([H])[H])c4N([H])[H])C3([H])[H])c([H])c([H])c2C1([H])[H]

$$$$
73:0:0
     RDKit          3D

 94101  0  0  1  0  0  0  0  0999 V2000
  -29.8500  -18.1320   20.9690 C   0  0  0  0  0  0  0  0  0  0  0  0
  -30.0540  -19.4240   20.6190 N   0  0  0  0  0  0  0  0  0  0  0  0
  -29.4040  -17.8280   22.0780 O   0  0  0  0  0  0  0  0  0  0  0  0
  -30.4560  -19.5990   19.7080 H   0  0  0  0  0  0  0  0  0  0  0  0
  -29.6050  -20.6130   21.3690 C   0  0  0  0  0  2  0  0  0  0  0  0
  -29.9680  -21.9580   20.6740 C   0  0  0  0  0  2  0  0  0  0  0  0
  -29.1710  -23.0470   21.1700 O   0  0  0  0  0  0  0  0  0  0  0  0
  -29.5700  -24.3700   20.7530 C   0  0  0  0  0  2  0  0  0  0  0  0
  -28.3310  -25.2310   20.3810 C   0  0  0  0  0  2  0  0  0  0  0  0
  -28.4890  -26.6690   20.4750 O   0  0  0  0  0  0  0  0  0  0  0  0
  -24.6100  -31.9270   23.3690 C   0  0  0  0  0  0  0  0  0  0  0  0
  -27.3270  -27.4280   20.4030 C   0  0  0  0  0  0  0  0  0  0  0  0
  -23.4410  -30.4970   21.7280 C   0  0  0  0  0  3  0  0  0  0  0  0
  -24.9270  -28.9510   20.3470 C   0  0  0  0  0  0  0  0  0  0  0  0
  -25.9730  -30.8590   21.5700 C   0  0  0  0  0  2  0  0  0  0  0  0
  -26.0760  -29.4800   20.9460 C   0  0  0  0  0  0  0  0  0  0  0  0
  -27.2800  -28.7300   20.9650 C   0  0  0  0  0  3  0  0  0  0  0  0
  -26.1520  -26.9280   19.7900 C   0  0  0  0  0  3  0  0  0  0  0  0
  -24.9620  -27.6750   19.7630 C   0  0  0  0  0  3  0  0  0  0  0  0
  -23.6780  -29.8030   20.3610 C   0  0  0  0  0  2  0  0  0  0  0  0
  -24.6920  -31.1110   22.2800 N   0  0  0  0  0  0  0  0  0  0  0  0
  -23.5180  -32.2010   23.8840 O   0  0  0  0  0  0  0  0  0  0  0  0
  -22.7760  -29.4840   22.6910 C   0  0  0  0  0  0  0  0  0  0  0  0
  -21.4630  -29.2660   22.5170 N   0  0  0  0  0  0  0  0  0  0  0  0
  -23.4430  -28.8990   23.5470 O   0  0  0  0  0  0  0  0  0  0  0  0
  -20.9860  -29.7920   21.7980 H   0  0  0  0  0  0  0  0  0  0  0  0
  -18.1050  -27.9850   22.9060 C   0  0  0  0  0  0  0  0  0  0  0  0
  -20.6390  -28.3300   23.2830 C   0  0  0  0  0  3  0  0  0  0  0  0
  -20.8100  -26.8840   22.7610 C   0  0  0  0  0  2  0  0  0  0  0  0
  -19.7640  -26.4940   21.7100 C   0  0  0  0  0  2  0  0  0  0  0  0
  -18.3510  -26.6190   22.2860 C   0  0  0  0  0  2  0  0  0  0  0  0
  -19.1800  -28.7940   23.3590 C   0  0  0  0  0  0  0  0  0  0  0  0
  -18.8970  -30.0700   23.8950 C   0  0  0  0  0  3  0  0  0  0  0  0
  -17.5720  -30.5360   23.9840 C   0  0  0  0  0  3  0  0  0  0  0  0
  -16.5120  -29.7240   23.5480 C   0  0  0  0  0  3  0  0  0  0  0  0
  -16.7780  -28.4510   23.0150 C   0  0  0  0  0  3  0  0  0  0  0  0
  -25.8810  -32.5740   24.0010 C   0  0  0  0  0  3  0  0  0  0  0  0
  -25.5660  -33.9820   24.2820 N   0  0  0  0  0  0  0  0  0  0  0  0
  -25.9260  -35.0110   23.5030 C   0  0  0  0  0  0  0  0  0  0  0  0
  -26.6270  -34.8750   22.4960 O   0  0  0  0  0  0  0  0  0  0  0  0
  -24.9480  -34.1600   25.0600 H   0  0  0  0  0  0  0  0  0  0  0  0
  -24.2240  -36.8020   23.0340 C   0  0  0  0  0  1  0  0  0  0  0  0
  -25.4290  -36.4140   23.9050 C   0  0  0  0  0  3  0  0  0  0  0  0
  -27.5320  -37.3110   24.8000 C   0  0  0  0  0  1  0  0  0  0  0  0
  -26.4720  -37.4570   23.8060 N   0  0  0  0  0  0  0  0  0  0  0  0
  -26.0650  -38.3830   23.9090 H   0  0  0  0  0  0  0  0  0  0  0  0
  -26.3660  -31.8400   25.3110 C   0  0  1  0  0  0  0  0  0  0  0  0
  -25.2460  -31.6270   26.3560 C   0  0  0  0  0  1  0  0  0  0  0  0
  -26.9640  -30.4540   24.9710 C   0  0  0  0  0  1  0  0  0  0  0  0
  -27.4960  -32.6570   25.9810 C   0  0  0  0  0  1  0  0  0  0  0  0
  -30.1790  -17.0150   19.9310 C   0  0  0  0  0  3  0  0  0  0  0  0
  -30.7140  -14.5810   20.2160 C   0  0  0  0  0  0  0  0  0  0  0  0
  -30.3930  -12.4450   19.0420 C   0  0  0  0  0  2  0  0  0  0  0  0
  -29.4180  -12.7020   17.8720 C   0  0  0  0  0  2  0  0  0  0  0  0
  -27.9560  -12.5550   18.3370 C   0  0  0  0  0  2  0  0  0  0  0  0
  -27.6570  -13.3400   19.6410 C   0  0  0  0  0  3  0  0  0  0  0  0
  -28.7450  -13.0900   20.7120 C   0  0  0  0  0  2  0  0  0  0  0  0
  -30.0530  -13.3970   20.1110 N   0  0  0  0  0  0  0  0  0  0  0  0
  -31.8790  -14.7340   19.8450 O   0  0  0  0  0  0  0  0  0  0  0  0
  -29.9090  -15.6410   20.3990 N   0  0  0  0  0  0  0  0  0  0  0  0
  -28.9510  -15.4640   20.6520 H   0  0  0  0  0  0  0  0  0  0  0  0
  -25.2700  -13.9300   20.4000 C   0  0  0  0  0  0  0  0  0  0  0  0
  -24.2170  -13.1490   20.7940 C   0  0  0  0  0  0  0  0  0  0  0  0
  -24.6880  -11.8010   20.7540 C   0  0  0  0  0  0  0  0  0  0  0  0
  -26.3170  -13.0560   20.1490 N   0  0  0  0  0  0  0  0  0  0  0  0
  -25.9720  -11.7720   20.4200 N   0  0  0  0  0  0  0  0  0  0  0  0
  -23.9770  -10.5320   20.9560 C   0  0  0  0  0  0  0  0  0  0  0  0
  -24.4200   -9.5800   21.9000 C   0  0  0  0  0  3  0  0  0  0  0  0
  -23.7080   -8.3750   22.0900 C   0  0  0  0  0  3  0  0  0  0  0  0
  -22.5400   -8.1160   21.3360 C   0  0  0  0  0  0  0  0  0  0  0  0
  -22.1160   -9.0560   20.3800 C   0  0  0  0  0  3  0  0  0  0  0  0
  -22.8290  -10.2520   20.1890 C   0  0  0  0  0  3  0  0  0  0  0  0
  -21.7990   -6.9620   21.4340 O   0  0  0  0  0  0  0  0  0  0  0  0
  -21.7430   -6.2400   22.5990 C   0  0  0  0  0  0  0  0  0  0  0  0
  -21.2720   -6.8070   23.8050 C   0  0  0  0  0  3  0  0  0  0  0  0
  -21.1650   -6.0100   24.9620 C   0  0  0  0  0  3  0  0  0  0  0  0
  -21.5180   -4.6480   24.9150 C   0  0  0  0  0  0  0  0  0  0  0  0
  -21.9830   -4.0820   23.7150 C   0  0  0  0  0  3  0  0  0  0  0  0
  -22.0920   -4.8750   22.5600 C   0  0  0  0  0  0  0  0  0  0  0  0
  -22.5200   -4.3200   21.4010 F   0  0  0  0  0  0  0  0  0  0  0  0
  -21.4080   -3.8800   26.0240 F   0  0  0  0  0  0  0  0  0  0  0  0
  -22.8200  -13.6140   21.0920 C   0  0  0  0  0  0  0  0  0  0  0  0
  -22.1110  -12.9110   21.9670 N   0  0  0  0  0  0  0  0  0  0  0  0
  -22.3650  -14.6370   20.5820 O   0  0  0  0  0  0  0  0  0  0  0  0
  -22.4920  -12.0840   22.4050 H   0  0  0  0  0  0  0  0  0  0  0  0
  -21.1750  -13.2060   22.2060 H   0  0  0  0  0  0  0  0  0  0  0  0
  -25.4180  -15.3020   20.2140 N   0  0  0  0  0  0  0  0  0  0  0  0
  -24.6330  -15.9370   20.3150 H   0  0  0  0  0  0  0  0  0  0  0  0
  -26.2230  -15.7410   19.7790 H   0  0  0  0  0  0  0  0  0  0  0  0
  -29.2440  -17.2160   18.7220 C   0  0  0  0  0  0  0  0  0  0  0  0
  -29.7810  -17.6470   17.5850 N   0  0  0  0  0  0  0  0  0  0  0  0
  -28.0460  -16.9350   18.7880 O   0  0  0  0  0  0  0  0  0  0  0  0
  -30.7730  -17.8260   17.5140 H   0  0  0  0  0  0  0  0  0  0  0  0
  -29.2050  -17.7680   16.7640 H   0  0  0  0  0  0  0  0  0  0  0  0
  1  3  2  0
  2  1  1  0
  2  5  1  0
  4  2  1  0
  6  7  1  0
  6  5  1  0
  8  7  1  0
  9 10  1  0
  9  8  1  0
 11 22  2  0
 12 10  1  0
 12 17  1  0
 13 21  1  0
 13 23  1  0
 14 20  1  0
 14 16  1  0
 15 21  1  0
 16 17  2  0
 16 15  1  0
 18 12  2  0
 19 18  1  0
 19 14  2  0
 20 13  1  0
 21 11  1  0
 23 25  2  0
 24 23  1  0
 26 24  1  0
 27 36  2  0
 27 32  1  0
 28 24  1  0
 28 32  1  0
 29 28  1  0
 30 31  1  0
 30 29  1  0
 31 27  1  0
 32 33  2  0
 33 34  1  0
 35 34  2  0
 36 35  1  0
 37 11  1  0
 37 38  1  0
 37 47  1  0
 38 41  1  0
 39 43  1  0
 39 38  1  0
 40 39  2  0
 43 42  1  0
 45 43  1  0
 45 46  1  0
 45 44  1  0
 47 50  1  1
 47 48  1  0
 49 47  1  0
 51 90  1  0
 51 60  1  0
 51  1  1  0
 52 60  1  0
 53 58  1  0
 54 55  1  0
 54 53  1  0
 56 55  1  0
 56 65  1  0
 56 57  1  0
 58 52  1  0
 58 57  1  0
 59 52  2  0
 60 61  1  0
 62 63  2  0
 63 82  1  0
 64 63  1  0
 64 67  1  0
 65 62  1  0
 65 66  1  0
 66 64  2  0
 67 68  1  0
 68 69  2  0
 70 73  1  0
 70 69  1  0
 71 70  2  0
 72 71  1  0
 72 67  2  0
 73 74  1  0
 74 75  1  0
 75 76  2  0
 77 76  1  0
 77 81  1  0
 78 77  2  0
 79 74  2  0
 79 78  1  0
 80 79  1  0
 82 83  1  0
 83 86  1  0
 83 85  1  0
 84 82  2  0
 87 88  1  0
 87 62  1  0
 89 87  1  0
 90 92  2  0
 91 90  1  0
 93 91  1  0
 94 91  1  0
M  ISO  4   9 101  10 101  52 100  60 100
M  END
>  <TORSDO>  (72) 
F 23

>  <SCORE>  (72) 
-12.266

>  <name>  (72) 
73

>  <ligand_id>  (72) 
73

>  <original_smiles>  (72) 
[H]c1c([H])c([H])c2c(c1[H])C([H])([H])C([H])([H])C([H])([H])C2([H])N([H])C(=O)C1([H])N(C(=O)C([H])(N([H])C(=O)C([H])(N([H])C([H])([H])[H])C([H])([H])[H])C(C([H])([H])[H])(C([H])([H])[H])C([H])([H])[H])C([H])([H])c2c([H])c(OC([H])([H])C([H])([H])OC([H])([H])C([H])([H])N([H])C(=O)C([H])(C(=O)N([H])[H])N([H])C(=O)N3C([H])([H])C([H])([H])C([H])([H])C([H])(n4nc(-c5c([H])c([H])c(Oc6c([H])c([H])c(F)c([H])c6F)c([H])c5[H])c(C(=O)N([H])[H])c4N([H])[H])C3([H])[H])c([H])c([H])c2C1([H])[H]

>  <smiles>  (72) 
[H]c1c([H])c([H])c2c(c1[H])C([H])([H])C([H])([H])C([H])([H])C2([H])N([H])C(=O)C1([H])N(C(=O)C([H])(N([H])C(=O)C([H])(N([H])C([H])([H])[H])C([H])([H])[H])C(C([H])([H])[H])(C([H])([H])[H])C([H])([H])[H])C([H])([H])c2c([H])c(OC([H])([H])C([H])([H])OC([H])([H])C([H])([H])N([H])C(=O)C([H])(C(=O)N([H])[H])N([H])C(=O)N3C([H])([H])C([H])([H])C([H])([H])C([H])(n4nc(-c5c([H])c([H])c(Oc6c([H])c([H])c(F)c([H])c6F)c([H])c5[H])c(C(=O)N([H])[H])c4N([H])[H])C3([H])[H])c([H])c([H])c2C1([H])[H]

$$$$
74:0:0
     RDKit          3D

 93100  0  0  1  0  0  0  0  0999 V2000
  -30.2020  -21.8380   20.5510 C   0  0  0  0  0  2  0  0  0  0  0  0
  -29.5700  -24.2840   20.2700 C   0  0  0  0  0  0  0  0  0  0  0  0
  -29.3240  -22.9610   20.1730 N   0  0  0  0  0  0  0  0  0  0  0  0
  -30.6260  -24.7280   20.7280 O   0  0  0  0  0  0  0  0  0  0  0  0
  -28.4190  -22.6750   19.8150 H   0  0  0  0  0  0  0  0  0  0  0  0
  -28.4530  -25.2320   19.7650 C   0  0  0  0  0  2  0  0  0  0  0  0
  -28.6160  -26.6320   20.1300 O   0  0  0  0  0  0  0  0  0  0  0  0
  -24.6650  -31.7390   23.2120 C   0  0  0  0  0  0  0  0  0  0  0  0
  -27.4620  -27.4090   20.0650 C   0  0  0  0  0  0  0  0  0  0  0  0
  -23.5350  -30.3850   21.4830 C   0  0  0  0  0  3  0  0  0  0  0  0
  -25.0570  -28.9270   20.0470 C   0  0  0  0  0  0  0  0  0  0  0  0
  -26.0660  -30.7720   21.3870 C   0  0  0  0  0  2  0  0  0  0  0  0
  -26.1930  -29.4260   20.6970 C   0  0  0  0  0  0  0  0  0  0  0  0
  -27.3970  -28.6760   20.7040 C   0  0  0  0  0  3  0  0  0  0  0  0
  -26.3030  -26.9540   19.3880 C   0  0  0  0  0  3  0  0  0  0  0  0
  -25.1100  -27.6930   19.3880 C   0  0  0  0  0  3  0  0  0  0  0  0
  -23.8010  -29.7690   20.0860 C   0  0  0  0  0  2  0  0  0  0  0  0
  -24.7720  -30.9780   22.0870 N   0  0  0  0  0  0  0  0  0  0  0  0
  -23.5620  -31.9760   23.7240 O   0  0  0  0  0  0  0  0  0  0  0  0
  -22.8680  -29.3170   22.3810 C   0  0  0  0  0  0  0  0  0  0  0  0
  -21.5470  -29.1360   22.2180 N   0  0  0  0  0  0  0  0  0  0  0  0
  -23.5370  -28.6560   23.1810 O   0  0  0  0  0  0  0  0  0  0  0  0
  -21.0680  -29.7220   21.5490 H   0  0  0  0  0  0  0  0  0  0  0  0
  -18.1600  -27.9400   22.6250 C   0  0  0  0  0  0  0  0  0  0  0  0
  -20.7170  -28.1620   22.9290 C   0  0  0  0  0  3  0  0  0  0  0  0
  -20.8130  -26.7640   22.2730 C   0  0  0  0  0  2  0  0  0  0  0  0
  -19.7160  -26.5090   21.2350 C   0  0  0  0  0  2  0  0  0  0  0  0
  -18.3310  -26.6290   21.8760 C   0  0  0  0  0  2  0  0  0  0  0  0
  -19.2810  -28.6670   23.1060 C   0  0  0  0  0  0  0  0  0  0  0  0
  -19.0680  -29.8980   23.7640 C   0  0  0  0  0  3  0  0  0  0  0  0
  -17.7660  -30.4010   23.9480 C   0  0  0  0  0  3  0  0  0  0  0  0
  -16.6590  -29.6690   23.4840 C   0  0  0  0  0  3  0  0  0  0  0  0
  -16.8570  -28.4410   22.8290 C   0  0  0  0  0  3  0  0  0  0  0  0
  -25.9190  -32.3660   23.8970 C   0  0  0  0  0  3  0  0  0  0  0  0
  -26.3790  -31.5820   25.1870 C   0  0  1  0  0  0  0  0  0  0  0  0
  -25.2380  -31.3220   26.1970 C   0  0  0  0  0  1  0  0  0  0  0  0
  -26.9910  -30.2140   24.8040 C   0  0  0  0  0  1  0  0  0  0  0  0
  -27.4910  -32.3750   25.9130 C   0  0  0  0  0  1  0  0  0  0  0  0
  -25.5930  -33.7600   24.2240 N   0  0  0  0  0  0  0  0  0  0  0  0
  -25.9230  -34.8160   23.4670 C   0  0  0  0  0  0  0  0  0  0  0  0
  -26.6050  -34.7180   22.4430 O   0  0  0  0  0  0  0  0  0  0  0  0
  -24.9890  -33.9090   25.0190 H   0  0  0  0  0  0  0  0  0  0  0  0
  -24.1680  -36.5800   23.1070 C   0  0  0  0  0  1  0  0  0  0  0  0
  -25.4170  -36.1990   23.9190 C   0  0  0  0  0  3  0  0  0  0  0  0
  -27.5320  -37.1260   24.7530 C   0  0  0  0  0  1  0  0  0  0  0  0
  -26.4340  -37.2660   23.8000 N   0  0  0  0  0  0  0  0  0  0  0  0
  -26.0130  -38.1820   23.9340 H   0  0  0  0  0  0  0  0  0  0  0  0
  -29.4330  -20.4940   20.6340 C   0  0  0  0  0  0  0  0  0  0  0  0
  -30.1360  -19.3480   20.7460 N   0  0  0  0  0  0  0  0  0  0  0  0
  -28.1990  -20.5010   20.6030 O   0  0  0  0  0  0  0  0  0  0  0  0
  -31.1470  -19.4050   20.7050 H   0  0  0  0  0  0  0  0  0  0  0  0
  -29.1770  -17.7150   22.3460 C   0  0  0  0  0  1  0  0  0  0  0  0
  -29.6040  -17.9710   20.8870 C   0  0  0  0  0  3  0  0  0  0  0  0
  -30.9050  -14.5730   19.7920 C   0  0  0  0  0  0  0  0  0  0  0  0
  -30.4650  -12.4360   18.6340 C   0  0  0  0  0  2  0  0  0  0  0  0
  -29.4000  -12.6650   17.5420 C   0  0  0  0  0  2  0  0  0  0  0  0
  -27.9830  -12.5060   18.1270 C   0  0  0  0  0  2  0  0  0  0  0  0
  -27.7830  -13.3090   19.4400 C   0  0  0  0  0  3  0  0  0  0  0  0
  -28.9560  -13.0850   20.4220 C   0  0  0  0  0  2  0  0  0  0  0  0
  -30.2050  -13.4050   19.7130 N   0  0  0  0  0  0  0  0  0  0  0  0
  -32.0060  -14.6920   19.2460 O   0  0  0  0  0  0  0  0  0  0  0  0
  -30.6470  -16.9140   20.4390 C   0  0  0  0  0  0  0  0  0  0  0  0
  -30.2380  -15.6240   20.3310 N   0  0  0  0  0  0  0  0  0  0  0  0
  -31.7950  -17.3090   20.1990 O   0  0  0  0  0  0  0  0  0  0  0  0
  -29.3000  -15.4300   20.6400 H   0  0  0  0  0  0  0  0  0  0  0  0
  -25.4950  -13.8840   20.4630 C   0  0  0  0  0  0  0  0  0  0  0  0
  -24.4650  -13.0970   20.9020 C   0  0  0  0  0  0  0  0  0  0  0  0
  -24.8980  -11.7470   20.7310 C   0  0  0  0  0  0  0  0  0  0  0  0
  -26.4930  -13.0120   20.0560 N   0  0  0  0  0  0  0  0  0  0  0  0
  -26.1440  -11.7180   20.2740 N   0  0  0  0  0  0  0  0  0  0  0  0
  -24.1770  -10.4810   20.9190 C   0  0  0  0  0  0  0  0  0  0  0  0
  -24.6110   -9.5170   21.8540 C   0  0  0  0  0  3  0  0  0  0  0  0
  -23.8910   -8.3150   22.0320 C   0  0  0  0  0  3  0  0  0  0  0  0
  -22.7230   -8.0700   21.2710 C   0  0  0  0  0  0  0  0  0  0  0  0
  -22.3080   -9.0230   20.3240 C   0  0  0  0  0  3  0  0  0  0  0  0
  -23.0290  -10.2150   20.1460 C   0  0  0  0  0  3  0  0  0  0  0  0
  -21.9750   -6.9210   21.3580 O   0  0  0  0  0  0  0  0  0  0  0  0
  -21.7970   -6.2650   22.5480 C   0  0  0  0  0  0  0  0  0  0  0  0
  -21.1880   -6.8900   23.6600 C   0  0  0  0  0  3  0  0  0  0  0  0
  -20.9620   -6.1570   24.8420 C   0  0  0  0  0  3  0  0  0  0  0  0
  -21.3340   -4.8010   24.9140 C   0  0  0  0  0  0  0  0  0  0  0  0
  -21.9350   -4.1760   23.8070 C   0  0  0  0  0  3  0  0  0  0  0  0
  -22.1620   -4.9060   22.6270 C   0  0  0  0  0  0  0  0  0  0  0  0
  -22.7220   -4.2940   21.5560 F   0  0  0  0  0  0  0  0  0  0  0  0
  -21.1100   -4.0960   26.0460 F   0  0  0  0  0  0  0  0  0  0  0  0
  -23.1160  -13.5670   21.3640 C   0  0  0  0  0  0  0  0  0  0  0  0
  -22.5010  -12.8460   22.2940 N   0  0  0  0  0  0  0  0  0  0  0  0
  -22.6190  -14.6080   20.9340 O   0  0  0  0  0  0  0  0  0  0  0  0
  -22.9170  -12.0010   22.6600 H   0  0  0  0  0  0  0  0  0  0  0  0
  -21.6010  -13.1400   22.6480 H   0  0  0  0  0  0  0  0  0  0  0  0
  -25.6590  -15.2620   20.3550 N   0  0  0  0  0  0  0  0  0  0  0  0
  -24.9120  -15.9080   20.5820 H   0  0  0  0  0  0  0  0  0  0  0  0
  -26.4500  -15.7140   19.9150 H   0  0  0  0  0  0  0  0  0  0  0  0
  1 48  1  0
  2  4  2  0
  3  2  1  0
  3  1  1  0
  5  3  1  0
  6  7  1  0
  6  2  1  0
  8 19  2  0
  9  7  1  0
  9 14  1  0
 10 18  1  0
 10 20  1  0
 11 17  1  0
 11 13  1  0
 12 18  1  0
 13 14  2  0
 13 12  1  0
 15  9  2  0
 16 15  1  0
 16 11  2  0
 17 10  1  0
 18  8  1  0
 20 22  2  0
 21 20  1  0
 23 21  1  0
 24 33  2  0
 24 29  1  0
 25 21  1  0
 25 29  1  0
 26 25  1  0
 27 28  1  0
 27 26  1  0
 28 24  1  0
 29 30  2  0
 30 31  1  0
 32 31  2  0
 33 32  1  0
 34  8  1  0
 34 39  1  0
 34 35  1  0
 35 38  1  1
 35 36  1  0
 37 35  1  0
 39 42  1  0
 40 44  1  0
 40 39  1  0
 41 40  2  0
 44 43  1  0
 46 44  1  0
 46 47  1  0
 46 45  1  0
 48 49  1  0
 49 53  1  0
 50 48  2  0
 51 49  1  0
 53 52  1  0
 54 63  1  0
 55 60  1  0
 56 57  1  0
 56 55  1  0
 58 57  1  0
 58 69  1  0
 58 59  1  0
 60 54  1  0
 60 59  1  0
 61 54  2  0
 62 53  1  0
 63 62  1  0
 63 65  1  0
 64 62  2  0
 66 67  2  0
 67 86  1  0
 68 67  1  0
 68 71  1  0
 69 70  1  0
 69 66  1  0
 70 68  2  0
 71 72  1  0
 72 73  2  0
 74 77  1  0
 74 73  1  0
 75 74  2  0
 76 75  1  0
 76 71  2  0
 77 78  1  0
 78 83  2  0
 78 79  1  0
 79 80  2  0
 80 81  1  0
 81 85  1  0
 82 81  2  0
 83 82  1  0
 84 83  1  0
 86 87  1  0
 87 90  1  0
 87 89  1  0
 88 86  2  0
 91 66  1  0
 91 92  1  0
 93 91  1  0
M  ISO  4   6 101   7 101  54 100  63 100
M  END
>  <TORSDO>  (73) 
F 20

>  <SCORE>  (73) 
-11.295

>  <name>  (73) 
74

>  <ligand_id>  (73) 
74

>  <original_smiles>  (73) 
[H]c1c([H])c([H])c2c(c1[H])C([H])([H])C([H])([H])C([H])([H])C2([H])N([H])C(=O)C1([H])N(C(=O)C([H])(N([H])C(=O)C([H])(N([H])C([H])([H])[H])C([H])([H])[H])C(C([H])([H])[H])(C([H])([H])[H])C([H])([H])[H])C([H])([H])c2c([H])c(OC([H])([H])C(=O)N([H])C([H])([H])C(=O)N([H])C([H])(C(=O)N([H])C(=O)N3C([H])([H])C([H])([H])C([H])([H])C([H])(n4nc(-c5c([H])c([H])c(Oc6c([H])c([H])c(F)c([H])c6F)c([H])c5[H])c(C(=O)N([H])[H])c4N([H])[H])C3([H])[H])C([H])([H])[H])c([H])c([H])c2C1([H])[H]

>  <smiles>  (73) 
[H]c1c([H])c([H])c2c(c1[H])C([H])([H])C([H])([H])C([H])([H])C2([H])N([H])C(=O)C1([H])N(C(=O)C([H])(N([H])C(=O)C([H])(N([H])C([H])([H])[H])C([H])([H])[H])C(C([H])([H])[H])(C([H])([H])[H])C([H])([H])[H])C([H])([H])c2c([H])c(OC([H])([H])C(=O)N([H])C([H])([H])C(=O)N([H])C([H])(C(=O)N([H])C(=O)N3C([H])([H])C([H])([H])C([H])([H])C([H])(n4nc(-c5c([H])c([H])c(Oc6c([H])c([H])c(F)c([H])c6F)c([H])c5[H])c(C(=O)N([H])[H])c4N([H])[H])C3([H])[H])C([H])([H])[H])c([H])c([H])c2C1([H])[H]

$$$$
75:0:0
     RDKit          3D

 90 97  0  0  1  0  0  0  0  0999 V2000
  -29.0780  -21.7470   20.0680 C   0  0  0  0  0  2  0  0  0  0  0  0
  -31.0500  -21.0110   21.6270 C   0  0  0  0  0  1  0  0  0  0  0  0
  -29.7330  -20.5820   20.9440 C   0  0  0  0  0  3  0  0  0  0  0  0
  -30.4610  -18.0690   20.5780 C   0  0  0  0  0  0  0  0  0  0  0  0
  -29.7730  -19.2250   20.2940 N   0  0  0  0  0  0  0  0  0  0  0  0
  -31.5470  -18.0580   21.1610 O   0  0  0  0  0  0  0  0  0  0  0  0
  -28.9570  -19.0510   19.7210 H   0  0  0  0  0  0  0  0  0  0  0  0
  -28.3140  -16.7770   20.7420 C   0  0  0  0  0  1  0  0  0  0  0  0
  -29.7570  -16.7090   20.2070 C   0  0  0  0  0  3  0  0  0  0  0  0
  -30.3420  -15.4950   20.7850 O   0  0  0  0  0  0  0  0  0  0  0  0
  -30.9370  -14.5050   20.0160 C   0  0  0  0  0  0  0  0  0  0  0  0
  -30.5290  -12.2610   18.9670 C   0  0  0  0  0  2  0  0  0  0  0  0
  -29.5460  -12.4160   17.7900 C   0  0  0  0  0  2  0  0  0  0  0  0
  -28.0920  -12.3010   18.2870 C   0  0  0  0  0  2  0  0  0  0  0  0
  -27.8090  -13.2160   19.5110 C   0  0  0  0  0  3  0  0  0  0  0  0
  -28.9020  -13.0620   20.5990 C   0  0  0  0  0  2  0  0  0  0  0  0
  -30.2030  -13.2960   19.9630 N   0  0  0  0  0  0  0  0  0  0  0  0
  -31.9850  -14.7010   19.3990 O   0  0  0  0  0  0  0  0  0  0  0  0
  -25.4760  -13.9020   20.3510 C   0  0  0  0  0  0  0  0  0  0  0  0
  -24.4030  -13.1650   20.7810 C   0  0  0  0  0  0  0  0  0  0  0  0
  -24.8100  -11.8000   20.7130 C   0  0  0  0  0  0  0  0  0  0  0  0
  -26.4720  -12.9860   20.0570 N   0  0  0  0  0  0  0  0  0  0  0  0
  -26.0800  -11.7150   20.3330 N   0  0  0  0  0  0  0  0  0  0  0  0
  -24.0500  -10.5590   20.9280 C   0  0  0  0  0  0  0  0  0  0  0  0
  -24.4860   -9.5700   21.8360 C   0  0  0  0  0  3  0  0  0  0  0  0
  -23.7250   -8.3970   22.0350 C   0  0  0  0  0  3  0  0  0  0  0  0
  -22.5100   -8.2130   21.3350 C   0  0  0  0  0  0  0  0  0  0  0  0
  -22.0880   -9.1920   20.4170 C   0  0  0  0  0  3  0  0  0  0  0  0
  -22.8530  -10.3530   20.2100 C   0  0  0  0  0  3  0  0  0  0  0  0
  -21.7180   -7.0970   21.4530 O   0  0  0  0  0  0  0  0  0  0  0  0
  -21.6770   -6.3590   22.6100 C   0  0  0  0  0  0  0  0  0  0  0  0
  -21.2930   -6.9250   23.8440 C   0  0  0  0  0  3  0  0  0  0  0  0
  -21.2040   -6.1150   24.9950 C   0  0  0  0  0  3  0  0  0  0  0  0
  -21.4850   -4.7370   24.9100 C   0  0  0  0  0  0  0  0  0  0  0  0
  -21.8600   -4.1690   23.6800 C   0  0  0  0  0  3  0  0  0  0  0  0
  -21.9510   -4.9760   22.5330 C   0  0  0  0  0  0  0  0  0  0  0  0
  -22.3000   -4.4230   21.3450 F   0  0  0  0  0  0  0  0  0  0  0  0
  -21.3920   -3.9540   26.0110 F   0  0  0  0  0  0  0  0  0  0  0  0
  -23.0440  -13.6960   21.1340 C   0  0  0  0  0  0  0  0  0  0  0  0
  -22.3480  -13.0270   22.0460 N   0  0  0  0  0  0  0  0  0  0  0  0
  -22.6110  -14.7360   20.6410 O   0  0  0  0  0  0  0  0  0  0  0  0
  -22.7150  -12.1900   22.4720 H   0  0  0  0  0  0  0  0  0  0  0  0
  -21.4350  -13.3600   22.3200 H   0  0  0  0  0  0  0  0  0  0  0  0
  -25.6830  -15.2610   20.1730 N   0  0  0  0  0  0  0  0  0  0  0  0
  -24.9520  -15.9400   20.3410 H   0  0  0  0  0  0  0  0  0  0  0  0
  -26.5300  -15.6640   19.7960 H   0  0  0  0  0  0  0  0  0  0  0  0
  -29.0770  -23.0420   20.7340 O   0  0  0  0  0  0  0  0  0  0  0  0
  -28.1020  -24.0500   20.3290 C   0  0  0  0  0  2  0  0  0  0  0  0
  -28.6700  -25.3710   19.6910 C   0  0  0  0  0  2  0  0  0  0  0  0
  -28.4460  -26.6400   20.3620 O   0  0  0  0  0  0  0  0  0  0  0  0
  -24.5900  -31.8970   23.2440 C   0  0  0  0  0  0  0  0  0  0  0  0
  -27.2600  -27.3630   20.2660 C   0  0  0  0  0  0  0  0  0  0  0  0
  -23.3940  -30.4630   21.6140 C   0  0  0  0  0  3  0  0  0  0  0  0
  -24.8610  -28.8950   20.2160 C   0  0  0  0  0  0  0  0  0  0  0  0
  -25.9200  -30.8100   21.4310 C   0  0  0  0  0  2  0  0  0  0  0  0
  -26.0080  -29.4220   20.8210 C   0  0  0  0  0  0  0  0  0  0  0  0
  -27.2010  -28.6570   20.8440 C   0  0  0  0  0  3  0  0  0  0  0  0
  -26.0920  -26.8610   19.6530 C   0  0  0  0  0  3  0  0  0  0  0  0
  -24.8990  -27.6180   19.6250 C   0  0  0  0  0  3  0  0  0  0  0  0
  -23.6170  -29.7590   20.2420 C   0  0  0  0  0  2  0  0  0  0  0  0
  -24.6510  -31.0760   22.1560 N   0  0  0  0  0  0  0  0  0  0  0  0
  -23.5050  -32.1810   23.7750 O   0  0  0  0  0  0  0  0  0  0  0  0
  -22.7310  -29.4630   22.5890 C   0  0  0  0  0  0  0  0  0  0  0  0
  -21.4090  -29.2870   22.4540 N   0  0  0  0  0  0  0  0  0  0  0  0
  -23.4000  -28.8480   23.4240 O   0  0  0  0  0  0  0  0  0  0  0  0
  -20.9330  -29.8400   21.7540 H   0  0  0  0  0  0  0  0  0  0  0  0
  -18.0180  -28.1400   22.9650 C   0  0  0  0  0  0  0  0  0  0  0  0
  -20.5800  -28.3620   23.2260 C   0  0  0  0  0  3  0  0  0  0  0  0
  -20.6580  -26.9340   22.6410 C   0  0  0  0  0  2  0  0  0  0  0  0
  -19.5490  -26.6310   21.6300 C   0  0  0  0  0  2  0  0  0  0  0  0
  -18.1710  -26.7930   22.2810 C   0  0  0  0  0  2  0  0  0  0  0  0
  -19.1490  -28.8870   23.3920 C   0  0  0  0  0  0  0  0  0  0  0  0
  -18.9500  -30.1500   23.9890 C   0  0  0  0  0  3  0  0  0  0  0  0
  -17.6530  -30.6730   24.1580 C   0  0  0  0  0  3  0  0  0  0  0  0
  -16.5370  -29.9240   23.7460 C   0  0  0  0  0  3  0  0  0  0  0  0
  -16.7200  -28.6590   23.1610 C   0  0  0  0  0  3  0  0  0  0  0  0
  -25.8720  -32.5310   23.8720 C   0  0  0  0  0  3  0  0  0  0  0  0
  -25.5720  -33.9300   24.2050 N   0  0  0  0  0  0  0  0  0  0  0  0
  -25.9030  -34.9800   23.4380 C   0  0  0  0  0  0  0  0  0  0  0  0
  -26.5760  -34.8700   22.4090 O   0  0  0  0  0  0  0  0  0  0  0  0
  -24.9840  -34.0870   25.0110 H   0  0  0  0  0  0  0  0  0  0  0  0
  -24.1840  -36.7700   23.0420 C   0  0  0  0  0  1  0  0  0  0  0  0
  -25.4080  -36.3700   23.8830 C   0  0  0  0  0  3  0  0  0  0  0  0
  -27.5280  -37.2460   24.7600 C   0  0  0  0  0  1  0  0  0  0  0  0
  -26.4460  -37.4190   23.7930 N   0  0  0  0  0  0  0  0  0  0  0  0
  -26.0410  -38.3390   23.9280 H   0  0  0  0  0  0  0  0  0  0  0  0
  -26.3860  -31.7590   25.1500 C   0  0  1  0  0  0  0  0  0  0  0  0
  -25.2890  -31.5150   26.2120 C   0  0  0  0  0  1  0  0  0  0  0  0
  -26.9700  -30.3840   24.7550 C   0  0  0  0  0  1  0  0  0  0  0  0
  -27.5390  -32.5480   25.8180 C   0  0  0  0  0  1  0  0  0  0  0  0
  1 47  1  0
  1  3  1  0
  3  2  1  0
  4  6  2  0
  5  4  1  0
  5  3  1  0
  7  5  1  0
  9  4  1  0
  9  8  1  0
  9 10  1  0
 11 10  1  0
 12 17  1  0
 13 14  1  0
 13 12  1  0
 15 14  1  0
 15 22  1  0
 15 16  1  0
 17 11  1  0
 17 16  1  0
 18 11  2  0
 19 20  2  0
 20 39  1  0
 21 20  1  0
 21 24  1  0
 22 23  1  0
 22 19  1  0
 23 21  2  0
 24 25  1  0
 25 26  2  0
 27 30  1  0
 27 26  1  0
 28 27  2  0
 29 28  1  0
 29 24  2  0
 30 31  1  0
 31 32  1  0
 32 33  2  0
 34 33  1  0
 34 38  1  0
 35 34  2  0
 36 31  2  0
 36 35  1  0
 37 36  1  0
 39 40  1  0
 40 43  1  0
 40 42  1  0
 41 39  2  0
 44 45  1  0
 44 19  1  0
 46 44  1  0
 48 47  1  0
 49 48  1  0
 49 50  1  0
 51 62  2  0
 52 50  1  0
 52 57  1  0
 53 61  1  0
 53 63  1  0
 54 60  1  0
 54 56  1  0
 55 61  1  0
 56 57  2  0
 56 55  1  0
 58 52  2  0
 59 58  1  0
 59 54  2  0
 60 53  1  0
 61 51  1  0
 63 65  2  0
 64 63  1  0
 66 64  1  0
 67 76  2  0
 67 72  1  0
 68 64  1  0
 68 72  1  0
 69 68  1  0
 70 71  1  0
 70 69  1  0
 71 67  1  0
 72 73  2  0
 73 74  1  0
 75 74  2  0
 76 75  1  0
 77 51  1  0
 77 78  1  0
 77 87  1  0
 78 81  1  0
 79 83  1  0
 79 78  1  0
 80 79  2  0
 83 82  1  0
 85 83  1  0
 85 86  1  0
 85 84  1  0
 87 90  1  1
 87 88  1  0
 89 87  1  0
M  ISO  4  10 100  11 100  49 101  50 101
M  END
>  <TORSDO>  (74) 
F 23

>  <SCORE>  (74) 
-12.670

>  <name>  (74) 
75

>  <ligand_id>  (74) 
75

>  <original_smiles>  (74) 
[H]c1c([H])c([H])c2c(c1[H])C([H])([H])C([H])([H])C([H])([H])C2([H])N([H])C(=O)C1([H])N(C(=O)C([H])(N([H])C(=O)C([H])(N([H])C([H])([H])[H])C([H])([H])[H])C(C([H])([H])[H])(C([H])([H])[H])C([H])([H])[H])C([H])([H])c2c([H])c(OC([H])([H])C([H])([H])OC([H])([H])C([H])(N([H])C(=O)C([H])(OC(=O)N3C([H])([H])C([H])([H])C([H])([H])C([H])(n4nc(-c5c([H])c([H])c(Oc6c([H])c([H])c(F)c([H])c6F)c([H])c5[H])c(C(=O)N([H])[H])c4N([H])[H])C3([H])[H])C([H])([H])[H])C([H])([H])[H])c([H])c([H])c2C1([H])[H]

>  <smiles>  (74) 
[H]c1c([H])c([H])c2c(c1[H])C([H])([H])C([H])([H])C([H])([H])C2([H])N([H])C(=O)C1([H])N(C(=O)C([H])(N([H])C(=O)C([H])(N([H])C([H])([H])[H])C([H])([H])[H])C(C([H])([H])[H])(C([H])([H])[H])C([H])([H])[H])C([H])([H])c2c([H])c(OC([H])([H])C([H])([H])OC([H])([H])C([H])(N([H])C(=O)C([H])(OC(=O)N3C([H])([H])C([H])([H])C([H])([H])C([H])(n4nc(-c5c([H])c([H])c(Oc6c([H])c([H])c(F)c([H])c6F)c([H])c5[H])c(C(=O)N([H])[H])c4N([H])[H])C3([H])[H])C([H])([H])[H])C([H])([H])[H])c([H])c([H])c2C1([H])[H]

$$$$
76:0:0
     RDKit          3D

 97104  0  0  1  0  0  0  0  0999 V2000
  -31.9500  -20.0100   17.1130 C   0  0  0  0  0  2  0  0  0  0  0  0
  -31.4530  -18.0930   18.5940 C   0  0  0  0  0  0  0  0  0  0  0  0
  -31.1070  -19.2710   18.0470 N   0  0  0  0  0  0  0  0  0  0  0  0
  -32.5820  -17.6300   18.4260 O   0  0  0  0  0  0  0  0  0  0  0  0
  -30.2150  -19.7010   18.2430 H   0  0  0  0  0  0  0  0  0  0  0  0
  -30.3970  -17.2620   19.3670 C   0  0  0  0  0  3  0  0  0  0  0  0
  -29.0420  -17.8590   19.3510 N   0  0  0  0  0  4  0  0  0  0  0  0
  -29.0160  -18.7300   19.8510 H   0  0  0  0  0  0  0  0  0  0  0  0
  -28.3740  -17.2410   19.7700 H   0  0  0  0  0  0  0  0  0  0  0  0
  -28.7600  -18.0160   18.3990 H   0  0  0  0  0  0  0  0  0  0  0  0
  -30.5650  -17.8720   21.8930 C   0  0  0  0  0  1  0  0  0  0  0  0
  -30.8520  -16.8130   20.8020 C   0  0  0  0  0  3  0  0  0  0  0  0
  -30.3080  -15.4090   21.2170 C   0  0  0  0  0  2  0  0  0  0  0  0
  -30.8640  -14.2400   20.3680 C   0  0  0  0  0  0  0  0  0  0  0  0
  -30.4190  -12.1880   19.0690 C   0  0  0  0  0  2  0  0  0  0  0  0
  -29.4660  -12.5190   17.9040 C   0  0  0  0  0  2  0  0  0  0  0  0
  -27.9960  -12.4210   18.3610 C   0  0  0  0  0  2  0  0  0  0  0  0
  -27.7300  -13.1890   19.6820 C   0  0  0  0  0  3  0  0  0  0  0  0
  -28.8010  -12.8540   20.7490 C   0  0  0  0  0  2  0  0  0  0  0  0
  -30.1240  -13.1200   20.1670 N   0  0  0  0  0  0  0  0  0  0  0  0
  -31.9500  -14.4080   19.8040 O   0  0  0  0  0  0  0  0  0  0  0  0
  -25.3540  -13.8460   20.4240 C   0  0  0  0  0  0  0  0  0  0  0  0
  -24.2780  -13.0970   20.8110 C   0  0  0  0  0  0  0  0  0  0  0  0
  -24.7120  -11.7360   20.7760 C   0  0  0  0  0  0  0  0  0  0  0  0
  -26.3790  -12.9460   20.1800 N   0  0  0  0  0  0  0  0  0  0  0  0
  -25.9980  -11.6710   20.4490 N   0  0  0  0  0  0  0  0  0  0  0  0
  -23.9650  -10.4900   20.9800 C   0  0  0  0  0  0  0  0  0  0  0  0
  -24.3880   -9.5180   21.9130 C   0  0  0  0  0  3  0  0  0  0  0  0
  -23.6390   -8.3370   22.1060 C   0  0  0  0  0  3  0  0  0  0  0  0
  -22.4540   -8.1190   21.3640 C   0  0  0  0  0  0  0  0  0  0  0  0
  -22.0490   -9.0800   20.4180 C   0  0  0  0  0  3  0  0  0  0  0  0
  -22.7980  -10.2520   20.2250 C   0  0  0  0  0  3  0  0  0  0  0  0
  -21.6810   -6.9880   21.4620 O   0  0  0  0  0  0  0  0  0  0  0  0
  -21.6270   -6.2510   22.6180 C   0  0  0  0  0  0  0  0  0  0  0  0
  -21.2220   -6.8190   23.8450 C   0  0  0  0  0  3  0  0  0  0  0  0
  -21.1110   -6.0120   24.9930 C   0  0  0  0  0  3  0  0  0  0  0  0
  -21.3980   -4.6360   24.9170 C   0  0  0  0  0  0  0  0  0  0  0  0
  -21.7990   -4.0660   23.6960 C   0  0  0  0  0  3  0  0  0  0  0  0
  -21.9090   -4.8720   22.5480 C   0  0  0  0  0  0  0  0  0  0  0  0
  -22.2740   -4.3140   21.3680 F   0  0  0  0  0  0  0  0  0  0  0  0
  -21.2870   -3.8570   26.0190 F   0  0  0  0  0  0  0  0  0  0  0  0
  -22.8950  -13.6030   21.1060 C   0  0  0  0  0  0  0  0  0  0  0  0
  -22.1740  -12.9190   21.9870 N   0  0  0  0  0  0  0  0  0  0  0  0
  -22.4690  -14.6370   20.5940 O   0  0  0  0  0  0  0  0  0  0  0  0
  -22.5400  -12.0790   22.4110 H   0  0  0  0  0  0  0  0  0  0  0  0
  -21.2500  -13.2380   22.2410 H   0  0  0  0  0  0  0  0  0  0  0  0
  -25.5390  -15.2120   20.2400 N   0  0  0  0  0  0  0  0  0  0  0  0
  -24.7790  -15.8750   20.3440 H   0  0  0  0  0  0  0  0  0  0  0  0
  -26.3810  -15.6270   19.8690 H   0  0  0  0  0  0  0  0  0  0  0  0
  -31.1670  -21.1950   16.5290 C   0  0  0  0  0  2  0  0  0  0  0  0
  -30.7390  -22.0410   17.5870 O   0  0  0  0  0  0  0  0  0  0  0  0
  -31.7060  -23.0180   17.9600 C   0  0  0  0  0  2  0  0  0  0  0  0
  -31.3750  -23.5350   19.3620 C   0  0  0  0  0  2  0  0  0  0  0  0
  -30.1680  -24.2800   19.3230 O   0  0  0  0  0  0  0  0  0  0  0  0
  -29.7370  -24.6780   20.6180 C   0  0  0  0  0  2  0  0  0  0  0  0
  -28.3390  -25.2920   20.5150 C   0  0  0  0  0  2  0  0  0  0  0  0
  -28.4440  -26.6890   20.2570 O   0  0  0  0  0  0  0  0  0  0  0  0
  -24.5780  -31.8390   23.2440 C   0  0  0  0  0  0  0  0  0  0  0  0
  -27.2580  -27.3840   20.2420 C   0  0  0  0  0  0  0  0  0  0  0  0
  -23.3910  -30.4290   21.5930 C   0  0  0  0  0  3  0  0  0  0  0  0
  -24.8620  -28.8750   20.2090 C   0  0  0  0  0  0  0  0  0  0  0  0
  -25.9190  -30.7840   21.4290 C   0  0  0  0  0  2  0  0  0  0  0  0
  -26.0100  -29.4080   20.8070 C   0  0  0  0  0  0  0  0  0  0  0  0
  -27.2130  -28.6710   20.8160 C   0  0  0  0  0  3  0  0  0  0  0  0
  -26.0880  -26.8540   19.6490 C   0  0  0  0  0  3  0  0  0  0  0  0
  -24.8940  -27.5950   19.6310 C   0  0  0  0  0  3  0  0  0  0  0  0
  -23.6190  -29.7350   20.2250 C   0  0  0  0  0  2  0  0  0  0  0  0
  -24.6470  -31.0310   22.1480 N   0  0  0  0  0  0  0  0  0  0  0  0
  -23.4890  -32.1200   23.7640 O   0  0  0  0  0  0  0  0  0  0  0  0
  -22.7230  -29.4160   22.5510 C   0  0  0  0  0  0  0  0  0  0  0  0
  -21.4010  -29.2420   22.4060 N   0  0  0  0  0  0  0  0  0  0  0  0
  -23.3910  -28.7910   23.3780 O   0  0  0  0  0  0  0  0  0  0  0  0
  -20.9230  -29.7980   21.7080 H   0  0  0  0  0  0  0  0  0  0  0  0
  -18.0100  -28.0870   22.8650 C   0  0  0  0  0  0  0  0  0  0  0  0
  -20.5650  -28.3150   23.1690 C   0  0  0  0  0  3  0  0  0  0  0  0
  -20.6590  -26.8820   22.5980 C   0  0  0  0  0  2  0  0  0  0  0  0
  -19.5660  -26.5690   21.5720 C   0  0  0  0  0  2  0  0  0  0  0  0
  -18.1780  -26.7340   22.1980 C   0  0  0  0  0  2  0  0  0  0  0  0
  -19.1320  -28.8380   23.3070 C   0  0  0  0  0  0  0  0  0  0  0  0
  -18.9210  -30.1070   23.8890 C   0  0  0  0  0  3  0  0  0  0  0  0
  -17.6210  -30.6260   24.0350 C   0  0  0  0  0  3  0  0  0  0  0  0
  -16.5120  -29.8720   23.6110 C   0  0  0  0  0  3  0  0  0  0  0  0
  -16.7080  -28.6050   23.0310 C   0  0  0  0  0  3  0  0  0  0  0  0
  -25.8570  -32.4690   23.8780 C   0  0  0  0  0  3  0  0  0  0  0  0
  -25.5500  -33.8680   24.1960 N   0  0  0  0  0  0  0  0  0  0  0  0
  -25.8970  -34.9140   23.4340 C   0  0  0  0  0  0  0  0  0  0  0  0
  -26.5830  -34.8020   22.4140 O   0  0  0  0  0  0  0  0  0  0  0  0
  -24.9420  -34.0310   24.9860 H   0  0  0  0  0  0  0  0  0  0  0  0
  -24.1840  -36.7100   23.0340 C   0  0  0  0  0  1  0  0  0  0  0  0
  -25.4060  -36.3070   23.8730 C   0  0  0  0  0  3  0  0  0  0  0  0
  -27.5270  -37.1860   24.7420 C   0  0  0  0  0  1  0  0  0  0  0  0
  -26.4450  -37.3550   23.7760 N   0  0  0  0  0  0  0  0  0  0  0  0
  -26.0400  -38.2770   23.9120 H   0  0  0  0  0  0  0  0  0  0  0  0
  -26.3570  -31.7000   25.1630 C   0  0  1  0  0  0  0  0  0  0  0  0
  -25.2500  -31.4670   26.2160 C   0  0  0  0  0  1  0  0  0  0  0  0
  -26.9420  -30.3200   24.7780 C   0  0  0  0  0  1  0  0  0  0  0  0
  -27.5000  -32.4930   25.8380 C   0  0  0  0  0  1  0  0  0  0  0  0
  1  3  1  0
  3  5  1  0
  3  2  1  0
  4  2  2  0
  6  2  1  0
  6 12  1  0
  7  6  1  0
  7  9  1  0
  7  8  1  0
 10  7  1  0
 12 13  1  0
 12 11  1  0
 14 13  1  0
 15 20  1  0
 16 17  1  0
 16 15  1  0
 18 17  1  0
 18 25  1  0
 18 19  1  0
 20 14  1  0
 20 19  1  0
 21 14  2  0
 22 23  2  0
 23 42  1  0
 24 23  1  0
 24 27  1  0
 25 22  1  0
 25 26  1  0
 26 24  2  0
 27 28  1  0
 28 29  2  0
 30 33  1  0
 30 29  1  0
 31 30  2  0
 32 31  1  0
 32 27  2  0
 33 34  1  0
 34 35  1  0
 35 36  2  0
 37 36  1  0
 37 41  1  0
 38 37  2  0
 39 34  2  0
 39 38  1  0
 40 39  1  0
 42 43  1  0
 43 46  1  0
 43 45  1  0
 44 42  2  0
 47 48  1  0
 47 22  1  0
 49 47  1  0
 50  1  1  0
 50 51  1  0
 51 52  1  0
 52 53  1  0
 54 53  1  0
 54 55  1  0
 56 55  1  0
 57 56  1  0
 58 69  2  0
 59 57  1  0
 59 64  1  0
 60 68  1  0
 60 70  1  0
 61 67  1  0
 61 63  1  0
 62 68  1  0
 63 64  2  0
 63 62  1  0
 65 59  2  0
 66 65  1  0
 66 61  2  0
 67 60  1  0
 68 58  1  0
 70 72  2  0
 71 70  1  0
 73 71  1  0
 74 83  2  0
 74 79  1  0
 75 71  1  0
 75 79  1  0
 76 75  1  0
 77 78  1  0
 77 76  1  0
 78 74  1  0
 79 80  2  0
 80 81  1  0
 82 81  2  0
 83 82  1  0
 84 58  1  0
 84 85  1  0
 84 94  1  0
 85 88  1  0
 86 90  1  0
 86 85  1  0
 87 86  2  0
 90 89  1  0
 92 90  1  0
 92 93  1  0
 92 91  1  0
 94 97  1  1
 94 95  1  0
 96 94  1  0
M  ISO  4  13 100  14 100  56 101  57 101
M  END
>  <TORSDO>  (75) 
F 28

>  <SCORE>  (75) 
-11.482

>  <name>  (75) 
76

>  <ligand_id>  (75) 
76

>  <original_smiles>  (75) 
[H]c1c([H])c([H])c2c(c1[H])C([H])([H])C([H])([H])C([H])([H])C2([H])N([H])C(=O)C1([H])N(C(=O)C([H])(N([H])C(=O)C([H])(N([H])C([H])([H])[H])C([H])([H])[H])C(C([H])([H])[H])(C([H])([H])[H])C([H])([H])[H])C([H])([H])c2c([H])c(OC([H])([H])C([H])([H])OC([H])([H])C([H])([H])OC([H])([H])C([H])([H])N([H])C(=O)C([H])(C([H])(C([H])([H])[H])C([H])([H])C(=O)N3C([H])([H])C([H])([H])C([H])([H])C([H])(n4nc(-c5c([H])c([H])c(Oc6c([H])c([H])c(F)c([H])c6F)c([H])c5[H])c(C(=O)N([H])[H])c4N([H])[H])C3([H])[H])[N+]([H])([H])[H])c([H])c([H])c2C1([H])[H]

>  <smiles>  (75) 
[H]c1c([H])c([H])c2c(c1[H])C([H])([H])C([H])([H])C([H])([H])C2([H])N([H])C(=O)C1([H])N(C(=O)C([H])(N([H])C(=O)C([H])(N([H])C([H])([H])[H])C([H])([H])[H])C(C([H])([H])[H])(C([H])([H])[H])C([H])([H])[H])C([H])([H])c2c([H])c(OC([H])([H])C([H])([H])OC([H])([H])C([H])([H])OC([H])([H])C([H])([H])N([H])C(=O)C([H])(C([H])(C([H])([H])[H])C([H])([H])C(=O)N3C([H])([H])C([H])([H])C([H])([H])C([H])(n4nc(-c5c([H])c([H])c(Oc6c([H])c([H])c(F)c([H])c6F)c([H])c5[H])c(C(=O)N([H])[H])c4N([H])[H])C3([H])[H])[N+]([H])([H])[H])c([H])c([H])c2C1([H])[H]

$$$$
77:0:0
     RDKit          3D

100107  0  0  1  0  0  0  0  0999 V2000
  -28.0720  -21.9270   20.6160 C   0  0  0  0  0  0  0  0  0  0  0  0
  -28.6150  -20.7410   20.3160 N   0  0  0  0  0  0  0  0  0  0  0  0
  -27.7610  -22.2340   21.7710 O   0  0  0  0  0  0  0  0  0  0  0  0
  -28.8730  -20.5680   19.3530 H   0  0  0  0  0  0  0  0  0  0  0  0
  -27.8450  -22.9230   19.4580 C   0  0  0  0  0  3  0  0  0  0  0  0
  -27.8730  -24.3020   20.0080 N   0  0  0  0  0  4  0  0  0  0  0  0
  -27.0200  -24.4170   20.5370 H   0  0  0  0  0  0  0  0  0  0  0  0
  -28.6120  -24.2960   20.6940 H   0  0  0  0  0  0  0  0  0  0  0  0
  -28.0840  -25.4370   19.0730 C   0  0  0  0  0  2  0  0  0  0  0  0
  -28.3600  -26.7620   19.8100 C   0  0  0  0  0  2  0  0  0  0  0  0
  -28.0920  -27.8830   18.9650 O   0  0  0  0  0  0  0  0  0  0  0  0
  -24.4480  -32.2380   23.2150 C   0  0  0  0  0  0  0  0  0  0  0  0
  -26.8870  -28.4840   19.2270 C   0  0  0  0  0  0  0  0  0  0  0  0
  -23.0980  -30.9060   21.6240 C   0  0  0  0  0  3  0  0  0  0  0  0
  -24.4110  -29.6950   19.8060 C   0  0  0  0  0  0  0  0  0  0  0  0
  -25.5080  -31.5570   21.0660 C   0  0  0  0  0  2  0  0  0  0  0  0
  -25.6000  -30.2800   20.2610 C   0  0  0  0  0  0  0  0  0  0  0  0
  -26.8430  -29.6800   19.9710 C   0  0  0  0  0  3  0  0  0  0  0  0
  -25.6840  -27.9030   18.7710 C   0  0  0  0  0  3  0  0  0  0  0  0
  -24.4460  -28.5030   19.0630 C   0  0  0  0  0  3  0  0  0  0  0  0
  -23.1220  -30.4030   20.1570 C   0  0  0  0  0  2  0  0  0  0  0  0
  -24.3790  -31.5750   22.0260 N   0  0  0  0  0  0  0  0  0  0  0  0
  -23.4570  -32.3350   23.9510 O   0  0  0  0  0  0  0  0  0  0  0  0
  -22.7110  -29.7240   22.5420 C   0  0  0  0  0  0  0  0  0  0  0  0
  -21.4360  -29.3040   22.4710 N   0  0  0  0  0  0  0  0  0  0  0  0
  -23.5500  -29.1880   23.2690 O   0  0  0  0  0  0  0  0  0  0  0  0
  -20.8060  -29.8030   21.8590 H   0  0  0  0  0  0  0  0  0  0  0  0
  -18.4270  -27.3570   22.9100 C   0  0  0  0  0  0  0  0  0  0  0  0
  -20.8570  -28.1850   23.2120 C   0  0  0  0  0  3  0  0  0  0  0  0
  -21.2880  -26.8290   22.6050 C   0  0  0  0  0  2  0  0  0  0  0  0
  -20.2930  -26.2870   21.5740 C   0  0  0  0  0  2  0  0  0  0  0  0
  -18.9110  -26.1010   22.2060 C   0  0  0  0  0  2  0  0  0  0  0  0
  -19.3390  -28.3440   23.3680 C   0  0  0  0  0  0  0  0  0  0  0  0
  -18.8340  -29.5110   23.9780 C   0  0  0  0  0  3  0  0  0  0  0  0
  -17.4480  -29.6970   24.1410 C   0  0  0  0  0  3  0  0  0  0  0  0
  -16.5510  -28.7090   23.7010 C   0  0  0  0  0  3  0  0  0  0  0  0
  -17.0410  -27.5410   23.0890 C   0  0  0  0  0  3  0  0  0  0  0  0
  -25.7650  -32.9250   23.6950 C   0  0  0  0  0  3  0  0  0  0  0  0
  -25.4450  -34.3240   24.0100 N   0  0  0  0  0  0  0  0  0  0  0  0
  -25.6810  -35.3600   23.1930 C   0  0  0  0  0  0  0  0  0  0  0  0
  -26.2640  -35.2420   22.1120 O   0  0  0  0  0  0  0  0  0  0  0  0
  -24.9240  -34.4930   24.8580 H   0  0  0  0  0  0  0  0  0  0  0  0
  -23.8960  -37.1030   22.9060 C   0  0  0  0  0  1  0  0  0  0  0  0
  -25.1910  -36.7450   23.6520 C   0  0  0  0  0  3  0  0  0  0  0  0
  -27.3470  -37.6930   24.3420 C   0  0  0  0  0  1  0  0  0  0  0  0
  -26.1920  -37.8170   23.4580 N   0  0  0  0  0  0  0  0  0  0  0  0
  -25.7720  -38.7290   23.6100 H   0  0  0  0  0  0  0  0  0  0  0  0
  -26.4240  -32.2110   24.9360 C   0  0  1  0  0  0  0  0  0  0  0  0
  -25.4410  -31.9560   26.1020 C   0  0  0  0  0  1  0  0  0  0  0  0
  -27.0290  -30.8510   24.5180 C   0  0  0  0  0  1  0  0  0  0  0  0
  -27.5900  -33.0710   25.4790 C   0  0  0  0  0  1  0  0  0  0  0  0
  -26.6800  -22.8970   17.1350 C   0  0  0  0  0  1  0  0  0  0  0  0
  -25.2320  -23.0820   19.2410 C   0  0  0  0  0  1  0  0  0  0  0  0
  -26.5570  -22.5650   18.6380 C   0  0  0  0  0  3  0  0  0  0  0  0
  -28.9220  -19.6740   21.2680 C   0  0  0  0  0  2  0  0  0  0  0  0
  -30.4360  -19.5560   21.4910 C   0  0  0  0  0  2  0  0  0  0  0  0
  -30.9800  -18.8930   20.3610 O   0  0  0  0  0  0  0  0  0  0  0  0
  -32.3890  -19.0110   20.2460 C   0  0  0  0  0  2  0  0  0  0  0  0
  -32.8670  -17.8260   19.4040 C   0  0  0  0  0  2  0  0  0  0  0  0
  -32.5980  -16.6230   20.1080 O   0  0  0  0  0  0  0  0  0  0  0  0
  -33.1470  -15.4890   19.4580 C   0  0  0  0  0  2  0  0  0  0  0  0
  -33.5020  -14.4420   20.5160 C   0  0  0  0  0  2  0  0  0  0  0  0
  -32.7610  -12.0830   20.3290 C   0  0  0  0  0  0  0  0  0  0  0  0
  -32.4380   -9.8980   21.4100 C   0  0  0  0  0  2  0  0  0  0  0  0
  -31.7490   -8.8370   20.5420 C   0  0  0  0  0  2  0  0  0  0  0  0
  -30.2230   -8.9480   20.6730 C   0  0  0  0  0  2  0  0  0  0  0  0
  -29.7180  -10.3930   20.4310 C   0  0  0  0  0  3  0  0  0  0  0  0
  -30.5220  -11.4200   21.2610 C   0  0  0  0  0  2  0  0  0  0  0  0
  -31.9630  -11.2280   21.0090 N   0  0  0  0  0  0  0  0  0  0  0  0
  -33.7940  -11.7450   19.7410 O   0  0  0  0  0  0  0  0  0  0  0  0
  -32.5140  -13.3670   20.6010 N   0  0  0  0  0  0  0  0  0  0  0  0
  -31.6660  -13.5670   21.1110 H   0  0  0  0  0  0  0  0  0  0  0  0
  -27.4220  -11.5610   20.4470 C   0  0  0  0  0  0  0  0  0  0  0  0
  -26.1730  -11.1170   20.7900 C   0  0  0  0  0  0  0  0  0  0  0  0
  -26.3370   -9.7650   21.2210 C   0  0  0  0  0  0  0  0  0  0  0  0
  -28.2820  -10.4970   20.6830 N   0  0  0  0  0  0  0  0  0  0  0  0
  -27.6210   -9.4290   21.2010 N   0  0  0  0  0  0  0  0  0  0  0  0
  -25.3420   -8.7540   21.5970 C   0  0  0  0  0  0  0  0  0  0  0  0
  -25.1700   -8.3480   22.9390 C   0  0  0  0  0  3  0  0  0  0  0  0
  -24.1930   -7.3860   23.2780 C   0  0  0  0  0  3  0  0  0  0  0  0
  -23.3730   -6.8230   22.2710 C   0  0  0  0  0  0  0  0  0  0  0  0
  -23.5640   -7.2120   20.9330 C   0  0  0  0  0  3  0  0  0  0  0  0
  -24.5400   -8.1650   20.5980 C   0  0  0  0  0  3  0  0  0  0  0  0
  -22.4170   -5.8640   22.5040 O   0  0  0  0  0  0  0  0  0  0  0  0
  -21.5860   -5.9260   23.5920 C   0  0  0  0  0  0  0  0  0  0  0  0
  -20.6700   -6.9860   23.7730 C   0  0  0  0  0  3  0  0  0  0  0  0
  -19.7860   -6.9730   24.8700 C   0  0  0  0  0  3  0  0  0  0  0  0
  -19.8090   -5.9010   25.7810 C   0  0  0  0  0  0  0  0  0  0  0  0
  -20.7160   -4.8420   25.6010 C   0  0  0  0  0  3  0  0  0  0  0  0
  -21.6000   -4.8530   24.5080 C   0  0  0  0  0  0  0  0  0  0  0  0
  -22.4570   -3.8200   24.3260 F   0  0  0  0  0  0  0  0  0  0  0  0
  -18.9540   -5.8840   26.8310 F   0  0  0  0  0  0  0  0  0  0  0  0
  -24.8820  -11.8700   20.6380 C   0  0  0  0  0  0  0  0  0  0  0  0
  -23.9240  -11.6310   21.5270 N   0  0  0  0  0  0  0  0  0  0  0  0
  -24.7350  -12.7150   19.7560 O   0  0  0  0  0  0  0  0  0  0  0  0
  -24.0530  -10.9510   22.2620 H   0  0  0  0  0  0  0  0  0  0  0  0
  -23.0490  -12.1330   21.4710 H   0  0  0  0  0  0  0  0  0  0  0  0
  -27.8950  -12.7650   19.9370 N   0  0  0  0  0  0  0  0  0  0  0  0
  -27.2730  -13.5270   19.6870 H   0  0  0  0  0  0  0  0  0  0  0  0
  -28.8580  -12.9360   19.6770 H   0  0  0  0  0  0  0  0  0  0  0  0
  1  3  2  0
  2  1  1  0
  2 55  1  0
  4  2  1  0
  5 54  1  0
  5  6  1  0
  5  1  1  0
  6  7  1  0
  6  8  1  0
  9 10  1  0
  9  6  1  0
 11 13  1  0
 11 10  1  0
 12 23  2  0
 13 18  1  0
 14 22  1  0
 14 24  1  0
 15 21  1  0
 15 17  1  0
 16 22  1  0
 17 16  1  0
 18 17  2  0
 19 20  1  0
 19 13  2  0
 20 15  2  0
 21 14  1  0
 22 12  1  0
 24 26  2  0
 25 24  1  0
 27 25  1  0
 28 37  2  0
 28 33  1  0
 29 25  1  0
 29 33  1  0
 30 29  1  0
 31 32  1  0
 31 30  1  0
 32 28  1  0
 33 34  2  0
 34 35  1  0
 36 35  2  0
 37 36  1  0
 38 12  1  0
 38 39  1  0
 38 48  1  0
 39 42  1  0
 40 44  1  0
 40 39  1  0
 41 40  2  0
 44 43  1  0
 46 47  1  0
 46 44  1  0
 46 45  1  0
 48 51  1  1
 48 49  1  0
 50 48  1  0
 52 54  1  0
 54 53  1  0
 55 56  1  0
 57 56  1  0
 58 57  1  0
 59 60  1  0
 59 58  1  0
 61 60  1  0
 61 62  1  0
 62 71  1  0
 63 71  1  0
 63 69  1  0
 65 66  1  0
 65 64  1  0
 67 66  1  0
 67 76  1  0
 67 68  1  0
 69 68  1  0
 69 64  1  0
 70 63  2  0
 71 72  1  0
 73 76  1  0
 73 74  2  0
 74 75  1  0
 75 78  1  0
 76 77  1  0
 77 75  2  0
 78 79  1  0
 79 80  2  0
 81 84  1  0
 81 80  1  0
 82 81  2  0
 83 82  1  0
 83 78  2  0
 84 85  1  0
 85 86  2  0
 85 90  1  0
 86 87  1  0
 87 88  2  0
 88 92  1  0
 89 88  1  0
 90 89  2  0
 91 90  1  0
 93 74  1  0
 93 94  1  0
 94 96  1  0
 95 93  2  0
 97 94  1  0
 98 73  1  0
 99 98  1  0
100 98  1  0
M  ISO  4  10 101  11 101  63 100  71 100
M  END
>  <TORSDO>  (76) 
F 29

>  <SCORE>  (76) 
-2.901

>  <name>  (76) 
77

>  <ligand_id>  (76) 
77

>  <original_smiles>  (76) 
[H]c1c([H])c([H])c2c(c1[H])C([H])([H])C([H])([H])C([H])([H])C2([H])N([H])C(=O)C1([H])N(C(=O)C([H])(N([H])C(=O)C([H])(N([H])C([H])([H])[H])C([H])([H])[H])C(C([H])([H])[H])(C([H])([H])[H])C([H])([H])[H])C([H])([H])c2c([H])c(OC([H])([H])C([H])([H])[N+]([H])([H])C([H])(C(=O)N([H])C([H])([H])C([H])([H])OC([H])([H])C([H])([H])OC([H])([H])C([H])([H])N([H])C(=O)N3C([H])([H])C([H])([H])C([H])([H])C([H])(n4nc(-c5c([H])c([H])c(Oc6c([H])c([H])c(F)c([H])c6F)c([H])c5[H])c(C(=O)N([H])[H])c4N([H])[H])C3([H])[H])C([H])(C([H])([H])[H])C([H])([H])[H])c([H])c([H])c2C1([H])[H]

>  <smiles>  (76) 
[H]c1c([H])c([H])c2c(c1[H])C([H])([H])C([H])([H])C([H])([H])C2([H])N([H])C(=O)C1([H])N(C(=O)C([H])(N([H])C(=O)C([H])(N([H])C([H])([H])[H])C([H])([H])[H])C(C([H])([H])[H])(C([H])([H])[H])C([H])([H])[H])C([H])([H])c2c([H])c(OC([H])([H])C([H])([H])[N+]([H])([H])C([H])(C(=O)N([H])C([H])([H])C([H])([H])OC([H])([H])C([H])([H])OC([H])([H])C([H])([H])N([H])C(=O)N3C([H])([H])C([H])([H])C([H])([H])C([H])(n4nc(-c5c([H])c([H])c(Oc6c([H])c([H])c(F)c([H])c6F)c([H])c5[H])c(C(=O)N([H])[H])c4N([H])[H])C3([H])[H])C([H])(C([H])([H])[H])C([H])([H])[H])c([H])c([H])c2C1([H])[H]

$$$$
78:0:0
     RDKit          3D

 92 99  0  0  1  0  0  0  0  0999 V2000
  -27.9620  -21.5560   19.6440 C   0  0  0  0  0  2  0  0  0  0  0  0
  -27.5850  -22.0990   21.0340 C   0  0  0  0  0  2  0  0  0  0  0  0
  -28.2460  -23.3230   21.3430 O   0  0  0  0  0  0  0  0  0  0  0  0
  -27.7790  -24.4350   20.5890 C   0  0  0  0  0  2  0  0  0  0  0  0
  -28.4630  -25.7220   21.0840 C   0  0  0  0  0  2  0  0  0  0  0  0
  -28.3930  -26.7770   20.1300 O   0  0  0  0  0  0  0  0  0  0  0  0
  -24.5750  -31.8990   23.2430 C   0  0  0  0  0  0  0  0  0  0  0  0
  -27.2200  -27.4840   20.1600 C   0  0  0  0  0  0  0  0  0  0  0  0
  -23.3660  -30.4950   21.6020 C   0  0  0  0  0  3  0  0  0  0  0  0
  -24.8190  -28.9580   20.1810 C   0  0  0  0  0  0  0  0  0  0  0  0
  -25.8870  -30.8610   21.4010 C   0  0  0  0  0  2  0  0  0  0  0  0
  -25.9720  -29.4890   20.7700 C   0  0  0  0  0  0  0  0  0  0  0  0
  -27.1780  -28.7580   20.7610 C   0  0  0  0  0  3  0  0  0  0  0  0
  -26.0580  -26.9600   19.5580 C   0  0  0  0  0  3  0  0  0  0  0  0
  -24.8540  -27.6900   19.5750 C   0  0  0  0  0  3  0  0  0  0  0  0
  -23.5720  -29.8090   20.2240 C   0  0  0  0  0  2  0  0  0  0  0  0
  -24.6270  -31.0970   22.1420 N   0  0  0  0  0  0  0  0  0  0  0  0
  -23.4950  -32.1740   23.7840 O   0  0  0  0  0  0  0  0  0  0  0  0
  -22.7160  -29.4740   22.5640 C   0  0  0  0  0  0  0  0  0  0  0  0
  -21.3920  -29.2940   22.4370 N   0  0  0  0  0  0  0  0  0  0  0  0
  -23.4010  -28.8470   23.3790 O   0  0  0  0  0  0  0  0  0  0  0  0
  -20.9040  -29.8490   21.7480 H   0  0  0  0  0  0  0  0  0  0  0  0
  -18.0150  -28.1150   22.9300 C   0  0  0  0  0  0  0  0  0  0  0  0
  -20.5720  -28.3610   23.2080 C   0  0  0  0  0  3  0  0  0  0  0  0
  -20.6700  -26.9290   22.6320 C   0  0  0  0  0  2  0  0  0  0  0  0
  -19.5690  -26.6120   21.6150 C   0  0  0  0  0  2  0  0  0  0  0  0
  -18.1880  -26.7620   22.2570 C   0  0  0  0  0  2  0  0  0  0  0  0
  -19.1360  -28.8720   23.3620 C   0  0  0  0  0  0  0  0  0  0  0  0
  -18.9230  -30.1380   23.9480 C   0  0  0  0  0  3  0  0  0  0  0  0
  -17.6210  -30.6470   24.1090 C   0  0  0  0  0  3  0  0  0  0  0  0
  -16.5140  -29.8850   23.6960 C   0  0  0  0  0  3  0  0  0  0  0  0
  -16.7110  -28.6220   23.1130 C   0  0  0  0  0  3  0  0  0  0  0  0
  -25.8650  -32.5270   23.8610 C   0  0  0  0  0  3  0  0  0  0  0  0
  -26.3870  -31.7530   25.1320 C   0  0  1  0  0  0  0  0  0  0  0  0
  -25.2990  -31.5160   26.2040 C   0  0  0  0  0  1  0  0  0  0  0  0
  -26.9620  -30.3730   24.7310 C   0  0  0  0  0  1  0  0  0  0  0  0
  -27.5420  -32.5430   25.7930 C   0  0  0  0  0  1  0  0  0  0  0  0
  -25.5610  -33.9250   24.1890 N   0  0  0  0  0  0  0  0  0  0  0  0
  -25.8990  -34.9750   23.4250 C   0  0  0  0  0  0  0  0  0  0  0  0
  -26.5710  -34.8660   22.3960 O   0  0  0  0  0  0  0  0  0  0  0  0
  -24.9680  -34.0840   24.9890 H   0  0  0  0  0  0  0  0  0  0  0  0
  -24.1740  -36.7650   23.0580 C   0  0  0  0  0  1  0  0  0  0  0  0
  -25.4120  -36.3630   23.8760 C   0  0  0  0  0  3  0  0  0  0  0  0
  -27.5460  -37.2430   24.7100 C   0  0  0  0  0  1  0  0  0  0  0  0
  -26.4470  -37.4150   23.7650 N   0  0  0  0  0  0  0  0  0  0  0  0
  -26.0420  -38.3350   23.9130 H   0  0  0  0  0  0  0  0  0  0  0  0
  -27.5610  -20.1990   19.5480 O   0  0  0  0  0  0  0  0  0  0  0  0
  -27.8960  -19.6180   18.2930 C   0  0  0  0  0  2  0  0  0  0  0  0
  -27.6710  -18.1030   18.3920 C   0  0  0  0  0  2  0  0  0  0  0  0
  -29.7150  -17.3150   19.5630 C   0  0  0  0  0  0  0  0  0  0  0  0
  -28.4030  -17.5650   19.5350 N   0  0  0  0  0  0  0  0  0  0  0  0
  -30.4370  -17.4070   18.5700 O   0  0  0  0  0  0  0  0  0  0  0  0
  -27.8900  -17.4910   20.4040 H   0  0  0  0  0  0  0  0  0  0  0  0
  -30.2970  -16.8780   20.9090 C   0  0  0  0  0  2  0  0  0  0  0  0
  -30.7750  -14.4750   20.5460 C   0  0  0  0  0  0  0  0  0  0  0  0
  -30.4920  -12.3380   19.3730 C   0  0  0  0  0  2  0  0  0  0  0  0
  -29.5760  -12.5730   18.1550 C   0  0  0  0  0  2  0  0  0  0  0  0
  -28.0900  -12.4470   18.5520 C   0  0  0  0  0  2  0  0  0  0  0  0
  -27.7360  -13.2780   19.8120 C   0  0  0  0  0  3  0  0  0  0  0  0
  -28.7610  -13.0160   20.9380 C   0  0  0  0  0  2  0  0  0  0  0  0
  -30.1070  -13.3030   20.4080 N   0  0  0  0  0  0  0  0  0  0  0  0
  -31.8900  -14.6890   20.0630 O   0  0  0  0  0  0  0  0  0  0  0  0
  -30.0560  -15.4520   21.1070 N   0  0  0  0  0  0  0  0  0  0  0  0
  -29.1520  -15.1910   21.4690 H   0  0  0  0  0  0  0  0  0  0  0  0
  -25.3180  -13.9090   20.4450 C   0  0  0  0  0  0  0  0  0  0  0  0
  -24.2400  -13.1480   20.8030 C   0  0  0  0  0  0  0  0  0  0  0  0
  -24.6980  -11.7950   20.8100 C   0  0  0  0  0  0  0  0  0  0  0  0
  -26.3670  -13.0210   20.2560 N   0  0  0  0  0  0  0  0  0  0  0  0
  -25.9940  -11.7440   20.5350 N   0  0  0  0  0  0  0  0  0  0  0  0
  -23.9650  -10.5380   21.0100 C   0  0  0  0  0  0  0  0  0  0  0  0
  -24.3910   -9.5790   21.9550 C   0  0  0  0  0  3  0  0  0  0  0  0
  -23.6630   -8.3850   22.1390 C   0  0  0  0  0  3  0  0  0  0  0  0
  -22.4940   -8.1430   21.3800 C   0  0  0  0  0  0  0  0  0  0  0  0
  -22.0880   -9.0900   20.4230 C   0  0  0  0  0  3  0  0  0  0  0  0
  -22.8170  -10.2760   20.2370 C   0  0  0  0  0  3  0  0  0  0  0  0
  -21.7360   -7.0010   21.4730 O   0  0  0  0  0  0  0  0  0  0  0  0
  -21.6920   -6.2590   22.6260 C   0  0  0  0  0  0  0  0  0  0  0  0
  -21.2920   -6.8200   23.8600 C   0  0  0  0  0  3  0  0  0  0  0  0
  -21.1950   -6.0040   25.0050 C   0  0  0  0  0  3  0  0  0  0  0  0
  -21.4880   -4.6290   24.9170 C   0  0  0  0  0  0  0  0  0  0  0  0
  -21.8840   -4.0690   23.6910 C   0  0  0  0  0  3  0  0  0  0  0  0
  -21.9820   -4.8820   22.5480 C   0  0  0  0  0  0  0  0  0  0  0  0
  -22.3440   -4.3340   21.3630 F   0  0  0  0  0  0  0  0  0  0  0  0
  -21.3900   -3.8430   26.0150 F   0  0  0  0  0  0  0  0  0  0  0  0
  -22.8370  -13.6320   21.0350 C   0  0  0  0  0  0  0  0  0  0  0  0
  -22.0890  -12.9530   21.8970 N   0  0  0  0  0  0  0  0  0  0  0  0
  -22.4130  -14.6490   20.4860 O   0  0  0  0  0  0  0  0  0  0  0  0
  -22.4460  -12.1330   22.3680 H   0  0  0  0  0  0  0  0  0  0  0  0
  -21.1460  -13.2580   22.0900 H   0  0  0  0  0  0  0  0  0  0  0  0
  -25.4910  -15.2760   20.2470 N   0  0  0  0  0  0  0  0  0  0  0  0
  -24.7260  -15.9350   20.3410 H   0  0  0  0  0  0  0  0  0  0  0  0
  -26.3410  -15.6980   19.9010 H   0  0  0  0  0  0  0  0  0  0  0  0
  1  2  1  0
  2  3  1  0
  4  5  1  0
  4  3  1  0
  6  8  1  0
  6  5  1  0
  7 18  2  0
  8 13  1  0
  9 17  1  0
  9 19  1  0
 10 16  1  0
 10 12  1  0
 11 17  1  0
 12 11  1  0
 13 12  2  0
 14 15  1  0
 14  8  2  0
 15 10  2  0
 16  9  1  0
 17  7  1  0
 19 21  2  0
 20 19  1  0
 22 20  1  0
 23 32  2  0
 23 28  1  0
 24 20  1  0
 24 28  1  0
 25 24  1  0
 26 27  1  0
 26 25  1  0
 27 23  1  0
 28 29  2  0
 29 30  1  0
 31 30  2  0
 32 31  1  0
 33  7  1  0
 33 38  1  0
 33 34  1  0
 34 37  1  1
 34 35  1  0
 36 34  1  0
 38 41  1  0
 39 43  1  0
 39 38  1  0
 40 39  2  0
 43 42  1  0
 45 43  1  0
 45 46  1  0
 45 44  1  0
 47  1  1  0
 48 49  1  0
 48 47  1  0
 49 51  1  0
 50 54  1  0
 51 50  1  0
 51 53  1  0
 52 50  2  0
 54 63  1  0
 55 63  1  0
 56 61  1  0
 57 58  1  0
 57 56  1  0
 59 58  1  0
 59 68  1  0
 59 60  1  0
 61 55  1  0
 61 60  1  0
 62 55  2  0
 63 64  1  0
 65 66  2  0
 66 67  1  0
 66 85  1  0
 67 70  1  0
 68 65  1  0
 68 69  1  0
 69 67  2  0
 70 71  1  0
 71 72  2  0
 73 76  1  0
 73 72  1  0
 74 73  2  0
 75 74  1  0
 75 70  2  0
 76 77  1  0
 77 78  1  0
 78 79  2  0
 80 79  1  0
 80 84  1  0
 81 80  2  0
 82 77  2  0
 82 81  1  0
 83 82  1  0
 85 86  1  0
 86 89  1  0
 86 88  1  0
 87 85  2  0
 90 91  1  0
 90 65  1  0
 92 90  1  0
M  ISO  4   5 101   6 101  55 100  63 100
M  END
>  <TORSDO>  (77) 
F 25

>  <SCORE>  (77) 
-12.211

>  <name>  (77) 
78

>  <ligand_id>  (77) 
78

>  <original_smiles>  (77) 
[H]c1c([H])c([H])c2c(c1[H])C([H])([H])C([H])([H])C([H])([H])C2([H])N([H])C(=O)C1([H])N(C(=O)C([H])(N([H])C(=O)C([H])(N([H])C([H])([H])[H])C([H])([H])[H])C(C([H])([H])[H])(C([H])([H])[H])C([H])([H])[H])C([H])([H])c2c([H])c(OC([H])([H])C([H])([H])OC([H])([H])C([H])([H])OC([H])([H])C([H])([H])N([H])C(=O)C([H])([H])N([H])C(=O)N3C([H])([H])C([H])([H])C([H])([H])C([H])(n4nc(-c5c([H])c([H])c(Oc6c([H])c([H])c(F)c([H])c6F)c([H])c5[H])c(C(=O)N([H])[H])c4N([H])[H])C3([H])[H])c([H])c([H])c2C1([H])[H]

>  <smiles>  (77) 
[H]c1c([H])c([H])c2c(c1[H])C([H])([H])C([H])([H])C([H])([H])C2([H])N([H])C(=O)C1([H])N(C(=O)C([H])(N([H])C(=O)C([H])(N([H])C([H])([H])[H])C([H])([H])[H])C(C([H])([H])[H])(C([H])([H])[H])C([H])([H])[H])C([H])([H])c2c([H])c(OC([H])([H])C([H])([H])OC([H])([H])C([H])([H])OC([H])([H])C([H])([H])N([H])C(=O)C([H])([H])N([H])C(=O)N3C([H])([H])C([H])([H])C([H])([H])C([H])(n4nc(-c5c([H])c([H])c(Oc6c([H])c([H])c(F)c([H])c6F)c([H])c5[H])c(C(=O)N([H])[H])c4N([H])[H])C3([H])[H])c([H])c([H])c2C1([H])[H]

$$$$
79:0:0
     RDKit          3D

102109  0  0  1  0  0  0  0  0999 V2000
  -29.4850  -22.4580   22.3850 C   0  0  0  0  0  3  0  0  0  0  0  0
  -30.0880  -23.4620   21.3940 C   0  0  0  0  0  0  0  0  0  0  0  0
  -30.3720  -24.6830   21.8560 N   0  0  0  0  0  0  0  0  0  0  0  0
  -30.3040  -23.1370   20.2270 O   0  0  0  0  0  0  0  0  0  0  0  0
  -30.1880  -24.8760   22.8310 H   0  0  0  0  0  0  0  0  0  0  0  0
  -31.9290  -26.5100   21.4980 C   0  0  0  0  0  1  0  0  0  0  0  0
  -30.6310  -25.8500   21.0150 C   0  0  0  0  0  3  0  0  0  0  0  0
  -29.4670  -26.8370   21.2230 C   0  0  0  0  0  0  0  0  0  0  0  0
  -28.9790  -27.0670   22.3370 O   0  0  0  0  0  0  0  0  0  0  0  0
  -29.0400  -27.3710   20.0550 O   0  0  0  0  0  0  0  0  0  0  0  0
  -24.7100  -31.9700   23.3240 C   0  0  0  0  0  0  0  0  0  0  0  0
  -27.8330  -28.0240   20.0580 C   0  0  0  0  0  0  0  0  0  0  0  0
  -23.6750  -30.5700   21.5600 C   0  0  0  0  0  3  0  0  0  0  0  0
  -25.3050  -29.2710   20.0860 C   0  0  0  0  0  0  0  0  0  0  0  0
  -26.1540  -31.1830   21.4580 C   0  0  0  0  0  2  0  0  0  0  0  0
  -26.3890  -29.8750   20.7350 C   0  0  0  0  0  0  0  0  0  0  0  0
  -27.6580  -29.2620   20.7180 C   0  0  0  0  0  3  0  0  0  0  0  0
  -26.7410  -27.4330   19.3910 C   0  0  0  0  0  3  0  0  0  0  0  0
  -25.4750  -28.0480   19.4130 C   0  0  0  0  0  3  0  0  0  0  0  0
  -23.9810  -29.9960   20.1480 C   0  0  0  0  0  2  0  0  0  0  0  0
  -24.8610  -31.2520   22.1740 N   0  0  0  0  0  0  0  0  0  0  0  0
  -23.5960  -32.1050   23.8500 O   0  0  0  0  0  0  0  0  0  0  0  0
  -23.1010  -29.4350   22.4360 C   0  0  0  0  0  0  0  0  0  0  0  0
  -21.7960  -29.1660   22.2820 N   0  0  0  0  0  0  0  0  0  0  0  0
  -23.8270  -28.8020   23.2100 O   0  0  0  0  0  0  0  0  0  0  0  0
  -21.2730  -29.7320   21.6260 H   0  0  0  0  0  0  0  0  0  0  0  0
  -18.5020  -27.7460   22.7070 C   0  0  0  0  0  0  0  0  0  0  0  0
  -21.0460  -28.1170   22.9690 C   0  0  0  0  0  3  0  0  0  0  0  0
  -21.2160  -26.7550   22.2560 C   0  0  0  0  0  2  0  0  0  0  0  0
  -20.1160  -26.4680   21.2300 C   0  0  0  0  0  2  0  0  0  0  0  0
  -18.7390  -26.4770   21.9030 C   0  0  0  0  0  2  0  0  0  0  0  0
  -19.5860  -28.5230   23.1930 C   0  0  0  0  0  0  0  0  0  0  0  0
  -19.3130  -29.7120   23.9040 C   0  0  0  0  0  3  0  0  0  0  0  0
  -17.9880  -30.1270   24.1310 C   0  0  0  0  0  3  0  0  0  0  0  0
  -16.9180  -29.3450   23.6630 C   0  0  0  0  0  3  0  0  0  0  0  0
  -17.1750  -28.1560   22.9580 C   0  0  0  0  0  3  0  0  0  0  0  0
  -25.9210  -32.6690   24.0170 C   0  0  0  0  0  3  0  0  0  0  0  0
  -26.3750  -31.9530   25.3480 C   0  0  1  0  0  0  0  0  0  0  0  0
  -25.2110  -31.6430   26.3190 C   0  0  0  0  0  1  0  0  0  0  0  0
  -27.0940  -30.6210   25.0300 C   0  0  0  0  0  1  0  0  0  0  0  0
  -27.3950  -32.8420   26.0990 C   0  0  0  0  0  1  0  0  0  0  0  0
  -25.5310  -34.0590   24.2830 N   0  0  0  0  0  0  0  0  0  0  0  0
  -25.9040  -35.1090   23.5390 C   0  0  0  0  0  0  0  0  0  0  0  0
  -26.6770  -35.0120   22.5830 O   0  0  0  0  0  0  0  0  0  0  0  0
  -24.8520  -34.2060   25.0150 H   0  0  0  0  0  0  0  0  0  0  0  0
  -24.1680  -36.8340   22.9540 C   0  0  0  0  0  1  0  0  0  0  0  0
  -25.3200  -36.4850   23.9090 C   0  0  0  0  0  3  0  0  0  0  0  0
  -27.3380  -37.4370   24.9360 C   0  0  0  0  0  1  0  0  0  0  0  0
  -26.3240  -37.5720   23.8930 N   0  0  0  0  0  0  0  0  0  0  0  0
  -25.8760  -38.4770   24.0030 H   0  0  0  0  0  0  0  0  0  0  0  0
  -30.3770  -20.3310   23.3790 C   0  0  0  0  0  1  0  0  0  0  0  0
  -30.1110  -21.1360   22.1680 N   0  0  0  0  0  4  0  0  0  0  0  0
  -29.5000  -20.6220   21.5360 H   0  0  0  0  0  0  0  0  0  0  0  0
  -30.9750  -21.2920   21.6790 H   0  0  0  0  0  0  0  0  0  0  0  0
  -27.9350  -22.3750   22.2870 C   0  0  0  0  0  2  0  0  0  0  0  0
  -27.4910  -21.6800   21.1180 O   0  0  0  0  0  0  0  0  0  0  0  0
  -27.6970  -22.3470   19.8770 C   0  0  0  0  0  2  0  0  0  0  0  0
  -27.6790  -21.2860   18.7680 C   0  0  0  0  0  2  0  0  0  0  0  0
  -28.6850  -20.3220   19.0670 O   0  0  0  0  0  0  0  0  0  0  0  0
  -28.6130  -19.1560   18.2550 C   0  0  0  0  0  2  0  0  0  0  0  0
  -29.9170  -18.3560   18.3990 C   0  0  0  0  0  2  0  0  0  0  0  0
  -29.9930  -17.7260   19.6750 O   0  0  0  0  0  0  0  0  0  0  0  0
  -31.3160  -17.2910   19.9880 C   0  0  0  0  0  2  0  0  0  0  0  0
  -31.3010  -16.4160   21.2540 C   0  0  0  0  0  2  0  0  0  0  0  0
  -31.1150  -14.2130   20.1000 C   0  0  0  0  0  0  0  0  0  0  0  0
  -30.7120  -11.9920   19.1030 C   0  0  0  0  0  2  0  0  0  0  0  0
  -29.7240  -12.0730   17.9240 C   0  0  0  0  0  2  0  0  0  0  0  0
  -28.2690  -11.9950   18.4220 C   0  0  0  0  0  2  0  0  0  0  0  0
  -27.9880  -12.9810   19.5860 C   0  0  0  0  0  3  0  0  0  0  0  0
  -29.0720  -12.8570   20.6780 C   0  0  0  0  0  2  0  0  0  0  0  0
  -30.3900  -13.0690   20.0510 N   0  0  0  0  0  0  0  0  0  0  0  0
  -32.1130  -14.4190   19.4030 O   0  0  0  0  0  0  0  0  0  0  0  0
  -30.6900  -15.1140   20.9940 N   0  0  0  0  0  0  0  0  0  0  0  0
  -29.8630  -14.8770   21.5210 H   0  0  0  0  0  0  0  0  0  0  0  0
  -25.6780  -13.7300   20.4410 C   0  0  0  0  0  0  0  0  0  0  0  0
  -24.5850  -13.0210   20.8630 C   0  0  0  0  0  0  0  0  0  0  0  0
  -24.9550  -11.6440   20.7820 C   0  0  0  0  0  0  0  0  0  0  0  0
  -26.6480  -12.7880   20.1370 N   0  0  0  0  0  0  0  0  0  0  0  0
  -26.2180  -11.5280   20.3940 N   0  0  0  0  0  0  0  0  0  0  0  0
  -24.1610  -10.4260   20.9960 C   0  0  0  0  0  0  0  0  0  0  0  0
  -24.6160   -9.3860   21.8360 C   0  0  0  0  0  3  0  0  0  0  0  0
  -23.8280   -8.2340   22.0410 C   0  0  0  0  0  3  0  0  0  0  0  0
  -22.5690   -8.1140   21.4050 C   0  0  0  0  0  0  0  0  0  0  0  0
  -22.1310   -9.1420   20.5520 C   0  0  0  0  0  3  0  0  0  0  0  0
  -22.9190  -10.2870   20.3460 C   0  0  0  0  0  3  0  0  0  0  0  0
  -21.7460   -7.0200   21.5220 O   0  0  0  0  0  0  0  0  0  0  0  0
  -21.7210   -6.2590   22.6640 C   0  0  0  0  0  0  0  0  0  0  0  0
  -21.4620   -6.8260   23.9320 C   0  0  0  0  0  3  0  0  0  0  0  0
  -21.3760   -5.9970   25.0690 C   0  0  0  0  0  3  0  0  0  0  0  0
  -21.5380   -4.6040   24.9400 C   0  0  0  0  0  0  0  0  0  0  0  0
  -21.7920   -4.0380   23.6780 C   0  0  0  0  0  3  0  0  0  0  0  0
  -21.8790   -4.8630   22.5430 C   0  0  0  0  0  0  0  0  0  0  0  0
  -22.1020   -4.3110   21.3260 F   0  0  0  0  0  0  0  0  0  0  0  0
  -21.4480   -3.8080   26.0300 F   0  0  0  0  0  0  0  0  0  0  0  0
  -23.2410  -13.5810   21.2300 C   0  0  0  0  0  0  0  0  0  0  0  0
  -22.5190  -12.9080   22.1210 N   0  0  0  0  0  0  0  0  0  0  0  0
  -22.8430  -14.6470   20.7620 O   0  0  0  0  0  0  0  0  0  0  0  0
  -22.8570  -12.0460   22.5200 H   0  0  0  0  0  0  0  0  0  0  0  0
  -21.6190  -13.2640   22.4080 H   0  0  0  0  0  0  0  0  0  0  0  0
  -25.9220  -15.0900   20.2760 N   0  0  0  0  0  0  0  0  0  0  0  0
  -25.2090  -15.7920   20.4350 H   0  0  0  0  0  0  0  0  0  0  0  0
  -26.7900  -15.4700   19.9230 H   0  0  0  0  0  0  0  0  0  0  0  0
  1 55  1  0
  2  3  1  0
  2  1  1  0
  3  5  1  0
  4  2  2  0
  7  8  1  0
  7  6  1  0
  7  3  1  0
  8  9  2  0
 10 12  1  0
 10  8  1  0
 11 22  2  0
 12 17  1  0
 13 21  1  0
 13 23  1  0
 14 20  1  0
 14 16  1  0
 15 21  1  0
 16 15  1  0
 17 16  2  0
 18 19  1  0
 18 12  2  0
 19 14  2  0
 20 13  1  0
 21 11  1  0
 23 25  2  0
 24 23  1  0
 26 24  1  0
 27 36  2  0
 27 32  1  0
 28 24  1  0
 28 32  1  0
 29 28  1  0
 30 31  1  0
 30 29  1  0
 31 27  1  0
 32 33  2  0
 33 34  1  0
 35 34  2  0
 36 35  1  0
 37 11  1  0
 37 42  1  0
 37 38  1  0
 38 41  1  1
 38 39  1  0
 40 38  1  0
 42 45  1  0
 43 47  1  0
 43 42  1  0
 44 43  2  0
 47 46  1  0
 49 47  1  0
 49 50  1  0
 49 48  1  0
 52  1  1  0
 52 51  1  0
 53 52  1  0
 54 52  1  0
 56 55  1  0
 57 56  1  0
 58 59  1  0
 58 57  1  0
 60 61  1  0
 60 59  1  0
 61 62  1  0
 62 63  1  0
 63 64  1  0
 65 73  1  0
 66 71  1  0
 67 68  1  0
 67 66  1  0
 69 68  1  0
 69 78  1  0
 69 70  1  0
 71 65  1  0
 71 70  1  0
 72 65  2  0
 73 64  1  0
 73 74  1  0
 75 76  2  0
 76 95  1  0
 77 76  1  0
 77 80  1  0
 78 79  1  0
 78 75  1  0
 79 77  2  0
 80 81  1  0
 81 82  2  0
 83 86  1  0
 83 82  1  0
 84 83  2  0
 85 84  1  0
 85 80  2  0
 86 87  1  0
 87 88  1  0
 88 89  2  0
 90 89  1  0
 90 94  1  0
 91 90  2  0
 92 87  2  0
 92 91  1  0
 93 92  1  0
 95 96  1  0
 96 99  1  0
 96 98  1  0
 97 95  2  0
100101  1  0
100 75  1  0
102100  1  0
M  ISO  4   8 101  10 101  65 100  73 100
M  END
>  <TORSDO>  (78) 
F 30

>  <SCORE>  (78) 
-9.984

>  <name>  (78) 
79

>  <ligand_id>  (78) 
79

>  <original_smiles>  (78) 
[H]c1c([H])c([H])c2c(c1[H])C([H])([H])C([H])([H])C([H])([H])C2([H])N([H])C(=O)C1([H])N(C(=O)C([H])(N([H])C(=O)C([H])(N([H])C([H])([H])[H])C([H])([H])[H])C(C([H])([H])[H])(C([H])([H])[H])C([H])([H])[H])C([H])([H])c2c([H])c(OC(=O)C([H])(N([H])C(=O)C([H])(C([H])([H])OC([H])([H])C([H])([H])OC([H])([H])C([H])([H])OC([H])([H])C([H])([H])N([H])C(=O)N3C([H])([H])C([H])([H])C([H])([H])C([H])(n4nc(-c5c([H])c([H])c(Oc6c([H])c([H])c(F)c([H])c6F)c([H])c5[H])c(C(=O)N([H])[H])c4N([H])[H])C3([H])[H])[N+]([H])([H])C([H])([H])[H])C([H])([H])[H])c([H])c([H])c2C1([H])[H]

>  <smiles>  (78) 
[H]c1c([H])c([H])c2c(c1[H])C([H])([H])C([H])([H])C([H])([H])C2([H])N([H])C(=O)C1([H])N(C(=O)C([H])(N([H])C(=O)C([H])(N([H])C([H])([H])[H])C([H])([H])[H])C(C([H])([H])[H])(C([H])([H])[H])C([H])([H])[H])C([H])([H])c2c([H])c(OC(=O)C([H])(N([H])C(=O)C([H])(C([H])([H])OC([H])([H])C([H])([H])OC([H])([H])C([H])([H])OC([H])([H])C([H])([H])N([H])C(=O)N3C([H])([H])C([H])([H])C([H])([H])C([H])(n4nc(-c5c([H])c([H])c(Oc6c([H])c([H])c(F)c([H])c6F)c([H])c5[H])c(C(=O)N([H])[H])c4N([H])[H])C3([H])[H])[N+]([H])([H])C([H])([H])[H])C([H])([H])[H])c([H])c([H])c2C1([H])[H]

$$$$
80:0:0
     RDKit          3D

 98105  0  0  1  0  0  0  0  0999 V2000
  -30.6730  -20.9170   21.3910 C   0  0  0  0  0  0  0  0  0  0  0  0
  -29.3470  -20.7530   21.4220 N   0  0  0  0  0  0  0  0  0  0  0  0
  -31.2260  -21.9730   21.7160 O   0  0  0  0  0  0  0  0  0  0  0  0
  -28.9770  -19.8460   21.1660 H   0  0  0  0  0  0  0  0  0  0  0  0
  -32.4810  -19.2060   22.0120 C   0  0  0  0  0  1  0  0  0  0  0  0
  -31.5100  -19.7210   20.9350 C   0  0  0  0  0  3  0  0  0  0  0  0
  -31.6700  -20.1760   18.5050 C   0  0  0  0  0  0  0  0  0  0  0  0
  -32.2270  -20.0580   19.7090 N   0  0  0  0  0  0  0  0  0  0  0  0
  -30.4660  -19.9980   18.3090 O   0  0  0  0  0  0  0  0  0  0  0  0
  -33.2100  -20.2750   19.8170 H   0  0  0  0  0  0  0  0  0  0  0  0
  -32.5870  -20.5160   17.3220 C   0  0  0  0  0  3  0  0  0  0  0  0
  -31.8200  -19.7070   15.0550 C   0  0  0  0  0  0  0  0  0  0  0  0
  -31.5120  -20.0020   12.6390 C   0  0  0  0  0  2  0  0  0  0  0  0
  -32.3980  -21.1830   12.1990 C   0  0  0  0  0  2  0  0  0  0  0  0
  -31.6550  -22.5250   12.3660 C   0  0  0  0  0  2  0  0  0  0  0  0
  -31.0000  -22.6790   13.7680 C   0  0  0  0  0  3  0  0  0  0  0  0
  -30.2030  -21.4050   14.1320 C   0  0  0  0  0  2  0  0  0  0  0  0
  -31.1160  -20.2460   14.0280 N   0  0  0  0  0  0  0  0  0  0  0  0
  -32.6230  -18.7770   14.9410 O   0  0  0  0  0  0  0  0  0  0  0  0
  -31.6860  -20.3950   16.1860 N   0  0  0  0  0  0  0  0  0  0  0  0
  -30.9780  -21.1170   16.1710 H   0  0  0  0  0  0  0  0  0  0  0  0
  -30.2800  -24.9750   14.6980 C   0  0  0  0  0  0  0  0  0  0  0  0
  -29.3010  -25.8520   14.3110 C   0  0  0  0  0  0  0  0  0  0  0  0
  -28.6370  -25.2370   13.2060 C   0  0  0  0  0  0  0  0  0  0  0  0
  -30.1710  -23.8810   13.8510 N   0  0  0  0  0  0  0  0  0  0  0  0
  -29.1430  -24.0310   12.9790 N   0  0  0  0  0  0  0  0  0  0  0  0
  -27.5870  -25.7510   12.3180 C   0  0  0  0  0  0  0  0  0  0  0  0
  -26.2740  -25.2340   12.3500 C   0  0  0  0  0  3  0  0  0  0  0  0
  -25.2780  -25.7580   11.4990 C   0  0  0  0  0  3  0  0  0  0  0  0
  -25.5880  -26.8120   10.6060 C   0  0  0  0  0  0  0  0  0  0  0  0
  -26.9020  -27.3110   10.5660 C   0  0  0  0  0  3  0  0  0  0  0  0
  -27.8930  -26.7850   11.4110 C   0  0  0  0  0  3  0  0  0  0  0  0
  -24.6940  -27.3650    9.7230 O   0  0  0  0  0  0  0  0  0  0  0  0
  -23.4250  -27.7170   10.1100 C   0  0  0  0  0  0  0  0  0  0  0  0
  -23.1950  -28.7220   11.0750 C   0  0  0  0  0  3  0  0  0  0  0  0
  -21.8760  -29.1010   11.3950 C   0  0  0  0  0  3  0  0  0  0  0  0
  -20.7900  -28.4860   10.7460 C   0  0  0  0  0  0  0  0  0  0  0  0
  -21.0170  -27.4880    9.7810 C   0  0  0  0  0  3  0  0  0  0  0  0
  -22.3330  -27.1070    9.4630 C   0  0  0  0  0  0  0  0  0  0  0  0
  -22.5490  -26.1590    8.5180 F   0  0  0  0  0  0  0  0  0  0  0  0
  -19.5230  -28.8560   11.0460 F   0  0  0  0  0  0  0  0  0  0  0  0
  -29.0520  -27.2200   14.8780 C   0  0  0  0  0  0  0  0  0  0  0  0
  -27.7920  -27.5990   15.0430 N   0  0  0  0  0  0  0  0  0  0  0  0
  -29.9840  -27.9440   15.2300 O   0  0  0  0  0  0  0  0  0  0  0  0
  -27.0260  -26.9950   14.7820 H   0  0  0  0  0  0  0  0  0  0  0  0
  -27.5880  -28.5030   15.4440 H   0  0  0  0  0  0  0  0  0  0  0  0
  -31.2520  -25.0290   15.6910 N   0  0  0  0  0  0  0  0  0  0  0  0
  -31.3400  -25.8350   16.3010 H   0  0  0  0  0  0  0  0  0  0  0  0
  -31.7350  -24.2090   16.0460 H   0  0  0  0  0  0  0  0  0  0  0  0
  -33.1380  -21.9690   17.4290 C   0  0  0  0  0  2  0  0  0  0  0  0
  -34.4370  -22.5490   19.5870 C   0  0  0  0  0  1  0  0  0  0  0  0
  -34.5140  -22.1190   18.1160 C   0  0  0  0  0  2  0  0  0  0  0  0
  -28.3930  -21.7930   21.7920 C   0  0  0  0  0  2  0  0  0  0  0  0
  -28.0390  -22.6950   20.5950 C   0  0  0  0  0  2  0  0  0  0  0  0
  -28.2910  -24.0520   20.9330 O   0  0  0  0  0  0  0  0  0  0  0  0
  -28.1240  -24.9110   19.8160 C   0  0  0  0  0  2  0  0  0  0  0  0
  -28.4540  -26.3670   20.1970 C   0  0  0  0  0  2  0  0  0  0  0  0
  -28.1140  -27.2720   19.1450 O   0  0  0  0  0  0  0  0  0  0  0  0
  -24.4410  -31.7560   23.2540 C   0  0  0  0  0  0  0  0  0  0  0  0
  -26.9340  -27.9330   19.3610 C   0  0  0  0  0  0  0  0  0  0  0  0
  -23.1250  -30.4850   21.5860 C   0  0  0  0  0  3  0  0  0  0  0  0
  -24.4810  -29.2300   19.8270 C   0  0  0  0  0  0  0  0  0  0  0  0
  -25.5860  -31.0340   21.1650 C   0  0  0  0  0  2  0  0  0  0  0  0
  -25.6660  -29.7600   20.3560 C   0  0  0  0  0  0  0  0  0  0  0  0
  -26.8970  -29.1110   20.1330 C   0  0  0  0  0  3  0  0  0  0  0  0
  -25.7430  -27.4190   18.8130 C   0  0  0  0  0  3  0  0  0  0  0  0
  -24.5100  -28.0520   19.0600 C   0  0  0  0  0  3  0  0  0  0  0  0
  -23.2070  -29.9890   20.1160 C   0  0  0  0  0  2  0  0  0  0  0  0
  -24.4070  -31.1000   22.0590 N   0  0  0  0  0  0  0  0  0  0  0  0
  -23.4190  -31.8900   23.9400 O   0  0  0  0  0  0  0  0  0  0  0  0
  -22.6450  -29.3170   22.4740 C   0  0  0  0  0  0  0  0  0  0  0  0
  -21.3850  -28.8970   22.2770 N   0  0  0  0  0  0  0  0  0  0  0  0
  -23.4040  -28.7910   23.2920 O   0  0  0  0  0  0  0  0  0  0  0  0
  -20.8220  -29.3940   21.6030 H   0  0  0  0  0  0  0  0  0  0  0  0
  -18.4140  -26.8460   22.3220 C   0  0  0  0  0  0  0  0  0  0  0  0
  -20.7340  -27.7840   22.9640 C   0  0  0  0  0  3  0  0  0  0  0  0
  -21.3050  -26.4270   22.4890 C   0  0  0  0  0  2  0  0  0  0  0  0
  -20.5020  -25.7930   21.3490 C   0  0  0  0  0  2  0  0  0  0  0  0
  -19.0440  -25.5790   21.7670 C   0  0  0  0  0  2  0  0  0  0  0  0
  -19.2070  -27.8870   22.8700 C   0  0  0  0  0  0  0  0  0  0  0  0
  -18.5740  -29.0550   23.3460 C   0  0  0  0  0  3  0  0  0  0  0  0
  -17.1740  -29.1920   23.2790 C   0  0  0  0  0  3  0  0  0  0  0  0
  -16.3910  -28.1540   22.7460 C   0  0  0  0  0  3  0  0  0  0  0  0
  -17.0090  -26.9830   22.2720 C   0  0  0  0  0  3  0  0  0  0  0  0
  -25.7600  -32.3860   23.8040 C   0  0  0  0  0  3  0  0  0  0  0  0
  -26.3640  -31.5970   25.0300 C   0  0  1  0  0  0  0  0  0  0  0  0
  -25.3320  -31.2910   26.1410 C   0  0  0  0  0  1  0  0  0  0  0  0
  -26.9730  -30.2530   24.5690 C   0  0  0  0  0  1  0  0  0  0  0  0
  -27.5150  -32.4150   25.6640 C   0  0  0  0  0  1  0  0  0  0  0  0
  -25.4630  -33.7760   24.1740 N   0  0  0  0  0  0  0  0  0  0  0  0
  -25.7180  -34.8380   23.3980 C   0  0  0  0  0  0  0  0  0  0  0  0
  -26.3030  -34.7530   22.3140 O   0  0  0  0  0  0  0  0  0  0  0  0
  -24.9380  -33.9180   25.0240 H   0  0  0  0  0  0  0  0  0  0  0  0
  -23.8980  -36.5680   23.2660 C   0  0  0  0  0  1  0  0  0  0  0  0
  -25.2500  -36.2150   23.9070 C   0  0  0  0  0  3  0  0  0  0  0  0
  -27.4500  -37.1730   24.4300 C   0  0  0  0  0  1  0  0  0  0  0  0
  -26.2220  -37.3010   23.6490 N   0  0  0  0  0  0  0  0  0  0  0  0
  -25.8110  -38.2080   23.8500 H   0  0  0  0  0  0  0  0  0  0  0  0
  1  2  1  0
  1  3  2  0
  2 53  1  0
  4  2  1  0
  6  1  1  0
  6  5  1  0
  7  8  1  0
  8 10  1  0
  8  6  1  0
  9  7  2  0
 11 50  1  0
 11  7  1  0
 12 20  1  0
 13 18  1  0
 14 15  1  0
 14 13  1  0
 16 15  1  0
 16 25  1  0
 16 17  1  0
 18 17  1  0
 18 12  1  0
 19 12  2  0
 20 11  1  0
 21 20  1  0
 22 47  1  0
 23 22  2  0
 23 42  1  0
 24 23  1  0
 25 22  1  0
 26 24  2  0
 26 25  1  0
 27 28  1  0
 27 24  1  0
 29 28  2  0
 30 29  1  0
 31 30  2  0
 31 32  1  0
 32 27  2  0
 33 34  1  0
 33 30  1  0
 34 35  1  0
 35 36  2  0
 37 41  1  0
 37 36  1  0
 38 37  2  0
 39 38  1  0
 39 34  2  0
 40 39  1  0
 42 43  1  0
 42 44  2  0
 43 46  1  0
 45 43  1  0
 47 49  1  0
 47 48  1  0
 50 52  1  0
 52 51  1  0
 54 55  1  0
 54 53  1  0
 56 57  1  0
 56 55  1  0
 58 60  1  0
 58 57  1  0
 59 70  2  0
 60 65  1  0
 61 69  1  0
 61 71  1  0
 62 68  1  0
 62 64  1  0
 63 69  1  0
 64 63  1  0
 65 64  2  0
 66 67  1  0
 66 60  2  0
 67 62  2  0
 68 61  1  0
 69 59  1  0
 71 73  2  0
 72 71  1  0
 74 72  1  0
 75 80  1  0
 76 72  1  0
 77 76  1  0
 78 79  1  0
 78 77  1  0
 79 75  1  0
 80 76  1  0
 80 81  2  0
 82 81  1  0
 83 82  2  0
 84 75  2  0
 84 83  1  0
 85 59  1  0
 85 90  1  0
 85 86  1  0
 86 89  1  1
 86 87  1  0
 88 86  1  0
 90 93  1  0
 91 95  1  0
 91 90  1  0
 92 91  2  0
 95 94  1  0
 97 98  1  0
 97 95  1  0
 97 96  1  0
M  ISO  4  12 100  20 100  57 101  58 101
M  END
>  <TORSDO>  (79) 
F 26

>  <SCORE>  (79) 
-7.289

>  <name>  (79) 
80

>  <ligand_id>  (79) 
80

>  <original_smiles>  (79) 
[H]c1c([H])c([H])c2c(c1[H])C([H])([H])C([H])([H])C([H])([H])C2([H])N([H])C(=O)C1([H])N(C(=O)C([H])(N([H])C(=O)C([H])(N([H])C([H])([H])[H])C([H])([H])[H])C(C([H])([H])[H])(C([H])([H])[H])C([H])([H])[H])C([H])([H])c2c([H])c(OC([H])([H])C([H])([H])OC([H])([H])C([H])([H])N([H])C(=O)C([H])(N([H])C(=O)C([H])(N([H])C(=O)N3C([H])([H])C([H])([H])C([H])([H])C([H])(n4nc(-c5c([H])c([H])c(Oc6c([H])c([H])c(F)c([H])c6F)c([H])c5[H])c(C(=O)N([H])[H])c4N([H])[H])C3([H])[H])C([H])([H])C([H])([H])C([H])([H])[H])C([H])([H])[H])c([H])c([H])c2C1([H])[H]

>  <smiles>  (79) 
[H]c1c([H])c([H])c2c(c1[H])C([H])([H])C([H])([H])C([H])([H])C2([H])N([H])C(=O)C1([H])N(C(=O)C([H])(N([H])C(=O)C([H])(N([H])C([H])([H])[H])C([H])([H])[H])C(C([H])([H])[H])(C([H])([H])[H])C([H])([H])[H])C([H])([H])c2c([H])c(OC([H])([H])C([H])([H])OC([H])([H])C([H])([H])N([H])C(=O)C([H])(N([H])C(=O)C([H])(N([H])C(=O)N3C([H])([H])C([H])([H])C([H])([H])C([H])(n4nc(-c5c([H])c([H])c(Oc6c([H])c([H])c(F)c([H])c6F)c([H])c5[H])c(C(=O)N([H])[H])c4N([H])[H])C3([H])[H])C([H])([H])C([H])([H])C([H])([H])[H])C([H])([H])[H])c([H])c([H])c2C1([H])[H]

$$$$
81:0:0
     RDKit          3D

 92 99  0  0  1  0  0  0  0  0999 V2000
  -28.8510  -22.7570   19.9540 C   0  0  0  0  0  0  0  0  0  0  0  0
  -28.8470  -21.3340   20.4120 N   0  0  0  0  0  0  0  0  0  0  0  0
  -29.5740  -22.9750   18.9800 O   0  0  0  0  0  0  0  0  0  0  0  0
  -28.2360  -21.2160   21.2090 H   0  0  0  0  0  0  0  0  0  0  0  0
  -27.8140  -24.0880   22.0250 C   0  0  0  0  0  1  0  0  0  0  0  0
  -27.9680  -24.1920   20.5020 C   0  0  0  0  0  3  0  0  0  0  0  0
  -28.2280  -25.8140   20.2170 O   0  0  0  0  0  0  0  0  0  0  0  0
  -24.6240  -31.8310   23.1740 C   0  0  0  0  0  0  0  0  0  0  0  0
  -27.2120  -26.9210   20.2050 C   0  0  0  0  0  0  0  0  0  0  0  0
  -23.4430  -30.4220   21.5360 C   0  0  0  0  0  3  0  0  0  0  0  0
  -24.9070  -28.8100   20.1340 C   0  0  0  0  0  0  0  0  0  0  0  0
  -26.0120  -30.6350   21.4060 C   0  0  0  0  0  2  0  0  0  0  0  0
  -26.0940  -29.2180   20.7590 C   0  0  0  0  0  0  0  0  0  0  0  0
  -27.2410  -28.2980   20.7640 C   0  0  0  0  0  3  0  0  0  0  0  0
  -25.9930  -26.6730   19.5350 C   0  0  0  0  0  3  0  0  0  0  0  0
  -24.8830  -27.5560   19.5040 C   0  0  0  0  0  3  0  0  0  0  0  0
  -23.6860  -29.7310   20.1680 C   0  0  0  0  0  2  0  0  0  0  0  0
  -24.7140  -30.9900   22.0920 N   0  0  0  0  0  0  0  0  0  0  0  0
  -23.5300  -32.1200   23.6860 O   0  0  0  0  0  0  0  0  0  0  0  0
  -22.7450  -29.4300   22.5030 C   0  0  0  0  0  0  0  0  0  0  0  0
  -21.4120  -29.2790   22.3870 N   0  0  0  0  0  0  0  0  0  0  0  0
  -23.4080  -28.7960   23.3260 O   0  0  0  0  0  0  0  0  0  0  0  0
  -20.9290  -29.8420   21.7000 H   0  0  0  0  0  0  0  0  0  0  0  0
  -18.0200  -28.1030   22.9210 C   0  0  0  0  0  0  0  0  0  0  0  0
  -20.5860  -28.3450   23.1590 C   0  0  0  0  0  3  0  0  0  0  0  0
  -20.6660  -26.9140   22.5730 C   0  0  0  0  0  2  0  0  0  0  0  0
  -19.5510  -26.6100   21.5680 C   0  0  0  0  0  2  0  0  0  0  0  0
  -18.1770  -26.7610   22.2290 C   0  0  0  0  0  2  0  0  0  0  0  0
  -19.1500  -28.8540   23.3440 C   0  0  0  0  0  0  0  0  0  0  0  0
  -18.9450  -30.1090   23.9570 C   0  0  0  0  0  3  0  0  0  0  0  0
  -17.6450  -30.6160   24.1460 C   0  0  0  0  0  3  0  0  0  0  0  0
  -16.5320  -29.8630   23.7370 C   0  0  0  0  0  3  0  0  0  0  0  0
  -16.7190  -28.6080   23.1310 C   0  0  0  0  0  3  0  0  0  0  0  0
  -25.8860  -32.4820   23.8150 C   0  0  0  0  0  3  0  0  0  0  0  0
  -26.3870  -31.7220   25.1060 C   0  0  1  0  0  0  0  0  0  0  0  0
  -25.2790  -31.4940   26.1610 C   0  0  0  0  0  1  0  0  0  0  0  0
  -26.9760  -30.3410   24.7410 C   0  0  0  0  0  1  0  0  0  0  0  0
  -27.5300  -32.5220   25.7740 C   0  0  0  0  0  1  0  0  0  0  0  0
  -25.5620  -33.8800   24.1470 N   0  0  0  0  0  0  0  0  0  0  0  0
  -25.9000  -34.9440   23.4050 C   0  0  0  0  0  0  0  0  0  0  0  0
  -26.5790  -34.8510   22.3810 O   0  0  0  0  0  0  0  0  0  0  0  0
  -24.9570  -34.0240   24.9420 H   0  0  0  0  0  0  0  0  0  0  0  0
  -24.1770  -36.7450   23.0550 C   0  0  0  0  0  1  0  0  0  0  0  0
  -25.4090  -36.3290   23.8740 C   0  0  0  0  0  3  0  0  0  0  0  0
  -27.5330  -37.2090   24.7370 C   0  0  0  0  0  1  0  0  0  0  0  0
  -26.4420  -37.3840   23.7810 N   0  0  0  0  0  0  0  0  0  0  0  0
  -26.0360  -38.3030   23.9310 H   0  0  0  0  0  0  0  0  0  0  0  0
  -29.3240  -19.8340   19.8030 C   0  0  0  0  0  3  0  0  0  0  0  0
  -28.1950  -19.4760   18.8290 C   0  0  0  0  0  0  0  0  0  0  0  0
  -28.5370  -18.9910   17.6420 N   0  0  0  0  0  0  0  0  0  0  0  0
  -27.0140  -19.6280   19.1430 O   0  0  0  0  0  0  0  0  0  0  0  0
  -29.5130  -18.8660   17.4090 H   0  0  0  0  0  0  0  0  0  0  0  0
  -27.8320  -18.7390   16.9660 H   0  0  0  0  0  0  0  0  0  0  0  0
  -29.7640  -18.2600   20.6150 C   0  0  0  0  0  2  0  0  0  0  0  0
  -30.3810  -15.3310   20.1750 C   0  0  0  0  0  0  0  0  0  0  0  0
  -30.3430  -12.8900   19.2560 C   0  0  0  0  0  2  0  0  0  0  0  0
  -29.4020  -12.6650   18.0470 C   0  0  0  0  0  2  0  0  0  0  0  0
  -27.9630  -12.3840   18.5150 C   0  0  0  0  0  2  0  0  0  0  0  0
  -27.5250  -13.3450   19.6490 C   0  0  0  0  0  3  0  0  0  0  0  0
  -28.5950  -13.5040   20.7480 C   0  0  0  0  0  2  0  0  0  0  0  0
  -29.8040  -14.0290   20.0850 N   0  0  0  0  0  0  0  0  0  0  0  0
  -31.6100  -15.3150   20.0070 O   0  0  0  0  0  0  0  0  0  0  0  0
  -29.6140  -16.6100   20.2520 N   0  0  0  0  0  0  0  0  0  0  0  0
  -28.6350  -16.3730   20.2010 H   0  0  0  0  0  0  0  0  0  0  0  0
  -25.1670  -13.8960   20.4440 C   0  0  0  0  0  0  0  0  0  0  0  0
  -24.1120  -13.1180   20.8310 C   0  0  0  0  0  0  0  0  0  0  0  0
  -24.5840  -11.7690   20.7960 C   0  0  0  0  0  0  0  0  0  0  0  0
  -26.2090  -13.0230   20.1840 N   0  0  0  0  0  0  0  0  0  0  0  0
  -25.8710  -11.7370   20.4650 N   0  0  0  0  0  0  0  0  0  0  0  0
  -23.8620  -10.5050   20.9960 C   0  0  0  0  0  0  0  0  0  0  0  0
  -24.3040   -9.5370   21.9250 C   0  0  0  0  0  3  0  0  0  0  0  0
  -23.5770   -8.3430   22.1150 C   0  0  0  0  0  3  0  0  0  0  0  0
  -22.3930   -8.1060   21.3760 C   0  0  0  0  0  0  0  0  0  0  0  0
  -21.9720   -9.0610   20.4350 C   0  0  0  0  0  3  0  0  0  0  0  0
  -22.7000  -10.2460   20.2420 C   0  0  0  0  0  3  0  0  0  0  0  0
  -21.6370   -6.9640   21.4770 O   0  0  0  0  0  0  0  0  0  0  0  0
  -21.6010   -6.2210   22.6290 C   0  0  0  0  0  0  0  0  0  0  0  0
  -21.1920   -6.7750   23.8620 C   0  0  0  0  0  3  0  0  0  0  0  0
  -21.1060   -5.9600   25.0060 C   0  0  0  0  0  3  0  0  0  0  0  0
  -21.4180   -4.5900   24.9210 C   0  0  0  0  0  0  0  0  0  0  0  0
  -21.8230   -4.0350   23.6950 C   0  0  0  0  0  3  0  0  0  0  0  0
  -21.9110   -4.8480   22.5510 C   0  0  0  0  0  0  0  0  0  0  0  0
  -22.2790   -4.3030   21.3670 F   0  0  0  0  0  0  0  0  0  0  0  0
  -21.3280   -3.8040   26.0200 F   0  0  0  0  0  0  0  0  0  0  0  0
  -22.7180  -13.5910   21.1150 C   0  0  0  0  0  0  0  0  0  0  0  0
  -21.9990  -12.8960   21.9880 N   0  0  0  0  0  0  0  0  0  0  0  0
  -22.2750  -14.6180   20.5960 O   0  0  0  0  0  0  0  0  0  0  0  0
  -22.3740  -12.0690   22.4290 H   0  0  0  0  0  0  0  0  0  0  0  0
  -21.0620  -13.1930   22.2210 H   0  0  0  0  0  0  0  0  0  0  0  0
  -25.3180  -15.2670   20.2600 N   0  0  0  0  0  0  0  0  0  0  0  0
  -24.5400  -15.9090   20.3700 H   0  0  0  0  0  0  0  0  0  0  0  0
  -26.1420  -15.7090   19.8730 H   0  0  0  0  0  0  0  0  0  0  0  0
  1  2  1  0
  1  6  1  0
  2  4  1  0
  3  1  2  0
  6  5  1  0
  7  6  1  0
  8 19  2  0
  9  7  1  0
  9 14  1  0
 10 18  1  0
 10 20  1  0
 11 17  1  0
 11 13  1  0
 12 18  1  0
 13 14  2  0
 13 12  1  0
 15  9  2  0
 16 15  1  0
 16 11  2  0
 17 10  1  0
 18  8  1  0
 20 22  2  0
 21 20  1  0
 23 21  1  0
 24 33  2  0
 24 29  1  0
 25 21  1  0
 25 29  1  0
 26 25  1  0
 27 28  1  0
 27 26  1  0
 28 24  1  0
 29 30  2  0
 30 31  1  0
 32 31  2  0
 33 32  1  0
 34  8  1  0
 34 39  1  0
 34 35  1  0
 35 38  1  1
 35 36  1  0
 37 35  1  0
 39 42  1  0
 40 44  1  0
 40 39  1  0
 41 40  2  0
 44 43  1  0
 46 44  1  0
 46 47  1  0
 46 45  1  0
 48  2  1  0
 48 54  1  0
 49 51  2  0
 49 48  1  0
 50 49  1  0
 52 50  1  0
 53 50  1  0
 55 63  1  0
 56 61  1  0
 57 58  1  0
 57 56  1  0
 59 58  1  0
 59 68  1  0
 59 60  1  0
 61 55  1  0
 61 60  1  0
 62 55  2  0
 63 54  1  0
 64 63  1  0
 65 66  2  0
 66 85  1  0
 67 66  1  0
 67 70  1  0
 68 65  1  0
 68 69  1  0
 69 67  2  0
 70 71  1  0
 71 72  2  0
 73 76  1  0
 73 72  1  0
 74 73  2  0
 75 74  1  0
 75 70  2  0
 76 77  1  0
 77 78  1  0
 78 79  2  0
 80 79  1  0
 80 84  1  0
 81 80  2  0
 82 77  2  0
 82 81  1  0
 83 82  1  0
 85 86  1  0
 86 89  1  0
 86 88  1  0
 87 85  2  0
 90 91  1  0
 90 65  1  0
 92 90  1  0
M  ISO  4   6 101   7 101  55 100  63 100
M  END
>  <TORSDO>  (80) 
F 20

>  <SCORE>  (80) 
-16.325

>  <name>  (80) 
81

>  <ligand_id>  (80) 
81

>  <original_smiles>  (80) 
[H]c1c([H])c([H])c2c(c1[H])C([H])([H])C([H])([H])C([H])([H])C2([H])N([H])C(=O)C1([H])N(C(=O)C([H])(N([H])C(=O)C([H])(N([H])C([H])([H])[H])C([H])([H])[H])C(C([H])([H])[H])(C([H])([H])[H])C([H])([H])[H])C([H])([H])c2c([H])c(OC([H])(C(=O)N([H])C([H])(C(=O)N([H])[H])C([H])([H])N([H])C(=O)N3C([H])([H])C([H])([H])C([H])([H])C([H])(n4nc(-c5c([H])c([H])c(Oc6c([H])c([H])c(F)c([H])c6F)c([H])c5[H])c(C(=O)N([H])[H])c4N([H])[H])C3([H])[H])C([H])([H])[H])c([H])c([H])c2C1([H])[H]

>  <smiles>  (80) 
[H]c1c([H])c([H])c2c(c1[H])C([H])([H])C([H])([H])C([H])([H])C2([H])N([H])C(=O)C1([H])N(C(=O)C([H])(N([H])C(=O)C([H])(N([H])C([H])([H])[H])C([H])([H])[H])C(C([H])([H])[H])(C([H])([H])[H])C([H])([H])[H])C([H])([H])c2c([H])c(OC([H])(C(=O)N([H])C([H])(C(=O)N([H])[H])C([H])([H])N([H])C(=O)N3C([H])([H])C([H])([H])C([H])([H])C([H])(n4nc(-c5c([H])c([H])c(Oc6c([H])c([H])c(F)c([H])c6F)c([H])c5[H])c(C(=O)N([H])[H])c4N([H])[H])C3([H])[H])C([H])([H])[H])c([H])c([H])c2C1([H])[H]

$$$$
82:0:0
     RDKit          3D

100107  0  0  1  0  0  0  0  0999 V2000
  -30.8440  -16.5050   20.7750 C   0  0  0  0  0  0  0  0  0  0  0  0
  -30.8460  -14.1000   19.8740 C   0  0  0  0  0  0  0  0  0  0  0  0
  -30.3970  -11.9440   18.7210 C   0  0  0  0  0  2  0  0  0  0  0  0
  -29.3380  -12.1430   17.6150 C   0  0  0  0  0  2  0  0  0  0  0  0
  -27.9100  -12.0420   18.1880 C   0  0  0  0  0  2  0  0  0  0  0  0
  -27.7230  -12.8830   19.4770 C   0  0  0  0  0  3  0  0  0  0  0  0
  -28.8780  -12.6270   20.4720 C   0  0  0  0  0  2  0  0  0  0  0  0
  -30.1370  -12.9350   19.7820 N   0  0  0  0  0  0  0  0  0  0  0  0
  -31.9180  -14.2470   19.2860 O   0  0  0  0  0  0  0  0  0  0  0  0
  -30.2700  -15.1340   20.5530 N   0  0  0  0  0  4  0  0  0  0  0  0
  -29.3990  -14.9300   21.0130 H   0  0  0  0  0  0  0  0  0  0  0  0
  -25.4370  -13.5660   20.4280 C   0  0  0  0  0  0  0  0  0  0  0  0
  -24.3850  -12.8350   20.9090 C   0  0  0  0  0  0  0  0  0  0  0  0
  -24.7790  -11.4680   20.8040 C   0  0  0  0  0  0  0  0  0  0  0  0
  -26.4140  -12.6490   20.0790 N   0  0  0  0  0  0  0  0  0  0  0  0
  -26.0260  -11.3790   20.3590 N   0  0  0  0  0  0  0  0  0  0  0  0
  -24.0160  -10.2380   21.0440 C   0  0  0  0  0  0  0  0  0  0  0  0
  -24.4480   -9.2710   21.9780 C   0  0  0  0  0  3  0  0  0  0  0  0
  -23.6860   -8.1030   22.2010 C   0  0  0  0  0  3  0  0  0  0  0  0
  -22.4800   -7.8940   21.4910 C   0  0  0  0  0  0  0  0  0  0  0  0
  -22.0670   -8.8510   20.5470 C   0  0  0  0  0  3  0  0  0  0  0  0
  -22.8270  -10.0110   20.3220 C   0  0  0  0  0  3  0  0  0  0  0  0
  -21.6920   -6.7770   21.6220 O   0  0  0  0  0  0  0  0  0  0  0  0
  -21.5520   -6.1380   22.8270 C   0  0  0  0  0  0  0  0  0  0  0  0
  -21.0510   -6.8010   23.9710 C   0  0  0  0  0  3  0  0  0  0  0  0
  -20.8620   -6.0860   25.1690 C   0  0  0  0  0  3  0  0  0  0  0  0
  -21.1620   -4.7120   25.2270 C   0  0  0  0  0  0  0  0  0  0  0  0
  -21.6560   -4.0510   24.0880 C   0  0  0  0  0  3  0  0  0  0  0  0
  -21.8500   -4.7630   22.8910 C   0  0  0  0  0  0  0  0  0  0  0  0
  -22.3070   -4.1170   21.7900 F   0  0  0  0  0  0  0  0  0  0  0  0
  -20.9690   -4.0250   26.3760 F   0  0  0  0  0  0  0  0  0  0  0  0
  -23.0500  -13.3740   21.3400 C   0  0  0  0  0  0  0  0  0  0  0  0
  -22.3990  -12.7110   22.2890 N   0  0  0  0  0  0  0  0  0  0  0  0
  -22.6050  -14.4210   20.8720 O   0  0  0  0  0  0  0  0  0  0  0  0
  -22.7760  -11.8680   22.6910 H   0  0  0  0  0  0  0  0  0  0  0  0
  -21.5110  -13.0570   22.6220 H   0  0  0  0  0  0  0  0  0  0  0  0
  -25.6400  -14.9300   20.2580 N   0  0  0  0  0  0  0  0  0  0  0  0
  -24.7900  -15.4860   20.2700 H   0  0  0  0  0  0  0  0  0  0  0  0
  -26.2460  -15.2030   19.4900 H   0  0  0  0  0  0  0  0  0  0  0  0
  -29.9660  -17.5440   21.5040 C   0  0  0  0  0  0  0  0  0  0  0  0
  -28.8790  -18.1260   20.9740 N   0  0  0  0  0  4  0  0  0  0  0  0
  -30.2690  -17.8500   22.6570 O   0  0  0  0  0  0  0  0  0  0  0  0
  -28.4060  -18.7290   21.6290 H   0  0  0  0  0  0  0  0  0  0  0  0
  -28.2010  -18.0950   19.6790 C   0  0  0  0  0  0  0  0  0  0  0  0
  -27.8230  -16.6520   19.2840 C   0  0  0  0  0  0  0  0  0  0  0  0
  -27.6910  -16.3440   18.0030 N   0  0  0  0  0  0  0  0  0  0  0  0
  -27.6320  -15.7950   20.1470 O   0  0  0  0  0  0  0  0  0  0  0  0
  -27.9230  -17.0090   17.2640 H   0  0  0  0  0  0  0  0  0  0  0  0
  -27.4110  -15.4110   17.7420 H   0  0  0  0  0  0  0  0  0  0  0  0
  -28.7650  -19.0490   18.5980 C   0  0  0  0  0  2  0  0  0  0  0  0
  -28.6350  -20.4050   18.9890 O   0  0  0  0  0  0  0  0  0  0  0  0
  -29.3910  -20.6020   19.5390 H   0  0  0  0  0  0  0  0  0  0  0  0
  -31.8020  -17.1160   19.6780 C   0  0  0  0  0  2  0  0  0  0  0  0
  -31.5990  -18.4810   19.2140 O   0  0  0  0  0  0  0  0  0  0  0  0
  -32.2070  -19.5720   19.9630 C   0  0  0  0  0  2  0  0  0  0  0  0
  -31.9870  -20.9900   19.3150 C   0  0  0  0  0  2  0  0  0  0  0  0
  -31.7020  -22.0660   20.2440 O   0  0  0  0  0  0  0  0  0  0  0  0
  -31.5450  -23.3840   19.6500 C   0  0  0  0  0  2  0  0  0  0  0  0
  -30.7690  -24.4140   20.5460 C   0  0  0  0  0  2  0  0  0  0  0  0
  -30.8070  -25.8050   20.1160 O   0  0  0  0  0  0  0  0  0  0  0  0
  -26.2400  -29.9570   23.7560 C   0  0  0  0  0  0  0  0  0  0  0  0
  -29.6050  -26.4940   20.1350 C   0  0  0  0  0  0  0  0  0  0  0  0
  -25.3720  -28.9460   21.6720 C   0  0  0  0  0  3  0  0  0  0  0  0
  -27.1170  -27.8650   20.1510 C   0  0  0  0  0  0  0  0  0  0  0  0
  -27.8680  -29.4510   21.9310 C   0  0  0  0  0  2  0  0  0  0  0  0
  -28.1480  -28.2820   21.0020 C   0  0  0  0  0  0  0  0  0  0  0  0
  -29.4000  -27.6120   20.9840 C   0  0  0  0  0  3  0  0  0  0  0  0
  -28.5550  -26.0990   19.2790 C   0  0  0  0  0  3  0  0  0  0  0  0
  -27.3190  -26.7760   19.2830 C   0  0  0  0  0  3  0  0  0  0  0  0
  -25.8110  -28.6320   20.2170 C   0  0  0  0  0  2  0  0  0  0  0  0
  -26.5030  -29.4560   22.5150 N   0  0  0  0  0  0  0  0  0  0  0  0
  -25.0800  -30.0390   24.1830 O   0  0  0  0  0  0  0  0  0  0  0  0
  -24.6820  -27.6930   22.2610 C   0  0  0  0  0  0  0  0  0  0  0  0
  -23.4220  -27.4560   21.8600 N   0  0  0  0  0  0  0  0  0  0  0  0
  -25.2860  -26.9480   23.0380 O   0  0  0  0  0  0  0  0  0  0  0  0
  -22.9960  -28.1210   21.2300 H   0  0  0  0  0  0  0  0  0  0  0  0
  -20.1860  -25.9160   21.4060 C   0  0  0  0  0  0  0  0  0  0  0  0
  -22.5960  -26.3140   22.2490 C   0  0  0  0  0  3  0  0  0  0  0  0
  -22.9770  -25.0480   21.4460 C   0  0  0  0  0  2  0  0  0  0  0  0
  -22.1320  -24.8600   20.1820 C   0  0  0  0  0  2  0  0  0  0  0  0
  -20.6470  -24.7560   20.5410 C   0  0  0  0  0  2  0  0  0  0  0  0
  -21.1030  -26.6580   22.1950 C   0  0  0  0  0  0  0  0  0  0  0  0
  -20.6280  -27.7490   22.9540 C   0  0  0  0  0  3  0  0  0  0  0  0
  -19.2650  -28.0990   22.9350 C   0  0  0  0  0  3  0  0  0  0  0  0
  -18.3580  -27.3500   22.1650 C   0  0  0  0  0  3  0  0  0  0  0  0
  -18.8190  -26.2600   21.4050 C   0  0  0  0  0  3  0  0  0  0  0  0
  -27.3810  -30.4740   24.6860 C   0  0  0  0  0  3  0  0  0  0  0  0
  -26.9870  -31.8050   25.1680 N   0  0  0  0  0  0  0  0  0  0  0  0
  -27.4920  -32.9600   24.7120 C   0  0  0  0  0  0  0  0  0  0  0  0
  -28.4020  -33.0090   23.8800 O   0  0  0  0  0  0  0  0  0  0  0  0
  -26.2090  -31.8430   25.8090 H   0  0  0  0  0  0  0  0  0  0  0  0
  -25.9460  -34.8840   24.2280 C   0  0  0  0  0  1  0  0  0  0  0  0
  -26.8950  -34.2670   25.2680 C   0  0  0  0  0  3  0  0  0  0  0  0
  -28.6910  -34.8590   26.8320 C   0  0  0  0  0  1  0  0  0  0  0  0
  -27.9140  -35.2630   25.6630 N   0  0  0  0  0  0  0  0  0  0  0  0
  -27.4840  -36.1610   25.8610 H   0  0  0  0  0  0  0  0  0  0  0  0
  -27.6810  -29.5080   25.8980 C   0  0  1  0  0  0  0  0  0  0  0  0
  -26.4270  -29.1240   26.7160 C   0  0  0  0  0  1  0  0  0  0  0  0
  -28.3380  -28.2010   25.4030 C   0  0  0  0  0  1  0  0  0  0  0  0
  -28.6910  -30.1750   26.8620 C   0  0  0  0  0  1  0  0  0  0  0  0
  1 40  1  0
  2 10  1  0
  3  8  1  0
  4  5  1  0
  4  3  1  0
  6  5  1  0
  6 15  1  0
  6  7  1  0
  8  2  1  0
  8  7  1  0
  9  2  2  0
 10  1  2  0
 10 11  1  0
 12 13  2  0
 13 32  1  0
 14 13  1  0
 14 17  1  0
 15 16  1  0
 15 12  1  0
 16 14  2  0
 17 18  1  0
 18 19  2  0
 20 23  1  0
 20 19  1  0
 21 20  2  0
 22 21  1  0
 22 17  2  0
 23 24  1  0
 24 29  2  0
 24 25  1  0
 25 26  2  0
 26 27  1  0
 27 31  1  0
 28 27  2  0
 29 28  1  0
 30 29  1  0
 32 33  1  0
 33 36  1  0
 33 35  1  0
 34 32  2  0
 37 38  1  0
 37 12  1  0
 39 37  1  0
 40 42  2  0
 41 40  1  0
 41 43  1  0
 44 41  2  3
 45 44  1  0
 45 47  2  0
 46 45  1  0
 48 46  1  0
 49 46  1  0
 50 51  1  0
 50 44  1  0
 51 52  1  0
 53  1  1  0
 54 53  1  0
 54 55  1  0
 56 55  1  0
 56 57  1  0
 58 57  1  0
 58 59  1  0
 60 62  1  0
 60 59  1  0
 61 72  2  0
 62 67  1  0
 63 73  1  0
 63 71  1  0
 64 70  1  0
 64 66  1  0
 65 71  1  0
 66 65  1  0
 67 66  2  0
 68 69  1  0
 68 62  2  0
 69 64  2  0
 70 63  1  0
 71 61  1  0
 73 75  2  0
 74 73  1  0
 76 74  1  0
 77 82  1  0
 78 74  1  0
 79 78  1  0
 80 81  1  0
 80 79  1  0
 81 77  1  0
 82 78  1  0
 82 83  2  0
 84 83  1  0
 85 84  2  0
 86 77  2  0
 86 85  1  0
 87 61  1  0
 87 88  1  0
 87 97  1  0
 88 91  1  0
 89 88  1  0
 89 93  1  0
 90 89  2  0
 93 92  1  0
 93 95  1  0
 95 96  1  0
 95 94  1  0
 97 98  1  1
 97100  1  0
 99 97  1  0
M  ISO  4   2 100  10 100  59 101  60 101
M  END
>  <TORSDO>  (81) 
F 28

>  <SCORE>  (81) 
-8.164

>  <name>  (81) 
82

>  <ligand_id>  (81) 
82

>  <original_smiles>  (81) 
[H]OC([H])([H])C([H])(C(=O)N([H])[H])N([H])C(=O)C([H])(N([H])C(=O)N1C([H])([H])C([H])([H])C([H])([H])C([H])(n2nc(-c3c([H])c([H])c(Oc4c([H])c([H])c(F)c([H])c4F)c([H])c3[H])c(C(=O)N([H])[H])c2N([H])[H])C1([H])[H])C([H])([H])OC([H])([H])C([H])([H])OC([H])([H])C([H])([H])Oc1c([H])c([H])c2c(c1[H])C([H])([H])N(C(=O)C([H])(N([H])C(=O)C([H])(N([H])C([H])([H])[H])C([H])([H])[H])C(C([H])([H])[H])(C([H])([H])[H])C([H])([H])[H])C([H])(C(=O)N([H])C1([H])c3c([H])c([H])c([H])c([H])c3C([H])([H])C([H])([H])C1([H])[H])C2([H])[H]

>  <smiles>  (81) 
[H]OC([H])([H])C([H])(C(=O)N([H])[H])N([H])C(=O)C([H])(N([H])C(=O)N1C([H])([H])C([H])([H])C([H])([H])C([H])(n2nc(-c3c([H])c([H])c(Oc4c([H])c([H])c(F)c([H])c4F)c([H])c3[H])c(C(=O)N([H])[H])c2N([H])[H])C1([H])[H])C([H])([H])OC([H])([H])C([H])([H])OC([H])([H])C([H])([H])Oc1c([H])c([H])c2c(c1[H])C([H])([H])N(C(=O)C([H])(N([H])C(=O)C([H])(N([H])C([H])([H])[H])C([H])([H])[H])C(C([H])([H])[H])(C([H])([H])[H])C([H])([H])[H])C([H])(C(=O)N([H])C1([H])c3c([H])c([H])c([H])c([H])c3C([H])([H])C([H])([H])C1([H])[H])C2([H])[H]

$$$$
83:0:0
     RDKit          3D

 98104  0  0  1  0  0  0  0  0999 V2000
  -24.7950  -20.4010   20.3290 C   0  0  0  0  0  2  0  0  0  0  0  0
  -26.1510  -22.4130   20.9140 C   0  0  0  0  0  0  0  0  0  0  0  0
  -25.3930  -21.3640   21.2520 N   0  0  0  0  0  0  0  0  0  0  0  0
  -26.3600  -22.7250   19.7370 O   0  0  0  0  0  0  0  0  0  0  0  0
  -25.3040  -21.1490   22.2370 H   0  0  0  0  0  0  0  0  0  0  0  0
  -26.7740  -23.2140   22.0660 C   0  0  0  0  0  2  0  0  0  0  0  0
  -27.7650  -24.1080   21.5600 O   0  0  0  0  0  0  0  0  0  0  0  0
  -28.0620  -25.1730   22.4540 C   0  0  0  0  0  2  0  0  0  0  0  0
  -29.0220  -26.1690   21.7690 C   0  0  0  0  0  2  0  0  0  0  0  0
  -28.5960  -26.5040   20.4450 O   0  0  0  0  0  0  0  0  0  0  0  0
  -24.5790  -31.7280   23.1320 C   0  0  0  0  0  0  0  0  0  0  0  0
  -27.4380  -27.2340   20.3760 C   0  0  0  0  0  0  0  0  0  0  0  0
  -23.4590  -30.2030   21.5370 C   0  0  0  0  0  3  0  0  0  0  0  0
  -24.9960  -28.6290   20.2490 C   0  0  0  0  0  0  0  0  0  0  0  0
  -25.9750  -30.6320   21.3880 C   0  0  0  0  0  2  0  0  0  0  0  0
  -26.1190  -29.2330   20.8300 C   0  0  0  0  0  0  0  0  0  0  0  0
  -27.3450  -28.5430   20.8950 C   0  0  0  0  0  3  0  0  0  0  0  0
  -26.3070  -26.6350   19.7900 C   0  0  0  0  0  3  0  0  0  0  0  0
  -25.0810  -27.3230   19.7330 C   0  0  0  0  0  3  0  0  0  0  0  0
  -23.7270  -29.4470   20.2070 C   0  0  0  0  0  2  0  0  0  0  0  0
  -24.6880  -30.8720   22.0780 N   0  0  0  0  0  0  0  0  0  0  0  0
  -23.4760  -31.9990   23.6250 O   0  0  0  0  0  0  0  0  0  0  0  0
  -22.8060  -29.2210   22.5330 C   0  0  0  0  0  0  0  0  0  0  0  0
  -21.4920  -28.9950   22.3720 N   0  0  0  0  0  0  0  0  0  0  0  0
  -23.4790  -28.6610   23.4030 O   0  0  0  0  0  0  0  0  0  0  0  0
  -21.0090  -29.5000   21.6420 H   0  0  0  0  0  0  0  0  0  0  0  0
  -18.1220  -27.8090   22.8870 C   0  0  0  0  0  0  0  0  0  0  0  0
  -20.6760  -28.0790   23.1680 C   0  0  0  0  0  3  0  0  0  0  0  0
  -20.7880  -26.6310   22.6380 C   0  0  0  0  0  2  0  0  0  0  0  0
  -19.6940  -26.2750   21.6270 C   0  0  0  0  0  2  0  0  0  0  0  0
  -18.3070  -26.4380   22.2570 C   0  0  0  0  0  2  0  0  0  0  0  0
  -19.2360  -28.5850   23.3010 C   0  0  0  0  0  0  0  0  0  0  0  0
  -19.0120  -29.8680   23.8460 C   0  0  0  0  0  3  0  0  0  0  0  0
  -17.7060  -30.3740   23.9860 C   0  0  0  0  0  3  0  0  0  0  0  0
  -16.6050  -29.5920   23.5920 C   0  0  0  0  0  3  0  0  0  0  0  0
  -16.8140  -28.3130   23.0470 C   0  0  0  0  0  3  0  0  0  0  0  0
  -25.8320  -32.4240   23.7550 C   0  0  0  0  0  3  0  0  0  0  0  0
  -26.3570  -31.7120   25.0620 C   0  0  1  0  0  0  0  0  0  0  0  0
  -25.2430  -31.3990   26.0880 C   0  0  0  0  0  1  0  0  0  0  0  0
  -27.0670  -30.3830   24.7130 C   0  0  0  0  0  1  0  0  0  0  0  0
  -27.4060  -32.6070   25.7610 C   0  0  0  0  0  1  0  0  0  0  0  0
  -25.4660  -33.8180   24.0350 N   0  0  0  0  0  0  0  0  0  0  0  0
  -25.8000  -34.8610   23.2620 C   0  0  0  0  0  0  0  0  0  0  0  0
  -26.5200  -34.7540   22.2670 O   0  0  0  0  0  0  0  0  0  0  0  0
  -24.8380  -33.9740   24.8090 H   0  0  0  0  0  0  0  0  0  0  0  0
  -24.0540  -36.6000   22.7610 C   0  0  0  0  0  1  0  0  0  0  0  0
  -25.2480  -36.2430   23.6610 C   0  0  0  0  0  3  0  0  0  0  0  0
  -27.3040  -37.1950   24.6080 C   0  0  0  0  0  1  0  0  0  0  0  0
  -26.2580  -37.3220   23.5960 N   0  0  0  0  0  0  0  0  0  0  0  0
  -25.8200  -38.2320   23.7040 H   0  0  0  0  0  0  0  0  0  0  0  0
  -25.5770  -19.0820   20.3850 C   0  0  0  0  0  2  0  0  0  0  0  0
  -24.8000  -18.1450   21.1330 O   0  0  0  0  0  0  0  0  0  0  0  0
  -25.4130  -16.8730   21.3300 C   0  0  0  0  0  2  0  0  0  0  0  0
  -25.3040  -15.9650   20.0890 C   0  0  0  0  0  2  0  0  0  0  0  0
  -26.5240  -15.9270   19.3620 O   0  0  0  0  0  0  0  0  0  0  0  0
  -27.4600  -14.9580   19.8250 C   0  0  0  0  0  1  0  0  0  0  0  0
  -28.8080  -15.2820   19.1740 C   0  0  0  0  0  1  0  0  0  0  0  0
  -29.8790  -15.2540   20.1080 O   0  0  0  0  0  0  0  0  0  0  0  0
  -31.1240  -15.2860   19.4280 C   0  0  0  0  0  2  0  0  0  0  0  0
  -32.2840  -15.6930   20.3490 C   0  0  0  0  0  2  0  0  0  0  0  0
  -33.7080  -13.7130   21.1300 C   0  0  0  0  0  0  0  0  0  0  0  0
  -33.2070  -11.7610   22.5420 C   0  0  0  0  0  2  0  0  0  0  0  0
  -32.8610  -10.5110   21.7040 C   0  0  0  0  0  2  0  0  0  0  0  0
  -31.3690  -10.4860   21.3150 C   0  0  0  0  0  2  0  0  0  0  0  0
  -30.8730  -11.8440   20.7550 C   0  0  0  0  0  3  0  0  0  0  0  0
  -31.3130  -12.9810   21.6960 C   0  0  0  0  0  2  0  0  0  0  0  0
  -32.7820  -12.9650   21.8000 N   0  0  0  0  0  0  0  0  0  0  0  0
  -34.9110  -13.4620   21.1620 O   0  0  0  0  0  0  0  0  0  0  0  0
  -33.3210  -14.6720   20.2780 N   0  0  0  0  0  0  0  0  0  0  0  0
  -34.0920  -14.9550   19.6920 H   0  0  0  0  0  0  0  0  0  0  0  0
  -28.6340  -12.7160   19.8200 C   0  0  0  0  0  0  0  0  0  0  0  0
  -27.3550  -12.2360   19.9100 C   0  0  0  0  0  0  0  0  0  0  0  0
  -27.4340  -11.0540   20.7080 C   0  0  0  0  0  0  0  0  0  0  0  0
  -29.4230  -11.8450   20.5550 N   0  0  0  0  0  0  0  0  0  0  0  0
  -28.6790  -10.8650   21.1300 N   0  0  0  0  0  0  0  0  0  0  0  0
  -26.4090  -10.0560   21.0450 C   0  0  0  0  0  0  0  0  0  0  0  0
  -26.0280   -9.8150   22.3820 C   0  0  0  0  0  3  0  0  0  0  0  0
  -25.0320   -8.8620   22.6820 C   0  0  0  0  0  3  0  0  0  0  0  0
  -24.4020   -8.1420   21.6390 C   0  0  0  0  0  0  0  0  0  0  0  0
  -24.8010   -8.3700   20.3100 C   0  0  0  0  0  3  0  0  0  0  0  0
  -25.7960   -9.3160   20.0130 C   0  0  0  0  0  3  0  0  0  0  0  0
  -23.4390   -7.1830   21.8370 O   0  0  0  0  0  0  0  0  0  0  0  0
  -22.5580   -7.2520   22.8870 C   0  0  0  0  0  0  0  0  0  0  0  0
  -21.6190   -8.3020   23.0030 C   0  0  0  0  0  3  0  0  0  0  0  0
  -20.6860   -8.2960   24.0590 C   0  0  0  0  0  3  0  0  0  0  0  0
  -20.6830   -7.2420   24.9910 C   0  0  0  0  0  0  0  0  0  0  0  0
  -21.6110   -6.1930   24.8730 C   0  0  0  0  0  3  0  0  0  0  0  0
  -22.5440   -6.1970   23.8220 C   0  0  0  0  0  0  0  0  0  0  0  0
  -23.4250   -5.1740   23.7020 F   0  0  0  0  0  0  0  0  0  0  0  0
  -19.7780   -7.2340   25.9990 F   0  0  0  0  0  0  0  0  0  0  0  0
  -26.1420  -12.7820   19.2130 C   0  0  0  0  0  0  0  0  0  0  0  0
  -24.9610  -12.5930   19.7920 N   0  0  0  0  0  0  0  0  0  0  0  0
  -26.2410  -13.4230   18.1670 O   0  0  0  0  0  0  0  0  0  0  0  0
  -24.8750  -12.0890   20.6610 H   0  0  0  0  0  0  0  0  0  0  0  0
  -24.1280  -12.9720   19.3640 H   0  0  0  0  0  0  0  0  0  0  0  0
  -29.1890  -13.8030   19.1530 N   0  0  0  0  0  0  0  0  0  0  0  0
  -28.6280  -14.3470   18.5080 H   0  0  0  0  0  0  0  0  0  0  0  0
  -30.1830  -13.9670   19.0560 H   0  0  0  0  0  0  0  0  0  0  0  0
  1 51  1  0
  1  3  1  0
  2  3  1  0
  2  6  1  0
  3  5  1  0
  4  2  2  0
  7  6  1  0
  7  8  1  0
  9  8  1  0
 10  9  1  0
 11 22  2  0
 12 10  1  0
 12 17  1  0
 13 21  1  0
 13 23  1  0
 14 16  1  0
 15 21  1  0
 16 17  2  0
 16 15  1  0
 18 12  2  0
 19 18  1  0
 19 14  2  0
 20 14  1  0
 20 13  1  0
 21 11  1  0
 23 25  2  0
 24 23  1  0
 26 24  1  0
 27 36  2  0
 27 32  1  0
 28 24  1  0
 28 32  1  0
 29 28  1  0
 30 31  1  0
 30 29  1  0
 31 27  1  0
 32 33  2  0
 33 34  1  0
 35 34  2  0
 36 35  1  0
 37 11  1  0
 37 42  1  0
 37 38  1  0
 38 41  1  1
 38 39  1  0
 40 38  1  0
 42 45  1  0
 43 47  1  0
 43 42  1  0
 44 43  2  0
 47 46  1  0
 49 47  1  0
 49 50  1  0
 49 48  1  0
 51 52  1  0
 52 53  1  0
 54 53  1  0
 55 56  1  0
 55 54  1  0
 57 58  1  0
 59 58  1  0
 59 60  1  0
 61 68  2  0
 61 67  1  0
 63 62  1  0
 64 63  1  0
 65 74  1  0
 65 64  1  0
 65 66  1  0
 66 67  1  0
 67 62  1  0
 69 60  1  0
 69 61  1  0
 70 69  1  0
 71 72  2  0
 71 74  1  0
 72 73  1  0
 73 76  1  0
 73 75  2  0
 74 75  1  0
 76 77  1  0
 77 78  2  0
 79 82  1  0
 79 78  1  0
 80 79  2  0
 81 80  1  0
 81 76  2  0
 82 83  1  0
 83 84  2  0
 83 88  1  0
 84 85  1  0
 85 86  2  0
 86 90  1  0
 87 86  1  0
 88 87  2  0
 89 88  1  0
 91 92  1  0
 91 72  1  0
 92 94  1  0
 93 91  2  0
 95 92  1  0
 96 71  1  0
 97 96  1  0
 98 96  1  0
M  ISO  4   9 101  10 101  61 100  69 100
M  END
>  <TORSDO>  (82) 
F 31

>  <SCORE>  (82) 
5.378

>  <name>  (82) 
83

>  <ligand_id>  (82) 
83

>  <original_smiles>  (82) 
[H]c1c([H])c([H])c2c(c1[H])C([H])([H])C([H])([H])C([H])([H])C2([H])N([H])C(=O)C1([H])N(C(=O)C([H])(N([H])C(=O)C([H])(N([H])C([H])([H])[H])C([H])([H])[H])C(C([H])([H])[H])(C([H])([H])[H])C([H])([H])[H])C([H])([H])c2c([H])c(OC([H])([H])C([H])([H])OC([H])([H])C(=O)N([H])C([H])([H])C([H])([H])OC([H])([H])C([H])([H])OC([H])([H])C([H])([H])OC([H])([H])C([H])([H])N([H])C(=O)N3C([H])([H])C([H])([H])C([H])([H])C([H])(n4nc(-c5c([H])c([H])c(Oc6c([H])c([H])c(F)c([H])c6F)c([H])c5[H])c(C(=O)N([H])[H])c4N([H])[H])C3([H])[H])c([H])c([H])c2C1([H])[H]

>  <smiles>  (82) 
[H]c1c([H])c([H])c2c(c1[H])C([H])([H])C([H])([H])C([H])([H])C2([H])N([H])C(=O)C1([H])N(C(=O)C([H])(N([H])C(=O)C([H])(N([H])C([H])([H])[H])C([H])([H])[H])C(C([H])([H])[H])(C([H])([H])[H])C([H])([H])[H])C([H])([H])c2c([H])c(OC([H])([H])C([H])([H])OC([H])([H])C(=O)N([H])C([H])([H])C([H])([H])OC([H])([H])C([H])([H])OC([H])([H])C([H])([H])OC([H])([H])C([H])([H])N([H])C(=O)N3C([H])([H])C([H])([H])C([H])([H])C([H])(n4nc(-c5c([H])c([H])c(Oc6c([H])c([H])c(F)c([H])c6F)c([H])c5[H])c(C(=O)N([H])[H])c4N([H])[H])C3([H])[H])c([H])c([H])c2C1([H])[H]

$$$$
84:0:0
     RDKit          3D

 92 99  0  0  1  0  0  0  0  0999 V2000
  -27.8240  -22.5240   21.6380 C   0  0  0  0  0  2  0  0  0  0  0  0
  -28.0590  -24.7330   20.4820 C   0  0  0  0  0  0  0  0  0  0  0  0
  -27.7270  -23.4370   20.5000 N   0  0  0  0  0  0  0  0  0  0  0  0
  -28.5130  -25.3140   21.4720 O   0  0  0  0  0  0  0  0  0  0  0  0
  -27.3860  -23.0400   19.6340 H   0  0  0  0  0  0  0  0  0  0  0  0
  -27.8500  -25.4670   19.1410 C   0  0  0  0  0  2  0  0  0  0  0  0
  -27.8920  -26.8890   19.2900 O   0  0  0  0  0  0  0  0  0  0  0  0
  -24.8060  -31.7120   23.4210 C   0  0  0  0  0  0  0  0  0  0  0  0
  -26.7330  -27.6060   19.5000 C   0  0  0  0  0  0  0  0  0  0  0  0
  -23.3040  -30.6220   21.7830 C   0  0  0  0  0  3  0  0  0  0  0  0
  -24.4560  -29.2030   20.0010 C   0  0  0  0  0  0  0  0  0  0  0  0
  -25.8000  -30.8690   21.2990 C   0  0  0  0  0  2  0  0  0  0  0  0
  -25.7060  -29.5900   20.4960 C   0  0  0  0  0  0  0  0  0  0  0  0
  -26.8440  -28.7990   20.2420 C   0  0  0  0  0  3  0  0  0  0  0  0
  -25.4640  -27.2230   19.0040 C   0  0  0  0  0  3  0  0  0  0  0  0
  -24.3270  -28.0180   19.2550 C   0  0  0  0  0  3  0  0  0  0  0  0
  -23.2920  -30.1160   20.3120 C   0  0  0  0  0  2  0  0  0  0  0  0
  -24.6630  -31.0740   22.2250 N   0  0  0  0  0  0  0  0  0  0  0  0
  -23.8240  -31.9710   24.1310 O   0  0  0  0  0  0  0  0  0  0  0  0
  -22.6990  -29.5240   22.6850 C   0  0  0  0  0  0  0  0  0  0  0  0
  -21.3740  -29.3290   22.5850 N   0  0  0  0  0  0  0  0  0  0  0  0
  -23.4150  -28.8500   23.4290 O   0  0  0  0  0  0  0  0  0  0  0  0
  -20.8530  -29.9240   21.9540 H   0  0  0  0  0  0  0  0  0  0  0  0
  -18.0750  -27.9010   22.9180 C   0  0  0  0  0  0  0  0  0  0  0  0
  -20.5960  -28.3230   23.3040 C   0  0  0  0  0  3  0  0  0  0  0  0
  -20.8210  -26.9160   22.7040 C   0  0  0  0  0  2  0  0  0  0  0  0
  -19.7850  -26.5440   21.6390 C   0  0  0  0  0  2  0  0  0  0  0  0
  -18.3710  -26.5810   22.2250 C   0  0  0  0  0  2  0  0  0  0  0  0
  -19.1210  -28.7250   23.4110 C   0  0  0  0  0  0  0  0  0  0  0  0
  -18.7920  -29.9590   24.0130 C   0  0  0  0  0  3  0  0  0  0  0  0
  -17.4500  -30.3680   24.1330 C   0  0  0  0  0  3  0  0  0  0  0  0
  -16.4190  -29.5400   23.6580 C   0  0  0  0  0  3  0  0  0  0  0  0
  -16.7320  -28.3080   23.0550 C   0  0  0  0  0  3  0  0  0  0  0  0
  -26.2040  -32.1680   23.9460 C   0  0  0  0  0  3  0  0  0  0  0  0
  -26.7640  -31.2550   25.1050 C   0  0  1  0  0  0  0  0  0  0  0  0
  -25.7690  -31.0560   26.2720 C   0  0  0  0  0  1  0  0  0  0  0  0
  -27.1420  -29.8560   24.5620 C   0  0  0  0  0  1  0  0  0  0  0  0
  -28.0570  -31.8740   25.6870 C   0  0  0  0  0  1  0  0  0  0  0  0
  -26.0770  -33.5610   24.3920 N   0  0  0  0  0  0  0  0  0  0  0  0
  -26.5160  -34.6240   23.7060 C   0  0  0  0  0  0  0  0  0  0  0  0
  -27.1460  -34.5250   22.6500 O   0  0  0  0  0  0  0  0  0  0  0  0
  -25.5210  -33.7210   25.2200 H   0  0  0  0  0  0  0  0  0  0  0  0
  -25.0330  -36.6460   23.5220 C   0  0  0  0  0  1  0  0  0  0  0  0
  -26.2110  -36.0180   24.2840 C   0  0  0  0  0  3  0  0  0  0  0  0
  -28.4420  -36.5510   25.1600 C   0  0  0  0  0  1  0  0  0  0  0  0
  -27.3670  -36.9390   24.2500 N   0  0  0  0  0  0  0  0  0  0  0  0
  -27.0810  -37.8850   24.4840 H   0  0  0  0  0  0  0  0  0  0  0  0
  -29.2160  -21.8640   21.7260 C   0  0  0  0  0  2  0  0  0  0  0  0
  -29.0840  -20.4470   21.8100 O   0  0  0  0  0  0  0  0  0  0  0  0
  -30.3270  -19.7630   21.6580 C   0  0  0  0  0  2  0  0  0  0  0  0
  -30.2610  -18.3520   22.2770 C   0  0  0  0  0  2  0  0  0  0  0  0
  -30.7820  -17.3710   21.3830 O   0  0  0  0  0  0  0  0  0  0  0  0
  -30.6380  -16.0520   21.9010 C   0  0  0  0  0  2  0  0  0  0  0  0
  -31.7180  -15.1280   21.3170 C   0  0  0  0  0  2  0  0  0  0  0  0
  -31.8350  -13.7820   19.2780 C   0  0  0  0  0  0  0  0  0  0  0  0
  -31.2580  -11.4510   18.7100 C   0  0  0  0  0  2  0  0  0  0  0  0
  -30.2150  -11.3830   17.5780 C   0  0  0  0  0  2  0  0  0  0  0  0
  -28.7870  -11.4690   18.1470 C   0  0  0  0  0  2  0  0  0  0  0  0
  -28.6100  -12.6400   19.1470 C   0  0  0  0  0  3  0  0  0  0  0  0
  -29.7530  -12.6630   20.1850 C   0  0  0  0  0  2  0  0  0  0  0  0
  -31.0450  -12.6920   19.4740 N   0  0  0  0  0  0  0  0  0  0  0  0
  -32.7840  -13.8040   18.4930 O   0  0  0  0  0  0  0  0  0  0  0  0
  -31.4810  -14.9110   19.8940 N   0  0  0  0  0  0  0  0  0  0  0  0
  -31.7740  -15.7250   19.3710 H   0  0  0  0  0  0  0  0  0  0  0  0
  -26.4820  -13.6370   20.2070 C   0  0  0  0  0  0  0  0  0  0  0  0
  -25.3390  -13.0570   20.6870 C   0  0  0  0  0  0  0  0  0  0  0  0
  -25.5190  -11.6490   20.5300 C   0  0  0  0  0  0  0  0  0  0  0  0
  -27.2990  -12.5940   19.7950 N   0  0  0  0  0  0  0  0  0  0  0  0
  -26.7250  -11.3880   20.0430 N   0  0  0  0  0  0  0  0  0  0  0  0
  -24.5900  -10.5360   20.7600 C   0  0  0  0  0  0  0  0  0  0  0  0
  -24.9010   -9.4840   21.6500 C   0  0  0  0  0  3  0  0  0  0  0  0
  -23.9850   -8.4330   21.8660 C   0  0  0  0  0  3  0  0  0  0  0  0
  -22.7370   -8.4290   21.1950 C   0  0  0  0  0  0  0  0  0  0  0  0
  -22.4410   -9.4670   20.2930 C   0  0  0  0  0  3  0  0  0  0  0  0
  -23.3590  -10.5080   20.0740 C   0  0  0  0  0  3  0  0  0  0  0  0
  -21.7930   -7.4380   21.3230 O   0  0  0  0  0  0  0  0  0  0  0  0
  -21.5910   -6.7860   22.5120 C   0  0  0  0  0  0  0  0  0  0  0  0
  -21.3170   -7.4860   23.7070 C   0  0  0  0  0  3  0  0  0  0  0  0
  -21.0460   -6.7750   24.8930 C   0  0  0  0  0  3  0  0  0  0  0  0
  -21.0430   -5.3670   24.8860 C   0  0  0  0  0  0  0  0  0  0  0  0
  -21.3100   -4.6670   23.6950 C   0  0  0  0  0  3  0  0  0  0  0  0
  -21.5810   -5.3760   22.5120 C   0  0  0  0  0  0  0  0  0  0  0  0
  -21.8210   -4.6970   21.3630 F   0  0  0  0  0  0  0  0  0  0  0  0
  -20.7780   -4.6860   26.0240 F   0  0  0  0  0  0  0  0  0  0  0  0
  -24.1110  -13.7710   21.1750 C   0  0  0  0  0  0  0  0  0  0  0  0
  -23.4210  -13.2100   22.1620 N   0  0  0  0  0  0  0  0  0  0  0  0
  -23.7790  -14.8600   20.7090 O   0  0  0  0  0  0  0  0  0  0  0  0
  -23.6980  -12.3260   22.5600 H   0  0  0  0  0  0  0  0  0  0  0  0
  -22.6000  -13.6730   22.5250 H   0  0  0  0  0  0  0  0  0  0  0  0
  -26.8870  -14.9610   20.0730 N   0  0  0  0  0  0  0  0  0  0  0  0
  -26.2830  -15.7350   20.3230 H   0  0  0  0  0  0  0  0  0  0  0  0
  -27.7660  -15.2600   19.6710 H   0  0  0  0  0  0  0  0  0  0  0  0
  1 48  1  0
  2  3  1  0
  2  4  2  0
  3  1  1  0
  5  3  1  0
  6  7  1  0
  6  2  1  0
  7  9  1  0
  8 19  2  0
  9 14  1  0
 10 18  1  0
 10 20  1  0
 11 17  1  0
 11 13  1  0
 12 18  1  0
 13 12  1  0
 14 13  2  0
 15 16  1  0
 15  9  2  0
 16 11  2  0
 17 10  1  0
 18  8  1  0
 20 22  2  0
 21 20  1  0
 23 21  1  0
 24 33  2  0
 24 29  1  0
 25 21  1  0
 25 29  1  0
 26 25  1  0
 27 28  1  0
 27 26  1  0
 28 24  1  0
 29 30  2  0
 30 31  1  0
 32 31  2  0
 33 32  1  0
 34  8  1  0
 34 39  1  0
 34 35  1  0
 35 38  1  1
 35 36  1  0
 37 35  1  0
 39 42  1  0
 40 44  1  0
 40 39  1  0
 41 40  2  0
 44 43  1  0
 46 44  1  0
 46 47  1  0
 46 45  1  0
 48 49  1  0
 50 49  1  0
 50 51  1  0
 52 53  1  0
 52 51  1  0
 54 53  1  0
 55 61  1  0
 55 63  1  0
 56 61  1  0
 57 58  1  0
 57 56  1  0
 59 58  1  0
 59 68  1  0
 59 60  1  0
 61 60  1  0
 62 55  2  0
 63 54  1  0
 64 63  1  0
 65 66  2  0
 66 85  1  0
 67 66  1  0
 67 70  1  0
 68 69  1  0
 68 65  1  0
 69 67  2  0
 70 71  1  0
 71 72  2  0
 73 76  1  0
 73 72  1  0
 74 73  2  0
 75 74  1  0
 75 70  2  0
 76 77  1  0
 77 78  1  0
 78 79  2  0
 80 79  1  0
 80 84  1  0
 81 80  2  0
 82 77  2  0
 82 81  1  0
 83 82  1  0
 85 86  1  0
 86 89  1  0
 86 88  1  0
 87 85  2  0
 90 65  1  0
 90 91  1  0
 92 90  1  0
M  ISO  4   6 101   7 101  55 100  63 100
M  END
>  <TORSDO>  (83) 
F 25

>  <SCORE>  (83) 
-9.271

>  <name>  (83) 
84

>  <ligand_id>  (83) 
84

>  <original_smiles>  (83) 
[H]c1c([H])c([H])c2c(c1[H])C([H])([H])C([H])([H])C([H])([H])C2([H])N([H])C(=O)C1([H])N(C(=O)C([H])(N([H])C(=O)C([H])(N([H])C([H])([H])[H])C([H])([H])[H])C(C([H])([H])[H])(C([H])([H])[H])C([H])([H])[H])C([H])([H])c2c([H])c(OC([H])([H])C(=O)N([H])C([H])([H])C([H])([H])OC([H])([H])C([H])([H])OC([H])([H])C([H])([H])N([H])C(=O)N3C([H])([H])C([H])([H])C([H])([H])C([H])(n4nc(-c5c([H])c([H])c(Oc6c([H])c([H])c(F)c([H])c6F)c([H])c5[H])c(C(=O)N([H])[H])c4N([H])[H])C3([H])[H])c([H])c([H])c2C1([H])[H]

>  <smiles>  (83) 
[H]c1c([H])c([H])c2c(c1[H])C([H])([H])C([H])([H])C([H])([H])C2([H])N([H])C(=O)C1([H])N(C(=O)C([H])(N([H])C(=O)C([H])(N([H])C([H])([H])[H])C([H])([H])[H])C(C([H])([H])[H])(C([H])([H])[H])C([H])([H])[H])C([H])([H])c2c([H])c(OC([H])([H])C(=O)N([H])C([H])([H])C([H])([H])OC([H])([H])C([H])([H])OC([H])([H])C([H])([H])N([H])C(=O)N3C([H])([H])C([H])([H])C([H])([H])C([H])(n4nc(-c5c([H])c([H])c(Oc6c([H])c([H])c(F)c([H])c6F)c([H])c5[H])c(C(=O)N([H])[H])c4N([H])[H])C3([H])[H])c([H])c([H])c2C1([H])[H]

$$$$
85:0:0
     RDKit          3D

104106  0  0  1  0  0  0  0  0999 V2000
  -26.4470  -10.1810   21.8030 C   0  0  0  0  0  3  0  0  0  0  0  0
  -26.4800   -9.5100   20.2630 C   0  0  0  0  0  0  0  0  0  0  0  0
  -27.5310   -9.6770   19.3860 N   0  0  0  0  0  0  0  0  0  0  0  0
  -25.4990   -8.8800   19.8620 O   0  0  0  0  0  0  0  0  0  0  0  0
  -28.3340  -10.0750   19.8530 H   0  0  0  0  0  0  0  0  0  0  0  0
  -27.7520   -9.8150   17.8880 C   0  0  0  0  0  3  0  0  0  0  0  0
  -28.4090   -8.5230   17.3780 C   0  0  0  0  0  0  0  0  0  0  0  0
  -28.3780   -8.2920   16.0720 N   0  0  0  0  0  0  0  0  0  0  0  0
  -28.9620   -7.7370   18.1480 O   0  0  0  0  0  0  0  0  0  0  0  0
  -27.9460   -8.9520   15.4390 H   0  0  0  0  0  0  0  0  0  0  0  0
  -28.8050   -7.4590   15.6960 H   0  0  0  0  0  0  0  0  0  0  0  0
  -28.5810  -11.1200   17.2780 C   0  0  0  0  0  2  0  0  0  0  0  0
  -29.9440  -11.7890   17.8950 C   0  0  0  0  0  2  0  0  0  0  0  0
  -30.3290  -13.3620   18.3580 C   0  0  0  0  0  2  0  0  0  0  0  0
  -30.5300  -14.2860   21.0300 C   0  0  0  0  0  0  0  0  0  0  0  0
  -30.2000  -12.1610   21.9380 C   0  0  0  0  0  2  0  0  0  0  0  0
  -29.6370  -11.5810   20.6810 C   0  0  0  0  0  2  0  0  0  0  0  0
  -28.2510  -12.2390   20.3400 C   0  0  0  0  0  2  0  0  0  0  0  0
  -27.7490  -13.5640   20.8090 C   0  0  0  0  0  3  0  0  0  0  0  0
  -28.3750  -13.7450   22.1830 C   0  0  0  0  0  2  0  0  0  0  0  0
  -29.8070  -13.5460   21.9070 N   0  0  0  0  0  0  0  0  0  0  0  0
  -31.4700  -14.9560   21.4370 O   0  0  0  0  0  0  0  0  0  0  0  0
  -30.2070  -14.2290   19.6600 N   0  0  0  0  0  0  0  0  0  0  0  0
  -30.3790  -15.1720   19.3410 H   0  0  0  0  0  0  0  0  0  0  0  0
  -25.0820  -13.9970   21.9400 C   0  0  0  0  0  3  0  0  0  0  0  0
  -23.6810  -13.2530   21.4770 C   0  0  0  0  0  3  0  0  0  0  0  0
  -23.8400  -12.2310   20.2430 C   0  0  0  0  0  3  0  0  0  0  0  0
  -26.3640  -13.5210   20.7640 N   0  0  2  0  0  4  0  0  0  0  0  0
  -25.3930  -12.4570   19.6170 N   0  0  0  0  0  2  0  0  0  0  0  0
  -23.2010  -10.7410   20.7380 C   0  0  0  0  0  0  0  0  0  0  0  0
  -23.3590   -9.9410   21.9930 C   0  0  0  0  0  3  0  0  0  0  0  0
  -22.8170   -8.6230   22.2570 C   0  0  0  0  0  3  0  0  0  0  0  0
  -21.8720   -8.0780   21.3610 C   0  0  0  0  0  0  0  0  0  0  0  0
  -21.6020   -8.8680   20.2250 C   0  0  0  0  0  3  0  0  0  0  0  0
  -22.2490  -10.1010   19.9260 C   0  0  0  0  0  3  0  0  0  0  0  0
  -21.2000   -6.8580   21.4360 O   0  0  0  0  0  0  0  0  0  0  0  0
  -21.0860   -6.0370   22.5460 C   0  0  0  0  0  0  0  0  0  0  0  0
  -20.6840   -6.5150   23.8120 C   0  0  0  0  0  3  0  0  0  0  0  0
  -20.5000   -5.6190   24.8900 C   0  0  0  0  0  3  0  0  0  0  0  0
  -20.7060   -4.2360   24.7090 C   0  0  0  0  0  0  0  0  0  0  0  0
  -21.0770   -3.7480   23.4450 C   0  0  0  0  0  3  0  0  0  0  0  0
  -21.2560   -4.6410   22.3690 C   0  0  0  0  0  0  0  0  0  0  0  0
  -21.5790   -4.1440   21.1510 F   0  0  0  0  0  0  0  0  0  0  0  0
  -20.5440   -3.3770   25.7440 F   0  0  0  0  0  0  0  0  0  0  0  0
  -22.2510  -13.6810   21.4460 C   0  0  0  0  0  0  0  0  0  0  0  0
  -21.3800  -12.8680   22.0290 N   0  0  0  0  0  0  0  0  0  0  0  0
  -21.8740  -14.5510   20.6620 O   0  0  0  0  0  0  0  0  0  0  0  0
  -21.6790  -12.0870   22.5950 H   0  0  0  0  0  0  0  0  0  0  0  0
  -20.3940  -13.0670   21.9660 H   0  0  0  0  0  0  0  0  0  0  0  0
  -25.3270  -15.2010   22.4570 N   0  0  0  0  0  0  0  0  0  0  0  0
  -24.7100  -15.6010   23.1530 H   0  0  0  0  0  0  0  0  0  0  0  0
  -26.2710  -15.5570   22.5430 H   0  0  0  0  0  0  0  0  0  0  0  0
  -26.2120  -11.7770   22.2410 N   0  0  0  0  0  0  0  0  0  0  0  0
  -25.3110  -11.8080   22.6880 H   0  0  0  0  0  0  0  0  0  0  0  0
  -26.8760  -11.8910   22.9880 H   0  0  0  0  0  0  0  0  0  0  0  0
  -26.4350  -14.4770   20.1450 C   0  0  0  0  0  1  0  0  0  0  0  0
  -26.8230  -16.6550   20.4700 C   0  0  0  0  0 15  0  0  0  0  0  0
  -27.6830  -18.4030   20.1880 O   0  0  0  0  0 15  0  0  0  0  0  0
  -27.9320  -20.3000   20.6570 C   0  0  0  0  0 15  0  0  0  0  0  0
  -28.2560  -22.4100   20.1410 C   0  0  0  0  0 15  0  0  0  0  0  0
  -28.7050  -24.2910   20.5360 O   0  0  0  0  0  1  0  0  0  0  0  0
  -25.2350  -31.1090   23.0440 C   0  0  0  0  0  0  0  0  0  0  0  0
  -28.1020  -25.8040   20.3830 C   0  0  0  0  0  0  0  0  0  0  0  0
  -24.3860  -29.6230   21.3060 C   0  0  0  0  0  3  0  0  0  0  0  0
  -26.0650  -28.0760   20.0380 C   0  0  0  0  0  0  0  0  0  0  0  0
  -26.9550  -29.8060   21.5580 C   0  0  0  0  0  2  0  0  0  0  0  0
  -27.1360  -28.3520   20.8880 C   0  0  0  0  0  0  0  0  0  0  0  0
  -28.1640  -27.2310   21.0330 C   0  0  0  0  0  3  0  0  0  0  0  0
  -27.1110  -25.9010   19.4040 C   0  0  0  0  0  3  0  0  0  0  0  0
  -26.1270  -26.9130   19.2680 C   0  0  0  0  0  3  0  0  0  0  0  0
  -24.8440  -29.0030   19.9600 C   0  0  0  0  0  2  0  0  0  0  0  0
  -25.5510  -30.2340   22.0180 N   0  0  0  0  0  0  0  0  0  0  0  0
  -24.0580  -31.3190   23.3930 O   0  0  0  0  0  0  0  0  0  0  0  0
  -23.6500  -28.5710   22.1820 C   0  0  0  0  0  0  0  0  0  0  0  0
  -22.3430  -28.3470   21.9460 N   0  0  0  0  0  0  0  0  0  0  0  0
  -24.2680  -27.9650   23.0610 O   0  0  0  0  0  0  0  0  0  0  0  0
  -21.8880  -28.8890   21.2250 H   0  0  0  0  0  0  0  0  0  0  0  0
  -18.9830  -26.9850   22.2360 C   0  0  0  0  0  0  0  0  0  0  0  0
  -21.5170  -27.3440   22.6330 C   0  0  0  0  0  3  0  0  0  0  0  0
  -21.7040  -25.9460   21.9970 C   0  0  0  0  0  2  0  0  0  0  0  0
  -20.6650  -25.6320   20.9160 C   0  0  0  0  0  2  0  0  0  0  0  0
  -19.2500  -25.6850   21.4970 C   0  0  0  0  0  2  0  0  0  0  0  0
  -20.0460  -27.7720   22.7560 C   0  0  0  0  0  0  0  0  0  0  0  0
  -19.7410  -28.9840   23.4120 C   0  0  0  0  0  3  0  0  0  0  0  0
  -18.4070  -29.4120   23.5520 C   0  0  0  0  0  3  0  0  0  0  0  0
  -17.3590  -28.6230   23.0460 C   0  0  0  0  0  3  0  0  0  0  0  0
  -17.6480  -27.4120   22.3920 C   0  0  0  0  0  3  0  0  0  0  0  0
  -26.3210  -31.9020   23.8280 C   0  0  0  0  0  3  0  0  0  0  0  0
  -25.7720  -33.2340   24.1670 N   0  0  0  0  0  0  0  0  0  0  0  0
  -26.0250  -34.3760   23.5130 C   0  0  0  0  0  0  0  0  0  0  0  0
  -26.7980  -34.4270   22.5530 O   0  0  0  0  0  0  0  0  0  0  0  0
  -25.0820  -33.2550   24.9030 H   0  0  0  0  0  0  0  0  0  0  0  0
  -24.0900  -35.9480   23.1140 C   0  0  0  0  0  1  0  0  0  0  0  0
  -25.3180  -35.6650   23.9950 C   0  0  0  0  0  3  0  0  0  0  0  0
  -27.2400  -36.7980   25.0280 C   0  0  0  0  0  1  0  0  0  0  0  0
  -26.1970  -36.8560   24.0070 N   0  0  0  0  0  0  0  0  0  0  0  0
  -25.6570  -37.7040   24.1540 H   0  0  0  0  0  0  0  0  0  0  0  0
  -26.7710  -31.1770   25.1580 C   0  0  1  0  0  0  0  0  0  0  0  0
  -25.5930  -30.7760   26.0780 C   0  0  0  0  0  1  0  0  0  0  0  0
  -27.5750  -29.8960   24.8540 C   0  0  0  0  0  1  0  0  0  0  0  0
  -27.7200  -32.1000   25.9600 C   0  0  0  0  0  1  0  0  0  0  0  0
  -27.3400   -9.4610   22.8300 C   0  0  0  0  0  2  0  0  0  0  0  0
  -26.9740   -9.8940   24.1350 O   0  0  0  0  0  0  0  0  0  0  0  0
  -27.4770   -9.3920   24.7720 H   0  0  0  0  0  0  0  0  0  0  0  0
  1 53  1  0
  1102  1  0
  2  1  1  0
  3  5  1  0
  3  2  1  0
  4  2  2  0
  6 12  1  0
  6  3  1  0
  7  6  1  0
  7  9  2  0
  8  7  1  0
 10  8  1  0
 11  8  1  0
 12 13  1  0
 13 14  1  0
 14 23  1  0
 15 22  2  0
 15 21  1  0
 17 16  1  0
 18 17  1  0
 19 18  1  0
 19 20  1  0
 21 16  1  0
 21 20  1  0
 23 15  1  0
 24 23  1  0
 25 50  1  0
 26 45  1  0
 26 25  1  0
 27 30  1  0
 27 26  1  0
 28 56  1  6
 28 19  1  0
 28 25  1  0
 29 27  1  0
 29 28  1  0
 30 31  1  0
 31 32  2  0
 33 36  1  0
 33 32  1  0
 34 33  2  0
 35 34  1  0
 35 30  2  0
 36 37  1  0
 37 38  1  0
 38 39  2  0
 40 39  1  0
 40 44  1  0
 41 40  2  0
 42 37  2  0
 42 41  1  0
 43 42  1  0
 45 46  1  0
 46 48  1  0
 47 45  2  0
 49 46  1  0
 50 52  1  0
 50 51  1  0
 53 54  1  0
 53 55  1  0
 62 73  2  0
 63 61  1  0
 63 68  1  0
 64 72  1  0
 64 74  1  0
 65 67  1  0
 66 72  1  0
 67 68  2  0
 67 66  1  0
 69 63  2  0
 70 69  1  0
 70 65  2  0
 71 65  1  0
 71 64  1  0
 72 62  1  0
 74 76  2  0
 75 74  1  0
 77 75  1  0
 78 87  2  0
 78 83  1  0
 79 75  1  0
 79 83  1  0
 80 79  1  0
 81 82  1  0
 81 80  1  0
 82 78  1  0
 83 84  2  0
 84 85  1  0
 86 85  2  0
 87 86  1  0
 88 62  1  0
 88 89  1  0
 88 98  1  0
 89 92  1  0
 90 94  1  0
 90 89  1  0
 91 90  2  0
 94 93  1  0
 94 96  1  0
 96 97  1  0
 96 95  1  0
 98101  1  1
 98 99  1  0
100 98  1  0
102103  1  0
103104  1  0
M  ISO  4  15 100  23 100  60 101  61 101
M  END
>  <TORSDO>  (84) 
F 30

>  <SCORE>  (84) 
-0.677

>  <name>  (84) 
85

>  <ligand_id>  (84) 
85

>  <original_smiles>  (84) 
[H]OC([H])([H])C([H])(C(=O)N([H])C([H])(C(=O)N([H])[H])C([H])([H])C([H])([H])C([H])([H])N([H])C(=O)N1C([H])([H])C([H])([H])C([H])([H])C([H])(n2nc(-c3c([H])c([H])c(Oc4c([H])c([H])c(F)c([H])c4F)c([H])c3[H])c(C(=O)N([H])[H])c2N([H])[H])C1([H])[H])[N+]([H])([H])C([H])([H])C([H])([H])OC([H])([H])C([H])([H])Oc1c([H])c([H])c2c(c1[H])C([H])([H])N(C(=O)C([H])(N([H])C(=O)C([H])(N([H])C([H])([H])[H])C([H])([H])[H])C(C([H])([H])[H])(C([H])([H])[H])C([H])([H])[H])C([H])(C(=O)N([H])C1([H])c3c([H])c([H])c([H])c([H])c3C([H])([H])C([H])([H])C1([H])[H])C2([H])[H]

>  <smiles>  (84) 
[H]OC([H])([H])C([H])(C(=O)N([H])C([H])(C(=O)N([H])[H])C([H])([H])C([H])([H])C([H])([H])N([H])C(=O)N1C([H])([H])C([H])([H])C([H])([H])C([H])(n2nc(-c3c([H])c([H])c(Oc4c([H])c([H])c(F)c([H])c4F)c([H])c3[H])c(C(=O)N([H])[H])c2N([H])[H])C1([H])[H])[N+]([H])([H])C([H])([H])C([H])([H])OC([H])([H])C([H])([H])Oc1c([H])c([H])c2c(c1[H])C([H])([H])N(C(=O)C([H])(N([H])C(=O)C([H])(N([H])C([H])([H])[H])C([H])([H])[H])C(C([H])([H])[H])(C([H])([H])[H])C([H])([H])[H])C([H])(C(=O)N([H])C1([H])c3c([H])c([H])c([H])c([H])c3C([H])([H])C([H])([H])C1([H])[H])C2([H])[H]

$$$$
86:0:0
     RDKit          3D

 91 98  0  0  1  0  0  0  0  0999 V2000
  -28.6640  -20.4690   21.1310 C   0  0  0  0  0  2  0  0  0  0  0  0
  -29.2650  -18.0420   20.7650 C   0  0  0  0  0  0  0  0  0  0  0  0
  -29.5730  -19.3090   21.1110 N   0  0  0  0  0  0  0  0  0  0  0  0
  -28.1010  -17.6690   20.5910 O   0  0  0  0  0  0  0  0  0  0  0  0
  -30.5530  -19.5080   21.2540 H   0  0  0  0  0  0  0  0  0  0  0  0
  -30.4350  -17.0550   20.5150 C   0  0  0  0  0  3  0  0  0  0  0  0
  -30.6840  -14.5240   20.3940 C   0  0  0  0  0  0  0  0  0  0  0  0
  -30.3690  -12.3320   19.3220 C   0  0  0  0  0  2  0  0  0  0  0  0
  -29.4470  -12.5150   18.1020 C   0  0  0  0  0  2  0  0  0  0  0  0
  -27.9680  -12.3940   18.5190 C   0  0  0  0  0  2  0  0  0  0  0  0
  -27.6180  -13.2550   19.7630 C   0  0  0  0  0  3  0  0  0  0  0  0
  -28.6680  -13.0910   20.8850 C   0  0  0  0  0  2  0  0  0  0  0  0
  -29.9880  -13.3610   20.3020 N   0  0  0  0  0  0  0  0  0  0  0  0
  -31.8800  -14.5920   20.1050 O   0  0  0  0  0  0  0  0  0  0  0  0
  -29.9570  -15.6490   20.5700 N   0  0  0  0  0  0  0  0  0  0  0  0
  -28.9610  -15.5500   20.7030 H   0  0  0  0  0  0  0  0  0  0  0  0
  -25.2230  -13.8660   20.4620 C   0  0  0  0  0  0  0  0  0  0  0  0
  -24.1510  -13.0970   20.8270 C   0  0  0  0  0  0  0  0  0  0  0  0
  -24.6100  -11.7440   20.8100 C   0  0  0  0  0  0  0  0  0  0  0  0
  -26.2660  -12.9810   20.2420 N   0  0  0  0  0  0  0  0  0  0  0  0
  -25.9010  -11.7000   20.5090 N   0  0  0  0  0  0  0  0  0  0  0  0
  -23.8800  -10.4840   21.0020 C   0  0  0  0  0  0  0  0  0  0  0  0
  -24.3010   -9.5210   21.9460 C   0  0  0  0  0  3  0  0  0  0  0  0
  -23.5680   -8.3260   22.1240 C   0  0  0  0  0  3  0  0  0  0  0  0
  -22.4010   -8.0880   21.3590 C   0  0  0  0  0  0  0  0  0  0  0  0
  -22.0020   -9.0390   20.4040 C   0  0  0  0  0  3  0  0  0  0  0  0
  -22.7350  -10.2240   20.2250 C   0  0  0  0  0  3  0  0  0  0  0  0
  -21.6450   -6.9430   21.4470 O   0  0  0  0  0  0  0  0  0  0  0  0
  -21.5740   -6.2140   22.6050 C   0  0  0  0  0  0  0  0  0  0  0  0
  -21.1310   -6.7830   23.8190 C   0  0  0  0  0  3  0  0  0  0  0  0
  -21.0070   -5.9790   24.9710 C   0  0  0  0  0  3  0  0  0  0  0  0
  -21.3170   -4.6070   24.9100 C   0  0  0  0  0  0  0  0  0  0  0  0
  -21.7520   -4.0370   23.7010 C   0  0  0  0  0  3  0  0  0  0  0  0
  -21.8780   -4.8380   22.5510 C   0  0  0  0  0  0  0  0  0  0  0  0
  -22.2780   -4.2780   21.3840 F   0  0  0  0  0  0  0  0  0  0  0  0
  -21.1920   -3.8340   26.0130 F   0  0  0  0  0  0  0  0  0  0  0  0
  -22.7530  -13.5780   21.0890 C   0  0  0  0  0  0  0  0  0  0  0  0
  -22.0230  -12.8860   21.9590 N   0  0  0  0  0  0  0  0  0  0  0  0
  -22.3190  -14.5990   20.5620 O   0  0  0  0  0  0  0  0  0  0  0  0
  -22.3880  -12.0550   22.4010 H   0  0  0  0  0  0  0  0  0  0  0  0
  -21.0880  -13.1900   22.1850 H   0  0  0  0  0  0  0  0  0  0  0  0
  -25.3920  -15.2360   20.2800 N   0  0  0  0  0  0  0  0  0  0  0  0
  -24.6310  -15.8970   20.3960 H   0  0  0  0  0  0  0  0  0  0  0  0
  -26.2560  -15.6840   19.9950 H   0  0  0  0  0  0  0  0  0  0  0  0
  -31.8680  -18.7270   19.0910 C   0  0  0  0  0  1  0  0  0  0  0  0
  -31.0980  -17.3920   19.1380 C   0  0  0  0  0  2  0  0  0  0  0  0
  -29.4180  -21.8320   21.0570 C   0  0  0  0  0  2  0  0  0  0  0  0
  -28.5370  -22.9120   20.7210 O   0  0  0  0  0  0  0  0  0  0  0  0
  -29.1300  -24.2250   20.6800 C   0  0  0  0  0  2  0  0  0  0  0  0
  -28.1000  -25.2100   20.0710 C   0  0  0  0  0  2  0  0  0  0  0  0
  -28.3530  -26.6350   20.1910 O   0  0  0  0  0  0  0  0  0  0  0  0
  -24.6230  -31.8990   23.2470 C   0  0  0  0  0  0  0  0  0  0  0  0
  -27.2210  -27.4400   20.1310 C   0  0  0  0  0  0  0  0  0  0  0  0
  -23.4040  -30.5120   21.6040 C   0  0  0  0  0  3  0  0  0  0  0  0
  -24.8440  -28.9920   20.1550 C   0  0  0  0  0  0  0  0  0  0  0  0
  -25.9350  -30.8640   21.3930 C   0  0  0  0  0  2  0  0  0  0  0  0
  -26.0140  -29.4990   20.7360 C   0  0  0  0  0  0  0  0  0  0  0  0
  -27.2090  -28.7340   20.7160 C   0  0  0  0  0  3  0  0  0  0  0  0
  -26.0310  -26.9790   19.5160 C   0  0  0  0  0  3  0  0  0  0  0  0
  -24.8490  -27.7350   19.5380 C   0  0  0  0  0  3  0  0  0  0  0  0
  -23.6030  -29.8530   20.2180 C   0  0  0  0  0  2  0  0  0  0  0  0
  -24.6730  -31.1040   22.1400 N   0  0  0  0  0  0  0  0  0  0  0  0
  -23.5440  -32.1690   23.7950 O   0  0  0  0  0  0  0  0  0  0  0  0
  -22.7570  -29.4810   22.5590 C   0  0  0  0  0  0  0  0  0  0  0  0
  -21.4320  -29.3010   22.4390 N   0  0  0  0  0  0  0  0  0  0  0  0
  -23.4450  -28.8500   23.3650 O   0  0  0  0  0  0  0  0  0  0  0  0
  -20.9380  -29.8620   21.7600 H   0  0  0  0  0  0  0  0  0  0  0  0
  -18.0610  -28.1040   22.9490 C   0  0  0  0  0  0  0  0  0  0  0  0
  -20.6200  -28.3580   23.2080 C   0  0  0  0  0  3  0  0  0  0  0  0
  -20.7170  -26.9300   22.6230 C   0  0  0  0  0  2  0  0  0  0  0  0
  -19.6100  -26.6130   21.6130 C   0  0  0  0  0  2  0  0  0  0  0  0
  -18.2320  -26.7580   22.2650 C   0  0  0  0  0  2  0  0  0  0  0  0
  -19.1820  -28.8630   23.3780 C   0  0  0  0  0  0  0  0  0  0  0  0
  -18.9670  -30.1240   23.9750 C   0  0  0  0  0  3  0  0  0  0  0  0
  -17.6640  -30.6250   24.1470 C   0  0  0  0  0  3  0  0  0  0  0  0
  -16.5560  -29.8650   23.7340 C   0  0  0  0  0  3  0  0  0  0  0  0
  -16.7560  -28.6040   23.1410 C   0  0  0  0  0  3  0  0  0  0  0  0
  -25.9120  -32.5240   23.8640 C   0  0  0  0  0  3  0  0  0  0  0  0
  -25.6040  -33.9180   24.2070 N   0  0  0  0  0  0  0  0  0  0  0  0
  -25.9130  -34.9750   23.4460 C   0  0  0  0  0  0  0  0  0  0  0  0
  -26.5590  -34.8810   22.3980 O   0  0  0  0  0  0  0  0  0  0  0  0
  -25.0220  -34.0640   25.0180 H   0  0  0  0  0  0  0  0  0  0  0  0
  -24.1570  -36.7520   23.1540 C   0  0  0  0  0  1  0  0  0  0  0  0
  -25.4300  -36.3590   23.9210 C   0  0  0  0  0  3  0  0  0  0  0  0
  -27.5850  -37.2610   24.6740 C   0  0  0  0  0  1  0  0  0  0  0  0
  -26.4490  -37.4200   23.7710 N   0  0  0  0  0  0  0  0  0  0  0  0
  -26.0420  -38.3370   23.9340 H   0  0  0  0  0  0  0  0  0  0  0  0
  -26.4420  -31.7410   25.1250 C   0  0  1  0  0  0  0  0  0  0  0  0
  -25.3600  -31.4880   26.2020 C   0  0  0  0  0  1  0  0  0  0  0  0
  -27.0240  -30.3700   24.7100 C   0  0  0  0  0  1  0  0  0  0  0  0
  -27.5970  -32.5310   25.7850 C   0  0  0  0  0  1  0  0  0  0  0  0
  2  3  1  0
  3  1  1  0
  3  5  1  0
  4  2  2  0
  6 46  1  0
  6 15  1  0
  6  2  1  0
  7 15  1  0
  8 13  1  0
  9 10  1  0
  9  8  1  0
 11 10  1  0
 11 20  1  0
 11 12  1  0
 13  7  1  0
 13 12  1  0
 14  7  2  0
 15 16  1  0
 17 18  2  0
 18 37  1  0
 19 18  1  0
 19 22  1  0
 20 17  1  0
 20 21  1  0
 21 19  2  0
 22 23  1  0
 23 24  2  0
 25 28  1  0
 25 24  1  0
 26 25  2  0
 27 26  1  0
 27 22  2  0
 28 29  1  0
 29 30  1  0
 30 31  2  0
 32 31  1  0
 32 36  1  0
 33 32  2  0
 34 29  2  0
 34 33  1  0
 35 34  1  0
 37 38  1  0
 38 41  1  0
 38 40  1  0
 39 37  2  0
 42 43  1  0
 42 17  1  0
 44 42  1  0
 45 46  1  0
 47  1  1  0
 48 47  1  0
 49 48  1  0
 50 51  1  0
 50 49  1  0
 52 63  2  0
 53 51  1  0
 53 58  1  0
 54 62  1  0
 54 64  1  0
 55 61  1  0
 55 57  1  0
 56 62  1  0
 57 56  1  0
 58 57  2  0
 59 60  1  0
 59 53  2  0
 60 55  2  0
 61 54  1  0
 62 52  1  0
 64 66  2  0
 65 64  1  0
 67 65  1  0
 68 77  2  0
 68 73  1  0
 69 65  1  0
 69 73  1  0
 70 69  1  0
 71 72  1  0
 71 70  1  0
 72 68  1  0
 73 74  2  0
 74 75  1  0
 76 75  2  0
 77 76  1  0
 78 52  1  0
 78 79  1  0
 78 88  1  0
 79 82  1  0
 80 84  1  0
 80 79  1  0
 81 80  2  0
 84 83  1  0
 86 84  1  0
 86 87  1  0
 86 85  1  0
 88 91  1  1
 88 89  1  0
 90 88  1  0
M  ISO  4   7 100  15 100  50 101  51 101
M  END
>  <TORSDO>  (85) 
F 23

>  <SCORE>  (85) 
-12.815

>  <name>  (85) 
86

>  <ligand_id>  (85) 
86

>  <original_smiles>  (85) 
[H]c1c([H])c([H])c2c(c1[H])C([H])([H])C([H])([H])C([H])([H])C2([H])N([H])C(=O)C1([H])N(C(=O)C([H])(N([H])C(=O)C([H])(N([H])C([H])([H])[H])C([H])([H])[H])C(C([H])([H])[H])(C([H])([H])[H])C([H])([H])[H])C([H])([H])c2c([H])c(OC([H])([H])C([H])([H])OC([H])([H])C([H])([H])N([H])C(=O)C([H])(N([H])C(=O)N3C([H])([H])C([H])([H])C([H])([H])C([H])(n4nc(-c5c([H])c([H])c(Oc6c([H])c([H])c(F)c([H])c6F)c([H])c5[H])c(C(=O)N([H])[H])c4N([H])[H])C3([H])[H])C([H])([H])C([H])([H])[H])c([H])c([H])c2C1([H])[H]

>  <smiles>  (85) 
[H]c1c([H])c([H])c2c(c1[H])C([H])([H])C([H])([H])C([H])([H])C2([H])N([H])C(=O)C1([H])N(C(=O)C([H])(N([H])C(=O)C([H])(N([H])C([H])([H])[H])C([H])([H])[H])C(C([H])([H])[H])(C([H])([H])[H])C([H])([H])[H])C([H])([H])c2c([H])c(OC([H])([H])C([H])([H])OC([H])([H])C([H])([H])N([H])C(=O)C([H])(N([H])C(=O)N3C([H])([H])C([H])([H])C([H])([H])C([H])(n4nc(-c5c([H])c([H])c(Oc6c([H])c([H])c(F)c([H])c6F)c([H])c5[H])c(C(=O)N([H])[H])c4N([H])[H])C3([H])[H])C([H])([H])C([H])([H])[H])c([H])c([H])c2C1([H])[H]

$$$$
87:0:0
     RDKit          3D

110117  0  0  1  0  0  0  0  0999 V2000
  -29.4260  -20.7680   19.5260 C   0  0  0  0  0  3  0  0  0  0  0  0
  -29.9530  -19.6900   20.4410 N   0  0  0  0  0  4  0  0  0  0  0  0
  -30.9560  -19.6870   20.3490 H   0  0  0  0  0  0  0  0  0  0  0  0
  -29.7380  -20.0370   21.3740 H   0  0  0  0  0  0  0  0  0  0  0  0
  -29.4750  -18.2650   20.3360 C   0  0  0  0  0  2  0  0  0  0  0  0
  -30.4880  -17.2370   20.9500 C   0  0  0  0  0  2  0  0  0  0  0  0
  -30.8040  -14.7620   20.4440 C   0  0  0  0  0  0  0  0  0  0  0  0
  -30.5510  -12.5830   19.3050 C   0  0  0  0  0  2  0  0  0  0  0  0
  -29.6150  -12.7540   18.0900 C   0  0  0  0  0  2  0  0  0  0  0  0
  -28.1430  -12.5900   18.5140 C   0  0  0  0  0  2  0  0  0  0  0  0
  -27.7790  -13.4410   19.7590 C   0  0  0  0  0  3  0  0  0  0  0  0
  -28.8270  -13.2570   20.8820 C   0  0  0  0  0  2  0  0  0  0  0  0
  -30.1490  -13.5730   20.3210 N   0  0  0  0  0  0  0  0  0  0  0  0
  -31.9460  -14.9310   20.0110 O   0  0  0  0  0  0  0  0  0  0  0  0
  -30.0740  -15.8080   20.9050 N   0  0  0  0  0  0  0  0  0  0  0  0
  -29.1580  -15.5790   21.2680 H   0  0  0  0  0  0  0  0  0  0  0  0
  -25.3640  -14.0300   20.4240 C   0  0  0  0  0  0  0  0  0  0  0  0
  -24.2990  -13.2540   20.7860 C   0  0  0  0  0  0  0  0  0  0  0  0
  -24.7750  -11.9060   20.7890 C   0  0  0  0  0  0  0  0  0  0  0  0
  -26.4240  -13.1570   20.2250 N   0  0  0  0  0  0  0  0  0  0  0  0
  -26.0710  -11.8760   20.5050 N   0  0  0  0  0  0  0  0  0  0  0  0
  -24.0630  -10.6380   20.9870 C   0  0  0  0  0  0  0  0  0  0  0  0
  -24.4990   -9.6850   21.9340 C   0  0  0  0  0  3  0  0  0  0  0  0
  -23.7830   -8.4820   22.1210 C   0  0  0  0  0  3  0  0  0  0  0  0
  -22.6230   -8.2210   21.3560 C   0  0  0  0  0  0  0  0  0  0  0  0
  -22.2050   -9.1630   20.3990 C   0  0  0  0  0  3  0  0  0  0  0  0
  -22.9190  -10.3580   20.2120 C   0  0  0  0  0  3  0  0  0  0  0  0
  -21.8780   -7.0690   21.4510 O   0  0  0  0  0  0  0  0  0  0  0  0
  -21.7990   -6.3560   22.6200 C   0  0  0  0  0  0  0  0  0  0  0  0
  -21.3110   -6.9340   23.8120 C   0  0  0  0  0  3  0  0  0  0  0  0
  -21.1810   -6.1470   24.9740 C   0  0  0  0  0  3  0  0  0  0  0  0
  -21.5320   -4.7840   24.9440 C   0  0  0  0  0  0  0  0  0  0  0  0
  -22.0160   -4.2070   23.7570 C   0  0  0  0  0  3  0  0  0  0  0  0
  -22.1470   -4.9910   22.5980 C   0  0  0  0  0  0  0  0  0  0  0  0
  -22.5940   -4.4240   21.4500 F   0  0  0  0  0  0  0  0  0  0  0  0
  -21.4000   -4.0260   26.0590 F   0  0  0  0  0  0  0  0  0  0  0  0
  -22.8920  -13.7210   21.0230 C   0  0  0  0  0  0  0  0  0  0  0  0
  -22.1550  -13.0310   21.8870 N   0  0  0  0  0  0  0  0  0  0  0  0
  -22.4540  -14.7320   20.4770 O   0  0  0  0  0  0  0  0  0  0  0  0
  -22.5180  -12.2100   22.3450 H   0  0  0  0  0  0  0  0  0  0  0  0
  -21.2090  -13.3240   22.0830 H   0  0  0  0  0  0  0  0  0  0  0  0
  -25.5160  -15.3990   20.2250 N   0  0  0  0  0  0  0  0  0  0  0  0
  -24.7430  -16.0410   20.3480 H   0  0  0  0  0  0  0  0  0  0  0  0
  -26.3610  -15.8450   19.8980 H   0  0  0  0  0  0  0  0  0  0  0  0
  -28.5660  -21.9050   20.2130 C   0  0  0  0  0  3  0  0  0  0  0  0
  -29.2210  -23.2440   20.2200 N   0  0  0  0  0  0  0  0  0  0  0  0
  -29.6220  -23.3510   21.1540 H   0  0  0  0  0  0  0  0  0  0  0  0
  -28.3180  -24.4070   19.9430 C   0  0  0  0  0  2  0  0  0  0  0  0
  -28.8000  -25.7690   20.5570 C   0  0  0  0  0  2  0  0  0  0  0  0
  -28.6140  -26.9680   19.7660 O   0  0  0  0  0  0  0  0  0  0  0  0
  -24.6110  -31.8600   23.1510 C   0  0  0  0  0  0  0  0  0  0  0  0
  -27.4130  -27.6480   19.8690 C   0  0  0  0  0  0  0  0  0  0  0  0
  -23.4520  -30.4770   21.4620 C   0  0  0  0  0  3  0  0  0  0  0  0
  -24.9570  -29.0660   19.9570 C   0  0  0  0  0  0  0  0  0  0  0  0
  -25.9560  -30.9560   21.2500 C   0  0  0  0  0  2  0  0  0  0  0  0
  -26.0990  -29.6120   20.5570 C   0  0  0  0  0  0  0  0  0  0  0  0
  -27.3310  -28.9120   20.5070 C   0  0  0  0  0  3  0  0  0  0  0  0
  -26.2540  -27.1200   19.2640 C   0  0  0  0  0  3  0  0  0  0  0  0
  -25.0300  -27.8190   19.3070 C   0  0  0  0  0  3  0  0  0  0  0  0
  -23.6760  -29.8680   20.0510 C   0  0  0  0  0  2  0  0  0  0  0  0
  -24.6930  -31.1120   22.0130 N   0  0  0  0  0  0  0  0  0  0  0  0
  -23.5240  -32.0580   23.7140 O   0  0  0  0  0  0  0  0  0  0  0  0
  -22.8560  -29.3870   22.3820 C   0  0  0  0  0  0  0  0  0  0  0  0
  -21.5450  -29.1320   22.2400 N   0  0  0  0  0  0  0  0  0  0  0  0
  -23.5710  -28.7750   23.1800 O   0  0  0  0  0  0  0  0  0  0  0  0
  -21.0300  -29.6810   21.5660 H   0  0  0  0  0  0  0  0  0  0  0  0
  -18.2430  -27.7260   22.6710 C   0  0  0  0  0  0  0  0  0  0  0  0
  -20.7810  -28.1180   22.9660 C   0  0  0  0  0  3  0  0  0  0  0  0
  -20.9670  -26.7200   22.3300 C   0  0  0  0  0  2  0  0  0  0  0  0
  -19.8860  -26.3770   21.3010 C   0  0  0  0  0  2  0  0  0  0  0  0
  -18.4960  -26.4170   21.9440 C   0  0  0  0  0  2  0  0  0  0  0  0
  -19.3150  -28.5320   23.1370 C   0  0  0  0  0  0  0  0  0  0  0  0
  -19.0220  -29.7560   23.7760 C   0  0  0  0  0  3  0  0  0  0  0  0
  -17.6900  -30.1760   23.9530 C   0  0  0  0  0  3  0  0  0  0  0  0
  -16.6330  -29.3660   23.5060 C   0  0  0  0  0  3  0  0  0  0  0  0
  -16.9090  -28.1420   22.8710 C   0  0  0  0  0  3  0  0  0  0  0  0
  -25.8730  -32.5200   23.7880 C   0  0  0  0  0  3  0  0  0  0  0  0
  -25.5150  -33.8980   24.1500 N   0  0  0  0  0  0  0  0  0  0  0  0
  -25.8160  -34.9790   23.4180 C   0  0  0  0  0  0  0  0  0  0  0  0
  -26.4940  -34.9240   22.3890 O   0  0  0  0  0  0  0  0  0  0  0  0
  -24.9040  -34.0090   24.9450 H   0  0  0  0  0  0  0  0  0  0  0  0
  -24.0350  -36.7260   23.0870 C   0  0  0  0  0  1  0  0  0  0  0  0
  -25.2760  -36.3390   23.9050 C   0  0  0  0  0  3  0  0  0  0  0  0
  -27.3640  -37.2700   24.7970 C   0  0  0  0  0  1  0  0  0  0  0  0
  -26.2760  -37.4260   23.8360 N   0  0  0  0  0  0  0  0  0  0  0  0
  -25.8380  -38.3280   24.0000 H   0  0  0  0  0  0  0  0  0  0  0  0
  -26.4160  -31.7370   25.0450 C   0  0  1  0  0  0  0  0  0  0  0  0
  -25.3360  -31.4380   26.1100 C   0  0  0  0  0  1  0  0  0  0  0  0
  -27.0360  -30.3870   24.6140 C   0  0  0  0  0  1  0  0  0  0  0  0
  -27.5470  -32.5490   25.7200 C   0  0  0  0  0  1  0  0  0  0  0  0
  -28.1200  -21.5780   21.6570 C   0  0  0  0  0  2  0  0  0  0  0  0
  -29.2610  -21.5740   22.5070 O   0  0  0  0  0  0  0  0  0  0  0  0
  -28.9530  -21.5720   23.4100 H   0  0  0  0  0  0  0  0  0  0  0  0
  -28.7830  -20.2550   18.2170 C   0  0  0  0  0  2  0  0  0  0  0  0
  -27.3670  -20.3500   18.3140 O   0  0  0  0  0  0  0  0  0  0  0  0
  -26.7240  -20.1680   17.0610 C   0  0  0  0  0  2  0  0  0  0  0  0
  -25.2450  -20.5350   17.2100 C   0  0  0  0  0  2  0  0  0  0  0  0
  -25.1190  -21.9500   17.2150 O   0  0  0  0  0  0  0  0  0  0  0  0
  -23.7760  -22.3760   17.0220 C   0  0  0  0  0  2  0  0  0  0  0  0
  -23.6480  -23.9010   17.2350 C   0  0  0  0  0  3  0  0  0  0  0  0
  -24.3310  -24.6610   16.0810 C   0  0  0  0  0  0  0  0  0  0  0  0
  -25.3360  -25.4770   16.3800 N   0  0  0  0  0  0  0  0  0  0  0  0
  -23.9380  -24.5450   14.9200 O   0  0  0  0  0  0  0  0  0  0  0  0
  -25.6330  -25.5890   17.3400 H   0  0  0  0  0  0  0  0  0  0  0  0
  -25.7920  -26.0120   15.6550 H   0  0  0  0  0  0  0  0  0  0  0  0
  -21.6780  -25.3260   17.7480 C   0  0  0  0  0  0  0  0  0  0  0  0
  -20.1770  -25.5060   17.5670 C   0  0  0  0  0  1  0  0  0  0  0  0
  -22.2270  -24.2320   17.2120 N   0  0  0  0  0  0  0  0  0  0  0  0
  -22.3270  -26.1690   18.3680 O   0  0  0  0  0  0  0  0  0  0  0  0
  -21.6230  -23.6010   16.7040 H   0  0  0  0  0  0  0  0  0  0  0  0
  1 94  1  0
  1 45  1  0
  1  2  1  0
  2  4  1  0
  3  2  1  0
  5  2  1  0
  5  6  1  0
  7 15  1  0
  8 13  1  0
  9 10  1  0
  9  8  1  0
 11 10  1  0
 11 20  1  0
 11 12  1  0
 13  7  1  0
 13 12  1  0
 14  7  2  0
 15  6  1  0
 15 16  1  0
 17 18  2  0
 18 19  1  0
 18 37  1  0
 19 22  1  0
 20 17  1  0
 20 21  1  0
 21 19  2  0
 22 23  1  0
 23 24  2  0
 25 28  1  0
 25 24  1  0
 26 25  2  0
 27 26  1  0
 27 22  2  0
 28 29  1  0
 29 30  1  0
 30 31  2  0
 32 31  1  0
 32 36  1  0
 33 32  2  0
 34 29  2  0
 34 33  1  0
 35 34  1  0
 37 38  1  0
 38 41  1  0
 38 40  1  0
 39 37  2  0
 42 43  1  0
 42 17  1  0
 44 42  1  0
 45 46  1  0
 45 91  1  0
 46 47  1  0
 48 46  1  0
 48 49  1  0
 50 52  1  0
 50 49  1  0
 51 62  2  0
 52 57  1  0
 53 61  1  0
 53 63  1  0
 54 60  1  0
 54 56  1  0
 55 61  1  0
 56 55  1  0
 57 56  2  0
 58 59  1  0
 58 52  2  0
 59 54  2  0
 60 53  1  0
 61 51  1  0
 63 65  2  0
 64 63  1  0
 66 64  1  0
 67 76  2  0
 67 72  1  0
 68 64  1  0
 68 72  1  0
 69 68  1  0
 70 71  1  0
 70 69  1  0
 71 67  1  0
 72 73  2  0
 73 74  1  0
 75 74  2  0
 76 75  1  0
 77 51  1  0
 77 78  1  0
 77 87  1  0
 78 81  1  0
 79 83  1  0
 79 78  1  0
 80 79  2  0
 83 82  1  0
 85 83  1  0
 85 86  1  0
 85 84  1  0
 87 90  1  1
 87 88  1  0
 89 87  1  0
 91 92  1  0
 92 93  1  0
 94 95  1  0
 96 97  1  0
 96 95  1  0
 97 98  1  0
 99 98  1  0
100 99  1  0
101102  1  0
101100  1  0
102104  1  0
103101  2  0
105102  1  0
106109  2  0
107106  1  0
108100  1  0
108106  1  0
110108  1  0
M  ISO  4   7 100  15 100  49 101  50 101
M  END
>  <TORSDO>  (86) 
F 34

>  <SCORE>  (86) 
-10.526

>  <name>  (86) 
87

>  <ligand_id>  (86) 
87

>  <original_smiles>  (86) 
[H]OC([H])([H])C([H])(N([H])C([H])([H])C([H])([H])Oc1c([H])c([H])c2c(c1[H])C([H])([H])N(C(=O)C([H])(N([H])C(=O)C([H])(N([H])C([H])([H])[H])C([H])([H])[H])C(C([H])([H])[H])(C([H])([H])[H])C([H])([H])[H])C([H])(C(=O)N([H])C1([H])c3c([H])c([H])c([H])c([H])c3C([H])([H])C([H])([H])C1([H])[H])C2([H])[H])C([H])(C([H])([H])OC([H])([H])C([H])([H])OC([H])([H])C([H])(C(=O)N([H])[H])N([H])C(=O)C([H])([H])[H])[N+]([H])([H])C([H])([H])C([H])([H])N([H])C(=O)N1C([H])([H])C([H])([H])C([H])([H])C([H])(n2nc(-c3c([H])c([H])c(Oc4c([H])c([H])c(F)c([H])c4F)c([H])c3[H])c(C(=O)N([H])[H])c2N([H])[H])C1([H])[H]

>  <smiles>  (86) 
[H]OC([H])([H])C([H])(N([H])C([H])([H])C([H])([H])Oc1c([H])c([H])c2c(c1[H])C([H])([H])N(C(=O)C([H])(N([H])C(=O)C([H])(N([H])C([H])([H])[H])C([H])([H])[H])C(C([H])([H])[H])(C([H])([H])[H])C([H])([H])[H])C([H])(C(=O)N([H])C1([H])c3c([H])c([H])c([H])c([H])c3C([H])([H])C([H])([H])C1([H])[H])C2([H])[H])C([H])(C([H])([H])OC([H])([H])C([H])([H])OC([H])([H])C([H])(C(=O)N([H])[H])N([H])C(=O)C([H])([H])[H])[N+]([H])([H])C([H])([H])C([H])([H])N([H])C(=O)N1C([H])([H])C([H])([H])C([H])([H])C([H])(n2nc(-c3c([H])c([H])c(Oc4c([H])c([H])c(F)c([H])c4F)c([H])c3[H])c(C(=O)N([H])[H])c2N([H])[H])C1([H])[H]

$$$$
88:0:0
     RDKit          3D

 95102  0  0  1  0  0  0  0  0999 V2000
  -26.0390  -22.6520   19.9020 C   0  0  0  0  0  0  0  0  0  0  0  0
  -26.7180  -22.1200   18.8810 N   0  0  0  0  0  0  0  0  0  0  0  0
  -24.8330  -22.4700   20.0740 O   0  0  0  0  0  0  0  0  0  0  0  0
  -27.7020  -22.3570   18.8410 H   0  0  0  0  0  0  0  0  0  0  0  0
  -26.2170  -21.1380   17.9240 C   0  0  0  0  0  2  0  0  0  0  0  0
  -26.2660  -19.7150   18.5090 C   0  0  0  0  0  2  0  0  0  0  0  0
  -27.5520  -19.4830   19.0730 O   0  0  0  0  0  0  0  0  0  0  0  0
  -27.5500  -18.4300   20.0280 C   0  0  0  0  0  2  0  0  0  0  0  0
  -28.8820  -18.4050   20.7870 C   0  0  0  0  0  2  0  0  0  0  0  0
  -29.8130  -17.5450   20.1380 O   0  0  0  0  0  0  0  0  0  0  0  0
  -31.0430  -17.4550   20.8480 C   0  0  0  0  0  2  0  0  0  0  0  0
  -31.9340  -16.3900   20.1980 C   0  0  0  0  0  2  0  0  0  0  0  0
  -31.7200  -13.9890   19.6190 C   0  0  0  0  0  0  0  0  0  0  0  0
  -31.1860  -11.6640   18.9950 C   0  0  0  0  0  2  0  0  0  0  0  0
  -30.2030  -11.6350   17.8110 C   0  0  0  0  0  2  0  0  0  0  0  0
  -28.7480  -11.7150   18.3100 C   0  0  0  0  0  2  0  0  0  0  0  0
  -28.5270  -12.8610   19.3330 C   0  0  0  0  0  3  0  0  0  0  0  0
  -29.6190  -12.8440   20.4250 C   0  0  0  0  0  2  0  0  0  0  0  0
  -30.9370  -12.8890   19.7650 N   0  0  0  0  0  0  0  0  0  0  0  0
  -32.7320  -14.0180   18.9130 O   0  0  0  0  0  0  0  0  0  0  0  0
  -31.3170  -15.0710   20.2880 N   0  0  0  0  0  0  0  0  0  0  0  0
  -30.4790  -14.9900   20.8440 H   0  0  0  0  0  0  0  0  0  0  0  0
  -26.3420  -13.8430   20.2770 C   0  0  0  0  0  0  0  0  0  0  0  0
  -25.1850  -13.2570   20.7140 C   0  0  0  0  0  0  0  0  0  0  0  0
  -25.3830  -11.8500   20.5790 C   0  0  0  0  0  0  0  0  0  0  0  0
  -27.1870  -12.8050   19.9180 N   0  0  0  0  0  0  0  0  0  0  0  0
  -26.6150  -11.5960   20.1520 N   0  0  0  0  0  0  0  0  0  0  0  0
  -24.4520  -10.7320   20.7770 C   0  0  0  0  0  0  0  0  0  0  0  0
  -24.7710   -9.6510   21.6280 C   0  0  0  0  0  3  0  0  0  0  0  0
  -23.8540   -8.5940   21.8170 C   0  0  0  0  0  3  0  0  0  0  0  0
  -22.6010   -8.6180   21.1600 C   0  0  0  0  0  0  0  0  0  0  0  0
  -22.2990   -9.6860   20.2970 C   0  0  0  0  0  3  0  0  0  0  0  0
  -23.2150  -10.7320   20.1040 C   0  0  0  0  0  3  0  0  0  0  0  0
  -21.6590   -7.6260   21.2640 O   0  0  0  0  0  0  0  0  0  0  0  0
  -21.5640   -6.8380   22.3840 C   0  0  0  0  0  0  0  0  0  0  0  0
  -21.3470   -7.3870   23.6670 C   0  0  0  0  0  3  0  0  0  0  0  0
  -21.1890   -6.5360   24.7800 C   0  0  0  0  0  3  0  0  0  0  0  0
  -21.2360   -5.1400   24.6090 C   0  0  0  0  0  0  0  0  0  0  0  0
  -21.4460   -4.5920   23.3320 C   0  0  0  0  0  3  0  0  0  0  0  0
  -21.6070   -5.4390   22.2220 C   0  0  0  0  0  0  0  0  0  0  0  0
  -21.7870   -4.9070   20.9900 F   0  0  0  0  0  0  0  0  0  0  0  0
  -21.0770   -4.3210   25.6740 F   0  0  0  0  0  0  0  0  0  0  0  0
  -23.9280  -13.9640   21.1350 C   0  0  0  0  0  0  0  0  0  0  0  0
  -23.1600  -13.3650   22.0390 N   0  0  0  0  0  0  0  0  0  0  0  0
  -23.6420  -15.0760   20.6970 O   0  0  0  0  0  0  0  0  0  0  0  0
  -23.4000  -12.4570   22.4090 H   0  0  0  0  0  0  0  0  0  0  0  0
  -22.3080  -13.8110   22.3470 H   0  0  0  0  0  0  0  0  0  0  0  0
  -26.7350  -15.1660   20.1350 N   0  0  0  0  0  0  0  0  0  0  0  0
  -26.0950  -15.9330   20.3100 H   0  0  0  0  0  0  0  0  0  0  0  0
  -27.6200  -15.4590   19.7380 H   0  0  0  0  0  0  0  0  0  0  0  0
  -26.8570  -23.4870   20.8940 C   0  0  0  0  0  2  0  0  0  0  0  0
  -28.1090  -23.8320   20.3030 O   0  0  0  0  0  0  0  0  0  0  0  0
  -29.0420  -24.4440   21.1930 C   0  0  0  0  0  2  0  0  0  0  0  0
  -28.6600  -25.8790   21.5930 C   0  0  0  0  0  2  0  0  0  0  0  0
  -28.5120  -26.6620   20.4140 O   0  0  0  0  0  0  0  0  0  0  0  0
  -24.6060  -31.8550   23.2970 C   0  0  0  0  0  0  0  0  0  0  0  0
  -27.3540  -27.3880   20.3910 C   0  0  0  0  0  0  0  0  0  0  0  0
  -23.4510  -30.4220   21.6400 C   0  0  0  0  0  3  0  0  0  0  0  0
  -24.9530  -28.8530   20.3020 C   0  0  0  0  0  0  0  0  0  0  0  0
  -25.9790  -30.7840   21.5180 C   0  0  0  0  0  2  0  0  0  0  0  0
  -26.0860  -29.3990   20.9220 C   0  0  0  0  0  0  0  0  0  0  0  0
  -27.2900  -28.6690   20.9740 C   0  0  0  0  0  3  0  0  0  0  0  0
  -26.2150  -26.8460   19.7620 C   0  0  0  0  0  3  0  0  0  0  0  0
  -25.0100  -27.5720   19.7230 C   0  0  0  0  0  3  0  0  0  0  0  0
  -23.7070  -29.7090   20.2840 C   0  0  0  0  0  2  0  0  0  0  0  0
  -24.6950  -31.0360   22.2110 N   0  0  0  0  0  0  0  0  0  0  0  0
  -23.5070  -32.1400   23.7930 O   0  0  0  0  0  0  0  0  0  0  0  0
  -22.7670  -29.4230   22.5980 C   0  0  0  0  0  0  0  0  0  0  0  0
  -21.4500  -29.2310   22.4170 N   0  0  0  0  0  0  0  0  0  0  0  0
  -23.4170  -28.8220   23.4550 O   0  0  0  0  0  0  0  0  0  0  0  0
  -20.9910  -29.7700   21.6970 H   0  0  0  0  0  0  0  0  0  0  0  0
  -18.0630  -28.0310   22.7750 C   0  0  0  0  0  0  0  0  0  0  0  0
  -20.6020  -28.3100   23.1700 C   0  0  0  0  0  3  0  0  0  0  0  0
  -20.7410  -26.8650   22.6370 C   0  0  0  0  0  2  0  0  0  0  0  0
  -19.6930  -26.5100   21.5780 C   0  0  0  0  0  2  0  0  0  0  0  0
  -18.2800  -26.6650   22.1480 C   0  0  0  0  0  2  0  0  0  0  0  0
  -19.1550  -28.8110   23.2390 C   0  0  0  0  0  0  0  0  0  0  0  0
  -18.9020  -30.0900   23.7800 C   0  0  0  0  0  3  0  0  0  0  0  0
  -17.5900  -30.5890   23.8650 C   0  0  0  0  0  3  0  0  0  0  0  0
  -16.5100  -29.8070   23.4180 C   0  0  0  0  0  3  0  0  0  0  0  0
  -16.7480  -28.5300   22.8790 C   0  0  0  0  0  3  0  0  0  0  0  0
  -25.8720  -32.4920   23.9520 C   0  0  0  0  0  3  0  0  0  0  0  0
  -26.3480  -31.7340   25.2520 C   0  0  1  0  0  0  0  0  0  0  0  0
  -25.2190  -31.4940   26.2780 C   0  0  0  0  0  1  0  0  0  0  0  0
  -26.9590  -30.3610   24.8840 C   0  0  0  0  0  1  0  0  0  0  0  0
  -27.4640  -32.5450   25.9520 C   0  0  0  0  0  1  0  0  0  0  0  0
  -25.5560  -33.8950   24.2510 N   0  0  0  0  0  0  0  0  0  0  0  0
  -25.9090  -34.9340   23.4810 C   0  0  0  0  0  0  0  0  0  0  0  0
  -26.6040  -34.8120   22.4680 O   0  0  0  0  0  0  0  0  0  0  0  0
  -24.9440  -34.0650   25.0350 H   0  0  0  0  0  0  0  0  0  0  0  0
  -24.1800  -36.7100   23.0580 C   0  0  0  0  0  1  0  0  0  0  0  0
  -25.4080  -36.3290   23.9000 C   0  0  0  0  0  3  0  0  0  0  0  0
  -27.5280  -37.2370   24.7460 C   0  0  0  0  0  1  0  0  0  0  0  0
  -26.4400  -37.3830   23.7820 N   0  0  0  0  0  0  0  0  0  0  0  0
  -26.0270  -38.3040   23.9050 H   0  0  0  0  0  0  0  0  0  0  0  0
  1  3  2  0
  1 51  1  0
  2  1  1  0
  4  2  1  0
  5  6  1  0
  5  2  1  0
  6  7  1  0
  7  8  1  0
  8  9  1  0
 10  9  1  0
 10 11  1  0
 12 21  1  0
 12 11  1  0
 13 19  1  0
 13 21  1  0
 14 19  1  0
 15 16  1  0
 15 14  1  0
 17 16  1  0
 17 26  1  0
 17 18  1  0
 19 18  1  0
 20 13  2  0
 21 22  1  0
 23 24  2  0
 24 43  1  0
 25 24  1  0
 25 28  1  0
 26 27  1  0
 26 23  1  0
 27 25  2  0
 28 29  1  0
 29 30  2  0
 31 34  1  0
 31 30  1  0
 32 31  2  0
 33 32  1  0
 33 28  2  0
 34 35  1  0
 35 36  1  0
 36 37  2  0
 38 37  1  0
 38 42  1  0
 39 38  2  0
 40 35  2  0
 40 39  1  0
 41 40  1  0
 43 44  1  0
 44 47  1  0
 44 46  1  0
 45 43  2  0
 48 23  1  0
 48 49  1  0
 50 48  1  0
 52 51  1  0
 52 53  1  0
 53 54  1  0
 55 54  1  0
 56 67  2  0
 57 55  1  0
 57 62  1  0
 58 66  1  0
 58 68  1  0
 59 61  1  0
 60 66  1  0
 61 62  2  0
 61 60  1  0
 63 57  2  0
 64 63  1  0
 64 59  2  0
 65 59  1  0
 65 58  1  0
 66 56  1  0
 68 70  2  0
 69 68  1  0
 71 69  1  0
 72 81  2  0
 72 77  1  0
 73 69  1  0
 73 77  1  0
 74 73  1  0
 75 76  1  0
 75 74  1  0
 76 72  1  0
 77 78  2  0
 78 79  1  0
 80 79  2  0
 81 80  1  0
 82 56  1  0
 82 87  1  0
 82 83  1  0
 83 86  1  1
 83 84  1  0
 85 83  1  0
 87 90  1  0
 88 92  1  0
 88 87  1  0
 89 88  2  0
 92 91  1  0
 94 92  1  0
 94 95  1  0
 94 93  1  0
M  ISO  4  13 100  21 100  54 101  55 101
M  END
>  <TORSDO>  (87) 
F 28

>  <SCORE>  (87) 
-10.447

>  <name>  (87) 
88

>  <ligand_id>  (87) 
88

>  <original_smiles>  (87) 
[H]c1c([H])c([H])c2c(c1[H])C([H])([H])C([H])([H])C([H])([H])C2([H])N([H])C(=O)C1([H])N(C(=O)C([H])(N([H])C(=O)C([H])(N([H])C([H])([H])[H])C([H])([H])[H])C(C([H])([H])[H])(C([H])([H])[H])C([H])([H])[H])C([H])([H])c2c([H])c(OC([H])([H])C([H])([H])OC([H])([H])C(=O)N([H])C([H])([H])C([H])([H])OC([H])([H])C([H])([H])OC([H])([H])C([H])([H])N([H])C(=O)N3C([H])([H])C([H])([H])C([H])([H])C([H])(n4nc(-c5c([H])c([H])c(Oc6c([H])c([H])c(F)c([H])c6F)c([H])c5[H])c(C(=O)N([H])[H])c4N([H])[H])C3([H])[H])c([H])c([H])c2C1([H])[H]

>  <smiles>  (87) 
[H]c1c([H])c([H])c2c(c1[H])C([H])([H])C([H])([H])C([H])([H])C2([H])N([H])C(=O)C1([H])N(C(=O)C([H])(N([H])C(=O)C([H])(N([H])C([H])([H])[H])C([H])([H])[H])C(C([H])([H])[H])(C([H])([H])[H])C([H])([H])[H])C([H])([H])c2c([H])c(OC([H])([H])C([H])([H])OC([H])([H])C(=O)N([H])C([H])([H])C([H])([H])OC([H])([H])C([H])([H])OC([H])([H])C([H])([H])N([H])C(=O)N3C([H])([H])C([H])([H])C([H])([H])C([H])(n4nc(-c5c([H])c([H])c(Oc6c([H])c([H])c(F)c([H])c6F)c([H])c5[H])c(C(=O)N([H])[H])c4N([H])[H])C3([H])[H])c([H])c([H])c2C1([H])[H]

$$$$
89:0:0
     RDKit          3D

 94101  0  0  1  0  0  0  0  0999 V2000
  -30.6840  -19.8480   20.3600 C   0  0  0  0  0  0  0  0  0  0  0  0
  -29.2720  -18.3870   21.8190 C   0  0  0  0  0  1  0  0  0  0  0  0
  -30.1490  -18.6250   20.6570 N   0  0  0  0  0  0  0  0  0  0  0  0
  -31.5850  -19.9670   19.5250 O   0  0  0  0  0  0  0  0  0  0  0  0
  -30.0470  -20.9990   21.0070 C   0  0  0  0  0  3  0  0  0  0  0  0
  -30.5160  -22.2530   20.8400 C   0  0  0  0  0  3  0  0  0  0  0  0
  -29.9130  -23.4910   21.4920 C   0  0  0  0  0  2  0  0  0  0  0  0
  -29.4880  -24.5720   20.4770 C   0  0  0  0  0  2  0  0  0  0  0  0
  -29.0550  -25.8950   21.1360 C   0  0  0  0  0  2  0  0  0  0  0  0
  -28.9100  -26.8810   20.1170 O   0  0  0  0  0  0  0  0  0  0  0  0
  -24.7490  -31.6900   23.3160 C   0  0  0  0  0  0  0  0  0  0  0  0
  -27.7160  -27.5510   20.1430 C   0  0  0  0  0  0  0  0  0  0  0  0
  -23.6730  -30.3200   21.5530 C   0  0  0  0  0  3  0  0  0  0  0  0
  -25.2550  -28.9230   20.1200 C   0  0  0  0  0  0  0  0  0  0  0  0
  -26.1810  -30.8040   21.4850 C   0  0  0  0  0  2  0  0  0  0  0  0
  -26.3550  -29.4730   20.7890 C   0  0  0  0  0  0  0  0  0  0  0  0
  -27.5900  -28.7900   20.8070 C   0  0  0  0  0  3  0  0  0  0  0  0
  -26.6060  -27.0040   19.4700 C   0  0  0  0  0  3  0  0  0  0  0  0
  -25.3740  -27.6840   19.4610 C   0  0  0  0  0  3  0  0  0  0  0  0
  -23.9690  -29.7160   20.1520 C   0  0  0  0  0  2  0  0  0  0  0  0
  -24.8810  -30.9520   22.1760 N   0  0  0  0  0  0  0  0  0  0  0  0
  -23.6350  -31.8910   23.8220 O   0  0  0  0  0  0  0  0  0  0  0  0
  -23.0270  -29.2280   22.4340 C   0  0  0  0  0  0  0  0  0  0  0  0
  -21.7210  -28.9940   22.2340 N   0  0  0  0  0  0  0  0  0  0  0  0
  -23.7000  -28.5940   23.2510 O   0  0  0  0  0  0  0  0  0  0  0  0
  -21.2370  -29.5600   21.5490 H   0  0  0  0  0  0  0  0  0  0  0  0
  -18.3700  -27.6870   22.5650 C   0  0  0  0  0  0  0  0  0  0  0  0
  -20.9130  -27.9860   22.9190 C   0  0  0  0  0  3  0  0  0  0  0  0
  -21.0660  -26.6020   22.2470 C   0  0  0  0  0  2  0  0  0  0  0  0
  -19.9970  -26.3260   21.1830 C   0  0  0  0  0  2  0  0  0  0  0  0
  -18.5970  -26.3930   21.8020 C   0  0  0  0  0  2  0  0  0  0  0  0
  -19.4580  -28.4440   23.0740 C   0  0  0  0  0  0  0  0  0  0  0  0
  -19.1950  -29.6590   23.7430 C   0  0  0  0  0  3  0  0  0  0  0  0
  -17.8750  -30.1170   23.9110 C   0  0  0  0  0  3  0  0  0  0  0  0
  -16.8000  -29.3560   23.4210 C   0  0  0  0  0  3  0  0  0  0  0  0
  -17.0480  -28.1420   22.7540 C   0  0  0  0  0  3  0  0  0  0  0  0
  -25.9810  -32.3380   24.0220 C   0  0  0  0  0  3  0  0  0  0  0  0
  -25.6450  -33.7400   24.3010 N   0  0  0  0  0  0  0  0  0  0  0  0
  -26.0270  -34.7790   23.5460 C   0  0  0  0  0  0  0  0  0  0  0  0
  -26.7660  -34.6570   22.5650 O   0  0  0  0  0  0  0  0  0  0  0  0
  -24.9960  -33.9080   25.0560 H   0  0  0  0  0  0  0  0  0  0  0  0
  -24.3220  -36.5500   23.0260 C   0  0  0  0  0  1  0  0  0  0  0  0
  -25.5000  -36.1710   23.9380 C   0  0  0  0  0  3  0  0  0  0  0  0
  -27.5450  -37.1010   24.9270 C   0  0  0  0  0  1  0  0  0  0  0  0
  -26.5330  -37.2280   23.8830 N   0  0  0  0  0  0  0  0  0  0  0  0
  -26.1100  -38.1490   23.9600 H   0  0  0  0  0  0  0  0  0  0  0  0
  -26.4090  -31.5910   25.3430 C   0  0  1  0  0  0  0  0  0  0  0  0
  -25.2340  -31.3340   26.3150 C   0  0  0  0  0  1  0  0  0  0  0  0
  -27.0560  -30.2250   25.0120 C   0  0  0  0  0  1  0  0  0  0  0  0
  -27.4820  -32.4170   26.0900 C   0  0  0  0  0  1  0  0  0  0  0  0
  -30.3930  -17.4310   19.8020 C   0  0  0  0  0  3  0  0  0  0  0  0
  -30.0650  -17.7170   18.3180 C   0  0  0  0  0  0  0  0  0  0  0  0
  -29.0170  -18.4920   18.0460 N   0  0  0  0  0  0  0  0  0  0  0  0
  -30.7410  -17.2480   17.4050 O   0  0  0  0  0  0  0  0  0  0  0  0
  -28.4410  -18.8580   18.7890 H   0  0  0  0  0  0  0  0  0  0  0  0
  -28.7870  -18.7210   17.0890 H   0  0  0  0  0  0  0  0  0  0  0  0
  -31.7860  -16.7710   20.0340 C   0  0  0  0  0  2  0  0  0  0  0  0
  -31.6010  -15.3750   20.2900 O   0  0  0  0  0  0  0  0  0  0  0  0
  -32.1210  -14.4130   19.4910 C   0  0  0  0  0  0  0  0  0  0  0  0
  -31.5420  -12.1530   18.6060 C   0  0  0  0  0  2  0  0  0  0  0  0
  -30.4570  -12.2800   17.5170 C   0  0  0  0  0  2  0  0  0  0  0  0
  -29.0490  -12.2890   18.1460 C   0  0  0  0  0  2  0  0  0  0  0  0
  -28.9270  -13.3050   19.3130 C   0  0  0  0  0  3  0  0  0  0  0  0
  -30.0900  -13.1250   20.3140 C   0  0  0  0  0  2  0  0  0  0  0  0
  -31.3510  -13.2440   19.5650 N   0  0  0  0  0  0  0  0  0  0  0  0
  -33.1030  -14.5770   18.7630 O   0  0  0  0  0  0  0  0  0  0  0  0
  -26.8300  -14.2110   20.5060 C   0  0  0  0  0  0  0  0  0  0  0  0
  -25.6920  -13.5900   20.9440 C   0  0  0  0  0  0  0  0  0  0  0  0
  -25.8530  -12.2040   20.6340 C   0  0  0  0  0  0  0  0  0  0  0  0
  -27.6290  -13.2080   19.9750 N   0  0  0  0  0  0  0  0  0  0  0  0
  -27.0490  -11.9880   20.1010 N   0  0  0  0  0  0  0  0  0  0  0  0
  -24.9190  -11.0800   20.7590 C   0  0  0  0  0  0  0  0  0  0  0  0
  -25.2210   -9.9550   21.5580 C   0  0  0  0  0  3  0  0  0  0  0  0
  -24.2990   -8.8930   21.6740 C   0  0  0  0  0  3  0  0  0  0  0  0
  -23.0610   -8.9510   20.9920 C   0  0  0  0  0  0  0  0  0  0  0  0
  -22.7760  -10.0630   20.1790 C   0  0  0  0  0  3  0  0  0  0  0  0
  -23.6960  -11.1170   20.0610 C   0  0  0  0  0  3  0  0  0  0  0  0
  -22.1140   -7.9550   21.0270 O   0  0  0  0  0  0  0  0  0  0  0  0
  -21.8940   -7.2120   22.1590 C   0  0  0  0  0  0  0  0  0  0  0  0
  -21.4430   -7.8010   23.3600 C   0  0  0  0  0  3  0  0  0  0  0  0
  -21.1630   -6.9920   24.4800 C   0  0  0  0  0  3  0  0  0  0  0  0
  -21.3230   -5.5950   24.3970 C   0  0  0  0  0  0  0  0  0  0  0  0
  -21.7660   -5.0080   23.2010 C   0  0  0  0  0  3  0  0  0  0  0  0
  -22.0490   -5.8130   22.0840 C   0  0  0  0  0  0  0  0  0  0  0  0
  -22.4570   -5.2390   20.9270 F   0  0  0  0  0  0  0  0  0  0  0  0
  -21.0470   -4.8170   25.4710 F   0  0  0  0  0  0  0  0  0  0  0  0
  -24.4790  -14.2540   21.5290 C   0  0  0  0  0  0  0  0  0  0  0  0
  -23.7700  -13.5600   22.4140 N   0  0  0  0  0  0  0  0  0  0  0  0
  -24.1820  -15.4120   21.2410 O   0  0  0  0  0  0  0  0  0  0  0  0
  -24.0290  -12.6170   22.6610 H   0  0  0  0  0  0  0  0  0  0  0  0
  -22.9610  -13.9790   22.8490 H   0  0  0  0  0  0  0  0  0  0  0  0
  -27.2410  -15.5390   20.4900 N   0  0  0  0  0  0  0  0  0  0  0  0
  -26.6050  -16.2900   20.7300 H   0  0  0  0  0  0  0  0  0  0  0  0
  -28.0730  -15.8600   20.0080 H   0  0  0  0  0  0  0  0  0  0  0  0
  1  3  1  0
  1  5  1  0
  3  2  1  0
  4  1  2  0
  6  5  2  0
  6  7  1  0
  8  9  1  0
  8  7  1  0
 10 12  1  0
 10  9  1  0
 11 22  2  0
 12 17  1  0
 13 21  1  0
 13 23  1  0
 14 20  1  0
 14 16  1  0
 15 21  1  0
 16 17  2  0
 16 15  1  0
 18 12  2  0
 19 18  1  0
 19 14  2  0
 20 13  1  0
 21 11  1  0
 23 25  2  0
 24 23  1  0
 26 24  1  0
 27 36  2  0
 27 32  1  0
 28 24  1  0
 28 32  1  0
 29 28  1  0
 30 31  1  0
 30 29  1  0
 31 27  1  0
 32 33  2  0
 33 34  1  0
 35 34  2  0
 36 35  1  0
 37 11  1  0
 37 38  1  0
 37 47  1  0
 38 41  1  0
 39 43  1  0
 39 38  1  0
 40 39  2  0
 43 42  1  0
 45 43  1  0
 45 46  1  0
 45 44  1  0
 47 50  1  1
 47 48  1  0
 49 47  1  0
 51 57  1  0
 51  3  1  0
 52 51  1  0
 53 52  1  0
 53 55  1  0
 54 52  2  0
 56 53  1  0
 57 58  1  0
 59 65  1  0
 59 58  1  0
 60 65  1  0
 61 62  1  0
 61 60  1  0
 63 62  1  0
 63 70  1  0
 63 64  1  0
 65 64  1  0
 66 59  2  0
 67 68  2  0
 68 87  1  0
 69 72  1  0
 69 68  1  0
 70 71  1  0
 70 67  1  0
 71 69  2  0
 72 73  1  0
 73 74  2  0
 75 78  1  0
 75 74  1  0
 76 75  2  0
 77 76  1  0
 77 72  2  0
 78 79  1  0
 79 80  1  0
 80 81  2  0
 82 81  1  0
 82 86  1  0
 83 82  2  0
 84 79  2  0
 84 83  1  0
 85 84  1  0
 87 88  1  0
 88 90  1  0
 88 91  1  0
 89 87  2  0
 92 67  1  0
 92 93  1  0
 94 92  1  0
M  ISO  4   9 101  10 101  58 100  59 100
M  END
>  <TORSDO>  (88) 
F 24

>  <SCORE>  (88) 
-9.397

>  <name>  (88) 
89

>  <ligand_id>  (88) 
89

>  <original_smiles>  (88) 
[H]C(C(=O)N(C([H])([H])[H])C([H])(C(=O)N([H])[H])C([H])([H])OC(=O)N1C([H])([H])C([H])([H])C([H])([H])C([H])(n2nc(-c3c([H])c([H])c(Oc4c([H])c([H])c(F)c([H])c4F)c([H])c3[H])c(C(=O)N([H])[H])c2N([H])[H])C1([H])[H])=C([H])C([H])([H])C([H])([H])C([H])([H])Oc1c([H])c([H])c2c(c1[H])C([H])([H])N(C(=O)C([H])(N([H])C(=O)C([H])(N([H])C([H])([H])[H])C([H])([H])[H])C(C([H])([H])[H])(C([H])([H])[H])C([H])([H])[H])C([H])(C(=O)N([H])C1([H])c3c([H])c([H])c([H])c([H])c3C([H])([H])C([H])([H])C1([H])[H])C2([H])[H]

>  <smiles>  (88) 
[H]C(C(=O)N(C([H])([H])[H])C([H])(C(=O)N([H])[H])C([H])([H])OC(=O)N1C([H])([H])C([H])([H])C([H])([H])C([H])(n2nc(-c3c([H])c([H])c(Oc4c([H])c([H])c(F)c([H])c4F)c([H])c3[H])c(C(=O)N([H])[H])c2N([H])[H])C1([H])[H])=C([H])C([H])([H])C([H])([H])C([H])([H])Oc1c([H])c([H])c2c(c1[H])C([H])([H])N(C(=O)C([H])(N([H])C(=O)C([H])(N([H])C([H])([H])[H])C([H])([H])[H])C(C([H])([H])[H])(C([H])([H])[H])C([H])([H])[H])C([H])(C(=O)N([H])C1([H])c3c([H])c([H])c([H])c([H])c3C([H])([H])C([H])([H])C1([H])[H])C2([H])[H]

$$$$
90:0:0
     RDKit          3D

 95102  0  0  1  0  0  0  0  0999 V2000
  -28.4440  -22.1900   23.4210 C   0  0  0  0  0  2  0  0  0  0  0  0
  -29.7530  -22.8160   23.7050 N   0  0  0  0  0  4  0  0  0  0  0  0
  -30.4180  -22.5240   23.0030 H   0  0  0  0  0  0  0  0  0  0  0  0
  -30.0920  -22.4930   24.5990 H   0  0  0  0  0  0  0  0  0  0  0  0
  -29.7500  -24.2960   23.6810 C   0  0  0  0  0  2  0  0  0  0  0  0
  -30.8010  -24.8200   22.6990 C   0  0  0  0  0  2  0  0  0  0  0  0
  -30.6070  -24.1250   21.4700 O   0  0  0  0  0  0  0  0  0  0  0  0
  -31.8160  -23.9460   20.7440 C   0  0  0  0  0  2  0  0  0  0  0  0
  -31.4890  -23.8260   19.2480 C   0  0  0  0  0  2  0  0  0  0  0  0
  -30.3960  -22.7900   18.9190 C   0  0  0  0  0  2  0  0  0  0  0  0
  -31.5650  -21.0480   20.2870 C   0  0  0  0  0  0  0  0  0  0  0  0
  -32.4730  -19.1900   21.6340 C   0  0  0  0  0  2  0  0  0  0  0  0
  -32.6960  -17.9370   20.7700 C   0  0  0  0  0  2  0  0  0  0  0  0
  -31.4100  -17.0930   20.6920 C   0  0  0  0  0  2  0  0  0  0  0  0
  -30.1650  -17.9390   20.3140 C   0  0  0  0  0  3  0  0  0  0  0  0
  -30.0810  -19.2130   21.1870 C   0  0  0  0  0  2  0  0  0  0  0  0
  -31.3530  -19.9510   21.0610 N   0  0  0  0  0  0  0  0  0  0  0  0
  -32.6860  -21.5090   20.0580 O   0  0  0  0  0  0  0  0  0  0  0  0
  -30.4570  -21.6180   19.7960 N   0  0  0  0  0  0  0  0  0  0  0  0
  -29.5880  -21.1610   20.0270 H   0  0  0  0  0  0  0  0  0  0  0  0
  -27.6180  -17.5610   20.3170 C   0  0  0  0  0  0  0  0  0  0  0  0
  -26.8620  -16.4200   20.3780 C   0  0  0  0  0  0  0  0  0  0  0  0
  -27.7890  -15.3390   20.4840 C   0  0  0  0  0  0  0  0  0  0  0  0
  -28.9380  -17.1470   20.3940 N   0  0  0  0  0  0  0  0  0  0  0  0
  -29.0310  -15.8020   20.5480 N   0  0  0  0  0  0  0  0  0  0  0  0
  -27.5680  -13.8870   20.4740 C   0  0  0  0  0  0  0  0  0  0  0  0
  -27.4460  -13.1500   21.6730 C   0  0  0  0  0  3  0  0  0  0  0  0
  -27.2180  -11.7580   21.6370 C   0  0  0  0  0  3  0  0  0  0  0  0
  -27.1060  -11.0880   20.3950 C   0  0  0  0  0  0  0  0  0  0  0  0
  -27.2510  -11.8230   19.2060 C   0  0  0  0  0  3  0  0  0  0  0  0
  -27.4830  -13.2070   19.2420 C   0  0  0  0  0  3  0  0  0  0  0  0
  -26.9100   -9.7350   20.2630 O   0  0  0  0  0  0  0  0  0  0  0  0
  -25.7810   -9.1200   20.7450 C   0  0  0  0  0  0  0  0  0  0  0  0
  -24.4910   -9.4730   20.2930 C   0  0  0  0  0  3  0  0  0  0  0  0
  -23.3640   -8.7680   20.7620 C   0  0  0  0  0  3  0  0  0  0  0  0
  -23.5260   -7.7080   21.6730 C   0  0  0  0  0  0  0  0  0  0  0  0
  -24.8090   -7.3520   22.1210 C   0  0  0  0  0  3  0  0  0  0  0  0
  -25.9350   -8.0550   21.6540 C   0  0  0  0  0  0  0  0  0  0  0  0
  -27.1720   -7.6940   22.0720 F   0  0  0  0  0  0  0  0  0  0  0  0
  -22.4440   -7.0260   22.1180 F   0  0  0  0  0  0  0  0  0  0  0  0
  -25.3690  -16.3280   20.2510 C   0  0  0  0  0  0  0  0  0  0  0  0
  -24.7630  -15.3110   20.8550 N   0  0  0  0  0  0  0  0  0  0  0  0
  -24.7240  -17.1880   19.6520 O   0  0  0  0  0  0  0  0  0  0  0  0
  -25.2920  -14.6180   21.3620 H   0  0  0  0  0  0  0  0  0  0  0  0
  -23.7580  -15.2260   20.8080 H   0  0  0  0  0  0  0  0  0  0  0  0
  -27.2940  -18.9080   20.1860 N   0  0  0  0  0  0  0  0  0  0  0  0
  -26.3390  -19.2220   20.0490 H   0  0  0  0  0  0  0  0  0  0  0  0
  -27.9740  -19.6530   20.0910 H   0  0  0  0  0  0  0  0  0  0  0  0
  -28.2160  -22.0020   21.9100 C   0  0  0  0  0  2  0  0  0  0  0  0
  -26.8440  -22.5220   21.4480 C   0  0  0  0  0  2  0  0  0  0  0  0
  -26.7920  -22.8680   19.9560 C   0  0  0  0  0  2  0  0  0  0  0  0
  -28.0680  -23.3370   19.5400 O   0  0  0  0  0  0  0  0  0  0  0  0
  -28.0020  -24.2240   18.4290 C   0  0  0  0  0  2  0  0  0  0  0  0
  -28.2010  -25.6770   18.8920 C   0  0  0  0  0  2  0  0  0  0  0  0
  -27.5930  -26.5750   17.9740 O   0  0  0  0  0  0  0  0  0  0  0  0
  -24.1200  -30.2590   22.9680 C   0  0  0  0  0  0  0  0  0  0  0  0
  -26.4040  -27.1070   18.4000 C   0  0  0  0  0  0  0  0  0  0  0  0
  -22.7120  -29.2380   21.2050 C   0  0  0  0  0  3  0  0  0  0  0  0
  -23.9710  -28.2770   19.2050 C   0  0  0  0  0  0  0  0  0  0  0  0
  -25.1400  -29.8820   20.7280 C   0  0  0  0  0  2  0  0  0  0  0  0
  -25.1820  -28.7440   19.7310 C   0  0  0  0  0  0  0  0  0  0  0  0
  -26.4030  -28.1640   19.3300 C   0  0  0  0  0  3  0  0  0  0  0  0
  -25.1820  -26.6300   17.8820 C   0  0  0  0  0  3  0  0  0  0  0  0
  -23.9630  -27.2130   18.2840 C   0  0  0  0  0  3  0  0  0  0  0  0
  -22.7100  -28.9680   19.6750 C   0  0  0  0  0  2  0  0  0  0  0  0
  -24.0180  -29.7910   21.6900 N   0  0  0  0  0  0  0  0  0  0  0  0
  -23.1370  -30.2750   23.7220 O   0  0  0  0  0  0  0  0  0  0  0  0
  -22.2870  -27.9430   21.9320 C   0  0  0  0  0  0  0  0  0  0  0  0
  -21.0840  -27.4430   21.6050 N   0  0  0  0  0  0  0  0  0  0  0  0
  -23.0400  -27.3960   22.7410 O   0  0  0  0  0  0  0  0  0  0  0  0
  -20.5260  -27.9560   20.9360 H   0  0  0  0  0  0  0  0  0  0  0  0
  -18.3620  -25.1090   21.1700 C   0  0  0  0  0  0  0  0  0  0  0  0
  -20.4910  -26.2140   22.1320 C   0  0  0  0  0  3  0  0  0  0  0  0
  -21.2470  -24.9670   21.6180 C   0  0  0  0  0  2  0  0  0  0  0  0
  -20.6380  -24.3740   20.3440 C   0  0  0  0  0  2  0  0  0  0  0  0
  -19.1800  -23.9720   20.5820 C   0  0  0  0  0  2  0  0  0  0  0  0
  -18.9790  -26.1700   21.8840 C   0  0  0  0  0  0  0  0  0  0  0  0
  -18.1760  -27.2200   22.3780 C   0  0  0  0  0  3  0  0  0  0  0  0
  -16.7840  -27.2210   22.1730 C   0  0  0  0  0  3  0  0  0  0  0  0
  -16.1760  -26.1580   21.4830 C   0  0  0  0  0  3  0  0  0  0  0  0
  -16.9640  -25.1040   20.9850 C   0  0  0  0  0  3  0  0  0  0  0  0
  -25.4640  -30.8160   23.5310 C   0  0  0  0  0  3  0  0  0  0  0  0
  -26.0540  -29.9410   24.7040 C   0  0  1  0  0  0  0  0  0  0  0  0
  -25.0340  -29.6380   25.8280 C   0  0  0  0  0  1  0  0  0  0  0  0
  -26.5780  -28.5900   24.1630 C   0  0  0  0  0  1  0  0  0  0  0  0
  -27.2690  -30.6620   25.3350 C   0  0  0  0  0  1  0  0  0  0  0  0
  -25.2170  -32.1920   23.9820 N   0  0  0  0  0  0  0  0  0  0  0  0
  -25.6600  -33.2870   23.3530 C   0  0  0  0  0  0  0  0  0  0  0  0
  -26.3920  -33.2400   22.3600 O   0  0  0  0  0  0  0  0  0  0  0  0
  -24.5800  -32.3060   24.7560 H   0  0  0  0  0  0  0  0  0  0  0  0
  -24.1120  -35.2410   23.0310 C   0  0  0  0  0  1  0  0  0  0  0  0
  -25.2230  -34.6530   23.9140 C   0  0  0  0  0  3  0  0  0  0  0  0
  -27.3100  -35.2630   25.0550 C   0  0  0  0  0  1  0  0  0  0  0  0
  -26.3320  -35.6240   24.0320 N   0  0  0  0  0  0  0  0  0  0  0  0
  -25.9790  -36.5530   24.2440 H   0  0  0  0  0  0  0  0  0  0  0  0
  1  2  1  0
  2  4  1  0
  3  2  1  0
  5  2  1  0
  6  5  1  0
  7  6  1  0
  8  7  1  0
  9  8  1  0
 10  9  1  0
 10 19  1  0
 11 17  1  0
 13 12  1  0
 14 13  1  0
 15 24  1  0
 15 14  1  0
 15 16  1  0
 17 16  1  0
 17 12  1  0
 18 11  2  0
 19 20  1  0
 19 11  1  0
 21 22  2  0
 21 24  1  0
 22 23  1  0
 23 25  2  0
 24 25  1  0
 26 23  1  0
 26 27  1  0
 28 27  2  0
 29 28  1  0
 30 31  1  0
 30 29  2  0
 31 26  2  0
 32 29  1  0
 32 33  1  0
 33 38  1  0
 34 33  2  0
 34 35  1  0
 35 36  2  0
 36 40  1  0
 36 37  1  0
 38 39  1  0
 38 37  2  0
 41 22  1  0
 41 42  1  0
 42 44  1  0
 43 41  2  0
 45 42  1  0
 46 21  1  0
 47 46  1  0
 48 46  1  0
 49  1  1  0
 50 49  1  0
 51 50  1  0
 52 51  1  0
 53 54  1  0
 53 52  1  0
 55 57  1  0
 55 54  1  0
 56 67  2  0
 57 62  1  0
 58 66  1  0
 58 68  1  0
 59 65  1  0
 59 61  1  0
 60 66  1  0
 61 60  1  0
 62 61  2  0
 63 64  1  0
 63 57  2  0
 64 59  2  0
 65 58  1  0
 66 56  1  0
 68 70  2  0
 69 68  1  0
 71 69  1  0
 72 77  1  0
 73 69  1  0
 74 73  1  0
 75 76  1  0
 75 74  1  0
 76 72  1  0
 77 73  1  0
 77 78  2  0
 79 78  1  0
 80 79  2  0
 81 72  2  0
 81 80  1  0
 82 56  1  0
 82 87  1  0
 82 83  1  0
 83 86  1  1
 83 84  1  0
 85 83  1  0
 87 90  1  0
 88 92  1  0
 88 87  1  0
 89 88  2  0
 92 91  1  0
 92 94  1  0
 94 95  1  0
 94 93  1  0
M  ISO  4  11 100  19 100  54 101  55 101
M  END
>  <TORSDO>  (89) 
F 29

>  <SCORE>  (89) 
-2.898

>  <name>  (89) 
90

>  <ligand_id>  (89) 
90

>  <original_smiles>  (89) 
[H]c1c([H])c([H])c2c(c1[H])C([H])([H])C([H])([H])C([H])([H])C2([H])N([H])C(=O)C1([H])N(C(=O)C([H])(N([H])C(=O)C([H])(N([H])C([H])([H])[H])C([H])([H])[H])C(C([H])([H])[H])(C([H])([H])[H])C([H])([H])[H])C([H])([H])c2c([H])c(OC([H])([H])C([H])([H])OC([H])([H])C([H])([H])C([H])([H])C([H])([H])[N+]([H])([H])C([H])([H])C([H])([H])OC([H])([H])C([H])([H])C([H])([H])N([H])C(=O)N3C([H])([H])C([H])([H])C([H])([H])C([H])(n4nc(-c5c([H])c([H])c(Oc6c([H])c([H])c(F)c([H])c6F)c([H])c5[H])c(C(=O)N([H])[H])c4N([H])[H])C3([H])[H])c([H])c([H])c2C1([H])[H]

>  <smiles>  (89) 
[H]c1c([H])c([H])c2c(c1[H])C([H])([H])C([H])([H])C([H])([H])C2([H])N([H])C(=O)C1([H])N(C(=O)C([H])(N([H])C(=O)C([H])(N([H])C([H])([H])[H])C([H])([H])[H])C(C([H])([H])[H])(C([H])([H])[H])C([H])([H])[H])C([H])([H])c2c([H])c(OC([H])([H])C([H])([H])OC([H])([H])C([H])([H])C([H])([H])C([H])([H])[N+]([H])([H])C([H])([H])C([H])([H])OC([H])([H])C([H])([H])C([H])([H])N([H])C(=O)N3C([H])([H])C([H])([H])C([H])([H])C([H])(n4nc(-c5c([H])c([H])c(Oc6c([H])c([H])c(F)c([H])c6F)c([H])c5[H])c(C(=O)N([H])[H])c4N([H])[H])C3([H])[H])c([H])c([H])c2C1([H])[H]

$$$$
91:0:0
     RDKit          3D

110117  0  0  1  0  0  0  0  0999 V2000
  -25.7390  -24.0460   20.5470 C   0  0  0  0  0  3  0  0  0  0  0  0
  -27.0640  -24.0100   21.3380 C   0  0  0  0  0  0  0  0  0  0  0  0
  -28.0160  -24.8580   20.9220 N   0  0  0  0  0  0  0  0  0  0  0  0
  -27.2260  -23.2210   22.2680 O   0  0  0  0  0  0  0  0  0  0  0  0
  -27.7940  -25.4400   20.1260 H   0  0  0  0  0  0  0  0  0  0  0  0
  -30.3020  -24.0930   21.5610 C   0  0  0  0  0  1  0  0  0  0  0  0
  -29.2840  -25.2650   21.5370 C   0  0  2  0  0  0  0  0  0  0  0  0
  -28.9630  -25.7890   22.9630 C   0  0  0  0  0  0  0  0  0  0  0  0
  -29.3190  -25.0540   24.0100 N   0  0  0  0  0  0  0  0  0  0  0  0
  -28.3500  -26.8380   23.1300 O   0  0  0  0  0  0  0  0  0  0  0  0
  -29.7830  -24.1690   23.8640 H   0  0  0  0  0  0  0  0  0  0  0  0
  -29.1270  -25.3660   24.9500 H   0  0  0  0  0  0  0  0  0  0  0  0
  -29.8900  -26.4180   20.6600 C   0  0  0  0  0  2  0  0  0  0  0  0
  -29.0600  -26.7830   19.5490 O   0  0  0  0  0  0  0  0  0  0  0  0
  -25.6550  -31.3100   23.8850 C   0  0  0  0  0  0  0  0  0  0  0  0
  -27.9810  -27.5970   19.7950 C   0  0  0  0  0  0  0  0  0  0  0  0
  -24.3620  -30.4710   21.9480 C   0  0  0  0  0  3  0  0  0  0  0  0
  -25.7040  -29.2120   20.1820 C   0  0  0  0  0  0  0  0  0  0  0  0
  -26.9060  -30.6500   21.8410 C   0  0  0  0  0  2  0  0  0  0  0  0
  -26.8850  -29.4820   20.8860 C   0  0  0  0  0  0  0  0  0  0  0  0
  -28.0250  -28.6780   20.7010 C   0  0  0  0  0  3  0  0  0  0  0  0
  -26.7990  -27.3490   19.0710 C   0  0  0  0  0  3  0  0  0  0  0  0
  -25.6520  -28.1400   19.2730 C   0  0  0  0  0  3  0  0  0  0  0  0
  -24.5310  -30.1300   20.4410 C   0  0  0  0  0  2  0  0  0  0  0  0
  -25.6590  -30.8050   22.6190 N   0  0  0  0  0  0  0  0  0  0  0  0
  -24.5940  -31.5340   24.4820 O   0  0  0  0  0  0  0  0  0  0  0  0
  -23.6140  -29.3030   22.6310 C   0  0  0  0  0  0  0  0  0  0  0  0
  -22.2870  -29.2560   22.4390 N   0  0  0  0  0  0  0  0  0  0  0  0
  -24.2230  -28.4550   23.2860 O   0  0  0  0  0  0  0  0  0  0  0  0
  -21.8600  -30.0110   21.9200 H   0  0  0  0  0  0  0  0  0  0  0  0
  -18.8350  -28.1840   22.5250 C   0  0  0  0  0  0  0  0  0  0  0  0
  -21.3830  -28.2210   22.9420 C   0  0  0  0  0  3  0  0  0  0  0  0
  -21.4480  -26.9510   22.0600 C   0  0  0  0  0  2  0  0  0  0  0  0
  -20.3760  -26.9160   20.9660 C   0  0  0  0  0  2  0  0  0  0  0  0
  -18.9760  -27.0030   21.5810 C   0  0  0  0  0  2  0  0  0  0  0  0
  -19.9670  -28.7660   23.1530 C   0  0  0  0  0  0  0  0  0  0  0  0
  -19.7840  -29.8850   23.9950 C   0  0  0  0  0  3  0  0  0  0  0  0
  -18.4990  -30.4150   24.2190 C   0  0  0  0  0  3  0  0  0  0  0  0
  -17.3800  -29.8260   23.6050 C   0  0  0  0  0  3  0  0  0  0  0  0
  -17.5470  -28.7130   22.7620 C   0  0  0  0  0  3  0  0  0  0  0  0
  -26.9820  -31.6550   24.6340 C   0  0  0  0  0  3  0  0  0  0  0  0
  -26.8480  -33.0200   25.1650 N   0  0  0  0  0  0  0  0  0  0  0  0
  -27.3890  -34.1090   24.6060 C   0  0  0  0  0  0  0  0  0  0  0  0
  -28.1230  -34.0600   23.6160 O   0  0  0  0  0  0  0  0  0  0  0  0
  -26.2270  -33.1440   25.9510 H   0  0  0  0  0  0  0  0  0  0  0  0
  -25.9900  -36.1890   24.4110 C   0  0  0  0  0  1  0  0  0  0  0  0
  -27.0650  -35.4740   25.2460 C   0  0  0  0  0  3  0  0  0  0  0  0
  -29.2020  -35.8620   26.3930 C   0  0  0  0  0  1  0  0  0  0  0  0
  -28.2470  -36.3520   25.4020 N   0  0  0  0  0  0  0  0  0  0  0  0
  -27.9640  -37.2900   25.6730 H   0  0  0  0  0  0  0  0  0  0  0  0
  -27.3320  -30.6400   25.7900 C   0  0  1  0  0  0  0  0  0  0  0  0
  -26.1670  -30.3810   26.7700 C   0  0  0  0  0  1  0  0  0  0  0  0
  -27.7540  -29.2730   25.2070 C   0  0  0  0  0  1  0  0  0  0  0  0
  -28.5320  -31.1660   26.6100 C   0  0  0  0  0  1  0  0  0  0  0  0
  -23.2980  -24.6720   20.3100 C   0  0  0  0  0  1  0  0  0  0  0  0
  -24.0330  -23.6490   22.4810 C   0  0  0  0  0  1  0  0  0  0  0  0
  -24.7090  -25.9870   21.8790 C   0  0  0  0  0  1  0  0  0  0  0  0
  -24.4700  -24.5670   21.3120 C   0  0  1  0  0  0  0  0  0  0  0  0
  -25.5200  -22.7020   19.9720 N   0  0  0  0  0  4  0  0  0  0  0  0
  -26.4140  -22.2400   20.0600 H   0  0  0  0  0  0  0  0  0  0  0  0
  -24.8590  -22.1870   20.5350 H   0  0  0  0  0  0  0  0  0  0  0  0
  -25.1850  -22.6450   18.5260 C   0  0  0  0  0  2  0  0  0  0  0  0
  -26.1440  -21.6810   17.8220 C   0  0  0  0  0  2  0  0  0  0  0  0
  -27.4320  -22.2220   18.0990 O   0  0  0  0  0  0  0  0  0  0  0  0
  -28.5060  -21.3040   17.9730 C   0  0  0  0  0  2  0  0  0  0  0  0
  -29.7490  -22.0080   18.5360 C   0  0  0  0  0  2  0  0  0  0  0  0
  -30.7560  -21.0570   18.8550 O   0  0  0  0  0  0  0  0  0  0  0  0
  -31.5310  -21.4230   19.9920 C   0  0  0  0  0  2  0  0  0  0  0  0
  -32.8950  -20.7070   20.0100 C   0  0  0  0  0  2  0  0  0  0  0  0
  -32.7400  -19.2970   20.1590 O   0  0  0  0  0  0  0  0  0  0  0  0
  -32.7470  -18.6120   18.9160 C   0  0  0  0  0  2  0  0  0  0  0  0
  -32.6130  -17.0990   19.1450 C   0  0  0  0  0  2  0  0  0  0  0  0
  -34.8370  -16.2040   18.6110 C   0  0  0  0  0  0  0  0  0  0  0  0
  -35.7520  -14.3830   17.2540 C   0  0  0  0  0  2  0  0  0  0  0  0
  -34.5620  -13.6950   16.5530 C   0  0  0  0  0  2  0  0  0  0  0  0
  -33.9630  -12.5940   17.4520 C   0  0  0  0  0  2  0  0  0  0  0  0
  -33.6850  -13.0890   18.8970 C   0  0  0  0  0  3  0  0  0  0  0  0
  -34.9110  -13.8390   19.4690 C   0  0  0  0  0  2  0  0  0  0  0  0
  -35.2670  -14.9200   18.5330 N   0  0  0  0  0  0  0  0  0  0  0  0
  -35.1380  -17.0750   17.7930 O   0  0  0  0  0  0  0  0  0  0  0  0
  -33.8490  -16.3960   19.4900 N   0  0  0  0  0  0  0  0  0  0  0  0
  -33.7490  -15.6650   20.1800 H   0  0  0  0  0  0  0  0  0  0  0  0
  -32.0790  -11.8110   20.4550 C   0  0  0  0  0  0  0  0  0  0  0  0
  -32.1750  -10.5860   21.0600 C   0  0  0  0  0  0  0  0  0  0  0  0
  -33.4510  -10.0620   20.6890 C   0  0  0  0  0  0  0  0  0  0  0  0
  -33.2690  -11.9890   19.7660 N   0  0  0  0  0  0  0  0  0  0  0  0
  -34.1170  -10.9450   19.9560 N   0  0  0  0  0  0  0  0  0  0  0  0
  -34.0580   -8.7480   20.9460 C   0  0  0  0  0  0  0  0  0  0  0  0
  -35.3630   -8.6290   21.4700 C   0  0  0  0  0  3  0  0  0  0  0  0
  -35.9180   -7.3560   21.7230 C   0  0  0  0  0  3  0  0  0  0  0  0
  -35.1660   -6.1880   21.4540 C   0  0  0  0  0  0  0  0  0  0  0  0
  -33.8750   -6.3130   20.9110 C   0  0  0  0  0  3  0  0  0  0  0  0
  -33.3260   -7.5800   20.6550 C   0  0  0  0  0  3  0  0  0  0  0  0
  -35.6320   -4.9080   21.6450 O   0  0  0  0  0  0  0  0  0  0  0  0
  -36.6260   -4.6340   22.5490 C   0  0  0  0  0  0  0  0  0  0  0  0
  -36.4990   -4.9570   23.9170 C   0  0  0  0  0  3  0  0  0  0  0  0
  -37.5150   -4.5920   24.8230 C   0  0  0  0  0  3  0  0  0  0  0  0
  -38.6520   -3.8980   24.3650 C   0  0  0  0  0  0  0  0  0  0  0  0
  -38.7760   -3.5710   23.0020 C   0  0  0  0  0  3  0  0  0  0  0  0
  -37.7650   -3.9370   22.0980 C   0  0  0  0  0  0  0  0  0  0  0  0
  -37.8800   -3.6010   20.7910 F   0  0  0  0  0  0  0  0  0  0  0  0
  -39.6260   -3.5400   25.2350 F   0  0  0  0  0  0  0  0  0  0  0  0
  -31.1080   -9.8970   21.8610 C   0  0  0  0  0  0  0  0  0  0  0  0
  -31.5010   -9.1110   22.8570 N   0  0  0  0  0  0  0  0  0  0  0  0
  -29.9130  -10.0910   21.6380 O   0  0  0  0  0  0  0  0  0  0  0  0
  -32.4810   -8.9660   23.0510 H   0  0  0  0  0  0  0  0  0  0  0  0
  -30.8130   -8.6440   23.4300 H   0  0  0  0  0  0  0  0  0  0  0  0
  -31.0780  -12.7760   20.4180 N   0  0  0  0  0  0  0  0  0  0  0  0
  -30.1780  -12.6370   20.8640 H   0  0  0  0  0  0  0  0  0  0  0  0
  -31.1230  -13.6310   19.8780 H   0  0  0  0  0  0  0  0  0  0  0  0
  1 58  1  0
  1  2  1  0
  2  4  2  0
  3  2  1  0
  3  7  1  0
  5  3  1  0
  7  6  1  1
  7  8  1  0
  8 10  2  0
  8  9  1  0
  9 12  1  0
 11  9  1  0
 13  7  1  0
 14 16  1  0
 14 13  1  0
 15 26  2  0
 16 21  1  0
 17 25  1  0
 17 27  1  0
 18 24  1  0
 18 20  1  0
 19 25  1  0
 20 19  1  0
 21 20  2  0
 22 23  1  0
 22 16  2  0
 23 18  2  0
 24 17  1  0
 25 15  1  0
 27 29  2  0
 28 27  1  0
 30 28  1  0
 31 40  2  0
 31 36  1  0
 32 28  1  0
 32 36  1  0
 33 32  1  0
 34 35  1  0
 34 33  1  0
 35 31  1  0
 36 37  2  0
 37 38  1  0
 39 38  2  0
 40 39  1  0
 41 15  1  0
 41 42  1  0
 41 51  1  0
 42 45  1  0
 43 42  1  0
 43 47  1  0
 44 43  2  0
 47 46  1  0
 47 49  1  0
 49 50  1  0
 49 48  1  0
 51 54  1  1
 51 52  1  0
 53 51  1  0
 58 55  1  6
 58 57  1  0
 58 56  1  0
 59 60  1  0
 59 61  1  0
 59  1  1  0
 62 59  1  0
 63 64  1  0
 63 62  1  0
 65 64  1  0
 65 66  1  0
 66 67  1  0
 67 68  1  0
 68 69  1  0
 69 70  1  0
 71 72  1  0
 71 70  1  0
 72 81  1  0
 73 81  1  0
 74 79  1  0
 75 74  1  0
 75 76  1  0
 77 76  1  0
 77 78  1  0
 77 86  1  0
 79 73  1  0
 79 78  1  0
 80 73  2  0
 81 82  1  0
 83 84  2  0
 84103  1  0
 85 88  1  0
 85 84  1  0
 86 87  1  0
 86 83  1  0
 87 85  2  0
 88 89  1  0
 89 90  2  0
 91 94  1  0
 91 90  1  0
 92 91  2  0
 93 92  1  0
 93 88  2  0
 94 95  1  0
 95 96  1  0
 96 97  2  0
 98 97  1  0
 98102  1  0
 99 98  2  0
100 95  2  0
100 99  1  0
101100  1  0
103104  1  0
104106  1  0
104107  1  0
105103  2  0
108 83  1  0
108109  1  0
110108  1  0
M  ISO  4  13 101  14 101  73 100  81 100
M  END
>  <TORSDO>  (90) 
F 33

>  <SCORE>  (90) 
-5.974

>  <name>  (90) 
91

>  <ligand_id>  (90) 
91

>  <original_smiles>  (90) 
[H]c1c([H])c([H])c2c(c1[H])C([H])([H])C([H])([H])C([H])([H])C2([H])N([H])C(=O)C1([H])N(C(=O)C([H])(N([H])C(=O)C([H])(N([H])C([H])([H])[H])C([H])([H])[H])C(C([H])([H])[H])(C([H])([H])[H])C([H])([H])[H])C([H])([H])c2c([H])c(OC([H])([H])C(C(=O)N([H])[H])(N([H])C(=O)C([H])(C(C([H])([H])[H])(C([H])([H])[H])C([H])([H])[H])[N+]([H])([H])C([H])([H])C([H])([H])OC([H])([H])C([H])([H])OC([H])([H])C([H])([H])OC([H])([H])C([H])([H])N([H])C(=O)N3C([H])([H])C([H])([H])C([H])([H])C([H])(n4nc(-c5c([H])c([H])c(Oc6c([H])c([H])c(F)c([H])c6F)c([H])c5[H])c(C(=O)N([H])[H])c4N([H])[H])C3([H])[H])C([H])([H])[H])c([H])c([H])c2C1([H])[H]

>  <smiles>  (90) 
[H]c1c([H])c([H])c2c(c1[H])C([H])([H])C([H])([H])C([H])([H])C2([H])N([H])C(=O)C1([H])N(C(=O)C([H])(N([H])C(=O)C([H])(N([H])C([H])([H])[H])C([H])([H])[H])C(C([H])([H])[H])(C([H])([H])[H])C([H])([H])[H])C([H])([H])c2c([H])c(OC([H])([H])C(C(=O)N([H])[H])(N([H])C(=O)C([H])(C(C([H])([H])[H])(C([H])([H])[H])C([H])([H])[H])[N+]([H])([H])C([H])([H])C([H])([H])OC([H])([H])C([H])([H])OC([H])([H])C([H])([H])OC([H])([H])C([H])([H])N([H])C(=O)N3C([H])([H])C([H])([H])C([H])([H])C([H])(n4nc(-c5c([H])c([H])c(Oc6c([H])c([H])c(F)c([H])c6F)c([H])c5[H])c(C(=O)N([H])[H])c4N([H])[H])C3([H])[H])C([H])([H])[H])c([H])c([H])c2C1([H])[H]

$$$$
92:0:0
     RDKit          3D

 90 97  0  0  1  0  0  0  0  0999 V2000
  -29.0830  -19.8480   20.3340 C   0  0  0  0  0  0  0  0  0  0  0  0
  -29.0600  -21.2610   19.8580 N   0  0  0  0  0  0  0  0  0  0  0  0
  -28.3850  -19.6210   21.3220 O   0  0  0  0  0  0  0  0  0  0  0  0
  -29.5530  -21.3440   18.9780 H   0  0  0  0  0  0  0  0  0  0  0  0
  -28.6940  -22.7870   20.4680 C   0  0  0  0  0  2  0  0  0  0  0  0
  -28.1000  -24.3570   19.7830 C   0  0  0  0  0  2  0  0  0  0  0  0
  -28.1640  -25.9520   20.2380 O   0  0  0  0  0  0  0  0  0  0  0  0
  -24.5840  -31.8980   23.2100 C   0  0  0  0  0  0  0  0  0  0  0  0
  -27.1510  -27.0470   20.1440 C   0  0  0  0  0  0  0  0  0  0  0  0
  -23.3940  -30.5150   21.5580 C   0  0  0  0  0  3  0  0  0  0  0  0
  -24.8460  -28.9260   20.1170 C   0  0  0  0  0  0  0  0  0  0  0  0
  -25.9600  -30.7290   21.4180 C   0  0  0  0  0  2  0  0  0  0  0  0
  -26.0310  -29.3260   20.7470 C   0  0  0  0  0  0  0  0  0  0  0  0
  -27.1740  -28.4060   20.7400 C   0  0  0  0  0  3  0  0  0  0  0  0
  -25.9390  -26.8060   19.4590 C   0  0  0  0  0  3  0  0  0  0  0  0
  -24.8250  -27.6880   19.4550 C   0  0  0  0  0  3  0  0  0  0  0  0
  -23.6240  -29.8420   20.1760 C   0  0  0  0  0  2  0  0  0  0  0  0
  -24.6670  -31.0750   22.1160 N   0  0  0  0  0  0  0  0  0  0  0  0
  -23.4930  -32.1820   23.7330 O   0  0  0  0  0  0  0  0  0  0  0  0
  -22.6990  -29.5110   22.5150 C   0  0  0  0  0  0  0  0  0  0  0  0
  -21.3680  -29.3490   22.3910 N   0  0  0  0  0  0  0  0  0  0  0  0
  -23.3640  -28.8770   23.3380 O   0  0  0  0  0  0  0  0  0  0  0  0
  -20.8830  -29.9100   21.7040 H   0  0  0  0  0  0  0  0  0  0  0  0
  -17.9830  -28.1520   22.9080 C   0  0  0  0  0  0  0  0  0  0  0  0
  -20.5460  -28.4050   23.1550 C   0  0  0  0  0  3  0  0  0  0  0  0
  -20.6370  -26.9810   22.5580 C   0  0  0  0  0  2  0  0  0  0  0  0
  -19.5270  -26.6780   21.5480 C   0  0  0  0  0  2  0  0  0  0  0  0
  -18.1500  -26.8150   22.2060 C   0  0  0  0  0  2  0  0  0  0  0  0
  -19.1070  -28.9060   23.3390 C   0  0  0  0  0  0  0  0  0  0  0  0
  -18.8940  -30.1560   23.9600 C   0  0  0  0  0  3  0  0  0  0  0  0
  -17.5910  -30.6530   24.1500 C   0  0  0  0  0  3  0  0  0  0  0  0
  -16.4820  -29.8970   23.7330 C   0  0  0  0  0  3  0  0  0  0  0  0
  -16.6790  -28.6480   23.1180 C   0  0  0  0  0  3  0  0  0  0  0  0
  -25.8530  -32.5380   23.8510 C   0  0  0  0  0  3  0  0  0  0  0  0
  -26.3390  -31.7800   25.1490 C   0  0  1  0  0  0  0  0  0  0  0  0
  -25.2230  -31.5650   26.1990 C   0  0  0  0  0  1  0  0  0  0  0  0
  -26.9200  -30.3930   24.7970 C   0  0  0  0  0  1  0  0  0  0  0  0
  -27.4820  -32.5770   25.8210 C   0  0  0  0  0  1  0  0  0  0  0  0
  -25.5410  -33.9420   24.1710 N   0  0  0  0  0  0  0  0  0  0  0  0
  -25.8880  -34.9960   23.4220 C   0  0  0  0  0  0  0  0  0  0  0  0
  -26.5660  -34.8890   22.3970 O   0  0  0  0  0  0  0  0  0  0  0  0
  -24.9370  -34.0990   24.9640 H   0  0  0  0  0  0  0  0  0  0  0  0
  -24.1850  -36.8150   23.0530 C   0  0  0  0  0  1  0  0  0  0  0  0
  -25.4100  -36.3910   23.8780 C   0  0  0  0  0  3  0  0  0  0  0  0
  -27.5380  -37.2590   24.7470 C   0  0  0  0  0  1  0  0  0  0  0  0
  -26.4560  -37.4330   23.7820 N   0  0  0  0  0  0  0  0  0  0  0  0
  -26.0580  -38.3590   23.9160 H   0  0  0  0  0  0  0  0  0  0  0  0
  -30.0050  -18.4350   19.7950 C   0  0  0  0  0  3  0  0  0  0  0  0
  -30.4520  -15.4470   19.8640 C   0  0  0  0  0  0  0  0  0  0  0  0
  -30.3270  -13.0170   18.9500 C   0  0  0  0  0  2  0  0  0  0  0  0
  -29.3240  -12.8210   17.7860 C   0  0  0  0  0  2  0  0  0  0  0  0
  -27.9180  -12.5300   18.3350 C   0  0  0  0  0  2  0  0  0  0  0  0
  -27.5460  -13.4750   19.5040 C   0  0  0  0  0  3  0  0  0  0  0  0
  -28.6740  -13.6280   20.5500 C   0  0  0  0  0  2  0  0  0  0  0  0
  -29.8470  -14.1520   19.8300 N   0  0  0  0  0  0  0  0  0  0  0  0
  -31.6470  -15.3670   19.5520 O   0  0  0  0  0  0  0  0  0  0  0  0
  -29.7650  -16.7680   20.0550 N   0  0  0  0  0  0  0  0  0  0  0  0
  -28.8070  -16.6110   20.3310 H   0  0  0  0  0  0  0  0  0  0  0  0
  -25.2380  -13.9990   20.4430 C   0  0  0  0  0  0  0  0  0  0  0  0
  -24.2070  -13.2080   20.8660 C   0  0  0  0  0  0  0  0  0  0  0  0
  -24.6760  -11.8620   20.7700 C   0  0  0  0  0  0  0  0  0  0  0  0
  -26.2630  -13.1360   20.1040 N   0  0  0  0  0  0  0  0  0  0  0  0
  -25.9430  -11.8430   20.3690 N   0  0  0  0  0  0  0  0  0  0  0  0
  -23.9670  -10.5910   20.9760 C   0  0  0  0  0  0  0  0  0  0  0  0
  -24.4360   -9.6230   21.8920 C   0  0  0  0  0  3  0  0  0  0  0  0
  -23.7230   -8.4210   22.0900 C   0  0  0  0  0  3  0  0  0  0  0  0
  -22.5280   -8.1780   21.3720 C   0  0  0  0  0  0  0  0  0  0  0  0
  -22.0790   -9.1350   20.4440 C   0  0  0  0  0  3  0  0  0  0  0  0
  -22.7930  -10.3280   20.2450 C   0  0  0  0  0  3  0  0  0  0  0  0
  -21.7840   -7.0280   21.4790 O   0  0  0  0  0  0  0  0  0  0  0  0
  -21.7490   -6.2980   22.6410 C   0  0  0  0  0  0  0  0  0  0  0  0
  -21.2870   -6.8530   23.8560 C   0  0  0  0  0  3  0  0  0  0  0  0
  -21.2020   -6.0480   25.0090 C   0  0  0  0  0  3  0  0  0  0  0  0
  -21.5680   -4.6910   24.9510 C   0  0  0  0  0  0  0  0  0  0  0  0
  -22.0230   -4.1350   23.7420 C   0  0  0  0  0  3  0  0  0  0  0  0
  -22.1090   -4.9360   22.5900 C   0  0  0  0  0  0  0  0  0  0  0  0
  -22.5270   -4.3910   21.4210 F   0  0  0  0  0  0  0  0  0  0  0  0
  -21.4790   -3.9160   26.0570 F   0  0  0  0  0  0  0  0  0  0  0  0
  -22.8300  -13.6730   21.2370 C   0  0  0  0  0  0  0  0  0  0  0  0
  -22.1590  -12.9530   22.1280 N   0  0  0  0  0  0  0  0  0  0  0  0
  -22.3600  -14.7100   20.7720 O   0  0  0  0  0  0  0  0  0  0  0  0
  -22.5530  -12.1140   22.5270 H   0  0  0  0  0  0  0  0  0  0  0  0
  -21.2360  -13.2470   22.4160 H   0  0  0  0  0  0  0  0  0  0  0  0
  -25.3810  -15.3760   20.2870 N   0  0  0  0  0  0  0  0  0  0  0  0
  -24.6250  -16.0220   20.4790 H   0  0  0  0  0  0  0  0  0  0  0  0
  -26.1940  -15.8270   19.8880 H   0  0  0  0  0  0  0  0  0  0  0  0
  -31.9510  -20.2420   20.1130 C   0  0  0  0  0  1  0  0  0  0  0  0
  -32.4500  -18.1220   19.0250 C   0  0  0  0  0  1  0  0  0  0  0  0
  -31.8990  -18.2470   21.5380 C   0  0  0  0  0  1  0  0  0  0  0  0
  -31.5370  -18.7430   20.1150 C   0  0  2  0  0  0  0  0  0  0  0  0
  1  3  2  0
  2  1  1  0
  2  5  1  0
  4  2  1  0
  6  7  1  0
  6  5  1  0
  8 19  2  0
  9  7  1  0
  9 14  1  0
 10 18  1  0
 10 20  1  0
 11 17  1  0
 11 13  1  0
 12 18  1  0
 13 12  1  0
 14 13  2  0
 15  9  2  0
 16 15  1  0
 16 11  2  0
 17 10  1  0
 18  8  1  0
 20 22  2  0
 21 20  1  0
 23 21  1  0
 24 33  2  0
 24 29  1  0
 25 21  1  0
 25 29  1  0
 26 25  1  0
 27 28  1  0
 27 26  1  0
 28 24  1  0
 29 30  2  0
 30 31  1  0
 32 31  2  0
 33 32  1  0
 34  8  1  0
 34 39  1  0
 34 35  1  0
 35 38  1  1
 35 36  1  0
 37 35  1  0
 39 42  1  0
 40 44  1  0
 40 39  1  0
 41 40  2  0
 44 43  1  0
 46 44  1  0
 46 47  1  0
 46 45  1  0
 48 57  1  0
 48 90  1  0
 48  1  1  0
 49 57  1  0
 50 55  1  0
 51 52  1  0
 51 50  1  0
 53 52  1  0
 53 62  1  0
 53 54  1  0
 55 49  1  0
 55 54  1  0
 56 49  2  0
 57 58  1  0
 59 60  2  0
 60 79  1  0
 61 60  1  0
 61 64  1  0
 62 63  1  0
 62 59  1  0
 63 61  2  0
 64 65  1  0
 65 66  2  0
 67 70  1  0
 67 66  1  0
 68 67  2  0
 69 68  1  0
 69 64  2  0
 70 71  1  0
 71 72  1  0
 72 73  2  0
 74 73  1  0
 74 78  1  0
 75 74  2  0
 76 71  2  0
 76 75  1  0
 77 76  1  0
 79 80  1  0
 80 83  1  0
 80 82  1  0
 81 79  2  0
 84 59  1  0
 84 85  1  0
 86 84  1  0
 90 87  1  1
 88 90  1  0
 90 89  1  0
M  ISO  4   6 101   7 101  49 100  57 100
M  END
>  <TORSDO>  (91) 
F 20

>  <SCORE>  (91) 
-15.783

>  <name>  (91) 
92

>  <ligand_id>  (91) 
92

>  <original_smiles>  (91) 
[H]c1c([H])c([H])c2c(c1[H])C([H])([H])C([H])([H])C([H])([H])C2([H])N([H])C(=O)C1([H])N(C(=O)C([H])(N([H])C(=O)C([H])(N([H])C([H])([H])[H])C([H])([H])[H])C(C([H])([H])[H])(C([H])([H])[H])C([H])([H])[H])C([H])([H])c2c([H])c(OC([H])([H])C([H])([H])N([H])C(=O)C([H])(N([H])C(=O)N3C([H])([H])C([H])([H])C([H])([H])C([H])(n4nc(-c5c([H])c([H])c(Oc6c([H])c([H])c(F)c([H])c6F)c([H])c5[H])c(C(=O)N([H])[H])c4N([H])[H])C3([H])[H])C(C([H])([H])[H])(C([H])([H])[H])C([H])([H])[H])c([H])c([H])c2C1([H])[H]

>  <smiles>  (91) 
[H]c1c([H])c([H])c2c(c1[H])C([H])([H])C([H])([H])C([H])([H])C2([H])N([H])C(=O)C1([H])N(C(=O)C([H])(N([H])C(=O)C([H])(N([H])C([H])([H])[H])C([H])([H])[H])C(C([H])([H])[H])(C([H])([H])[H])C([H])([H])[H])C([H])([H])c2c([H])c(OC([H])([H])C([H])([H])N([H])C(=O)C([H])(N([H])C(=O)N3C([H])([H])C([H])([H])C([H])([H])C([H])(n4nc(-c5c([H])c([H])c(Oc6c([H])c([H])c(F)c([H])c6F)c([H])c5[H])c(C(=O)N([H])[H])c4N([H])[H])C3([H])[H])C(C([H])([H])[H])(C([H])([H])[H])C([H])([H])[H])c([H])c([H])c2C1([H])[H]

$$$$
