0:0:0
     RDKit          3D

 81 85  0  0  1  0  0  0  0  0999 V2000
  -28.1740  -25.1450   20.2320 O   0  0  0  0  0  1  0  0  0  0  0  0
  -24.6970  -31.8130   23.1330 C   0  0  0  0  0  0  0  0  0  0  0  0
  -27.2130  -26.4670   20.2440 C   0  0  0  0  0  0  0  0  0  0  0  0
  -23.5210  -30.3870   21.5200 C   0  0  0  0  0  3  0  0  0  0  0  0
  -24.9700  -28.6680   20.1510 C   0  0  0  0  0  0  0  0  0  0  0  0
  -26.1110  -30.4550   21.4240 C   0  0  0  0  0  2  0  0  0  0  0  0
  -26.1730  -28.9830   20.7910 C   0  0  0  0  0  0  0  0  0  0  0  0
  -27.2680  -27.9220   20.7910 C   0  0  0  0  0  3  0  0  0  0  0  0
  -25.9680  -26.4300   19.5450 C   0  0  0  0  0  3  0  0  0  0  0  0
  -24.9210  -27.4200   19.5010 C   0  0  0  0  0  3  0  0  0  0  0  0
  -23.7740  -29.6520   20.1690 C   0  0  0  0  0  2  0  0  0  0  0  0
  -24.8040  -30.9250   22.0770 N   0  0  0  0  0  0  0  0  0  0  0  0
  -23.5990  -32.1290   23.6260 O   0  0  0  0  0  0  0  0  0  0  0  0
  -22.7810  -29.4440   22.5110 C   0  0  0  0  0  0  0  0  0  0  0  0
  -21.4440  -29.3110   22.3990 N   0  0  0  0  0  0  0  0  0  0  0  0
  -23.4290  -28.8240   23.3580 O   0  0  0  0  0  0  0  0  0  0  0  0
  -20.9680  -29.8600   21.6960 H   0  0  0  0  0  0  0  0  0  0  0  0
  -18.0480  -28.1220   22.9530 C   0  0  0  0  0  0  0  0  0  0  0  0
  -20.6120  -28.3890   23.1860 C   0  0  0  0  0  3  0  0  0  0  0  0
  -20.7020  -26.9480   22.6270 C   0  0  0  0  0  2  0  0  0  0  0  0
  -19.5910  -26.6210   21.6240 C   0  0  0  0  0  2  0  0  0  0  0  0
  -18.2150  -26.7710   22.2790 C   0  0  0  0  0  2  0  0  0  0  0  0
  -19.1720  -28.8880   23.3640 C   0  0  0  0  0  0  0  0  0  0  0  0
  -18.9550  -30.1490   23.9630 C   0  0  0  0  0  3  0  0  0  0  0  0
  -17.6500  -30.6440   24.1490 C   0  0  0  0  0  3  0  0  0  0  0  0
  -16.5430  -29.8770   23.7490 C   0  0  0  0  0  3  0  0  0  0  0  0
  -16.7420  -28.6170   23.1570 C   0  0  0  0  0  3  0  0  0  0  0  0
  -25.9470  -32.4880   23.7760 C   0  0  0  0  0  3  0  0  0  0  0  0
  -25.6010  -33.8830   24.1260 N   0  0  0  0  0  0  0  0  0  0  0  0
  -25.9080  -34.9670   23.3990 C   0  0  0  0  0  0  0  0  0  0  0  0
  -26.5620  -34.8980   22.3570 O   0  0  0  0  0  0  0  0  0  0  0  0
  -25.0130  -34.0070   24.9370 H   0  0  0  0  0  0  0  0  0  0  0  0
  -24.1430  -36.7520   23.1480 C   0  0  0  0  0  1  0  0  0  0  0  0
  -25.4180  -36.3430   23.9040 C   0  0  0  0  0  3  0  0  0  0  0  0
  -27.5660  -37.2560   24.6760 C   0  0  0  0  0  1  0  0  0  0  0  0
  -26.4290  -37.4170   23.7750 N   0  0  0  0  0  0  0  0  0  0  0  0
  -26.0120  -38.3280   23.9510 H   0  0  0  0  0  0  0  0  0  0  0  0
  -26.4570  -31.7340   25.0680 C   0  0  1  0  0  0  0  0  0  0  0  0
  -25.3570  -31.5020   26.1320 C   0  0  0  0  0  1  0  0  0  0  0  0
  -27.0530  -30.3550   24.7120 C   0  0  0  0  0  1  0  0  0  0  0  0
  -27.5980  -32.5430   25.7310 C   0  0  0  0  0  1  0  0  0  0  0  0
  -28.1520  -23.2440   20.4220 C   0  0  0  0  0 15  0  0  0  0  0  0
  -28.9100  -21.3420   19.8830 C   0  0  0  0  0 15  0  0  0  0  0  0
  -29.3940  -17.7720   20.0630 C   0  0  0  0  0  2  0  0  0  0  0  0
  -29.3510  -19.3980   20.2290 C   0  0  0  0  0  1  0  0  0  0  0  0
  -30.1130  -16.0810   20.1090 C   0  0  0  0  0  0  0  0  0  0  0  0
  -30.2850  -13.4330   19.3220 C   0  0  0  0  0  2  0  0  0  0  0  0
  -29.4280  -12.8410   18.1520 C   0  0  0  0  0  2  0  0  0  0  0  0
  -28.0410  -12.4030   18.6370 C   0  0  0  0  0  2  0  0  0  0  0  0
  -27.4820  -13.4320   19.6380 C   0  0  0  0  0  3  0  0  0  0  0  0
  -28.4930  -13.9220   20.7100 C   0  0  0  0  0  2  0  0  0  0  0  0
  -29.6050  -14.6550   20.0230 N   0  0  0  0  0  0  0  0  0  0  0  0
  -31.3500  -15.8770   20.0150 O   0  0  0  0  0  0  0  0  0  0  0  0
  -25.1370  -13.9190   20.4450 C   0  0  0  0  0  0  0  0  0  0  0  0
  -24.0890  -13.1320   20.8210 C   0  0  0  0  0  0  0  0  0  0  0  0
  -24.5700  -11.7860   20.7890 C   0  0  0  0  0  0  0  0  0  0  0  0
  -26.1860  -13.0600   20.1900 N   0  0  0  0  0  0  0  0  0  0  0  0
  -25.8630  -11.7670   20.4620 N   0  0  0  0  0  0  0  0  0  0  0  0
  -23.8490  -10.5180   20.9890 C   0  0  0  0  0  0  0  0  0  0  0  0
  -24.2910   -9.5510   21.9190 C   0  0  0  0  0  3  0  0  0  0  0  0
  -23.5640   -8.3570   22.1120 C   0  0  0  0  0  3  0  0  0  0  0  0
  -22.3790   -8.1190   21.3740 C   0  0  0  0  0  0  0  0  0  0  0  0
  -21.9560   -9.0750   20.4340 C   0  0  0  0  0  3  0  0  0  0  0  0
  -22.6840  -10.2600   20.2400 C   0  0  0  0  0  3  0  0  0  0  0  0
  -21.6230   -6.9760   21.4750 O   0  0  0  0  0  0  0  0  0  0  0  0
  -21.5950   -6.2300   22.6270 C   0  0  0  0  0  0  0  0  0  0  0  0
  -21.2010   -6.7860   23.8640 C   0  0  0  0  0  3  0  0  0  0  0  0
  -21.1190   -5.9680   25.0090 C   0  0  0  0  0  3  0  0  0  0  0  0
  -21.4190   -4.5960   24.9180 C   0  0  0  0  0  0  0  0  0  0  0  0
  -21.8050   -4.0400   23.6860 C   0  0  0  0  0  3  0  0  0  0  0  0
  -21.8900   -4.8540   22.5430 C   0  0  0  0  0  0  0  0  0  0  0  0
  -22.2410   -4.3090   21.3540 F   0  0  0  0  0  0  0  0  0  0  0  0
  -21.3340   -3.8080   26.0150 F   0  0  0  0  0  0  0  0  0  0  0  0
  -22.6900  -13.6000   21.0940 C   0  0  0  0  0  0  0  0  0  0  0  0
  -21.9710  -12.9090   21.9700 N   0  0  0  0  0  0  0  0  0  0  0  0
  -22.2460  -14.6180   20.5640 O   0  0  0  0  0  0  0  0  0  0  0  0
  -22.3470  -12.0860   22.4190 H   0  0  0  0  0  0  0  0  0  0  0  0
  -21.0330  -13.2070   22.1960 H   0  0  0  0  0  0  0  0  0  0  0  0
  -25.2830  -15.2920   20.2610 N   0  0  0  0  0  0  0  0  0  0  0  0
  -24.5120  -15.9400   20.3840 H   0  0  0  0  0  0  0  0  0  0  0  0
  -26.1300  -15.7410   19.9350 H   0  0  0  0  0  0  0  0  0  0  0  0
  1  3  1  0
  2 13  2  0
  3  8  1  0
  4 12  1  0
  4 14  1  0
  5 11  1  0
  5  7  1  0
  6 12  1  0
  7  6  1  0
  8  7  2  0
  9  3  2  0
 10  9  1  0
 10  5  2  0
 11  4  1  0
 12  2  1  0
 14 16  2  0
 15 14  1  0
 17 15  1  0
 18 27  2  0
 18 23  1  0
 19 15  1  0
 19 23  1  0
 20 19  1  0
 21 22  1  0
 21 20  1  0
 22 18  1  0
 23 24  2  0
 24 25  1  0
 26 25  2  0
 27 26  1  0
 28  2  1  0
 28 29  1  0
 28 38  1  0
 29 32  1  0
 30 34  1  0
 30 29  1  0
 31 30  2  0
 34 33  1  0
 36 34  1  0
 36 37  1  0
 36 35  1  0
 38 41  1  1
 38 39  1  0
 40 38  1  0
 44 46  1  0
 44 45  1  0
 47 52  1  0
 48 49  1  0
 48 47  1  0
 50 49  1  0
 50 57  1  0
 50 51  1  0
 52 46  1  0
 52 51  1  0
 53 46  2  0
 54 55  2  0
 55 74  1  0
 56 55  1  0
 56 59  1  0
 57 54  1  0
 57 58  1  0
 58 56  2  0
 59 60  1  0
 60 61  2  0
 62 65  1  0
 62 61  1  0
 63 62  2  0
 64 63  1  0
 64 59  2  0
 65 66  1  0
 66 67  1  0
 67 68  2  0
 69 68  1  0
 69 73  1  0
 70 69  2  0
 71 66  2  0
 71 70  1  0
 72 71  1  0
 74 75  1  0
 75 78  1  0
 75 77  1  0
 76 74  2  0
 79 80  1  0
 79 54  1  0
 81 79  1  0
M  ISO  4   1 101  42 101  44 100  46 100
M  END
>  <TORSDO>  (1) 
F 18

>  <SCORE>  (1) 
-16.037

>  <name>  (1) 
0

>  <ligand_id>  (1) 
0

>  <original_smiles>  (1) 
[H]C(C(=O)N1C([H])([H])C([H])([H])C([H])([H])C([H])(n2nc(-c3c([H])c([H])c(Oc4c([H])c([H])c(F)c([H])c4F)c([H])c3[H])c(C(=O)N([H])[H])c2N([H])[H])C1([H])[H])=C([H])C([H])([H])C([H])([H])Oc1c([H])c([H])c2c(c1[H])C([H])([H])N(C(=O)C([H])(N([H])C(=O)C([H])(N([H])C([H])([H])[H])C([H])([H])[H])C(C([H])([H])[H])(C([H])([H])[H])C([H])([H])[H])C([H])(C(=O)N([H])C1([H])c3c([H])c([H])c([H])c([H])c3C([H])([H])C([H])([H])C1([H])[H])C2([H])[H]

>  <smiles>  (1) 
[H]C(C(=O)N1C([H])([H])C([H])([H])C([H])([H])C([H])(n2nc(-c3c([H])c([H])c(Oc4c([H])c([H])c(F)c([H])c4F)c([H])c3[H])c(C(=O)N([H])[H])c2N([H])[H])C1([H])[H])=C([H])C([H])([H])C([H])([H])Oc1c([H])c([H])c2c(c1[H])C([H])([H])N(C(=O)C([H])(N([H])C(=O)C([H])(N([H])C([H])([H])[H])C([H])([H])[H])C(C([H])([H])[H])(C([H])([H])[H])C([H])([H])[H])C([H])(C(=O)N([H])C1([H])c3c([H])c([H])c([H])c([H])c3C([H])([H])C([H])([H])C1([H])[H])C2([H])[H]

$$$$
1:0:0
     RDKit          3D

 83 90  0  0  1  0  0  0  0  0999 V2000
  -27.9150  -24.2390   20.1160 C   0  0  0  0  0  2  0  0  0  0  0  0
  -28.1740  -25.8700   20.2890 O   0  0  0  0  0  0  0  0  0  0  0  0
  -24.6580  -31.8900   23.2490 C   0  0  0  0  0  0  0  0  0  0  0  0
  -27.1740  -26.9840   20.2260 C   0  0  0  0  0  0  0  0  0  0  0  0
  -23.4520  -30.5010   21.6130 C   0  0  0  0  0  3  0  0  0  0  0  0
  -24.8880  -28.8860   20.1850 C   0  0  0  0  0  0  0  0  0  0  0  0
  -26.0200  -30.6950   21.4610 C   0  0  0  0  0  2  0  0  0  0  0  0
  -26.0810  -29.2830   20.8030 C   0  0  0  0  0  0  0  0  0  0  0  0
  -27.2180  -28.3540   20.7960 C   0  0  0  0  0  3  0  0  0  0  0  0
  -25.9510  -26.7440   19.5600 C   0  0  0  0  0  3  0  0  0  0  0  0
  -24.8480  -27.6380   19.5430 C   0  0  0  0  0  3  0  0  0  0  0  0
  -23.6740  -29.8160   20.2360 C   0  0  0  0  0  2  0  0  0  0  0  0
  -24.7330  -31.0560   22.1600 N   0  0  0  0  0  0  0  0  0  0  0  0
  -23.5720  -32.1850   23.7720 O   0  0  0  0  0  0  0  0  0  0  0  0
  -22.7540  -29.5100   22.5810 C   0  0  0  0  0  0  0  0  0  0  0  0
  -21.4240  -29.3490   22.4560 N   0  0  0  0  0  0  0  0  0  0  0  0
  -23.4170  -28.8860   23.4130 O   0  0  0  0  0  0  0  0  0  0  0  0
  -20.9420  -29.9040   21.7620 H   0  0  0  0  0  0  0  0  0  0  0  0
  -18.0390  -28.1380   22.9560 C   0  0  0  0  0  0  0  0  0  0  0  0
  -20.5980  -28.4140   23.2280 C   0  0  0  0  0  3  0  0  0  0  0  0
  -20.7050  -26.9790   22.6630 C   0  0  0  0  0  2  0  0  0  0  0  0
  -19.6080  -26.6470   21.6460 C   0  0  0  0  0  2  0  0  0  0  0  0
  -18.2230  -26.7890   22.2830 C   0  0  0  0  0  2  0  0  0  0  0  0
  -19.1530  -28.9090   23.3850 C   0  0  0  0  0  0  0  0  0  0  0  0
  -18.9250  -30.1700   23.9770 C   0  0  0  0  0  3  0  0  0  0  0  0
  -17.6160  -30.6630   24.1410 C   0  0  0  0  0  3  0  0  0  0  0  0
  -16.5180  -29.8900   23.7260 C   0  0  0  0  0  3  0  0  0  0  0  0
  -16.7300  -28.6300   23.1390 C   0  0  0  0  0  3  0  0  0  0  0  0
  -25.9340  -32.5270   23.8790 C   0  0  0  0  0  3  0  0  0  0  0  0
  -26.4350  -31.7610   25.1670 C   0  0  1  0  0  0  0  0  0  0  0  0
  -25.3330  -31.5410   26.2300 C   0  0  0  0  0  1  0  0  0  0  0  0
  -27.0100  -30.3760   24.7970 C   0  0  0  0  0  1  0  0  0  0  0  0
  -27.5870  -32.5520   25.8300 C   0  0  0  0  0  1  0  0  0  0  0  0
  -25.6240  -33.9280   24.2130 N   0  0  0  0  0  0  0  0  0  0  0  0
  -25.9340  -34.9860   23.4520 C   0  0  0  0  0  0  0  0  0  0  0  0
  -26.5740  -34.8850   22.4020 O   0  0  0  0  0  0  0  0  0  0  0  0
  -25.0510  -34.0800   25.0300 H   0  0  0  0  0  0  0  0  0  0  0  0
  -24.1840  -36.7780   23.1790 C   0  0  0  0  0  1  0  0  0  0  0  0
  -25.4650  -36.3770   23.9300 C   0  0  0  0  0  3  0  0  0  0  0  0
  -27.6300  -37.2800   24.6600 C   0  0  0  0  0  1  0  0  0  0  0  0
  -26.4860  -37.4340   23.7650 N   0  0  0  0  0  0  0  0  0  0  0  0
  -26.0820  -38.3540   23.9220 H   0  0  0  0  0  0  0  0  0  0  0  0
  -28.8680  -22.6950   20.3200 C   0  0  0  0  0  3  0  0  0  0  0  0
  -28.5990  -19.5570   20.0840 C   0  0  0  0  0  2  0  0  0  0  0  0
  -28.3730  -21.0370   20.0920 C   0  0  0  0  0  3  0  0  0  0  0  0
  -29.4150  -18.1630   20.2490 C   0  0  0  0  0  0  0  0  0  0  0  0
  -29.7780  -16.9070   20.2810 C   0  0  0  0  0  0  0  0  0  0  0  0
  -30.4310  -15.3710   20.2030 C   0  0  0  0  0  0  0  0  0  0  0  0
  -30.3850  -12.9040   19.3830 C   0  0  0  0  0  2  0  0  0  0  0  0
  -29.4750  -12.6780   18.1500 C   0  0  0  0  0  2  0  0  0  0  0  0
  -28.0290  -12.3970   18.5910 C   0  0  0  0  0  2  0  0  0  0  0  0
  -27.5670  -13.3730   19.7010 C   0  0  0  0  0  3  0  0  0  0  0  0
  -28.6110  -13.5700   20.8190 C   0  0  0  0  0  2  0  0  0  0  0  0
  -29.8430  -14.0680   20.1880 N   0  0  0  0  0  0  0  0  0  0  0  0
  -31.6490  -15.3000   19.9760 O   0  0  0  0  0  0  0  0  0  0  0  0
  -25.2040  -13.9070   20.4800 C   0  0  0  0  0  0  0  0  0  0  0  0
  -24.1510  -13.1210   20.8540 C   0  0  0  0  0  0  0  0  0  0  0  0
  -24.6280  -11.7740   20.8190 C   0  0  0  0  0  0  0  0  0  0  0  0
  -26.2490  -13.0400   20.2250 N   0  0  0  0  0  0  0  0  0  0  0  0
  -25.9170  -11.7510   20.4990 N   0  0  0  0  0  0  0  0  0  0  0  0
  -23.9090  -10.5060   21.0110 C   0  0  0  0  0  0  0  0  0  0  0  0
  -24.3440   -9.5430   21.9480 C   0  0  0  0  0  3  0  0  0  0  0  0
  -23.6220   -8.3430   22.1280 C   0  0  0  0  0  3  0  0  0  0  0  0
  -22.4500   -8.0990   21.3730 C   0  0  0  0  0  0  0  0  0  0  0  0
  -22.0350   -9.0500   20.4250 C   0  0  0  0  0  3  0  0  0  0  0  0
  -22.7580  -10.2410   20.2420 C   0  0  0  0  0  3  0  0  0  0  0  0
  -21.7000   -6.9510   21.4630 O   0  0  0  0  0  0  0  0  0  0  0  0
  -21.6420   -6.2170   22.6210 C   0  0  0  0  0  0  0  0  0  0  0  0
  -21.1800   -6.7740   23.8330 C   0  0  0  0  0  3  0  0  0  0  0  0
  -21.0700   -5.9670   24.9830 C   0  0  0  0  0  3  0  0  0  0  0  0
  -21.4130   -4.6030   24.9210 C   0  0  0  0  0  0  0  0  0  0  0  0
  -21.8690   -4.0450   23.7130 C   0  0  0  0  0  3  0  0  0  0  0  0
  -21.9790   -4.8500   22.5660 C   0  0  0  0  0  0  0  0  0  0  0  0
  -22.3990   -4.3030   21.4000 F   0  0  0  0  0  0  0  0  0  0  0  0
  -21.3020   -3.8240   26.0230 F   0  0  0  0  0  0  0  0  0  0  0  0
  -22.7510  -13.5890   21.1280 C   0  0  0  0  0  0  0  0  0  0  0  0
  -22.0320  -12.8920   22.0010 N   0  0  0  0  0  0  0  0  0  0  0  0
  -22.3050  -14.6070   20.6030 O   0  0  0  0  0  0  0  0  0  0  0  0
  -22.4080  -12.0670   22.4470 H   0  0  0  0  0  0  0  0  0  0  0  0
  -21.0940  -13.1880   22.2280 H   0  0  0  0  0  0  0  0  0  0  0  0
  -25.3570  -15.2800   20.3080 N   0  0  0  0  0  0  0  0  0  0  0  0
  -24.5900  -15.9310   20.4350 H   0  0  0  0  0  0  0  0  0  0  0  0
  -26.2070  -15.7280   19.9900 H   0  0  0  0  0  0  0  0  0  0  0  0
  1  2  1  0
  1 43  1  0
  3 14  2  0
  4  2  1  0
  4  9  1  0
  5 13  1  0
  5 15  1  0
  6 12  1  0
  6  8  1  0
  7 13  1  0
  8  7  1  0
  9  8  2  0
 10  4  2  0
 11 10  1  0
 11  6  2  0
 12  5  1  0
 13  3  1  0
 15 17  2  0
 16 15  1  0
 18 16  1  0
 19 28  2  0
 19 24  1  0
 20 16  1  0
 20 24  1  0
 21 20  1  0
 22 23  1  0
 22 21  1  0
 23 19  1  0
 24 25  2  0
 25 26  1  0
 27 26  2  0
 28 27  1  0
 29  3  1  0
 29 34  1  0
 29 30  1  0
 30 33  1  1
 30 31  1  0
 32 30  1  0
 34 37  1  0
 35 39  1  0
 35 34  1  0
 36 35  2  0
 39 38  1  0
 41 42  1  0
 41 39  1  0
 41 40  1  0
 44 45  1  0
 44 46  1  0
 45 43  2  0
 46 47  3  0
 48 47  1  0
 49 54  1  0
 50 51  1  0
 50 49  1  0
 52 51  1  0
 52 59  1  0
 52 53  1  0
 54 48  1  0
 54 53  1  0
 55 48  2  0
 56 57  2  0
 57 76  1  0
 58 57  1  0
 58 61  1  0
 59 56  1  0
 59 60  1  0
 60 58  2  0
 61 62  1  0
 62 63  2  0
 64 67  1  0
 64 63  1  0
 65 64  2  0
 66 65  1  0
 66 61  2  0
 67 68  1  0
 68 69  1  0
 69 70  2  0
 71 70  1  0
 71 75  1  0
 72 71  2  0
 73 68  2  0
 73 72  1  0
 74 73  1  0
 76 77  1  0
 77 80  1  0
 77 79  1  0
 78 76  2  0
 81 82  1  0
 81 56  1  0
 83 81  1  0
M  ISO  4   1 101   2 101  47 100  48 100
M  END
>  <TORSDO>  (2) 
F 19

>  <SCORE>  (2) 
-15.403

>  <name>  (2) 
1

>  <ligand_id>  (2) 
1

>  <original_smiles>  (2) 
[H]C(C#CC(=O)N1C([H])([H])C([H])([H])C([H])([H])C([H])(n2nc(-c3c([H])c([H])c(Oc4c([H])c([H])c(F)c([H])c4F)c([H])c3[H])c(C(=O)N([H])[H])c2N([H])[H])C1([H])[H])=C([H])C([H])([H])C([H])([H])Oc1c([H])c([H])c2c(c1[H])C([H])([H])N(C(=O)C([H])(N([H])C(=O)C([H])(N([H])C([H])([H])[H])C([H])([H])[H])C(C([H])([H])[H])(C([H])([H])[H])C([H])([H])[H])C([H])(C(=O)N([H])C1([H])c3c([H])c([H])c([H])c([H])c3C([H])([H])C([H])([H])C1([H])[H])C2([H])[H]

>  <smiles>  (2) 
[H]C(C#CC(=O)N1C([H])([H])C([H])([H])C([H])([H])C([H])(n2nc(-c3c([H])c([H])c(Oc4c([H])c([H])c(F)c([H])c4F)c([H])c3[H])c(C(=O)N([H])[H])c2N([H])[H])C1([H])[H])=C([H])C([H])([H])C([H])([H])Oc1c([H])c([H])c2c(c1[H])C([H])([H])N(C(=O)C([H])(N([H])C(=O)C([H])(N([H])C([H])([H])[H])C([H])([H])[H])C(C([H])([H])[H])(C([H])([H])[H])C([H])([H])[H])C([H])(C(=O)N([H])C1([H])c3c([H])c([H])c([H])c([H])c3C([H])([H])C([H])([H])C1([H])[H])C2([H])[H]

$$$$
2:0:0
     RDKit          3D

 86 94  0  0  1  0  0  0  0  0999 V2000
  -29.5920  -19.1290   20.3280 C   0  0  0  0  0  0  0  0  0  0  0  0
  -27.6850  -21.2720   18.1910 C   0  0  0  0  0  2  0  0  0  0  0  0
  -28.8360  -22.2350   18.5150 C   0  0  0  0  0  2  0  0  0  0  0  0
  -27.5540  -20.2870   19.3720 C   0  0  0  0  0  2  0  0  0  0  0  0
  -28.9420  -22.2100   20.0390 C   0  0  0  0  0  3  0  0  0  0  0  0
  -28.7640  -20.4470   20.1720 N   0  0  0  0  0  0  0  0  0  0  0  0
  -30.7730  -19.3480   20.6030 O   0  0  0  0  0  0  0  0  0  0  0  0
  -29.2440  -17.3000   20.2330 C   0  0  0  0  0  2  0  0  0  0  0  0
  -30.1850  -15.6800   20.1640 C   0  0  0  0  0  0  0  0  0  0  0  0
  -30.3280  -13.1360   19.3460 C   0  0  0  0  0  2  0  0  0  0  0  0
  -29.4170  -12.7700   18.1360 C   0  0  0  0  0  2  0  0  0  0  0  0
  -27.9890  -12.4280   18.5920 C   0  0  0  0  0  2  0  0  0  0  0  0
  -27.4970  -13.4110   19.6770 C   0  0  0  0  0  3  0  0  0  0  0  0
  -28.5410  -13.6760   20.7840 C   0  0  0  0  0  2  0  0  0  0  0  0
  -29.7240  -14.2920   20.1440 N   0  0  0  0  0  0  0  0  0  0  0  0
  -31.4160  -15.6510   19.9590 O   0  0  0  0  0  0  0  0  0  0  0  0
  -25.1440  -13.9370   20.4850 C   0  0  0  0  0  0  0  0  0  0  0  0
  -24.0910  -13.1520   20.8630 C   0  0  0  0  0  0  0  0  0  0  0  0
  -24.5650  -11.8030   20.8160 C   0  0  0  0  0  0  0  0  0  0  0  0
  -26.1850  -13.0680   20.2130 N   0  0  0  0  0  0  0  0  0  0  0  0
  -25.8520  -11.7770   20.4830 N   0  0  0  0  0  0  0  0  0  0  0  0
  -23.8430  -10.5380   21.0080 C   0  0  0  0  0  0  0  0  0  0  0  0
  -24.2790   -9.5700   21.9400 C   0  0  0  0  0  3  0  0  0  0  0  0
  -23.5540   -8.3710   22.1220 C   0  0  0  0  0  3  0  0  0  0  0  0
  -22.3790   -8.1310   21.3710 C   0  0  0  0  0  0  0  0  0  0  0  0
  -21.9600   -9.0890   20.4300 C   0  0  0  0  0  3  0  0  0  0  0  0
  -22.6870  -10.2790   20.2460 C   0  0  0  0  0  3  0  0  0  0  0  0
  -21.6260   -6.9840   21.4600 O   0  0  0  0  0  0  0  0  0  0  0  0
  -21.5730   -6.2470   22.6160 C   0  0  0  0  0  0  0  0  0  0  0  0
  -21.1180   -6.8010   23.8330 C   0  0  0  0  0  3  0  0  0  0  0  0
  -21.0110   -5.9910   24.9810 C   0  0  0  0  0  3  0  0  0  0  0  0
  -21.3500   -4.6260   24.9140 C   0  0  0  0  0  0  0  0  0  0  0  0
  -21.7990   -4.0720   23.7020 C   0  0  0  0  0  3  0  0  0  0  0  0
  -21.9060   -4.8800   22.5560 C   0  0  0  0  0  0  0  0  0  0  0  0
  -22.3170   -4.3340   21.3860 F   0  0  0  0  0  0  0  0  0  0  0  0
  -21.2420   -3.8450   26.0140 F   0  0  0  0  0  0  0  0  0  0  0  0
  -22.6950  -13.6250   21.1440 C   0  0  0  0  0  0  0  0  0  0  0  0
  -21.9750  -12.9320   22.0210 N   0  0  0  0  0  0  0  0  0  0  0  0
  -22.2510  -14.6460   20.6250 O   0  0  0  0  0  0  0  0  0  0  0  0
  -22.3400  -12.1030   22.4650 H   0  0  0  0  0  0  0  0  0  0  0  0
  -21.0410  -13.2380   22.2530 H   0  0  0  0  0  0  0  0  0  0  0  0
  -25.3050  -15.3090   20.3160 N   0  0  0  0  0  0  0  0  0  0  0  0
  -24.5510  -15.9690   20.4720 H   0  0  0  0  0  0  0  0  0  0  0  0
  -26.1410  -15.7440   19.9520 H   0  0  0  0  0  0  0  0  0  0  0  0
  -28.0270  -23.8620   20.4660 C   0  0  0  0  0  2  0  0  0  0  0  0
  -28.1980  -25.6050   20.3200 O   0  0  0  0  0  0  0  0  0  0  0  0
  -24.6860  -31.9020   23.2030 C   0  0  0  0  0  0  0  0  0  0  0  0
  -27.2120  -26.7990   20.2930 C   0  0  0  0  0  0  0  0  0  0  0  0
  -23.4990  -30.4840   21.5870 C   0  0  0  0  0  3  0  0  0  0  0  0
  -24.9460  -28.8190   20.2010 C   0  0  0  0  0  0  0  0  0  0  0  0
  -26.0780  -30.6310   21.4610 C   0  0  0  0  0  2  0  0  0  0  0  0
  -26.1420  -29.1890   20.8280 C   0  0  0  0  0  0  0  0  0  0  0  0
  -27.2630  -28.2080   20.8370 C   0  0  0  0  0  3  0  0  0  0  0  0
  -25.9810  -26.6310   19.6140 C   0  0  0  0  0  3  0  0  0  0  0  0
  -24.9030  -27.5640   19.5710 C   0  0  0  0  0  3  0  0  0  0  0  0
  -23.7400  -29.7710   20.2250 C   0  0  0  0  0  2  0  0  0  0  0  0
  -24.7780  -31.0390   22.1340 N   0  0  0  0  0  0  0  0  0  0  0  0
  -23.5930  -32.2070   23.7110 O   0  0  0  0  0  0  0  0  0  0  0  0
  -22.7870  -29.5170   22.5690 C   0  0  0  0  0  0  0  0  0  0  0  0
  -21.4540  -29.3580   22.4450 N   0  0  0  0  0  0  0  0  0  0  0  0
  -23.4420  -28.9030   23.4140 O   0  0  0  0  0  0  0  0  0  0  0  0
  -20.9740  -29.9030   21.7430 H   0  0  0  0  0  0  0  0  0  0  0  0
  -18.0660  -28.1530   22.9710 C   0  0  0  0  0  0  0  0  0  0  0  0
  -20.6270  -28.4320   23.2290 C   0  0  0  0  0  3  0  0  0  0  0  0
  -20.7300  -26.9900   22.6770 C   0  0  0  0  0  2  0  0  0  0  0  0
  -19.6290  -26.6500   21.6680 C   0  0  0  0  0  2  0  0  0  0  0  0
  -18.2480  -26.7970   22.3110 C   0  0  0  0  0  2  0  0  0  0  0  0
  -19.1830  -28.9270   23.3890 C   0  0  0  0  0  0  0  0  0  0  0  0
  -18.9550  -30.1920   23.9740 C   0  0  0  0  0  3  0  0  0  0  0  0
  -17.6450  -30.6840   24.1410 C   0  0  0  0  0  3  0  0  0  0  0  0
  -16.5450  -29.9070   23.7360 C   0  0  0  0  0  3  0  0  0  0  0  0
  -16.7570  -28.6450   23.1550 C   0  0  0  0  0  3  0  0  0  0  0  0
  -25.9500  -32.5610   23.8360 C   0  0  0  0  0  3  0  0  0  0  0  0
  -25.6190  -33.9590   24.1730 N   0  0  0  0  0  0  0  0  0  0  0  0
  -25.9330  -35.0290   23.4280 C   0  0  0  0  0  0  0  0  0  0  0  0
  -26.5930  -34.9410   22.3900 O   0  0  0  0  0  0  0  0  0  0  0  0
  -25.0330  -34.0990   24.9830 H   0  0  0  0  0  0  0  0  0  0  0  0
  -24.1890  -36.8210   23.1270 C   0  0  0  0  0  1  0  0  0  0  0  0
  -25.4470  -36.4130   23.9100 C   0  0  0  0  0  3  0  0  0  0  0  0
  -27.5870  -37.3160   24.7130 C   0  0  0  0  0  1  0  0  0  0  0  0
  -26.4700  -37.4760   23.7850 N   0  0  0  0  0  0  0  0  0  0  0  0
  -26.0580  -38.3920   23.9410 H   0  0  0  0  0  0  0  0  0  0  0  0
  -26.4590  -31.8060   25.1270 C   0  0  1  0  0  0  0  0  0  0  0  0
  -25.3610  -31.5770   26.1930 C   0  0  0  0  0  1  0  0  0  0  0  0
  -27.0480  -30.4240   24.7650 C   0  0  0  0  0  1  0  0  0  0  0  0
  -27.6060  -32.6100   25.7840 C   0  0  0  0  0  1  0  0  0  0  0  0
  1  7  2  0
  2  3  1  0
  2  4  1  0
  3  5  1  0
  4  6  1  0
  5  6  1  0
  5 45  1  0
  6  1  1  0
  8  1  1  0
  9  8  1  0
 10 15  1  0
 11 12  1  0
 11 10  1  0
 13 12  1  0
 13 20  1  0
 13 14  1  0
 15  9  1  0
 15 14  1  0
 16  9  2  0
 17 18  2  0
 18 37  1  0
 19 18  1  0
 19 22  1  0
 20 21  1  0
 20 17  1  0
 21 19  2  0
 22 23  1  0
 23 24  2  0
 25 28  1  0
 25 24  1  0
 26 25  2  0
 27 26  1  0
 27 22  2  0
 28 29  1  0
 29 30  1  0
 30 31  2  0
 32 31  1  0
 32 36  1  0
 33 32  2  0
 34 29  2  0
 34 33  1  0
 35 34  1  0
 37 38  1  0
 38 41  1  0
 38 40  1  0
 39 37  2  0
 42 43  1  0
 42 17  1  0
 44 42  1  0
 46 45  1  0
 47 58  2  0
 48 46  1  0
 48 53  1  0
 49 57  1  0
 49 59  1  0
 50 56  1  0
 50 52  1  0
 51 57  1  0
 52 53  2  0
 52 51  1  0
 54 48  2  0
 55 54  1  0
 55 50  2  0
 56 49  1  0
 57 47  1  0
 59 61  2  0
 60 59  1  0
 62 60  1  0
 63 72  2  0
 63 68  1  0
 64 60  1  0
 64 68  1  0
 65 64  1  0
 66 67  1  0
 66 65  1  0
 67 63  1  0
 68 69  2  0
 69 70  1  0
 71 70  2  0
 72 71  1  0
 73 47  1  0
 73 74  1  0
 73 83  1  0
 74 77  1  0
 75 79  1  0
 75 74  1  0
 76 75  2  0
 79 78  1  0
 81 79  1  0
 81 82  1  0
 81 80  1  0
 83 86  1  1
 83 84  1  0
 85 83  1  0
M  ISO  4   8 100   9 100  45 101  46 101
M  END
>  <TORSDO>  (3) 
F 18

>  <SCORE>  (3) 
-16.572

>  <name>  (3) 
2

>  <ligand_id>  (3) 
2

>  <original_smiles>  (3) 
[H]c1c([H])c([H])c2c(c1[H])C([H])([H])C([H])([H])C([H])([H])C2([H])N([H])C(=O)C1([H])N(C(=O)C([H])(N([H])C(=O)C([H])(N([H])C([H])([H])[H])C([H])([H])[H])C(C([H])([H])[H])(C([H])([H])[H])C([H])([H])[H])C([H])([H])c2c([H])c(OC([H])([H])C3([H])N(C(=O)C([H])([H])C(=O)N4C([H])([H])C([H])([H])C([H])([H])C([H])(n5nc(-c6c([H])c([H])c(Oc7c([H])c([H])c(F)c([H])c7F)c([H])c6[H])c(C(=O)N([H])[H])c5N([H])[H])C4([H])[H])C([H])([H])C([H])([H])C3([H])[H])c([H])c([H])c2C1([H])[H]

>  <smiles>  (3) 
[H]c1c([H])c([H])c2c(c1[H])C([H])([H])C([H])([H])C([H])([H])C2([H])N([H])C(=O)C1([H])N(C(=O)C([H])(N([H])C(=O)C([H])(N([H])C([H])([H])[H])C([H])([H])[H])C(C([H])([H])[H])(C([H])([H])[H])C([H])([H])[H])C([H])([H])c2c([H])c(OC([H])([H])C3([H])N(C(=O)C([H])([H])C(=O)N4C([H])([H])C([H])([H])C([H])([H])C([H])(n5nc(-c6c([H])c([H])c(Oc7c([H])c([H])c(F)c([H])c7F)c([H])c6[H])c(C(=O)N([H])[H])c5N([H])[H])C4([H])[H])C([H])([H])C([H])([H])C3([H])[H])c([H])c([H])c2C1([H])[H]

$$$$
3:0:0
     RDKit          3D

 92101  0  0  1  0  0  0  0  0999 V2000
  -30.2880  -21.1190   21.1150 C   0  0  0  0  0  0  0  0  0  0  0  0
  -28.8740  -21.5000   20.7310 C   0  0  0  0  0  0  0  0  0  0  0  0
  -31.0630  -21.9770   21.8100 C   0  0  0  0  0  2  0  0  0  0  0  0
  -27.9040  -20.2940   20.6040 C   0  0  0  0  0  3  0  0  0  0  0  0
  -28.4120  -18.8900   21.0870 C   0  0  0  0  0  2  0  0  0  0  0  0
  -31.2880  -18.9790   22.2790 C   0  0  0  0  0  2  0  0  0  0  0  0
  -31.4400  -17.4830   21.9470 C   0  0  0  0  0  2  0  0  0  0  0  0
  -30.7620  -19.6400   20.9870 C   0  0  0  0  0  3  0  0  0  0  0  0
  -29.7790  -18.5720   20.4460 C   0  0  0  0  0  3  0  0  0  0  0  0
  -30.5830  -17.2210   20.6950 C   0  0  0  0  0  3  0  0  0  0  0  0
  -28.3740  -22.6830   20.4610 N   0  0  0  0  0  2  0  0  0  0  0  0
  -30.6530  -14.7450   20.1450 C   0  0  0  0  0  0  0  0  0  0  0  0
  -30.3260  -12.5840   18.9580 C   0  0  0  0  0  2  0  0  0  0  0  0
  -29.3310  -12.7750   17.7950 C   0  0  0  0  0  2  0  0  0  0  0  0
  -27.8830  -12.5990   18.2900 C   0  0  0  0  0  2  0  0  0  0  0  0
  -27.5930  -13.4060   19.5850 C   0  0  0  0  0  3  0  0  0  0  0  0
  -28.7010  -13.2100   20.6420 C   0  0  0  0  0  2  0  0  0  0  0  0
  -29.9770  -13.5620   20.0120 N   0  0  0  0  0  0  0  0  0  0  0  0
  -31.7830  -14.8720   19.6680 O   0  0  0  0  0  0  0  0  0  0  0  0
  -29.9930  -15.8370   20.6620 N   0  0  0  0  0  0  0  0  0  0  0  0
  -29.0460  -15.7100   20.9890 H   0  0  0  0  0  0  0  0  0  0  0  0
  -25.2490  -13.9680   20.4610 C   0  0  0  0  0  0  0  0  0  0  0  0
  -24.2020  -13.1770   20.8520 C   0  0  0  0  0  0  0  0  0  0  0  0
  -24.6600  -11.8290   20.7300 C   0  0  0  0  0  0  0  0  0  0  0  0
  -26.2750  -13.1000   20.1270 N   0  0  0  0  0  0  0  0  0  0  0  0
  -25.9300  -11.8060   20.3490 N   0  0  0  0  0  0  0  0  0  0  0  0
  -23.9420  -10.5580   20.8990 C   0  0  0  0  0  0  0  0  0  0  0  0
  -24.3610   -9.5920   21.8400 C   0  0  0  0  0  3  0  0  0  0  0  0
  -23.6420   -8.3860   21.9950 C   0  0  0  0  0  3  0  0  0  0  0  0
  -22.4910   -8.1400   21.2090 C   0  0  0  0  0  0  0  0  0  0  0  0
  -22.0930   -9.0940   20.2590 C   0  0  0  0  0  3  0  0  0  0  0  0
  -22.8120  -10.2910   20.1000 C   0  0  0  0  0  3  0  0  0  0  0  0
  -21.7460   -6.9880   21.2740 O   0  0  0  0  0  0  0  0  0  0  0  0
  -21.5920   -6.2950   22.4480 C   0  0  0  0  0  0  0  0  0  0  0  0
  -21.0150   -6.8880   23.5920 C   0  0  0  0  0  3  0  0  0  0  0  0
  -20.8110   -6.1190   24.7570 C   0  0  0  0  0  3  0  0  0  0  0  0
  -21.1750   -4.7600   24.7760 C   0  0  0  0  0  0  0  0  0  0  0  0
  -21.7440   -4.1670   23.6360 C   0  0  0  0  0  3  0  0  0  0  0  0
  -21.9490   -4.9310   22.4740 C   0  0  0  0  0  0  0  0  0  0  0  0
  -22.4790   -4.3500   21.3710 F   0  0  0  0  0  0  0  0  0  0  0  0
  -20.9710   -4.0190   25.8910 F   0  0  0  0  0  0  0  0  0  0  0  0
  -22.8250  -13.6410   21.2230 C   0  0  0  0  0  0  0  0  0  0  0  0
  -22.1410  -12.8980   22.0890 N   0  0  0  0  0  0  0  0  0  0  0  0
  -22.3630  -14.6920   20.7830 O   0  0  0  0  0  0  0  0  0  0  0  0
  -22.5300  -12.0460   22.4650 H   0  0  0  0  0  0  0  0  0  0  0  0
  -21.2180  -13.1870   22.3800 H   0  0  0  0  0  0  0  0  0  0  0  0
  -25.4060  -15.3450   20.3410 N   0  0  0  0  0  0  0  0  0  0  0  0
  -24.6420  -15.9900   20.5120 H   0  0  0  0  0  0  0  0  0  0  0  0
  -26.2270  -15.7980   19.9570 H   0  0  0  0  0  0  0  0  0  0  0  0
  -29.0620  -23.9750   20.1140 C   0  0  0  0  0  2  0  0  0  0  0  0
  -28.2380  -25.2730   20.5330 C   0  0  0  0  0  2  0  0  0  0  0  0
  -28.4450  -26.5690   19.8380 O   0  0  0  0  0  0  0  0  0  0  0  0
  -24.5950  -31.6970   23.0790 C   0  0  0  0  0  0  0  0  0  0  0  0
  -27.3320  -27.4140   19.7990 C   0  0  0  0  0  0  0  0  0  0  0  0
  -23.4320  -30.3660   21.3540 C   0  0  0  0  0  3  0  0  0  0  0  0
  -24.9290  -28.9510   19.8400 C   0  0  0  0  0  0  0  0  0  0  0  0
  -25.9590  -30.7770   21.1930 C   0  0  0  0  0  2  0  0  0  0  0  0
  -26.0810  -29.4420   20.4710 C   0  0  0  0  0  0  0  0  0  0  0  0
  -27.2880  -28.6880   20.4390 C   0  0  0  0  0  3  0  0  0  0  0  0
  -26.1700  -26.9820   19.1250 C   0  0  0  0  0  3  0  0  0  0  0  0
  -24.9760  -27.7270   19.1530 C   0  0  0  0  0  3  0  0  0  0  0  0
  -23.6650  -29.7790   19.9360 C   0  0  0  0  0  2  0  0  0  0  0  0
  -24.6810  -30.9600   21.9330 N   0  0  0  0  0  0  0  0  0  0  0  0
  -23.5060  -31.9150   23.6280 O   0  0  0  0  0  0  0  0  0  0  0  0
  -22.7970  -29.2780   22.2520 C   0  0  0  0  0  0  0  0  0  0  0  0
  -21.4740  -29.0800   22.1180 N   0  0  0  0  0  0  0  0  0  0  0  0
  -23.4910  -28.6180   23.0290 O   0  0  0  0  0  0  0  0  0  0  0  0
  -20.9740  -29.6650   21.4640 H   0  0  0  0  0  0  0  0  0  0  0  0
  -18.1160  -27.8230   22.5910 C   0  0  0  0  0  0  0  0  0  0  0  0
  -20.6770  -28.0800   22.8300 C   0  0  0  0  0  3  0  0  0  0  0  0
  -20.7780  -26.6990   22.1430 C   0  0  0  0  0  2  0  0  0  0  0  0
  -19.6580  -26.4470   21.1300 C   0  0  0  0  0  2  0  0  0  0  0  0
  -18.2870  -26.5310   21.8090 C   0  0  0  0  0  2  0  0  0  0  0  0
  -19.2390  -28.5570   23.0560 C   0  0  0  0  0  0  0  0  0  0  0  0
  -19.0240  -29.7680   23.7490 C   0  0  0  0  0  3  0  0  0  0  0  0
  -17.7210  -30.2460   23.9780 C   0  0  0  0  0  3  0  0  0  0  0  0
  -16.6120  -29.5070   23.5300 C   0  0  0  0  0  3  0  0  0  0  0  0
  -16.8110  -28.2970   22.8430 C   0  0  0  0  0  3  0  0  0  0  0  0
  -25.8620  -32.3240   23.7400 C   0  0  0  0  0  3  0  0  0  0  0  0
  -25.5250  -33.7000   24.1320 N   0  0  0  0  0  0  0  0  0  0  0  0
  -25.8260  -34.7910   23.4140 C   0  0  0  0  0  0  0  0  0  0  0  0
  -26.4880  -34.7450   22.3740 O   0  0  0  0  0  0  0  0  0  0  0  0
  -24.9360  -33.8080   24.9440 H   0  0  0  0  0  0  0  0  0  0  0  0
  -24.0520  -36.5550   23.1580 C   0  0  0  0  0  1  0  0  0  0  0  0
  -25.3150  -36.1470   23.9360 C   0  0  0  0  0  3  0  0  0  0  0  0
  -27.4300  -37.0590   24.7870 C   0  0  0  0  0  1  0  0  0  0  0  0
  -26.3220  -37.2270   23.8500 N   0  0  0  0  0  0  0  0  0  0  0  0
  -25.8950  -38.1340   24.0220 H   0  0  0  0  0  0  0  0  0  0  0  0
  -26.3820  -31.5030   24.9830 C   0  0  1  0  0  0  0  0  0  0  0  0
  -25.2830  -31.1910   26.0250 C   0  0  0  0  0  1  0  0  0  0  0  0
  -26.9980  -30.1590   24.5300 C   0  0  0  0  0  1  0  0  0  0  0  0
  -27.5120  -32.2870   25.6910 C   0  0  0  0  0  1  0  0  0  0  0  0
  1  3  2  0
  2  1  1  0
  4  2  2  0
  4  5  1  0
  7  6  1  0
  8  1  1  0
  8  6  1  0
  9 10  1  0
  9  8  1  0
  9  5  1  0
 10 20  1  0
 10  7  1  0
 11  2  1  0
 12 20  1  0
 13 18  1  0
 14 15  1  0
 14 13  1  0
 16 15  1  0
 16 25  1  0
 16 17  1  0
 18 12  1  0
 18 17  1  0
 19 12  2  0
 20 21  1  0
 22 23  2  0
 23 42  1  0
 24 23  1  0
 24 27  1  0
 25 26  1  0
 25 22  1  0
 26 24  2  0
 27 28  1  0
 28 29  2  0
 30 33  1  0
 30 29  1  0
 31 30  2  0
 32 31  1  0
 32 27  2  0
 33 34  1  0
 34 39  2  0
 34 35  1  0
 35 36  2  0
 36 37  1  0
 37 41  1  0
 38 37  2  0
 39 38  1  0
 40 39  1  0
 42 43  1  0
 43 46  1  0
 43 45  1  0
 44 42  2  0
 47 22  1  0
 47 48  1  0
 49 47  1  0
 50 11  1  0
 50 51  1  0
 52 51  1  0
 53 64  2  0
 54 52  1  0
 54 59  1  0
 55 63  1  0
 55 65  1  0
 56 62  1  0
 56 58  1  0
 57 63  1  0
 58 57  1  0
 59 58  2  0
 60 61  1  0
 60 54  2  0
 61 56  2  0
 62 55  1  0
 63 53  1  0
 65 67  2  0
 66 65  1  0
 68 66  1  0
 69 78  2  0
 69 74  1  0
 70 66  1  0
 70 74  1  0
 71 70  1  0
 72 73  1  0
 72 71  1  0
 73 69  1  0
 74 75  2  0
 75 76  1  0
 77 76  2  0
 78 77  1  0
 79 53  1  0
 79 80  1  0
 79 89  1  0
 80 83  1  0
 81 85  1  0
 81 80  1  0
 82 81  2  0
 85 84  1  0
 87 85  1  0
 87 88  1  0
 87 86  1  0
 89 92  1  1
 89 90  1  0
 91 89  1  0
M  ISO  4  12 100  20 100  51 101  52 101
M  END
>  <TORSDO>  (4) 
F 18

>  <SCORE>  (4) 
-13.464

>  <name>  (4) 
3

>  <ligand_id>  (4) 
3

>  <original_smiles>  (4) 
[H]C([H])=C1C(=NC([H])([H])C([H])([H])Oc2c([H])c([H])c3c(c2[H])C([H])([H])N(C(=O)C([H])(N([H])C(=O)C([H])(N([H])C([H])([H])[H])C([H])([H])[H])C(C([H])([H])[H])(C([H])([H])[H])C([H])([H])[H])C([H])(C(=O)N([H])C2([H])c4c([H])c([H])c([H])c([H])c4C([H])([H])C([H])([H])C2([H])[H])C3([H])[H])C([H])([H])C([H])([H])C2([H])C1([H])C([H])([H])C([H])([H])C2([H])N([H])C(=O)N1C([H])([H])C([H])([H])C([H])([H])C([H])(n2nc(-c3c([H])c([H])c(Oc4c([H])c([H])c(F)c([H])c4F)c([H])c3[H])c(C(=O)N([H])[H])c2N([H])[H])C1([H])[H]

>  <smiles>  (4) 
[H]C([H])=C1C(=NC([H])([H])C([H])([H])Oc2c([H])c([H])c3c(c2[H])C([H])([H])N(C(=O)C([H])(N([H])C(=O)C([H])(N([H])C([H])([H])[H])C([H])([H])[H])C(C([H])([H])[H])(C([H])([H])[H])C([H])([H])[H])C([H])(C(=O)N([H])C2([H])c4c([H])c([H])c([H])c([H])c4C([H])([H])C([H])([H])C2([H])[H])C3([H])[H])C([H])([H])C([H])([H])C2([H])C1([H])C([H])([H])C([H])([H])C2([H])N([H])C(=O)N1C([H])([H])C([H])([H])C([H])([H])C([H])(n2nc(-c3c([H])c([H])c(Oc4c([H])c([H])c(F)c([H])c4F)c([H])c3[H])c(C(=O)N([H])[H])c2N([H])[H])C1([H])[H]

$$$$
4:0:0
     RDKit          3D

 90 97  0  0  1  0  0  0  0  0999 V2000
  -28.9440  -23.1450   20.2670 C   0  0  0  0  0  3  0  0  0  0  0  0
  -29.2570  -21.5630   19.5760 C   0  0  0  0  0  0  0  0  0  0  0  0
  -29.5440  -20.2480   20.1870 N   0  0  0  0  0  0  0  0  0  0  0  0
  -29.2700  -21.5610   18.3450 O   0  0  0  0  0  0  0  0  0  0  0  0
  -29.5040  -20.3040   21.1960 H   0  0  0  0  0  0  0  0  0  0  0  0
  -30.0560  -18.7510   19.6730 C   0  0  0  0  0  3  0  0  0  0  0  0
  -29.9000  -17.1110   20.3610 C   0  0  0  0  0  3  0  0  0  0  0  0
  -30.7270  -15.5960   20.0860 C   0  0  0  0  0  0  0  0  0  0  0  0
  -30.7230  -13.1340   19.2760 C   0  0  0  0  0  2  0  0  0  0  0  0
  -29.8020  -12.9470   18.0420 C   0  0  0  0  0  2  0  0  0  0  0  0
  -28.3500  -12.6960   18.4830 C   0  0  0  0  0  2  0  0  0  0  0  0
  -27.9040  -13.6820   19.5900 C   0  0  0  0  0  3  0  0  0  0  0  0
  -28.9470  -13.8150   20.7190 C   0  0  0  0  0  2  0  0  0  0  0  0
  -30.1980  -14.2790   20.1020 N   0  0  0  0  0  0  0  0  0  0  0  0
  -31.9270  -15.6150   19.7760 O   0  0  0  0  0  0  0  0  0  0  0  0
  -25.5320  -14.2700   20.3310 C   0  0  0  0  0  0  0  0  0  0  0  0
  -24.4650  -13.5030   20.7100 C   0  0  0  0  0  0  0  0  0  0  0  0
  -24.9240  -12.1500   20.6980 C   0  0  0  0  0  0  0  0  0  0  0  0
  -26.5710  -13.3840   20.0980 N   0  0  0  0  0  0  0  0  0  0  0  0
  -26.2160  -12.1060   20.3880 N   0  0  0  0  0  0  0  0  0  0  0  0
  -24.1900  -10.8940   20.9040 C   0  0  0  0  0  0  0  0  0  0  0  0
  -24.6030   -9.9440   21.8630 C   0  0  0  0  0  3  0  0  0  0  0  0
  -23.8680   -8.7530   22.0560 C   0  0  0  0  0  3  0  0  0  0  0  0
  -22.7030   -8.5070   21.2910 C   0  0  0  0  0  0  0  0  0  0  0  0
  -22.3080   -9.4470   20.3220 C   0  0  0  0  0  3  0  0  0  0  0  0
  -23.0440  -10.6270   20.1270 C   0  0  0  0  0  3  0  0  0  0  0  0
  -21.9390   -7.3680   21.3930 O   0  0  0  0  0  0  0  0  0  0  0  0
  -21.8690   -6.6520   22.5610 C   0  0  0  0  0  0  0  0  0  0  0  0
  -21.4060   -7.2290   23.7640 C   0  0  0  0  0  3  0  0  0  0  0  0
  -21.2840   -6.4380   24.9230 C   0  0  0  0  0  3  0  0  0  0  0  0
  -21.6130   -5.0710   24.8810 C   0  0  0  0  0  0  0  0  0  0  0  0
  -22.0680   -4.4910   23.6830 C   0  0  0  0  0  3  0  0  0  0  0  0
  -22.1920   -5.2790   22.5260 C   0  0  0  0  0  0  0  0  0  0  0  0
  -22.6120   -4.7120   21.3690 F   0  0  0  0  0  0  0  0  0  0  0  0
  -21.4870   -4.3080   25.9930 F   0  0  0  0  0  0  0  0  0  0  0  0
  -23.0700  -13.9920   20.9670 C   0  0  0  0  0  0  0  0  0  0  0  0
  -22.3350  -13.3210   21.8470 N   0  0  0  0  0  0  0  0  0  0  0  0
  -22.6390  -15.0080   20.4230 O   0  0  0  0  0  0  0  0  0  0  0  0
  -22.6960  -12.5020   22.3130 H   0  0  0  0  0  0  0  0  0  0  0  0
  -21.3990  -13.6360   22.0590 H   0  0  0  0  0  0  0  0  0  0  0  0
  -25.7010  -15.6360   20.1390 N   0  0  0  0  0  0  0  0  0  0  0  0
  -24.9340  -16.2930   20.2470 H   0  0  0  0  0  0  0  0  0  0  0  0
  -26.5510  -16.0730   19.8030 H   0  0  0  0  0  0  0  0  0  0  0  0
  -28.8150  -22.0630   22.6280 C   0  0  0  0  0  1  0  0  0  0  0  0
  -26.7050  -22.4370   21.3020 C   0  0  0  0  0  1  0  0  0  0  0  0
  -28.1150  -23.0020   21.6100 C   0  0  2  0  0  0  0  0  0  0  0  0
  -29.1820  -25.1140   22.7480 C   0  0  0  0  0  1  0  0  0  0  0  0
  -27.9010  -24.3670   22.3320 C   0  0  0  0  0  2  0  0  0  0  0  0
  -28.4150  -24.6550   19.4430 C   0  0  0  0  0  2  0  0  0  0  0  0
  -28.4590  -26.2640   19.7800 O   0  0  0  0  0  0  0  0  0  0  0  0
  -24.7160  -31.8910   23.0510 C   0  0  0  0  0  0  0  0  0  0  0  0
  -27.3880  -27.2920   19.7460 C   0  0  0  0  0  0  0  0  0  0  0  0
  -23.5330  -30.5130   21.3860 C   0  0  0  0  0  3  0  0  0  0  0  0
  -25.0070  -29.0490   19.8470 C   0  0  0  0  0  0  0  0  0  0  0  0
  -26.0790  -30.8570   21.1760 C   0  0  0  0  0  2  0  0  0  0  0  0
  -26.1910  -29.4850   20.4550 C   0  0  0  0  0  0  0  0  0  0  0  0
  -27.3720  -28.6250   20.3840 C   0  0  0  0  0  3  0  0  0  0  0  0
  -26.1690  -27.0060   19.0910 C   0  0  0  0  0  3  0  0  0  0  0  0
  -25.0190  -27.8330   19.1460 C   0  0  0  0  0  3  0  0  0  0  0  0
  -23.7490  -29.9040   19.9730 C   0  0  0  0  0  2  0  0  0  0  0  0
  -24.7970  -31.1130   21.9260 N   0  0  0  0  0  0  0  0  0  0  0  0
  -23.6320  -32.1120   23.6150 O   0  0  0  0  0  0  0  0  0  0  0  0
  -22.9160  -29.4460   22.3260 C   0  0  0  0  0  0  0  0  0  0  0  0
  -21.5940  -29.2090   22.2150 N   0  0  0  0  0  0  0  0  0  0  0  0
  -23.6290  -28.8330   23.1240 O   0  0  0  0  0  0  0  0  0  0  0  0
  -21.0680  -29.7610   21.5510 H   0  0  0  0  0  0  0  0  0  0  0  0
  -18.3010  -27.7700   22.7110 C   0  0  0  0  0  0  0  0  0  0  0  0
  -20.8400  -28.1990   22.9640 C   0  0  0  0  0  3  0  0  0  0  0  0
  -21.0310  -26.7920   22.3540 C   0  0  0  0  0  2  0  0  0  0  0  0
  -19.9460  -26.4240   21.3360 C   0  0  0  0  0  2  0  0  0  0  0  0
  -18.5630  -26.4560   21.9940 C   0  0  0  0  0  2  0  0  0  0  0  0
  -19.3700  -28.5970   23.1530 C   0  0  0  0  0  0  0  0  0  0  0  0
  -19.0700  -29.8210   23.7870 C   0  0  0  0  0  3  0  0  0  0  0  0
  -17.7360  -30.2250   23.9810 C   0  0  0  0  0  3  0  0  0  0  0  0
  -16.6820  -29.3970   23.5550 C   0  0  0  0  0  3  0  0  0  0  0  0
  -16.9660  -28.1720   22.9250 C   0  0  0  0  0  3  0  0  0  0  0  0
  -25.9790  -32.5610   23.6740 C   0  0  0  0  0  3  0  0  0  0  0  0
  -25.6130  -33.9290   24.0770 N   0  0  0  0  0  0  0  0  0  0  0  0
  -25.8830  -35.0370   23.3720 C   0  0  0  0  0  0  0  0  0  0  0  0
  -26.5300  -35.0150   22.3230 O   0  0  0  0  0  0  0  0  0  0  0  0
  -25.0250  -34.0150   24.8940 H   0  0  0  0  0  0  0  0  0  0  0  0
  -24.0690  -36.7710   23.1740 C   0  0  0  0  0  1  0  0  0  0  0  0
  -25.3550  -36.3790   23.9160 C   0  0  0  0  0  3  0  0  0  0  0  0
  -27.4770  -37.3200   24.7170 C   0  0  0  0  0  1  0  0  0  0  0  0
  -26.3360  -37.4810   23.8210 N   0  0  0  0  0  0  0  0  0  0  0  0
  -25.8950  -38.3730   24.0330 H   0  0  0  0  0  0  0  0  0  0  0  0
  -26.5570  -31.7660   24.9100 C   0  0  1  0  0  0  0  0  0  0  0  0
  -25.4980  -31.4490   25.9920 C   0  0  0  0  0  1  0  0  0  0  0  0
  -27.1880  -30.4260   24.4660 C   0  0  0  0  0  1  0  0  0  0  0  0
  -27.6940  -32.5830   25.5700 C   0  0  0  0  0  1  0  0  0  0  0  0
  1 49  1  0
  1 46  1  0
  2  3  1  0
  2  1  1  0
  3  5  1  0
  4  2  2  0
  6  3  1  0
  6  7  2  0
  8 14  1  0
  8  7  1  0
  9 14  1  0
 10 11  1  0
 10  9  1  0
 12 11  1  0
 12 19  1  0
 12 13  1  0
 14 13  1  0
 15  8  2  0
 16 17  2  0
 17 36  1  0
 18 17  1  0
 18 21  1  0
 19 16  1  0
 19 20  1  0
 20 18  2  0
 21 22  1  0
 22 23  2  0
 24 27  1  0
 24 23  1  0
 25 24  2  0
 26 25  1  0
 26 21  2  0
 27 28  1  0
 28 29  1  0
 29 30  2  0
 31 30  1  0
 31 35  1  0
 32 31  2  0
 33 28  2  0
 33 32  1  0
 34 33  1  0
 36 37  1  0
 37 40  1  0
 37 39  1  0
 38 36  2  0
 41 42  1  0
 41 16  1  0
 43 41  1  0
 46 45  1  6
 46 48  1  0
 46 44  1  0
 48 47  1  0
 49 50  1  0
 51 62  2  0
 52 50  1  0
 52 57  1  0
 53 61  1  0
 53 63  1  0
 54 60  1  0
 54 56  1  0
 55 61  1  0
 56 55  1  0
 57 56  2  0
 58 59  1  0
 58 52  2  0
 59 54  2  0
 60 53  1  0
 61 51  1  0
 63 65  2  0
 64 63  1  0
 66 64  1  0
 67 76  2  0
 67 72  1  0
 68 64  1  0
 68 72  1  0
 69 68  1  0
 70 71  1  0
 70 69  1  0
 71 67  1  0
 72 73  2  0
 73 74  1  0
 75 74  2  0
 76 75  1  0
 77 51  1  0
 77 78  1  0
 77 87  1  0
 78 81  1  0
 79 83  1  0
 79 78  1  0
 80 79  2  0
 83 82  1  0
 85 83  1  0
 85 86  1  0
 85 84  1  0
 87 90  1  1
 87 88  1  0
 89 87  1  0
M  ISO  4   7 100   8 100  49 101  50 101
M  END
>  <TORSDO>  (5) 
F 22

>  <SCORE>  (5) 
-13.806

>  <name>  (5) 
4

>  <ligand_id>  (5) 
4

>  <original_smiles>  (5) 
[H]c1c([H])c([H])c2c(c1[H])C([H])([H])C([H])([H])C([H])([H])C2([H])N([H])C(=O)C1([H])N(C(=O)C([H])(N([H])C(=O)C([H])(N([H])C([H])([H])[H])C([H])([H])[H])C(C([H])([H])[H])(C([H])([H])[H])C([H])([H])[H])C([H])([H])c2c([H])c(OC([H])([H])C([H])(C(=O)N([H])C([H])([H])C([H])([H])C(=O)N3C([H])([H])C([H])([H])C([H])([H])C([H])(n4nc(-c5c([H])c([H])c(Oc6c([H])c([H])c(F)c([H])c6F)c([H])c5[H])c(C(=O)N([H])[H])c4N([H])[H])C3([H])[H])C(C([H])([H])[H])(C([H])([H])[H])C([H])([H])C([H])([H])[H])c([H])c([H])c2C1([H])[H]

>  <smiles>  (5) 
[H]c1c([H])c([H])c2c(c1[H])C([H])([H])C([H])([H])C([H])([H])C2([H])N([H])C(=O)C1([H])N(C(=O)C([H])(N([H])C(=O)C([H])(N([H])C([H])([H])[H])C([H])([H])[H])C(C([H])([H])[H])(C([H])([H])[H])C([H])([H])[H])C([H])([H])c2c([H])c(OC([H])([H])C([H])(C(=O)N([H])C([H])([H])C([H])([H])C(=O)N3C([H])([H])C([H])([H])C([H])([H])C([H])(n4nc(-c5c([H])c([H])c(Oc6c([H])c([H])c(F)c([H])c6F)c([H])c5[H])c(C(=O)N([H])[H])c4N([H])[H])C3([H])[H])C(C([H])([H])[H])(C([H])([H])[H])C([H])([H])C([H])([H])[H])c([H])c([H])c2C1([H])[H]

$$$$
5:0:0
     RDKit          3D

 82 89  0  0  1  0  0  0  0  0999 V2000
  -28.1720  -25.5710   20.2770 O   0  0  0  0  0  0  0  0  0  0  0  0
  -24.6880  -31.8580   23.1840 C   0  0  0  0  0  0  0  0  0  0  0  0
  -27.1940  -26.7720   20.2210 C   0  0  0  0  0  0  0  0  0  0  0  0
  -23.4920  -30.4560   21.5590 C   0  0  0  0  0  3  0  0  0  0  0  0
  -24.9290  -28.7960   20.1540 C   0  0  0  0  0  0  0  0  0  0  0  0
  -26.0690  -30.5950   21.4280 C   0  0  0  0  0  2  0  0  0  0  0  0
  -26.1270  -29.1590   20.7800 C   0  0  0  0  0  0  0  0  0  0  0  0
  -27.2450  -28.1750   20.7800 C   0  0  0  0  0  3  0  0  0  0  0  0
  -25.9620  -26.6120   19.5400 C   0  0  0  0  0  3  0  0  0  0  0  0
  -24.8840  -27.5480   19.5100 C   0  0  0  0  0  3  0  0  0  0  0  0
  -23.7240  -29.7500   20.1920 C   0  0  0  0  0  2  0  0  0  0  0  0
  -24.7730  -31.0030   22.1100 N   0  0  0  0  0  0  0  0  0  0  0  0
  -23.5980  -32.1650   23.6970 O   0  0  0  0  0  0  0  0  0  0  0  0
  -22.7750  -29.4850   22.5380 C   0  0  0  0  0  0  0  0  0  0  0  0
  -21.4410  -29.3400   22.4220 N   0  0  0  0  0  0  0  0  0  0  0  0
  -23.4320  -28.8600   23.3740 O   0  0  0  0  0  0  0  0  0  0  0  0
  -20.9610  -29.8930   21.7260 H   0  0  0  0  0  0  0  0  0  0  0  0
  -18.0490  -28.1530   22.9560 C   0  0  0  0  0  0  0  0  0  0  0  0
  -20.6120  -28.4130   23.2030 C   0  0  0  0  0  3  0  0  0  0  0  0
  -20.7020  -26.9760   22.6370 C   0  0  0  0  0  2  0  0  0  0  0  0
  -19.5950  -26.6520   21.6300 C   0  0  0  0  0  2  0  0  0  0  0  0
  -18.2170  -26.8030   22.2800 C   0  0  0  0  0  2  0  0  0  0  0  0
  -19.1720  -28.9160   23.3740 C   0  0  0  0  0  0  0  0  0  0  0  0
  -18.9570  -30.1770   23.9720 C   0  0  0  0  0  3  0  0  0  0  0  0
  -17.6530  -30.6760   24.1510 C   0  0  0  0  0  3  0  0  0  0  0  0
  -16.5450  -29.9130   23.7450 C   0  0  0  0  0  3  0  0  0  0  0  0
  -16.7440  -28.6520   23.1540 C   0  0  0  0  0  3  0  0  0  0  0  0
  -25.9560  -32.5070   23.8190 C   0  0  0  0  0  3  0  0  0  0  0  0
  -26.4680  -31.7380   25.0990 C   0  0  1  0  0  0  0  0  0  0  0  0
  -25.3740  -31.5060   26.1680 C   0  0  0  0  0  1  0  0  0  0  0  0
  -27.0500  -30.3580   24.7230 C   0  0  0  0  0  1  0  0  0  0  0  0
  -27.6200  -32.5320   25.7610 C   0  0  0  0  0  1  0  0  0  0  0  0
  -25.6300  -33.9040   24.1710 N   0  0  0  0  0  0  0  0  0  0  0  0
  -25.9320  -34.9780   23.4290 C   0  0  0  0  0  0  0  0  0  0  0  0
  -26.5720  -34.8990   22.3780 O   0  0  0  0  0  0  0  0  0  0  0  0
  -25.0560  -34.0370   24.9900 H   0  0  0  0  0  0  0  0  0  0  0  0
  -24.1700  -36.7630   23.1900 C   0  0  0  0  0  1  0  0  0  0  0  0
  -25.4550  -36.3580   23.9300 C   0  0  0  0  0  3  0  0  0  0  0  0
  -27.6160  -37.2660   24.6650 C   0  0  0  0  0  1  0  0  0  0  0  0
  -26.4670  -37.4270   23.7770 N   0  0  0  0  0  0  0  0  0  0  0  0
  -26.0570  -38.3400   23.9510 H   0  0  0  0  0  0  0  0  0  0  0  0
  -27.9780  -23.8280   20.1960 C   0  0  0  0  0  3  0  0  0  0  0  0
  -28.9680  -22.1620   20.2680 C   0  0  0  0  0  3  0  0  0  0  0  0
  -28.6980  -20.2450   20.2540 C   0  0  0  0  0  2  0  0  0  0  0  0
  -29.4430  -17.1250   20.2970 C   0  0  0  0  0  3  0  0  0  0  0  0
  -29.6460  -18.6480   20.2070 C   0  0  0  0  0  3  0  0  0  0  0  0
  -30.3040  -15.6500   20.1910 C   0  0  0  0  0  0  0  0  0  0  0  0
  -30.4190  -13.1060   19.3910 C   0  0  0  0  0  2  0  0  0  0  0  0
  -29.5360  -12.7380   18.1630 C   0  0  0  0  0  2  0  0  0  0  0  0
  -28.1060  -12.3840   18.5990 C   0  0  0  0  0  2  0  0  0  0  0  0
  -27.5890  -13.3710   19.6700 C   0  0  0  0  0  3  0  0  0  0  0  0
  -28.6090  -13.6680   20.7910 C   0  0  0  0  0  2  0  0  0  0  0  0
  -29.8020  -14.2760   20.1630 N   0  0  0  0  0  0  0  0  0  0  0  0
  -31.5320  -15.5890   19.9910 O   0  0  0  0  0  0  0  0  0  0  0  0
  -25.2140  -13.8690   20.4190 C   0  0  0  0  0  0  0  0  0  0  0  0
  -24.1670  -13.0740   20.7880 C   0  0  0  0  0  0  0  0  0  0  0  0
  -24.6620  -11.7330   20.7740 C   0  0  0  0  0  0  0  0  0  0  0  0
  -26.2750  -13.0150   20.1860 N   0  0  0  0  0  0  0  0  0  0  0  0
  -25.9570  -11.7230   20.4690 N   0  0  0  0  0  0  0  0  0  0  0  0
  -23.9560  -10.4600   20.9720 C   0  0  0  0  0  0  0  0  0  0  0  0
  -24.3920   -9.5090   21.9210 C   0  0  0  0  0  3  0  0  0  0  0  0
  -23.6810   -8.3040   22.1080 C   0  0  0  0  0  3  0  0  0  0  0  0
  -22.5180   -8.0410   21.3470 C   0  0  0  0  0  0  0  0  0  0  0  0
  -22.0990   -8.9790   20.3870 C   0  0  0  0  0  3  0  0  0  0  0  0
  -22.8110  -10.1760   20.1990 C   0  0  0  0  0  3  0  0  0  0  0  0
  -21.7780   -6.8860   21.4420 O   0  0  0  0  0  0  0  0  0  0  0  0
  -21.7250   -6.1580   22.6050 C   0  0  0  0  0  0  0  0  0  0  0  0
  -21.2760   -6.7240   23.8180 C   0  0  0  0  0  3  0  0  0  0  0  0
  -21.1720   -5.9230   24.9720 C   0  0  0  0  0  3  0  0  0  0  0  0
  -21.5050   -4.5570   24.9140 C   0  0  0  0  0  0  0  0  0  0  0  0
  -21.9470   -3.9900   23.7050 C   0  0  0  0  0  3  0  0  0  0  0  0
  -22.0530   -4.7890   22.5530 C   0  0  0  0  0  0  0  0  0  0  0  0
  -22.4580   -4.2330   21.3860 F   0  0  0  0  0  0  0  0  0  0  0  0
  -21.3990   -3.7850   26.0200 F   0  0  0  0  0  0  0  0  0  0  0  0
  -22.7590  -13.5280   21.0380 C   0  0  0  0  0  0  0  0  0  0  0  0
  -22.0370  -12.8340   21.9090 N   0  0  0  0  0  0  0  0  0  0  0  0
  -22.3090  -14.5360   20.4940 O   0  0  0  0  0  0  0  0  0  0  0  0
  -22.4160  -12.0210   22.3710 H   0  0  0  0  0  0  0  0  0  0  0  0
  -21.0920  -13.1220   22.1200 H   0  0  0  0  0  0  0  0  0  0  0  0
  -25.3500  -15.2420   20.2290 N   0  0  0  0  0  0  0  0  0  0  0  0
  -24.5700  -15.8810   20.3330 H   0  0  0  0  0  0  0  0  0  0  0  0
  -26.1890  -15.6930   19.8900 H   0  0  0  0  0  0  0  0  0  0  0  0
  2 13  2  0
  3  1  1  0
  3  8  1  0
  4 12  1  0
  4 14  1  0
  5 11  1  0
  5  7  1  0
  6 12  1  0
  7  6  1  0
  8  7  2  0
  9  3  2  0
 10  9  1  0
 10  5  2  0
 11  4  1  0
 12  2  1  0
 14 16  2  0
 15 14  1  0
 17 15  1  0
 18 27  2  0
 18 23  1  0
 19 15  1  0
 19 23  1  0
 20 19  1  0
 21 22  1  0
 21 20  1  0
 22 18  1  0
 23 24  2  0
 24 25  1  0
 26 25  2  0
 27 26  1  0
 28  2  1  0
 28 33  1  0
 28 29  1  0
 29 32  1  1
 29 30  1  0
 31 29  1  0
 33 36  1  0
 34 38  1  0
 34 33  1  0
 35 34  2  0
 38 37  1  0
 40 38  1  0
 40 41  1  0
 40 39  1  0
 42 43  2  0
 42  1  1  0
 44 43  1  0
 46 44  1  0
 46 45  2  0
 47 45  1  0
 48 53  1  0
 49 50  1  0
 49 48  1  0
 51 50  1  0
 51 58  1  0
 51 52  1  0
 53 47  1  0
 53 52  1  0
 54 47  2  0
 55 56  2  0
 56 75  1  0
 57 56  1  0
 57 60  1  0
 58 55  1  0
 58 59  1  0
 59 57  2  0
 60 61  1  0
 61 62  2  0
 63 66  1  0
 63 62  1  0
 64 63  2  0
 65 64  1  0
 65 60  2  0
 66 67  1  0
 67 68  1  0
 68 69  2  0
 70 69  1  0
 70 74  1  0
 71 70  2  0
 72 67  2  0
 72 71  1  0
 73 72  1  0
 75 76  1  0
 76 79  1  0
 76 78  1  0
 77 75  2  0
 80 81  1  0
 80 55  1  0
 82 80  1  0
M  ISO  4   1 101  42 101  45 100  47 100
M  END
>  <TORSDO>  (6) 
F 19

>  <SCORE>  (6) 
-16.177

>  <name>  (6) 
5

>  <ligand_id>  (6) 
5

>  <original_smiles>  (6) 
[H]C(C(=O)N1C([H])([H])C([H])([H])C([H])([H])C([H])(n2nc(-c3c([H])c([H])c(Oc4c([H])c([H])c(F)c([H])c4F)c([H])c3[H])c(C(=O)N([H])[H])c2N([H])[H])C1([H])[H])=C([H])C([H])([H])C([H])([H])C([H])([H])Oc1c([H])c([H])c2c(c1[H])C([H])([H])N(C(=O)C([H])(N([H])C(=O)C([H])(N([H])C([H])([H])[H])C([H])([H])[H])C(C([H])([H])[H])(C([H])([H])[H])C([H])([H])[H])C([H])(C(=O)N([H])C1([H])c3c([H])c([H])c([H])c([H])c3C([H])([H])C([H])([H])C1([H])[H])C2([H])[H]

>  <smiles>  (6) 
[H]C(C(=O)N1C([H])([H])C([H])([H])C([H])([H])C([H])(n2nc(-c3c([H])c([H])c(Oc4c([H])c([H])c(F)c([H])c4F)c([H])c3[H])c(C(=O)N([H])[H])c2N([H])[H])C1([H])[H])=C([H])C([H])([H])C([H])([H])C([H])([H])Oc1c([H])c([H])c2c(c1[H])C([H])([H])N(C(=O)C([H])(N([H])C(=O)C([H])(N([H])C([H])([H])[H])C([H])([H])[H])C(C([H])([H])[H])(C([H])([H])[H])C([H])([H])[H])C([H])(C(=O)N([H])C1([H])c3c([H])c([H])c([H])c([H])c3C([H])([H])C([H])([H])C1([H])[H])C2([H])[H]

$$$$
6:0:0
     RDKit          3D

 80 84  0  0  1  0  0  0  0  0999 V2000
  -24.7480  -31.7400   23.0800 C   0  0  0  0  0  0  0  0  0  0  0  0
  -27.2100  -26.0510   20.1390 C   0  0  0  0  0  0  0  0  0  0  0  0
  -23.5690  -30.3190   21.4690 C   0  0  0  0  0  3  0  0  0  0  0  0
  -25.0040  -28.5230   20.0910 C   0  0  0  0  0  0  0  0  0  0  0  0
  -26.1690  -30.2560   21.4010 C   0  0  0  0  0  2  0  0  0  0  0  0
  -26.2180  -28.7450   20.7470 C   0  0  0  0  0  0  0  0  0  0  0  0
  -27.2650  -27.5660   20.7200 C   0  0  0  0  0  3  0  0  0  0  0  0
  -25.9540  -26.2210   19.4220 C   0  0  0  0  0  3  0  0  0  0  0  0
  -24.9530  -27.2900   19.4000 C   0  0  0  0  0  3  0  0  0  0  0  0
  -23.8280  -29.5580   20.1230 C   0  0  0  0  0  2  0  0  0  0  0  0
  -24.8630  -30.8220   22.0350 N   0  0  0  0  0  0  0  0  0  0  0  0
  -23.6460  -32.0720   23.5630 O   0  0  0  0  0  0  0  0  0  0  0  0
  -22.7940  -29.4120   22.4690 C   0  0  0  0  0  0  0  0  0  0  0  0
  -21.4510  -29.3090   22.3680 N   0  0  0  0  0  0  0  0  0  0  0  0
  -23.4280  -28.7880   23.3230 O   0  0  0  0  0  0  0  0  0  0  0  0
  -20.9800  -29.8600   21.6650 H   0  0  0  0  0  0  0  0  0  0  0  0
  -18.0460  -28.1260   22.9500 C   0  0  0  0  0  0  0  0  0  0  0  0
  -20.6160  -28.3860   23.1560 C   0  0  0  0  0  3  0  0  0  0  0  0
  -20.6930  -26.9490   22.5850 C   0  0  0  0  0  2  0  0  0  0  0  0
  -19.5730  -26.6360   21.5880 C   0  0  0  0  0  2  0  0  0  0  0  0
  -18.2040  -26.7830   22.2560 C   0  0  0  0  0  2  0  0  0  0  0  0
  -19.1760  -28.8870   23.3550 C   0  0  0  0  0  0  0  0  0  0  0  0
  -18.9680  -30.1380   23.9760 C   0  0  0  0  0  3  0  0  0  0  0  0
  -17.6650  -30.6310   24.1850 C   0  0  0  0  0  3  0  0  0  0  0  0
  -16.5530  -29.8700   23.7880 C   0  0  0  0  0  3  0  0  0  0  0  0
  -16.7440  -28.6190   23.1770 C   0  0  0  0  0  3  0  0  0  0  0  0
  -25.9840  -32.4300   23.7380 C   0  0  0  0  0  3  0  0  0  0  0  0
  -25.6400  -33.8350   24.0750 N   0  0  0  0  0  0  0  0  0  0  0  0
  -25.9710  -34.9220   23.3610 C   0  0  0  0  0  0  0  0  0  0  0  0
  -26.6370  -34.8480   22.3270 O   0  0  0  0  0  0  0  0  0  0  0  0
  -25.0400  -33.9640   24.8780 H   0  0  0  0  0  0  0  0  0  0  0  0
  -24.2330  -36.7370   23.1040 C   0  0  0  0  0  1  0  0  0  0  0  0
  -25.4980  -36.3070   23.8640 C   0  0  0  0  0  3  0  0  0  0  0  0
  -27.6540  -37.1970   24.6470 C   0  0  0  0  0  1  0  0  0  0  0  0
  -26.5240  -37.3690   23.7390 N   0  0  0  0  0  0  0  0  0  0  0  0
  -26.1160  -38.2840   23.9110 H   0  0  0  0  0  0  0  0  0  0  0  0
  -26.4690  -31.6980   25.0520 C   0  0  1  0  0  0  0  0  0  0  0  0
  -25.3550  -31.4970   26.1070 C   0  0  0  0  0  1  0  0  0  0  0  0
  -27.0520  -30.3050   24.7340 C   0  0  0  0  0  1  0  0  0  0  0  0
  -27.6130  -32.5040   25.7120 C   0  0  0  0  0  1  0  0  0  0  0  0
  -28.1080  -24.5210   20.1470 O   0  0  0  0  0  1  0  0  0  0  0  0
  -28.0860  -22.3840   20.0340 C   0  0  0  0  0 15  0  0  0  0  0  0
  -29.0280  -18.5880   20.0510 C   0  0  0  0  0  1  0  0  0  0  0  0
  -29.0520  -20.3530   20.0390 C   0  0  0  0  0  1  0  0  0  0  0  0
  -29.8590  -16.7530   20.0000 C   0  0  0  0  0  2  0  0  0  0  0  0
  -30.2630  -13.9400   19.2970 C   0  0  0  0  0  2  0  0  0  0  0  0
  -29.5080  -13.0700   18.2010 C   0  0  0  0  0  2  0  0  0  0  0  0
  -28.1940  -12.4790   18.7170 C   0  0  0  0  0  2  0  0  0  0  0  0
  -27.5340  -13.5200   19.6300 C   0  0  0  0  0  3  0  0  0  0  0  0
  -28.4780  -14.2630   20.6500 C   0  0  0  0  0  2  0  0  0  0  0  0
  -29.4770  -15.1930   19.9450 N   0  0  0  0  0  0  0  0  0  0  0  0
  -31.1040  -16.5070   19.8820 O   0  0  0  0  0  1  0  0  0  0  0  0
  -25.1900  -13.9110   20.4580 C   0  0  0  0  0  0  0  0  0  0  0  0
  -24.1590  -13.1030   20.8340 C   0  0  0  0  0  0  0  0  0  0  0  0
  -24.6610  -11.7640   20.7800 C   0  0  0  0  0  0  0  0  0  0  0  0
  -26.2580  -13.0820   20.1950 N   0  0  0  0  0  0  0  0  0  0  0  0
  -25.9540  -11.7720   20.4400 N   0  0  0  0  0  0  0  0  0  0  0  0
  -23.9490  -10.4870   20.9760 C   0  0  0  0  0  0  0  0  0  0  0  0
  -24.3880   -9.5240   21.9110 C   0  0  0  0  0  3  0  0  0  0  0  0
  -23.6650   -8.3260   22.1030 C   0  0  0  0  0  3  0  0  0  0  0  0
  -22.4850   -8.0780   21.3600 C   0  0  0  0  0  0  0  0  0  0  0  0
  -22.0610   -9.0300   20.4170 C   0  0  0  0  0  3  0  0  0  0  0  0
  -22.7850  -10.2200   20.2240 C   0  0  0  0  0  3  0  0  0  0  0  0
  -21.7350   -6.9300   21.4600 O   0  0  0  0  0  0  0  0  0  0  0  0
  -21.6930   -6.1920   22.6160 C   0  0  0  0  0  0  0  0  0  0  0  0
  -21.2860   -6.7560   23.8460 C   0  0  0  0  0  3  0  0  0  0  0  0
  -21.1910   -5.9460   24.9950 C   0  0  0  0  0  3  0  0  0  0  0  0
  -21.4920   -4.5740   24.9170 C   0  0  0  0  0  0  0  0  0  0  0  0
  -21.8920   -4.0090   23.6930 C   0  0  0  0  0  3  0  0  0  0  0  0
  -21.9880   -4.8150   22.5450 C   0  0  0  0  0  0  0  0  0  0  0  0
  -22.3530   -4.2610   21.3640 F   0  0  0  0  0  0  0  0  0  0  0  0
  -21.3940   -3.7940   26.0190 F   0  0  0  0  0  0  0  0  0  0  0  0
  -22.7580  -13.5540   21.1210 C   0  0  0  0  0  0  0  0  0  0  0  0
  -22.0570  -12.8530   22.0020 N   0  0  0  0  0  0  0  0  0  0  0  0
  -22.2990  -14.5710   20.6020 O   0  0  0  0  0  0  0  0  0  0  0  0
  -22.4430  -12.0330   22.4450 H   0  0  0  0  0  0  0  0  0  0  0  0
  -21.1170  -13.1400   22.2390 H   0  0  0  0  0  0  0  0  0  0  0  0
  -25.3070  -15.2870   20.2780 N   0  0  0  0  0  0  0  0  0  0  0  0
  -24.5180  -15.9150   20.3990 H   0  0  0  0  0  0  0  0  0  0  0  0
  -26.1360  -15.7520   19.9320 H   0  0  0  0  0  0  0  0  0  0  0  0
  1 12  2  0
  2 41  1  0
  2  7  1  0
  3 11  1  0
  3 13  1  0
  4 10  1  0
  4  6  1  0
  5 11  1  0
  6  5  1  0
  7  6  2  0
  8  2  2  0
  9  8  1  0
  9  4  2  0
 10  3  1  0
 11  1  1  0
 13 15  2  0
 14 13  1  0
 16 14  1  0
 17 26  2  0
 17 22  1  0
 18 14  1  0
 18 22  1  0
 19 18  1  0
 20 21  1  0
 20 19  1  0
 21 17  1  0
 22 23  2  0
 23 24  1  0
 25 24  2  0
 26 25  1  0
 27  1  1  0
 27 28  1  0
 27 37  1  0
 28 31  1  0
 29 33  1  0
 29 28  1  0
 30 29  2  0
 33 32  1  0
 35 33  1  0
 35 36  1  0
 35 34  1  0
 37 40  1  1
 37 38  1  0
 39 37  1  0
 44 43  1  0
 46 51  1  0
 47 48  1  0
 47 46  1  0
 49 48  1  0
 49 56  1  0
 49 50  1  0
 51 45  1  0
 51 50  1  0
 52 45  1  0
 53 54  2  0
 54 73  1  0
 55 54  1  0
 55 58  1  0
 56 57  1  0
 56 53  1  0
 57 55  2  0
 58 59  1  0
 59 60  2  0
 61 64  1  0
 61 60  1  0
 62 61  2  0
 63 62  1  0
 63 58  2  0
 64 65  1  0
 65 66  1  0
 66 67  2  0
 68 67  1  0
 68 72  1  0
 69 68  2  0
 70 65  2  0
 70 69  1  0
 71 70  1  0
 73 74  1  0
 74 77  1  0
 74 76  1  0
 75 73  2  0
 78 79  1  0
 78 53  1  0
 80 78  1  0
M  ISO  4  41 101  42 101  43 100  45 100
M  END
>  <TORSDO>  (7) 
F 17

>  <SCORE>  (7) 
-16.039

>  <name>  (7) 
6

>  <ligand_id>  (7) 
6

>  <original_smiles>  (7) 
[H]C(C(=O)N1C([H])([H])C([H])([H])C([H])([H])C([H])(n2nc(-c3c([H])c([H])c(Oc4c([H])c([H])c(F)c([H])c4F)c([H])c3[H])c(C(=O)N([H])[H])c2N([H])[H])C1([H])[H])=C([H])C([H])([H])Oc1c([H])c([H])c2c(c1[H])C([H])([H])N(C(=O)C([H])(N([H])C(=O)C([H])(N([H])C([H])([H])[H])C([H])([H])[H])C(C([H])([H])[H])(C([H])([H])[H])C([H])([H])[H])C([H])(C(=O)N([H])C1([H])c3c([H])c([H])c([H])c([H])c3C([H])([H])C([H])([H])C1([H])[H])C2([H])[H]

>  <smiles>  (7) 
[H]C(C(=O)N1C([H])([H])C([H])([H])C([H])([H])C([H])(n2nc(-c3c([H])c([H])c(Oc4c([H])c([H])c(F)c([H])c4F)c([H])c3[H])c(C(=O)N([H])[H])c2N([H])[H])C1([H])[H])=C([H])C([H])([H])Oc1c([H])c([H])c2c(c1[H])C([H])([H])N(C(=O)C([H])(N([H])C(=O)C([H])(N([H])C([H])([H])[H])C([H])([H])[H])C(C([H])([H])[H])(C([H])([H])[H])C([H])([H])[H])C([H])(C(=O)N([H])C1([H])c3c([H])c([H])c([H])c([H])c3C([H])([H])C([H])([H])C1([H])[H])C2([H])[H]

$$$$
7:0:0
     RDKit          3D

 88 95  0  0  1  0  0  0  0  0999 V2000
  -28.9320  -23.4170   20.2110 C   0  0  0  0  0  3  0  0  0  0  0  0
  -28.6830  -22.0260   20.3880 C   0  0  0  0  0  0  0  0  0  0  0  0
  -27.2900  -21.5830   20.8010 C   0  0  0  0  0  1  0  0  0  0  0  0
  -27.9130  -24.7020   20.3210 C   0  0  0  0  0  2  0  0  0  0  0  0
  -28.2680  -26.2120   20.1860 O   0  0  0  0  0  0  0  0  0  0  0  0
  -24.6410  -31.8810   23.2290 C   0  0  0  0  0  0  0  0  0  0  0  0
  -27.2130  -27.1990   20.1490 C   0  0  0  0  0  0  0  0  0  0  0  0
  -23.4330  -30.4930   21.5900 C   0  0  0  0  0  3  0  0  0  0  0  0
  -24.8780  -28.9340   20.1490 C   0  0  0  0  0  0  0  0  0  0  0  0
  -25.9880  -30.7680   21.4090 C   0  0  0  0  0  2  0  0  0  0  0  0
  -26.0610  -29.3810   20.7500 C   0  0  0  0  0  0  0  0  0  0  0  0
  -27.2300  -28.5290   20.7340 C   0  0  0  0  0  3  0  0  0  0  0  0
  -26.0020  -26.8650   19.4980 C   0  0  0  0  0  3  0  0  0  0  0  0
  -24.8610  -27.6900   19.5080 C   0  0  0  0  0  3  0  0  0  0  0  0
  -23.6470  -29.8250   20.2080 C   0  0  0  0  0  2  0  0  0  0  0  0
  -24.7080  -31.0690   22.1310 N   0  0  0  0  0  0  0  0  0  0  0  0
  -23.5570  -32.1600   23.7650 O   0  0  0  0  0  0  0  0  0  0  0  0
  -22.7650  -29.4770   22.5480 C   0  0  0  0  0  0  0  0  0  0  0  0
  -21.4370  -29.2990   22.4270 N   0  0  0  0  0  0  0  0  0  0  0  0
  -23.4430  -28.8480   23.3660 O   0  0  0  0  0  0  0  0  0  0  0  0
  -20.9450  -29.8560   21.7420 H   0  0  0  0  0  0  0  0  0  0  0  0
  -18.0640  -28.0820   22.9390 C   0  0  0  0  0  0  0  0  0  0  0  0
  -20.6220  -28.3550   23.1980 C   0  0  0  0  0  3  0  0  0  0  0  0
  -20.7280  -26.9250   22.6200 C   0  0  0  0  0  2  0  0  0  0  0  0
  -19.6250  -26.5990   21.6090 C   0  0  0  0  0  2  0  0  0  0  0  0
  -18.2450  -26.7360   22.2580 C   0  0  0  0  0  2  0  0  0  0  0  0
  -19.1790  -28.8490   23.3660 C   0  0  0  0  0  0  0  0  0  0  0  0
  -18.9550  -30.1070   23.9650 C   0  0  0  0  0  3  0  0  0  0  0  0
  -17.6480  -30.5990   24.1410 C   0  0  0  0  0  3  0  0  0  0  0  0
  -16.5460  -29.8290   23.7280 C   0  0  0  0  0  3  0  0  0  0  0  0
  -16.7550  -28.5720   23.1330 C   0  0  0  0  0  3  0  0  0  0  0  0
  -25.9210  -32.5180   23.8500 C   0  0  0  0  0  3  0  0  0  0  0  0
  -25.6060  -33.9130   24.1950 N   0  0  0  0  0  0  0  0  0  0  0  0
  -25.9230  -34.9750   23.4430 C   0  0  0  0  0  0  0  0  0  0  0  0
  -26.5770  -34.8840   22.4010 O   0  0  0  0  0  0  0  0  0  0  0  0
  -25.0230  -34.0570   25.0070 H   0  0  0  0  0  0  0  0  0  0  0  0
  -24.1810  -36.7660   23.1330 C   0  0  0  0  0  1  0  0  0  0  0  0
  -25.4360  -36.3590   23.9210 C   0  0  0  0  0  3  0  0  0  0  0  0
  -27.5800  -37.2470   24.7270 C   0  0  0  0  0  1  0  0  0  0  0  0
  -26.4630  -37.4180   23.8010 N   0  0  0  0  0  0  0  0  0  0  0  0
  -26.0560  -38.3350   23.9600 H   0  0  0  0  0  0  0  0  0  0  0  0
  -26.4420  -31.7410   25.1220 C   0  0  1  0  0  0  0  0  0  0  0  0
  -25.3520  -31.4990   26.1920 C   0  0  0  0  0  1  0  0  0  0  0  0
  -27.0250  -30.3640   24.7270 C   0  0  0  0  0  1  0  0  0  0  0  0
  -27.5960  -32.5330   25.7820 C   0  0  0  0  0  1  0  0  0  0  0  0
  -29.6760  -20.7300   20.1610 C   0  0  0  0  0  2  0  0  0  0  0  0
  -29.3410  -19.2460   20.6180 N   0  0  0  0  0  4  0  0  0  0  0  0
  -28.3890  -19.0750   20.3420 H   0  0  0  0  0  0  0  0  0  0  0  0
  -29.3400  -19.2680   21.6250 H   0  0  0  0  0  0  0  0  0  0  0  0
  -30.3030  -17.9150   18.6600 C   0  0  0  0  0  1  0  0  0  0  0  0
  -30.1780  -17.9600   20.1960 C   0  0  0  0  0  3  0  0  0  0  0  0
  -29.7810  -16.4100   20.7430 C   0  0  0  0  0  2  0  0  0  0  0  0
  -30.5880  -14.9980   20.4000 C   0  0  0  0  0  0  0  0  0  0  0  0
  -30.4650  -12.6670   19.4070 C   0  0  0  0  0  2  0  0  0  0  0  0
  -29.5460  -12.6860   18.1610 C   0  0  0  0  0  2  0  0  0  0  0  0
  -28.0720  -12.4870   18.5630 C   0  0  0  0  0  2  0  0  0  0  0  0
  -27.6630  -13.3830   19.7600 C   0  0  0  0  0  3  0  0  0  0  0  0
  -28.7020  -13.3440   20.8990 C   0  0  0  0  0  2  0  0  0  0  0  0
  -30.0000  -13.7360   20.3360 N   0  0  0  0  0  0  0  0  0  0  0  0
  -31.7800  -15.0650   20.0790 O   0  0  0  0  0  0  0  0  0  0  0  0
  -25.2650  -13.9680   20.4410 C   0  0  0  0  0  0  0  0  0  0  0  0
  -24.1940  -13.1950   20.7980 C   0  0  0  0  0  0  0  0  0  0  0  0
  -24.6620  -11.8440   20.7930 C   0  0  0  0  0  0  0  0  0  0  0  0
  -26.3150  -13.0880   20.2320 N   0  0  0  0  0  0  0  0  0  0  0  0
  -25.9590  -11.8070   20.5120 N   0  0  0  0  0  0  0  0  0  0  0  0
  -23.9330  -10.5830   20.9820 C   0  0  0  0  0  0  0  0  0  0  0  0
  -24.3380   -9.6320   21.9440 C   0  0  0  0  0  3  0  0  0  0  0  0
  -23.6080   -8.4360   22.1210 C   0  0  0  0  0  3  0  0  0  0  0  0
  -22.4580   -8.1830   21.3360 C   0  0  0  0  0  0  0  0  0  0  0  0
  -22.0730   -9.1250   20.3640 C   0  0  0  0  0  3  0  0  0  0  0  0
  -22.8030  -10.3110   20.1850 C   0  0  0  0  0  3  0  0  0  0  0  0
  -21.7030   -7.0390   21.4200 O   0  0  0  0  0  0  0  0  0  0  0  0
  -21.6130   -6.3210   22.5850 C   0  0  0  0  0  0  0  0  0  0  0  0
  -21.1340   -6.8990   23.7820 C   0  0  0  0  0  3  0  0  0  0  0  0
  -20.9910   -6.1070   24.9380 C   0  0  0  0  0  3  0  0  0  0  0  0
  -21.3170   -4.7380   24.9000 C   0  0  0  0  0  0  0  0  0  0  0  0
  -21.7890   -4.1610   23.7080 C   0  0  0  0  0  3  0  0  0  0  0  0
  -21.9340   -4.9490   22.5530 C   0  0  0  0  0  0  0  0  0  0  0  0
  -22.3680   -4.3820   21.4020 F   0  0  0  0  0  0  0  0  0  0  0  0
  -21.1730   -3.9750   26.0080 F   0  0  0  0  0  0  0  0  0  0  0  0
  -22.7910  -13.6720   21.0310 C   0  0  0  0  0  0  0  0  0  0  0  0
  -22.0440  -12.9870   21.8900 N   0  0  0  0  0  0  0  0  0  0  0  0
  -22.3620  -14.6900   20.4880 O   0  0  0  0  0  0  0  0  0  0  0  0
  -22.4020  -12.1640   22.3520 H   0  0  0  0  0  0  0  0  0  0  0  0
  -21.1020  -13.2920   22.0900 H   0  0  0  0  0  0  0  0  0  0  0  0
  -25.4300  -15.3360   20.2490 N   0  0  0  0  0  0  0  0  0  0  0  0
  -24.6600  -15.9920   20.3350 H   0  0  0  0  0  0  0  0  0  0  0  0
  -26.2820  -15.7690   19.9170 H   0  0  0  0  0  0  0  0  0  0  0  0
  1  4  1  0
  1  2  2  0
  2  3  1  0
  5  4  1  0
  6 17  2  0
  7  5  1  0
  7 12  1  0
  8 16  1  0
  8 18  1  0
  9 15  1  0
  9 11  1  0
 10 16  1  0
 11 10  1  0
 12 11  2  0
 13 14  1  0
 13  7  2  0
 14  9  2  0
 15  8  1  0
 16  6  1  0
 18 20  2  0
 19 18  1  0
 21 19  1  0
 22 31  2  0
 22 27  1  0
 23 19  1  0
 23 27  1  0
 24 23  1  0
 25 26  1  0
 25 24  1  0
 26 22  1  0
 27 28  2  0
 28 29  1  0
 30 29  2  0
 31 30  1  0
 32  6  1  0
 32 33  1  0
 32 42  1  0
 33 36  1  0
 34 38  1  0
 34 33  1  0
 35 34  2  0
 38 37  1  0
 40 38  1  0
 40 41  1  0
 40 39  1  0
 42 45  1  1
 42 43  1  0
 44 42  1  0
 46  2  1  0
 46 47  1  0
 47 49  1  0
 48 47  1  0
 51 50  1  0
 51 47  1  0
 51 52  1  0
 53 52  1  0
 54 59  1  0
 55 56  1  0
 55 54  1  0
 57 56  1  0
 57 64  1  0
 57 58  1  0
 59 53  1  0
 59 58  1  0
 60 53  2  0
 61 62  2  0
 62 81  1  0
 63 62  1  0
 63 66  1  0
 64 61  1  0
 64 65  1  0
 65 63  2  0
 66 67  1  0
 67 68  2  0
 69 72  1  0
 69 68  1  0
 70 69  2  0
 71 70  1  0
 71 66  2  0
 72 73  1  0
 73 74  1  0
 74 75  2  0
 76 75  1  0
 76 80  1  0
 77 76  2  0
 78 73  2  0
 78 77  1  0
 79 78  1  0
 81 82  1  0
 82 85  1  0
 82 84  1  0
 83 81  2  0
 86 87  1  0
 86 61  1  0
 88 86  1  0
M  ISO  4   4 101   5 101  52 100  53 100
M  END
>  <TORSDO>  (8) 
F 21

>  <SCORE>  (8) 
-13.022

>  <name>  (8) 
7

>  <ligand_id>  (8) 
7

>  <original_smiles>  (8) 
[H]C(=C(C([H])([H])[H])C([H])([H])[N+]([H])([H])C([H])(C([H])([H])[H])C([H])([H])C(=O)N1C([H])([H])C([H])([H])C([H])([H])C([H])(n2nc(-c3c([H])c([H])c(Oc4c([H])c([H])c(F)c([H])c4F)c([H])c3[H])c(C(=O)N([H])[H])c2N([H])[H])C1([H])[H])C([H])([H])Oc1c([H])c([H])c2c(c1[H])C([H])([H])N(C(=O)C([H])(N([H])C(=O)C([H])(N([H])C([H])([H])[H])C([H])([H])[H])C(C([H])([H])[H])(C([H])([H])[H])C([H])([H])[H])C([H])(C(=O)N([H])C1([H])c3c([H])c([H])c([H])c([H])c3C([H])([H])C([H])([H])C1([H])[H])C2([H])[H]

>  <smiles>  (8) 
[H]C(=C(C([H])([H])[H])C([H])([H])[N+]([H])([H])C([H])(C([H])([H])[H])C([H])([H])C(=O)N1C([H])([H])C([H])([H])C([H])([H])C([H])(n2nc(-c3c([H])c([H])c(Oc4c([H])c([H])c(F)c([H])c4F)c([H])c3[H])c(C(=O)N([H])[H])c2N([H])[H])C1([H])[H])C([H])([H])Oc1c([H])c([H])c2c(c1[H])C([H])([H])N(C(=O)C([H])(N([H])C(=O)C([H])(N([H])C([H])([H])[H])C([H])([H])[H])C(C([H])([H])[H])(C([H])([H])[H])C([H])([H])[H])C([H])(C(=O)N([H])C1([H])c3c([H])c([H])c([H])c([H])c3C([H])([H])C([H])([H])C1([H])[H])C2([H])[H]

$$$$
8:0:0
     RDKit          3D

 84 88  0  0  1  0  0  0  0  0999 V2000
  -29.1150  -20.7570   20.3400 C   0  0  0  0  0  2  0  0  0  0  0  0
  -30.3190  -21.1200   20.5690 N   0  0  0  0  0  0  0  0  0  0  0  0
  -32.5730  -20.6950   21.4330 C   0  0  0  0  0  2  0  0  0  0  0  0
  -31.6260  -19.8170   22.2200 C   0  0  0  0  0  2  0  0  0  0  0  0
  -31.3450  -20.1210   20.7650 C   0  0  0  0  0  3  0  0  0  0  0  0
  -29.0260  -18.4940   20.2890 C   0  0  0  0  0 15  0  0  0  0  0  0
  -29.9230  -16.5230   20.1740 C   0  0  0  0  0  2  0  0  0  0  0  0
  -30.3090  -13.7790   19.4160 C   0  0  0  0  0  2  0  0  0  0  0  0
  -29.5170  -13.0310   18.2690 C   0  0  0  0  0  2  0  0  0  0  0  0
  -28.1640  -12.4890   18.7460 C   0  0  0  0  0  2  0  0  0  0  0  0
  -27.5340  -13.5050   19.7110 C   0  0  0  0  0  3  0  0  0  0  0  0
  -28.5020  -14.1220   20.7750 C   0  0  0  0  0  2  0  0  0  0  0  0
  -29.5520  -14.9970   20.1100 N   0  0  0  0  0  0  0  0  0  0  0  0
  -31.1690  -16.3540   20.0220 O   0  0  0  0  0  1  0  0  0  0  0  0
  -25.1820  -13.9170   20.5200 C   0  0  0  0  0  0  0  0  0  0  0  0
  -24.1460  -13.1070   20.8820 C   0  0  0  0  0  0  0  0  0  0  0  0
  -24.6470  -11.7690   20.8270 C   0  0  0  0  0  0  0  0  0  0  0  0
  -26.2480  -13.0820   20.2550 N   0  0  0  0  0  0  0  0  0  0  0  0
  -25.9420  -11.7750   20.5000 N   0  0  0  0  0  0  0  0  0  0  0  0
  -23.9370  -10.4900   21.0100 C   0  0  0  0  0  0  0  0  0  0  0  0
  -24.3660   -9.5280   21.9500 C   0  0  0  0  0  3  0  0  0  0  0  0
  -23.6470   -8.3250   22.1260 C   0  0  0  0  0  3  0  0  0  0  0  0
  -22.4830   -8.0730   21.3620 C   0  0  0  0  0  0  0  0  0  0  0  0
  -22.0710   -9.0240   20.4110 C   0  0  0  0  0  3  0  0  0  0  0  0
  -22.7900  -10.2180   20.2340 C   0  0  0  0  0  3  0  0  0  0  0  0
  -21.7350   -6.9240   21.4470 O   0  0  0  0  0  0  0  0  0  0  0  0
  -21.6610   -6.1950   22.6080 C   0  0  0  0  0  0  0  0  0  0  0  0
  -21.1560   -6.7510   23.8050 C   0  0  0  0  0  3  0  0  0  0  0  0
  -21.0330   -5.9480   24.9560 C   0  0  0  0  0  3  0  0  0  0  0  0
  -21.4010   -4.5890   24.9130 C   0  0  0  0  0  0  0  0  0  0  0  0
  -21.8950   -4.0330   23.7200 C   0  0  0  0  0  3  0  0  0  0  0  0
  -22.0220   -4.8330   22.5700 C   0  0  0  0  0  0  0  0  0  0  0  0
  -22.4790   -4.2860   21.4180 F   0  0  0  0  0  0  0  0  0  0  0  0
  -21.2740   -3.8160   26.0150 F   0  0  0  0  0  0  0  0  0  0  0  0
  -22.7410  -13.5540   21.1590 C   0  0  0  0  0  0  0  0  0  0  0  0
  -22.0300  -12.8470   22.0290 N   0  0  0  0  0  0  0  0  0  0  0  0
  -22.2850  -14.5730   20.6400 O   0  0  0  0  0  0  0  0  0  0  0  0
  -22.4150  -12.0260   22.4720 H   0  0  0  0  0  0  0  0  0  0  0  0
  -21.0880  -13.1300   22.2580 H   0  0  0  0  0  0  0  0  0  0  0  0
  -25.3030  -15.2930   20.3530 N   0  0  0  0  0  0  0  0  0  0  0  0
  -24.5140  -15.9180   20.4760 H   0  0  0  0  0  0  0  0  0  0  0  0
  -26.1360  -15.7630   20.0220 H   0  0  0  0  0  0  0  0  0  0  0  0
  -28.0480  -22.7430   20.2210 C   0  0  0  0  0 15  0  0  0  0  0  0
  -28.1080  -24.7860   20.3550 O   0  0  0  0  0  1  0  0  0  0  0  0
  -24.6870  -31.8180   23.1550 C   0  0  0  0  0  0  0  0  0  0  0  0
  -27.2000  -26.2420   20.2990 C   0  0  0  0  0  0  0  0  0  0  0  0
  -23.5310  -30.3920   21.5260 C   0  0  0  0  0  3  0  0  0  0  0  0
  -24.9910  -28.6180   20.1780 C   0  0  0  0  0  0  0  0  0  0  0  0
  -26.1290  -30.3720   21.4930 C   0  0  0  0  0  2  0  0  0  0  0  0
  -26.1890  -28.8740   20.8530 C   0  0  0  0  0  0  0  0  0  0  0  0
  -27.2470  -27.7350   20.8650 C   0  0  0  0  0  3  0  0  0  0  0  0
  -25.9630  -26.3360   19.5580 C   0  0  0  0  0  3  0  0  0  0  0  0
  -24.9500  -27.3780   19.5040 C   0  0  0  0  0  3  0  0  0  0  0  0
  -23.8120  -29.6390   20.1820 C   0  0  0  0  0  2  0  0  0  0  0  0
  -24.8130  -30.9060   22.1090 N   0  0  0  0  0  0  0  0  0  0  0  0
  -23.5790  -32.1470   23.6200 O   0  0  0  0  0  0  0  0  0  0  0  0
  -22.7520  -29.4740   22.5120 C   0  0  0  0  0  0  0  0  0  0  0  0
  -21.4130  -29.3650   22.3860 N   0  0  0  0  0  0  0  0  0  0  0  0
  -23.3730  -28.8530   23.3760 O   0  0  0  0  0  0  0  0  0  0  0  0
  -20.9510  -29.9200   21.6780 H   0  0  0  0  0  0  0  0  0  0  0  0
  -17.9930  -28.2110   22.9220 C   0  0  0  0  0  0  0  0  0  0  0  0
  -20.5620  -28.4480   23.1610 C   0  0  0  0  0  3  0  0  0  0  0  0
  -20.6340  -27.0110   22.5920 C   0  0  0  0  0  2  0  0  0  0  0  0
  -19.5230  -26.7070   21.5810 C   0  0  0  0  0  2  0  0  0  0  0  0
  -18.1480  -26.8660   22.2310 C   0  0  0  0  0  2  0  0  0  0  0  0
  -19.1250  -28.9620   23.3430 C   0  0  0  0  0  0  0  0  0  0  0  0
  -18.9210  -30.2160   23.9570 C   0  0  0  0  0  3  0  0  0  0  0  0
  -17.6220  -30.7240   24.1480 C   0  0  0  0  0  3  0  0  0  0  0  0
  -16.5060  -29.9740   23.7380 C   0  0  0  0  0  3  0  0  0  0  0  0
  -16.6930  -28.7190   23.1320 C   0  0  0  0  0  3  0  0  0  0  0  0
  -25.9210  -32.4990   23.8230 C   0  0  0  0  0  3  0  0  0  0  0  0
  -26.3790  -31.7720   25.1490 C   0  0  1  0  0  0  0  0  0  0  0  0
  -25.2450  -31.5770   26.1840 C   0  0  0  0  0  1  0  0  0  0  0  0
  -26.9690  -30.3780   24.8480 C   0  0  0  0  0  1  0  0  0  0  0  0
  -27.5090  -32.5840   25.8260 C   0  0  0  0  0  1  0  0  0  0  0  0
  -25.5820  -33.9090   24.1370 N   0  0  0  0  0  0  0  0  0  0  0  0
  -25.9190  -34.9790   23.4020 C   0  0  0  0  0  0  0  0  0  0  0  0
  -26.5910  -34.8850   22.3730 O   0  0  0  0  0  0  0  0  0  0  0  0
  -24.9790  -34.0530   24.9330 H   0  0  0  0  0  0  0  0  0  0  0  0
  -24.1850  -36.7910   23.0980 C   0  0  0  0  0  1  0  0  0  0  0  0
  -25.4420  -36.3730   23.8780 C   0  0  0  0  0  3  0  0  0  0  0  0
  -27.5880  -37.2730   24.6750 C   0  0  0  0  0  1  0  0  0  0  0  0
  -26.4710  -37.4300   23.7480 N   0  0  0  0  0  0  0  0  0  0  0  0
  -26.0630  -38.3500   23.8980 H   0  0  0  0  0  0  0  0  0  0  0  0
  1  2  2  0
  2  5  1  0
  3  4  1  0
  5  3  1  0
  5  4  1  0
  8 13  1  0
  9 10  1  0
  9  8  1  0
 11 10  1  0
 11 18  1  0
 11 12  1  0
 13  7  1  0
 13 12  1  0
 14  7  1  0
 15 16  2  0
 16 35  1  0
 17 16  1  0
 17 20  1  0
 18 19  1  0
 18 15  1  0
 19 17  2  0
 20 21  1  0
 21 22  2  0
 23 26  1  0
 23 22  1  0
 24 23  2  0
 25 24  1  0
 25 20  2  0
 26 27  1  0
 27 28  1  0
 28 29  2  0
 30 29  1  0
 30 34  1  0
 31 30  2  0
 32 27  2  0
 32 31  1  0
 33 32  1  0
 35 36  1  0
 36 39  1  0
 36 38  1  0
 37 35  2  0
 40 41  1  0
 40 15  1  0
 42 40  1  0
 45 56  2  0
 46 44  1  0
 46 51  1  0
 47 55  1  0
 47 57  1  0
 48 54  1  0
 48 50  1  0
 49 55  1  0
 50 51  2  0
 50 49  1  0
 52 46  2  0
 53 52  1  0
 53 48  2  0
 54 47  1  0
 55 45  1  0
 57 59  2  0
 58 57  1  0
 60 58  1  0
 61 70  2  0
 61 66  1  0
 62 58  1  0
 62 66  1  0
 63 62  1  0
 64 65  1  0
 64 63  1  0
 65 61  1  0
 66 67  2  0
 67 68  1  0
 69 68  2  0
 70 69  1  0
 71 45  1  0
 71 76  1  0
 71 72  1  0
 72 75  1  1
 72 73  1  0
 74 72  1  0
 76 79  1  0
 77 81  1  0
 77 76  1  0
 78 77  2  0
 81 80  1  0
 83 81  1  0
 83 84  1  0
 83 82  1  0
M  ISO  4   6 100   7 100  43 101  44 101
M  END
>  <TORSDO>  (9) 
F 19

>  <SCORE>  (9) 
-16.143

>  <name>  (9) 
8

>  <ligand_id>  (9) 
8

>  <original_smiles>  (9) 
[H]c1c([H])c([H])c2c(c1[H])C([H])([H])C([H])([H])C([H])([H])C2([H])N([H])C(=O)C1([H])N(C(=O)C([H])(N([H])C(=O)C([H])(N([H])C([H])([H])[H])C([H])([H])[H])C(C([H])([H])[H])(C([H])([H])[H])C([H])([H])[H])C([H])([H])c2c([H])c(OC([H])([H])C(=NC3([H])C([H])([H])C3([H])[H])C([H])([H])C(=O)N3C([H])([H])C([H])([H])C([H])([H])C([H])(n4nc(-c5c([H])c([H])c(Oc6c([H])c([H])c(F)c([H])c6F)c([H])c5[H])c(C(=O)N([H])[H])c4N([H])[H])C3([H])[H])c([H])c([H])c2C1([H])[H]

>  <smiles>  (9) 
[H]c1c([H])c([H])c2c(c1[H])C([H])([H])C([H])([H])C([H])([H])C2([H])N([H])C(=O)C1([H])N(C(=O)C([H])(N([H])C(=O)C([H])(N([H])C([H])([H])[H])C([H])([H])[H])C(C([H])([H])[H])(C([H])([H])[H])C([H])([H])[H])C([H])([H])c2c([H])c(OC([H])([H])C(=NC3([H])C([H])([H])C3([H])[H])C([H])([H])C(=O)N3C([H])([H])C([H])([H])C([H])([H])C([H])(n4nc(-c5c([H])c([H])c(Oc6c([H])c([H])c(F)c([H])c6F)c([H])c5[H])c(C(=O)N([H])[H])c4N([H])[H])C3([H])[H])c([H])c([H])c2C1([H])[H]

$$$$
9:0:0
     RDKit          3D

 91 99  0  0  1  0  0  0  0  0999 V2000
  -29.1450  -19.7490   20.4660 C   0  0  0  0  0  0  0  0  0  0  0  0
  -31.3420  -20.7850   18.7210 C   0  0  0  0  0  2  0  0  0  0  0  0
  -30.3370  -18.4060   18.4400 C   0  0  0  0  0  2  0  0  0  0  0  0
  -29.9120  -21.3730   18.7160 C   0  0  0  0  0  2  0  0  0  0  0  0
  -29.9610  -18.2760   19.9340 C   0  0  0  0  0  3  0  0  0  0  0  0
  -31.4910  -19.3820   18.0740 C   0  0  2  0  0  0  0  0  0  0  0  0
  -32.8480  -18.7810   18.5010 C   0  0  0  0  0  1  0  0  0  0  0  0
  -31.5130  -19.5270   16.5380 C   0  0  0  0  0  1  0  0  0  0  0  0
  -29.1890  -21.1680   19.9770 N   0  0  0  0  0  0  0  0  0  0  0  0
  -28.4450  -19.5590   21.4640 O   0  0  0  0  0  0  0  0  0  0  0  0
  -30.4390  -15.3540   20.0550 C   0  0  0  0  0  0  0  0  0  0  0  0
  -30.3570  -12.9350   19.1090 C   0  0  0  0  0  2  0  0  0  0  0  0
  -29.3860  -12.7510   17.9140 C   0  0  0  0  0  2  0  0  0  0  0  0
  -27.9540  -12.4780   18.4070 C   0  0  0  0  0  2  0  0  0  0  0  0
  -27.5560  -13.4180   19.5700 C   0  0  0  0  0  3  0  0  0  0  0  0
  -28.6490  -13.5310   20.6560 C   0  0  0  0  0  2  0  0  0  0  0  0
  -29.8520  -14.0560   19.9880 N   0  0  0  0  0  0  0  0  0  0  0  0
  -31.6450  -15.3400   19.7760 O   0  0  0  0  0  0  0  0  0  0  0  0
  -29.6960  -16.6360   20.1940 N   0  0  0  0  0  0  0  0  0  0  0  0
  -28.7320  -16.4660   20.4360 H   0  0  0  0  0  0  0  0  0  0  0  0
  -25.2100  -13.9660   20.3960 C   0  0  0  0  0  0  0  0  0  0  0  0
  -24.1600  -13.1850   20.7930 C   0  0  0  0  0  0  0  0  0  0  0  0
  -24.6290  -11.8380   20.7420 C   0  0  0  0  0  0  0  0  0  0  0  0
  -26.2450  -13.0960   20.1180 N   0  0  0  0  0  0  0  0  0  0  0  0
  -25.9130  -11.8080   20.3950 N   0  0  0  0  0  0  0  0  0  0  0  0
  -23.9110  -10.5720   20.9450 C   0  0  0  0  0  0  0  0  0  0  0  0
  -24.3620   -9.6050   21.8700 C   0  0  0  0  0  3  0  0  0  0  0  0
  -23.6380   -8.4070   22.0640 C   0  0  0  0  0  3  0  0  0  0  0  0
  -22.4500   -8.1680   21.3320 C   0  0  0  0  0  0  0  0  0  0  0  0
  -22.0180   -9.1250   20.3960 C   0  0  0  0  0  3  0  0  0  0  0  0
  -22.7420  -10.3140   20.2010 C   0  0  0  0  0  3  0  0  0  0  0  0
  -21.6970   -7.0240   21.4370 O   0  0  0  0  0  0  0  0  0  0  0  0
  -21.6690   -6.2830   22.5910 C   0  0  0  0  0  0  0  0  0  0  0  0
  -21.2420   -6.8340   23.8180 C   0  0  0  0  0  3  0  0  0  0  0  0
  -21.1610   -6.0190   24.9650 C   0  0  0  0  0  3  0  0  0  0  0  0
  -21.4990   -4.6550   24.8860 C   0  0  0  0  0  0  0  0  0  0  0  0
  -21.9210   -4.1040   23.6630 C   0  0  0  0  0  3  0  0  0  0  0  0
  -22.0030   -4.9160   22.5180 C   0  0  0  0  0  0  0  0  0  0  0  0
  -22.3870   -4.3750   21.3370 F   0  0  0  0  0  0  0  0  0  0  0  0
  -21.4160   -3.8700   25.9860 F   0  0  0  0  0  0  0  0  0  0  0  0
  -22.7710  -13.6590   21.0990 C   0  0  0  0  0  0  0  0  0  0  0  0
  -22.0700  -12.9620   21.9860 N   0  0  0  0  0  0  0  0  0  0  0  0
  -22.3190  -14.6850   20.5900 O   0  0  0  0  0  0  0  0  0  0  0  0
  -22.4520  -12.1340   22.4170 H   0  0  0  0  0  0  0  0  0  0  0  0
  -21.1390  -13.2630   22.2370 H   0  0  0  0  0  0  0  0  0  0  0  0
  -25.3640  -15.3370   20.2150 N   0  0  0  0  0  0  0  0  0  0  0  0
  -24.5960  -15.9900   20.3300 H   0  0  0  0  0  0  0  0  0  0  0  0
  -26.1900  -15.7670   19.8210 H   0  0  0  0  0  0  0  0  0  0  0  0
  -28.7100  -22.6700   20.5890 C   0  0  0  0  0  2  0  0  0  0  0  0
  -28.1630  -24.2590   19.8750 C   0  0  0  0  0  2  0  0  0  0  0  0
  -28.2190  -25.8720   20.2980 O   0  0  0  0  0  0  0  0  0  0  0  0
  -24.6210  -31.8540   23.1920 C   0  0  0  0  0  0  0  0  0  0  0  0
  -27.2100  -26.9760   20.1770 C   0  0  0  0  0  0  0  0  0  0  0  0
  -23.4430  -30.4620   21.5370 C   0  0  0  0  0  3  0  0  0  0  0  0
  -24.9070  -28.8670   20.1120 C   0  0  0  0  0  0  0  0  0  0  0  0
  -26.0110  -30.6720   21.4170 C   0  0  0  0  0  2  0  0  0  0  0  0
  -26.0860  -29.2650   20.7510 C   0  0  0  0  0  0  0  0  0  0  0  0
  -27.2280  -28.3400   20.7620 C   0  0  0  0  0  3  0  0  0  0  0  0
  -26.0040  -26.7380   19.4780 C   0  0  0  0  0  3  0  0  0  0  0  0
  -24.8930  -27.6250   19.4520 C   0  0  0  0  0  3  0  0  0  0  0  0
  -23.6850  -29.7870   20.1580 C   0  0  0  0  0  2  0  0  0  0  0  0
  -24.7120  -31.0250   22.1020 N   0  0  0  0  0  0  0  0  0  0  0  0
  -23.5280  -32.1390   23.7080 O   0  0  0  0  0  0  0  0  0  0  0  0
  -22.7420  -29.4620   22.4930 C   0  0  0  0  0  0  0  0  0  0  0  0
  -21.4120  -29.3010   22.3630 N   0  0  0  0  0  0  0  0  0  0  0  0
  -23.4030  -28.8310   23.3200 O   0  0  0  0  0  0  0  0  0  0  0  0
  -20.9310  -29.8620   21.6740 H   0  0  0  0  0  0  0  0  0  0  0  0
  -18.0280  -28.0920   22.8610 C   0  0  0  0  0  0  0  0  0  0  0  0
  -20.5870  -28.3580   23.1280 C   0  0  0  0  0  3  0  0  0  0  0  0
  -20.6890  -26.9280   22.5460 C   0  0  0  0  0  2  0  0  0  0  0  0
  -19.5880  -26.6140   21.5280 C   0  0  0  0  0  2  0  0  0  0  0  0
  -18.2060  -26.7510   22.1710 C   0  0  0  0  0  2  0  0  0  0  0  0
  -19.1460  -28.8540   23.2970 C   0  0  0  0  0  0  0  0  0  0  0  0
  -18.9210  -30.1060   23.9080 C   0  0  0  0  0  3  0  0  0  0  0  0
  -17.6150  -30.6000   24.0850 C   0  0  0  0  0  3  0  0  0  0  0  0
  -16.5120  -29.8360   23.6630 C   0  0  0  0  0  3  0  0  0  0  0  0
  -16.7190  -28.5850   23.0570 C   0  0  0  0  0  3  0  0  0  0  0  0
  -25.8850  -32.4990   23.8350 C   0  0  0  0  0  3  0  0  0  0  0  0
  -25.5650  -33.9010   24.1580 N   0  0  0  0  0  0  0  0  0  0  0  0
  -25.9050  -34.9610   23.4120 C   0  0  0  0  0  0  0  0  0  0  0  0
  -26.5840  -34.8600   22.3890 O   0  0  0  0  0  0  0  0  0  0  0  0
  -24.9580  -34.0500   24.9520 H   0  0  0  0  0  0  0  0  0  0  0  0
  -24.1860  -36.7660   23.0530 C   0  0  0  0  0  1  0  0  0  0  0  0
  -25.4180  -36.3500   23.8720 C   0  0  0  0  0  3  0  0  0  0  0  0
  -27.5440  -37.2320   24.7300 C   0  0  0  0  0  1  0  0  0  0  0  0
  -26.4530  -37.4030   23.7750 N   0  0  0  0  0  0  0  0  0  0  0  0
  -26.0460  -38.3220   23.9210 H   0  0  0  0  0  0  0  0  0  0  0  0
  -26.3720  -31.7430   25.1350 C   0  0  1  0  0  0  0  0  0  0  0  0
  -25.2550  -31.5250   26.1830 C   0  0  0  0  0  1  0  0  0  0  0  0
  -26.9600  -30.3590   24.7850 C   0  0  0  0  0  1  0  0  0  0  0  0
  -27.5100  -32.5450   25.8080 C   0  0  0  0  0  1  0  0  0  0  0  0
  1 10  2  0
  3  5  1  0
  4  2  1  0
  4  9  1  0
  5 19  1  0
  5  1  1  0
  6  3  1  0
  6  7  1  1
  6  2  1  0
  8  6  1  0
  9  1  1  0
  9 49  1  0
 11 19  1  0
 12 17  1  0
 13 14  1  0
 13 12  1  0
 15 14  1  0
 15 24  1  0
 15 16  1  0
 17 11  1  0
 17 16  1  0
 18 11  2  0
 19 20  1  0
 21 22  2  0
 22 41  1  0
 23 22  1  0
 23 26  1  0
 24 25  1  0
 24 21  1  0
 25 23  2  0
 26 27  1  0
 27 28  2  0
 29 32  1  0
 29 28  1  0
 30 29  2  0
 31 30  1  0
 31 26  2  0
 32 33  1  0
 33 34  1  0
 34 35  2  0
 36 35  1  0
 36 40  1  0
 37 36  2  0
 38 33  2  0
 38 37  1  0
 39 38  1  0
 41 42  1  0
 42 45  1  0
 42 44  1  0
 43 41  2  0
 46 47  1  0
 46 21  1  0
 48 46  1  0
 50 51  1  0
 50 49  1  0
 52 63  2  0
 53 51  1  0
 53 58  1  0
 54 62  1  0
 54 64  1  0
 55 61  1  0
 55 57  1  0
 56 62  1  0
 57 58  2  0
 57 56  1  0
 59 53  2  0
 60 59  1  0
 60 55  2  0
 61 54  1  0
 62 52  1  0
 64 66  2  0
 65 64  1  0
 67 65  1  0
 68 77  2  0
 68 73  1  0
 69 65  1  0
 69 73  1  0
 70 69  1  0
 71 72  1  0
 71 70  1  0
 72 68  1  0
 73 74  2  0
 74 75  1  0
 76 75  2  0
 77 76  1  0
 78 52  1  0
 78 79  1  0
 78 88  1  0
 79 82  1  0
 80 84  1  0
 80 79  1  0
 81 80  2  0
 84 83  1  0
 86 84  1  0
 86 87  1  0
 86 85  1  0
 88 91  1  1
 88 89  1  0
 90 88  1  0
M  ISO  4  11 100  19 100  50 101  51 101
M  END
>  <TORSDO>  (10) 
F 18

>  <SCORE>  (10) 
-16.043

>  <name>  (10) 
9

>  <ligand_id>  (10) 
9

>  <original_smiles>  (10) 
[H]c1c([H])c([H])c2c(c1[H])C([H])([H])C([H])([H])C([H])([H])C2([H])N([H])C(=O)C1([H])N(C(=O)C([H])(N([H])C(=O)C([H])(N([H])C([H])([H])[H])C([H])([H])[H])C(C([H])([H])[H])(C([H])([H])[H])C([H])([H])[H])C([H])([H])c2c([H])c(OC([H])([H])C([H])([H])N3C(=O)C([H])(N([H])C(=O)N4C([H])([H])C([H])([H])C([H])([H])C([H])(n5nc(-c6c([H])c([H])c(Oc7c([H])c([H])c(F)c([H])c7F)c([H])c6[H])c(C(=O)N([H])[H])c5N([H])[H])C4([H])[H])C([H])([H])C(C([H])([H])[H])(C([H])([H])[H])C([H])([H])C3([H])[H])c([H])c([H])c2C1([H])[H]

>  <smiles>  (10) 
[H]c1c([H])c([H])c2c(c1[H])C([H])([H])C([H])([H])C([H])([H])C2([H])N([H])C(=O)C1([H])N(C(=O)C([H])(N([H])C(=O)C([H])(N([H])C([H])([H])[H])C([H])([H])[H])C(C([H])([H])[H])(C([H])([H])[H])C([H])([H])[H])C([H])([H])c2c([H])c(OC([H])([H])C([H])([H])N3C(=O)C([H])(N([H])C(=O)N4C([H])([H])C([H])([H])C([H])([H])C([H])(n5nc(-c6c([H])c([H])c(Oc7c([H])c([H])c(F)c([H])c7F)c([H])c6[H])c(C(=O)N([H])[H])c5N([H])[H])C4([H])[H])C([H])([H])C(C([H])([H])[H])(C([H])([H])[H])C([H])([H])C3([H])[H])c([H])c([H])c2C1([H])[H]

$$$$
10:0:0
     RDKit          3D

 90 99  0  0  1  0  0  0  0  0999 V2000
  -27.5870  -19.9410   20.8540 C   0  0  0  0  0  2  0  0  0  0  0  0
  -28.4460  -18.6770   20.9250 C   0  0  0  0  0  2  0  0  0  0  0  0
  -29.5460  -17.8710   18.6780 C   0  0  0  0  0  2  0  0  0  0  0  0
  -28.4270  -21.1520   21.2650 C   0  0  0  0  0  2  0  0  0  0  0  0
  -30.2680  -20.1510   19.8280 C   0  0  0  0  0  2  0  0  0  0  0  0
  -30.4410  -17.3770   19.7800 C   0  0  0  0  0  3  0  0  0  0  0  0
  -29.6070  -18.7100   19.9430 C   0  0  1  0  0  0  0  0  0  0  0  0
  -29.5370  -21.4070   20.3120 N   0  0  1  0  0  4  0  0  0  0  0  0
  -30.2460  -21.8310   20.8910 H   0  0  0  0  0  0  0  0  0  0  0  0
  -30.1420  -15.9720   20.4280 C   0  0  0  0  0  2  0  0  0  0  0  0
  -30.8640  -14.6940   19.8380 C   0  0  0  0  0  0  0  0  0  0  0  0
  -30.6130  -12.4350   18.8230 C   0  0  0  0  0  2  0  0  0  0  0  0
  -29.6130  -12.5380   17.6490 C   0  0  0  0  0  2  0  0  0  0  0  0
  -28.1620  -12.3890   18.1500 C   0  0  0  0  0  2  0  0  0  0  0  0
  -27.8640  -13.2820   19.3860 C   0  0  0  0  0  3  0  0  0  0  0  0
  -28.9710  -13.1420   20.4520 C   0  0  0  0  0  2  0  0  0  0  0  0
  -30.2500  -13.4700   19.8100 N   0  0  0  0  0  0  0  0  0  0  0  0
  -31.9740  -14.8430   19.3150 O   0  0  0  0  0  0  0  0  0  0  0  0
  -25.5220  -13.9070   20.2430 C   0  0  0  0  0  0  0  0  0  0  0  0
  -24.4670  -13.1460   20.6650 C   0  0  0  0  0  0  0  0  0  0  0  0
  -24.9060  -11.7880   20.5940 C   0  0  0  0  0  0  0  0  0  0  0  0
  -26.5390  -13.0160   19.9410 N   0  0  0  0  0  0  0  0  0  0  0  0
  -26.1760  -11.7340   20.2090 N   0  0  0  0  0  0  0  0  0  0  0  0
  -24.1740  -10.5340   20.8160 C   0  0  0  0  0  0  0  0  0  0  0  0
  -24.6050   -9.5900   21.7710 C   0  0  0  0  0  3  0  0  0  0  0  0
  -23.8760   -8.3980   21.9790 C   0  0  0  0  0  3  0  0  0  0  0  0
  -22.7040   -8.1430   21.2280 C   0  0  0  0  0  0  0  0  0  0  0  0
  -22.2920   -9.0780   20.2620 C   0  0  0  0  0  3  0  0  0  0  0  0
  -23.0210  -10.2600   20.0540 C   0  0  0  0  0  3  0  0  0  0  0  0
  -21.9460   -7.0020   21.3430 O   0  0  0  0  0  0  0  0  0  0  0  0
  -21.8430   -6.3240   22.5300 C   0  0  0  0  0  0  0  0  0  0  0  0
  -21.3320   -6.9350   23.6970 C   0  0  0  0  0  3  0  0  0  0  0  0
  -21.1780   -6.1800   24.8770 C   0  0  0  0  0  3  0  0  0  0  0  0
  -21.5230   -4.8150   24.8910 C   0  0  0  0  0  0  0  0  0  0  0  0
  -22.0260   -4.2030   23.7280 C   0  0  0  0  0  3  0  0  0  0  0  0
  -22.1830   -4.9550   22.5520 C   0  0  0  0  0  0  0  0  0  0  0  0
  -22.6480   -4.3560   21.4300 F   0  0  0  0  0  0  0  0  0  0  0  0
  -21.3680   -4.0880   26.0230 F   0  0  0  0  0  0  0  0  0  0  0  0
  -23.0950  -13.6390   21.0240 C   0  0  0  0  0  0  0  0  0  0  0  0
  -22.4130  -12.9500   21.9310 N   0  0  0  0  0  0  0  0  0  0  0  0
  -22.6380  -14.6720   20.5350 O   0  0  0  0  0  0  0  0  0  0  0  0
  -22.7990  -12.1150   22.3480 H   0  0  0  0  0  0  0  0  0  0  0  0
  -21.4930  -13.2580   22.2140 H   0  0  0  0  0  0  0  0  0  0  0  0
  -25.6960  -15.2760   20.0720 N   0  0  0  0  0  0  0  0  0  0  0  0
  -24.9440  -15.9380   20.2350 H   0  0  0  0  0  0  0  0  0  0  0  0
  -26.5350  -15.7080   19.7060 H   0  0  0  0  0  0  0  0  0  0  0  0
  -29.2370  -22.5280   19.3280 C   0  0  0  0  0  2  0  0  0  0  0  0
  -29.2690  -24.0200   19.9050 C   0  0  0  0  0  3  0  0  0  0  0  0
  -28.4080  -25.1110   19.1450 C   0  0  0  0  0  3  0  0  0  0  0  0
  -28.5060  -26.5360   19.5460 O   0  0  0  0  0  0  0  0  0  0  0  0
  -24.6860  -31.5840   23.0000 C   0  0  0  0  0  0  0  0  0  0  0  0
  -27.3530  -27.3390   19.5590 C   0  0  0  0  0  0  0  0  0  0  0  0
  -23.4800  -30.2490   21.3090 C   0  0  0  0  0  3  0  0  0  0  0  0
  -24.9350  -28.8580   19.7370 C   0  0  0  0  0  0  0  0  0  0  0  0
  -26.0000  -30.6730   21.0750 C   0  0  0  0  0  2  0  0  0  0  0  0
  -26.1040  -29.3460   20.3350 C   0  0  0  0  0  0  0  0  0  0  0  0
  -27.3120  -28.5920   20.2460 C   0  0  0  0  0  3  0  0  0  0  0  0
  -26.1620  -26.9280   18.9150 C   0  0  0  0  0  3  0  0  0  0  0  0
  -24.9640  -27.6550   19.0210 C   0  0  0  0  0  3  0  0  0  0  0  0
  -23.6720  -29.6790   19.8810 C   0  0  0  0  0  2  0  0  0  0  0  0
  -24.7430  -30.8490   21.8510 N   0  0  0  0  0  0  0  0  0  0  0  0
  -23.6110  -31.7840   23.5830 O   0  0  0  0  0  0  0  0  0  0  0  0
  -22.8890  -29.1440   22.2180 C   0  0  0  0  0  0  0  0  0  0  0  0
  -21.5730  -28.8990   22.0950 N   0  0  0  0  0  0  0  0  0  0  0  0
  -23.6120  -28.5120   22.9930 O   0  0  0  0  0  0  0  0  0  0  0  0
  -21.0460  -29.4670   21.4470 H   0  0  0  0  0  0  0  0  0  0  0  0
  -18.2810  -27.4720   22.5410 C   0  0  0  0  0  0  0  0  0  0  0  0
  -20.8180  -27.8810   22.8250 C   0  0  0  0  0  3  0  0  0  0  0  0
  -21.0090  -26.4840   22.1940 C   0  0  0  0  0  2  0  0  0  0  0  0
  -19.9300  -26.1340   21.1630 C   0  0  0  0  0  2  0  0  0  0  0  0
  -18.5420  -26.1670   21.8080 C   0  0  0  0  0  2  0  0  0  0  0  0
  -19.3500  -28.2840   23.0050 C   0  0  0  0  0  0  0  0  0  0  0  0
  -19.0520  -29.5040   23.6520 C   0  0  0  0  0  3  0  0  0  0  0  0
  -17.7180  -29.9150   23.8340 C   0  0  0  0  0  3  0  0  0  0  0  0
  -16.6640  -29.1010   23.3860 C   0  0  0  0  0  3  0  0  0  0  0  0
  -16.9470  -27.8790   22.7470 C   0  0  0  0  0  3  0  0  0  0  0  0
  -25.9650  -32.2240   23.6200 C   0  0  0  0  0  3  0  0  0  0  0  0
  -26.5350  -31.4080   24.8440 C   0  0  1  0  0  0  0  0  0  0  0  0
  -25.4780  -31.0880   25.9260 C   0  0  0  0  0  1  0  0  0  0  0  0
  -27.1470  -30.0680   24.3730 C   0  0  0  0  0  1  0  0  0  0  0  0
  -27.6810  -32.2020   25.5140 C   0  0  0  0  0  1  0  0  0  0  0  0
  -25.6220  -33.5930   24.0260 N   0  0  0  0  0  0  0  0  0  0  0  0
  -25.9090  -34.6930   23.3180 C   0  0  0  0  0  0  0  0  0  0  0  0
  -26.5610  -34.6620   22.2710 O   0  0  0  0  0  0  0  0  0  0  0  0
  -25.0390  -33.6900   24.8450 H   0  0  0  0  0  0  0  0  0  0  0  0
  -24.1200  -36.4470   23.0900 C   0  0  0  0  0  1  0  0  0  0  0  0
  -25.3920  -36.0420   23.8540 C   0  0  0  0  0  3  0  0  0  0  0  0
  -27.5120  -36.9540   24.6890 C   0  0  0  0  0  1  0  0  0  0  0  0
  -26.3900  -37.1300   23.7710 N   0  0  0  0  0  0  0  0  0  0  0  0
  -25.9600  -38.0300   23.9660 H   0  0  0  0  0  0  0  0  0  0  0  0
  1  2  1  0
  1  4  1  0
  3  6  1  0
  7  5  1  6
  5  8  1  0
  6  7  1  0
  6 10  1  0
  7  3  1  0
  7  2  1  0
  8  9  1  1
  8  4  1  0
 11 10  1  0
 12 17  1  0
 13 14  1  0
 13 12  1  0
 15 14  1  0
 15 22  1  0
 15 16  1  0
 17 11  1  0
 17 16  1  0
 18 11  2  0
 19 20  2  0
 20 39  1  0
 21 20  1  0
 21 24  1  0
 22 23  1  0
 22 19  1  0
 23 21  2  0
 24 25  1  0
 25 26  2  0
 27 30  1  0
 27 26  1  0
 28 27  2  0
 29 28  1  0
 29 24  2  0
 30 31  1  0
 31 36  2  0
 31 32  1  0
 32 33  2  0
 33 34  1  0
 34 38  1  0
 35 34  2  0
 36 35  1  0
 37 36  1  0
 39 40  1  0
 40 43  1  0
 40 42  1  0
 41 39  2  0
 44 45  1  0
 44 19  1  0
 46 44  1  0
 47 48  1  0
 47  8  1  0
 49 50  1  0
 49 48  2  0
 50 52  1  0
 51 62  2  0
 52 57  1  0
 53 61  1  0
 53 63  1  0
 54 60  1  0
 54 56  1  0
 55 61  1  0
 56 55  1  0
 57 56  2  0
 58 59  1  0
 58 52  2  0
 59 54  2  0
 60 53  1  0
 61 51  1  0
 63 65  2  0
 64 63  1  0
 66 64  1  0
 67 76  2  0
 67 72  1  0
 68 64  1  0
 68 72  1  0
 69 68  1  0
 70 71  1  0
 70 69  1  0
 71 67  1  0
 72 73  2  0
 73 74  1  0
 75 74  2  0
 76 75  1  0
 77 51  1  0
 77 82  1  0
 77 78  1  0
 78 81  1  1
 78 79  1  0
 80 78  1  0
 82 85  1  0
 83 87  1  0
 83 82  1  0
 84 83  2  0
 87 86  1  0
 89 87  1  0
 89 90  1  0
 89 88  1  0
M  ISO  4  10 100  11 100  49 101  50 101
M  END
>  <TORSDO>  (11) 
F 20

>  <SCORE>  (11) 
-11.639

>  <name>  (11) 
10

>  <ligand_id>  (11) 
10

>  <original_smiles>  (11) 
[H]c1c([H])c([H])c2c(c1[H])C([H])([H])C([H])([H])C([H])([H])C2([H])N([H])C(=O)C1([H])N(C(=O)C([H])(N([H])C(=O)C([H])(N([H])C([H])([H])[H])C([H])([H])[H])C(C([H])([H])[H])(C([H])([H])[H])C([H])([H])[H])C([H])([H])c2c([H])c(OC([H])([H])C([H])([H])C([H])([H])[N+]3([H])C([H])([H])C([H])([H])C([H])([H])C4(C([H])([H])C4([H])C([H])([H])C(=O)N4C([H])([H])C([H])([H])C([H])([H])C([H])(n5nc(-c6c([H])c([H])c(Oc7c([H])c([H])c(F)c([H])c7F)c([H])c6[H])c(C(=O)N([H])[H])c5N([H])[H])C4([H])[H])C3([H])[H])c([H])c([H])c2C1([H])[H]

>  <smiles>  (11) 
[H]c1c([H])c([H])c2c(c1[H])C([H])([H])C([H])([H])C([H])([H])C2([H])N([H])C(=O)C1([H])N(C(=O)C([H])(N([H])C(=O)C([H])(N([H])C([H])([H])[H])C([H])([H])[H])C(C([H])([H])[H])(C([H])([H])[H])C([H])([H])[H])C([H])([H])c2c([H])c(OC([H])([H])C([H])([H])C([H])([H])[N+]3([H])C([H])([H])C([H])([H])C([H])([H])C4(C([H])([H])C4([H])C([H])([H])C(=O)N4C([H])([H])C([H])([H])C([H])([H])C([H])(n5nc(-c6c([H])c([H])c(Oc7c([H])c([H])c(F)c([H])c7F)c([H])c6[H])c(C(=O)N([H])[H])c5N([H])[H])C4([H])[H])C3([H])[H])c([H])c([H])c2C1([H])[H]

$$$$
11:0:0
     RDKit          3D

 89 94  0  0  1  0  0  0  0  0999 V2000
  -29.4600  -19.3420   19.9760 C   0  0  0  0  0  2  0  0  0  0  0  0
  -29.1220  -21.4530   20.1200 C   0  0  0  0  0  1  0  0  0  0  0  0
  -29.4450  -21.7320   18.6310 C   0  0  0  0  0  3  0  0  0  0  0  0
  -30.4170  -19.4230   18.7550 C   0  0  1  0  0  0  0  0  0  0  0  0
  -29.9180  -23.1600   18.2340 C   0  0  0  0  0  1  0  0  0  0  0  0
  -31.8780  -19.1150   19.1660 C   0  0  0  0  0  1  0  0  0  0  0  0
  -29.9160  -18.5200   17.5990 C   0  0  0  0  0  1  0  0  0  0  0  0
  -29.3730  -17.8170   20.4370 N   0  0  0  0  0  2  0  0  0  0  0  0
  -30.4790  -20.7910   18.2040 N   0  0  0  0  0  4  0  0  0  0  0  0
  -31.3590  -21.1780   18.5020 H   0  0  0  0  0  0  0  0  0  0  0  0
  -30.5030  -20.7520   17.1960 H   0  0  0  0  0  0  0  0  0  0  0  0
  -30.1020  -16.2150   20.1990 C   0  0  0  0  0  0  0  0  0  0  0  0
  -30.3200  -13.5320   19.4740 C   0  0  0  0  0  2  0  0  0  0  0  0
  -29.4940  -12.9660   18.2690 C   0  0  0  0  0  2  0  0  0  0  0  0
  -28.1050  -12.5050   18.7220 C   0  0  0  0  0  2  0  0  0  0  0  0
  -27.5230  -13.5080   19.7370 C   0  0  0  0  0  3  0  0  0  0  0  0
  -28.5090  -14.0180   20.8310 C   0  0  0  0  0  2  0  0  0  0  0  0
  -29.6350  -14.7620   20.1810 N   0  0  0  0  0  0  0  0  0  0  0  0
  -31.3120  -16.0230   19.9350 O   0  0  0  0  0  0  0  0  0  0  0  0
  -25.1700  -13.9500   20.5300 C   0  0  0  0  0  0  0  0  0  0  0  0
  -24.1270  -13.1450   20.8910 C   0  0  0  0  0  0  0  0  0  0  0  0
  -24.6230  -11.8050   20.8460 C   0  0  0  0  0  0  0  0  0  0  0  0
  -26.2280  -13.1060   20.2690 N   0  0  0  0  0  0  0  0  0  0  0  0
  -25.9190  -11.8040   20.5230 N   0  0  0  0  0  0  0  0  0  0  0  0
  -23.9140  -10.5280   21.0270 C   0  0  0  0  0  0  0  0  0  0  0  0
  -24.3410   -9.5660   21.9680 C   0  0  0  0  0  3  0  0  0  0  0  0
  -23.6230   -8.3640   22.1410 C   0  0  0  0  0  3  0  0  0  0  0  0
  -22.4610   -8.1110   21.3730 C   0  0  0  0  0  0  0  0  0  0  0  0
  -22.0520   -9.0620   20.4190 C   0  0  0  0  0  3  0  0  0  0  0  0
  -22.7730  -10.2570   20.2460 C   0  0  0  0  0  3  0  0  0  0  0  0
  -21.7150   -6.9600   21.4520 O   0  0  0  0  0  0  0  0  0  0  0  0
  -21.6360   -6.2310   22.6130 C   0  0  0  0  0  0  0  0  0  0  0  0
  -21.1310   -6.7870   23.8070 C   0  0  0  0  0  3  0  0  0  0  0  0
  -21.0070   -5.9850   24.9600 C   0  0  0  0  0  3  0  0  0  0  0  0
  -21.3720   -4.6260   24.9150 C   0  0  0  0  0  0  0  0  0  0  0  0
  -21.8670   -4.0680   23.7230 C   0  0  0  0  0  3  0  0  0  0  0  0
  -21.9960   -4.8690   22.5750 C   0  0  0  0  0  0  0  0  0  0  0  0
  -22.4540   -4.3210   21.4230 F   0  0  0  0  0  0  0  0  0  0  0  0
  -21.2460   -3.8510   26.0190 F   0  0  0  0  0  0  0  0  0  0  0  0
  -22.7230  -13.5950   21.1640 C   0  0  0  0  0  0  0  0  0  0  0  0
  -22.0090  -12.8870   22.0300 N   0  0  0  0  0  0  0  0  0  0  0  0
  -22.2720  -14.6160   20.6450 O   0  0  0  0  0  0  0  0  0  0  0  0
  -22.3920  -12.0610   22.4670 H   0  0  0  0  0  0  0  0  0  0  0  0
  -21.0680  -13.1690   22.2610 H   0  0  0  0  0  0  0  0  0  0  0  0
  -25.3060  -15.3260   20.3620 N   0  0  0  0  0  0  0  0  0  0  0  0
  -24.5350  -15.9730   20.4790 H   0  0  0  0  0  0  0  0  0  0  0  0
  -26.1640  -15.7750   20.0630 H   0  0  0  0  0  0  0  0  0  0  0  0
  -28.0430  -23.2570   20.4280 C   0  0  0  0  0 15  0  0  0  0  0  0
  -28.0960  -25.1780   20.3680 O   0  0  0  0  0  1  0  0  0  0  0  0
  -24.6250  -31.8820   23.1850 C   0  0  0  0  0  0  0  0  0  0  0  0
  -27.1440  -26.5140   20.3300 C   0  0  0  0  0  0  0  0  0  0  0  0
  -23.4470  -30.4420   21.5830 C   0  0  0  0  0  3  0  0  0  0  0  0
  -24.8970  -28.7160   20.2170 C   0  0  0  0  0  0  0  0  0  0  0  0
  -26.0350  -30.5150   21.4780 C   0  0  0  0  0  2  0  0  0  0  0  0
  -26.0990  -29.0370   20.8570 C   0  0  0  0  0  0  0  0  0  0  0  0
  -27.1930  -27.9740   20.8720 C   0  0  0  0  0  3  0  0  0  0  0  0
  -25.9020  -26.4760   19.6240 C   0  0  0  0  0  3  0  0  0  0  0  0
  -24.8540  -27.4640   19.5750 C   0  0  0  0  0  3  0  0  0  0  0  0
  -23.7000  -29.6980   20.2350 C   0  0  0  0  0  2  0  0  0  0  0  0
  -24.7300  -30.9870   22.1330 N   0  0  0  0  0  0  0  0  0  0  0  0
  -23.5270  -32.1970   23.6790 O   0  0  0  0  0  0  0  0  0  0  0  0
  -22.7140  -29.5020   22.5800 C   0  0  0  0  0  0  0  0  0  0  0  0
  -21.3790  -29.3480   22.4570 N   0  0  0  0  0  0  0  0  0  0  0  0
  -23.3610  -28.9060   23.4440 O   0  0  0  0  0  0  0  0  0  0  0  0
  -20.9050  -29.8730   21.7360 H   0  0  0  0  0  0  0  0  0  0  0  0
  -17.9950  -28.1120   22.9850 C   0  0  0  0  0  0  0  0  0  0  0  0
  -20.5510  -28.4220   23.2440 C   0  0  0  0  0  3  0  0  0  0  0  0
  -20.6710  -26.9780   22.7080 C   0  0  0  0  0  2  0  0  0  0  0  0
  -19.5820  -26.6190   21.6930 C   0  0  0  0  0  2  0  0  0  0  0  0
  -18.1940  -26.7550   22.3290 C   0  0  0  0  0  2  0  0  0  0  0  0
  -19.1020  -28.9030   23.3960 C   0  0  0  0  0  0  0  0  0  0  0  0
  -18.8600  -30.1660   23.9770 C   0  0  0  0  0  3  0  0  0  0  0  0
  -17.5480  -30.6440   24.1410 C   0  0  0  0  0  3  0  0  0  0  0  0
  -16.4560  -29.8560   23.7370 C   0  0  0  0  0  3  0  0  0  0  0  0
  -16.6790  -28.5890   23.1690 C   0  0  0  0  0  3  0  0  0  0  0  0
  -25.8760  -32.5580   23.8220 C   0  0  0  0  0  3  0  0  0  0  0  0
  -25.5350  -33.9620   24.1470 N   0  0  0  0  0  0  0  0  0  0  0  0
  -25.8520  -35.0330   23.4030 C   0  0  0  0  0  0  0  0  0  0  0  0
  -26.5130  -34.9440   22.3670 O   0  0  0  0  0  0  0  0  0  0  0  0
  -24.9470  -34.0980   24.9560 H   0  0  0  0  0  0  0  0  0  0  0  0
  -24.1070  -36.8300   23.0930 C   0  0  0  0  0  1  0  0  0  0  0  0
  -25.3640  -36.4230   23.8780 C   0  0  0  0  0  3  0  0  0  0  0  0
  -27.5030  -37.3340   24.6790 C   0  0  0  0  0  1  0  0  0  0  0  0
  -26.3860  -37.4870   23.7520 N   0  0  0  0  0  0  0  0  0  0  0  0
  -25.9730  -38.4040   23.9020 H   0  0  0  0  0  0  0  0  0  0  0  0
  -26.3720  -31.8240   25.1310 C   0  0  1  0  0  0  0  0  0  0  0  0
  -25.2650  -31.6100   26.1920 C   0  0  0  0  0  1  0  0  0  0  0  0
  -26.9670  -30.4390   24.7980 C   0  0  0  0  0  1  0  0  0  0  0  0
  -27.5100  -32.6380   25.7920 C   0  0  0  0  0  1  0  0  0  0  0  0
  1  8  1  0
  3  2  1  0
  4  6  1  1
  4  1  1  0
  5  3  1  0
  7  4  1  0
  9 10  1  0
  9  3  1  0
  9  4  1  0
 11  9  1  0
 12  8  1  0
 13 18  1  0
 14 15  1  0
 14 13  1  0
 16 15  1  0
 16 23  1  0
 16 17  1  0
 18 12  1  0
 18 17  1  0
 19 12  2  0
 20 21  2  0
 21 40  1  0
 22 21  1  0
 22 25  1  0
 23 24  1  0
 23 20  1  0
 24 22  2  0
 25 26  1  0
 26 27  2  0
 28 31  1  0
 28 27  1  0
 29 28  2  0
 30 29  1  0
 30 25  2  0
 31 32  1  0
 32 33  1  0
 33 34  2  0
 35 34  1  0
 35 39  1  0
 36 35  2  0
 37 32  2  0
 37 36  1  0
 38 37  1  0
 40 41  1  0
 41 44  1  0
 41 43  1  0
 42 40  2  0
 45 46  1  0
 45 20  1  0
 47 45  1  0
 50 61  2  0
 51 49  1  0
 51 56  1  0
 52 60  1  0
 52 62  1  0
 53 59  1  0
 53 55  1  0
 54 60  1  0
 55 56  2  0
 55 54  1  0
 57 51  2  0
 58 57  1  0
 58 53  2  0
 59 52  1  0
 60 50  1  0
 62 64  2  0
 63 62  1  0
 65 63  1  0
 66 75  2  0
 66 71  1  0
 67 63  1  0
 67 71  1  0
 68 67  1  0
 69 70  1  0
 69 68  1  0
 70 66  1  0
 71 72  2  0
 72 73  1  0
 74 73  2  0
 75 74  1  0
 76 50  1  0
 76 77  1  0
 76 86  1  0
 77 80  1  0
 78 82  1  0
 78 77  1  0
 79 78  2  0
 82 81  1  0
 84 82  1  0
 84 85  1  0
 84 83  1  0
 86 89  1  1
 86 87  1  0
 88 86  1  0
M  ISO  4   8 100  12 100  48 101  49 101
M  END
>  <TORSDO>  (12) 
F 17

>  <SCORE>  (12) 
-16.475

>  <name>  (12) 
11

>  <ligand_id>  (12) 
11

>  <original_smiles>  (12) 
[H]c1c([H])c([H])c2c(c1[H])C([H])([H])C([H])([H])C([H])([H])C2([H])N([H])C(=O)C1([H])N(C(=O)C([H])(N([H])C(=O)C([H])(N([H])C([H])([H])[H])C([H])([H])[H])C(C([H])([H])[H])(C([H])([H])[H])C([H])([H])[H])C([H])([H])c2c([H])c(OC([H])([H])C3([H])C(=NC(=O)N4C([H])([H])C([H])([H])C([H])([H])C([H])(n5nc(-c6c([H])c([H])c(Oc7c([H])c([H])c(F)c([H])c7F)c([H])c6[H])c(C(=O)N([H])[H])c5N([H])[H])C4([H])[H])C(C([H])([H])[H])(C([H])([H])[H])[N+]([H])([H])C3([H])C([H])([H])[H])c([H])c([H])c2C1([H])[H]

>  <smiles>  (12) 
[H]c1c([H])c([H])c2c(c1[H])C([H])([H])C([H])([H])C([H])([H])C2([H])N([H])C(=O)C1([H])N(C(=O)C([H])(N([H])C(=O)C([H])(N([H])C([H])([H])[H])C([H])([H])[H])C(C([H])([H])[H])(C([H])([H])[H])C([H])([H])[H])C([H])([H])c2c([H])c(OC([H])([H])C3([H])C(=NC(=O)N4C([H])([H])C([H])([H])C([H])([H])C([H])(n5nc(-c6c([H])c([H])c(Oc7c([H])c([H])c(F)c([H])c7F)c([H])c6[H])c(C(=O)N([H])[H])c5N([H])[H])C4([H])[H])C(C([H])([H])[H])(C([H])([H])[H])[N+]([H])([H])C3([H])C([H])([H])[H])c([H])c([H])c2C1([H])[H]

$$$$
12:0:0
     RDKit          3D

 90 97  0  0  1  0  0  0  0  0999 V2000
  -29.0340  -22.5160   19.8830 N   0  0  0  0  0  4  0  0  0  0  0  0
  -29.8630  -22.4540   19.3090 H   0  0  0  0  0  0  0  0  0  0  0  0
  -28.2620  -22.4300   19.2420 H   0  0  0  0  0  0  0  0  0  0  0  0
  -27.6080  -20.9590   21.2350 C   0  0  0  0  0  1  0  0  0  0  0  0
  -29.0360  -21.2480   20.7300 C   0  0  0  0  0  3  0  0  0  0  0  0
  -29.6170  -19.9520   20.0100 C   0  0  0  0  0  0  0  0  0  0  0  0
  -29.6240  -18.7160   20.6170 N   0  0  0  0  0  0  0  0  0  0  0  0
  -30.0780  -20.0870   18.8750 O   0  0  0  0  0  0  0  0  0  0  0  0
  -29.2190  -18.6730   21.5420 H   0  0  0  0  0  0  0  0  0  0  0  0
  -30.1940  -17.4190   20.0760 C   0  0  0  0  0  3  0  0  0  0  0  0
  -29.9120  -16.0550   20.8680 C   0  0  0  0  0  3  0  0  0  0  0  0
  -30.6670  -14.7320   20.3950 C   0  0  0  0  0  0  0  0  0  0  0  0
  -30.4590  -12.4860   19.3310 C   0  0  0  0  0  2  0  0  0  0  0  0
  -29.5330  -12.6170   18.1030 C   0  0  0  0  0  2  0  0  0  0  0  0
  -28.0540  -12.4650   18.5120 C   0  0  0  0  0  2  0  0  0  0  0  0
  -27.6840  -13.3270   19.7480 C   0  0  0  0  0  3  0  0  0  0  0  0
  -28.7310  -13.1740   20.8740 C   0  0  0  0  0  2  0  0  0  0  0  0
  -30.0450  -13.5110   20.3140 N   0  0  0  0  0  0  0  0  0  0  0  0
  -31.8290  -14.8500   19.9970 O   0  0  0  0  0  0  0  0  0  0  0  0
  -25.2790  -13.9260   20.4270 C   0  0  0  0  0  0  0  0  0  0  0  0
  -24.2100  -13.1550   20.7930 C   0  0  0  0  0  0  0  0  0  0  0  0
  -24.6750  -11.8050   20.7890 C   0  0  0  0  0  0  0  0  0  0  0  0
  -26.3300  -13.0460   20.2200 N   0  0  0  0  0  0  0  0  0  0  0  0
  -25.9720  -11.7660   20.4990 N   0  0  0  0  0  0  0  0  0  0  0  0
  -23.9480  -10.5440   20.9860 C   0  0  0  0  0  0  0  0  0  0  0  0
  -24.3760   -9.5860   21.9320 C   0  0  0  0  0  3  0  0  0  0  0  0
  -23.6500   -8.3890   22.1170 C   0  0  0  0  0  3  0  0  0  0  0  0
  -22.4810   -8.1450   21.3570 C   0  0  0  0  0  0  0  0  0  0  0  0
  -22.0730   -9.0900   20.4010 C   0  0  0  0  0  3  0  0  0  0  0  0
  -22.8000  -10.2780   20.2140 C   0  0  0  0  0  3  0  0  0  0  0  0
  -21.7260   -7.0010   21.4530 O   0  0  0  0  0  0  0  0  0  0  0  0
  -21.6780   -6.2640   22.6090 C   0  0  0  0  0  0  0  0  0  0  0  0
  -21.2590   -6.8230   23.8350 C   0  0  0  0  0  3  0  0  0  0  0  0
  -21.1610   -6.0120   24.9820 C   0  0  0  0  0  3  0  0  0  0  0  0
  -21.4680   -4.6410   24.9040 C   0  0  0  0  0  0  0  0  0  0  0  0
  -21.8790   -4.0790   23.6820 C   0  0  0  0  0  3  0  0  0  0  0  0
  -21.9800   -4.8890   22.5370 C   0  0  0  0  0  0  0  0  0  0  0  0
  -22.3560   -4.3380   21.3570 F   0  0  0  0  0  0  0  0  0  0  0  0
  -21.3640   -3.8580   26.0040 F   0  0  0  0  0  0  0  0  0  0  0  0
  -22.8080  -13.6330   21.0360 C   0  0  0  0  0  0  0  0  0  0  0  0
  -22.0680  -12.9490   21.9010 N   0  0  0  0  0  0  0  0  0  0  0  0
  -22.3760  -14.6500   20.4920 O   0  0  0  0  0  0  0  0  0  0  0  0
  -22.4300  -12.1290   22.3680 H   0  0  0  0  0  0  0  0  0  0  0  0
  -21.1250  -13.2480   22.1030 H   0  0  0  0  0  0  0  0  0  0  0  0
  -25.4390  -15.2940   20.2340 N   0  0  0  0  0  0  0  0  0  0  0  0
  -24.6630  -15.9420   20.3240 H   0  0  0  0  0  0  0  0  0  0  0  0
  -26.2890  -15.7400   19.9140 H   0  0  0  0  0  0  0  0  0  0  0  0
  -29.0120  -23.8980   20.5490 C   0  0  0  0  0  3  0  0  0  0  0  0
  -28.2160  -25.0530   19.7830 C   0  0  0  0  0  3  0  0  0  0  0  0
  -28.3490  -26.4890   20.1770 O   0  0  0  0  0  0  0  0  0  0  0  0
  -24.6190  -31.8880   23.2120 C   0  0  0  0  0  0  0  0  0  0  0  0
  -27.2350  -27.3520   20.1030 C   0  0  0  0  0  0  0  0  0  0  0  0
  -23.4180  -30.5000   21.5640 C   0  0  0  0  0  3  0  0  0  0  0  0
  -24.8690  -28.9730   20.1180 C   0  0  0  0  0  0  0  0  0  0  0  0
  -25.9580  -30.8220   21.3840 C   0  0  0  0  0  2  0  0  0  0  0  0
  -26.0380  -29.4480   20.7240 C   0  0  0  0  0  0  0  0  0  0  0  0
  -27.2220  -28.6470   20.7140 C   0  0  0  0  0  3  0  0  0  0  0  0
  -26.0480  -26.9550   19.4420 C   0  0  0  0  0  3  0  0  0  0  0  0
  -24.8780  -27.7320   19.4680 C   0  0  0  0  0  3  0  0  0  0  0  0
  -23.6300  -29.8400   20.1770 C   0  0  0  0  0  2  0  0  0  0  0  0
  -24.6840  -31.0870   22.1090 N   0  0  0  0  0  0  0  0  0  0  0  0
  -23.5350  -32.1580   23.7510 O   0  0  0  0  0  0  0  0  0  0  0  0
  -22.7620  -29.4710   22.5160 C   0  0  0  0  0  0  0  0  0  0  0  0
  -21.4350  -29.2910   22.3900 N   0  0  0  0  0  0  0  0  0  0  0  0
  -23.4430  -28.8380   23.3250 O   0  0  0  0  0  0  0  0  0  0  0  0
  -20.9400  -29.8550   21.7130 H   0  0  0  0  0  0  0  0  0  0  0  0
  -18.0640  -28.0770   22.8850 C   0  0  0  0  0  0  0  0  0  0  0  0
  -20.6210  -28.3450   23.1560 C   0  0  0  0  0  3  0  0  0  0  0  0
  -20.7280  -26.9160   22.5720 C   0  0  0  0  0  2  0  0  0  0  0  0
  -19.6280  -26.5960   21.5560 C   0  0  0  0  0  2  0  0  0  0  0  0
  -18.2450  -26.7320   22.2020 C   0  0  0  0  0  2  0  0  0  0  0  0
  -19.1790  -28.8410   23.3190 C   0  0  0  0  0  0  0  0  0  0  0  0
  -18.9560  -30.1000   23.9170 C   0  0  0  0  0  3  0  0  0  0  0  0
  -17.6490  -30.5930   24.0890 C   0  0  0  0  0  3  0  0  0  0  0  0
  -16.5480  -29.8260   23.6700 C   0  0  0  0  0  3  0  0  0  0  0  0
  -16.7560  -28.5710   23.0740 C   0  0  0  0  0  3  0  0  0  0  0  0
  -25.9010  -32.5210   23.8370 C   0  0  0  0  0  3  0  0  0  0  0  0
  -25.5820  -33.9110   24.1880 N   0  0  0  0  0  0  0  0  0  0  0  0
  -25.8980  -34.9770   23.4390 C   0  0  0  0  0  0  0  0  0  0  0  0
  -26.5580  -34.8940   22.3990 O   0  0  0  0  0  0  0  0  0  0  0  0
  -24.9960  -34.0510   24.9960 H   0  0  0  0  0  0  0  0  0  0  0  0
  -24.1510  -36.7620   23.1300 C   0  0  0  0  0  1  0  0  0  0  0  0
  -25.4040  -36.3560   23.9210 C   0  0  0  0  0  3  0  0  0  0  0  0
  -27.5420  -37.2500   24.7380 C   0  0  0  0  0  1  0  0  0  0  0  0
  -26.4270  -37.4190   23.8100 N   0  0  0  0  0  0  0  0  0  0  0  0
  -26.0140  -38.3330   23.9730 H   0  0  0  0  0  0  0  0  0  0  0  0
  -26.4270  -31.7370   25.1010 C   0  0  1  0  0  0  0  0  0  0  0  0
  -25.3400  -31.4810   26.1710 C   0  0  0  0  0  1  0  0  0  0  0  0
  -27.0170  -30.3650   24.6940 C   0  0  0  0  0  1  0  0  0  0  0  0
  -27.5760  -32.5300   25.7680 C   0  0  0  0  0  1  0  0  0  0  0  0
  1 48  1  0
  1  5  1  0
  2  1  1  0
  3  1  1  0
  5  4  1  0
  6  7  1  0
  6  5  1  0
  7  9  1  0
  8  6  2  0
 10  7  1  0
 10 11  2  0
 12 11  1  0
 13 18  1  0
 14 15  1  0
 14 13  1  0
 16 15  1  0
 16 23  1  0
 16 17  1  0
 18 12  1  0
 18 17  1  0
 19 12  2  0
 20 21  2  0
 21 40  1  0
 22 21  1  0
 22 25  1  0
 23 20  1  0
 23 24  1  0
 24 22  2  0
 25 26  1  0
 26 27  2  0
 28 31  1  0
 28 27  1  0
 29 28  2  0
 30 29  1  0
 30 25  2  0
 31 32  1  0
 32 33  1  0
 33 34  2  0
 35 34  1  0
 35 39  1  0
 36 35  2  0
 37 32  2  0
 37 36  1  0
 38 37  1  0
 40 41  1  0
 41 44  1  0
 41 43  1  0
 42 40  2  0
 45 46  1  0
 45 20  1  0
 47 45  1  0
 49 50  1  0
 49 48  2  0
 51 62  2  0
 52 50  1  0
 52 57  1  0
 53 61  1  0
 53 63  1  0
 54 60  1  0
 54 56  1  0
 55 61  1  0
 56 55  1  0
 57 56  2  0
 58 59  1  0
 58 52  2  0
 59 54  2  0
 60 53  1  0
 61 51  1  0
 63 65  2  0
 64 63  1  0
 66 64  1  0
 67 76  2  0
 67 72  1  0
 68 64  1  0
 68 72  1  0
 69 68  1  0
 70 71  1  0
 70 69  1  0
 71 67  1  0
 72 73  2  0
 73 74  1  0
 75 74  2  0
 76 75  1  0
 77 51  1  0
 77 78  1  0
 77 87  1  0
 78 81  1  0
 79 83  1  0
 79 78  1  0
 80 79  2  0
 83 82  1  0
 85 83  1  0
 85 86  1  0
 85 84  1  0
 87 90  1  1
 87 88  1  0
 89 87  1  0
M  ISO  4  11 100  12 100  49 101  50 101
M  END
>  <TORSDO>  (13) 
F 22

>  <SCORE>  (13) 
-12.460

>  <name>  (13) 
12

>  <ligand_id>  (13) 
12

>  <original_smiles>  (13) 
[H]c1c([H])c([H])c2c(c1[H])C([H])([H])C([H])([H])C([H])([H])C2([H])N([H])C(=O)C1([H])N(C(=O)C([H])(N([H])C(=O)C([H])(N([H])C([H])([H])[H])C([H])([H])[H])C(C([H])([H])[H])(C([H])([H])[H])C([H])([H])[H])C([H])([H])c2c([H])c(OC([H])([H])C([H])([H])[N+]([H])([H])C([H])(C(=O)N([H])C([H])([H])C([H])([H])C(=O)N3C([H])([H])C([H])([H])C([H])([H])C([H])(n4nc(-c5c([H])c([H])c(Oc6c([H])c([H])c(F)c([H])c6F)c([H])c5[H])c(C(=O)N([H])[H])c4N([H])[H])C3([H])[H])C([H])([H])[H])c([H])c([H])c2C1([H])[H]

>  <smiles>  (13) 
[H]c1c([H])c([H])c2c(c1[H])C([H])([H])C([H])([H])C([H])([H])C2([H])N([H])C(=O)C1([H])N(C(=O)C([H])(N([H])C(=O)C([H])(N([H])C([H])([H])[H])C([H])([H])[H])C(C([H])([H])[H])(C([H])([H])[H])C([H])([H])[H])C([H])([H])c2c([H])c(OC([H])([H])C([H])([H])[N+]([H])([H])C([H])(C(=O)N([H])C([H])([H])C([H])([H])C(=O)N3C([H])([H])C([H])([H])C([H])([H])C([H])(n4nc(-c5c([H])c([H])c(Oc6c([H])c([H])c(F)c([H])c6F)c([H])c5[H])c(C(=O)N([H])[H])c4N([H])[H])C3([H])[H])C([H])([H])[H])c([H])c([H])c2C1([H])[H]

$$$$
13:0:0
     RDKit          3D

 96 93  0  0  1  0  0  0  0  0999 V2000
  -22.8740  -23.9500   18.7480 C   0  0  0  0  0  1  0  0  0  0  0  0
  -15.7830  -24.9430   18.7070 C   0  0  0  0  0  1  0  0  0  0  0  0
  -16.4770  -23.5710   19.2860 C   0  0  0  0  0  2  0  0  0  0  0  0
  -17.7130  -26.9620   17.1220 C   0  0  0  0  0 15  0  0  0  0  0  0
  -18.1430  -23.5390   19.4420 C   0  0  0  0  0  1  0  0  0  0  0  0
  -19.6090  -26.3720   17.2540 C   0  0  0  0  0  1  0  0  0  0  0  0
  -20.4340  -24.8860   18.1760 C   0  0  0  0  0  1  0  0  0  0  0  0
  -23.9190  -24.9430   18.2030 C   0  0  0  0  0  0  0  0  0  0  0  0
  -25.1460  -24.9410   18.7910 N   0  0  0  0  0  0  0  0  0  0  0  0
  -23.7060  -25.4820   17.1180 O   0  0  0  0  0  0  0  0  0  0  0  0
  -25.1960  -24.4740   19.6870 H   0  0  0  0  0  0  0  0  0  0  0  0
  -26.4690  -25.1860   18.1490 C   0  0  0  0  0  2  0  0  0  0  0  0
  -27.4490  -26.1740   18.8820 C   0  0  0  0  0  2  0  0  0  0  0  0
  -27.8080  -27.4080   18.2090 O   0  0  0  0  0  0  0  0  0  0  0  0
  -24.7620  -30.7250   23.6580 C   0  0  0  0  0  0  0  0  0  0  0  0
  -26.9280  -28.3790   18.5800 C   0  0  0  0  0  0  0  0  0  0  0  0
  -23.4700  -30.4310   21.5840 C   0  0  0  0  0  3  0  0  0  0  0  0
  -24.7730  -29.9210   19.4820 C   0  0  0  0  0  0  0  0  0  0  0  0
  -26.0120  -30.6740   21.5070 C   0  0  0  0  0  2  0  0  0  0  0  0
  -25.9570  -29.8670   20.2310 C   0  0  0  0  0  0  0  0  0  0  0  0
  -27.0410  -29.0720   19.8010 C   0  0  0  0  0  3  0  0  0  0  0  0
  -25.8050  -28.5850   17.7670 C   0  0  0  0  0  3  0  0  0  0  0  0
  -24.6990  -29.2970   18.2350 C   0  0  0  0  0  3  0  0  0  0  0  0
  -23.6140  -30.6890   20.0630 C   0  0  0  0  0  2  0  0  0  0  0  0
  -24.7640  -30.6340   22.3010 N   0  0  0  0  0  0  0  0  0  0  0  0
  -23.7000  -30.7680   24.2950 O   0  0  0  0  0  0  0  0  0  0  0  0
  -22.9900  -28.9830   21.8190 C   0  0  0  0  0  0  0  0  0  0  0  0
  -21.7900  -28.6200   21.4580 N   0  0  0  0  0  0  0  0  0  0  0  0
  -23.7130  -28.1190   22.2910 O   0  0  0  0  0  0  0  0  0  0  0  0
  -21.1700  -29.3020   21.0460 H   0  0  0  0  0  0  0  0  0  0  0  0
  -18.0510  -27.8990   21.8800 C   0  0  0  0  0  0  0  0  0  0  0  0
  -21.1630  -27.3350   21.8070 C   0  0  0  0  0  2  0  0  0  0  0  0
  -20.9440  -25.6820   20.6710 C   0  0  0  0  0 15  0  0  0  0  0  0
  -18.8540  -25.3420   20.0330 C   0  0  0  0  0 15  0  0  0  0  0  0
  -17.5970  -26.7180   20.7190 C   0  0  0  0  0  1  0  0  0  0  0  0
  -19.8890  -28.1270   22.4660 C   0  0  0  0  0  0  0  0  0  0  0  0
  -20.1600  -29.2480   23.7020 C   0  0  0  0  0  3  0  0  0  0  0  0
  -18.9340  -30.0820   24.3610 C   0  0  0  0  0  3  0  0  0  0  0  0
  -17.4070  -29.9140   23.8930 C   0  0  0  0  0  3  0  0  0  0  0  0
  -16.9240  -28.8720   22.7150 C   0  0  0  0  0  3  0  0  0  0  0  0
  -26.0920  -30.7810   24.4650 C   0  0  0  0  0  3  0  0  0  0  0  0
  -26.4020  -32.1960   24.6840 N   0  0  0  0  0  0  0  0  0  0  0  0
  -27.3000  -32.8910   23.9730 C   0  0  0  0  0  0  0  0  0  0  0  0
  -28.0140  -32.3750   23.1080 O   0  0  0  0  0  0  0  0  0  0  0  0
  -25.8200  -32.6950   25.3410 H   0  0  0  0  0  0  0  0  0  0  0  0
  -26.7570  -35.2000   23.1470 C   0  0  0  0  0  1  0  0  0  0  0  0
  -27.4240  -34.3940   24.2720 C   0  0  0  0  0  3  0  0  0  0  0  0
  -29.4510  -34.3120   25.6550 C   0  0  0  0  0  1  0  0  0  0  0  0
  -28.8200  -34.8440   24.4480 N   0  0  0  0  0  0  0  0  0  0  0  0
  -28.8700  -35.8580   24.4860 H   0  0  0  0  0  0  0  0  0  0  0  0
  -26.0280  -29.9980   25.8350 C   0  0  1  0  0  0  0  0  0  0  0  0
  -24.7870  -30.3380   26.6900 C   0  0  0  0  0  1  0  0  0  0  0  0
  -26.0370  -28.4710   25.5950 C   0  0  0  0  0  1  0  0  0  0  0  0
  -27.2880  -30.3180   26.6750 C   0  0  0  0  0  1  0  0  0  0  0  0
  -24.4630  -22.7400   19.7650 N   0  0  0  0  0  2  0  0  0  0  0  0
  -23.8580  -22.1270   20.2860 H   0  0  0  0  0  0  0  0  0  0  0  0
  -24.7480  -23.4280   20.4420 H   0  0  0  0  0  0  0  0  0  0  0  0
  -26.5930  -21.3680   18.2870 C   0  0  0  0  0  1  0  0  0  0  0  0
  -26.3230  -21.4810   19.7920 C   0  0  0  0  0  1  0  0  0  0  0  0
  -27.8760  -19.5400   20.5510 C   0  0  0  0  0 15  0  0  0  0  0  0
  -29.7820  -18.0350   20.7320 C   0  0  0  0  0  2  0  0  0  0  0  0
  -31.5760  -15.5860   20.5190 C   0  0  0  0  0  2  0  0  0  0  0  0
  -31.4130  -14.3390   19.5190 C   0  0  0  0  0  2  0  0  0  0  0  0
  -30.1820  -13.4930   19.8540 C   0  0  0  0  0  2  0  0  0  0  0  0
  -29.1710  -14.4760   20.4370 C   0  0  0  0  0  3  0  0  0  0  0  0
  -29.6500  -15.3490   21.6000 C   0  0  0  0  0  2  0  0  0  0  0  0
  -30.2590  -16.4980   20.9080 N   0  0  0  0  0  0  0  0  0  0  0  0
  -31.0650  -18.2880   20.7070 O   0  0  0  0  0  1  0  0  0  0  0  0
  -26.8260  -14.8110   21.0530 C   0  0  0  0  0  0  0  0  0  0  0  0
  -25.8070  -13.9590   21.3020 C   0  0  0  0  0  0  0  0  0  0  0  0
  -26.3560  -12.6430   21.1870 C   0  0  0  0  0  0  0  0  0  0  0  0
  -27.8970  -13.9960   20.7800 N   0  0  0  0  0  0  0  0  0  0  0  0
  -27.6570  -12.6830   20.9410 N   0  0  0  0  0  0  0  0  0  0  0  0
  -25.6970  -11.3480   21.2090 C   0  0  0  0  0  0  0  0  0  0  0  0
  -25.8630  -10.4540   22.2870 C   0  0  0  0  0  3  0  0  0  0  0  0
  -25.1920   -9.2150   22.2840 C   0  0  0  0  0  3  0  0  0  0  0  0
  -24.3480   -8.8700   21.2020 C   0  0  0  0  0  0  0  0  0  0  0  0
  -24.2130   -9.7560   20.1190 C   0  0  0  0  0  3  0  0  0  0  0  0
  -24.8860  -10.9850   20.1190 C   0  0  0  0  0  3  0  0  0  0  0  0
  -23.6680   -7.6820   21.1050 O   0  0  0  0  0  0  0  0  0  0  0  0
  -22.9000   -7.2130   22.1360 C   0  0  0  0  0  0  0  0  0  0  0  0
  -21.8330   -7.9650   22.6760 C   0  0  0  0  0  3  0  0  0  0  0  0
  -21.0270   -7.4110   23.6890 C   0  0  0  0  0  3  0  0  0  0  0  0
  -21.2780   -6.1070   24.1570 C   0  0  0  0  0  0  0  0  0  0  0  0
  -22.3390   -5.3570   23.6190 C   0  0  0  0  0  3  0  0  0  0  0  0
  -23.1460   -5.9090   22.6100 C   0  0  0  0  0  0  0  0  0  0  0  0
  -24.1530   -5.1750   22.0780 F   0  0  0  0  0  0  0  0  0  0  0  0
  -20.4970   -5.5720   25.1250 F   0  0  0  0  0  0  0  0  0  0  0  0
  -24.3860  -14.3630   21.5110 C   0  0  0  0  0  0  0  0  0  0  0  0
  -23.6520  -13.6050   22.3110 N   0  0  0  0  0  0  0  0  0  0  0  0
  -23.9410  -15.3930   21.0040 O   0  0  0  0  0  0  0  0  0  0  0  0
  -24.0340  -12.7770   22.7430 H   0  0  0  0  0  0  0  0  0  0  0  0
  -22.6920  -13.8560   22.4970 H   0  0  0  0  0  0  0  0  0  0  0  0
  -26.9280  -16.2020   21.0030 N   0  0  0  0  0  0  0  0  0  0  0  0
  -26.0870  -16.7670   21.0420 H   0  0  0  0  0  0  0  0  0  0  0  0
  -27.7040  -16.6710   20.5570 H   0  0  0  0  0  0  0  0  0  0  0  0
  2  3  1  0
  3  5  1  0
  6  7  1  0
  8  1  1  0
  8  9  1  0
  9 11  1  0
 10  8  2  0
 12  9  1  0
 12 13  1  0
 14 16  1  0
 14 13  1  0
 15 26  2  0
 16 21  1  0
 17 27  1  0
 17 25  1  0
 18 24  1  0
 18 20  1  0
 19 25  1  0
 20 19  1  0
 21 20  2  0
 22 23  1  0
 22 16  2  0
 23 18  2  0
 24 17  1  0
 25 15  1  0
 27 29  2  0
 28 32  1  0
 28 27  1  0
 30 28  1  0
 31 36  2  0
 31 40  1  0
 32 36  1  0
 35 31  1  0
 36 37  1  0
 37 38  2  0
 39 38  1  0
 40 39  2  0
 41 15  1  0
 41 42  1  0
 41 51  1  0
 42 45  1  0
 43 47  1  0
 43 42  1  0
 44 43  2  0
 47 46  1  0
 47 49  1  0
 49 50  1  0
 49 48  1  0
 51 54  1  1
 51 52  1  0
 53 51  1  0
 55 56  1  0
 55 57  1  0
 58 59  1  0
 61 67  1  0
 62 67  1  0
 63 64  1  0
 63 62  1  0
 65 64  1  0
 65 72  1  0
 65 66  1  0
 67 66  1  0
 68 61  1  0
 69 70  2  0
 70 89  1  0
 71 74  1  0
 71 70  1  0
 72 73  1  0
 72 69  1  0
 73 71  2  0
 74 75  1  0
 76 75  2  0
 77 76  1  0
 78 77  2  0
 79 78  1  0
 79 74  2  0
 80 77  1  0
 80 81  1  0
 81 86  2  0
 81 82  1  0
 82 83  2  0
 83 84  1  0
 84 88  1  0
 85 84  2  0
 86 85  1  0
 87 86  1  0
 89 90  1  0
 90 93  1  0
 90 92  1  0
 91 89  2  0
 94 95  1  0
 94 69  1  0
 96 94  1  0
M  ISO  4  13 101  14 101  60 100  61 100
M  END
>  <TORSDO>  (14) 
F 23

>  <SCORE>  (14) 
-6.098

>  <name>  (14) 
13

>  <ligand_id>  (14) 
13

>  <original_smiles>  (14) 
[H]c1c([H])c([H])c2c(c1[H])C([H])([H])C([H])([H])C([H])([H])C2([H])N([H])C(=O)C1([H])N(C(=O)C([H])(N([H])C(=O)C([H])(N([H])C([H])([H])[H])C([H])([H])[H])C(C([H])([H])[H])(C([H])([H])[H])C([H])([H])[H])C([H])([H])c2c([H])c(OC([H])([H])C([H])([H])N([H])C(=O)C([H])(C3([H])C([H])([H])C([H])([H])C([H])([H])C([H])([H])C3([H])[H])[N+]([H])([H])C([H])(C([H])([H])[H])C([H])([H])C(=O)N3C([H])([H])C([H])([H])C([H])([H])C([H])(n4nc(-c5c([H])c([H])c(Oc6c([H])c([H])c(F)c([H])c6F)c([H])c5[H])c(C(=O)N([H])[H])c4N([H])[H])C3([H])[H])c([H])c([H])c2C1([H])[H]

>  <smiles>  (14) 
[H]c1c([H])c([H])c2c(c1[H])C([H])([H])C([H])([H])C([H])([H])C2([H])N([H])C(=O)C1([H])N(C(=O)C([H])(N([H])C(=O)C([H])(N([H])C([H])([H])[H])C([H])([H])[H])C(C([H])([H])[H])(C([H])([H])[H])C([H])([H])[H])C([H])([H])c2c([H])c(OC([H])([H])C([H])([H])N([H])C(=O)C([H])(C3([H])C([H])([H])C([H])([H])C([H])([H])C([H])([H])C3([H])[H])[N+]([H])([H])C([H])(C([H])([H])[H])C([H])([H])C(=O)N3C([H])([H])C([H])([H])C([H])([H])C([H])(n4nc(-c5c([H])c([H])c(Oc6c([H])c([H])c(F)c([H])c6F)c([H])c5[H])c(C(=O)N([H])[H])c4N([H])[H])C3([H])[H])c([H])c([H])c2C1([H])[H]

$$$$
14:0:0
     RDKit          3D

 81 85  0  0  1  0  0  0  0  0999 V2000
  -28.1740  -25.1450   20.2320 O   0  0  0  0  0  1  0  0  0  0  0  0
  -24.6970  -31.8130   23.1330 C   0  0  0  0  0  0  0  0  0  0  0  0
  -27.2130  -26.4670   20.2440 C   0  0  0  0  0  0  0  0  0  0  0  0
  -23.5210  -30.3870   21.5200 C   0  0  0  0  0  3  0  0  0  0  0  0
  -24.9700  -28.6680   20.1510 C   0  0  0  0  0  0  0  0  0  0  0  0
  -26.1110  -30.4550   21.4240 C   0  0  0  0  0  2  0  0  0  0  0  0
  -26.1730  -28.9830   20.7910 C   0  0  0  0  0  0  0  0  0  0  0  0
  -27.2680  -27.9220   20.7910 C   0  0  0  0  0  3  0  0  0  0  0  0
  -25.9680  -26.4300   19.5450 C   0  0  0  0  0  3  0  0  0  0  0  0
  -24.9210  -27.4200   19.5010 C   0  0  0  0  0  3  0  0  0  0  0  0
  -23.7740  -29.6520   20.1690 C   0  0  0  0  0  2  0  0  0  0  0  0
  -24.8040  -30.9250   22.0770 N   0  0  0  0  0  0  0  0  0  0  0  0
  -23.5990  -32.1290   23.6260 O   0  0  0  0  0  0  0  0  0  0  0  0
  -22.7810  -29.4440   22.5110 C   0  0  0  0  0  0  0  0  0  0  0  0
  -21.4440  -29.3110   22.3990 N   0  0  0  0  0  0  0  0  0  0  0  0
  -23.4290  -28.8240   23.3580 O   0  0  0  0  0  0  0  0  0  0  0  0
  -20.9680  -29.8600   21.6960 H   0  0  0  0  0  0  0  0  0  0  0  0
  -18.0480  -28.1220   22.9530 C   0  0  0  0  0  0  0  0  0  0  0  0
  -20.6120  -28.3890   23.1860 C   0  0  0  0  0  3  0  0  0  0  0  0
  -20.7020  -26.9480   22.6270 C   0  0  0  0  0  2  0  0  0  0  0  0
  -19.5910  -26.6210   21.6240 C   0  0  0  0  0  2  0  0  0  0  0  0
  -18.2150  -26.7710   22.2790 C   0  0  0  0  0  2  0  0  0  0  0  0
  -19.1720  -28.8880   23.3640 C   0  0  0  0  0  0  0  0  0  0  0  0
  -18.9550  -30.1490   23.9630 C   0  0  0  0  0  3  0  0  0  0  0  0
  -17.6500  -30.6440   24.1490 C   0  0  0  0  0  3  0  0  0  0  0  0
  -16.5430  -29.8770   23.7490 C   0  0  0  0  0  3  0  0  0  0  0  0
  -16.7420  -28.6170   23.1570 C   0  0  0  0  0  3  0  0  0  0  0  0
  -25.9470  -32.4880   23.7760 C   0  0  0  0  0  3  0  0  0  0  0  0
  -25.6010  -33.8830   24.1260 N   0  0  0  0  0  0  0  0  0  0  0  0
  -25.9080  -34.9670   23.3990 C   0  0  0  0  0  0  0  0  0  0  0  0
  -26.5620  -34.8980   22.3570 O   0  0  0  0  0  0  0  0  0  0  0  0
  -25.0130  -34.0070   24.9370 H   0  0  0  0  0  0  0  0  0  0  0  0
  -24.1430  -36.7520   23.1480 C   0  0  0  0  0  1  0  0  0  0  0  0
  -25.4180  -36.3430   23.9040 C   0  0  0  0  0  3  0  0  0  0  0  0
  -27.5660  -37.2560   24.6760 C   0  0  0  0  0  1  0  0  0  0  0  0
  -26.4290  -37.4170   23.7750 N   0  0  0  0  0  0  0  0  0  0  0  0
  -26.0120  -38.3280   23.9510 H   0  0  0  0  0  0  0  0  0  0  0  0
  -26.4570  -31.7340   25.0680 C   0  0  1  0  0  0  0  0  0  0  0  0
  -25.3570  -31.5020   26.1320 C   0  0  0  0  0  1  0  0  0  0  0  0
  -27.0530  -30.3550   24.7120 C   0  0  0  0  0  1  0  0  0  0  0  0
  -27.5980  -32.5430   25.7310 C   0  0  0  0  0  1  0  0  0  0  0  0
  -28.1520  -23.2440   20.4220 C   0  0  0  0  0 15  0  0  0  0  0  0
  -28.9100  -21.3420   19.8830 C   0  0  0  0  0 15  0  0  0  0  0  0
  -29.3940  -17.7720   20.0630 C   0  0  0  0  0  2  0  0  0  0  0  0
  -29.3510  -19.3980   20.2290 C   0  0  0  0  0  1  0  0  0  0  0  0
  -30.1130  -16.0810   20.1090 C   0  0  0  0  0  0  0  0  0  0  0  0
  -30.2850  -13.4330   19.3220 C   0  0  0  0  0  2  0  0  0  0  0  0
  -29.4280  -12.8410   18.1520 C   0  0  0  0  0  2  0  0  0  0  0  0
  -28.0410  -12.4030   18.6370 C   0  0  0  0  0  2  0  0  0  0  0  0
  -27.4820  -13.4320   19.6380 C   0  0  0  0  0  3  0  0  0  0  0  0
  -28.4930  -13.9220   20.7100 C   0  0  0  0  0  2  0  0  0  0  0  0
  -29.6050  -14.6550   20.0230 N   0  0  0  0  0  0  0  0  0  0  0  0
  -31.3500  -15.8770   20.0150 O   0  0  0  0  0  0  0  0  0  0  0  0
  -25.1370  -13.9190   20.4450 C   0  0  0  0  0  0  0  0  0  0  0  0
  -24.0890  -13.1320   20.8210 C   0  0  0  0  0  0  0  0  0  0  0  0
  -24.5700  -11.7860   20.7890 C   0  0  0  0  0  0  0  0  0  0  0  0
  -26.1860  -13.0600   20.1900 N   0  0  0  0  0  0  0  0  0  0  0  0
  -25.8630  -11.7670   20.4620 N   0  0  0  0  0  0  0  0  0  0  0  0
  -23.8490  -10.5180   20.9890 C   0  0  0  0  0  0  0  0  0  0  0  0
  -24.2910   -9.5510   21.9190 C   0  0  0  0  0  3  0  0  0  0  0  0
  -23.5640   -8.3570   22.1120 C   0  0  0  0  0  3  0  0  0  0  0  0
  -22.3790   -8.1190   21.3740 C   0  0  0  0  0  0  0  0  0  0  0  0
  -21.9560   -9.0750   20.4340 C   0  0  0  0  0  3  0  0  0  0  0  0
  -22.6840  -10.2600   20.2400 C   0  0  0  0  0  3  0  0  0  0  0  0
  -21.6230   -6.9760   21.4750 O   0  0  0  0  0  0  0  0  0  0  0  0
  -21.5950   -6.2300   22.6270 C   0  0  0  0  0  0  0  0  0  0  0  0
  -21.2010   -6.7860   23.8640 C   0  0  0  0  0  3  0  0  0  0  0  0
  -21.1190   -5.9680   25.0090 C   0  0  0  0  0  3  0  0  0  0  0  0
  -21.4190   -4.5960   24.9180 C   0  0  0  0  0  0  0  0  0  0  0  0
  -21.8050   -4.0400   23.6860 C   0  0  0  0  0  3  0  0  0  0  0  0
  -21.8900   -4.8540   22.5430 C   0  0  0  0  0  0  0  0  0  0  0  0
  -22.2410   -4.3090   21.3540 F   0  0  0  0  0  0  0  0  0  0  0  0
  -21.3340   -3.8080   26.0150 F   0  0  0  0  0  0  0  0  0  0  0  0
  -22.6900  -13.6000   21.0940 C   0  0  0  0  0  0  0  0  0  0  0  0
  -21.9710  -12.9090   21.9700 N   0  0  0  0  0  0  0  0  0  0  0  0
  -22.2460  -14.6180   20.5640 O   0  0  0  0  0  0  0  0  0  0  0  0
  -22.3470  -12.0860   22.4190 H   0  0  0  0  0  0  0  0  0  0  0  0
  -21.0330  -13.2070   22.1960 H   0  0  0  0  0  0  0  0  0  0  0  0
  -25.2830  -15.2920   20.2610 N   0  0  0  0  0  0  0  0  0  0  0  0
  -24.5120  -15.9400   20.3840 H   0  0  0  0  0  0  0  0  0  0  0  0
  -26.1300  -15.7410   19.9350 H   0  0  0  0  0  0  0  0  0  0  0  0
  1  3  1  0
  2 13  2  0
  3  8  1  0
  4 12  1  0
  4 14  1  0
  5 11  1  0
  5  7  1  0
  6 12  1  0
  7  6  1  0
  8  7  2  0
  9  3  2  0
 10  9  1  0
 10  5  2  0
 11  4  1  0
 12  2  1  0
 14 16  2  0
 15 14  1  0
 17 15  1  0
 18 27  2  0
 18 23  1  0
 19 15  1  0
 19 23  1  0
 20 19  1  0
 21 22  1  0
 21 20  1  0
 22 18  1  0
 23 24  2  0
 24 25  1  0
 26 25  2  0
 27 26  1  0
 28  2  1  0
 28 29  1  0
 28 38  1  0
 29 32  1  0
 30 34  1  0
 30 29  1  0
 31 30  2  0
 34 33  1  0
 36 34  1  0
 36 37  1  0
 36 35  1  0
 38 41  1  1
 38 39  1  0
 40 38  1  0
 44 46  1  0
 44 45  1  0
 47 52  1  0
 48 49  1  0
 48 47  1  0
 50 49  1  0
 50 57  1  0
 50 51  1  0
 52 46  1  0
 52 51  1  0
 53 46  2  0
 54 55  2  0
 55 74  1  0
 56 55  1  0
 56 59  1  0
 57 54  1  0
 57 58  1  0
 58 56  2  0
 59 60  1  0
 60 61  2  0
 62 65  1  0
 62 61  1  0
 63 62  2  0
 64 63  1  0
 64 59  2  0
 65 66  1  0
 66 67  1  0
 67 68  2  0
 69 68  1  0
 69 73  1  0
 70 69  2  0
 71 66  2  0
 71 70  1  0
 72 71  1  0
 74 75  1  0
 75 78  1  0
 75 77  1  0
 76 74  2  0
 79 80  1  0
 79 54  1  0
 81 79  1  0
M  ISO  4   1 101  42 101  44 100  46 100
M  END
>  <TORSDO>  (15) 
F 18

>  <SCORE>  (15) 
-16.037

>  <name>  (15) 
14

>  <ligand_id>  (15) 
14

>  <original_smiles>  (15) 
[H]C(C(=O)N1C([H])([H])C([H])([H])C([H])([H])C([H])(n2nc(-c3c([H])c([H])c(Oc4c([H])c([H])c(F)c([H])c4F)c([H])c3[H])c(C(=O)N([H])[H])c2N([H])[H])C1([H])[H])=C([H])C([H])([H])C([H])([H])Oc1c([H])c([H])c2c(c1[H])C([H])([H])N(C(=O)C([H])(N([H])C(=O)C([H])(N([H])C([H])([H])[H])C([H])([H])[H])C(C([H])([H])[H])(C([H])([H])[H])C([H])([H])[H])C([H])(C(=O)N([H])C1([H])c3c([H])c([H])c([H])c([H])c3C([H])([H])C([H])([H])C1([H])[H])C2([H])[H]

>  <smiles>  (15) 
[H]C(C(=O)N1C([H])([H])C([H])([H])C([H])([H])C([H])(n2nc(-c3c([H])c([H])c(Oc4c([H])c([H])c(F)c([H])c4F)c([H])c3[H])c(C(=O)N([H])[H])c2N([H])[H])C1([H])[H])=C([H])C([H])([H])C([H])([H])Oc1c([H])c([H])c2c(c1[H])C([H])([H])N(C(=O)C([H])(N([H])C(=O)C([H])(N([H])C([H])([H])[H])C([H])([H])[H])C(C([H])([H])[H])(C([H])([H])[H])C([H])([H])[H])C([H])(C(=O)N([H])C1([H])c3c([H])c([H])c([H])c([H])c3C([H])([H])C([H])([H])C1([H])[H])C2([H])[H]

$$$$
15:0:0
     RDKit          3D

 95103  0  0  1  0  0  0  0  0999 V2000
  -30.1630  -21.6300   18.3550 C   0  0  0  0  0  2  0  0  0  0  0  0
  -31.2770  -22.6610   18.6100 C   0  0  0  0  0  2  0  0  0  0  0  0
  -30.4520  -20.3040   19.0700 C   0  0  0  0  0  2  0  0  0  0  0  0
  -32.0150  -22.4370   19.9480 C   0  0  0  0  0  2  0  0  0  0  0  0
  -30.4550  -20.4640   20.6130 C   0  0  0  0  0  3  0  0  0  0  0  0
  -31.1320  -21.8180   21.0610 C   0  0  0  0  0  3  0  0  0  0  0  0
  -31.1130  -19.2180   21.2980 C   0  0  0  0  0  2  0  0  0  0  0  0
  -30.4810  -17.9120   20.9560 N   0  0  0  0  0  4  0  0  0  0  0  0
  -30.6070  -17.7360   19.9720 H   0  0  0  0  0  0  0  0  0  0  0  0
  -29.4920  -17.9930   21.1360 H   0  0  0  0  0  0  0  0  0  0  0  0
  -31.0120  -16.7490   21.7260 C   0  0  0  0  0  2  0  0  0  0  0  0
  -30.2320  -15.4160   21.5210 C   0  0  0  0  0  2  0  0  0  0  0  0
  -30.7680  -14.4310   20.4520 C   0  0  0  0  0  0  0  0  0  0  0  0
  -30.4130  -12.3820   19.0950 C   0  0  0  0  0  2  0  0  0  0  0  0
  -29.4290  -12.6450   17.9370 C   0  0  0  0  0  2  0  0  0  0  0  0
  -27.9640  -12.5070   18.4000 C   0  0  0  0  0  2  0  0  0  0  0  0
  -27.6790  -13.2780   19.7160 C   0  0  0  0  0  3  0  0  0  0  0  0
  -28.7560  -12.9590   20.7760 C   0  0  0  0  0  2  0  0  0  0  0  0
  -30.0710  -13.2890   20.2020 N   0  0  0  0  0  0  0  0  0  0  0  0
  -31.8010  -14.7140   19.8370 O   0  0  0  0  0  0  0  0  0  0  0  0
  -25.2880  -13.8950   20.4530 C   0  0  0  0  0  0  0  0  0  0  0  0
  -24.2220  -13.1260   20.8380 C   0  0  0  0  0  0  0  0  0  0  0  0
  -24.6780  -11.7720   20.7980 C   0  0  0  0  0  0  0  0  0  0  0  0
  -26.3280  -13.0100   20.2110 N   0  0  0  0  0  0  0  0  0  0  0  0
  -25.9640  -11.7290   20.4710 N   0  0  0  0  0  0  0  0  0  0  0  0
  -23.9520  -10.5130   21.0020 C   0  0  0  0  0  0  0  0  0  0  0  0
  -24.3940   -9.5480   21.9330 C   0  0  0  0  0  3  0  0  0  0  0  0
  -23.6700   -8.3500   22.1200 C   0  0  0  0  0  3  0  0  0  0  0  0
  -22.4900   -8.1100   21.3790 C   0  0  0  0  0  0  0  0  0  0  0  0
  -22.0690   -9.0630   20.4340 C   0  0  0  0  0  3  0  0  0  0  0  0
  -22.7940  -10.2520   20.2440 C   0  0  0  0  0  3  0  0  0  0  0  0
  -21.7360   -6.9660   21.4740 O   0  0  0  0  0  0  0  0  0  0  0  0
  -21.6950   -6.2270   22.6290 C   0  0  0  0  0  0  0  0  0  0  0  0
  -21.2730   -6.7840   23.8560 C   0  0  0  0  0  3  0  0  0  0  0  0
  -21.1800   -5.9710   25.0030 C   0  0  0  0  0  3  0  0  0  0  0  0
  -21.4980   -4.6020   24.9240 C   0  0  0  0  0  0  0  0  0  0  0  0
  -21.9130   -4.0440   23.7020 C   0  0  0  0  0  3  0  0  0  0  0  0
  -22.0080   -4.8550   22.5570 C   0  0  0  0  0  0  0  0  0  0  0  0
  -22.3870   -4.3080   21.3770 F   0  0  0  0  0  0  0  0  0  0  0  0
  -21.4020   -3.8180   26.0240 F   0  0  0  0  0  0  0  0  0  0  0  0
  -22.8300  -13.6060   21.1350 C   0  0  0  0  0  0  0  0  0  0  0  0
  -22.1160  -12.9080   22.0120 N   0  0  0  0  0  0  0  0  0  0  0  0
  -22.3840  -14.6320   20.6230 O   0  0  0  0  0  0  0  0  0  0  0  0
  -22.4920  -12.0800   22.4510 H   0  0  0  0  0  0  0  0  0  0  0  0
  -21.1810  -13.2050   22.2490 H   0  0  0  0  0  0  0  0  0  0  0  0
  -25.4550  -15.2650   20.2710 N   0  0  0  0  0  0  0  0  0  0  0  0
  -24.6890  -15.9220   20.3720 H   0  0  0  0  0  0  0  0  0  0  0  0
  -26.3050  -15.6980   19.9300 H   0  0  0  0  0  0  0  0  0  0  0  0
  -30.2260  -22.8430   21.8330 C   0  0  0  0  0  2  0  0  0  0  0  0
  -29.8560  -24.0810   21.0930 N   0  0  0  0  0  4  0  0  0  0  0  0
  -29.2720  -23.8510   20.3020 H   0  0  0  0  0  0  0  0  0  0  0  0
  -30.7070  -24.4860   20.7350 H   0  0  0  0  0  0  0  0  0  0  0  0
  -29.1690  -25.1210   21.9110 C   0  0  0  0  0  2  0  0  0  0  0  0
  -29.2730  -26.5470   21.3180 C   0  0  0  0  0  2  0  0  0  0  0  0
  -28.4690  -26.6690   20.1400 O   0  0  0  0  0  0  0  0  0  0  0  0
  -24.6160  -31.8610   23.2310 C   0  0  0  0  0  0  0  0  0  0  0  0
  -27.3260  -27.4390   20.2000 C   0  0  0  0  0  0  0  0  0  0  0  0
  -23.4320  -30.4520   21.5740 C   0  0  0  0  0  3  0  0  0  0  0  0
  -24.9140  -28.9180   20.1730 C   0  0  0  0  0  0  0  0  0  0  0  0
  -25.9560  -30.8290   21.4080 C   0  0  0  0  0  2  0  0  0  0  0  0
  -26.0580  -29.4550   20.7770 C   0  0  0  0  0  0  0  0  0  0  0  0
  -27.2670  -28.7250   20.7900 C   0  0  0  0  0  3  0  0  0  0  0  0
  -26.1690  -26.9190   19.5850 C   0  0  0  0  0  3  0  0  0  0  0  0
  -24.9630  -27.6470   19.5760 C   0  0  0  0  0  3  0  0  0  0  0  0
  -23.6640  -29.7710   20.1970 C   0  0  0  0  0  2  0  0  0  0  0  0
  -24.6840  -31.0630   22.1310 N   0  0  0  0  0  0  0  0  0  0  0  0
  -23.5280  -32.1290   23.7610 O   0  0  0  0  0  0  0  0  0  0  0  0
  -22.7750  -29.4310   22.5280 C   0  0  0  0  0  0  0  0  0  0  0  0
  -21.4500  -29.2570   22.3960 N   0  0  0  0  0  0  0  0  0  0  0  0
  -23.4530  -28.7980   23.3440 O   0  0  0  0  0  0  0  0  0  0  0  0
  -20.9650  -29.8220   21.7130 H   0  0  0  0  0  0  0  0  0  0  0  0
  -18.0660  -28.0900   22.8800 C   0  0  0  0  0  0  0  0  0  0  0  0
  -20.6240  -28.3210   23.1570 C   0  0  0  0  0  3  0  0  0  0  0  0
  -20.7170  -26.8940   22.5710 C   0  0  0  0  0  2  0  0  0  0  0  0
  -19.6140  -26.5880   21.5520 C   0  0  0  0  0  2  0  0  0  0  0  0
  -18.2310  -26.7430   22.1950 C   0  0  0  0  0  2  0  0  0  0  0  0
  -19.1910  -28.8360   23.3190 C   0  0  0  0  0  0  0  0  0  0  0  0
  -18.9850  -30.0960   23.9190 C   0  0  0  0  0  3  0  0  0  0  0  0
  -17.6860  -30.6120   24.0840 C   0  0  0  0  0  3  0  0  0  0  0  0
  -16.5730  -29.8620   23.6610 C   0  0  0  0  0  3  0  0  0  0  0  0
  -16.7650  -28.6030   23.0650 C   0  0  0  0  0  3  0  0  0  0  0  0
  -25.8960  -32.4940   23.8640 C   0  0  0  0  0  3  0  0  0  0  0  0
  -25.5820  -33.8900   24.1920 N   0  0  0  0  0  0  0  0  0  0  0  0
  -25.9120  -34.9420   23.4310 C   0  0  0  0  0  0  0  0  0  0  0  0
  -26.5830  -34.8400   22.4020 O   0  0  0  0  0  0  0  0  0  0  0  0
  -24.9890  -34.0430   24.9950 H   0  0  0  0  0  0  0  0  0  0  0  0
  -24.1750  -36.7230   23.0670 C   0  0  0  0  0  1  0  0  0  0  0  0
  -25.4140  -36.3270   23.8850 C   0  0  0  0  0  3  0  0  0  0  0  0
  -27.5410  -37.2260   24.7240 C   0  0  0  0  0  1  0  0  0  0  0  0
  -26.4410  -37.3860   23.7750 N   0  0  0  0  0  0  0  0  0  0  0  0
  -26.0290  -38.3040   23.9220 H   0  0  0  0  0  0  0  0  0  0  0  0
  -26.4080  -31.7190   25.1410 C   0  0  1  0  0  0  0  0  0  0  0  0
  -25.3090  -31.4760   26.2010 C   0  0  0  0  0  1  0  0  0  0  0  0
  -26.9990  -30.3440   24.7460 C   0  0  0  0  0  1  0  0  0  0  0  0
  -27.5480  -32.5160   25.8170 C   0  0  0  0  0  1  0  0  0  0  0  0
  1  2  1  0
  1  3  1  0
  2  4  1  0
  3  5  1  0
  4  6  1  0
  5  6  1  0
  5  7  1  0
  6 49  1  0
  8 10  1  0
  8  7  1  0
  8 11  1  0
  9  8  1  0
 12 11  1  0
 13 12  1  0
 14 19  1  0
 15 16  1  0
 15 14  1  0
 17 16  1  0
 17 24  1  0
 17 18  1  0
 19 13  1  0
 19 18  1  0
 20 13  2  0
 21 22  2  0
 22 41  1  0
 23 22  1  0
 23 26  1  0
 24 21  1  0
 24 25  1  0
 25 23  2  0
 26 27  1  0
 27 28  2  0
 29 32  1  0
 29 28  1  0
 30 29  2  0
 31 30  1  0
 31 26  2  0
 32 33  1  0
 33 34  1  0
 34 35  2  0
 36 35  1  0
 36 40  1  0
 37 36  2  0
 38 33  2  0
 38 37  1  0
 39 38  1  0
 41 42  1  0
 42 45  1  0
 42 44  1  0
 43 41  2  0
 46 47  1  0
 46 21  1  0
 48 46  1  0
 50 49  1  0
 50 53  1  0
 51 50  1  0
 52 50  1  0
 54 53  1  0
 55 57  1  0
 55 54  1  0
 56 67  2  0
 57 62  1  0
 58 66  1  0
 58 68  1  0
 59 65  1  0
 59 61  1  0
 60 66  1  0
 61 62  2  0
 61 60  1  0
 63 57  2  0
 64 63  1  0
 64 59  2  0
 65 58  1  0
 66 56  1  0
 68 70  2  0
 69 68  1  0
 71 69  1  0
 72 81  2  0
 72 77  1  0
 73 69  1  0
 73 77  1  0
 74 73  1  0
 75 76  1  0
 75 74  1  0
 76 72  1  0
 77 78  2  0
 78 79  1  0
 80 79  2  0
 81 80  1  0
 82 56  1  0
 82 83  1  0
 82 92  1  0
 83 86  1  0
 84 88  1  0
 84 83  1  0
 85 84  2  0
 88 87  1  0
 90 88  1  0
 90 91  1  0
 90 89  1  0
 92 95  1  1
 92 93  1  0
 94 92  1  0
M  ISO  4  12 100  13 100  54 101  55 101
M  END
>  <TORSDO>  (16) 
F 24

>  <SCORE>  (16) 
-12.653

>  <name>  (16) 
15

>  <ligand_id>  (16) 
15

>  <original_smiles>  (16) 
[H]c1c([H])c([H])c2c(c1[H])C([H])([H])C([H])([H])C([H])([H])C2([H])N([H])C(=O)C1([H])N(C(=O)C([H])(N([H])C(=O)C([H])(N([H])C([H])([H])[H])C([H])([H])[H])C(C([H])([H])[H])(C([H])([H])[H])C([H])([H])[H])C([H])([H])c2c([H])c(OC([H])([H])C([H])([H])[N+]([H])([H])C([H])([H])C3([H])C([H])([H])C([H])([H])C([H])([H])C([H])([H])C3([H])C([H])([H])[N+]([H])([H])C([H])([H])C([H])([H])C(=O)N3C([H])([H])C([H])([H])C([H])([H])C([H])(n4nc(-c5c([H])c([H])c(Oc6c([H])c([H])c(F)c([H])c6F)c([H])c5[H])c(C(=O)N([H])[H])c4N([H])[H])C3([H])[H])c([H])c([H])c2C1([H])[H]

>  <smiles>  (16) 
[H]c1c([H])c([H])c2c(c1[H])C([H])([H])C([H])([H])C([H])([H])C2([H])N([H])C(=O)C1([H])N(C(=O)C([H])(N([H])C(=O)C([H])(N([H])C([H])([H])[H])C([H])([H])[H])C(C([H])([H])[H])(C([H])([H])[H])C([H])([H])[H])C([H])([H])c2c([H])c(OC([H])([H])C([H])([H])[N+]([H])([H])C([H])([H])C3([H])C([H])([H])C([H])([H])C([H])([H])C([H])([H])C3([H])C([H])([H])[N+]([H])([H])C([H])([H])C([H])([H])C(=O)N3C([H])([H])C([H])([H])C([H])([H])C([H])(n4nc(-c5c([H])c([H])c(Oc6c([H])c([H])c(F)c([H])c6F)c([H])c5[H])c(C(=O)N([H])[H])c4N([H])[H])C3([H])[H])c([H])c([H])c2C1([H])[H]

$$$$
16:0:0
     RDKit          3D

 94102  0  0  1  0  0  0  0  0999 V2000
  -28.8170  -21.3920   20.6730 C   0  0  0  0  0  0  0  0  0  0  0  0
  -27.7800  -20.6080   21.0180 N   0  0  0  0  0  4  0  0  0  0  0  0
  -28.5400  -22.7390   20.6980 N   0  0  0  0  0  0  0  0  0  0  0  0
  -27.8800  -19.6040   20.9880 H   0  0  0  0  0  0  0  0  0  0  0  0
  -26.8700  -20.9510   21.2910 H   0  0  0  0  0  0  0  0  0  0  0  0
  -27.6220  -22.9480   21.0570 H   0  0  0  0  0  0  0  0  0  0  0  0
  -32.4700  -21.4210   20.7960 C   0  0  0  0  0  3  0  0  0  0  0  0
  -32.6660  -20.3190   21.7070 C   0  0  0  0  0  3  0  0  0  0  0  0
  -31.3150  -21.5840   20.1330 C   0  0  0  0  0  3  0  0  0  0  0  0
  -31.7330  -19.3670   21.8690 C   0  0  0  0  0  3  0  0  0  0  0  0
  -30.1130  -20.6540   20.2530 C   0  0  0  0  0  0  0  0  0  0  0  0
  -30.3930  -19.3430   21.1430 C   0  0  0  0  0  0  0  0  0  0  0  0
  -30.2020  -17.9270   20.4630 C   0  0  0  0  0  2  0  0  0  0  0  0
  -30.1720  -15.4490   21.5150 C   0  0  0  0  0  3  0  0  0  0  0  0
  -29.9580  -16.7990   21.4920 C   0  0  0  0  0  3  0  0  0  0  0  0
  -30.7580  -14.5570   20.5010 C   0  0  0  0  0  0  0  0  0  0  0  0
  -30.4690  -12.4250   19.2460 C   0  0  0  0  0  2  0  0  0  0  0  0
  -29.5200  -12.6410   18.0480 C   0  0  0  0  0  2  0  0  0  0  0  0
  -28.0450  -12.4830   18.4680 C   0  0  0  0  0  2  0  0  0  0  0  0
  -27.7120  -13.2890   19.7510 C   0  0  0  0  0  3  0  0  0  0  0  0
  -28.7630  -13.0190   20.8490 C   0  0  0  0  0  2  0  0  0  0  0  0
  -30.0910  -13.3740   20.3090 N   0  0  0  0  0  0  0  0  0  0  0  0
  -31.8030  -14.8130   19.8950 O   0  0  0  0  0  0  0  0  0  0  0  0
  -25.3110  -13.9020   20.4440 C   0  0  0  0  0  0  0  0  0  0  0  0
  -24.2380  -13.1350   20.8120 C   0  0  0  0  0  0  0  0  0  0  0  0
  -24.6960  -11.7820   20.7900 C   0  0  0  0  0  0  0  0  0  0  0  0
  -26.3550  -13.0170   20.2220 N   0  0  0  0  0  0  0  0  0  0  0  0
  -25.9870  -11.7370   20.4850 N   0  0  0  0  0  0  0  0  0  0  0  0
  -23.9660  -10.5230   20.9870 C   0  0  0  0  0  0  0  0  0  0  0  0
  -24.3920   -9.5620   21.9290 C   0  0  0  0  0  3  0  0  0  0  0  0
  -23.6620   -8.3660   22.1100 C   0  0  0  0  0  3  0  0  0  0  0  0
  -22.4930   -8.1260   21.3500 C   0  0  0  0  0  0  0  0  0  0  0  0
  -22.0880   -9.0760   20.3970 C   0  0  0  0  0  3  0  0  0  0  0  0
  -22.8180  -10.2620   20.2120 C   0  0  0  0  0  3  0  0  0  0  0  0
  -21.7360   -6.9820   21.4410 O   0  0  0  0  0  0  0  0  0  0  0  0
  -21.6750   -6.2490   22.6000 C   0  0  0  0  0  0  0  0  0  0  0  0
  -21.2530   -6.8190   23.8210 C   0  0  0  0  0  3  0  0  0  0  0  0
  -21.1400   -6.0130   24.9710 C   0  0  0  0  0  3  0  0  0  0  0  0
  -21.4360   -4.6390   24.9020 C   0  0  0  0  0  0  0  0  0  0  0  0
  -21.8500   -4.0690   23.6860 C   0  0  0  0  0  3  0  0  0  0  0  0
  -21.9670   -4.8710   22.5380 C   0  0  0  0  0  0  0  0  0  0  0  0
  -22.3480   -4.3130   21.3620 F   0  0  0  0  0  0  0  0  0  0  0  0
  -21.3200   -3.8620   26.0050 F   0  0  0  0  0  0  0  0  0  0  0  0
  -22.8420  -13.6180   21.0790 C   0  0  0  0  0  0  0  0  0  0  0  0
  -22.1100  -12.9290   21.9470 N   0  0  0  0  0  0  0  0  0  0  0  0
  -22.4070  -14.6420   20.5520 O   0  0  0  0  0  0  0  0  0  0  0  0
  -22.4730  -12.1020   22.3980 H   0  0  0  0  0  0  0  0  0  0  0  0
  -21.1700  -13.2320   22.1660 H   0  0  0  0  0  0  0  0  0  0  0  0
  -25.4810  -15.2720   20.2610 N   0  0  0  0  0  0  0  0  0  0  0  0
  -24.7190  -15.9340   20.3650 H   0  0  0  0  0  0  0  0  0  0  0  0
  -26.3480  -15.7070   19.9730 H   0  0  0  0  0  0  0  0  0  0  0  0
  -29.1990  -24.0470   20.3770 C   0  0  0  0  0  2  0  0  0  0  0  0
  -28.1070  -25.1220   20.0220 C   0  0  0  0  0  2  0  0  0  0  0  0
  -28.3440  -26.5590   20.1900 O   0  0  0  0  0  0  0  0  0  0  0  0
  -24.5920  -31.8840   23.2200 C   0  0  0  0  0  0  0  0  0  0  0  0
  -27.2090  -27.3780   20.1370 C   0  0  0  0  0  0  0  0  0  0  0  0
  -23.3840  -30.4870   21.5810 C   0  0  0  0  0  3  0  0  0  0  0  0
  -24.8310  -28.9550   20.1430 C   0  0  0  0  0  0  0  0  0  0  0  0
  -25.9190  -30.8220   21.3860 C   0  0  0  0  0  2  0  0  0  0  0  0
  -25.9990  -29.4510   20.7360 C   0  0  0  0  0  0  0  0  0  0  0  0
  -27.1910  -28.6730   20.7260 C   0  0  0  0  0  3  0  0  0  0  0  0
  -26.0150  -26.9290   19.5200 C   0  0  0  0  0  3  0  0  0  0  0  0
  -24.8390  -27.6960   19.5280 C   0  0  0  0  0  3  0  0  0  0  0  0
  -23.5910  -29.8190   20.1980 C   0  0  0  0  0  2  0  0  0  0  0  0
  -24.6510  -31.0810   22.1190 N   0  0  0  0  0  0  0  0  0  0  0  0
  -23.5100  -32.1600   23.7560 O   0  0  0  0  0  0  0  0  0  0  0  0
  -22.7320  -29.4640   22.5390 C   0  0  0  0  0  0  0  0  0  0  0  0
  -21.4040  -29.2860   22.4200 N   0  0  0  0  0  0  0  0  0  0  0  0
  -23.4160  -28.8320   23.3480 O   0  0  0  0  0  0  0  0  0  0  0  0
  -20.9100  -29.8510   21.7440 H   0  0  0  0  0  0  0  0  0  0  0  0
  -18.0280  -28.1000   22.9350 C   0  0  0  0  0  0  0  0  0  0  0  0
  -20.5890  -28.3470   23.1910 C   0  0  0  0  0  3  0  0  0  0  0  0
  -20.6800  -26.9160   22.6110 C   0  0  0  0  0  2  0  0  0  0  0  0
  -19.5720  -26.6020   21.6020 C   0  0  0  0  0  2  0  0  0  0  0  0
  -18.1950  -26.7510   22.2540 C   0  0  0  0  0  2  0  0  0  0  0  0
  -19.1530  -28.8560   23.3600 C   0  0  0  0  0  0  0  0  0  0  0  0
  -18.9420  -30.1190   23.9530 C   0  0  0  0  0  3  0  0  0  0  0  0
  -17.6410  -30.6250   24.1300 C   0  0  0  0  0  3  0  0  0  0  0  0
  -16.5300  -29.8640   23.7210 C   0  0  0  0  0  3  0  0  0  0  0  0
  -16.7250  -28.6050   23.1280 C   0  0  0  0  0  3  0  0  0  0  0  0
  -25.8770  -32.5150   23.8390 C   0  0  0  0  0  3  0  0  0  0  0  0
  -25.5670  -33.9140   24.1730 N   0  0  0  0  0  0  0  0  0  0  0  0
  -25.9000  -34.9680   23.4150 C   0  0  0  0  0  0  0  0  0  0  0  0
  -26.5670  -34.8670   22.3820 O   0  0  0  0  0  0  0  0  0  0  0  0
  -24.9760  -34.0690   24.9760 H   0  0  0  0  0  0  0  0  0  0  0  0
  -24.1680  -36.7580   23.0690 C   0  0  0  0  0  1  0  0  0  0  0  0
  -25.4090  -36.3540   23.8780 C   0  0  0  0  0  3  0  0  0  0  0  0
  -27.5440  -37.2330   24.7110 C   0  0  0  0  0  1  0  0  0  0  0  0
  -26.4400  -37.4080   23.7710 N   0  0  0  0  0  0  0  0  0  0  0  0
  -26.0330  -38.3250   23.9270 H   0  0  0  0  0  0  0  0  0  0  0  0
  -26.4010  -31.7410   25.1110 C   0  0  1  0  0  0  0  0  0  0  0  0
  -25.3140  -31.4990   26.1820 C   0  0  0  0  0  1  0  0  0  0  0  0
  -26.9820  -30.3640   24.7090 C   0  0  0  0  0  1  0  0  0  0  0  0
  -27.5540  -32.5340   25.7700 C   0  0  0  0  0  1  0  0  0  0  0  0
  1  3  1  0
  1  2  2  0
  2  5  1  0
  3  6  1  0
  4  2  1  0
  7  8  1  0
  8 10  2  0
  9 11  1  0
  9  7  2  0
 11  1  1  0
 11 12  2  3
 12 10  1  0
 13 12  1  0
 13 15  1  0
 15 14  2  0
 16 14  1  0
 17 22  1  0
 18 19  1  0
 18 17  1  0
 20 19  1  0
 20 27  1  0
 20 21  1  0
 22 16  1  0
 22 21  1  0
 23 16  2  0
 24 25  2  0
 25 44  1  0
 26 25  1  0
 26 29  1  0
 27 24  1  0
 27 28  1  0
 28 26  2  0
 29 30  1  0
 30 31  2  0
 32 35  1  0
 32 31  1  0
 33 32  2  0
 34 33  1  0
 34 29  2  0
 35 36  1  0
 36 37  1  0
 37 38  2  0
 39 38  1  0
 39 43  1  0
 40 39  2  0
 41 36  2  0
 41 40  1  0
 42 41  1  0
 44 45  1  0
 45 48  1  0
 45 47  1  0
 46 44  2  0
 49 50  1  0
 49 24  1  0
 51 49  1  0
 52  3  1  0
 53 54  1  0
 53 52  1  0
 55 66  2  0
 56 54  1  0
 56 61  1  0
 57 65  1  0
 57 67  1  0
 58 64  1  0
 58 60  1  0
 59 65  1  0
 60 59  1  0
 61 60  2  0
 62 63  1  0
 62 56  2  0
 63 58  2  0
 64 57  1  0
 65 55  1  0
 67 69  2  0
 68 67  1  0
 70 68  1  0
 71 80  2  0
 71 76  1  0
 72 68  1  0
 72 76  1  0
 73 72  1  0
 74 75  1  0
 74 73  1  0
 75 71  1  0
 76 77  2  0
 77 78  1  0
 79 78  2  0
 80 79  1  0
 81 55  1  0
 81 82  1  0
 81 91  1  0
 82 85  1  0
 83 87  1  0
 83 82  1  0
 84 83  2  0
 87 86  1  0
 89 87  1  0
 89 90  1  0
 89 88  1  0
 91 94  1  1
 91 92  1  0
 93 91  1  0
M  ISO  4  14 100  16 100  53 101  54 101
M  END
>  <TORSDO>  (17) 
F 21

>  <SCORE>  (17) 
-13.866

>  <name>  (17) 
16

>  <ligand_id>  (17) 
16

>  <original_smiles>  (17) 
[H]C(C(=O)N1C([H])([H])C([H])([H])C([H])([H])C([H])(n2nc(-c3c([H])c([H])c(Oc4c([H])c([H])c(F)c([H])c4F)c([H])c3[H])c(C(=O)N([H])[H])c2N([H])[H])C1([H])[H])=C([H])C([H])([H])C1([H])C([H])=C([H])C([H])=C([H])C1([H])C(N([H])[H])=[N+]([H])C([H])([H])C([H])([H])Oc1c([H])c([H])c2c(c1[H])C([H])([H])N(C(=O)C([H])(N([H])C(=O)C([H])(N([H])C([H])([H])[H])C([H])([H])[H])C(C([H])([H])[H])(C([H])([H])[H])C([H])([H])[H])C([H])(C(=O)N([H])C1([H])c3c([H])c([H])c([H])c([H])c3C([H])([H])C([H])([H])C1([H])[H])C2([H])[H]

>  <smiles>  (17) 
[H]C(C(=O)N1C([H])([H])C([H])([H])C([H])([H])C([H])(n2nc(-c3c([H])c([H])c(Oc4c([H])c([H])c(F)c([H])c4F)c([H])c3[H])c(C(=O)N([H])[H])c2N([H])[H])C1([H])[H])=C([H])C([H])([H])C1([H])C([H])=C([H])C([H])=C([H])C1([H])C(N([H])[H])=[N+]([H])C([H])([H])C([H])([H])Oc1c([H])c([H])c2c(c1[H])C([H])([H])N(C(=O)C([H])(N([H])C(=O)C([H])(N([H])C([H])([H])[H])C([H])([H])[H])C(C([H])([H])[H])(C([H])([H])[H])C([H])([H])[H])C([H])(C(=O)N([H])C1([H])c3c([H])c([H])c([H])c([H])c3C([H])([H])C([H])([H])C1([H])[H])C2([H])[H]

$$$$
17:0:0
     RDKit          3D

 85 93  0  0  1  0  0  0  0  0999 V2000
  -30.3170  -20.8800   20.6350 C   0  0  0  0  0  2  0  0  0  0  0  0
  -29.9200  -22.3390   20.6130 C   0  0  0  0  0  3  0  0  0  0  0  0
  -29.3970  -19.8420   20.3860 C   0  0  0  0  0  0  0  0  0  0  0  0
  -28.6060  -22.7240   20.3160 C   0  0  0  0  0  0  0  0  0  0  0  0
  -27.9130  -20.9660   20.0930 S   0  0  0  0  0  0  0  0  0  0  0  0
  -29.6560  -18.2130   20.3770 C   0  0  0  0  0  0  0  0  0  0  0  0
  -29.4790  -16.7290   20.4040 C   0  0  0  0  0  3  0  0  0  0  0  0
  -30.3790  -15.3700   20.2650 C   0  0  0  0  0  0  0  0  0  0  0  0
  -30.3970  -12.9060   19.4120 C   0  0  0  0  0  2  0  0  0  0  0  0
  -29.4730  -12.6890   18.1840 C   0  0  0  0  0  2  0  0  0  0  0  0
  -28.0270  -12.4030   18.6300 C   0  0  0  0  0  2  0  0  0  0  0  0
  -27.5730  -13.3610   19.7570 C   0  0  0  0  0  3  0  0  0  0  0  0
  -28.6260  -13.5220   20.8730 C   0  0  0  0  0  2  0  0  0  0  0  0
  -29.8530  -14.0410   20.2480 N   0  0  0  0  0  0  0  0  0  0  0  0
  -31.5950  -15.3780   20.0130 O   0  0  0  0  0  0  0  0  0  0  0  0
  -25.2110  -13.8970   20.5480 C   0  0  0  0  0  0  0  0  0  0  0  0
  -24.1570  -13.1110   20.9210 C   0  0  0  0  0  0  0  0  0  0  0  0
  -24.6300  -11.7630   20.8690 C   0  0  0  0  0  0  0  0  0  0  0  0
  -26.2540  -13.0300   20.2790 N   0  0  0  0  0  0  0  0  0  0  0  0
  -25.9190  -11.7400   20.5420 N   0  0  0  0  0  0  0  0  0  0  0  0
  -23.9110  -10.4950   21.0520 C   0  0  0  0  0  0  0  0  0  0  0  0
  -24.3450   -9.5270   21.9830 C   0  0  0  0  0  3  0  0  0  0  0  0
  -23.6230   -8.3260   22.1570 C   0  0  0  0  0  3  0  0  0  0  0  0
  -22.4530   -8.0850   21.3980 C   0  0  0  0  0  0  0  0  0  0  0  0
  -22.0380   -9.0430   20.4560 C   0  0  0  0  0  3  0  0  0  0  0  0
  -22.7600  -10.2350   20.2820 C   0  0  0  0  0  3  0  0  0  0  0  0
  -21.7020   -6.9360   21.4800 O   0  0  0  0  0  0  0  0  0  0  0  0
  -21.6380   -6.1990   22.6350 C   0  0  0  0  0  0  0  0  0  0  0  0
  -21.1670   -6.7500   23.8470 C   0  0  0  0  0  3  0  0  0  0  0  0
  -21.0540   -5.9380   24.9920 C   0  0  0  0  0  3  0  0  0  0  0  0
  -21.4010   -4.5760   24.9280 C   0  0  0  0  0  0  0  0  0  0  0  0
  -21.8640   -4.0230   23.7210 C   0  0  0  0  0  3  0  0  0  0  0  0
  -21.9800   -4.8320   22.5770 C   0  0  0  0  0  0  0  0  0  0  0  0
  -22.4070   -4.2900   21.4120 F   0  0  0  0  0  0  0  0  0  0  0  0
  -21.2840   -3.7930   26.0260 F   0  0  0  0  0  0  0  0  0  0  0  0
  -22.7600  -13.5790   21.2070 C   0  0  0  0  0  0  0  0  0  0  0  0
  -22.0440  -12.8770   22.0770 N   0  0  0  0  0  0  0  0  0  0  0  0
  -22.3130  -14.6030   20.6940 O   0  0  0  0  0  0  0  0  0  0  0  0
  -22.4190  -12.0480   22.5140 H   0  0  0  0  0  0  0  0  0  0  0  0
  -21.1080  -13.1750   22.3120 H   0  0  0  0  0  0  0  0  0  0  0  0
  -25.3640  -15.2720   20.3830 N   0  0  0  0  0  0  0  0  0  0  0  0
  -24.5950  -15.9210   20.5080 H   0  0  0  0  0  0  0  0  0  0  0  0
  -26.1970  -15.7130   20.0170 H   0  0  0  0  0  0  0  0  0  0  0  0
  -27.7330  -24.2460   20.1650 C   0  0  0  0  0  2  0  0  0  0  0  0
  -28.1470  -25.8390   20.3360 O   0  0  0  0  0  0  0  0  0  0  0  0
  -24.6570  -31.8970   23.2700 C   0  0  0  0  0  0  0  0  0  0  0  0
  -27.1740  -26.9800   20.2640 C   0  0  0  0  0  0  0  0  0  0  0  0
  -23.4570  -30.5120   21.6290 C   0  0  0  0  0  3  0  0  0  0  0  0
  -24.8970  -28.8980   20.2090 C   0  0  0  0  0  0  0  0  0  0  0  0
  -26.0290  -30.6970   21.4910 C   0  0  0  0  0  2  0  0  0  0  0  0
  -26.0900  -29.2860   20.8340 C   0  0  0  0  0  0  0  0  0  0  0  0
  -27.2230  -28.3500   20.8350 C   0  0  0  0  0  3  0  0  0  0  0  0
  -25.9530  -26.7560   19.5860 C   0  0  0  0  0  3  0  0  0  0  0  0
  -24.8560  -27.6550   19.5630 C   0  0  0  0  0  3  0  0  0  0  0  0
  -23.6860  -29.8290   20.2540 C   0  0  0  0  0  2  0  0  0  0  0  0
  -24.7360  -31.0630   22.1830 N   0  0  0  0  0  0  0  0  0  0  0  0
  -23.5680  -32.1960   23.7870 O   0  0  0  0  0  0  0  0  0  0  0  0
  -22.7520  -29.5210   22.5910 C   0  0  0  0  0  0  0  0  0  0  0  0
  -21.4220  -29.3640   22.4590 N   0  0  0  0  0  0  0  0  0  0  0  0
  -23.4080  -28.8930   23.4260 O   0  0  0  0  0  0  0  0  0  0  0  0
  -20.9460  -29.9190   21.7610 H   0  0  0  0  0  0  0  0  0  0  0  0
  -18.0290  -28.1740   22.9510 C   0  0  0  0  0  0  0  0  0  0  0  0
  -20.5880  -28.4320   23.2260 C   0  0  0  0  0  3  0  0  0  0  0  0
  -20.6860  -26.9970   22.6550 C   0  0  0  0  0  2  0  0  0  0  0  0
  -19.5880  -26.6780   21.6350 C   0  0  0  0  0  2  0  0  0  0  0  0
  -18.2040  -26.8260   22.2720 C   0  0  0  0  0  2  0  0  0  0  0  0
  -19.1470  -28.9350   23.3840 C   0  0  0  0  0  0  0  0  0  0  0  0
  -18.9250  -30.1950   23.9800 C   0  0  0  0  0  3  0  0  0  0  0  0
  -17.6190  -30.6950   24.1450 C   0  0  0  0  0  3  0  0  0  0  0  0
  -16.5160  -29.9310   23.7260 C   0  0  0  0  0  3  0  0  0  0  0  0
  -16.7210  -28.6720   23.1350 C   0  0  0  0  0  3  0  0  0  0  0  0
  -25.9300  -32.5320   23.9090 C   0  0  0  0  0  3  0  0  0  0  0  0
  -25.6210  -33.9350   24.2380 N   0  0  0  0  0  0  0  0  0  0  0  0
  -25.9300  -34.9890   23.4710 C   0  0  0  0  0  0  0  0  0  0  0  0
  -26.5670  -34.8830   22.4200 O   0  0  0  0  0  0  0  0  0  0  0  0
  -25.0520  -34.0890   25.0580 H   0  0  0  0  0  0  0  0  0  0  0  0
  -24.1740  -36.7750   23.1940 C   0  0  0  0  0  1  0  0  0  0  0  0
  -25.4590  -36.3810   23.9420 C   0  0  0  0  0  3  0  0  0  0  0  0
  -27.6300  -37.2860   24.6490 C   0  0  0  0  0  1  0  0  0  0  0  0
  -26.4750  -37.4430   23.7700 N   0  0  0  0  0  0  0  0  0  0  0  0
  -26.0700  -38.3580   23.9410 H   0  0  0  0  0  0  0  0  0  0  0  0
  -26.4170  -31.7670   25.2020 C   0  0  1  0  0  0  0  0  0  0  0  0
  -25.3070  -31.5500   26.2580 C   0  0  0  0  0  1  0  0  0  0  0  0
  -26.9920  -30.3790   24.8390 C   0  0  0  0  0  1  0  0  0  0  0  0
  -27.5690  -32.5540   25.8720 C   0  0  0  0  0  1  0  0  0  0  0  0
  2  1  1  0
  3  1  1  0
  4  2  2  0
  5  4  1  0
  5  3  1  0
  6  3  2  0
  6  7  2  0
  8  7  1  0
  9 14  1  0
 10 11  1  0
 10  9  1  0
 12 11  1  0
 12 19  1  0
 12 13  1  0
 14  8  1  0
 14 13  1  0
 15  8  2  0
 16 17  2  0
 17 36  1  0
 18 17  1  0
 18 21  1  0
 19 20  1  0
 19 16  1  0
 20 18  2  0
 21 22  1  0
 22 23  2  0
 24 27  1  0
 24 23  1  0
 25 24  2  0
 26 25  1  0
 26 21  2  0
 27 28  1  0
 28 29  1  0
 29 30  2  0
 31 30  1  0
 31 35  1  0
 32 31  2  0
 33 28  2  0
 33 32  1  0
 34 33  1  0
 36 37  1  0
 37 40  1  0
 37 39  1  0
 38 36  2  0
 41 42  1  0
 41 16  1  0
 43 41  1  0
 44  4  1  0
 44 45  1  0
 46 57  2  0
 47 45  1  0
 47 52  1  0
 48 56  1  0
 48 58  1  0
 49 55  1  0
 49 51  1  0
 50 56  1  0
 51 52  2  0
 51 50  1  0
 53 47  2  0
 54 53  1  0
 54 49  2  0
 55 48  1  0
 56 46  1  0
 58 60  2  0
 59 58  1  0
 61 59  1  0
 62 71  2  0
 62 67  1  0
 63 59  1  0
 63 67  1  0
 64 63  1  0
 65 66  1  0
 65 64  1  0
 66 62  1  0
 67 68  2  0
 68 69  1  0
 70 69  2  0
 71 70  1  0
 72 46  1  0
 72 73  1  0
 72 82  1  0
 73 76  1  0
 74 78  1  0
 74 73  1  0
 75 74  2  0
 78 77  1  0
 80 81  1  0
 80 78  1  0
 80 79  1  0
 82 85  1  1
 82 83  1  0
 84 82  1  0
M  ISO  4   7 100   8 100  44 101  45 101
M  END
>  <TORSDO>  (18) 
F 18

>  <SCORE>  (18) 
-15.425

>  <name>  (18) 
17

>  <ligand_id>  (18) 
17

>  <original_smiles>  (18) 
[H]C(C(=O)N1C([H])([H])C([H])([H])C([H])([H])C([H])(n2nc(-c3c([H])c([H])c(Oc4c([H])c([H])c(F)c([H])c4F)c([H])c3[H])c(C(=O)N([H])[H])c2N([H])[H])C1([H])[H])=C([H])c1sc(C([H])([H])Oc2c([H])c([H])c3c(c2[H])C([H])([H])N(C(=O)C([H])(N([H])C(=O)C([H])(N([H])C([H])([H])[H])C([H])([H])[H])C(C([H])([H])[H])(C([H])([H])[H])C([H])([H])[H])C([H])(C(=O)N([H])C2([H])c4c([H])c([H])c([H])c([H])c4C([H])([H])C([H])([H])C2([H])[H])C3([H])[H])c([H])c1[H]

>  <smiles>  (18) 
[H]C(C(=O)N1C([H])([H])C([H])([H])C([H])([H])C([H])(n2nc(-c3c([H])c([H])c(Oc4c([H])c([H])c(F)c([H])c4F)c([H])c3[H])c(C(=O)N([H])[H])c2N([H])[H])C1([H])[H])=C([H])c1sc(C([H])([H])Oc2c([H])c([H])c3c(c2[H])C([H])([H])N(C(=O)C([H])(N([H])C(=O)C([H])(N([H])C([H])([H])[H])C([H])([H])[H])C(C([H])([H])[H])(C([H])([H])[H])C([H])([H])[H])C([H])(C(=O)N([H])C2([H])c4c([H])c([H])c([H])c([H])c4C([H])([H])C([H])([H])C2([H])[H])C3([H])[H])c([H])c1[H]

$$$$
18:0:0
     RDKit          3D

 85 93  0  0  1  0  0  0  0  0999 V2000
  -27.8280  -21.2910   20.5130 C   0  0  0  0  0  3  0  0  0  0  0  0
  -29.9080  -21.7570   19.9870 C   0  0  0  0  0  3  0  0  0  0  0  0
  -27.4930  -22.8050   20.5260 C   0  0  0  0  0  3  0  0  0  0  0  0
  -29.5840  -23.2510   19.9970 C   0  0  0  0  0  3  0  0  0  0  0  0
  -29.0990  -20.5300   20.2430 C   0  0  0  0  0  0  0  0  0  0  0  0
  -28.3350  -24.0200   20.2600 C   0  0  0  0  0  0  0  0  0  0  0  0
  -29.6940  -18.7950   20.1830 C   0  0  0  0  0  3  0  0  0  0  0  0
  -29.4520  -17.2760   20.3220 C   0  0  0  0  0  3  0  0  0  0  0  0
  -30.2980  -15.7810   20.1760 C   0  0  0  0  0  0  0  0  0  0  0  0
  -30.4200  -13.2260   19.3810 C   0  0  0  0  0  2  0  0  0  0  0  0
  -29.5200  -12.8320   18.1720 C   0  0  0  0  0  2  0  0  0  0  0  0
  -28.1030  -12.4630   18.6380 C   0  0  0  0  0  2  0  0  0  0  0  0
  -27.5960  -13.4530   19.7100 C   0  0  0  0  0  3  0  0  0  0  0  0
  -28.6330  -13.7730   20.8110 C   0  0  0  0  0  2  0  0  0  0  0  0
  -29.8050  -14.4000   20.1580 N   0  0  0  0  0  0  0  0  0  0  0  0
  -31.5220  -15.7130   19.9480 O   0  0  0  0  0  0  0  0  0  0  0  0
  -25.2500  -13.9450   20.5420 C   0  0  0  0  0  0  0  0  0  0  0  0
  -24.2060  -13.1470   20.9150 C   0  0  0  0  0  0  0  0  0  0  0  0
  -24.6870  -11.8030   20.8450 C   0  0  0  0  0  0  0  0  0  0  0  0
  -26.2950  -13.0890   20.2510 N   0  0  0  0  0  0  0  0  0  0  0  0
  -25.9730  -11.7910   20.5020 N   0  0  0  0  0  0  0  0  0  0  0  0
  -23.9730  -10.5310   21.0220 C   0  0  0  0  0  0  0  0  0  0  0  0
  -24.3980   -9.5670   21.9630 C   0  0  0  0  0  3  0  0  0  0  0  0
  -23.6790   -8.3630   22.1310 C   0  0  0  0  0  3  0  0  0  0  0  0
  -22.5220   -8.1140   21.3570 C   0  0  0  0  0  0  0  0  0  0  0  0
  -22.1150   -9.0660   20.4040 C   0  0  0  0  0  3  0  0  0  0  0  0
  -22.8350  -10.2610   20.2360 C   0  0  0  0  0  3  0  0  0  0  0  0
  -21.7750   -6.9620   21.4320 O   0  0  0  0  0  0  0  0  0  0  0  0
  -21.6670   -6.2500   22.6000 C   0  0  0  0  0  0  0  0  0  0  0  0
  -21.1120   -6.8150   23.7680 C   0  0  0  0  0  3  0  0  0  0  0  0
  -20.9550   -6.0270   24.9260 C   0  0  0  0  0  3  0  0  0  0  0  0
  -21.3430   -4.6740   24.9150 C   0  0  0  0  0  0  0  0  0  0  0  0
  -21.8920   -4.1080   23.7510 C   0  0  0  0  0  3  0  0  0  0  0  0
  -22.0490   -4.8930   22.5960 C   0  0  0  0  0  0  0  0  0  0  0  0
  -22.5580   -4.3360   21.4700 F   0  0  0  0  0  0  0  0  0  0  0  0
  -21.1870   -3.9140   26.0240 F   0  0  0  0  0  0  0  0  0  0  0  0
  -22.8100  -13.6060   21.2180 C   0  0  0  0  0  0  0  0  0  0  0  0
  -22.1070  -12.8930   22.0900 N   0  0  0  0  0  0  0  0  0  0  0  0
  -22.3540  -14.6340   20.7190 O   0  0  0  0  0  0  0  0  0  0  0  0
  -22.4900  -12.0620   22.5150 H   0  0  0  0  0  0  0  0  0  0  0  0
  -21.1700  -13.1820   22.3360 H   0  0  0  0  0  0  0  0  0  0  0  0
  -25.3950  -15.3210   20.3930 N   0  0  0  0  0  0  0  0  0  0  0  0
  -24.6230  -15.9640   20.5390 H   0  0  0  0  0  0  0  0  0  0  0  0
  -26.2290  -15.7760   20.0470 H   0  0  0  0  0  0  0  0  0  0  0  0
  -28.1980  -25.6440   20.2970 O   0  0  0  0  0  0  0  0  0  0  0  0
  -24.6510  -31.9090   23.2570 C   0  0  0  0  0  0  0  0  0  0  0  0
  -27.1700  -26.8120   20.2830 C   0  0  0  0  0  0  0  0  0  0  0  0
  -23.4580  -30.5060   21.6260 C   0  0  0  0  0  3  0  0  0  0  0  0
  -24.9000  -28.8480   20.2190 C   0  0  0  0  0  0  0  0  0  0  0  0
  -26.0360  -30.6440   21.5010 C   0  0  0  0  0  2  0  0  0  0  0  0
  -26.0950  -29.2060   20.8530 C   0  0  0  0  0  0  0  0  0  0  0  0
  -27.2100  -28.2150   20.8540 C   0  0  0  0  0  3  0  0  0  0  0  0
  -25.9430  -26.6650   19.5870 C   0  0  0  0  0  3  0  0  0  0  0  0
  -24.8630  -27.6030   19.5630 C   0  0  0  0  0  3  0  0  0  0  0  0
  -23.6940  -29.8010   20.2580 C   0  0  0  0  0  2  0  0  0  0  0  0
  -24.7390  -31.0540   22.1800 N   0  0  0  0  0  0  0  0  0  0  0  0
  -23.5590  -32.2110   23.7690 O   0  0  0  0  0  0  0  0  0  0  0  0
  -22.7440  -29.5330   22.6030 C   0  0  0  0  0  0  0  0  0  0  0  0
  -21.4150  -29.3630   22.4670 N   0  0  0  0  0  0  0  0  0  0  0  0
  -23.3980  -28.9280   23.4560 O   0  0  0  0  0  0  0  0  0  0  0  0
  -20.9360  -29.9020   21.7590 H   0  0  0  0  0  0  0  0  0  0  0  0
  -18.0370  -28.1160   22.9600 C   0  0  0  0  0  0  0  0  0  0  0  0
  -20.5910  -28.4270   23.2430 C   0  0  0  0  0  3  0  0  0  0  0  0
  -20.7180  -26.9880   22.6920 C   0  0  0  0  0  2  0  0  0  0  0  0
  -19.6320  -26.6350   21.6700 C   0  0  0  0  0  2  0  0  0  0  0  0
  -18.2420  -26.7640   22.2980 C   0  0  0  0  0  2  0  0  0  0  0  0
  -19.1390  -28.9030   23.3890 C   0  0  0  0  0  0  0  0  0  0  0  0
  -18.8910  -30.1650   23.9740 C   0  0  0  0  0  3  0  0  0  0  0  0
  -17.5750  -30.6390   24.1290 C   0  0  0  0  0  3  0  0  0  0  0  0
  -16.4880  -29.8520   23.7130 C   0  0  0  0  0  3  0  0  0  0  0  0
  -16.7200  -28.5910   23.1350 C   0  0  0  0  0  3  0  0  0  0  0  0
  -25.9160  -32.5610   23.8930 C   0  0  0  0  0  3  0  0  0  0  0  0
  -25.5970  -33.9670   24.2150 N   0  0  0  0  0  0  0  0  0  0  0  0
  -25.9110  -35.0240   23.4540 C   0  0  0  0  0  0  0  0  0  0  0  0
  -26.5550  -34.9190   22.4070 O   0  0  0  0  0  0  0  0  0  0  0  0
  -25.0200  -34.1210   25.0270 H   0  0  0  0  0  0  0  0  0  0  0  0
  -24.1680  -36.8220   23.1590 C   0  0  0  0  0  1  0  0  0  0  0  0
  -25.4400  -36.4180   23.9230 C   0  0  0  0  0  3  0  0  0  0  0  0
  -27.5950  -37.3260   24.6780 C   0  0  0  0  0  1  0  0  0  0  0  0
  -26.4650  -37.4730   23.7650 N   0  0  0  0  0  0  0  0  0  0  0  0
  -26.0590  -38.3940   23.9090 H   0  0  0  0  0  0  0  0  0  0  0  0
  -26.4060  -31.8150   25.1960 C   0  0  1  0  0  0  0  0  0  0  0  0
  -25.2950  -31.6030   26.2510 C   0  0  0  0  0  1  0  0  0  0  0  0
  -26.9910  -30.4270   24.8540 C   0  0  0  0  0  1  0  0  0  0  0  0
  -27.5490  -32.6180   25.8620 C   0  0  0  0  0  1  0  0  0  0  0  0
  1  3  1  0
  2  4  2  0
  2  5  1  0
  4  6  1  0
  5  1  2  0
  6 45  1  0
  6  3  2  0
  7  5  1  0
  7  8  2  0
  9  8  1  0
 10 15  1  0
 11 12  1  0
 11 10  1  0
 13 12  1  0
 13 20  1  0
 13 14  1  0
 15  9  1  0
 15 14  1  0
 16  9  2  0
 17 18  2  0
 18 37  1  0
 19 18  1  0
 19 22  1  0
 20 21  1  0
 20 17  1  0
 21 19  2  0
 22 23  1  0
 23 24  2  0
 25 28  1  0
 25 24  1  0
 26 25  2  0
 27 26  1  0
 27 22  2  0
 28 29  1  0
 29 30  1  0
 30 31  2  0
 32 31  1  0
 32 36  1  0
 33 32  2  0
 34 29  2  0
 34 33  1  0
 35 34  1  0
 37 38  1  0
 38 41  1  0
 38 40  1  0
 39 37  2  0
 42 43  1  0
 42 17  1  0
 44 42  1  0
 46 57  2  0
 47 45  1  0
 47 52  1  0
 48 56  1  0
 48 58  1  0
 49 55  1  0
 49 51  1  0
 50 56  1  0
 51 52  2  0
 51 50  1  0
 53 47  2  0
 54 53  1  0
 54 49  2  0
 55 48  1  0
 56 46  1  0
 58 60  2  0
 59 58  1  0
 61 59  1  0
 62 71  2  0
 62 67  1  0
 63 59  1  0
 63 67  1  0
 64 63  1  0
 65 66  1  0
 65 64  1  0
 66 62  1  0
 67 68  2  0
 68 69  1  0
 70 69  2  0
 71 70  1  0
 72 46  1  0
 72 73  1  0
 72 82  1  0
 73 76  1  0
 74 78  1  0
 74 73  1  0
 75 74  2  0
 78 77  1  0
 80 81  1  0
 80 78  1  0
 80 79  1  0
 82 85  1  1
 82 83  1  0
 84 82  1  0
M  ISO  4   6 101   8 100   9 100  45 101
M  END
>  <TORSDO>  (19) 
F 17

>  <SCORE>  (19) 
-15.612

>  <name>  (19) 
18

>  <ligand_id>  (19) 
18

>  <original_smiles>  (19) 
[H]C(C(=O)N1C([H])([H])C([H])([H])C([H])([H])C([H])(n2nc(-c3c([H])c([H])c(Oc4c([H])c([H])c(F)c([H])c4F)c([H])c3[H])c(C(=O)N([H])[H])c2N([H])[H])C1([H])[H])=C([H])c1c([H])c([H])c(Oc2c([H])c([H])c3c(c2[H])C([H])([H])N(C(=O)C([H])(N([H])C(=O)C([H])(N([H])C([H])([H])[H])C([H])([H])[H])C(C([H])([H])[H])(C([H])([H])[H])C([H])([H])[H])C([H])(C(=O)N([H])C2([H])c4c([H])c([H])c([H])c([H])c4C([H])([H])C([H])([H])C2([H])[H])C3([H])[H])c([H])c1[H]

>  <smiles>  (19) 
[H]C(C(=O)N1C([H])([H])C([H])([H])C([H])([H])C([H])(n2nc(-c3c([H])c([H])c(Oc4c([H])c([H])c(F)c([H])c4F)c([H])c3[H])c(C(=O)N([H])[H])c2N([H])[H])C1([H])[H])=C([H])c1c([H])c([H])c(Oc2c([H])c([H])c3c(c2[H])C([H])([H])N(C(=O)C([H])(N([H])C(=O)C([H])(N([H])C([H])([H])[H])C([H])([H])[H])C(C([H])([H])[H])(C([H])([H])[H])C([H])([H])[H])C([H])(C(=O)N([H])C2([H])c4c([H])c([H])c([H])c([H])c4C([H])([H])C([H])([H])C2([H])[H])C3([H])[H])c([H])c1[H]

$$$$
19:0:0
     RDKit          3D

 86 93  0  0  1  0  0  0  0  0999 V2000
  -28.6430  -21.9280   20.2660 C   0  0  0  0  0  3  0  0  0  0  0  0
  -28.8930  -23.3350   20.2890 C   0  0  0  0  0  3  0  0  0  0  0  0
  -29.6390  -20.7430   20.4090 C   0  0  0  0  0  0  0  0  0  0  0  0
  -29.2490  -19.3700   20.3760 N   0  0  0  0  0  0  0  0  0  0  0  0
  -30.8420  -20.9710   20.5410 O   0  0  0  0  0  0  0  0  0  0  0  0
  -28.2520  -19.2210   20.2820 H   0  0  0  0  0  0  0  0  0  0  0  0
  -30.1270  -18.0340   20.3720 C   0  0  0  0  0  3  0  0  0  0  0  0
  -29.5860  -16.4380   20.5880 C   0  0  0  0  0  3  0  0  0  0  0  0
  -30.4450  -15.0210   20.3370 C   0  0  0  0  0  0  0  0  0  0  0  0
  -30.3490  -12.6690   19.3710 C   0  0  0  0  0  2  0  0  0  0  0  0
  -29.4040  -12.6500   18.1450 C   0  0  0  0  0  2  0  0  0  0  0  0
  -27.9420  -12.4330   18.5800 C   0  0  0  0  0  2  0  0  0  0  0  0
  -27.5450  -13.3370   19.7750 C   0  0  0  0  0  3  0  0  0  0  0  0
  -28.6090  -13.3260   20.8930 C   0  0  0  0  0  2  0  0  0  0  0  0
  -29.8850  -13.7420   20.2980 N   0  0  0  0  0  0  0  0  0  0  0  0
  -31.6410  -15.0960   20.0260 O   0  0  0  0  0  0  0  0  0  0  0  0
  -25.1690  -13.9060   20.5340 C   0  0  0  0  0  0  0  0  0  0  0  0
  -24.1080  -13.1280   20.9070 C   0  0  0  0  0  0  0  0  0  0  0  0
  -24.5770  -11.7780   20.8700 C   0  0  0  0  0  0  0  0  0  0  0  0
  -26.2130  -13.0320   20.2830 N   0  0  0  0  0  0  0  0  0  0  0  0
  -25.8660  -11.7460   20.5530 N   0  0  0  0  0  0  0  0  0  0  0  0
  -23.8550  -10.5130   21.0600 C   0  0  0  0  0  0  0  0  0  0  0  0
  -24.2920   -9.5440   21.9890 C   0  0  0  0  0  3  0  0  0  0  0  0
  -23.5680   -8.3450   22.1670 C   0  0  0  0  0  3  0  0  0  0  0  0
  -22.3930   -8.1080   21.4160 C   0  0  0  0  0  0  0  0  0  0  0  0
  -21.9750   -9.0650   20.4750 C   0  0  0  0  0  3  0  0  0  0  0  0
  -22.7000  -10.2550   20.2960 C   0  0  0  0  0  3  0  0  0  0  0  0
  -21.6390   -6.9620   21.5040 O   0  0  0  0  0  0  0  0  0  0  0  0
  -21.5930   -6.2170   22.6550 C   0  0  0  0  0  0  0  0  0  0  0  0
  -21.1590   -6.7670   23.8810 C   0  0  0  0  0  3  0  0  0  0  0  0
  -21.0610   -5.9490   25.0250 C   0  0  0  0  0  3  0  0  0  0  0  0
  -21.3860   -4.5810   24.9420 C   0  0  0  0  0  0  0  0  0  0  0  0
  -21.8140   -4.0320   23.7210 C   0  0  0  0  0  3  0  0  0  0  0  0
  -21.9140   -4.8460   22.5800 C   0  0  0  0  0  0  0  0  0  0  0  0
  -22.3060   -4.3070   21.4010 F   0  0  0  0  0  0  0  0  0  0  0  0
  -21.2850   -3.7930   26.0370 F   0  0  0  0  0  0  0  0  0  0  0  0
  -22.7110  -13.6000   21.1830 C   0  0  0  0  0  0  0  0  0  0  0  0
  -21.9900  -12.9020   22.0530 N   0  0  0  0  0  0  0  0  0  0  0  0
  -22.2680  -14.6230   20.6640 O   0  0  0  0  0  0  0  0  0  0  0  0
  -22.3610  -12.0750   22.4960 H   0  0  0  0  0  0  0  0  0  0  0  0
  -21.0520  -13.2010   22.2830 H   0  0  0  0  0  0  0  0  0  0  0  0
  -25.3280  -15.2780   20.3620 N   0  0  0  0  0  0  0  0  0  0  0  0
  -24.5630  -15.9310   20.4840 H   0  0  0  0  0  0  0  0  0  0  0  0
  -26.1800  -15.7230   20.0420 H   0  0  0  0  0  0  0  0  0  0  0  0
  -27.8860  -24.6300   20.0760 C   0  0  0  0  0  2  0  0  0  0  0  0
  -28.2200  -26.1490   20.2780 O   0  0  0  0  0  0  0  0  0  0  0  0
  -24.6400  -31.9030   23.2500 C   0  0  0  0  0  0  0  0  0  0  0  0
  -27.1830  -27.1610   20.2080 C   0  0  0  0  0  0  0  0  0  0  0  0
  -23.4310  -30.5170   21.6100 C   0  0  0  0  0  3  0  0  0  0  0  0
  -24.8670  -28.9360   20.1800 C   0  0  0  0  0  0  0  0  0  0  0  0
  -25.9880  -30.7620   21.4450 C   0  0  0  0  0  2  0  0  0  0  0  0
  -26.0520  -29.3690   20.7890 C   0  0  0  0  0  0  0  0  0  0  0  0
  -27.2110  -28.4990   20.7850 C   0  0  0  0  0  3  0  0  0  0  0  0
  -25.9690  -26.8390   19.5590 C   0  0  0  0  0  3  0  0  0  0  0  0
  -24.8400  -27.6850   19.5500 C   0  0  0  0  0  3  0  0  0  0  0  0
  -23.6460  -29.8420   20.2300 C   0  0  0  0  0  2  0  0  0  0  0  0
  -24.7070  -31.0820   22.1560 N   0  0  0  0  0  0  0  0  0  0  0  0
  -23.5570  -32.1930   23.7780 O   0  0  0  0  0  0  0  0  0  0  0  0
  -22.7460  -29.5130   22.5720 C   0  0  0  0  0  0  0  0  0  0  0  0
  -21.4170  -29.3450   22.4420 N   0  0  0  0  0  0  0  0  0  0  0  0
  -23.4130  -28.8870   23.3990 O   0  0  0  0  0  0  0  0  0  0  0  0
  -20.9360  -29.9010   21.7500 H   0  0  0  0  0  0  0  0  0  0  0  0
  -18.0320  -28.1460   22.9320 C   0  0  0  0  0  0  0  0  0  0  0  0
  -20.5910  -28.4120   23.2130 C   0  0  0  0  0  3  0  0  0  0  0  0
  -20.6960  -26.9770   22.6470 C   0  0  0  0  0  2  0  0  0  0  0  0
  -19.6000  -26.6480   21.6280 C   0  0  0  0  0  2  0  0  0  0  0  0
  -18.2140  -26.7950   22.2620 C   0  0  0  0  0  2  0  0  0  0  0  0
  -19.1480  -28.9130   23.3640 C   0  0  0  0  0  0  0  0  0  0  0  0
  -18.9240  -30.1760   23.9520 C   0  0  0  0  0  3  0  0  0  0  0  0
  -17.6170  -30.6750   24.1100 C   0  0  0  0  0  3  0  0  0  0  0  0
  -16.5160  -29.9070   23.6930 C   0  0  0  0  0  3  0  0  0  0  0  0
  -16.7250  -28.6440   23.1100 C   0  0  0  0  0  3  0  0  0  0  0  0
  -25.9220  -32.5310   23.8760 C   0  0  0  0  0  3  0  0  0  0  0  0
  -26.4300  -31.7570   25.1550 C   0  0  1  0  0  0  0  0  0  0  0  0
  -25.3320  -31.5300   26.2210 C   0  0  0  0  0  1  0  0  0  0  0  0
  -27.0050  -30.3750   24.7710 C   0  0  0  0  0  1  0  0  0  0  0  0
  -27.5840  -32.5450   25.8190 C   0  0  0  0  0  1  0  0  0  0  0  0
  -25.6160  -33.9300   24.2130 N   0  0  0  0  0  0  0  0  0  0  0  0
  -25.9290  -34.9870   23.4510 C   0  0  0  0  0  0  0  0  0  0  0  0
  -26.5710  -34.8860   22.4020 O   0  0  0  0  0  0  0  0  0  0  0  0
  -25.0430  -34.0830   25.0290 H   0  0  0  0  0  0  0  0  0  0  0  0
  -24.1800  -36.7760   23.1670 C   0  0  0  0  0  1  0  0  0  0  0  0
  -25.4550  -36.3750   23.9260 C   0  0  0  0  0  3  0  0  0  0  0  0
  -27.6180  -37.2730   24.6670 C   0  0  0  0  0  1  0  0  0  0  0  0
  -26.4770  -37.4330   23.7690 N   0  0  0  0  0  0  0  0  0  0  0  0
  -26.0730  -38.3510   23.9310 H   0  0  0  0  0  0  0  0  0  0  0  0
  1  2  2  0
  1  3  1  0
  3  5  2  0
  4  3  1  0
  6  4  1  0
  7  4  1  0
  7  8  2  0
  9  8  1  0
 10 15  1  0
 11 12  1  0
 11 10  1  0
 13 12  1  0
 13 20  1  0
 13 14  1  0
 15  9  1  0
 15 14  1  0
 16  9  2  0
 17 18  2  0
 18 37  1  0
 19 18  1  0
 19 22  1  0
 20 17  1  0
 20 21  1  0
 21 19  2  0
 22 23  1  0
 23 24  2  0
 25 28  1  0
 25 24  1  0
 26 25  2  0
 27 26  1  0
 27 22  2  0
 28 29  1  0
 29 30  1  0
 30 31  2  0
 32 31  1  0
 32 36  1  0
 33 32  2  0
 34 29  2  0
 34 33  1  0
 35 34  1  0
 37 38  1  0
 38 41  1  0
 38 40  1  0
 39 37  2  0
 42 43  1  0
 42 17  1  0
 44 42  1  0
 45 46  1  0
 45  2  1  0
 47 58  2  0
 48 46  1  0
 48 53  1  0
 49 57  1  0
 49 59  1  0
 50 56  1  0
 50 52  1  0
 51 57  1  0
 52 51  1  0
 53 52  2  0
 54 48  2  0
 55 54  1  0
 55 50  2  0
 56 49  1  0
 57 47  1  0
 59 61  2  0
 60 59  1  0
 62 60  1  0
 63 72  2  0
 63 68  1  0
 64 60  1  0
 64 68  1  0
 65 64  1  0
 66 67  1  0
 66 65  1  0
 67 63  1  0
 68 69  2  0
 69 70  1  0
 71 70  2  0
 72 71  1  0
 73 47  1  0
 73 78  1  0
 73 74  1  0
 74 77  1  1
 74 75  1  0
 76 74  1  0
 78 81  1  0
 79 83  1  0
 79 78  1  0
 80 79  2  0
 83 82  1  0
 85 83  1  0
 85 86  1  0
 85 84  1  0
M  ISO  4   8 100   9 100  45 101  46 101
M  END
>  <TORSDO>  (20) 
F 20

>  <SCORE>  (20) 
-14.424

>  <name>  (20) 
19

>  <ligand_id>  (20) 
19

>  <original_smiles>  (20) 
[H]C(C(=O)N([H])C([H])([H])C([H])([H])C(=O)N1C([H])([H])C([H])([H])C([H])([H])C([H])(n2nc(-c3c([H])c([H])c(Oc4c([H])c([H])c(F)c([H])c4F)c([H])c3[H])c(C(=O)N([H])[H])c2N([H])[H])C1([H])[H])=C([H])C([H])([H])Oc1c([H])c([H])c2c(c1[H])C([H])([H])N(C(=O)C([H])(N([H])C(=O)C([H])(N([H])C([H])([H])[H])C([H])([H])[H])C(C([H])([H])[H])(C([H])([H])[H])C([H])([H])[H])C([H])(C(=O)N([H])C1([H])c3c([H])c([H])c([H])c([H])c3C([H])([H])C([H])([H])C1([H])[H])C2([H])[H]

>  <smiles>  (20) 
[H]C(C(=O)N([H])C([H])([H])C([H])([H])C(=O)N1C([H])([H])C([H])([H])C([H])([H])C([H])(n2nc(-c3c([H])c([H])c(Oc4c([H])c([H])c(F)c([H])c4F)c([H])c3[H])c(C(=O)N([H])[H])c2N([H])[H])C1([H])[H])=C([H])C([H])([H])Oc1c([H])c([H])c2c(c1[H])C([H])([H])N(C(=O)C([H])(N([H])C(=O)C([H])(N([H])C([H])([H])[H])C([H])([H])[H])C(C([H])([H])[H])(C([H])([H])[H])C([H])([H])[H])C([H])(C(=O)N([H])C1([H])c3c([H])c([H])c([H])c([H])c3C([H])([H])C([H])([H])C1([H])[H])C2([H])[H]

$$$$
20:0:0
     RDKit          3D

 80 84  0  0  1  0  0  0  0  0999 V2000
  -24.7460  -31.7430   23.0830 C   0  0  0  0  0  0  0  0  0  0  0  0
  -27.2100  -26.0640   20.1270 C   0  0  0  0  0  0  0  0  0  0  0  0
  -23.5700  -30.3290   21.4600 C   0  0  0  0  0  3  0  0  0  0  0  0
  -25.0070  -28.5360   20.0800 C   0  0  0  0  0  0  0  0  0  0  0  0
  -26.1700  -30.2630   21.4030 C   0  0  0  0  0  2  0  0  0  0  0  0
  -26.2170  -28.7550   20.7470 C   0  0  0  0  0  0  0  0  0  0  0  0
  -27.2620  -27.5730   20.7210 C   0  0  0  0  0  3  0  0  0  0  0  0
  -25.9640  -26.2430   19.3960 C   0  0  0  0  0  3  0  0  0  0  0  0
  -24.9600  -27.3100   19.3790 C   0  0  0  0  0  3  0  0  0  0  0  0
  -23.8330  -29.5740   20.1130 C   0  0  0  0  0  2  0  0  0  0  0  0
  -24.8630  -30.8290   22.0330 N   0  0  0  0  0  0  0  0  0  0  0  0
  -23.6440  -32.0740   23.5620 O   0  0  0  0  0  0  0  0  0  0  0  0
  -22.7910  -29.4190   22.4560 C   0  0  0  0  0  0  0  0  0  0  0  0
  -21.4490  -29.3180   22.3490 N   0  0  0  0  0  0  0  0  0  0  0  0
  -23.4230  -28.7920   23.3080 O   0  0  0  0  0  0  0  0  0  0  0  0
  -20.9800  -29.8730   21.6480 H   0  0  0  0  0  0  0  0  0  0  0  0
  -18.0410  -28.1380   22.9180 C   0  0  0  0  0  0  0  0  0  0  0  0
  -20.6100  -28.3930   23.1320 C   0  0  0  0  0  3  0  0  0  0  0  0
  -20.6860  -26.9590   22.5550 C   0  0  0  0  0  2  0  0  0  0  0  0
  -19.5690  -26.6520   21.5530 C   0  0  0  0  0  2  0  0  0  0  0  0
  -18.1980  -26.7980   22.2180 C   0  0  0  0  0  2  0  0  0  0  0  0
  -19.1710  -28.8950   23.3300 C   0  0  0  0  0  0  0  0  0  0  0  0
  -18.9640  -30.1440   23.9550 C   0  0  0  0  0  3  0  0  0  0  0  0
  -17.6620  -30.6380   24.1630 C   0  0  0  0  0  3  0  0  0  0  0  0
  -16.5490  -29.8810   23.7600 C   0  0  0  0  0  3  0  0  0  0  0  0
  -16.7380  -28.6320   23.1440 C   0  0  0  0  0  3  0  0  0  0  0  0
  -25.9830  -32.4290   23.7450 C   0  0  0  0  0  3  0  0  0  0  0  0
  -25.6390  -33.8320   24.0870 N   0  0  0  0  0  0  0  0  0  0  0  0
  -25.9740  -34.9210   23.3780 C   0  0  0  0  0  0  0  0  0  0  0  0
  -26.6420  -34.8510   22.3460 O   0  0  0  0  0  0  0  0  0  0  0  0
  -25.0380  -33.9580   24.8880 H   0  0  0  0  0  0  0  0  0  0  0  0
  -24.2370  -36.7390   23.1240 C   0  0  0  0  0  1  0  0  0  0  0  0
  -25.5010  -36.3040   23.8860 C   0  0  0  0  0  3  0  0  0  0  0  0
  -27.6550  -37.1890   24.6800 C   0  0  0  0  0  1  0  0  0  0  0  0
  -26.5280  -37.3660   23.7690 N   0  0  0  0  0  0  0  0  0  0  0  0
  -26.1210  -38.2820   23.9420 H   0  0  0  0  0  0  0  0  0  0  0  0
  -26.4630  -31.6890   25.0560 C   0  0  1  0  0  0  0  0  0  0  0  0
  -25.3460  -31.4850   26.1080 C   0  0  0  0  0  1  0  0  0  0  0  0
  -27.0470  -30.2980   24.7340 C   0  0  0  0  0  1  0  0  0  0  0  0
  -27.6060  -32.4920   25.7240 C   0  0  0  0  0  1  0  0  0  0  0  0
  -28.1240  -24.5470   20.1010 O   0  0  0  0  0  1  0  0  0  0  0  0
  -28.8950  -21.0850   20.0540 C   0  0  0  0  0  1  0  0  0  0  0  0
  -28.0990  -22.6590   20.0690 C   0  0  0  0  0  1  0  0  0  0  0  0
  -28.9470  -18.8370   20.0600 C   0  0  0  0  0 15  0  0  0  0  0  0
  -29.8240  -16.7530   19.9470 C   0  0  0  0  0  2  0  0  0  0  0  0
  -30.2570  -13.9400   19.2370 C   0  0  0  0  0  2  0  0  0  0  0  0
  -29.4820  -13.0810   18.1440 C   0  0  0  0  0  2  0  0  0  0  0  0
  -28.1720  -12.4910   18.6720 C   0  0  0  0  0  2  0  0  0  0  0  0
  -27.5250  -13.5260   19.6000 C   0  0  0  0  0  3  0  0  0  0  0  0
  -28.4860  -14.2530   20.6140 C   0  0  0  0  0  2  0  0  0  0  0  0
  -29.4800  -15.1850   19.9070 N   0  0  0  0  0  0  0  0  0  0  0  0
  -31.0700  -16.5430   19.7860 O   0  0  0  0  0  1  0  0  0  0  0  0
  -25.1920  -13.9190   20.4600 C   0  0  0  0  0  0  0  0  0  0  0  0
  -24.1650  -13.1100   20.8480 C   0  0  0  0  0  0  0  0  0  0  0  0
  -24.6630  -11.7720   20.7820 C   0  0  0  0  0  0  0  0  0  0  0  0
  -26.2550  -13.0890   20.1790 N   0  0  0  0  0  0  0  0  0  0  0  0
  -25.9530  -11.7790   20.4230 N   0  0  0  0  0  0  0  0  0  0  0  0
  -23.9520  -10.4960   20.9810 C   0  0  0  0  0  0  0  0  0  0  0  0
  -24.4050   -9.5270   21.9050 C   0  0  0  0  0  3  0  0  0  0  0  0
  -23.6830   -8.3280   22.1020 C   0  0  0  0  0  3  0  0  0  0  0  0
  -22.4910   -8.0870   21.3770 C   0  0  0  0  0  0  0  0  0  0  0  0
  -22.0540   -9.0440   20.4440 C   0  0  0  0  0  3  0  0  0  0  0  0
  -22.7770  -10.2340   20.2460 C   0  0  0  0  0  3  0  0  0  0  0  0
  -21.7410   -6.9400   21.4820 O   0  0  0  0  0  0  0  0  0  0  0  0
  -21.7160   -6.1950   22.6350 C   0  0  0  0  0  0  0  0  0  0  0  0
  -21.3280   -6.7530   23.8730 C   0  0  0  0  0  3  0  0  0  0  0  0
  -21.2500   -5.9370   25.0190 C   0  0  0  0  0  3  0  0  0  0  0  0
  -21.5490   -4.5650   24.9290 C   0  0  0  0  0  0  0  0  0  0  0  0
  -21.9300   -4.0060   23.6970 C   0  0  0  0  0  3  0  0  0  0  0  0
  -22.0090   -4.8190   22.5520 C   0  0  0  0  0  0  0  0  0  0  0  0
  -22.3550   -4.2710   21.3630 F   0  0  0  0  0  0  0  0  0  0  0  0
  -21.4670   -3.7790   26.0290 F   0  0  0  0  0  0  0  0  0  0  0  0
  -22.7690  -13.5630   21.1570 C   0  0  0  0  0  0  0  0  0  0  0  0
  -22.0790  -12.8590   22.0440 N   0  0  0  0  0  0  0  0  0  0  0  0
  -22.3040  -14.5830   20.6490 O   0  0  0  0  0  0  0  0  0  0  0  0
  -22.4710  -12.0360   22.4770 H   0  0  0  0  0  0  0  0  0  0  0  0
  -21.1440  -13.1470   22.2960 H   0  0  0  0  0  0  0  0  0  0  0  0
  -25.3090  -15.2960   20.2860 N   0  0  0  0  0  0  0  0  0  0  0  0
  -24.5260  -15.9260   20.4230 H   0  0  0  0  0  0  0  0  0  0  0  0
  -26.1360  -15.7620   19.9350 H   0  0  0  0  0  0  0  0  0  0  0  0
  1 12  2  0
  2  7  1  0
  3 11  1  0
  3 13  1  0
  4 10  1  0
  4  6  1  0
  5 11  1  0
  6  5  1  0
  7  6  2  0
  8  2  2  0
  9  8  1  0
  9  4  2  0
 10  3  1  0
 11  1  1  0
 13 15  2  0
 14 13  1  0
 16 14  1  0
 17 26  2  0
 17 22  1  0
 18 14  1  0
 18 22  1  0
 19 18  1  0
 20 21  1  0
 20 19  1  0
 21 17  1  0
 22 23  2  0
 23 24  1  0
 25 24  2  0
 26 25  1  0
 27  1  1  0
 27 28  1  0
 27 37  1  0
 28 31  1  0
 29 33  1  0
 29 28  1  0
 30 29  2  0
 33 32  1  0
 35 33  1  0
 35 36  1  0
 35 34  1  0
 37 40  1  1
 37 38  1  0
 39 37  1  0
 41  2  1  0
 42 43  1  0
 46 51  1  0
 47 48  1  0
 47 46  1  0
 49 48  1  0
 49 56  1  0
 49 50  1  0
 51 45  1  0
 51 50  1  0
 52 45  1  0
 53 54  2  0
 54 73  1  0
 55 54  1  0
 55 58  1  0
 56 57  1  0
 56 53  1  0
 57 55  2  0
 58 59  1  0
 59 60  2  0
 61 64  1  0
 61 60  1  0
 62 61  2  0
 63 62  1  0
 63 58  2  0
 64 65  1  0
 65 66  1  0
 66 67  2  0
 68 67  1  0
 68 72  1  0
 69 68  2  0
 70 65  2  0
 70 69  1  0
 71 70  1  0
 73 74  1  0
 74 77  1  0
 74 76  1  0
 75 73  2  0
 78 79  1  0
 78 53  1  0
 80 78  1  0
M  ISO  4  41 101  43 101  44 100  45 100
M  END
>  <TORSDO>  (21) 
F 17

>  <SCORE>  (21) 
-16.048

>  <name>  (21) 
20

>  <ligand_id>  (21) 
20

>  <original_smiles>  (21) 
[H]C(Oc1c([H])c([H])c2c(c1[H])C([H])([H])N(C(=O)C([H])(N([H])C(=O)C([H])(N([H])C([H])([H])[H])C([H])([H])[H])C(C([H])([H])[H])(C([H])([H])[H])C([H])([H])[H])C([H])(C(=O)N([H])C1([H])c3c([H])c([H])c([H])c([H])c3C([H])([H])C([H])([H])C1([H])[H])C2([H])[H])=C([H])C([H])([H])C(=O)N1C([H])([H])C([H])([H])C([H])([H])C([H])(n2nc(-c3c([H])c([H])c(Oc4c([H])c([H])c(F)c([H])c4F)c([H])c3[H])c(C(=O)N([H])[H])c2N([H])[H])C1([H])[H]

>  <smiles>  (21) 
[H]C(Oc1c([H])c([H])c2c(c1[H])C([H])([H])N(C(=O)C([H])(N([H])C(=O)C([H])(N([H])C([H])([H])[H])C([H])([H])[H])C(C([H])([H])[H])(C([H])([H])[H])C([H])([H])[H])C([H])(C(=O)N([H])C1([H])c3c([H])c([H])c([H])c([H])c3C([H])([H])C([H])([H])C1([H])[H])C2([H])[H])=C([H])C([H])([H])C(=O)N1C([H])([H])C([H])([H])C([H])([H])C([H])(n2nc(-c3c([H])c([H])c(Oc4c([H])c([H])c(F)c([H])c4F)c([H])c3[H])c(C(=O)N([H])[H])c2N([H])[H])C1([H])[H]

$$$$
21:0:0
     RDKit          3D

 82 86  0  0  1  0  0  0  0  0999 V2000
  -28.1950  -25.0660   20.2230 O   0  0  0  0  0  1  0  0  0  0  0  0
  -24.7130  -31.7650   23.1270 C   0  0  0  0  0  0  0  0  0  0  0  0
  -27.2360  -26.3970   20.2550 C   0  0  0  0  0  0  0  0  0  0  0  0
  -23.5520  -30.3540   21.4890 C   0  0  0  0  0  3  0  0  0  0  0  0
  -25.0100  -28.6270   20.1370 C   0  0  0  0  0  0  0  0  0  0  0  0
  -26.1450  -30.3990   21.4360 C   0  0  0  0  0  2  0  0  0  0  0  0
  -26.2060  -28.9270   20.7980 C   0  0  0  0  0  0  0  0  0  0  0  0
  -27.2930  -27.8540   20.8080 C   0  0  0  0  0  3  0  0  0  0  0  0
  -26.0000  -26.3830   19.5360 C   0  0  0  0  0  3  0  0  0  0  0  0
  -24.9630  -27.3830   19.4800 C   0  0  0  0  0  3  0  0  0  0  0  0
  -23.8230  -29.6210   20.1400 C   0  0  0  0  0  2  0  0  0  0  0  0
  -24.8300  -30.8800   22.0690 N   0  0  0  0  0  0  0  0  0  0  0  0
  -23.6080  -32.0870   23.6030 O   0  0  0  0  0  0  0  0  0  0  0  0
  -22.7890  -29.4140   22.4640 C   0  0  0  0  0  0  0  0  0  0  0  0
  -21.4510  -29.3000   22.3380 N   0  0  0  0  0  0  0  0  0  0  0  0
  -23.4190  -28.7780   23.3130 O   0  0  0  0  0  0  0  0  0  0  0  0
  -20.9890  -29.8610   21.6360 H   0  0  0  0  0  0  0  0  0  0  0  0
  -18.0360  -28.1440   22.8440 C   0  0  0  0  0  0  0  0  0  0  0  0
  -20.6010  -28.3810   23.1090 C   0  0  0  0  0  3  0  0  0  0  0  0
  -20.6810  -26.9440   22.5410 C   0  0  0  0  0  2  0  0  0  0  0  0
  -19.5790  -26.6360   21.5220 C   0  0  0  0  0  2  0  0  0  0  0  0
  -18.1970  -26.7960   22.1610 C   0  0  0  0  0  2  0  0  0  0  0  0
  -19.1630  -28.8950   23.2740 C   0  0  0  0  0  0  0  0  0  0  0  0
  -18.9530  -30.1530   23.8790 C   0  0  0  0  0  3  0  0  0  0  0  0
  -17.6520  -30.6610   24.0540 C   0  0  0  0  0  3  0  0  0  0  0  0
  -16.5400  -29.9090   23.6360 C   0  0  0  0  0  3  0  0  0  0  0  0
  -16.7330  -28.6510   23.0370 C   0  0  0  0  0  3  0  0  0  0  0  0
  -25.9560  -32.4300   23.7930 C   0  0  0  0  0  3  0  0  0  0  0  0
  -25.6020  -33.8140   24.1780 N   0  0  0  0  0  0  0  0  0  0  0  0
  -25.9160  -34.9190   23.4880 C   0  0  0  0  0  0  0  0  0  0  0  0
  -26.5840  -34.8830   22.4530 O   0  0  0  0  0  0  0  0  0  0  0  0
  -25.0020  -33.9130   24.9840 H   0  0  0  0  0  0  0  0  0  0  0  0
  -24.1500  -36.7080   23.2660 C   0  0  0  0  0  1  0  0  0  0  0  0
  -25.4160  -36.2800   24.0260 C   0  0  0  0  0  3  0  0  0  0  0  0
  -27.5550  -37.1700   24.8470 C   0  0  0  0  0  1  0  0  0  0  0  0
  -26.4260  -37.3590   23.9410 N   0  0  0  0  0  0  0  0  0  0  0  0
  -26.0060  -38.2620   24.1420 H   0  0  0  0  0  0  0  0  0  0  0  0
  -26.4640  -31.6460   25.0670 C   0  0  1  0  0  0  0  0  0  0  0  0
  -25.3630  -31.3860   26.1230 C   0  0  0  0  0  1  0  0  0  0  0  0
  -27.0630  -30.2770   24.6780 C   0  0  0  0  0  1  0  0  0  0  0  0
  -27.6030  -32.4390   25.7510 C   0  0  0  0  0  1  0  0  0  0  0  0
  -28.2650  -23.1700   20.5350 C   0  0  0  0  0 15  0  0  0  0  0  0
  -29.5190  -21.5020   18.6560 C   0  0  0  0  0  1  0  0  0  0  0  0
  -28.7290  -21.1800   19.9290 C   0  0  0  0  0  1  0  0  0  0  0  0
  -29.3330  -17.7170   20.1520 C   0  0  0  0  0  2  0  0  0  0  0  0
  -29.4440  -19.3330   20.3500 C   0  0  0  0  0  1  0  0  0  0  0  0
  -30.1400  -16.0690   20.2880 C   0  0  0  0  0  0  0  0  0  0  0  0
  -30.3900  -13.4040   19.5480 C   0  0  0  0  0  2  0  0  0  0  0  0
  -29.5700  -12.7720   18.3710 C   0  0  0  0  0  2  0  0  0  0  0  0
  -28.1780  -12.3210   18.8290 C   0  0  0  0  0  2  0  0  0  0  0  0
  -27.5790  -13.3580   19.7980 C   0  0  0  0  0  3  0  0  0  0  0  0
  -28.5580  -13.8790   20.8850 C   0  0  0  0  0  2  0  0  0  0  0  0
  -29.6730  -14.6250   20.2140 N   0  0  0  0  0  0  0  0  0  0  0  0
  -31.3850  -15.9020   20.2420 O   0  0  0  0  0  0  0  0  0  0  0  0
  -25.2260  -13.8360   20.5840 C   0  0  0  0  0  0  0  0  0  0  0  0
  -24.1690  -13.0440   20.9300 C   0  0  0  0  0  0  0  0  0  0  0  0
  -24.6460  -11.6980   20.8740 C   0  0  0  0  0  0  0  0  0  0  0  0
  -26.2750  -12.9790   20.3240 N   0  0  0  0  0  0  0  0  0  0  0  0
  -25.9420  -11.6800   20.5640 N   0  0  0  0  0  0  0  0  0  0  0  0
  -23.9170  -10.4300   21.0370 C   0  0  0  0  0  0  0  0  0  0  0  0
  -24.3690   -9.4210   21.9160 C   0  0  0  0  0  3  0  0  0  0  0  0
  -23.6330   -8.2260   22.0750 C   0  0  0  0  0  3  0  0  0  0  0  0
  -22.4310   -8.0300   21.3540 C   0  0  0  0  0  0  0  0  0  0  0  0
  -21.9970   -9.0280   20.4640 C   0  0  0  0  0  3  0  0  0  0  0  0
  -22.7320  -10.2140   20.3030 C   0  0  0  0  0  3  0  0  0  0  0  0
  -21.6660   -6.8900   21.4240 O   0  0  0  0  0  0  0  0  0  0  0  0
  -21.6870   -6.0750   22.5280 C   0  0  0  0  0  0  0  0  0  0  0  0
  -21.4020   -6.5650   23.8210 C   0  0  0  0  0  3  0  0  0  0  0  0
  -21.3660   -5.6800   24.9170 C   0  0  0  0  0  3  0  0  0  0  0  0
  -21.6040   -4.3060   24.7220 C   0  0  0  0  0  0  0  0  0  0  0  0
  -21.8820   -3.8160   23.4340 C   0  0  0  0  0  3  0  0  0  0  0  0
  -21.9200   -4.6970   22.3400 C   0  0  0  0  0  0  0  0  0  0  0  0
  -22.1660   -4.2160   21.0980 F   0  0  0  0  0  0  0  0  0  0  0  0
  -21.5630   -3.4540   25.7730 F   0  0  0  0  0  0  0  0  0  0  0  0
  -22.7690  -13.5140   21.1940 C   0  0  0  0  0  0  0  0  0  0  0  0
  -22.0380  -12.8100   22.0490 N   0  0  0  0  0  0  0  0  0  0  0  0
  -22.3350  -14.5430   20.6770 O   0  0  0  0  0  0  0  0  0  0  0  0
  -22.4040  -11.9780   22.4880 H   0  0  0  0  0  0  0  0  0  0  0  0
  -21.0980  -13.1070   22.2690 H   0  0  0  0  0  0  0  0  0  0  0  0
  -25.3790  -15.2110   20.4320 N   0  0  0  0  0  0  0  0  0  0  0  0
  -24.6080  -15.8580   20.5580 H   0  0  0  0  0  0  0  0  0  0  0  0
  -26.2300  -15.6640   20.1240 H   0  0  0  0  0  0  0  0  0  0  0  0
  1  3  1  0
  2 13  2  0
  3  8  1  0
  4 12  1  0
  4 14  1  0
  5 11  1  0
  5  7  1  0
  6 12  1  0
  7  8  2  0
  7  6  1  0
  9  3  2  0
 10  9  1  0
 10  5  2  0
 11  4  1  0
 12  2  1  0
 14 16  2  0
 15 14  1  0
 17 15  1  0
 18 27  2  0
 18 23  1  0
 19 15  1  0
 19 23  1  0
 20 19  1  0
 21 22  1  0
 21 20  1  0
 22 18  1  0
 23 24  2  0
 24 25  1  0
 26 25  2  0
 27 26  1  0
 28  2  1  0
 28 29  1  0
 28 38  1  0
 29 32  1  0
 30 34  1  0
 30 29  1  0
 31 30  2  0
 34 33  1  0
 36 34  1  0
 36 37  1  0
 36 35  1  0
 38 41  1  1
 38 39  1  0
 40 38  1  0
 43 44  1  0
 45 47  1  0
 45 46  1  0
 48 53  1  0
 49 50  1  0
 49 48  1  0
 51 50  1  0
 51 58  1  0
 51 52  1  0
 53 47  1  0
 53 52  1  0
 54 47  2  0
 55 56  2  0
 56 75  1  0
 57 56  1  0
 57 60  1  0
 58 59  1  0
 58 55  1  0
 59 57  2  0
 60 61  1  0
 61 62  2  0
 63 66  1  0
 63 62  1  0
 64 63  2  0
 65 64  1  0
 65 60  2  0
 66 67  1  0
 67 68  1  0
 68 69  2  0
 70 69  1  0
 70 74  1  0
 71 70  2  0
 72 67  2  0
 72 71  1  0
 73 72  1  0
 75 76  1  0
 76 79  1  0
 76 78  1  0
 77 75  2  0
 80 81  1  0
 80 55  1  0
 82 80  1  0
M  ISO  4   1 101  42 101  45 100  47 100
M  END
>  <TORSDO>  (22) 
F 18

>  <SCORE>  (22) 
-15.872

>  <name>  (22) 
21

>  <ligand_id>  (22) 
21

>  <original_smiles>  (22) 
[H]C(C(=O)N1C([H])([H])C([H])([H])C([H])([H])C([H])(n2nc(-c3c([H])c([H])c(Oc4c([H])c([H])c(F)c([H])c4F)c([H])c3[H])c(C(=O)N([H])[H])c2N([H])[H])C1([H])[H])=C([H])C([H])(C([H])([H])[H])C([H])([H])Oc1c([H])c([H])c2c(c1[H])C([H])([H])N(C(=O)C([H])(N([H])C(=O)C([H])(N([H])C([H])([H])[H])C([H])([H])[H])C(C([H])([H])[H])(C([H])([H])[H])C([H])([H])[H])C([H])(C(=O)N([H])C1([H])c3c([H])c([H])c([H])c([H])c3C([H])([H])C([H])([H])C1([H])[H])C2([H])[H]

>  <smiles>  (22) 
[H]C(C(=O)N1C([H])([H])C([H])([H])C([H])([H])C([H])(n2nc(-c3c([H])c([H])c(Oc4c([H])c([H])c(F)c([H])c4F)c([H])c3[H])c(C(=O)N([H])[H])c2N([H])[H])C1([H])[H])=C([H])C([H])(C([H])([H])[H])C([H])([H])Oc1c([H])c([H])c2c(c1[H])C([H])([H])N(C(=O)C([H])(N([H])C(=O)C([H])(N([H])C([H])([H])[H])C([H])([H])[H])C(C([H])([H])[H])(C([H])([H])[H])C([H])([H])[H])C([H])(C(=O)N([H])C1([H])c3c([H])c([H])c([H])c([H])c3C([H])([H])C([H])([H])C1([H])[H])C2([H])[H]

$$$$
22:0:0
     RDKit          3D

 86 93  0  0  1  0  0  0  0  0999 V2000
  -29.1630  -22.4540   20.3790 C   0  0  0  0  0  3  0  0  0  0  0  0
  -30.0470  -22.3580   22.7830 C   0  0  0  0  0  2  0  0  0  0  0  0
  -29.0170  -22.5100   21.9180 C   0  0  0  0  0  0  0  0  0  0  0  0
  -27.6050  -22.7580   22.4520 C   0  0  0  0  0  1  0  0  0  0  0  0
  -29.7790  -19.4460   20.1200 C   0  0  0  0  0  0  0  0  0  0  0  0
  -31.2530  -19.6650   20.3240 C   0  0  0  0  0  1  0  0  0  0  0  0
  -28.9850  -20.7030   20.0430 N   0  0  0  0  0  0  0  0  0  0  0  0
  -29.5320  -17.5420   20.0470 C   0  0  0  0  0  2  0  0  0  0  0  0
  -30.4770  -15.9280   19.9290 C   0  0  0  0  0  0  0  0  0  0  0  0
  -30.6330  -13.3750   19.1300 C   0  0  0  0  0  2  0  0  0  0  0  0
  -29.6980  -13.0010   17.9410 C   0  0  0  0  0  2  0  0  0  0  0  0
  -28.2820  -12.6390   18.4340 C   0  0  0  0  0  2  0  0  0  0  0  0
  -27.7990  -13.6520   19.4960 C   0  0  0  0  0  3  0  0  0  0  0  0
  -28.8590  -13.9240   20.5850 C   0  0  0  0  0  2  0  0  0  0  0  0
  -30.0340  -14.5390   19.9280 N   0  0  0  0  0  0  0  0  0  0  0  0
  -31.6910  -15.9160   19.6460 O   0  0  0  0  0  0  0  0  0  0  0  0
  -25.4790  -14.2070   20.3650 C   0  0  0  0  0  0  0  0  0  0  0  0
  -24.4290  -13.4340   20.7670 C   0  0  0  0  0  0  0  0  0  0  0  0
  -24.8880  -12.0810   20.6970 C   0  0  0  0  0  0  0  0  0  0  0  0
  -26.5030  -13.3280   20.0630 N   0  0  0  0  0  0  0  0  0  0  0  0
  -26.1630  -12.0410   20.3300 N   0  0  0  0  0  0  0  0  0  0  0  0
  -24.1650  -10.8180   20.9000 C   0  0  0  0  0  0  0  0  0  0  0  0
  -24.5920   -9.8570   21.8490 C   0  0  0  0  0  3  0  0  0  0  0  0
  -23.8590   -8.6670   22.0390 C   0  0  0  0  0  3  0  0  0  0  0  0
  -22.6860   -8.4290   21.2810 C   0  0  0  0  0  0  0  0  0  0  0  0
  -22.2820   -9.3750   20.3260 C   0  0  0  0  0  3  0  0  0  0  0  0
  -23.0140  -10.5590   20.1320 C   0  0  0  0  0  3  0  0  0  0  0  0
  -21.9320   -7.2820   21.3760 O   0  0  0  0  0  0  0  0  0  0  0  0
  -21.8350   -6.5760   22.5490 C   0  0  0  0  0  0  0  0  0  0  0  0
  -21.3140   -7.1580   23.7240 C   0  0  0  0  0  3  0  0  0  0  0  0
  -21.1720   -6.3830   24.8920 C   0  0  0  0  0  3  0  0  0  0  0  0
  -21.5320   -5.0240   24.8800 C   0  0  0  0  0  0  0  0  0  0  0  0
  -22.0430   -4.4410   23.7100 C   0  0  0  0  0  3  0  0  0  0  0  0
  -22.1900   -5.2140   22.5440 C   0  0  0  0  0  0  0  0  0  0  0  0
  -22.6630   -4.6400   21.4110 F   0  0  0  0  0  0  0  0  0  0  0  0
  -21.3880   -4.2770   25.9990 F   0  0  0  0  0  0  0  0  0  0  0  0
  -23.0490  -13.9210   21.0970 C   0  0  0  0  0  0  0  0  0  0  0  0
  -22.3450  -13.2210   21.9840 N   0  0  0  0  0  0  0  0  0  0  0  0
  -22.5980  -14.9550   20.6050 O   0  0  0  0  0  0  0  0  0  0  0  0
  -22.7180  -12.3890   22.4120 H   0  0  0  0  0  0  0  0  0  0  0  0
  -21.4270  -13.5440   22.2560 H   0  0  0  0  0  0  0  0  0  0  0  0
  -25.6430  -15.5840   20.1980 N   0  0  0  0  0  0  0  0  0  0  0  0
  -24.9030  -16.2440   20.3960 H   0  0  0  0  0  0  0  0  0  0  0  0
  -26.4650  -16.0380   19.8230 H   0  0  0  0  0  0  0  0  0  0  0  0
  -28.3170  -24.1010   19.7890 C   0  0  0  0  0  2  0  0  0  0  0  0
  -28.3870  -25.8420   20.0270 O   0  0  0  0  0  0  0  0  0  0  0  0
  -24.6090  -31.8170   23.0770 C   0  0  0  0  0  0  0  0  0  0  0  0
  -27.3770  -27.0140   19.9430 C   0  0  0  0  0  0  0  0  0  0  0  0
  -23.4920  -30.4420   21.3610 C   0  0  0  0  0  3  0  0  0  0  0  0
  -25.0280  -28.9330   19.8890 C   0  0  0  0  0  0  0  0  0  0  0  0
  -26.0570  -30.7240   21.2710 C   0  0  0  0  0  2  0  0  0  0  0  0
  -26.1910  -29.3240   20.5670 C   0  0  0  0  0  0  0  0  0  0  0  0
  -27.3520  -28.3890   20.5590 C   0  0  0  0  0  3  0  0  0  0  0  0
  -26.1860  -26.8390   19.1930 C   0  0  0  0  0  3  0  0  0  0  0  0
  -25.0650  -27.7200   19.1760 C   0  0  0  0  0  3  0  0  0  0  0  0
  -23.7800  -29.8260   19.9590 C   0  0  0  0  0  2  0  0  0  0  0  0
  -24.7390  -31.0260   21.9600 N   0  0  0  0  0  0  0  0  0  0  0  0
  -23.5040  -32.0360   23.6050 O   0  0  0  0  0  0  0  0  0  0  0  0
  -22.8240  -29.3850   22.2780 C   0  0  0  0  0  0  0  0  0  0  0  0
  -21.4960  -29.1850   22.1570 N   0  0  0  0  0  0  0  0  0  0  0  0
  -23.5100  -28.7470   23.0800 O   0  0  0  0  0  0  0  0  0  0  0  0
  -20.9830  -29.7490   21.4970 H   0  0  0  0  0  0  0  0  0  0  0  0
  -18.1650  -27.8230   22.6400 C   0  0  0  0  0  0  0  0  0  0  0  0
  -20.7180  -28.1760   22.8880 C   0  0  0  0  0  3  0  0  0  0  0  0
  -20.8670  -26.7780   22.2400 C   0  0  0  0  0  2  0  0  0  0  0  0
  -19.7670  -26.4700   21.2180 C   0  0  0  0  0  2  0  0  0  0  0  0
  -18.3880  -26.5230   21.8810 C   0  0  0  0  0  2  0  0  0  0  0  0
  -19.2590  -28.6070   23.0970 C   0  0  0  0  0  0  0  0  0  0  0  0
  -18.9970  -29.8170   23.7720 C   0  0  0  0  0  3  0  0  0  0  0  0
  -17.6750  -30.2540   23.9880 C   0  0  0  0  0  3  0  0  0  0  0  0
  -16.5970  -29.4720   23.5390 C   0  0  0  0  0  3  0  0  0  0  0  0
  -16.8420  -28.2560   22.8740 C   0  0  0  0  0  3  0  0  0  0  0  0
  -25.8460  -32.4940   23.7430 C   0  0  0  0  0  3  0  0  0  0  0  0
  -26.3530  -31.7250   25.0290 C   0  0  1  0  0  0  0  0  0  0  0  0
  -25.2400  -31.4550   26.0700 C   0  0  0  0  0  1  0  0  0  0  0  0
  -26.9860  -30.3640   24.6650 C   0  0  0  0  0  1  0  0  0  0  0  0
  -27.4630  -32.5400   25.7310 C   0  0  0  0  0  1  0  0  0  0  0  0
  -25.4770  -33.8770   24.1050 N   0  0  0  0  0  0  0  0  0  0  0  0
  -25.7800  -34.9680   23.3910 C   0  0  0  0  0  0  0  0  0  0  0  0
  -26.4510  -34.9190   22.3590 O   0  0  0  0  0  0  0  0  0  0  0  0
  -24.8870  -33.9800   24.9180 H   0  0  0  0  0  0  0  0  0  0  0  0
  -23.9810  -36.7110   23.1080 C   0  0  0  0  0  1  0  0  0  0  0  0
  -25.2480  -36.3300   23.8910 C   0  0  0  0  0  3  0  0  0  0  0  0
  -27.3550  -37.2860   24.7210 C   0  0  0  0  0  1  0  0  0  0  0  0
  -26.2410  -37.4240   23.7900 N   0  0  0  0  0  0  0  0  0  0  0  0
  -25.8010  -38.3270   23.9600 H   0  0  0  0  0  0  0  0  0  0  0  0
  1 45  1  0
  1  3  1  0
  3  4  1  0
  3  2  2  0
  5  6  1  0
  7  5  2  0
  7  1  1  0
  8  5  1  0
  9  8  1  0
 10 15  1  0
 11 12  1  0
 11 10  1  0
 13 12  1  0
 13 20  1  0
 13 14  1  0
 15  9  1  0
 15 14  1  0
 16  9  2  0
 17 18  2  0
 18 37  1  0
 19 18  1  0
 19 22  1  0
 20 21  1  0
 20 17  1  0
 21 19  2  0
 22 23  1  0
 23 24  2  0
 25 28  1  0
 25 24  1  0
 26 25  2  0
 27 26  1  0
 27 22  2  0
 28 29  1  0
 29 30  1  0
 30 31  2  0
 32 31  1  0
 32 36  1  0
 33 32  2  0
 34 29  2  0
 34 33  1  0
 35 34  1  0
 37 38  1  0
 38 41  1  0
 38 40  1  0
 39 37  2  0
 42 17  1  0
 42 43  1  0
 44 42  1  0
 45 46  1  0
 47 58  2  0
 48 46  1  0
 48 53  1  0
 49 57  1  0
 49 59  1  0
 50 56  1  0
 50 52  1  0
 51 57  1  0
 52 51  1  0
 53 52  2  0
 54 48  2  0
 55 54  1  0
 55 50  2  0
 56 49  1  0
 57 47  1  0
 59 61  2  0
 60 59  1  0
 62 60  1  0
 63 72  2  0
 63 68  1  0
 64 60  1  0
 64 68  1  0
 65 64  1  0
 66 67  1  0
 66 65  1  0
 67 63  1  0
 68 69  2  0
 69 70  1  0
 71 70  2  0
 72 71  1  0
 73 47  1  0
 73 78  1  0
 73 74  1  0
 74 77  1  1
 74 75  1  0
 76 74  1  0
 78 81  1  0
 79 83  1  0
 79 78  1  0
 80 79  2  0
 83 82  1  0
 85 83  1  0
 85 86  1  0
 85 84  1  0
M  ISO  4   8 100   9 100  45 101  46 101
M  END
>  <TORSDO>  (23) 
F 20

>  <SCORE>  (23) 
-15.275

>  <name>  (23) 
22

>  <ligand_id>  (23) 
22

>  <original_smiles>  (23) 
[H]C([H])=C(C([H])([H])[H])C([H])(N=C(C([H])([H])[H])C([H])([H])C(=O)N1C([H])([H])C([H])([H])C([H])([H])C([H])(n2nc(-c3c([H])c([H])c(Oc4c([H])c([H])c(F)c([H])c4F)c([H])c3[H])c(C(=O)N([H])[H])c2N([H])[H])C1([H])[H])C([H])([H])Oc1c([H])c([H])c2c(c1[H])C([H])([H])N(C(=O)C([H])(N([H])C(=O)C([H])(N([H])C([H])([H])[H])C([H])([H])[H])C(C([H])([H])[H])(C([H])([H])[H])C([H])([H])[H])C([H])(C(=O)N([H])C1([H])c3c([H])c([H])c([H])c([H])c3C([H])([H])C([H])([H])C1([H])[H])C2([H])[H]

>  <smiles>  (23) 
[H]C([H])=C(C([H])([H])[H])C([H])(N=C(C([H])([H])[H])C([H])([H])C(=O)N1C([H])([H])C([H])([H])C([H])([H])C([H])(n2nc(-c3c([H])c([H])c(Oc4c([H])c([H])c(F)c([H])c4F)c([H])c3[H])c(C(=O)N([H])[H])c2N([H])[H])C1([H])[H])C([H])([H])Oc1c([H])c([H])c2c(c1[H])C([H])([H])N(C(=O)C([H])(N([H])C(=O)C([H])(N([H])C([H])([H])[H])C([H])([H])[H])C(C([H])([H])[H])(C([H])([H])[H])C([H])([H])[H])C([H])(C(=O)N([H])C1([H])c3c([H])c([H])c([H])c([H])c3C([H])([H])C([H])([H])C1([H])[H])C2([H])[H]

$$$$
23:0:0
     RDKit          3D

 87 95  0  0  1  0  0  0  0  0999 V2000
  -29.2280  -20.7100   19.5110 C   0  0  0  0  0  0  0  0  0  0  0  0
  -29.3610  -20.2490   18.0450 C   0  0  0  0  0  2  0  0  0  0  0  0
  -29.5660  -19.4470   20.5440 C   0  0  0  0  0  2  0  0  0  0  0  0
  -29.3930  -18.7410   17.7040 C   0  0  0  0  0  2  0  0  0  0  0  0
  -30.2450  -17.8580   18.6280 C   0  0  0  0  0  2  0  0  0  0  0  0
  -29.5980  -17.8360   20.0090 C   0  0  0  0  0  3  0  0  0  0  0  0
  -28.9420  -22.0430   19.5180 N   0  0  0  0  0  0  0  0  0  0  0  0
  -29.9900  -16.4440   20.9000 C   0  0  0  0  0  2  0  0  0  0  0  0
  -30.5910  -14.9780   20.3750 C   0  0  0  0  0  0  0  0  0  0  0  0
  -30.4220  -12.6200   19.4370 C   0  0  0  0  0  2  0  0  0  0  0  0
  -29.5140  -12.6090   18.1870 C   0  0  0  0  0  2  0  0  0  0  0  0
  -28.0440  -12.4160   18.5920 C   0  0  0  0  0  2  0  0  0  0  0  0
  -27.6340  -13.3340   19.7750 C   0  0  0  0  0  3  0  0  0  0  0  0
  -28.6750  -13.3400   20.9170 C   0  0  0  0  0  2  0  0  0  0  0  0
  -29.9690  -13.7270   20.3350 N   0  0  0  0  0  0  0  0  0  0  0  0
  -31.7570  -15.0000   19.9670 O   0  0  0  0  0  0  0  0  0  0  0  0
  -25.2370  -13.9070   20.4670 C   0  0  0  0  0  0  0  0  0  0  0  0
  -24.1680  -13.1290   20.8250 C   0  0  0  0  0  0  0  0  0  0  0  0
  -24.6410  -11.7810   20.8150 C   0  0  0  0  0  0  0  0  0  0  0  0
  -26.2890  -13.0330   20.2560 N   0  0  0  0  0  0  0  0  0  0  0  0
  -25.9390  -11.7480   20.5330 N   0  0  0  0  0  0  0  0  0  0  0  0
  -23.9140  -10.5140   21.0070 C   0  0  0  0  0  0  0  0  0  0  0  0
  -24.3310   -9.5560   21.9560 C   0  0  0  0  0  3  0  0  0  0  0  0
  -23.6020   -8.3600   22.1370 C   0  0  0  0  0  3  0  0  0  0  0  0
  -22.4410   -8.1140   21.3660 C   0  0  0  0  0  0  0  0  0  0  0  0
  -22.0400   -9.0610   20.4080 C   0  0  0  0  0  3  0  0  0  0  0  0
  -22.7710  -10.2470   20.2260 C   0  0  0  0  0  3  0  0  0  0  0  0
  -21.6850   -6.9710   21.4530 O   0  0  0  0  0  0  0  0  0  0  0  0
  -21.6160   -6.2380   22.6110 C   0  0  0  0  0  0  0  0  0  0  0  0
  -21.1730   -6.8030   23.8260 C   0  0  0  0  0  3  0  0  0  0  0  0
  -21.0520   -5.9980   24.9770 C   0  0  0  0  0  3  0  0  0  0  0  0
  -21.3670   -4.6270   24.9140 C   0  0  0  0  0  0  0  0  0  0  0  0
  -21.8070   -4.0600   23.7030 C   0  0  0  0  0  3  0  0  0  0  0  0
  -21.9270   -4.8640   22.5570 C   0  0  0  0  0  0  0  0  0  0  0  0
  -22.3270   -4.3080   21.3880 F   0  0  0  0  0  0  0  0  0  0  0  0
  -21.2470   -3.8510   26.0140 F   0  0  0  0  0  0  0  0  0  0  0  0
  -22.7640  -13.6020   21.0650 C   0  0  0  0  0  0  0  0  0  0  0  0
  -22.0230  -12.9090   21.9220 N   0  0  0  0  0  0  0  0  0  0  0  0
  -22.3340  -14.6220   20.5280 O   0  0  0  0  0  0  0  0  0  0  0  0
  -22.3850  -12.0820   22.3780 H   0  0  0  0  0  0  0  0  0  0  0  0
  -21.0790  -13.2060   22.1200 H   0  0  0  0  0  0  0  0  0  0  0  0
  -25.4010  -15.2750   20.2810 N   0  0  0  0  0  0  0  0  0  0  0  0
  -24.6380  -15.9350   20.3820 H   0  0  0  0  0  0  0  0  0  0  0  0
  -26.2630  -15.7090   19.9760 H   0  0  0  0  0  0  0  0  0  0  0  0
  -28.9100  -23.3100   20.4340 C   0  0  0  0  0  2  0  0  0  0  0  0
  -28.0790  -24.6850   19.8930 C   0  0  0  0  0  2  0  0  0  0  0  0
  -28.2450  -26.1860   20.2820 O   0  0  0  0  0  0  0  0  0  0  0  0
  -24.6050  -31.8740   23.2500 C   0  0  0  0  0  0  0  0  0  0  0  0
  -27.1800  -27.1590   20.2000 C   0  0  0  0  0  0  0  0  0  0  0  0
  -23.4000  -30.4730   21.6220 C   0  0  0  0  0  3  0  0  0  0  0  0
  -24.8430  -28.8990   20.1870 C   0  0  0  0  0  0  0  0  0  0  0  0
  -25.9530  -30.7360   21.4440 C   0  0  0  0  0  2  0  0  0  0  0  0
  -26.0240  -29.3440   20.7930 C   0  0  0  0  0  0  0  0  0  0  0  0
  -27.1890  -28.4880   20.7880 C   0  0  0  0  0  3  0  0  0  0  0  0
  -25.9730  -26.8220   19.5430 C   0  0  0  0  0  3  0  0  0  0  0  0
  -24.8300  -27.6510   19.5470 C   0  0  0  0  0  3  0  0  0  0  0  0
  -23.6130  -29.7940   20.2430 C   0  0  0  0  0  2  0  0  0  0  0  0
  -24.6750  -31.0480   22.1600 N   0  0  0  0  0  0  0  0  0  0  0  0
  -23.5210  -32.1610   23.7800 O   0  0  0  0  0  0  0  0  0  0  0  0
  -22.7260  -29.4680   22.5880 C   0  0  0  0  0  0  0  0  0  0  0  0
  -21.3990  -29.2880   22.4590 N   0  0  0  0  0  0  0  0  0  0  0  0
  -23.3980  -28.8520   23.4190 O   0  0  0  0  0  0  0  0  0  0  0  0
  -20.9140  -29.8310   21.7590 H   0  0  0  0  0  0  0  0  0  0  0  0
  -18.0240  -28.0590   22.9530 C   0  0  0  0  0  0  0  0  0  0  0  0
  -20.5800  -28.3520   23.2350 C   0  0  0  0  0  3  0  0  0  0  0  0
  -20.7010  -26.9140   22.6780 C   0  0  0  0  0  2  0  0  0  0  0  0
  -19.6090  -26.5690   21.6620 C   0  0  0  0  0  2  0  0  0  0  0  0
  -18.2210  -26.7050   22.2910 C   0  0  0  0  0  2  0  0  0  0  0  0
  -19.1320  -28.8390   23.3810 C   0  0  0  0  0  0  0  0  0  0  0  0
  -18.8940  -30.1040   23.9640 C   0  0  0  0  0  3  0  0  0  0  0  0
  -17.5830  -30.5920   24.1160 C   0  0  0  0  0  3  0  0  0  0  0  0
  -16.4900  -29.8110   23.7010 C   0  0  0  0  0  3  0  0  0  0  0  0
  -16.7120  -28.5450   23.1300 C   0  0  0  0  0  3  0  0  0  0  0  0
  -25.8860  -32.5120   23.8710 C   0  0  0  0  0  3  0  0  0  0  0  0
  -26.3930  -31.7510   25.1580 C   0  0  1  0  0  0  0  0  0  0  0  0
  -25.2960  -31.5280   26.2250 C   0  0  0  0  0  1  0  0  0  0  0  0
  -26.9720  -30.3680   24.7860 C   0  0  0  0  0  1  0  0  0  0  0  0
  -27.5490  -32.5470   25.8110 C   0  0  0  0  0  1  0  0  0  0  0  0
  -25.5770  -33.9130   24.1940 N   0  0  0  0  0  0  0  0  0  0  0  0
  -25.9120  -34.9650   23.4340 C   0  0  0  0  0  0  0  0  0  0  0  0
  -26.5820  -34.8570   22.4030 O   0  0  0  0  0  0  0  0  0  0  0  0
  -24.9800  -34.0720   24.9940 H   0  0  0  0  0  0  0  0  0  0  0  0
  -24.1940  -36.7680   23.0750 C   0  0  0  0  0  1  0  0  0  0  0  0
  -25.4330  -36.3590   23.8880 C   0  0  0  0  0  3  0  0  0  0  0  0
  -27.5700  -37.2360   24.7200 C   0  0  0  0  0  1  0  0  0  0  0  0
  -26.4720  -37.4070   23.7710 N   0  0  0  0  0  0  0  0  0  0  0  0
  -26.0730  -38.3300   23.9120 H   0  0  0  0  0  0  0  0  0  0  0  0
  1  7  2  0
  1  3  1  0
  2  1  1  0
  4  2  1  0
  4  5  1  0
  5  6  1  0
  6  3  1  0
  6  8  1  0
  7 45  1  0
  9  8  1  0
 10 15  1  0
 11 12  1  0
 11 10  1  0
 13 12  1  0
 13 20  1  0
 13 14  1  0
 15  9  1  0
 15 14  1  0
 16  9  2  0
 17 18  2  0
 18 37  1  0
 19 18  1  0
 19 22  1  0
 20 17  1  0
 20 21  1  0
 21 19  2  0
 22 23  1  0
 23 24  2  0
 25 28  1  0
 25 24  1  0
 26 25  2  0
 27 26  1  0
 27 22  2  0
 28 29  1  0
 29 30  1  0
 30 31  2  0
 32 31  1  0
 32 36  1  0
 33 32  2  0
 34 29  2  0
 34 33  1  0
 35 34  1  0
 37 38  1  0
 38 41  1  0
 38 40  1  0
 39 37  2  0
 42 43  1  0
 42 17  1  0
 44 42  1  0
 46 47  1  0
 46 45  1  0
 48 59  2  0
 49 47  1  0
 49 54  1  0
 50 58  1  0
 50 60  1  0
 51 57  1  0
 51 53  1  0
 52 58  1  0
 53 52  1  0
 54 53  2  0
 55 56  1  0
 55 49  2  0
 56 51  2  0
 57 50  1  0
 58 48  1  0
 60 62  2  0
 61 60  1  0
 63 61  1  0
 64 73  2  0
 64 69  1  0
 65 61  1  0
 65 69  1  0
 66 65  1  0
 67 68  1  0
 67 66  1  0
 68 64  1  0
 69 70  2  0
 70 71  1  0
 72 71  2  0
 73 72  1  0
 74 48  1  0
 74 79  1  0
 74 75  1  0
 75 78  1  1
 75 76  1  0
 77 75  1  0
 79 82  1  0
 80 84  1  0
 80 79  1  0
 81 80  2  0
 84 83  1  0
 86 84  1  0
 86 87  1  0
 86 85  1  0
M  ISO  4   8 100   9 100  46 101  47 101
M  END
>  <TORSDO>  (24) 
F 19

>  <SCORE>  (24) 
-15.600

>  <name>  (24) 
23

>  <ligand_id>  (24) 
23

>  <original_smiles>  (24) 
[H]c1c([H])c([H])c2c(c1[H])C([H])([H])C([H])([H])C([H])([H])C2([H])N([H])C(=O)C1([H])N(C(=O)C([H])(N([H])C(=O)C([H])(N([H])C([H])([H])[H])C([H])([H])[H])C(C([H])([H])[H])(C([H])([H])[H])C([H])([H])[H])C([H])([H])c2c([H])c(OC([H])([H])C([H])([H])N=C3C([H])([H])C([H])([H])C([H])([H])C([H])(C([H])([H])C(=O)N4C([H])([H])C([H])([H])C([H])([H])C([H])(n5nc(-c6c([H])c([H])c(Oc7c([H])c([H])c(F)c([H])c7F)c([H])c6[H])c(C(=O)N([H])[H])c5N([H])[H])C4([H])[H])C3([H])[H])c([H])c([H])c2C1([H])[H]

>  <smiles>  (24) 
[H]c1c([H])c([H])c2c(c1[H])C([H])([H])C([H])([H])C([H])([H])C2([H])N([H])C(=O)C1([H])N(C(=O)C([H])(N([H])C(=O)C([H])(N([H])C([H])([H])[H])C([H])([H])[H])C(C([H])([H])[H])(C([H])([H])[H])C([H])([H])[H])C([H])([H])c2c([H])c(OC([H])([H])C([H])([H])N=C3C([H])([H])C([H])([H])C([H])([H])C([H])(C([H])([H])C(=O)N4C([H])([H])C([H])([H])C([H])([H])C([H])(n5nc(-c6c([H])c([H])c(Oc7c([H])c([H])c(F)c([H])c7F)c([H])c6[H])c(C(=O)N([H])[H])c5N([H])[H])C4([H])[H])C3([H])[H])c([H])c([H])c2C1([H])[H]

$$$$
24:0:0
     RDKit          3D

 96104  0  0  1  0  0  0  0  0999 V2000
  -28.6210  -19.7760   20.0620 C   0  0  0  0  0  3  0  0  0  0  0  0
  -29.0390  -21.3210   19.8220 C   0  0  0  0  0  0  0  0  0  0  0  0
  -28.6270  -22.3060   20.7020 N   0  0  0  0  0  0  0  0  0  0  0  0
  -29.6030  -21.6230   18.7710 O   0  0  0  0  0  0  0  0  0  0  0  0
  -28.2940  -21.9090   21.5720 H   0  0  0  0  0  0  0  0  0  0  0  0
  -28.1480  -23.7590   20.5310 C   0  0  0  0  0  2  0  0  0  0  0  0
  -29.1080  -25.0350   20.3050 C   0  0  0  0  0  2  0  0  0  0  0  0
  -28.8600  -26.3880   20.9230 O   0  0  0  0  0  0  0  0  0  0  0  0
  -24.7560  -31.8480   23.3430 C   0  0  0  0  0  0  0  0  0  0  0  0
  -27.7210  -27.1950   20.7200 C   0  0  0  0  0  0  0  0  0  0  0  0
  -23.7280  -30.3400   21.6790 C   0  0  0  0  0  3  0  0  0  0  0  0
  -25.3280  -28.7580   20.4460 C   0  0  0  0  0  0  0  0  0  0  0  0
  -26.2670  -30.7120   21.6910 C   0  0  0  0  0  2  0  0  0  0  0  0
  -26.4310  -29.3020   21.1160 C   0  0  0  0  0  0  0  0  0  0  0  0
  -27.6270  -28.5280   21.2450 C   0  0  0  0  0  3  0  0  0  0  0  0
  -26.5960  -26.7090   20.0220 C   0  0  0  0  0  3  0  0  0  0  0  0
  -25.4170  -27.4720   19.8880 C   0  0  0  0  0  3  0  0  0  0  0  0
  -24.0720  -29.6020   20.3550 C   0  0  0  0  0  2  0  0  0  0  0  0
  -24.9300  -30.9890   22.2930 N   0  0  0  0  0  0  0  0  0  0  0  0
  -23.6270  -32.1200   23.7750 O   0  0  0  0  0  0  0  0  0  0  0  0
  -23.0130  -29.3530   22.6330 C   0  0  0  0  0  0  0  0  0  0  0  0
  -21.6930  -29.1840   22.4520 N   0  0  0  0  0  0  0  0  0  0  0  0
  -23.6520  -28.7400   23.4930 O   0  0  0  0  0  0  0  0  0  0  0  0
  -21.2380  -29.7340   21.7360 H   0  0  0  0  0  0  0  0  0  0  0  0
  -18.2700  -28.1030   22.9080 C   0  0  0  0  0  0  0  0  0  0  0  0
  -20.8330  -28.2690   23.2050 C   0  0  0  0  0  3  0  0  0  0  0  0
  -20.8880  -26.8410   22.6120 C   0  0  0  0  0  2  0  0  0  0  0  0
  -19.7860  -26.5690   21.5830 C   0  0  0  0  0  2  0  0  0  0  0  0
  -18.4050  -26.7560   22.2180 C   0  0  0  0  0  2  0  0  0  0  0  0
  -19.4110  -28.8200   23.3570 C   0  0  0  0  0  0  0  0  0  0  0  0
  -19.2330  -30.0820   23.9640 C   0  0  0  0  0  3  0  0  0  0  0  0
  -17.9450  -30.6280   24.1250 C   0  0  0  0  0  3  0  0  0  0  0  0
  -16.8190  -29.9070   23.6940 C   0  0  0  0  0  3  0  0  0  0  0  0
  -16.9820  -28.6460   23.0930 C   0  0  0  0  0  3  0  0  0  0  0  0
  -25.9670  -32.5480   24.0370 C   0  0  0  0  0  3  0  0  0  0  0  0
  -25.5900  -33.9470   24.2900 N   0  0  0  0  0  0  0  0  0  0  0  0
  -25.9210  -34.9800   23.5020 C   0  0  0  0  0  0  0  0  0  0  0  0
  -26.6410  -34.8600   22.5090 O   0  0  0  0  0  0  0  0  0  0  0  0
  -24.9650  -34.1150   25.0640 H   0  0  0  0  0  0  0  0  0  0  0  0
  -24.1260  -36.6740   23.0120 C   0  0  0  0  0  1  0  0  0  0  0  0
  -25.3590  -36.3670   23.8760 C   0  0  0  0  0  3  0  0  0  0  0  0
  -27.4310  -37.3870   24.7130 C   0  0  0  0  0  1  0  0  0  0  0  0
  -26.3480  -37.4590   23.7340 N   0  0  0  0  0  0  0  0  0  0  0  0
  -25.8990  -38.3660   23.8250 H   0  0  0  0  0  0  0  0  0  0  0  0
  -26.4040  -31.8450   25.3820 C   0  0  1  0  0  0  0  0  0  0  0  0
  -25.2360  -31.5980   26.3640 C   0  0  0  0  0  1  0  0  0  0  0  0
  -27.0720  -30.4810   25.0960 C   0  0  0  0  0  1  0  0  0  0  0  0
  -27.4580  -32.7120   26.1110 C   0  0  0  0  0  1  0  0  0  0  0  0
  -29.6560  -17.4380   20.0840 C   0  0  0  0  0  0  0  0  0  0  0  0
  -28.9550  -17.0150   21.3690 C   0  0  0  0  0  1  0  0  0  0  0  0
  -29.5840  -18.6760   19.6080 N   0  0  0  0  0  0  0  0  0  0  0  0
  -30.3890  -16.2510   19.2930 C   0  0  0  0  0  2  0  0  0  0  0  0
  -31.1380  -14.9520   19.9040 C   0  0  0  0  0  0  0  0  0  0  0  0
  -30.9100  -12.5810   19.2030 C   0  0  0  0  0  2  0  0  0  0  0  0
  -29.9790  -12.5470   17.9690 C   0  0  0  0  0  2  0  0  0  0  0  0
  -28.5030  -12.4450   18.4050 C   0  0  0  0  0  2  0  0  0  0  0  0
  -28.1350  -13.4610   19.5150 C   0  0  0  0  0  3  0  0  0  0  0  0
  -29.1900  -13.5030   20.6390 C   0  0  0  0  0  2  0  0  0  0  0  0
  -30.5020  -13.7370   20.0320 N   0  0  0  0  0  0  0  0  0  0  0  0
  -32.3710  -14.9570   19.8150 O   0  0  0  0  0  0  0  0  0  0  0  0
  -25.8220  -14.2080   20.3190 C   0  0  0  0  0  0  0  0  0  0  0  0
  -24.7070  -13.5010   20.6880 C   0  0  0  0  0  0  0  0  0  0  0  0
  -25.0760  -12.1230   20.6210 C   0  0  0  0  0  0  0  0  0  0  0  0
  -26.7920  -13.2600   20.0390 N   0  0  0  0  0  0  0  0  0  0  0  0
  -26.3540  -12.0010   20.2880 N   0  0  0  0  0  0  0  0  0  0  0  0
  -24.2670  -10.9110   20.7920 C   0  0  0  0  0  0  0  0  0  0  0  0
  -24.6850   -9.8610   21.6390 C   0  0  0  0  0  3  0  0  0  0  0  0
  -23.8830   -8.7130   21.8030 C   0  0  0  0  0  3  0  0  0  0  0  0
  -22.6460   -8.6080   21.1210 C   0  0  0  0  0  0  0  0  0  0  0  0
  -22.2480   -9.6440   20.2600 C   0  0  0  0  0  3  0  0  0  0  0  0
  -23.0500  -10.7860   20.0930 C   0  0  0  0  0  3  0  0  0  0  0  0
  -21.8140   -7.5180   21.1980 O   0  0  0  0  0  0  0  0  0  0  0  0
  -21.7960   -6.7040   22.3010 C   0  0  0  0  0  0  0  0  0  0  0  0
  -21.5370   -7.2060   23.5950 C   0  0  0  0  0  3  0  0  0  0  0  0
  -21.4610   -6.3230   24.6900 C   0  0  0  0  0  3  0  0  0  0  0  0
  -21.6320   -4.9400   24.4960 C   0  0  0  0  0  0  0  0  0  0  0  0
  -21.8840   -4.4370   23.2060 C   0  0  0  0  0  3  0  0  0  0  0  0
  -21.9630   -5.3170   22.1120 C   0  0  0  0  0  0  0  0  0  0  0  0
  -22.1850   -4.8250   20.8700 F   0  0  0  0  0  0  0  0  0  0  0  0
  -21.5500   -4.0910   25.5470 F   0  0  0  0  0  0  0  0  0  0  0  0
  -23.3510  -14.0730   20.9860 C   0  0  0  0  0  0  0  0  0  0  0  0
  -22.5930  -13.4240   21.8650 N   0  0  0  0  0  0  0  0  0  0  0  0
  -22.9720  -15.1230   20.4700 O   0  0  0  0  0  0  0  0  0  0  0  0
  -22.9160  -12.5780   22.3080 H   0  0  0  0  0  0  0  0  0  0  0  0
  -21.6810  -13.7880   22.1000 H   0  0  0  0  0  0  0  0  0  0  0  0
  -26.0790  -15.5700   20.1780 N   0  0  0  0  0  0  0  0  0  0  0  0
  -25.3530  -16.2630   20.3230 H   0  0  0  0  0  0  0  0  0  0  0  0
  -26.9530  -15.9660   19.8550 H   0  0  0  0  0  0  0  0  0  0  0  0
  -27.2950  -19.5440   19.2550 C   0  0  0  0  0  2  0  0  0  0  0  0
  -25.5750  -21.3340   16.7400 C   0  0  0  0  0  2  0  0  0  0  0  0
  -24.9590  -20.6650   18.8610 C   0  0  0  0  0  2  0  0  0  0  0  0
  -26.4940  -20.7990   18.7990 C   0  0  0  0  0  3  0  0  0  0  0  0
  -26.7290  -21.1470   17.3880 N   0  0  0  0  0  0  0  0  0  0  0  0
  -24.5260  -21.0940   17.5290 N   0  0  0  0  0  0  0  0  0  0  0  0
  -27.6440  -21.3050   16.9840 H   0  0  0  0  0  0  0  0  0  0  0  0
  -23.5570  -21.1860   17.2520 H   0  0  0  0  0  0  0  0  0  0  0  0
  1 89  1  0
  2  1  1  0
  2  3  1  0
  3  5  1  0
  4  2  2  0
  6  3  1  0
  7  6  1  0
  7  8  1  0
  9 20  2  0
 10  8  1  0
 10 15  1  0
 11 19  1  0
 11 21  1  0
 12 14  1  0
 13 19  1  0
 14 15  2  0
 14 13  1  0
 16 10  2  0
 17 16  1  0
 17 12  2  0
 18 12  1  0
 18 11  1  0
 19  9  1  0
 21 23  2  0
 22 21  1  0
 24 22  1  0
 25 34  2  0
 25 30  1  0
 26 22  1  0
 26 30  1  0
 27 26  1  0
 28 29  1  0
 28 27  1  0
 29 25  1  0
 30 31  2  0
 31 32  1  0
 33 32  2  0
 34 33  1  0
 35  9  1  0
 35 36  1  0
 35 45  1  0
 36 39  1  0
 37 41  1  0
 37 36  1  0
 38 37  2  0
 41 40  1  0
 43 44  1  0
 43 41  1  0
 43 42  1  0
 45 48  1  1
 45 46  1  0
 47 45  1  0
 49 50  1  0
 51  1  1  0
 51 49  2  0
 52 53  1  0
 52 49  1  0
 53 59  1  0
 54 59  1  0
 55 56  1  0
 55 54  1  0
 57 56  1  0
 57 64  1  0
 57 58  1  0
 59 58  1  0
 60 53  2  0
 61 62  2  0
 62 81  1  0
 63 62  1  0
 63 66  1  0
 64 65  1  0
 64 61  1  0
 65 63  2  0
 66 67  1  0
 67 68  2  0
 69 72  1  0
 69 68  1  0
 70 69  2  0
 71 70  1  0
 71 66  2  0
 72 73  1  0
 73 74  1  0
 74 75  2  0
 76 75  1  0
 76 80  1  0
 77 76  2  0
 78 73  2  0
 78 77  1  0
 79 78  1  0
 81 82  1  0
 82 85  1  0
 82 84  1  0
 83 81  2  0
 86 61  1  0
 86 87  1  0
 88 86  1  0
 90 93  1  0
 90 94  1  0
 92 91  1  0
 92 89  1  0
 93 92  1  0
 94 91  1  0
 95 93  1  0
 96 94  1  0
M  ISO  4   7 101   8 101  52 100  53 100
M  END
>  <TORSDO>  (25) 
F 23

>  <SCORE>  (25) 
-11.006

>  <name>  (25) 
24

>  <ligand_id>  (25) 
24

>  <original_smiles>  (25) 
[H]C1=[N+]([H])C([H])([H])C([H])(C([H])([H])C([H])(N=C(C([H])([H])[H])C([H])([H])C(=O)N2C([H])([H])C([H])([H])C([H])([H])C([H])(n3nc(-c4c([H])c([H])c(Oc5c([H])c([H])c(F)c([H])c5F)c([H])c4[H])c(C(=O)N([H])[H])c3N([H])[H])C2([H])[H])C(=O)N([H])C([H])([H])C([H])([H])Oc2c([H])c([H])c3c(c2[H])C([H])([H])N(C(=O)C([H])(N([H])C(=O)C([H])(N([H])C([H])([H])[H])C([H])([H])[H])C(C([H])([H])[H])(C([H])([H])[H])C([H])([H])[H])C([H])(C(=O)N([H])C2([H])c4c([H])c([H])c([H])c([H])c4C([H])([H])C([H])([H])C2([H])[H])C3([H])[H])N1[H]

>  <smiles>  (25) 
[H]C1=[N+]([H])C([H])([H])C([H])(C([H])([H])C([H])(N=C(C([H])([H])[H])C([H])([H])C(=O)N2C([H])([H])C([H])([H])C([H])([H])C([H])(n3nc(-c4c([H])c([H])c(Oc5c([H])c([H])c(F)c([H])c5F)c([H])c4[H])c(C(=O)N([H])[H])c3N([H])[H])C2([H])[H])C(=O)N([H])C([H])([H])C([H])([H])Oc2c([H])c([H])c3c(c2[H])C([H])([H])N(C(=O)C([H])(N([H])C(=O)C([H])(N([H])C([H])([H])[H])C([H])([H])[H])C(C([H])([H])[H])(C([H])([H])[H])C([H])([H])[H])C([H])(C(=O)N([H])C2([H])c4c([H])c([H])c([H])c([H])c4C([H])([H])C([H])([H])C2([H])[H])C3([H])[H])N1[H]

$$$$
25:0:0
     RDKit          3D

 90 98  0  0  1  0  0  0  0  0999 V2000
  -29.5050  -21.1560   20.6730 N   0  0  0  0  0  4  0  0  0  0  0  0
  -30.0470  -21.2980   21.5140 H   0  0  0  0  0  0  0  0  0  0  0  0
  -30.1580  -21.2210   19.9120 H   0  0  0  0  0  0  0  0  0  0  0  0
  -30.0660  -18.6420   21.1110 C   0  0  0  0  0  0  0  0  0  0  0  0
  -28.5080  -17.5620   19.6380 C   0  0  0  0  0  2  0  0  0  0  0  0
  -28.4030  -19.1030   19.4500 C   0  0  0  0  0  2  0  0  0  0  0  0
  -29.8540  -17.2880   20.3540 C   0  0  0  0  0  3  0  0  0  0  0  0
  -28.9810  -19.7210   20.7470 C   0  0  0  0  0  3  0  0  0  0  0  0
  -30.9970  -18.8150   21.9040 O   0  0  0  0  0  0  0  0  0  0  0  0
  -29.9640  -15.8970   21.1470 C   0  0  0  0  0  2  0  0  0  0  0  0
  -30.6330  -14.6540   20.4180 C   0  0  0  0  0  0  0  0  0  0  0  0
  -30.4010  -12.4500   19.2540 C   0  0  0  0  0  2  0  0  0  0  0  0
  -29.4480  -12.6180   18.0490 C   0  0  0  0  0  2  0  0  0  0  0  0
  -27.9710  -12.4810   18.4780 C   0  0  0  0  0  2  0  0  0  0  0  0
  -27.6380  -13.3020   19.7550 C   0  0  0  0  0  3  0  0  0  0  0  0
  -28.7040  -13.0690   20.8480 C   0  0  0  0  0  2  0  0  0  0  0  0
  -30.0070  -13.4390   20.2810 N   0  0  0  0  0  0  0  0  0  0  0  0
  -31.7480  -14.8260   19.9140 O   0  0  0  0  0  0  0  0  0  0  0  0
  -25.2410  -13.8970   20.4650 C   0  0  0  0  0  0  0  0  0  0  0  0
  -24.1770  -13.1210   20.8360 C   0  0  0  0  0  0  0  0  0  0  0  0
  -24.6410  -11.7710   20.8090 C   0  0  0  0  0  0  0  0  0  0  0  0
  -26.2880  -13.0210   20.2350 N   0  0  0  0  0  0  0  0  0  0  0  0
  -25.9310  -11.7370   20.4990 N   0  0  0  0  0  0  0  0  0  0  0  0
  -23.9140  -10.5130   21.0070 C   0  0  0  0  0  0  0  0  0  0  0  0
  -24.3560   -9.5500   21.9410 C   0  0  0  0  0  3  0  0  0  0  0  0
  -23.6310   -8.3550   22.1290 C   0  0  0  0  0  3  0  0  0  0  0  0
  -22.4490   -8.1170   21.3880 C   0  0  0  0  0  0  0  0  0  0  0  0
  -22.0280   -9.0680   20.4420 C   0  0  0  0  0  3  0  0  0  0  0  0
  -22.7520  -10.2550   20.2520 C   0  0  0  0  0  3  0  0  0  0  0  0
  -21.6910   -6.9760   21.4870 O   0  0  0  0  0  0  0  0  0  0  0  0
  -21.6560   -6.2320   22.6380 C   0  0  0  0  0  0  0  0  0  0  0  0
  -21.2530   -6.7850   23.8720 C   0  0  0  0  0  3  0  0  0  0  0  0
  -21.1690   -5.9650   25.0150 C   0  0  0  0  0  3  0  0  0  0  0  0
  -21.4750   -4.5940   24.9250 C   0  0  0  0  0  0  0  0  0  0  0  0
  -21.8660   -4.0410   23.6930 C   0  0  0  0  0  3  0  0  0  0  0  0
  -21.9550   -4.8580   22.5520 C   0  0  0  0  0  0  0  0  0  0  0  0
  -22.3130   -4.3160   21.3640 F   0  0  0  0  0  0  0  0  0  0  0  0
  -21.3850   -3.8040   26.0210 F   0  0  0  0  0  0  0  0  0  0  0  0
  -22.7800  -13.5950   21.1060 C   0  0  0  0  0  0  0  0  0  0  0  0
  -22.0590  -12.9090   21.9840 N   0  0  0  0  0  0  0  0  0  0  0  0
  -22.3410  -14.6140   20.5730 O   0  0  0  0  0  0  0  0  0  0  0  0
  -22.4240  -12.0840   22.4380 H   0  0  0  0  0  0  0  0  0  0  0  0
  -21.1190  -13.2060   22.2080 H   0  0  0  0  0  0  0  0  0  0  0  0
  -25.3950  -15.2710   20.2870 N   0  0  0  0  0  0  0  0  0  0  0  0
  -24.6220  -15.9110   20.4290 H   0  0  0  0  0  0  0  0  0  0  0  0
  -26.2320  -15.7280   19.9510 H   0  0  0  0  0  0  0  0  0  0  0  0
  -28.4890  -22.2910   20.5770 C   0  0  0  0  0  2  0  0  0  0  0  0
  -29.0140  -23.8110   20.5380 C   0  0  0  0  0  3  0  0  0  0  0  0
  -27.9240  -24.9460   20.2260 C   0  0  0  0  0  3  0  0  0  0  0  0
  -28.2490  -26.4070   20.2570 O   0  0  0  0  0  0  0  0  0  0  0  0
  -24.6050  -31.8930   23.2420 C   0  0  0  0  0  0  0  0  0  0  0  0
  -27.1620  -27.3020   20.1820 C   0  0  0  0  0  0  0  0  0  0  0  0
  -23.3900  -30.5040   21.6090 C   0  0  0  0  0  3  0  0  0  0  0  0
  -24.8220  -28.9530   20.1700 C   0  0  0  0  0  0  0  0  0  0  0  0
  -25.9310  -30.8000   21.4170 C   0  0  0  0  0  2  0  0  0  0  0  0
  -25.9970  -29.4230   20.7700 C   0  0  0  0  0  0  0  0  0  0  0  0
  -27.1730  -28.6070   20.7710 C   0  0  0  0  0  3  0  0  0  0  0  0
  -25.9650  -26.9040   19.5410 C   0  0  0  0  0  3  0  0  0  0  0  0
  -24.8100  -27.7000   19.5450 C   0  0  0  0  0  3  0  0  0  0  0  0
  -23.5920  -29.8380   20.2250 C   0  0  0  0  0  2  0  0  0  0  0  0
  -24.6620  -31.0830   22.1450 N   0  0  0  0  0  0  0  0  0  0  0  0
  -23.5270  -32.1800   23.7790 O   0  0  0  0  0  0  0  0  0  0  0  0
  -22.7280  -29.4850   22.5680 C   0  0  0  0  0  0  0  0  0  0  0  0
  -21.4010  -29.3070   22.4420 N   0  0  0  0  0  0  0  0  0  0  0  0
  -23.4060  -28.8600   23.3880 O   0  0  0  0  0  0  0  0  0  0  0  0
  -20.9130  -29.8520   21.7440 H   0  0  0  0  0  0  0  0  0  0  0  0
  -18.0280  -28.1120   22.9460 C   0  0  0  0  0  0  0  0  0  0  0  0
  -20.5860  -28.3760   23.2200 C   0  0  0  0  0  3  0  0  0  0  0  0
  -20.6940  -26.9410   22.6570 C   0  0  0  0  0  2  0  0  0  0  0  0
  -19.5940  -26.6040   21.6470 C   0  0  0  0  0  2  0  0  0  0  0  0
  -18.2090  -26.7580   22.2840 C   0  0  0  0  0  2  0  0  0  0  0  0
  -19.1460  -28.8790   23.3730 C   0  0  0  0  0  0  0  0  0  0  0  0
  -18.9240  -30.1460   23.9530 C   0  0  0  0  0  3  0  0  0  0  0  0
  -17.6160  -30.6450   24.1140 C   0  0  0  0  0  3  0  0  0  0  0  0
  -16.5150  -29.8740   23.7060 C   0  0  0  0  0  3  0  0  0  0  0  0
  -16.7220  -28.6110   23.1250 C   0  0  0  0  0  3  0  0  0  0  0  0
  -25.8930  -32.5230   23.8540 C   0  0  0  0  0  3  0  0  0  0  0  0
  -25.5890  -33.9220   24.1880 N   0  0  0  0  0  0  0  0  0  0  0  0
  -25.9130  -34.9740   23.4240 C   0  0  0  0  0  0  0  0  0  0  0  0
  -26.5710  -34.8700   22.3860 O   0  0  0  0  0  0  0  0  0  0  0  0
  -24.9980  -34.0800   24.9920 H   0  0  0  0  0  0  0  0  0  0  0  0
  -24.1750  -36.7670   23.1000 C   0  0  0  0  0  1  0  0  0  0  0  0
  -25.4310  -36.3640   23.8870 C   0  0  0  0  0  3  0  0  0  0  0  0
  -27.5770  -37.2500   24.6840 C   0  0  0  0  0  1  0  0  0  0  0  0
  -26.4600  -37.4180   23.7590 N   0  0  0  0  0  0  0  0  0  0  0  0
  -26.0550  -38.3370   23.9190 H   0  0  0  0  0  0  0  0  0  0  0  0
  -26.4190  -31.7460   25.1250 C   0  0  1  0  0  0  0  0  0  0  0  0
  -25.3330  -31.5010   26.1970 C   0  0  0  0  0  1  0  0  0  0  0  0
  -26.9940  -30.3660   24.7240 C   0  0  0  0  0  1  0  0  0  0  0  0
  -27.5780  -32.5350   25.7790 C   0  0  0  0  0  1  0  0  0  0  0  0
  1  2  1  0
  3  1  1  0
  4  9  2  0
  5  7  1  0
  6  5  1  0
  6  8  1  0
  7  4  1  0
  7 10  1  0
  8  1  1  0
  8  4  1  0
 11 10  1  0
 12 17  1  0
 13 14  1  0
 13 12  1  0
 15 14  1  0
 15 22  1  0
 15 16  1  0
 17 11  1  0
 17 16  1  0
 18 11  2  0
 19 20  2  0
 20 39  1  0
 21 20  1  0
 21 24  1  0
 22 19  1  0
 22 23  1  0
 23 21  2  0
 24 25  1  0
 25 26  2  0
 27 30  1  0
 27 26  1  0
 28 27  2  0
 29 28  1  0
 29 24  2  0
 30 31  1  0
 31 32  1  0
 32 33  2  0
 34 33  1  0
 34 38  1  0
 35 34  2  0
 36 31  2  0
 36 35  1  0
 37 36  1  0
 39 40  1  0
 40 43  1  0
 40 42  1  0
 41 39  2  0
 44 45  1  0
 44 19  1  0
 46 44  1  0
 47  1  1  0
 48 47  1  0
 49 50  1  0
 49 48  2  0
 51 62  2  0
 52 50  1  0
 52 57  1  0
 53 61  1  0
 53 63  1  0
 54 60  1  0
 54 56  1  0
 55 61  1  0
 56 57  2  0
 56 55  1  0
 58 59  1  0
 58 52  2  0
 59 54  2  0
 60 53  1  0
 61 51  1  0
 63 65  2  0
 64 63  1  0
 66 64  1  0
 67 76  2  0
 67 72  1  0
 68 64  1  0
 68 72  1  0
 69 68  1  0
 70 71  1  0
 70 69  1  0
 71 67  1  0
 72 73  2  0
 73 74  1  0
 75 74  2  0
 76 75  1  0
 77 51  1  0
 77 78  1  0
 77 87  1  0
 78 81  1  0
 79 83  1  0
 79 78  1  0
 80 79  2  0
 83 82  1  0
 85 83  1  0
 85 86  1  0
 85 84  1  0
 87 90  1  1
 87 88  1  0
 89 87  1  0
M  ISO  4  10 100  11 100  49 101  50 101
M  END
>  <TORSDO>  (26) 
F 21

>  <SCORE>  (26) 
-13.573

>  <name>  (26) 
25

>  <ligand_id>  (26) 
25

>  <original_smiles>  (26) 
[H]c1c([H])c([H])c2c(c1[H])C([H])([H])C([H])([H])C([H])([H])C2([H])N([H])C(=O)C1([H])N(C(=O)C([H])(N([H])C(=O)C([H])(N([H])C([H])([H])[H])C([H])([H])[H])C(C([H])([H])[H])(C([H])([H])[H])C([H])([H])[H])C([H])([H])c2c([H])c(OC([H])([H])C([H])([H])C([H])([H])[N+]([H])([H])C3([H])C(=O)C([H])(C([H])([H])C(=O)N4C([H])([H])C([H])([H])C([H])([H])C([H])(n5nc(-c6c([H])c([H])c(Oc7c([H])c([H])c(F)c([H])c7F)c([H])c6[H])c(C(=O)N([H])[H])c5N([H])[H])C4([H])[H])C([H])([H])C3([H])[H])c([H])c([H])c2C1([H])[H]

>  <smiles>  (26) 
[H]c1c([H])c([H])c2c(c1[H])C([H])([H])C([H])([H])C([H])([H])C2([H])N([H])C(=O)C1([H])N(C(=O)C([H])(N([H])C(=O)C([H])(N([H])C([H])([H])[H])C([H])([H])[H])C(C([H])([H])[H])(C([H])([H])[H])C([H])([H])[H])C([H])([H])c2c([H])c(OC([H])([H])C([H])([H])C([H])([H])[N+]([H])([H])C3([H])C(=O)C([H])(C([H])([H])C(=O)N4C([H])([H])C([H])([H])C([H])([H])C([H])(n5nc(-c6c([H])c([H])c(Oc7c([H])c([H])c(F)c([H])c7F)c([H])c6[H])c(C(=O)N([H])[H])c5N([H])[H])C4([H])[H])C([H])([H])C3([H])[H])c([H])c([H])c2C1([H])[H]

$$$$
26:0:0
     RDKit          3D

 84 91  0  0  1  0  0  0  0  0999 V2000
  -28.9710  -22.8010   20.2220 C   0  0  0  0  0  3  0  0  0  0  0  0
  -28.6640  -19.8520   20.1350 C   0  0  0  0  0  0  0  0  0  0  0  0
  -27.3430  -19.1120   20.0310 C   0  0  0  0  0  1  0  0  0  0  0  0
  -28.4060  -21.2500   20.1420 N   0  0  0  0  0  0  0  0  0  0  0  0
  -29.8370  -18.5340   20.1800 C   0  0  0  0  0  3  0  0  0  0  0  0
  -29.5080  -16.7730   20.3550 C   0  0  0  0  0  3  0  0  0  0  0  0
  -30.4190  -15.2860   20.1980 C   0  0  0  0  0  0  0  0  0  0  0  0
  -30.4560  -12.8250   19.3710 C   0  0  0  0  0  2  0  0  0  0  0  0
  -29.5260  -12.6220   18.1460 C   0  0  0  0  0  2  0  0  0  0  0  0
  -28.0750  -12.3570   18.5870 C   0  0  0  0  0  2  0  0  0  0  0  0
  -27.6270  -13.3240   19.7090 C   0  0  0  0  0  3  0  0  0  0  0  0
  -28.6780  -13.4650   20.8280 C   0  0  0  0  0  2  0  0  0  0  0  0
  -29.9170  -13.9560   20.2080 N   0  0  0  0  0  0  0  0  0  0  0  0
  -31.6270  -15.3320   19.9250 O   0  0  0  0  0  0  0  0  0  0  0  0
  -25.2630  -13.8800   20.4920 C   0  0  0  0  0  0  0  0  0  0  0  0
  -24.2030  -13.0990   20.8630 C   0  0  0  0  0  0  0  0  0  0  0  0
  -24.6680  -11.7500   20.8160 C   0  0  0  0  0  0  0  0  0  0  0  0
  -26.3020  -13.0060   20.2270 N   0  0  0  0  0  0  0  0  0  0  0  0
  -25.9570  -11.7180   20.4900 N   0  0  0  0  0  0  0  0  0  0  0  0
  -23.9420  -10.4860   21.0010 C   0  0  0  0  0  0  0  0  0  0  0  0
  -24.3600   -9.5230   21.9450 C   0  0  0  0  0  3  0  0  0  0  0  0
  -23.6310   -8.3260   22.1190 C   0  0  0  0  0  3  0  0  0  0  0  0
  -22.4700   -8.0840   21.3480 C   0  0  0  0  0  0  0  0  0  0  0  0
  -22.0700   -9.0360   20.3930 C   0  0  0  0  0  3  0  0  0  0  0  0
  -22.8000  -10.2230   20.2170 C   0  0  0  0  0  3  0  0  0  0  0  0
  -21.7140   -6.9390   21.4300 O   0  0  0  0  0  0  0  0  0  0  0  0
  -21.6200   -6.2200   22.5950 C   0  0  0  0  0  0  0  0  0  0  0  0
  -21.1260   -6.7940   23.7860 C   0  0  0  0  0  3  0  0  0  0  0  0
  -20.9800   -6.0010   24.9420 C   0  0  0  0  0  3  0  0  0  0  0  0
  -21.3180   -4.6360   24.9070 C   0  0  0  0  0  0  0  0  0  0  0  0
  -21.8050   -4.0610   23.7200 C   0  0  0  0  0  3  0  0  0  0  0  0
  -21.9520   -4.8510   22.5660 C   0  0  0  0  0  0  0  0  0  0  0  0
  -22.4010   -4.2870   21.4190 F   0  0  0  0  0  0  0  0  0  0  0  0
  -21.1710   -3.8720   26.0150 F   0  0  0  0  0  0  0  0  0  0  0  0
  -22.8090  -13.5750   21.1490 C   0  0  0  0  0  0  0  0  0  0  0  0
  -22.0900  -12.8780   22.0220 N   0  0  0  0  0  0  0  0  0  0  0  0
  -22.3650  -14.6020   20.6340 O   0  0  0  0  0  0  0  0  0  0  0  0
  -22.4610  -12.0490   22.4600 H   0  0  0  0  0  0  0  0  0  0  0  0
  -21.1550  -13.1800   22.2580 H   0  0  0  0  0  0  0  0  0  0  0  0
  -25.4240  -15.2520   20.3290 N   0  0  0  0  0  0  0  0  0  0  0  0
  -24.6600  -15.9060   20.4620 H   0  0  0  0  0  0  0  0  0  0  0  0
  -26.2740  -15.6950   20.0040 H   0  0  0  0  0  0  0  0  0  0  0  0
  -27.9610  -24.2910   20.1380 C   0  0  0  0  0  3  0  0  0  0  0  0
  -28.2200  -25.9110   20.2680 O   0  0  0  0  0  0  0  0  0  0  0  0
  -24.6480  -31.8520   23.2400 C   0  0  0  0  0  0  0  0  0  0  0  0
  -27.2020  -26.9950   20.2160 C   0  0  0  0  0  0  0  0  0  0  0  0
  -23.4560  -30.4680   21.5900 C   0  0  0  0  0  3  0  0  0  0  0  0
  -24.9050  -28.8670   20.1680 C   0  0  0  0  0  0  0  0  0  0  0  0
  -26.0220  -30.6770   21.4540 C   0  0  0  0  0  2  0  0  0  0  0  0
  -26.0910  -29.2720   20.7920 C   0  0  0  0  0  0  0  0  0  0  0  0
  -27.2370  -28.3580   20.7890 C   0  0  0  0  0  3  0  0  0  0  0  0
  -25.9840  -26.7360   19.5500 C   0  0  0  0  0  3  0  0  0  0  0  0
  -24.8740  -27.6190   19.5280 C   0  0  0  0  0  3  0  0  0  0  0  0
  -23.6890  -29.7900   20.2120 C   0  0  0  0  0  2  0  0  0  0  0  0
  -24.7300  -31.0250   22.1480 N   0  0  0  0  0  0  0  0  0  0  0  0
  -23.5570  -32.1420   23.7570 O   0  0  0  0  0  0  0  0  0  0  0  0
  -22.7550  -29.4700   22.5480 C   0  0  0  0  0  0  0  0  0  0  0  0
  -21.4250  -29.3120   22.4180 N   0  0  0  0  0  0  0  0  0  0  0  0
  -23.4140  -28.8370   23.3770 O   0  0  0  0  0  0  0  0  0  0  0  0
  -20.9460  -29.8720   21.7280 H   0  0  0  0  0  0  0  0  0  0  0  0
  -18.0330  -28.1220   22.9150 C   0  0  0  0  0  0  0  0  0  0  0  0
  -20.5940  -28.3750   23.1820 C   0  0  0  0  0  3  0  0  0  0  0  0
  -20.6880  -26.9450   22.6000 C   0  0  0  0  0  2  0  0  0  0  0  0
  -19.5860  -26.6340   21.5820 C   0  0  0  0  0  2  0  0  0  0  0  0
  -18.2050  -26.7780   22.2260 C   0  0  0  0  0  2  0  0  0  0  0  0
  -19.1550  -28.8790   23.3480 C   0  0  0  0  0  0  0  0  0  0  0  0
  -18.9380  -30.1350   23.9560 C   0  0  0  0  0  3  0  0  0  0  0  0
  -17.6340  -30.6350   24.1290 C   0  0  0  0  0  3  0  0  0  0  0  0
  -16.5280  -29.8770   23.7100 C   0  0  0  0  0  3  0  0  0  0  0  0
  -16.7280  -28.6220   23.1080 C   0  0  0  0  0  3  0  0  0  0  0  0
  -25.9180  -32.4870   23.8810 C   0  0  0  0  0  3  0  0  0  0  0  0
  -26.4090  -31.7230   25.1730 C   0  0  1  0  0  0  0  0  0  0  0  0
  -25.2980  -31.5010   26.2260 C   0  0  0  0  0  1  0  0  0  0  0  0
  -26.9880  -30.3370   24.8080 C   0  0  0  0  0  1  0  0  0  0  0  0
  -27.5550  -32.5150   25.8460 C   0  0  0  0  0  1  0  0  0  0  0  0
  -25.6060  -33.8900   24.2110 N   0  0  0  0  0  0  0  0  0  0  0  0
  -25.9220  -34.9460   23.4500 C   0  0  0  0  0  0  0  0  0  0  0  0
  -26.5690  -34.8440   22.4060 O   0  0  0  0  0  0  0  0  0  0  0  0
  -25.0280  -34.0420   25.0240 H   0  0  0  0  0  0  0  0  0  0  0  0
  -24.1700  -36.7330   23.1650 C   0  0  0  0  0  1  0  0  0  0  0  0
  -25.4490  -36.3370   23.9220 C   0  0  0  0  0  3  0  0  0  0  0  0
  -27.6090  -37.2440   24.6590 C   0  0  0  0  0  1  0  0  0  0  0  0
  -26.4690  -37.3960   23.7590 N   0  0  0  0  0  0  0  0  0  0  0  0
  -26.0630  -38.3150   23.9150 H   0  0  0  0  0  0  0  0  0  0  0  0
  2  4  2  0
  2  5  1  0
  3  2  1  0
  4  1  1  0
  5  6  2  0
  7 13  1  0
  7  6  1  0
  8 13  1  0
  9 10  1  0
  9  8  1  0
 11 10  1  0
 11 18  1  0
 11 12  1  0
 13 12  1  0
 14  7  2  0
 15 16  2  0
 16 35  1  0
 17 16  1  0
 17 20  1  0
 18 19  1  0
 18 15  1  0
 19 17  2  0
 20 21  1  0
 21 22  2  0
 23 26  1  0
 23 22  1  0
 24 23  2  0
 25 24  1  0
 25 20  2  0
 26 27  1  0
 27 28  1  0
 28 29  2  0
 30 29  1  0
 30 34  1  0
 31 30  2  0
 32 27  2  0
 32 31  1  0
 33 32  1  0
 35 36  1  0
 36 39  1  0
 36 38  1  0
 37 35  2  0
 40 41  1  0
 40 15  1  0
 42 40  1  0
 43  1  2  0
 43 44  1  0
 45 56  2  0
 46 44  1  0
 46 51  1  0
 47 55  1  0
 47 57  1  0
 48 54  1  0
 48 50  1  0
 49 55  1  0
 50 49  1  0
 51 50  2  0
 52 46  2  0
 53 52  1  0
 53 48  2  0
 54 47  1  0
 55 45  1  0
 57 59  2  0
 58 57  1  0
 60 58  1  0
 61 70  2  0
 61 66  1  0
 62 58  1  0
 62 66  1  0
 63 62  1  0
 64 65  1  0
 64 63  1  0
 65 61  1  0
 66 67  2  0
 67 68  1  0
 69 68  2  0
 70 69  1  0
 71 45  1  0
 71 76  1  0
 71 72  1  0
 72 75  1  1
 72 73  1  0
 74 72  1  0
 76 79  1  0
 77 81  1  0
 77 76  1  0
 78 77  2  0
 81 80  1  0
 83 84  1  0
 83 81  1  0
 83 82  1  0
M  ISO  4   6 100   7 100  43 101  44 101
M  END
>  <TORSDO>  (27) 
F 20

>  <SCORE>  (27) 
-15.521

>  <name>  (27) 
26

>  <ligand_id>  (27) 
26

>  <original_smiles>  (27) 
[H]c1c([H])c([H])c2c(c1[H])C([H])([H])C([H])([H])C([H])([H])C2([H])N([H])C(=O)C1([H])N(C(=O)C([H])(N([H])C(=O)C([H])(N([H])C([H])([H])[H])C([H])([H])[H])C(C([H])([H])[H])(C([H])([H])[H])C([H])([H])[H])C([H])([H])c2c([H])c(OC([H])([H])C([H])([H])N=C(C([H])([H])[H])C([H])([H])C([H])([H])C(=O)N3C([H])([H])C([H])([H])C([H])([H])C([H])(n4nc(-c5c([H])c([H])c(Oc6c([H])c([H])c(F)c([H])c6F)c([H])c5[H])c(C(=O)N([H])[H])c4N([H])[H])C3([H])[H])c([H])c([H])c2C1([H])[H]

>  <smiles>  (27) 
[H]c1c([H])c([H])c2c(c1[H])C([H])([H])C([H])([H])C([H])([H])C2([H])N([H])C(=O)C1([H])N(C(=O)C([H])(N([H])C(=O)C([H])(N([H])C([H])([H])[H])C([H])([H])[H])C(C([H])([H])[H])(C([H])([H])[H])C([H])([H])[H])C([H])([H])c2c([H])c(OC([H])([H])C([H])([H])N=C(C([H])([H])[H])C([H])([H])C([H])([H])C(=O)N3C([H])([H])C([H])([H])C([H])([H])C([H])(n4nc(-c5c([H])c([H])c(Oc6c([H])c([H])c(F)c([H])c6F)c([H])c5[H])c(C(=O)N([H])[H])c4N([H])[H])C3([H])[H])c([H])c([H])c2C1([H])[H]

$$$$
27:0:0
     RDKit          3D

 82 86  0  0  1  0  0  0  0  0999 V2000
  -28.1420  -25.1300   20.3450 O   0  0  0  0  0  1  0  0  0  0  0  0
  -24.6730  -31.7930   23.1560 C   0  0  0  0  0  0  0  0  0  0  0  0
  -27.2070  -26.4680   20.2370 C   0  0  0  0  0  0  0  0  0  0  0  0
  -23.5020  -30.3700   21.5340 C   0  0  0  0  0  3  0  0  0  0  0  0
  -24.9590  -28.6640   20.1490 C   0  0  0  0  0  0  0  0  0  0  0  0
  -26.0910  -30.4430   21.4460 C   0  0  0  0  0  2  0  0  0  0  0  0
  -26.1560  -28.9760   20.8000 C   0  0  0  0  0  0  0  0  0  0  0  0
  -27.2470  -27.9140   20.8090 C   0  0  0  0  0  3  0  0  0  0  0  0
  -25.9750  -26.4380   19.5120 C   0  0  0  0  0  3  0  0  0  0  0  0
  -24.9230  -27.4250   19.4790 C   0  0  0  0  0  3  0  0  0  0  0  0
  -23.7590  -29.6420   20.1770 C   0  0  0  0  0  2  0  0  0  0  0  0
  -24.7830  -30.9100   22.0960 N   0  0  0  0  0  0  0  0  0  0  0  0
  -23.5740  -32.1040   23.6490 O   0  0  0  0  0  0  0  0  0  0  0  0
  -22.7640  -29.4210   22.5210 C   0  0  0  0  0  0  0  0  0  0  0  0
  -21.4280  -29.2830   22.4040 N   0  0  0  0  0  0  0  0  0  0  0  0
  -23.4120  -28.8050   23.3700 O   0  0  0  0  0  0  0  0  0  0  0  0
  -20.9500  -29.8290   21.7010 H   0  0  0  0  0  0  0  0  0  0  0  0
  -18.0360  -28.0740   22.9440 C   0  0  0  0  0  0  0  0  0  0  0  0
  -20.5980  -28.3550   23.1880 C   0  0  0  0  0  3  0  0  0  0  0  0
  -20.6990  -26.9160   22.6290 C   0  0  0  0  0  2  0  0  0  0  0  0
  -19.5950  -26.5830   21.6200 C   0  0  0  0  0  2  0  0  0  0  0  0
  -18.2150  -26.7250   22.2680 C   0  0  0  0  0  2  0  0  0  0  0  0
  -19.1540  -28.8470   23.3600 C   0  0  0  0  0  0  0  0  0  0  0  0
  -18.9280  -30.1050   23.9600 C   0  0  0  0  0  3  0  0  0  0  0  0
  -17.6200  -30.5930   24.1410 C   0  0  0  0  0  3  0  0  0  0  0  0
  -16.5180  -29.8190   23.7350 C   0  0  0  0  0  3  0  0  0  0  0  0
  -16.7270  -28.5610   23.1430 C   0  0  0  0  0  3  0  0  0  0  0  0
  -25.9220  -32.4680   23.8020 C   0  0  0  0  0  3  0  0  0  0  0  0
  -25.5780  -33.8660   24.1440 N   0  0  0  0  0  0  0  0  0  0  0  0
  -25.8890  -34.9460   23.4130 C   0  0  0  0  0  0  0  0  0  0  0  0
  -26.5450  -34.8720   22.3730 O   0  0  0  0  0  0  0  0  0  0  0  0
  -24.9880  -33.9940   24.9540 H   0  0  0  0  0  0  0  0  0  0  0  0
  -24.1250  -36.7310   23.1520 C   0  0  0  0  0  1  0  0  0  0  0  0
  -25.3990  -36.3250   23.9110 C   0  0  0  0  0  3  0  0  0  0  0  0
  -27.5470  -37.2400   24.6790 C   0  0  0  0  0  1  0  0  0  0  0  0
  -26.4110  -37.3980   23.7760 N   0  0  0  0  0  0  0  0  0  0  0  0
  -25.9940  -38.3090   23.9480 H   0  0  0  0  0  0  0  0  0  0  0  0
  -26.4250  -31.7200   25.1000 C   0  0  1  0  0  0  0  0  0  0  0  0
  -25.3200  -31.4920   26.1590 C   0  0  0  0  0  1  0  0  0  0  0  0
  -27.0220  -30.3380   24.7530 C   0  0  0  0  0  1  0  0  0  0  0  0
  -27.5630  -32.5300   25.7650 C   0  0  0  0  0  1  0  0  0  0  0  0
  -28.1770  -23.2530   20.0010 C   0  0  0  0  0 15  0  0  0  0  0  0
  -28.8370  -21.2740   20.4370 C   0  0  0  0  0 15  0  0  0  0  0  0
  -29.4820  -17.7940   20.3150 C   0  0  0  0  0  2  0  0  0  0  0  0
  -29.4310  -19.3970   19.9580 C   0  0  0  0  0  2  0  0  0  0  0  0
  -30.2340  -19.7210   18.6860 C   0  0  0  0  0  1  0  0  0  0  0  0
  -30.1760  -16.0950   20.1830 C   0  0  0  0  0  0  0  0  0  0  0  0
  -30.3750  -13.4290   19.4670 C   0  0  0  0  0  2  0  0  0  0  0  0
  -29.5510  -12.8440   18.2700 C   0  0  0  0  0  2  0  0  0  0  0  0
  -28.1560  -12.4010   18.7190 C   0  0  0  0  0  2  0  0  0  0  0  0
  -27.5700  -13.4310   19.7040 C   0  0  0  0  0  3  0  0  0  0  0  0
  -28.5490  -13.9280   20.8060 C   0  0  0  0  0  2  0  0  0  0  0  0
  -29.6870  -14.6570   20.1590 N   0  0  0  0  0  0  0  0  0  0  0  0
  -31.4050  -15.9010   20.0050 O   0  0  0  0  0  0  0  0  0  0  0  0
  -25.1990  -13.9030   20.4400 C   0  0  0  0  0  0  0  0  0  0  0  0
  -24.1510  -13.1090   20.8030 C   0  0  0  0  0  0  0  0  0  0  0  0
  -24.6460  -11.7670   20.8010 C   0  0  0  0  0  0  0  0  0  0  0  0
  -26.2640  -13.0520   20.2240 N   0  0  0  0  0  0  0  0  0  0  0  0
  -25.9460  -11.7580   20.5070 N   0  0  0  0  0  0  0  0  0  0  0  0
  -23.9340  -10.4970   21.0030 C   0  0  0  0  0  0  0  0  0  0  0  0
  -24.3660   -9.5450   21.9520 C   0  0  0  0  0  3  0  0  0  0  0  0
  -23.6460   -8.3450   22.1460 C   0  0  0  0  0  3  0  0  0  0  0  0
  -22.4770   -8.0890   21.3910 C   0  0  0  0  0  0  0  0  0  0  0  0
  -22.0610   -9.0300   20.4320 C   0  0  0  0  0  3  0  0  0  0  0  0
  -22.7830  -10.2190   20.2360 C   0  0  0  0  0  3  0  0  0  0  0  0
  -21.7290   -6.9400   21.4920 O   0  0  0  0  0  0  0  0  0  0  0  0
  -21.6930   -6.2030   22.6480 C   0  0  0  0  0  0  0  0  0  0  0  0
  -21.2760   -6.7630   23.8760 C   0  0  0  0  0  3  0  0  0  0  0  0
  -21.1870   -5.9530   25.0250 C   0  0  0  0  0  3  0  0  0  0  0  0
  -21.5040   -4.5840   24.9490 C   0  0  0  0  0  0  0  0  0  0  0  0
  -21.9140   -4.0220   23.7260 C   0  0  0  0  0  3  0  0  0  0  0  0
  -22.0050   -4.8290   22.5790 C   0  0  0  0  0  0  0  0  0  0  0  0
  -22.3780   -4.2790   21.3990 F   0  0  0  0  0  0  0  0  0  0  0  0
  -21.4120   -3.8030   26.0510 F   0  0  0  0  0  0  0  0  0  0  0  0
  -22.7420  -13.5680   21.0350 C   0  0  0  0  0  0  0  0  0  0  0  0
  -22.0110  -12.8840   21.9070 N   0  0  0  0  0  0  0  0  0  0  0  0
  -22.2990  -14.5720   20.4790 O   0  0  0  0  0  0  0  0  0  0  0  0
  -22.3830  -12.0730   22.3790 H   0  0  0  0  0  0  0  0  0  0  0  0
  -21.0640  -13.1760   22.1070 H   0  0  0  0  0  0  0  0  0  0  0  0
  -25.3350  -15.2740   20.2400 N   0  0  0  0  0  0  0  0  0  0  0  0
  -24.5550  -15.9140   20.3390 H   0  0  0  0  0  0  0  0  0  0  0  0
  -26.1850  -15.7290   19.9320 H   0  0  0  0  0  0  0  0  0  0  0  0
  2 13  2  0
  3  1  1  0
  3  8  1  0
  4 12  1  0
  4 14  1  0
  5 11  1  0
  5  7  1  0
  6 12  1  0
  7  8  2  0
  7  6  1  0
  9  3  2  0
 10  9  1  0
 10  5  2  0
 11  4  1  0
 12  2  1  0
 14 16  2  0
 15 14  1  0
 17 15  1  0
 18 27  2  0
 18 23  1  0
 19 15  1  0
 19 23  1  0
 20 19  1  0
 21 22  1  0
 21 20  1  0
 22 18  1  0
 23 24  2  0
 24 25  1  0
 26 25  2  0
 27 26  1  0
 28  2  1  0
 28 29  1  0
 28 38  1  0
 29 32  1  0
 30 34  1  0
 30 29  1  0
 31 30  2  0
 34 33  1  0
 36 34  1  0
 36 37  1  0
 36 35  1  0
 38 41  1  1
 38 39  1  0
 40 38  1  0
 45 44  1  0
 46 45  1  0
 47 44  1  0
 48 53  1  0
 49 50  1  0
 49 48  1  0
 51 50  1  0
 51 58  1  0
 51 52  1  0
 53 47  1  0
 53 52  1  0
 54 47  2  0
 55 56  2  0
 56 75  1  0
 57 56  1  0
 57 60  1  0
 58 55  1  0
 58 59  1  0
 59 57  2  0
 60 61  1  0
 61 62  2  0
 63 66  1  0
 63 62  1  0
 64 63  2  0
 65 64  1  0
 65 60  2  0
 66 67  1  0
 67 68  1  0
 68 69  2  0
 70 69  1  0
 70 74  1  0
 71 70  2  0
 72 67  2  0
 72 71  1  0
 73 72  1  0
 75 76  1  0
 76 79  1  0
 76 78  1  0
 77 75  2  0
 80 81  1  0
 80 55  1  0
 82 80  1  0
M  ISO  4   1 101  42 101  44 100  47 100
M  END
>  <TORSDO>  (28) 
F 18

>  <SCORE>  (28) 
-16.049

>  <name>  (28) 
27

>  <ligand_id>  (28) 
27

>  <original_smiles>  (28) 
[H]C(C(=O)N1C([H])([H])C([H])([H])C([H])([H])C([H])(n2nc(-c3c([H])c([H])c(Oc4c([H])c([H])c(F)c([H])c4F)c([H])c3[H])c(C(=O)N([H])[H])c2N([H])[H])C1([H])[H])=C(C([H])([H])[H])C([H])([H])C([H])([H])Oc1c([H])c([H])c2c(c1[H])C([H])([H])N(C(=O)C([H])(N([H])C(=O)C([H])(N([H])C([H])([H])[H])C([H])([H])[H])C(C([H])([H])[H])(C([H])([H])[H])C([H])([H])[H])C([H])(C(=O)N([H])C1([H])c3c([H])c([H])c([H])c([H])c3C([H])([H])C([H])([H])C1([H])[H])C2([H])[H]

>  <smiles>  (28) 
[H]C(C(=O)N1C([H])([H])C([H])([H])C([H])([H])C([H])(n2nc(-c3c([H])c([H])c(Oc4c([H])c([H])c(F)c([H])c4F)c([H])c3[H])c(C(=O)N([H])[H])c2N([H])[H])C1([H])[H])=C(C([H])([H])[H])C([H])([H])C([H])([H])Oc1c([H])c([H])c2c(c1[H])C([H])([H])N(C(=O)C([H])(N([H])C(=O)C([H])(N([H])C([H])([H])[H])C([H])([H])[H])C(C([H])([H])[H])(C([H])([H])[H])C([H])([H])[H])C([H])(C(=O)N([H])C1([H])c3c([H])c([H])c([H])c([H])c3C([H])([H])C([H])([H])C1([H])[H])C2([H])[H]

$$$$
28:0:0
     RDKit          3D

 91 99  0  0  1  0  0  0  0  0999 V2000
  -27.1060  -23.5080   20.3610 C   0  0  0  0  0  2  0  0  0  0  0  0
  -27.4410  -21.9560   20.6490 C   0  0  0  0  0  2  0  0  0  0  0  0
  -29.2860  -23.0890   19.8470 C   0  0  0  0  0  2  0  0  0  0  0  0
  -28.3770  -24.4160   20.4490 C   0  0  2  0  0  0  0  0  0  0  0  0
  -28.8840  -21.6310   20.3850 N   0  0  2  0  0  4  0  0  0  0  0  0
  -29.3110  -21.6010   21.3020 H   0  0  0  0  0  0  0  0  0  0  0  0
  -28.8120  -24.5470   21.9400 C   0  0  0  0  0  0  0  0  0  0  0  0
  -29.3250  -25.7060   22.3350 N   0  0  0  0  0  0  0  0  0  0  0  0
  -28.7240  -23.6120   22.7380 O   0  0  0  0  0  0  0  0  0  0  0  0
  -29.4010  -26.4500   21.6540 H   0  0  0  0  0  0  0  0  0  0  0  0
  -29.6330  -25.8480   23.2850 H   0  0  0  0  0  0  0  0  0  0  0  0
  -28.3350  -25.9890   19.9420 O   0  0  0  0  0  0  0  0  0  0  0  0
  -24.6640  -31.8270   23.0490 C   0  0  0  0  0  0  0  0  0  0  0  0
  -27.2670  -27.0200   20.0080 C   0  0  0  0  0  0  0  0  0  0  0  0
  -23.4810  -30.4330   21.4020 C   0  0  0  0  0  3  0  0  0  0  0  0
  -24.9400  -28.8500   19.9780 C   0  0  0  0  0  0  0  0  0  0  0  0
  -26.0430  -30.6810   21.2470 C   0  0  0  0  0  2  0  0  0  0  0  0
  -26.1260  -29.2760   20.5900 C   0  0  0  0  0  0  0  0  0  0  0  0
  -27.2880  -28.3840   20.5730 C   0  0  0  0  0  3  0  0  0  0  0  0
  -26.0460  -26.7340   19.3560 C   0  0  0  0  0  3  0  0  0  0  0  0
  -24.9220  -27.5980   19.3440 C   0  0  0  0  0  3  0  0  0  0  0  0
  -23.7140  -29.7590   20.0230 C   0  0  0  0  0  2  0  0  0  0  0  0
  -24.7510  -31.0080   21.9530 N   0  0  0  0  0  0  0  0  0  0  0  0
  -23.5730  -32.1020   23.5750 O   0  0  0  0  0  0  0  0  0  0  0  0
  -22.7990  -29.4230   22.3610 C   0  0  0  0  0  0  0  0  0  0  0  0
  -21.4650  -29.2710   22.2570 N   0  0  0  0  0  0  0  0  0  0  0  0
  -23.4760  -28.7760   23.1650 O   0  0  0  0  0  0  0  0  0  0  0  0
  -20.9730  -29.8440   21.5870 H   0  0  0  0  0  0  0  0  0  0  0  0
  -18.0840  -28.0780   22.8090 C   0  0  0  0  0  0  0  0  0  0  0  0
  -20.6500  -28.3230   23.0260 C   0  0  0  0  0  3  0  0  0  0  0  0
  -20.7300  -26.9020   22.4220 C   0  0  0  0  0  2  0  0  0  0  0  0
  -19.6060  -26.6060   21.4230 C   0  0  0  0  0  2  0  0  0  0  0  0
  -18.2390  -26.7430   22.0980 C   0  0  0  0  0  2  0  0  0  0  0  0
  -19.2150  -28.8260   23.2300 C   0  0  0  0  0  0  0  0  0  0  0  0
  -19.0130  -30.0730   23.8610 C   0  0  0  0  0  3  0  0  0  0  0  0
  -17.7140  -30.5740   24.0680 C   0  0  0  0  0  3  0  0  0  0  0  0
  -16.5970  -29.8230   23.6610 C   0  0  0  0  0  3  0  0  0  0  0  0
  -16.7840  -28.5760   23.0380 C   0  0  0  0  0  3  0  0  0  0  0  0
  -25.9310  -32.4770   23.6840 C   0  0  0  0  0  3  0  0  0  0  0  0
  -26.4580  -31.6950   24.9510 C   0  0  1  0  0  0  0  0  0  0  0  0
  -25.3700  -31.4280   26.0180 C   0  0  0  0  0  1  0  0  0  0  0  0
  -27.0580  -30.3290   24.5490 C   0  0  0  0  0  1  0  0  0  0  0  0
  -27.6010  -32.4950   25.6190 C   0  0  0  0  0  1  0  0  0  0  0  0
  -25.5920  -33.8650   24.0470 N   0  0  0  0  0  0  0  0  0  0  0  0
  -25.9170  -34.9480   23.3270 C   0  0  0  0  0  0  0  0  0  0  0  0
  -26.5950  -34.8820   22.2990 O   0  0  0  0  0  0  0  0  0  0  0  0
  -24.9800  -33.9870   24.8400 H   0  0  0  0  0  0  0  0  0  0  0  0
  -24.1800  -36.7470   23.0180 C   0  0  0  0  0  1  0  0  0  0  0  0
  -25.4150  -36.3190   23.8260 C   0  0  0  0  0  3  0  0  0  0  0  0
  -27.5340  -37.1990   24.7080 C   0  0  0  0  0  1  0  0  0  0  0  0
  -26.4420  -37.3830   23.7570 N   0  0  0  0  0  0  0  0  0  0  0  0
  -26.0270  -38.2960   23.9240 H   0  0  0  0  0  0  0  0  0  0  0  0
  -29.2350  -20.1350   19.7420 C   0  0  0  0  0  3  0  0  0  0  0  0
  -29.6740  -18.5920   20.5320 C   0  0  0  0  0  3  0  0  0  0  0  0
  -29.6700  -16.8530   20.0510 C   0  0  0  0  0  2  0  0  0  0  0  0
  -30.5020  -15.3050   20.0770 C   0  0  0  0  0  0  0  0  0  0  0  0
  -30.4880  -12.8580   19.2360 C   0  0  0  0  0  2  0  0  0  0  0  0
  -29.5520  -12.6700   18.0160 C   0  0  0  0  0  2  0  0  0  0  0  0
  -28.1080  -12.3970   18.4700 C   0  0  0  0  0  2  0  0  0  0  0  0
  -27.6650  -13.3580   19.6000 C   0  0  0  0  0  3  0  0  0  0  0  0
  -28.7250  -13.5100   20.7090 C   0  0  0  0  0  2  0  0  0  0  0  0
  -29.9610  -13.9920   20.0760 N   0  0  0  0  0  0  0  0  0  0  0  0
  -31.7260  -15.2960   19.8670 O   0  0  0  0  0  0  0  0  0  0  0  0
  -25.3010  -13.8910   20.3980 C   0  0  0  0  0  0  0  0  0  0  0  0
  -24.2550  -13.1020   20.7840 C   0  0  0  0  0  0  0  0  0  0  0  0
  -24.7360  -11.7580   20.7470 C   0  0  0  0  0  0  0  0  0  0  0  0
  -26.3490  -13.0280   20.1340 N   0  0  0  0  0  0  0  0  0  0  0  0
  -26.0230  -11.7390   20.4140 N   0  0  0  0  0  0  0  0  0  0  0  0
  -24.0260  -10.4870   20.9500 C   0  0  0  0  0  0  0  0  0  0  0  0
  -24.4650   -9.5350   21.8960 C   0  0  0  0  0  3  0  0  0  0  0  0
  -23.7510   -8.3330   22.0860 C   0  0  0  0  0  3  0  0  0  0  0  0
  -22.5830   -8.0730   21.3290 C   0  0  0  0  0  0  0  0  0  0  0  0
  -22.1640   -9.0130   20.3720 C   0  0  0  0  0  3  0  0  0  0  0  0
  -22.8790  -10.2070   20.1800 C   0  0  0  0  0  3  0  0  0  0  0  0
  -21.8400   -6.9200   21.4280 O   0  0  0  0  0  0  0  0  0  0  0  0
  -21.7780   -6.2010   22.5950 C   0  0  0  0  0  0  0  0  0  0  0  0
  -21.3050   -6.7710   23.7980 C   0  0  0  0  0  3  0  0  0  0  0  0
  -21.1930   -5.9770   24.9570 C   0  0  0  0  0  3  0  0  0  0  0  0
  -21.5440   -4.6150   24.9130 C   0  0  0  0  0  0  0  0  0  0  0  0
  -22.0090   -4.0450   23.7150 C   0  0  0  0  0  3  0  0  0  0  0  0
  -22.1240   -4.8350   22.5590 C   0  0  0  0  0  0  0  0  0  0  0  0
  -22.5530   -4.2750   21.4020 F   0  0  0  0  0  0  0  0  0  0  0  0
  -21.4280   -3.8500   26.0240 F   0  0  0  0  0  0  0  0  0  0  0  0
  -22.8550  -13.5650   21.0700 C   0  0  0  0  0  0  0  0  0  0  0  0
  -22.1440  -12.8620   21.9440 N   0  0  0  0  0  0  0  0  0  0  0  0
  -22.4040  -14.5870   20.5560 O   0  0  0  0  0  0  0  0  0  0  0  0
  -22.5220  -12.0360   22.3810 H   0  0  0  0  0  0  0  0  0  0  0  0
  -21.2070  -13.1570   22.1790 H   0  0  0  0  0  0  0  0  0  0  0  0
  -25.4470  -15.2640   20.2180 N   0  0  0  0  0  0  0  0  0  0  0  0
  -24.6750  -15.9110   20.3480 H   0  0  0  0  0  0  0  0  0  0  0  0
  -26.2930  -15.7150   19.8920 H   0  0  0  0  0  0  0  0  0  0  0  0
  1  4  1  0
  1  2  1  0
  3  5  1  0
  3  4  1  0
  4 12  1  6
  4  7  1  0
  5  2  1  0
  5  6  1  1
  7  8  1  0
  7  9  2  0
  8 11  1  0
 10  8  1  0
 12 14  1  0
 13 24  2  0
 14 19  1  0
 15 23  1  0
 15 25  1  0
 16 22  1  0
 16 18  1  0
 17 23  1  0
 18 17  1  0
 19 18  2  0
 20 14  2  0
 21 20  1  0
 21 16  2  0
 22 15  1  0
 23 13  1  0
 25 27  2  0
 26 25  1  0
 28 26  1  0
 29 38  2  0
 29 34  1  0
 30 26  1  0
 30 34  1  0
 31 30  1  0
 32 33  1  0
 32 31  1  0
 33 29  1  0
 34 35  2  0
 35 36  1  0
 37 36  2  0
 38 37  1  0
 39 13  1  0
 39 44  1  0
 39 40  1  0
 40 43  1  1
 40 41  1  0
 42 40  1  0
 44 47  1  0
 45 49  1  0
 45 44  1  0
 46 45  2  0
 49 48  1  0
 51 49  1  0
 51 52  1  0
 51 50  1  0
 53  5  1  0
 53 54  2  0
 55 56  1  0
 55 54  1  0
 57 62  1  0
 58 59  1  0
 58 57  1  0
 60 59  1  0
 60 67  1  0
 60 61  1  0
 62 56  1  0
 62 61  1  0
 63 56  2  0
 64 65  2  0
 65 84  1  0
 66 65  1  0
 66 69  1  0
 67 64  1  0
 67 68  1  0
 68 66  2  0
 69 70  1  0
 70 71  2  0
 72 75  1  0
 72 71  1  0
 73 72  2  0
 74 73  1  0
 74 69  2  0
 75 76  1  0
 76 77  1  0
 77 78  2  0
 79 78  1  0
 79 83  1  0
 80 79  2  0
 81 76  2  0
 81 80  1  0
 82 81  1  0
 84 85  1  0
 85 88  1  0
 85 87  1  0
 86 84  2  0
 89 90  1  0
 89 64  1  0
 91 89  1  0
M  ISO  4   4 101  12 101  55 100  56 100
M  END
>  <TORSDO>  (29) 
F 20

>  <SCORE>  (29) 
-15.517

>  <name>  (29) 
28

>  <ligand_id>  (29) 
28

>  <original_smiles>  (29) 
[H]c1c([H])c([H])c2c(c1[H])C([H])([H])C([H])([H])C([H])([H])C2([H])N([H])C(=O)C1([H])N(C(=O)C([H])(N([H])C(=O)C([H])(N([H])C([H])([H])[H])C([H])([H])[H])C(C([H])([H])[H])(C([H])([H])[H])C([H])([H])[H])C([H])([H])c2c([H])c(OC3(C(=O)N([H])[H])C([H])([H])C([H])([H])[N+]([H])(C([H])([H])C([H])([H])C([H])([H])C(=O)N4C([H])([H])C([H])([H])C([H])([H])C([H])(n5nc(-c6c([H])c([H])c(Oc7c([H])c([H])c(F)c([H])c7F)c([H])c6[H])c(C(=O)N([H])[H])c5N([H])[H])C4([H])[H])C3([H])[H])c([H])c([H])c2C1([H])[H]

>  <smiles>  (29) 
[H]c1c([H])c([H])c2c(c1[H])C([H])([H])C([H])([H])C([H])([H])C2([H])N([H])C(=O)C1([H])N(C(=O)C([H])(N([H])C(=O)C([H])(N([H])C([H])([H])[H])C([H])([H])[H])C(C([H])([H])[H])(C([H])([H])[H])C([H])([H])[H])C([H])([H])c2c([H])c(OC3(C(=O)N([H])[H])C([H])([H])C([H])([H])[N+]([H])(C([H])([H])C([H])([H])C([H])([H])C(=O)N4C([H])([H])C([H])([H])C([H])([H])C([H])(n5nc(-c6c([H])c([H])c(Oc7c([H])c([H])c(F)c([H])c7F)c([H])c6[H])c(C(=O)N([H])[H])c5N([H])[H])C4([H])[H])C3([H])[H])c([H])c([H])c2C1([H])[H]

$$$$
29:0:0
     RDKit          3D

 90 97  0  0  1  0  0  0  0  0999 V2000
  -29.3580  -21.9040   20.0420 C   0  0  0  0  0  3  0  0  0  0  0  0
  -28.3020  -22.0290   17.7590 C   0  0  0  0  0  1  0  0  0  0  0  0
  -30.6180  -22.8730   18.1060 C   0  0  0  0  0  1  0  0  0  0  0  0
  -29.5480  -21.9530   18.5650 N   0  0  1  0  0  4  0  0  0  0  0  0
  -29.9110  -21.0340   18.3560 H   0  0  0  0  0  0  0  0  0  0  0  0
  -28.8740  -20.3620   20.4030 C   0  0  0  0  0  0  0  0  0  0  0  0
  -29.7250  -19.2270   20.4300 N   0  0  0  0  0  0  0  0  0  0  0  0
  -27.6620  -20.1730   20.5190 O   0  0  0  0  0  0  0  0  0  0  0  0
  -30.7070  -19.4670   20.4770 H   0  0  0  0  0  0  0  0  0  0  0  0
  -29.4780  -17.7080   20.0770 C   0  0  0  0  0  2  0  0  0  0  0  0
  -29.8840  -16.3500   20.9770 C   0  0  0  0  0  2  0  0  0  0  0  0
  -30.5410  -14.9350   20.4070 C   0  0  0  0  0  0  0  0  0  0  0  0
  -30.4010  -12.6140   19.3880 C   0  0  0  0  0  2  0  0  0  0  0  0
  -29.4760  -12.6410   18.1490 C   0  0  0  0  0  2  0  0  0  0  0  0
  -28.0050  -12.4420   18.5620 C   0  0  0  0  0  2  0  0  0  0  0  0
  -27.6110  -13.3200   19.7790 C   0  0  0  0  0  3  0  0  0  0  0  0
  -28.6600  -13.2570   20.9090 C   0  0  0  0  0  2  0  0  0  0  0  0
  -29.9420  -13.6760   20.3360 N   0  0  0  0  0  0  0  0  0  0  0  0
  -31.7020  -14.9970   19.9880 O   0  0  0  0  0  0  0  0  0  0  0  0
  -25.2140  -13.9040   20.4540 C   0  0  0  0  0  0  0  0  0  0  0  0
  -24.1420  -13.1330   20.8120 C   0  0  0  0  0  0  0  0  0  0  0  0
  -24.6080  -11.7830   20.8090 C   0  0  0  0  0  0  0  0  0  0  0  0
  -26.2630  -13.0230   20.2500 N   0  0  0  0  0  0  0  0  0  0  0  0
  -25.9050  -11.7420   20.5240 N   0  0  0  0  0  0  0  0  0  0  0  0
  -23.8740  -10.5240   21.0020 C   0  0  0  0  0  0  0  0  0  0  0  0
  -24.2920   -9.5620   21.9480 C   0  0  0  0  0  3  0  0  0  0  0  0
  -23.5590   -8.3690   22.1310 C   0  0  0  0  0  3  0  0  0  0  0  0
  -22.3920   -8.1300   21.3670 C   0  0  0  0  0  0  0  0  0  0  0  0
  -21.9920   -9.0790   20.4110 C   0  0  0  0  0  3  0  0  0  0  0  0
  -22.7250  -10.2630   20.2270 C   0  0  0  0  0  3  0  0  0  0  0  0
  -21.6320   -6.9900   21.4590 O   0  0  0  0  0  0  0  0  0  0  0  0
  -21.5750   -6.2520   22.6130 C   0  0  0  0  0  0  0  0  0  0  0  0
  -21.1560   -6.8150   23.8380 C   0  0  0  0  0  3  0  0  0  0  0  0
  -21.0530   -6.0050   24.9860 C   0  0  0  0  0  3  0  0  0  0  0  0
  -21.3520   -4.6320   24.9100 C   0  0  0  0  0  0  0  0  0  0  0  0
  -21.7610   -4.0670   23.6890 C   0  0  0  0  0  3  0  0  0  0  0  0
  -21.8720   -4.8760   22.5430 C   0  0  0  0  0  0  0  0  0  0  0  0
  -22.2490   -4.3230   21.3660 F   0  0  0  0  0  0  0  0  0  0  0  0
  -21.2420   -3.8510   26.0100 F   0  0  0  0  0  0  0  0  0  0  0  0
  -22.7420  -13.6170   21.0490 C   0  0  0  0  0  0  0  0  0  0  0  0
  -21.9970  -12.9330   21.9120 N   0  0  0  0  0  0  0  0  0  0  0  0
  -22.3160  -14.6340   20.5090 O   0  0  0  0  0  0  0  0  0  0  0  0
  -22.3550  -12.1100   22.3740 H   0  0  0  0  0  0  0  0  0  0  0  0
  -21.0560  -13.2390   22.1130 H   0  0  0  0  0  0  0  0  0  0  0  0
  -25.3820  -15.2720   20.2620 N   0  0  0  0  0  0  0  0  0  0  0  0
  -24.6090  -15.9250   20.3370 H   0  0  0  0  0  0  0  0  0  0  0  0
  -26.2450  -15.7090   19.9620 H   0  0  0  0  0  0  0  0  0  0  0  0
  -28.7390  -23.3640   20.6520 C   0  0  0  0  0  2  0  0  0  0  0  0
  -28.2460  -24.7450   19.8290 C   0  0  0  0  0  2  0  0  0  0  0  0
  -28.2750  -26.2180   20.3120 O   0  0  0  0  0  0  0  0  0  0  0  0
  -24.6200  -31.8690   23.2290 C   0  0  0  0  0  0  0  0  0  0  0  0
  -27.1990  -27.1680   20.1940 C   0  0  0  0  0  0  0  0  0  0  0  0
  -23.4140  -30.4710   21.5970 C   0  0  0  0  0  3  0  0  0  0  0  0
  -24.8590  -28.9000   20.1620 C   0  0  0  0  0  0  0  0  0  0  0  0
  -25.9650  -30.7350   21.4270 C   0  0  0  0  0  2  0  0  0  0  0  0
  -26.0330  -29.3440   20.7810 C   0  0  0  0  0  0  0  0  0  0  0  0
  -27.1960  -28.4880   20.7920 C   0  0  0  0  0  3  0  0  0  0  0  0
  -26.0070  -26.8340   19.5090 C   0  0  0  0  0  3  0  0  0  0  0  0
  -24.8580  -27.6570   19.5120 C   0  0  0  0  0  3  0  0  0  0  0  0
  -23.6300  -29.7980   20.2160 C   0  0  0  0  0  2  0  0  0  0  0  0
  -24.6870  -31.0480   22.1390 N   0  0  0  0  0  0  0  0  0  0  0  0
  -23.5380  -32.1550   23.7600 O   0  0  0  0  0  0  0  0  0  0  0  0
  -22.7450  -29.4610   22.5600 C   0  0  0  0  0  0  0  0  0  0  0  0
  -21.4180  -29.2830   22.4310 N   0  0  0  0  0  0  0  0  0  0  0  0
  -23.4210  -28.8420   23.3860 O   0  0  0  0  0  0  0  0  0  0  0  0
  -20.9290  -29.8270   21.7340 H   0  0  0  0  0  0  0  0  0  0  0  0
  -18.0470  -28.0680   22.9340 C   0  0  0  0  0  0  0  0  0  0  0  0
  -20.6020  -28.3490   23.2080 C   0  0  0  0  0  3  0  0  0  0  0  0
  -20.7200  -26.9160   22.6450 C   0  0  0  0  0  2  0  0  0  0  0  0
  -19.6230  -26.5760   21.6290 C   0  0  0  0  0  2  0  0  0  0  0  0
  -18.2370  -26.7160   22.2670 C   0  0  0  0  0  2  0  0  0  0  0  0
  -19.1590  -28.8410   23.3620 C   0  0  0  0  0  0  0  0  0  0  0  0
  -18.9310  -30.1050   23.9470 C   0  0  0  0  0  3  0  0  0  0  0  0
  -17.6220  -30.5980   24.1120 C   0  0  0  0  0  3  0  0  0  0  0  0
  -16.5240  -29.8230   23.7020 C   0  0  0  0  0  3  0  0  0  0  0  0
  -16.7360  -28.5610   23.1170 C   0  0  0  0  0  3  0  0  0  0  0  0
  -25.9010  -32.5070   23.8500 C   0  0  0  0  0  3  0  0  0  0  0  0
  -25.5890  -33.9060   24.1820 N   0  0  0  0  0  0  0  0  0  0  0  0
  -25.9120  -34.9630   23.4240 C   0  0  0  0  0  0  0  0  0  0  0  0
  -26.5770  -34.8610   22.3880 O   0  0  0  0  0  0  0  0  0  0  0  0
  -24.9960  -34.0620   24.9850 H   0  0  0  0  0  0  0  0  0  0  0  0
  -24.1810  -36.7550   23.0860 C   0  0  0  0  0  1  0  0  0  0  0  0
  -25.4270  -36.3490   23.8880 C   0  0  0  0  0  3  0  0  0  0  0  0
  -27.5680  -37.2350   24.7050 C   0  0  0  0  0  1  0  0  0  0  0  0
  -26.4590  -37.4040   23.7700 N   0  0  0  0  0  0  0  0  0  0  0  0
  -26.0530  -38.3240   23.9210 H   0  0  0  0  0  0  0  0  0  0  0  0
  -26.4210  -31.7400   25.1280 C   0  0  1  0  0  0  0  0  0  0  0  0
  -25.3280  -31.5050   26.1970 C   0  0  0  0  0  1  0  0  0  0  0  0
  -27.0100  -30.3620   24.7500 C   0  0  0  0  0  1  0  0  0  0  0  0
  -27.5730  -32.5370   25.7830 C   0  0  0  0  0  1  0  0  0  0  0  0
  1  6  1  0
  1 48  1  0
  2  4  1  0
  3  4  1  0
  4  1  1  0
  4  5  1  6
  6  7  1  0
  6  8  2  0
  7  9  1  0
 10  7  1  0
 10 11  1  0
 12 11  1  0
 13 18  1  0
 14 15  1  0
 14 13  1  0
 16 15  1  0
 16 23  1  0
 16 17  1  0
 18 12  1  0
 18 17  1  0
 19 12  2  0
 20 21  2  0
 21 40  1  0
 22 21  1  0
 22 25  1  0
 23 20  1  0
 23 24  1  0
 24 22  2  0
 25 26  1  0
 26 27  2  0
 28 31  1  0
 28 27  1  0
 29 28  2  0
 30 29  1  0
 30 25  2  0
 31 32  1  0
 32 33  1  0
 33 34  2  0
 35 34  1  0
 35 39  1  0
 36 35  2  0
 37 32  2  0
 37 36  1  0
 38 37  1  0
 40 41  1  0
 41 44  1  0
 41 43  1  0
 42 40  2  0
 45 46  1  0
 45 20  1  0
 47 45  1  0
 49 50  1  0
 49 48  1  0
 51 62  2  0
 52 50  1  0
 52 57  1  0
 53 61  1  0
 53 63  1  0
 54 60  1  0
 54 56  1  0
 55 61  1  0
 56 57  2  0
 56 55  1  0
 58 59  1  0
 58 52  2  0
 59 54  2  0
 60 53  1  0
 61 51  1  0
 63 65  2  0
 64 63  1  0
 66 64  1  0
 67 76  2  0
 67 72  1  0
 68 64  1  0
 68 72  1  0
 69 68  1  0
 70 71  1  0
 70 69  1  0
 71 67  1  0
 72 73  2  0
 73 74  1  0
 75 74  2  0
 76 75  1  0
 77 51  1  0
 77 78  1  0
 77 87  1  0
 78 81  1  0
 79 83  1  0
 79 78  1  0
 80 79  2  0
 83 82  1  0
 85 83  1  0
 85 86  1  0
 85 84  1  0
 87 90  1  1
 87 88  1  0
 89 87  1  0
M  ISO  4  11 100  12 100  49 101  50 101
M  END
>  <TORSDO>  (30) 
F 22

>  <SCORE>  (30) 
-13.414

>  <name>  (30) 
29

>  <ligand_id>  (30) 
29

>  <original_smiles>  (30) 
[H]c1c([H])c([H])c2c(c1[H])C([H])([H])C([H])([H])C([H])([H])C2([H])N([H])C(=O)C1([H])N(C(=O)C([H])(N([H])C(=O)C([H])(N([H])C([H])([H])[H])C([H])([H])[H])C(C([H])([H])[H])(C([H])([H])[H])C([H])([H])[H])C([H])([H])c2c([H])c(OC([H])([H])C([H])([H])C([H])(C(=O)N([H])C([H])([H])C([H])([H])C(=O)N3C([H])([H])C([H])([H])C([H])([H])C([H])(n4nc(-c5c([H])c([H])c(Oc6c([H])c([H])c(F)c([H])c6F)c([H])c5[H])c(C(=O)N([H])[H])c4N([H])[H])C3([H])[H])[N+]([H])(C([H])([H])[H])C([H])([H])[H])c([H])c([H])c2C1([H])[H]

>  <smiles>  (30) 
[H]c1c([H])c([H])c2c(c1[H])C([H])([H])C([H])([H])C([H])([H])C2([H])N([H])C(=O)C1([H])N(C(=O)C([H])(N([H])C(=O)C([H])(N([H])C([H])([H])[H])C([H])([H])[H])C(C([H])([H])[H])(C([H])([H])[H])C([H])([H])[H])C([H])([H])c2c([H])c(OC([H])([H])C([H])([H])C([H])(C(=O)N([H])C([H])([H])C([H])([H])C(=O)N3C([H])([H])C([H])([H])C([H])([H])C([H])(n4nc(-c5c([H])c([H])c(Oc6c([H])c([H])c(F)c([H])c6F)c([H])c5[H])c(C(=O)N([H])[H])c4N([H])[H])C3([H])[H])[N+]([H])(C([H])([H])[H])C([H])([H])[H])c([H])c([H])c2C1([H])[H]

$$$$
30:0:0
     RDKit          3D

 89 99  0  0  1  0  0  0  0  0999 V2000
  -27.2820  -22.8150   19.9870 C   0  0  0  0  0  2  0  0  0  0  0  0
  -29.2560  -20.8130   19.4350 C   0  0  0  0  0  3  0  0  0  0  0  0
  -27.9110  -21.6270   19.0570 C   0  0  1  0  0  0  0  0  0  0  0  0
  -29.4430  -22.6430   19.5320 C   0  0  1  0  0  0  0  0  0  0  0  0
  -28.4010  -23.9390   20.1670 C   0  0  0  0  0  3  0  0  0  0  0  0
  -28.8430  -22.4840   18.0890 C   0  0  2  0  0  0  0  0  0  0  0  0
  -28.1630  -23.6760   17.3530 C   0  0  0  0  0  1  0  0  0  0  0  0
  -29.7840  -21.9660   16.9470 C   0  0  0  0  0  1  0  0  0  0  0  0
  -29.6650  -19.1510   20.2480 C   0  0  0  0  0  0  0  0  0  0  0  0
  -30.2260  -20.5480   22.0680 C   0  0  0  0  0  1  0  0  0  0  0  0
  -30.1030  -19.2430   21.4430 N   0  0  0  0  0  0  0  0  0  0  0  0
  -29.5450  -17.3240   19.7390 C   0  0  0  0  0  2  0  0  0  0  0  0
  -30.4170  -15.6770   19.8460 C   0  0  0  0  0  0  0  0  0  0  0  0
  -30.4680  -13.1370   19.0210 C   0  0  0  0  0  2  0  0  0  0  0  0
  -29.4950  -12.7960   17.8550 C   0  0  0  0  0  2  0  0  0  0  0  0
  -28.0940  -12.4540   18.3860 C   0  0  0  0  0  2  0  0  0  0  0  0
  -27.6620  -13.4450   19.4900 C   0  0  0  0  0  3  0  0  0  0  0  0
  -28.7590  -13.7080   20.5430 C   0  0  0  0  0  2  0  0  0  0  0  0
  -29.9180  -14.3040   19.8400 N   0  0  0  0  0  0  0  0  0  0  0  0
  -31.6450  -15.6180   19.6400 O   0  0  0  0  0  0  0  0  0  0  0  0
  -25.3720  -13.9820   20.4480 C   0  0  0  0  0  0  0  0  0  0  0  0
  -24.3290  -13.2040   20.8610 C   0  0  0  0  0  0  0  0  0  0  0  0
  -24.7750  -11.8510   20.7490 C   0  0  0  0  0  0  0  0  0  0  0  0
  -26.3800  -13.1070   20.0930 N   0  0  0  0  0  0  0  0  0  0  0  0
  -26.0420  -11.8140   20.3430 N   0  0  0  0  0  0  0  0  0  0  0  0
  -24.0430  -10.5910   20.9440 C   0  0  0  0  0  0  0  0  0  0  0  0
  -24.4980   -9.6020   21.8420 C   0  0  0  0  0  3  0  0  0  0  0  0
  -23.7630   -8.4110   22.0290 C   0  0  0  0  0  3  0  0  0  0  0  0
  -22.5580   -8.2010   21.3150 C   0  0  0  0  0  0  0  0  0  0  0  0
  -22.1230   -9.1780   20.4040 C   0  0  0  0  0  3  0  0  0  0  0  0
  -22.8580  -10.3600   20.2160 C   0  0  0  0  0  3  0  0  0  0  0  0
  -21.7930   -7.0640   21.4120 O   0  0  0  0  0  0  0  0  0  0  0  0
  -21.7480   -6.3230   22.5660 C   0  0  0  0  0  0  0  0  0  0  0  0
  -21.3280   -6.8790   23.7940 C   0  0  0  0  0  3  0  0  0  0  0  0
  -21.2300   -6.0640   24.9400 C   0  0  0  0  0  3  0  0  0  0  0  0
  -21.5410   -4.6940   24.8580 C   0  0  0  0  0  0  0  0  0  0  0  0
  -21.9550   -4.1370   23.6340 C   0  0  0  0  0  3  0  0  0  0  0  0
  -22.0540   -4.9490   22.4920 C   0  0  0  0  0  0  0  0  0  0  0  0
  -22.4330   -4.4040   21.3110 F   0  0  0  0  0  0  0  0  0  0  0  0
  -21.4390   -3.9090   25.9550 F   0  0  0  0  0  0  0  0  0  0  0  0
  -22.9600  -13.6900   21.2390 C   0  0  0  0  0  0  0  0  0  0  0  0
  -22.2880  -12.9830   22.1410 N   0  0  0  0  0  0  0  0  0  0  0  0
  -22.5000  -14.7290   20.7700 O   0  0  0  0  0  0  0  0  0  0  0  0
  -22.6770  -12.1420   22.5400 H   0  0  0  0  0  0  0  0  0  0  0  0
  -21.3720  -13.2890   22.4380 H   0  0  0  0  0  0  0  0  0  0  0  0
  -25.5400  -15.3570   20.3110 N   0  0  0  0  0  0  0  0  0  0  0  0
  -24.7920  -16.0130   20.5060 H   0  0  0  0  0  0  0  0  0  0  0  0
  -26.3710  -15.8010   19.9410 H   0  0  0  0  0  0  0  0  0  0  0  0
  -28.2920  -25.6640   19.8640 O   0  0  0  0  0  0  0  0  0  0  0  0
  -24.5850  -31.7090   23.0070 C   0  0  0  0  0  0  0  0  0  0  0  0
  -27.2340  -26.7830   19.9310 C   0  0  0  0  0  0  0  0  0  0  0  0
  -23.4160  -30.2920   21.3750 C   0  0  0  0  0  3  0  0  0  0  0  0
  -24.8920  -28.7100   19.9270 C   0  0  0  0  0  0  0  0  0  0  0  0
  -25.9840  -30.5350   21.2050 C   0  0  0  0  0  2  0  0  0  0  0  0
  -26.0850  -29.1130   20.5390 C   0  0  0  0  0  0  0  0  0  0  0  0
  -27.2430  -28.1810   20.5020 C   0  0  0  0  0  3  0  0  0  0  0  0
  -25.9970  -26.5750   19.2750 C   0  0  0  0  0  3  0  0  0  0  0  0
  -24.8810  -27.4650   19.2740 C   0  0  0  0  0  3  0  0  0  0  0  0
  -23.6550  -29.6180   19.9940 C   0  0  0  0  0  2  0  0  0  0  0  0
  -24.6860  -30.8760   21.9160 N   0  0  0  0  0  0  0  0  0  0  0  0
  -23.4910  -31.9660   23.5400 O   0  0  0  0  0  0  0  0  0  0  0  0
  -22.7530  -29.2770   22.3440 C   0  0  0  0  0  0  0  0  0  0  0  0
  -21.4270  -29.0720   22.2340 N   0  0  0  0  0  0  0  0  0  0  0  0
  -23.4440  -28.6720   23.1690 O   0  0  0  0  0  0  0  0  0  0  0  0
  -20.9170  -29.6100   21.5470 H   0  0  0  0  0  0  0  0  0  0  0  0
  -18.1040  -27.7000   22.7500 C   0  0  0  0  0  0  0  0  0  0  0  0
  -20.6470  -28.0970   23.0080 C   0  0  0  0  0  3  0  0  0  0  0  0
  -20.8200  -26.6700   22.4400 C   0  0  0  0  0  2  0  0  0  0  0  0
  -19.7360  -26.2890   21.4260 C   0  0  0  0  0  2  0  0  0  0  0  0
  -18.3490  -26.3630   22.0710 C   0  0  0  0  0  2  0  0  0  0  0  0
  -19.1830  -28.5210   23.1760 C   0  0  0  0  0  0  0  0  0  0  0  0
  -18.8970  -29.7660   23.7770 C   0  0  0  0  0  3  0  0  0  0  0  0
  -17.5680  -30.1950   23.9510 C   0  0  0  0  0  3  0  0  0  0  0  0
  -16.5050  -29.3730   23.5380 C   0  0  0  0  0  3  0  0  0  0  0  0
  -16.7740  -28.1270   22.9440 C   0  0  0  0  0  3  0  0  0  0  0  0
  -25.8370  -32.3940   23.6350 C   0  0  0  0  0  3  0  0  0  0  0  0
  -25.4660  -33.7740   24.0080 N   0  0  0  0  0  0  0  0  0  0  0  0
  -25.7770  -34.8740   23.3060 C   0  0  0  0  0  0  0  0  0  0  0  0
  -26.4630  -34.8350   22.2820 O   0  0  0  0  0  0  0  0  0  0  0  0
  -24.8530  -33.8750   24.8040 H   0  0  0  0  0  0  0  0  0  0  0  0
  -24.0080  -36.6440   23.0060 C   0  0  0  0  0  1  0  0  0  0  0  0
  -25.2460  -36.2290   23.8190 C   0  0  0  0  0  3  0  0  0  0  0  0
  -27.3390  -37.1360   24.7310 C   0  0  0  0  0  1  0  0  0  0  0  0
  -26.2520  -37.3140   23.7730 N   0  0  0  0  0  0  0  0  0  0  0  0
  -25.8170  -38.2160   23.9480 H   0  0  0  0  0  0  0  0  0  0  0  0
  -26.3910  -31.6280   24.9000 C   0  0  1  0  0  0  0  0  0  0  0  0
  -25.3190  -31.3450   25.9790 C   0  0  0  0  0  1  0  0  0  0  0  0
  -27.0140  -30.2730   24.4980 C   0  0  0  0  0  1  0  0  0  0  0  0
  -27.5230  -32.4530   25.5570 C   0  0  0  0  0  1  0  0  0  0  0  0
  1  5  1  0
  4  2  1  6
  2  9  1  0
  3  2  1  0
  3  4  1  0
  3  1  1  1
  4  6  1  0
  4  5  1  0
  5 49  1  0
  6  3  1  0
  6  7  1  6
  8  6  1  0
  9 11  2  0
 11 10  1  0
 12 13  1  0
 12  9  1  0
 14 19  1  0
 15 16  1  0
 15 14  1  0
 17 16  1  0
 17 24  1  0
 17 18  1  0
 19 13  1  0
 19 18  1  0
 20 13  2  0
 21 22  2  0
 22 41  1  0
 23 22  1  0
 23 26  1  0
 24 25  1  0
 24 21  1  0
 25 23  2  0
 26 27  1  0
 27 28  2  0
 29 32  1  0
 29 28  1  0
 30 29  2  0
 31 30  1  0
 31 26  2  0
 32 33  1  0
 33 34  1  0
 34 35  2  0
 36 35  1  0
 36 40  1  0
 37 36  2  0
 38 33  2  0
 38 37  1  0
 39 38  1  0
 41 42  1  0
 42 45  1  0
 42 44  1  0
 43 41  2  0
 46 21  1  0
 46 47  1  0
 48 46  1  0
 49 51  1  0
 50 61  2  0
 51 56  1  0
 52 60  1  0
 52 62  1  0
 53 59  1  0
 53 55  1  0
 54 60  1  0
 55 54  1  0
 56 55  2  0
 57 51  2  0
 58 57  1  0
 58 53  2  0
 59 52  1  0
 60 50  1  0
 62 64  2  0
 63 62  1  0
 65 63  1  0
 66 75  2  0
 66 71  1  0
 67 63  1  0
 67 71  1  0
 68 67  1  0
 69 70  1  0
 69 68  1  0
 70 66  1  0
 71 72  2  0
 72 73  1  0
 74 73  2  0
 75 74  1  0
 76 50  1  0
 76 77  1  0
 76 86  1  0
 77 80  1  0
 78 82  1  0
 78 77  1  0
 79 78  2  0
 82 81  1  0
 84 82  1  0
 84 85  1  0
 84 83  1  0
 86 89  1  1
 86 87  1  0
 88 86  1  0
M  ISO  4   5 101  12 100  13 100  49 101
M  END
>  <TORSDO>  (31) 
F 18

>  <SCORE>  (31) 
-16.085

>  <name>  (31) 
30

>  <ligand_id>  (31) 
30

>  <original_smiles>  (31) 
[H]c1c([H])c([H])c2c(c1[H])C([H])([H])C([H])([H])C([H])([H])C2([H])N([H])C(=O)C1([H])N(C(=O)C([H])(N([H])C(=O)C([H])(N([H])C([H])([H])[H])C([H])([H])[H])C(C([H])([H])[H])(C([H])([H])[H])C([H])([H])[H])C([H])([H])c2c([H])c(OC3([H])C([H])([H])C4([H])C([H])(C(=NC([H])([H])[H])C([H])([H])C(=O)N5C([H])([H])C([H])([H])C([H])([H])C([H])(n6nc(-c7c([H])c([H])c(Oc8c([H])c([H])c(F)c([H])c8F)c([H])c7[H])c(C(=O)N([H])[H])c6N([H])[H])C5([H])[H])C3([H])C4(C([H])([H])[H])C([H])([H])[H])c([H])c([H])c2C1([H])[H]

>  <smiles>  (31) 
[H]c1c([H])c([H])c2c(c1[H])C([H])([H])C([H])([H])C([H])([H])C2([H])N([H])C(=O)C1([H])N(C(=O)C([H])(N([H])C(=O)C([H])(N([H])C([H])([H])[H])C([H])([H])[H])C(C([H])([H])[H])(C([H])([H])[H])C([H])([H])[H])C([H])([H])c2c([H])c(OC3([H])C([H])([H])C4([H])C([H])(C(=NC([H])([H])[H])C([H])([H])C(=O)N5C([H])([H])C([H])([H])C([H])([H])C([H])(n6nc(-c7c([H])c([H])c(Oc8c([H])c([H])c(F)c([H])c8F)c([H])c7[H])c(C(=O)N([H])[H])c6N([H])[H])C5([H])[H])C3([H])C4(C([H])([H])[H])C([H])([H])[H])c([H])c([H])c2C1([H])[H]

$$$$
31:0:0
     RDKit          3D

 82 89  0  0  1  0  0  0  0  0999 V2000
  -28.1720  -25.5710   20.2770 O   0  0  0  0  0  0  0  0  0  0  0  0
  -24.6880  -31.8580   23.1840 C   0  0  0  0  0  0  0  0  0  0  0  0
  -27.1940  -26.7720   20.2210 C   0  0  0  0  0  0  0  0  0  0  0  0
  -23.4920  -30.4560   21.5590 C   0  0  0  0  0  3  0  0  0  0  0  0
  -24.9290  -28.7960   20.1540 C   0  0  0  0  0  0  0  0  0  0  0  0
  -26.0690  -30.5950   21.4280 C   0  0  0  0  0  2  0  0  0  0  0  0
  -26.1270  -29.1590   20.7800 C   0  0  0  0  0  0  0  0  0  0  0  0
  -27.2450  -28.1750   20.7800 C   0  0  0  0  0  3  0  0  0  0  0  0
  -25.9620  -26.6120   19.5400 C   0  0  0  0  0  3  0  0  0  0  0  0
  -24.8840  -27.5480   19.5100 C   0  0  0  0  0  3  0  0  0  0  0  0
  -23.7240  -29.7500   20.1920 C   0  0  0  0  0  2  0  0  0  0  0  0
  -24.7730  -31.0030   22.1100 N   0  0  0  0  0  0  0  0  0  0  0  0
  -23.5980  -32.1650   23.6970 O   0  0  0  0  0  0  0  0  0  0  0  0
  -22.7750  -29.4850   22.5380 C   0  0  0  0  0  0  0  0  0  0  0  0
  -21.4410  -29.3400   22.4220 N   0  0  0  0  0  0  0  0  0  0  0  0
  -23.4320  -28.8600   23.3740 O   0  0  0  0  0  0  0  0  0  0  0  0
  -20.9610  -29.8930   21.7260 H   0  0  0  0  0  0  0  0  0  0  0  0
  -18.0490  -28.1530   22.9560 C   0  0  0  0  0  0  0  0  0  0  0  0
  -20.6120  -28.4130   23.2030 C   0  0  0  0  0  3  0  0  0  0  0  0
  -20.7020  -26.9760   22.6370 C   0  0  0  0  0  2  0  0  0  0  0  0
  -19.5950  -26.6520   21.6300 C   0  0  0  0  0  2  0  0  0  0  0  0
  -18.2170  -26.8030   22.2800 C   0  0  0  0  0  2  0  0  0  0  0  0
  -19.1720  -28.9160   23.3740 C   0  0  0  0  0  0  0  0  0  0  0  0
  -18.9570  -30.1770   23.9720 C   0  0  0  0  0  3  0  0  0  0  0  0
  -17.6530  -30.6760   24.1510 C   0  0  0  0  0  3  0  0  0  0  0  0
  -16.5450  -29.9130   23.7450 C   0  0  0  0  0  3  0  0  0  0  0  0
  -16.7440  -28.6520   23.1540 C   0  0  0  0  0  3  0  0  0  0  0  0
  -25.9560  -32.5070   23.8190 C   0  0  0  0  0  3  0  0  0  0  0  0
  -26.4680  -31.7380   25.0990 C   0  0  1  0  0  0  0  0  0  0  0  0
  -25.3740  -31.5060   26.1680 C   0  0  0  0  0  1  0  0  0  0  0  0
  -27.0500  -30.3580   24.7230 C   0  0  0  0  0  1  0  0  0  0  0  0
  -27.6200  -32.5320   25.7610 C   0  0  0  0  0  1  0  0  0  0  0  0
  -25.6300  -33.9040   24.1710 N   0  0  0  0  0  0  0  0  0  0  0  0
  -25.9320  -34.9780   23.4290 C   0  0  0  0  0  0  0  0  0  0  0  0
  -26.5720  -34.8990   22.3780 O   0  0  0  0  0  0  0  0  0  0  0  0
  -25.0560  -34.0370   24.9900 H   0  0  0  0  0  0  0  0  0  0  0  0
  -24.1700  -36.7630   23.1900 C   0  0  0  0  0  1  0  0  0  0  0  0
  -25.4550  -36.3580   23.9300 C   0  0  0  0  0  3  0  0  0  0  0  0
  -27.6160  -37.2660   24.6650 C   0  0  0  0  0  1  0  0  0  0  0  0
  -26.4670  -37.4270   23.7770 N   0  0  0  0  0  0  0  0  0  0  0  0
  -26.0570  -38.3400   23.9510 H   0  0  0  0  0  0  0  0  0  0  0  0
  -27.9780  -23.8280   20.1960 C   0  0  0  0  0  3  0  0  0  0  0  0
  -28.9680  -22.1620   20.2680 C   0  0  0  0  0  3  0  0  0  0  0  0
  -28.6980  -20.2450   20.2540 C   0  0  0  0  0  2  0  0  0  0  0  0
  -29.4430  -17.1250   20.2970 C   0  0  0  0  0  3  0  0  0  0  0  0
  -29.6460  -18.6480   20.2070 C   0  0  0  0  0  3  0  0  0  0  0  0
  -30.3040  -15.6500   20.1910 C   0  0  0  0  0  0  0  0  0  0  0  0
  -30.4190  -13.1060   19.3910 C   0  0  0  0  0  2  0  0  0  0  0  0
  -29.5360  -12.7380   18.1630 C   0  0  0  0  0  2  0  0  0  0  0  0
  -28.1060  -12.3840   18.5990 C   0  0  0  0  0  2  0  0  0  0  0  0
  -27.5890  -13.3710   19.6700 C   0  0  0  0  0  3  0  0  0  0  0  0
  -28.6090  -13.6680   20.7910 C   0  0  0  0  0  2  0  0  0  0  0  0
  -29.8020  -14.2760   20.1630 N   0  0  0  0  0  0  0  0  0  0  0  0
  -31.5320  -15.5890   19.9910 O   0  0  0  0  0  0  0  0  0  0  0  0
  -25.2140  -13.8690   20.4190 C   0  0  0  0  0  0  0  0  0  0  0  0
  -24.1670  -13.0740   20.7880 C   0  0  0  0  0  0  0  0  0  0  0  0
  -24.6620  -11.7330   20.7740 C   0  0  0  0  0  0  0  0  0  0  0  0
  -26.2750  -13.0150   20.1860 N   0  0  0  0  0  0  0  0  0  0  0  0
  -25.9570  -11.7230   20.4690 N   0  0  0  0  0  0  0  0  0  0  0  0
  -23.9560  -10.4600   20.9720 C   0  0  0  0  0  0  0  0  0  0  0  0
  -24.3920   -9.5090   21.9210 C   0  0  0  0  0  3  0  0  0  0  0  0
  -23.6810   -8.3040   22.1080 C   0  0  0  0  0  3  0  0  0  0  0  0
  -22.5180   -8.0410   21.3470 C   0  0  0  0  0  0  0  0  0  0  0  0
  -22.0990   -8.9790   20.3870 C   0  0  0  0  0  3  0  0  0  0  0  0
  -22.8110  -10.1760   20.1990 C   0  0  0  0  0  3  0  0  0  0  0  0
  -21.7780   -6.8860   21.4420 O   0  0  0  0  0  0  0  0  0  0  0  0
  -21.7250   -6.1580   22.6050 C   0  0  0  0  0  0  0  0  0  0  0  0
  -21.2760   -6.7240   23.8180 C   0  0  0  0  0  3  0  0  0  0  0  0
  -21.1720   -5.9230   24.9720 C   0  0  0  0  0  3  0  0  0  0  0  0
  -21.5050   -4.5570   24.9140 C   0  0  0  0  0  0  0  0  0  0  0  0
  -21.9470   -3.9900   23.7050 C   0  0  0  0  0  3  0  0  0  0  0  0
  -22.0530   -4.7890   22.5530 C   0  0  0  0  0  0  0  0  0  0  0  0
  -22.4580   -4.2330   21.3860 F   0  0  0  0  0  0  0  0  0  0  0  0
  -21.3990   -3.7850   26.0200 F   0  0  0  0  0  0  0  0  0  0  0  0
  -22.7590  -13.5280   21.0380 C   0  0  0  0  0  0  0  0  0  0  0  0
  -22.0370  -12.8340   21.9090 N   0  0  0  0  0  0  0  0  0  0  0  0
  -22.3090  -14.5360   20.4940 O   0  0  0  0  0  0  0  0  0  0  0  0
  -22.4160  -12.0210   22.3710 H   0  0  0  0  0  0  0  0  0  0  0  0
  -21.0920  -13.1220   22.1200 H   0  0  0  0  0  0  0  0  0  0  0  0
  -25.3500  -15.2420   20.2290 N   0  0  0  0  0  0  0  0  0  0  0  0
  -24.5700  -15.8810   20.3330 H   0  0  0  0  0  0  0  0  0  0  0  0
  -26.1890  -15.6930   19.8900 H   0  0  0  0  0  0  0  0  0  0  0  0
  2 13  2  0
  3  1  1  0
  3  8  1  0
  4 12  1  0
  4 14  1  0
  5 11  1  0
  5  7  1  0
  6 12  1  0
  7  6  1  0
  8  7  2  0
  9  3  2  0
 10  9  1  0
 10  5  2  0
 11  4  1  0
 12  2  1  0
 14 16  2  0
 15 14  1  0
 17 15  1  0
 18 27  2  0
 18 23  1  0
 19 15  1  0
 19 23  1  0
 20 19  1  0
 21 22  1  0
 21 20  1  0
 22 18  1  0
 23 24  2  0
 24 25  1  0
 26 25  2  0
 27 26  1  0
 28  2  1  0
 28 33  1  0
 28 29  1  0
 29 32  1  1
 29 30  1  0
 31 29  1  0
 33 36  1  0
 34 38  1  0
 34 33  1  0
 35 34  2  0
 38 37  1  0
 40 38  1  0
 40 41  1  0
 40 39  1  0
 42 43  2  0
 42  1  1  0
 44 43  1  0
 46 44  1  0
 46 45  2  0
 47 45  1  0
 48 53  1  0
 49 50  1  0
 49 48  1  0
 51 50  1  0
 51 58  1  0
 51 52  1  0
 53 47  1  0
 53 52  1  0
 54 47  2  0
 55 56  2  0
 56 75  1  0
 57 56  1  0
 57 60  1  0
 58 55  1  0
 58 59  1  0
 59 57  2  0
 60 61  1  0
 61 62  2  0
 63 66  1  0
 63 62  1  0
 64 63  2  0
 65 64  1  0
 65 60  2  0
 66 67  1  0
 67 68  1  0
 68 69  2  0
 70 69  1  0
 70 74  1  0
 71 70  2  0
 72 67  2  0
 72 71  1  0
 73 72  1  0
 75 76  1  0
 76 79  1  0
 76 78  1  0
 77 75  2  0
 80 81  1  0
 80 55  1  0
 82 80  1  0
M  ISO  4   1 101  42 101  45 100  47 100
M  END
>  <TORSDO>  (32) 
F 19

>  <SCORE>  (32) 
-16.177

>  <name>  (32) 
31

>  <ligand_id>  (32) 
31

>  <original_smiles>  (32) 
[H]C(C(=O)N1C([H])([H])C([H])([H])C([H])([H])C([H])(n2nc(-c3c([H])c([H])c(Oc4c([H])c([H])c(F)c([H])c4F)c([H])c3[H])c(C(=O)N([H])[H])c2N([H])[H])C1([H])[H])=C([H])C([H])([H])C([H])([H])C([H])([H])Oc1c([H])c([H])c2c(c1[H])C([H])([H])N(C(=O)C([H])(N([H])C(=O)C([H])(N([H])C([H])([H])[H])C([H])([H])[H])C(C([H])([H])[H])(C([H])([H])[H])C([H])([H])[H])C([H])(C(=O)N([H])C1([H])c3c([H])c([H])c([H])c([H])c3C([H])([H])C([H])([H])C1([H])[H])C2([H])[H]

>  <smiles>  (32) 
[H]C(C(=O)N1C([H])([H])C([H])([H])C([H])([H])C([H])(n2nc(-c3c([H])c([H])c(Oc4c([H])c([H])c(F)c([H])c4F)c([H])c3[H])c(C(=O)N([H])[H])c2N([H])[H])C1([H])[H])=C([H])C([H])([H])C([H])([H])C([H])([H])Oc1c([H])c([H])c2c(c1[H])C([H])([H])N(C(=O)C([H])(N([H])C(=O)C([H])(N([H])C([H])([H])[H])C([H])([H])[H])C(C([H])([H])[H])(C([H])([H])[H])C([H])([H])[H])C([H])(C(=O)N([H])C1([H])c3c([H])c([H])c([H])c([H])c3C([H])([H])C([H])([H])C1([H])[H])C2([H])[H]

$$$$
32:0:0
     RDKit          3D

 84 92  0  0  1  0  0  0  0  0999 V2000
  -28.8930  -21.9460   19.0630 C   0  0  0  0  0  2  0  0  0  0  0  0
  -28.7210  -21.0810   20.2900 C   0  0  0  0  0  3  0  0  0  0  0  0
  -28.9180  -22.8570   20.2680 C   0  0  0  0  0  3  0  0  0  0  0  0
  -29.6700  -19.5870   20.3180 C   0  0  0  0  0  2  0  0  0  0  0  0
  -29.3690  -16.5090   20.5230 C   0  0  0  0  0  3  0  0  0  0  0  0
  -29.1370  -17.9710   20.5380 C   0  0  0  0  0  3  0  0  0  0  0  0
  -30.3490  -15.2550   20.2670 C   0  0  0  0  0  0  0  0  0  0  0  0
  -30.3730  -12.8300   19.3470 C   0  0  0  0  0  2  0  0  0  0  0  0
  -29.4240  -12.6850   18.1260 C   0  0  0  0  0  2  0  0  0  0  0  0
  -27.9740  -12.4140   18.5720 C   0  0  0  0  0  2  0  0  0  0  0  0
  -27.5490  -13.3380   19.7390 C   0  0  0  0  0  3  0  0  0  0  0  0
  -28.6160  -13.3990   20.8520 C   0  0  0  0  0  2  0  0  0  0  0  0
  -29.8500  -13.9230   20.2400 N   0  0  0  0  0  0  0  0  0  0  0  0
  -31.5510  -15.3280   19.9690 O   0  0  0  0  0  0  0  0  0  0  0  0
  -25.1780  -13.8860   20.5140 C   0  0  0  0  0  0  0  0  0  0  0  0
  -24.1240  -13.1020   20.8930 C   0  0  0  0  0  0  0  0  0  0  0  0
  -24.5990  -11.7540   20.8510 C   0  0  0  0  0  0  0  0  0  0  0  0
  -26.2240  -13.0170   20.2550 N   0  0  0  0  0  0  0  0  0  0  0  0
  -25.8870  -11.7290   20.5250 N   0  0  0  0  0  0  0  0  0  0  0  0
  -23.8810  -10.4870   21.0430 C   0  0  0  0  0  0  0  0  0  0  0  0
  -24.3310   -9.5150   21.9620 C   0  0  0  0  0  3  0  0  0  0  0  0
  -23.6110   -8.3130   22.1430 C   0  0  0  0  0  3  0  0  0  0  0  0
  -22.4270   -8.0770   21.4060 C   0  0  0  0  0  0  0  0  0  0  0  0
  -21.9950   -9.0390   20.4760 C   0  0  0  0  0  3  0  0  0  0  0  0
  -22.7160  -10.2300   20.2920 C   0  0  0  0  0  3  0  0  0  0  0  0
  -21.6770   -6.9290   21.4970 O   0  0  0  0  0  0  0  0  0  0  0  0
  -21.6540   -6.1750   22.6430 C   0  0  0  0  0  0  0  0  0  0  0  0
  -21.2470   -6.7140   23.8820 C   0  0  0  0  0  3  0  0  0  0  0  0
  -21.1700   -5.8860   25.0210 C   0  0  0  0  0  3  0  0  0  0  0  0
  -21.4890   -4.5200   24.9200 C   0  0  0  0  0  0  0  0  0  0  0  0
  -21.8900   -3.9790   23.6860 C   0  0  0  0  0  3  0  0  0  0  0  0
  -21.9680   -4.8040   22.5490 C   0  0  0  0  0  0  0  0  0  0  0  0
  -22.3340   -4.2730   21.3580 F   0  0  0  0  0  0  0  0  0  0  0  0
  -21.4090   -3.7220   26.0110 F   0  0  0  0  0  0  0  0  0  0  0  0
  -22.7260  -13.5700   21.1760 C   0  0  0  0  0  0  0  0  0  0  0  0
  -22.0130  -12.8710   22.0530 N   0  0  0  0  0  0  0  0  0  0  0  0
  -22.2770  -14.5900   20.6570 O   0  0  0  0  0  0  0  0  0  0  0  0
  -22.3900  -12.0460   22.4950 H   0  0  0  0  0  0  0  0  0  0  0  0
  -21.0760  -13.1660   22.2850 H   0  0  0  0  0  0  0  0  0  0  0  0
  -25.3300  -15.2590   20.3410 N   0  0  0  0  0  0  0  0  0  0  0  0
  -24.5570  -15.9050   20.4620 H   0  0  0  0  0  0  0  0  0  0  0  0
  -26.1620  -15.7030   19.9770 H   0  0  0  0  0  0  0  0  0  0  0  0
  -27.9340  -24.3240   20.1690 C   0  0  0  0  0  2  0  0  0  0  0  0
  -28.2000  -25.9350   20.2600 O   0  0  0  0  0  0  0  0  0  0  0  0
  -24.6470  -31.8710   23.2280 C   0  0  0  0  0  0  0  0  0  0  0  0
  -27.1760  -27.0090   20.2080 C   0  0  0  0  0  0  0  0  0  0  0  0
  -23.4380  -30.4770   21.5990 C   0  0  0  0  0  3  0  0  0  0  0  0
  -24.8730  -28.8690   20.1730 C   0  0  0  0  0  0  0  0  0  0  0  0
  -26.0030  -30.6900   21.4340 C   0  0  0  0  0  2  0  0  0  0  0  0
  -26.0660  -29.2820   20.7810 C   0  0  0  0  0  0  0  0  0  0  0  0
  -27.2130  -28.3730   20.7730 C   0  0  0  0  0  3  0  0  0  0  0  0
  -25.9510  -26.7390   19.5570 C   0  0  0  0  0  3  0  0  0  0  0  0
  -24.8390  -27.6160   19.5410 C   0  0  0  0  0  3  0  0  0  0  0  0
  -23.6560  -29.7900   20.2240 C   0  0  0  0  0  2  0  0  0  0  0  0
  -24.7180  -31.0390   22.1410 N   0  0  0  0  0  0  0  0  0  0  0  0
  -23.5620  -32.1650   23.7560 O   0  0  0  0  0  0  0  0  0  0  0  0
  -22.7480  -29.4840   22.5710 C   0  0  0  0  0  0  0  0  0  0  0  0
  -21.4160  -29.3240   22.4530 N   0  0  0  0  0  0  0  0  0  0  0  0
  -23.4170  -28.8590   23.3970 O   0  0  0  0  0  0  0  0  0  0  0  0
  -20.9310  -29.8790   21.7630 H   0  0  0  0  0  0  0  0  0  0  0  0
  -18.0340  -28.1210   22.9740 C   0  0  0  0  0  0  0  0  0  0  0  0
  -20.5940  -28.3910   23.2320 C   0  0  0  0  0  3  0  0  0  0  0  0
  -20.6960  -26.9540   22.6660 C   0  0  0  0  0  2  0  0  0  0  0  0
  -19.5920  -26.6250   21.6550 C   0  0  0  0  0  2  0  0  0  0  0  0
  -18.2110  -26.7700   22.3020 C   0  0  0  0  0  2  0  0  0  0  0  0
  -19.1520  -28.8890   23.3960 C   0  0  0  0  0  0  0  0  0  0  0  0
  -18.9300  -30.1510   23.9880 C   0  0  0  0  0  3  0  0  0  0  0  0
  -17.6250  -30.6470   24.1600 C   0  0  0  0  0  3  0  0  0  0  0  0
  -16.5210  -29.8780   23.7510 C   0  0  0  0  0  3  0  0  0  0  0  0
  -16.7270  -28.6160   23.1650 C   0  0  0  0  0  3  0  0  0  0  0  0
  -25.9250  -32.5100   23.8520 C   0  0  0  0  0  3  0  0  0  0  0  0
  -26.4390  -31.7410   25.1320 C   0  0  1  0  0  0  0  0  0  0  0  0
  -25.3470  -31.5130   26.2030 C   0  0  0  0  0  1  0  0  0  0  0  0
  -27.0160  -30.3580   24.7510 C   0  0  0  0  0  1  0  0  0  0  0  0
  -27.5950  -32.5320   25.7890 C   0  0  0  0  0  1  0  0  0  0  0  0
  -25.6120  -33.9090   24.1920 N   0  0  0  0  0  0  0  0  0  0  0  0
  -25.9260  -34.9710   23.4390 C   0  0  0  0  0  0  0  0  0  0  0  0
  -26.5710  -34.8760   22.3910 O   0  0  0  0  0  0  0  0  0  0  0  0
  -25.0350  -34.0560   25.0070 H   0  0  0  0  0  0  0  0  0  0  0  0
  -24.1790  -36.7630   23.1570 C   0  0  0  0  0  1  0  0  0  0  0  0
  -25.4510  -36.3570   23.9190 C   0  0  0  0  0  3  0  0  0  0  0  0
  -27.6100  -37.2520   24.6770 C   0  0  0  0  0  1  0  0  0  0  0  0
  -26.4740  -37.4160   23.7720 N   0  0  0  0  0  0  0  0  0  0  0  0
  -26.0690  -38.3340   23.9350 H   0  0  0  0  0  0  0  0  0  0  0  0
  1  3  1  0
  1  2  1  0
  2  4  1  0
  3 43  1  0
  3  2  1  0
  4  6  1  0
  5  6  2  0
  7  5  1  0
  8 13  1  0
  9 10  1  0
  9  8  1  0
 11 10  1  0
 11 18  1  0
 11 12  1  0
 13  7  1  0
 13 12  1  0
 14  7  2  0
 15 16  2  0
 16 35  1  0
 17 16  1  0
 17 20  1  0
 18 15  1  0
 18 19  1  0
 19 17  2  0
 20 21  1  0
 21 22  2  0
 23 26  1  0
 23 22  1  0
 24 23  2  0
 25 24  1  0
 25 20  2  0
 26 27  1  0
 27 28  1  0
 28 29  2  0
 30 29  1  0
 30 34  1  0
 31 30  2  0
 32 27  2  0
 32 31  1  0
 33 32  1  0
 35 36  1  0
 36 39  1  0
 36 38  1  0
 37 35  2  0
 40 41  1  0
 40 15  1  0
 42 40  1  0
 43 44  1  0
 45 56  2  0
 46 44  1  0
 46 51  1  0
 47 55  1  0
 47 57  1  0
 48 54  1  0
 48 50  1  0
 49 55  1  0
 50 49  1  0
 51 50  2  0
 52 46  2  0
 53 52  1  0
 53 48  2  0
 54 47  1  0
 55 45  1  0
 57 59  2  0
 58 57  1  0
 60 58  1  0
 61 70  2  0
 61 66  1  0
 62 58  1  0
 62 66  1  0
 63 62  1  0
 64 65  1  0
 64 63  1  0
 65 61  1  0
 66 67  2  0
 67 68  1  0
 69 68  2  0
 70 69  1  0
 71 45  1  0
 71 76  1  0
 71 72  1  0
 72 75  1  1
 72 73  1  0
 74 72  1  0
 76 79  1  0
 77 81  1  0
 77 76  1  0
 78 77  2  0
 81 80  1  0
 83 81  1  0
 83 84  1  0
 83 82  1  0
M  ISO  4   5 100   7 100  43 101  44 101
M  END
>  <TORSDO>  (33) 
F 19

>  <SCORE>  (33) 
-15.451

>  <name>  (33) 
32

>  <ligand_id>  (33) 
32

>  <original_smiles>  (33) 
[H]C(C(=O)N1C([H])([H])C([H])([H])C([H])([H])C([H])(n2nc(-c3c([H])c([H])c(Oc4c([H])c([H])c(F)c([H])c4F)c([H])c3[H])c(C(=O)N([H])[H])c2N([H])[H])C1([H])[H])=C([H])C([H])([H])C1([H])C([H])([H])C1([H])C([H])([H])Oc1c([H])c([H])c2c(c1[H])C([H])([H])N(C(=O)C([H])(N([H])C(=O)C([H])(N([H])C([H])([H])[H])C([H])([H])[H])C(C([H])([H])[H])(C([H])([H])[H])C([H])([H])[H])C([H])(C(=O)N([H])C1([H])c3c([H])c([H])c([H])c([H])c3C([H])([H])C([H])([H])C1([H])[H])C2([H])[H]

>  <smiles>  (33) 
[H]C(C(=O)N1C([H])([H])C([H])([H])C([H])([H])C([H])(n2nc(-c3c([H])c([H])c(Oc4c([H])c([H])c(F)c([H])c4F)c([H])c3[H])c(C(=O)N([H])[H])c2N([H])[H])C1([H])[H])=C([H])C([H])([H])C1([H])C([H])([H])C1([H])C([H])([H])Oc1c([H])c([H])c2c(c1[H])C([H])([H])N(C(=O)C([H])(N([H])C(=O)C([H])(N([H])C([H])([H])[H])C([H])([H])[H])C(C([H])([H])[H])(C([H])([H])[H])C([H])([H])[H])C([H])(C(=O)N([H])C1([H])c3c([H])c([H])c([H])c([H])c3C([H])([H])C([H])([H])C1([H])[H])C2([H])[H]

$$$$
33:0:0
     RDKit          3D

 82 85  0  0  1  0  0  0  0  0999 V2000
  -28.2020  -24.7730   20.1970 O   0  0  0  0  0  1  0  0  0  0  0  0
  -24.8480  -31.7410   23.1750 C   0  0  0  0  0  0  0  0  0  0  0  0
  -27.2930  -26.2230   20.1860 C   0  0  0  0  0  0  0  0  0  0  0  0
  -23.6630  -30.3550   21.5350 C   0  0  0  0  0  3  0  0  0  0  0  0
  -25.0950  -28.6000   20.1410 C   0  0  0  0  0  0  0  0  0  0  0  0
  -26.2610  -30.3240   21.4690 C   0  0  0  0  0  2  0  0  0  0  0  0
  -26.3040  -28.8400   20.8020 C   0  0  0  0  0  0  0  0  0  0  0  0
  -27.3590  -27.7020   20.7770 C   0  0  0  0  0  3  0  0  0  0  0  0
  -26.0470  -26.3260   19.4670 C   0  0  0  0  0  3  0  0  0  0  0  0
  -25.0370  -27.3730   19.4460 C   0  0  0  0  0  3  0  0  0  0  0  0
  -23.9210  -29.6240   20.1760 C   0  0  0  0  0  2  0  0  0  0  0  0
  -24.9550  -30.8510   22.1120 N   0  0  0  0  0  0  0  0  0  0  0  0
  -23.7480  -32.0700   23.6610 O   0  0  0  0  0  0  0  0  0  0  0  0
  -22.8900  -29.4250   22.5140 C   0  0  0  0  0  0  0  0  0  0  0  0
  -21.5510  -29.3080   22.3840 N   0  0  0  0  0  0  0  0  0  0  0  0
  -23.5150  -28.7990   23.3710 O   0  0  0  0  0  0  0  0  0  0  0  0
  -21.0880  -29.8620   21.6770 H   0  0  0  0  0  0  0  0  0  0  0  0
  -18.1470  -28.0950   22.8720 C   0  0  0  0  0  0  0  0  0  0  0  0
  -20.7060  -28.3800   23.1530 C   0  0  0  0  0  3  0  0  0  0  0  0
  -20.8140  -26.9420   22.5920 C   0  0  0  0  0  2  0  0  0  0  0  0
  -19.7260  -26.6120   21.5650 C   0  0  0  0  0  2  0  0  0  0  0  0
  -18.3370  -26.7490   22.1930 C   0  0  0  0  0  2  0  0  0  0  0  0
  -19.2580  -28.8690   23.3060 C   0  0  0  0  0  0  0  0  0  0  0  0
  -19.0200  -30.1230   23.9100 C   0  0  0  0  0  3  0  0  0  0  0  0
  -17.7080  -30.6070   24.0760 C   0  0  0  0  0  3  0  0  0  0  0  0
  -16.6140  -29.8340   23.6520 C   0  0  0  0  0  3  0  0  0  0  0  0
  -16.8340  -28.5790   23.0560 C   0  0  0  0  0  3  0  0  0  0  0  0
  -26.0940  -32.4000   23.8430 C   0  0  0  0  0  3  0  0  0  0  0  0
  -25.7800  -33.8150   24.1580 N   0  0  0  0  0  0  0  0  0  0  0  0
  -26.1370  -34.8790   23.4240 C   0  0  0  0  0  0  0  0  0  0  0  0
  -26.8100  -34.7730   22.3970 O   0  0  0  0  0  0  0  0  0  0  0  0
  -25.1790  -33.9710   24.9530 H   0  0  0  0  0  0  0  0  0  0  0  0
  -24.4360  -36.7200   23.1140 C   0  0  0  0  0  1  0  0  0  0  0  0
  -25.6850  -36.2810   23.8980 C   0  0  0  0  0  3  0  0  0  0  0  0
  -27.8460  -37.1420   24.6960 C   0  0  0  0  0  1  0  0  0  0  0  0
  -26.7320  -37.3200   23.7690 N   0  0  0  0  0  0  0  0  0  0  0  0
  -26.3410  -38.2460   23.9180 H   0  0  0  0  0  0  0  0  0  0  0  0
  -26.5420  -31.6660   25.1700 C   0  0  1  0  0  0  0  0  0  0  0  0
  -25.4060  -31.4950   26.2060 C   0  0  0  0  0  1  0  0  0  0  0  0
  -27.1030  -30.2600   24.8680 C   0  0  0  0  0  1  0  0  0  0  0  0
  -27.6890  -32.4540   25.8440 C   0  0  0  0  0  1  0  0  0  0  0  0
  -28.1890  -22.7420   20.0140 C   0  0  0  0  0 15  0  0  0  0  0  0
  -29.1520  -20.6760   19.9300 C   0  0  0  0  0 15  0  0  0  0  0  0
  -28.1760  -18.3000   18.5790 C   0  0  0  0  0  1  0  0  0  0  0  0
  -28.2430  -18.1610   21.0770 C   0  0  0  0  0  1  0  0  0  0  0  0
  -29.0840  -18.4050   19.8140 C   0  0  0  0  0  2  0  0  0  0  0  0
  -29.9920  -16.4480   19.6660 C   0  0  0  0  0  2  0  0  0  0  0  0
  -30.3300  -13.7090   18.8990 C   0  0  0  0  0  2  0  0  0  0  0  0
  -29.4620  -12.9690   17.8060 C   0  0  0  0  0  2  0  0  0  0  0  0
  -28.1420  -12.4330   18.3710 C   0  0  0  0  0  2  0  0  0  0  0  0
  -27.5770  -13.4530   19.3710 C   0  0  0  0  0  3  0  0  0  0  0  0
  -28.6120  -14.0650   20.3710 C   0  0  0  0  0  2  0  0  0  0  0  0
  -29.6210  -14.9270   19.6340 N   0  0  0  0  0  0  0  0  0  0  0  0
  -31.2260  -16.2920   19.4380 O   0  0  0  0  0  1  0  0  0  0  0  0
  -25.2890  -13.8730   20.3460 C   0  0  0  0  0  0  0  0  0  0  0  0
  -24.2740  -13.0660   20.7680 C   0  0  0  0  0  0  0  0  0  0  0  0
  -24.7580  -11.7240   20.6590 C   0  0  0  0  0  0  0  0  0  0  0  0
  -26.3270  -13.0350   19.9960 N   0  0  0  0  0  0  0  0  0  0  0  0
  -26.0270  -11.7270   20.2430 N   0  0  0  0  0  0  0  0  0  0  0  0
  -24.0530  -10.4490   20.8710 C   0  0  0  0  0  0  0  0  0  0  0  0
  -24.5170   -9.4870   21.7960 C   0  0  0  0  0  3  0  0  0  0  0  0
  -23.8030   -8.2860   22.0020 C   0  0  0  0  0  3  0  0  0  0  0  0
  -22.6080   -8.0360   21.2840 C   0  0  0  0  0  0  0  0  0  0  0  0
  -22.1610   -8.9870   20.3500 C   0  0  0  0  0  3  0  0  0  0  0  0
  -22.8760  -10.1790   20.1430 C   0  0  0  0  0  3  0  0  0  0  0  0
  -21.8650   -6.8850   21.4000 O   0  0  0  0  0  0  0  0  0  0  0  0
  -21.8130   -6.1730   22.5710 C   0  0  0  0  0  0  0  0  0  0  0  0
  -21.3790   -6.7590   23.7800 C   0  0  0  0  0  3  0  0  0  0  0  0
  -21.2750   -5.9740   24.9460 C   0  0  0  0  0  3  0  0  0  0  0  0
  -21.5950   -4.6030   24.9040 C   0  0  0  0  0  0  0  0  0  0  0  0
  -22.0200   -4.0170   23.7000 C   0  0  0  0  0  3  0  0  0  0  0  0
  -22.1260   -4.7980   22.5370 C   0  0  0  0  0  0  0  0  0  0  0  0
  -22.5160   -4.2220   21.3730 F   0  0  0  0  0  0  0  0  0  0  0  0
  -21.4880   -3.8480   26.0220 F   0  0  0  0  0  0  0  0  0  0  0  0
  -22.8950  -13.5200   21.1480 C   0  0  0  0  0  0  0  0  0  0  0  0
  -22.2410  -12.8030   22.0550 N   0  0  0  0  0  0  0  0  0  0  0  0
  -22.4120  -14.5480   20.6770 O   0  0  0  0  0  0  0  0  0  0  0  0
  -22.6500  -11.9730   22.4570 H   0  0  0  0  0  0  0  0  0  0  0  0
  -21.3200  -13.0910   22.3520 H   0  0  0  0  0  0  0  0  0  0  0  0
  -25.4120  -15.2510   20.1930 N   0  0  0  0  0  0  0  0  0  0  0  0
  -24.6470  -15.8880   20.3850 H   0  0  0  0  0  0  0  0  0  0  0  0
  -26.2290  -15.7150   19.8180 H   0  0  0  0  0  0  0  0  0  0  0  0
  2 13  2  0
  3  1  1  0
  3  8  1  0
  4 12  1  0
  4 14  1  0
  5 11  1  0
  5  7  1  0
  6 12  1  0
  7  6  1  0
  8  7  2  0
  9  3  2  0
 10  9  1  0
 10  5  2  0
 11  4  1  0
 12  2  1  0
 14 16  2  0
 15 14  1  0
 17 15  1  0
 18 27  2  0
 18 23  1  0
 19 15  1  0
 19 23  1  0
 20 19  1  0
 21 22  1  0
 21 20  1  0
 22 18  1  0
 23 24  2  0
 24 25  1  0
 26 25  2  0
 27 26  1  0
 28  2  1  0
 28 29  1  0
 28 38  1  0
 29 32  1  0
 30 34  1  0
 30 29  1  0
 31 30  2  0
 34 33  1  0
 36 34  1  0
 36 37  1  0
 36 35  1  0
 38 41  1  1
 38 39  1  0
 40 38  1  0
 44 46  1  0
 46 45  1  0
 48 53  1  0
 49 50  1  0
 49 48  1  0
 51 50  1  0
 51 58  1  0
 51 52  1  0
 53 47  1  0
 53 52  1  0
 54 47  1  0
 55 56  2  0
 56 75  1  0
 57 56  1  0
 57 60  1  0
 58 59  1  0
 58 55  1  0
 59 57  2  0
 60 61  1  0
 61 62  2  0
 63 66  1  0
 63 62  1  0
 64 63  2  0
 65 64  1  0
 65 60  2  0
 66 67  1  0
 67 68  1  0
 68 69  2  0
 70 69  1  0
 70 74  1  0
 71 70  2  0
 72 67  2  0
 72 71  1  0
 73 72  1  0
 75 76  1  0
 76 79  1  0
 76 78  1  0
 77 75  2  0
 80 55  1  0
 80 81  1  0
 82 80  1  0
M  ISO  4   1 101  42 101  46 100  47 100
M  END
>  <TORSDO>  (34) 
F 18

>  <SCORE>  (34) 
-15.134

>  <name>  (34) 
33

>  <ligand_id>  (34) 
33

>  <original_smiles>  (34) 
[H]c1c([H])c([H])c2c(c1[H])C([H])([H])C([H])([H])C([H])([H])C2([H])N([H])C(=O)C1([H])N(C(=O)C([H])(N([H])C(=O)C([H])(N([H])C([H])([H])[H])C([H])([H])[H])C(C([H])([H])[H])(C([H])([H])[H])C([H])([H])[H])C([H])([H])c2c([H])c(OC([H])([H])C([H])([H])C(C(=O)N3C([H])([H])C([H])([H])C([H])([H])C([H])(n4nc(-c5c([H])c([H])c(Oc6c([H])c([H])c(F)c([H])c6F)c([H])c5[H])c(C(=O)N([H])[H])c4N([H])[H])C3([H])[H])(C([H])([H])[H])C([H])([H])[H])c([H])c([H])c2C1([H])[H]

>  <smiles>  (34) 
[H]c1c([H])c([H])c2c(c1[H])C([H])([H])C([H])([H])C([H])([H])C2([H])N([H])C(=O)C1([H])N(C(=O)C([H])(N([H])C(=O)C([H])(N([H])C([H])([H])[H])C([H])([H])[H])C(C([H])([H])[H])(C([H])([H])[H])C([H])([H])[H])C([H])([H])c2c([H])c(OC([H])([H])C([H])([H])C(C(=O)N3C([H])([H])C([H])([H])C([H])([H])C([H])(n4nc(-c5c([H])c([H])c(Oc6c([H])c([H])c(F)c([H])c6F)c([H])c5[H])c(C(=O)N([H])[H])c4N([H])[H])C3([H])[H])(C([H])([H])[H])C([H])([H])[H])c([H])c([H])c2C1([H])[H]

$$$$
34:0:0
     RDKit          3D

 83 90  0  0  1  0  0  0  0  0999 V2000
  -28.1630  -24.2320   19.8970 C   0  0  0  0  0  2  0  0  0  0  0  0
  -28.2010  -25.8440   20.3220 O   0  0  0  0  0  0  0  0  0  0  0  0
  -24.6300  -31.8460   23.2070 C   0  0  0  0  0  0  0  0  0  0  0  0
  -27.1920  -26.9460   20.2030 C   0  0  0  0  0  0  0  0  0  0  0  0
  -23.4400  -30.4480   21.5670 C   0  0  0  0  0  3  0  0  0  0  0  0
  -24.8920  -28.8400   20.1450 C   0  0  0  0  0  0  0  0  0  0  0  0
  -26.0070  -30.6530   21.4290 C   0  0  0  0  0  2  0  0  0  0  0  0
  -26.0780  -29.2410   20.7740 C   0  0  0  0  0  0  0  0  0  0  0  0
  -27.2160  -28.3130   20.7800 C   0  0  0  0  0  3  0  0  0  0  0  0
  -25.9810  -26.7070   19.5130 C   0  0  0  0  0  3  0  0  0  0  0  0
  -24.8710  -27.5950   19.4930 C   0  0  0  0  0  3  0  0  0  0  0  0
  -23.6730  -29.7620   20.1910 C   0  0  0  0  0  2  0  0  0  0  0  0
  -24.7140  -31.0110   22.1210 N   0  0  0  0  0  0  0  0  0  0  0  0
  -23.5400  -32.1380   23.7250 O   0  0  0  0  0  0  0  0  0  0  0  0
  -22.7420  -29.4560   22.5340 C   0  0  0  0  0  0  0  0  0  0  0  0
  -21.4110  -29.2990   22.4120 N   0  0  0  0  0  0  0  0  0  0  0  0
  -23.4070  -28.8270   23.3620 O   0  0  0  0  0  0  0  0  0  0  0  0
  -20.9280  -29.8570   21.7220 H   0  0  0  0  0  0  0  0  0  0  0  0
  -18.0250  -28.0970   22.9240 C   0  0  0  0  0  0  0  0  0  0  0  0
  -20.5860  -28.3620   23.1850 C   0  0  0  0  0  3  0  0  0  0  0  0
  -20.6860  -26.9300   22.6110 C   0  0  0  0  0  2  0  0  0  0  0  0
  -19.5830  -26.6070   21.5980 C   0  0  0  0  0  2  0  0  0  0  0  0
  -18.2010  -26.7500   22.2440 C   0  0  0  0  0  2  0  0  0  0  0  0
  -19.1450  -28.8610   23.3520 C   0  0  0  0  0  0  0  0  0  0  0  0
  -18.9240  -30.1190   23.9530 C   0  0  0  0  0  3  0  0  0  0  0  0
  -17.6170  -30.6150   24.1270 C   0  0  0  0  0  3  0  0  0  0  0  0
  -16.5140  -29.8500   23.7130 C   0  0  0  0  0  3  0  0  0  0  0  0
  -16.7180  -28.5920   23.1180 C   0  0  0  0  0  3  0  0  0  0  0  0
  -25.8990  -32.4920   23.8420 C   0  0  0  0  0  3  0  0  0  0  0  0
  -26.4020  -31.7290   25.1310 C   0  0  1  0  0  0  0  0  0  0  0  0
  -25.2990  -31.5030   26.1920 C   0  0  0  0  0  1  0  0  0  0  0  0
  -26.9860  -30.3460   24.7630 C   0  0  0  0  0  1  0  0  0  0  0  0
  -27.5480  -32.5260   25.7970 C   0  0  0  0  0  1  0  0  0  0  0  0
  -25.5780  -33.8910   24.1770 N   0  0  0  0  0  0  0  0  0  0  0  0
  -25.9110  -34.9550   23.4340 C   0  0  0  0  0  0  0  0  0  0  0  0
  -26.5810  -34.8620   22.4020 O   0  0  0  0  0  0  0  0  0  0  0  0
  -24.9810  -34.0360   24.9780 H   0  0  0  0  0  0  0  0  0  0  0  0
  -24.1810  -36.7580   23.1070 C   0  0  0  0  0  1  0  0  0  0  0  0
  -25.4270  -36.3420   23.9070 C   0  0  0  0  0  3  0  0  0  0  0  0
  -27.5640  -37.2250   24.7360 C   0  0  0  0  0  1  0  0  0  0  0  0
  -26.4590  -37.3970   23.7980 N   0  0  0  0  0  0  0  0  0  0  0  0
  -26.0520  -38.3150   23.9530 H   0  0  0  0  0  0  0  0  0  0  0  0
  -28.6860  -22.6550   20.6450 C   0  0  0  0  0  2  0  0  0  0  0  0
  -29.1210  -19.6460   20.5340 C   0  0  0  0  0  3  0  0  0  0  0  0
  -29.1940  -21.0600   20.0840 C   0  0  0  0  0  3  0  0  0  0  0  0
  -29.7890  -18.1800   20.1390 C   0  0  0  0  0  3  0  0  0  0  0  0
  -29.6060  -16.7510   20.4990 C   0  0  0  0  0  3  0  0  0  0  0  0
  -30.4000  -15.3490   20.1960 C   0  0  0  0  0  0  0  0  0  0  0  0
  -30.3890  -12.8790   19.3640 C   0  0  0  0  0  2  0  0  0  0  0  0
  -29.4770  -12.6730   18.1260 C   0  0  0  0  0  2  0  0  0  0  0  0
  -28.0280  -12.3930   18.5600 C   0  0  0  0  0  2  0  0  0  0  0  0
  -27.5730  -13.3550   19.6850 C   0  0  0  0  0  3  0  0  0  0  0  0
  -28.6150  -13.5160   20.8120 C   0  0  0  0  0  2  0  0  0  0  0  0
  -29.8530  -14.0250   20.1970 N   0  0  0  0  0  0  0  0  0  0  0  0
  -31.6000  -15.3270   19.8800 O   0  0  0  0  0  0  0  0  0  0  0  0
  -25.2000  -13.8960   20.4370 C   0  0  0  0  0  0  0  0  0  0  0  0
  -24.1440  -13.1130   20.8120 C   0  0  0  0  0  0  0  0  0  0  0  0
  -24.6220  -11.7660   20.7930 C   0  0  0  0  0  0  0  0  0  0  0  0
  -26.2480  -13.0280   20.1970 N   0  0  0  0  0  0  0  0  0  0  0  0
  -25.9140  -11.7410   20.4810 N   0  0  0  0  0  0  0  0  0  0  0  0
  -23.9040  -10.5010   20.9940 C   0  0  0  0  0  0  0  0  0  0  0  0
  -24.3430   -9.5410   21.9330 C   0  0  0  0  0  3  0  0  0  0  0  0
  -23.6220   -8.3420   22.1230 C   0  0  0  0  0  3  0  0  0  0  0  0
  -22.4460   -8.0950   21.3750 C   0  0  0  0  0  0  0  0  0  0  0  0
  -22.0260   -9.0430   20.4260 C   0  0  0  0  0  3  0  0  0  0  0  0
  -22.7480  -10.2330   20.2340 C   0  0  0  0  0  3  0  0  0  0  0  0
  -21.6960   -6.9480   21.4740 O   0  0  0  0  0  0  0  0  0  0  0  0
  -21.6560   -6.2110   22.6310 C   0  0  0  0  0  0  0  0  0  0  0  0
  -21.2360   -6.7700   23.8570 C   0  0  0  0  0  3  0  0  0  0  0  0
  -21.1440   -5.9600   25.0060 C   0  0  0  0  0  3  0  0  0  0  0  0
  -21.4620   -4.5910   24.9300 C   0  0  0  0  0  0  0  0  0  0  0  0
  -21.8760   -4.0310   23.7080 C   0  0  0  0  0  3  0  0  0  0  0  0
  -21.9690   -4.8380   22.5620 C   0  0  0  0  0  0  0  0  0  0  0  0
  -22.3470   -4.2880   21.3830 F   0  0  0  0  0  0  0  0  0  0  0  0
  -21.3670   -3.8100   26.0320 F   0  0  0  0  0  0  0  0  0  0  0  0
  -22.7440  -13.5830   21.0750 C   0  0  0  0  0  0  0  0  0  0  0  0
  -22.0190  -12.8910   21.9470 N   0  0  0  0  0  0  0  0  0  0  0  0
  -22.3010  -14.6000   20.5430 O   0  0  0  0  0  0  0  0  0  0  0  0
  -22.3910  -12.0690   22.3980 H   0  0  0  0  0  0  0  0  0  0  0  0
  -21.0780  -13.1880   22.1650 H   0  0  0  0  0  0  0  0  0  0  0  0
  -25.3520  -15.2670   20.2490 N   0  0  0  0  0  0  0  0  0  0  0  0
  -24.5820  -15.9180   20.3620 H   0  0  0  0  0  0  0  0  0  0  0  0
  -26.2000  -15.7120   19.9220 H   0  0  0  0  0  0  0  0  0  0  0  0
  1  2  1  0
  1 43  1  0
  3 14  2  0
  4  2  1  0
  4  9  1  0
  5 13  1  0
  5 15  1  0
  6 12  1  0
  6  8  1  0
  7 13  1  0
  8  9  2  0
  8  7  1  0
 10  4  2  0
 11 10  1  0
 11  6  2  0
 12  5  1  0
 13  3  1  0
 15 17  2  0
 16 15  1  0
 18 16  1  0
 19 28  2  0
 19 24  1  0
 20 16  1  0
 20 24  1  0
 21 20  1  0
 22 23  1  0
 22 21  1  0
 23 19  1  0
 24 25  2  0
 25 26  1  0
 27 26  2  0
 28 27  1  0
 29  3  1  0
 29 34  1  0
 29 30  1  0
 30 33  1  1
 30 31  1  0
 32 30  1  0
 34 37  1  0
 35 39  1  0
 35 34  1  0
 36 35  2  0
 39 38  1  0
 41 39  1  0
 41 42  1  0
 41 40  1  0
 45 44  2  0
 45 43  1  0
 46 47  2  0
 46 44  1  0
 48 54  1  0
 48 47  1  0
 49 54  1  0
 50 51  1  0
 50 49  1  0
 52 51  1  0
 52 59  1  0
 52 53  1  0
 54 53  1  0
 55 48  2  0
 56 57  2  0
 57 76  1  0
 58 57  1  0
 58 61  1  0
 59 56  1  0
 59 60  1  0
 60 58  2  0
 61 62  1  0
 62 63  2  0
 64 67  1  0
 64 63  1  0
 65 64  2  0
 66 65  1  0
 66 61  2  0
 67 68  1  0
 68 69  1  0
 69 70  2  0
 71 70  1  0
 71 75  1  0
 72 71  2  0
 73 68  2  0
 73 72  1  0
 74 73  1  0
 76 77  1  0
 77 80  1  0
 77 79  1  0
 78 76  2  0
 81 82  1  0
 81 56  1  0
 83 81  1  0
M  ISO  4   1 101   2 101  47 100  48 100
M  END
>  <TORSDO>  (35) 
F 19

>  <SCORE>  (35) 
-15.327

>  <name>  (35) 
34

>  <ligand_id>  (35) 
34

>  <original_smiles>  (35) 
[H]C(C(=O)N1C([H])([H])C([H])([H])C([H])([H])C([H])(n2nc(-c3c([H])c([H])c(Oc4c([H])c([H])c(F)c([H])c4F)c([H])c3[H])c(C(=O)N([H])[H])c2N([H])[H])C1([H])[H])=C([H])C([H])=C([H])C([H])([H])C([H])([H])Oc1c([H])c([H])c2c(c1[H])C([H])([H])N(C(=O)C([H])(N([H])C(=O)C([H])(N([H])C([H])([H])[H])C([H])([H])[H])C(C([H])([H])[H])(C([H])([H])[H])C([H])([H])[H])C([H])(C(=O)N([H])C1([H])c3c([H])c([H])c([H])c([H])c3C([H])([H])C([H])([H])C1([H])[H])C2([H])[H]

>  <smiles>  (35) 
[H]C(C(=O)N1C([H])([H])C([H])([H])C([H])([H])C([H])(n2nc(-c3c([H])c([H])c(Oc4c([H])c([H])c(F)c([H])c4F)c([H])c3[H])c(C(=O)N([H])[H])c2N([H])[H])C1([H])[H])=C([H])C([H])=C([H])C([H])([H])C([H])([H])Oc1c([H])c([H])c2c(c1[H])C([H])([H])N(C(=O)C([H])(N([H])C(=O)C([H])(N([H])C([H])([H])[H])C([H])([H])[H])C(C([H])([H])[H])(C([H])([H])[H])C([H])([H])[H])C([H])(C(=O)N([H])C1([H])c3c([H])c([H])c([H])c([H])c3C([H])([H])C([H])([H])C1([H])[H])C2([H])[H]

$$$$
35:0:0
     RDKit          3D

 90 99  0  0  1  0  0  0  0  0999 V2000
  -29.8530  -18.3150   18.3260 C   0  0  0  0  0  2  0  0  0  0  0  0
  -30.8220  -17.6990   19.0080 C   0  0  0  0  0  2  0  0  0  0  0  0
  -30.7200  -18.7840   21.2770 C   0  0  0  0  0  2  0  0  0  0  0  0
  -29.9590  -20.1740   21.5100 C   0  0  0  0  0  2  0  0  0  0  0  0
  -28.3340  -19.7980   19.7770 C   0  0  0  0  0  2  0  0  0  0  0  0
  -28.9010  -18.3520   19.5040 C   0  0  0  0  0  3  0  0  0  0  0  0
  -30.0690  -17.7010   20.3380 C   0  0  1  0  0  0  0  0  0  0  0  0
  -29.2730  -20.8360   20.3380 N   0  0  1  0  0  4  0  0  0  0  0  0
  -29.9670  -21.0220   19.6300 H   0  0  0  0  0  0  0  0  0  0  0  0
  -29.9300  -16.1710   20.9360 C   0  0  0  0  0  2  0  0  0  0  0  0
  -30.7200  -14.8440   20.4340 C   0  0  0  0  0  0  0  0  0  0  0  0
  -30.5370  -12.5850   19.3480 C   0  0  0  0  0  2  0  0  0  0  0  0
  -29.6030  -12.6970   18.1200 C   0  0  0  0  0  2  0  0  0  0  0  0
  -28.1280  -12.5220   18.5320 C   0  0  0  0  0  2  0  0  0  0  0  0
  -27.7540  -13.3810   19.7680 C   0  0  0  0  0  3  0  0  0  0  0  0
  -28.8030  -13.2430   20.8930 C   0  0  0  0  0  2  0  0  0  0  0  0
  -30.1100  -13.6080   20.3320 N   0  0  0  0  0  0  0  0  0  0  0  0
  -31.8920  -14.9510   20.0580 O   0  0  0  0  0  0  0  0  0  0  0  0
  -25.3560  -13.9830   20.4570 C   0  0  0  0  0  0  0  0  0  0  0  0
  -24.2830  -13.2140   20.8170 C   0  0  0  0  0  0  0  0  0  0  0  0
  -24.7440  -11.8620   20.8030 C   0  0  0  0  0  0  0  0  0  0  0  0
  -26.4020  -13.1000   20.2410 N   0  0  0  0  0  0  0  0  0  0  0  0
  -26.0390  -11.8200   20.5120 N   0  0  0  0  0  0  0  0  0  0  0  0
  -24.0120  -10.6020   20.9910 C   0  0  0  0  0  0  0  0  0  0  0  0
  -24.4250   -9.6440   21.9430 C   0  0  0  0  0  3  0  0  0  0  0  0
  -23.6930   -8.4490   22.1200 C   0  0  0  0  0  3  0  0  0  0  0  0
  -22.5350   -8.2050   21.3450 C   0  0  0  0  0  0  0  0  0  0  0  0
  -22.1410   -9.1530   20.3830 C   0  0  0  0  0  3  0  0  0  0  0  0
  -22.8740  -10.3380   20.2040 C   0  0  0  0  0  3  0  0  0  0  0  0
  -21.7770   -7.0620   21.4280 O   0  0  0  0  0  0  0  0  0  0  0  0
  -21.6920   -6.3390   22.5910 C   0  0  0  0  0  0  0  0  0  0  0  0
  -21.2130   -6.9090   23.7900 C   0  0  0  0  0  3  0  0  0  0  0  0
  -21.0770   -6.1120   24.9450 C   0  0  0  0  0  3  0  0  0  0  0  0
  -21.4110   -4.7450   24.8990 C   0  0  0  0  0  0  0  0  0  0  0  0
  -21.8830   -4.1740   23.7040 C   0  0  0  0  0  3  0  0  0  0  0  0
  -22.0200   -4.9690   22.5530 C   0  0  0  0  0  0  0  0  0  0  0  0
  -22.4560   -4.4090   21.3990 F   0  0  0  0  0  0  0  0  0  0  0  0
  -21.2730   -3.9760   26.0050 F   0  0  0  0  0  0  0  0  0  0  0  0
  -22.8830  -13.6960   21.0640 C   0  0  0  0  0  0  0  0  0  0  0  0
  -22.1410  -13.0060   21.9230 N   0  0  0  0  0  0  0  0  0  0  0  0
  -22.4560  -14.7190   20.5320 O   0  0  0  0  0  0  0  0  0  0  0  0
  -22.4980  -12.1780   22.3760 H   0  0  0  0  0  0  0  0  0  0  0  0
  -21.2000  -13.3120   22.1310 H   0  0  0  0  0  0  0  0  0  0  0  0
  -25.5260  -15.3530   20.2720 N   0  0  0  0  0  0  0  0  0  0  0  0
  -24.7570  -16.0070   20.3660 H   0  0  0  0  0  0  0  0  0  0  0  0
  -26.3790  -15.7860   19.9460 H   0  0  0  0  0  0  0  0  0  0  0  0
  -28.5330  -22.1720   20.6670 C   0  0  0  0  0  2  0  0  0  0  0  0
  -29.0750  -23.6600   20.2710 C   0  0  0  0  0  3  0  0  0  0  0  0
  -28.0570  -24.9160   20.5050 C   0  0  0  0  0  3  0  0  0  0  0  0
  -28.3480  -26.3810   20.2380 O   0  0  0  0  0  0  0  0  0  0  0  0
  -24.6400  -31.8970   23.2480 C   0  0  0  0  0  0  0  0  0  0  0  0
  -27.2570  -27.2910   20.1970 C   0  0  0  0  0  0  0  0  0  0  0  0
  -23.4430  -30.4940   21.6100 C   0  0  0  0  0  3  0  0  0  0  0  0
  -24.9000  -28.9480   20.1810 C   0  0  0  0  0  0  0  0  0  0  0  0
  -25.9880  -30.8060   21.4320 C   0  0  0  0  0  2  0  0  0  0  0  0
  -26.0720  -29.4230   20.7830 C   0  0  0  0  0  0  0  0  0  0  0  0
  -27.2540  -28.6080   20.7790 C   0  0  0  0  0  3  0  0  0  0  0  0
  -26.0630  -26.9040   19.5460 C   0  0  0  0  0  3  0  0  0  0  0  0
  -24.9010  -27.6970   19.5500 C   0  0  0  0  0  3  0  0  0  0  0  0
  -23.6610  -29.8240   20.2300 C   0  0  0  0  0  2  0  0  0  0  0  0
  -24.7100  -31.0840   22.1520 N   0  0  0  0  0  0  0  0  0  0  0  0
  -23.5550  -32.1720   23.7810 O   0  0  0  0  0  0  0  0  0  0  0  0
  -22.7820  -29.4750   22.5700 C   0  0  0  0  0  0  0  0  0  0  0  0
  -21.4570  -29.2890   22.4410 N   0  0  0  0  0  0  0  0  0  0  0  0
  -23.4620  -28.8560   23.3920 O   0  0  0  0  0  0  0  0  0  0  0  0
  -20.9660  -29.8400   21.7510 H   0  0  0  0  0  0  0  0  0  0  0  0
  -18.0880  -28.0580   22.9310 C   0  0  0  0  0  0  0  0  0  0  0  0
  -20.6420  -28.3480   23.2130 C   0  0  0  0  0  3  0  0  0  0  0  0
  -20.7620  -26.9130   22.6470 C   0  0  0  0  0  2  0  0  0  0  0  0
  -19.6690  -26.5740   21.6280 C   0  0  0  0  0  2  0  0  0  0  0  0
  -18.2830  -26.7070   22.2650 C   0  0  0  0  0  2  0  0  0  0  0  0
  -19.1960  -28.8360   23.3630 C   0  0  0  0  0  0  0  0  0  0  0  0
  -18.9600  -30.0980   23.9480 C   0  0  0  0  0  3  0  0  0  0  0  0
  -17.6500  -30.5860   24.1050 C   0  0  0  0  0  3  0  0  0  0  0  0
  -16.5560  -29.8070   23.6890 C   0  0  0  0  0  3  0  0  0  0  0  0
  -16.7760  -28.5440   23.1080 C   0  0  0  0  0  3  0  0  0  0  0  0
  -25.9190  -32.5380   23.8680 C   0  0  0  0  0  3  0  0  0  0  0  0
  -26.4370  -31.7710   25.1470 C   0  0  1  0  0  0  0  0  0  0  0  0
  -25.3440  -31.5300   26.2140 C   0  0  0  0  0  1  0  0  0  0  0  0
  -27.0290  -30.3950   24.7620 C   0  0  0  0  0  1  0  0  0  0  0  0
  -27.5830  -32.5730   25.8090 C   0  0  0  0  0  1  0  0  0  0  0  0
  -25.6000  -33.9340   24.1990 N   0  0  0  0  0  0  0  0  0  0  0  0
  -25.9170  -34.9900   23.4370 C   0  0  0  0  0  0  0  0  0  0  0  0
  -26.5770  -34.8900   22.3990 O   0  0  0  0  0  0  0  0  0  0  0  0
  -25.0140  -34.0860   25.0060 H   0  0  0  0  0  0  0  0  0  0  0  0
  -24.1760  -36.7740   23.0980 C   0  0  0  0  0  1  0  0  0  0  0  0
  -25.4260  -36.3750   23.8980 C   0  0  0  0  0  3  0  0  0  0  0  0
  -27.5590  -37.2770   24.7170 C   0  0  0  0  0  1  0  0  0  0  0  0
  -26.4520  -37.4350   23.7780 N   0  0  0  0  0  0  0  0  0  0  0  0
  -26.0410  -38.3530   23.9240 H   0  0  0  0  0  0  0  0  0  0  0  0
  1  2  1  0
  2  7  1  0
  3  4  1  0
  5  8  1  0
  6  1  1  0
  6  5  1  0
  6  7  1  0
  7 10  1  1
  7  3  1  0
  8 47  1  0
  8  4  1  0
  8  9  1  6
 11 10  1  0
 12 17  1  0
 13 14  1  0
 13 12  1  0
 15 14  1  0
 15 22  1  0
 15 16  1  0
 17 11  1  0
 17 16  1  0
 18 11  2  0
 19 20  2  0
 20 39  1  0
 21 20  1  0
 21 24  1  0
 22 19  1  0
 22 23  1  0
 23 21  2  0
 24 25  1  0
 25 26  2  0
 27 30  1  0
 27 26  1  0
 28 27  2  0
 29 28  1  0
 29 24  2  0
 30 31  1  0
 31 32  1  0
 32 33  2  0
 34 33  1  0
 34 38  1  0
 35 34  2  0
 36 31  2  0
 36 35  1  0
 37 36  1  0
 39 40  1  0
 40 43  1  0
 40 42  1  0
 41 39  2  0
 44 45  1  0
 44 19  1  0
 46 44  1  0
 48 49  2  0
 48 47  1  0
 50 49  1  0
 51 62  2  0
 52 50  1  0
 52 57  1  0
 53 61  1  0
 53 63  1  0
 54 60  1  0
 54 56  1  0
 55 61  1  0
 56 55  1  0
 57 56  2  0
 58 59  1  0
 58 52  2  0
 59 54  2  0
 60 53  1  0
 61 51  1  0
 63 65  2  0
 64 63  1  0
 66 64  1  0
 67 76  2  0
 67 72  1  0
 68 64  1  0
 68 72  1  0
 69 68  1  0
 70 71  1  0
 70 69  1  0
 71 67  1  0
 72 73  2  0
 73 74  1  0
 75 74  2  0
 76 75  1  0
 77 51  1  0
 77 82  1  0
 77 78  1  0
 78 81  1  1
 78 79  1  0
 80 78  1  0
 82 85  1  0
 83 87  1  0
 83 82  1  0
 84 83  2  0
 87 86  1  0
 89 87  1  0
 89 90  1  0
 89 88  1  0
M  ISO  4  10 100  11 100  49 101  50 101
M  END
>  <TORSDO>  (36) 
F 20

>  <SCORE>  (36) 
-13.965

>  <name>  (36) 
35

>  <ligand_id>  (36) 
35

>  <original_smiles>  (36) 
[H]C1=C([H])C2(C([H])([H])C(=O)N3C([H])([H])C([H])([H])C([H])([H])C([H])(n4nc(-c5c([H])c([H])c(Oc6c([H])c([H])c(F)c([H])c6F)c([H])c5[H])c(C(=O)N([H])[H])c4N([H])[H])C3([H])[H])C([H])([H])C([H])([H])[N+]([H])(C([H])([H])C([H])([H])C([H])([H])Oc3c([H])c([H])c4c(c3[H])C([H])([H])N(C(=O)C([H])(N([H])C(=O)C([H])(N([H])C([H])([H])[H])C([H])([H])[H])C(C([H])([H])[H])(C([H])([H])[H])C([H])([H])[H])C([H])(C(=O)N([H])C3([H])c5c([H])c([H])c([H])c([H])c5C([H])([H])C([H])([H])C3([H])[H])C4([H])[H])C([H])([H])C12[H]

>  <smiles>  (36) 
[H]C1=C([H])C2(C([H])([H])C(=O)N3C([H])([H])C([H])([H])C([H])([H])C([H])(n4nc(-c5c([H])c([H])c(Oc6c([H])c([H])c(F)c([H])c6F)c([H])c5[H])c(C(=O)N([H])[H])c4N([H])[H])C3([H])[H])C([H])([H])C([H])([H])[N+]([H])(C([H])([H])C([H])([H])C([H])([H])Oc3c([H])c([H])c4c(c3[H])C([H])([H])N(C(=O)C([H])(N([H])C(=O)C([H])(N([H])C([H])([H])[H])C([H])([H])[H])C(C([H])([H])[H])(C([H])([H])[H])C([H])([H])[H])C([H])(C(=O)N([H])C3([H])c5c([H])c([H])c([H])c([H])c5C([H])([H])C([H])([H])C3([H])[H])C4([H])[H])C([H])([H])C12[H]

$$$$
36:0:0
     RDKit          3D

 87 94  0  0  1  0  0  0  0  0999 V2000
  -28.6030  -20.3530   20.8430 C   0  0  0  0  0  2  0  0  0  0  0  0
  -29.5810  -19.8560   18.8830 C   0  0  0  0  0  2  0  0  0  0  0  0
  -29.5860  -18.9710   20.2330 C   0  0  0  0  0  3  0  0  0  0  0  0
  -28.8730  -22.0430   20.2790 C   0  0  0  0  0  2  0  0  0  0  0  0
  -29.4320  -21.4290   18.9960 N   0  0  0  0  0  4  0  0  0  0  0  0
  -28.8580  -21.7230   18.2220 H   0  0  0  0  0  0  0  0  0  0  0  0
  -30.3390  -21.8380   18.8330 H   0  0  0  0  0  0  0  0  0  0  0  0
  -30.2580  -15.8040   20.1270 C   0  0  0  0  0  0  0  0  0  0  0  0
  -30.3680  -13.2590   19.2840 C   0  0  0  0  0  2  0  0  0  0  0  0
  -29.4520  -12.8350   18.1000 C   0  0  0  0  0  2  0  0  0  0  0  0
  -28.0510  -12.4530   18.5970 C   0  0  0  0  0  2  0  0  0  0  0  0
  -27.5520  -13.4460   19.6700 C   0  0  0  0  0  3  0  0  0  0  0  0
  -28.6070  -13.7790   20.7530 C   0  0  0  0  0  2  0  0  0  0  0  0
  -29.7470  -14.4290   20.0620 N   0  0  0  0  0  0  0  0  0  0  0  0
  -31.4870  -15.7480   19.9250 O   0  0  0  0  0  0  0  0  0  0  0  0
  -29.4870  -17.1680   20.2330 N   0  0  0  0  0  0  0  0  0  0  0  0
  -28.5140  -16.9190   20.3430 H   0  0  0  0  0  0  0  0  0  0  0  0
  -25.2140  -13.9400   20.5220 C   0  0  0  0  0  0  0  0  0  0  0  0
  -24.1740  -13.1440   20.9070 C   0  0  0  0  0  0  0  0  0  0  0  0
  -24.6550  -11.8000   20.8330 C   0  0  0  0  0  0  0  0  0  0  0  0
  -26.2570  -13.0850   20.2260 N   0  0  0  0  0  0  0  0  0  0  0  0
  -25.9390  -11.7880   20.4810 N   0  0  0  0  0  0  0  0  0  0  0  0
  -23.9440  -10.5270   21.0180 C   0  0  0  0  0  0  0  0  0  0  0  0
  -24.3900   -9.5570   21.9430 C   0  0  0  0  0  3  0  0  0  0  0  0
  -23.6750   -8.3530   22.1200 C   0  0  0  0  0  3  0  0  0  0  0  0
  -22.4990   -8.1100   21.3710 C   0  0  0  0  0  0  0  0  0  0  0  0
  -22.0710   -9.0680   20.4350 C   0  0  0  0  0  3  0  0  0  0  0  0
  -22.7880  -10.2630   20.2570 C   0  0  0  0  0  3  0  0  0  0  0  0
  -21.7530   -6.9580   21.4580 O   0  0  0  0  0  0  0  0  0  0  0  0
  -21.6890   -6.2290   22.6180 C   0  0  0  0  0  0  0  0  0  0  0  0
  -21.1980   -6.7820   23.8200 C   0  0  0  0  0  3  0  0  0  0  0  0
  -21.0840   -5.9760   24.9710 C   0  0  0  0  0  3  0  0  0  0  0  0
  -21.4500   -4.6190   24.9210 C   0  0  0  0  0  0  0  0  0  0  0  0
  -21.9330   -4.0640   23.7220 C   0  0  0  0  0  3  0  0  0  0  0  0
  -22.0490   -4.8660   22.5730 C   0  0  0  0  0  0  0  0  0  0  0  0
  -22.4950   -4.3220   21.4160 F   0  0  0  0  0  0  0  0  0  0  0  0
  -21.3330   -3.8420   26.0230 F   0  0  0  0  0  0  0  0  0  0  0  0
  -22.7800  -13.6010   21.2210 C   0  0  0  0  0  0  0  0  0  0  0  0
  -22.0860  -12.8910   22.1020 N   0  0  0  0  0  0  0  0  0  0  0  0
  -22.3190  -14.6260   20.7200 O   0  0  0  0  0  0  0  0  0  0  0  0
  -22.4750  -12.0620   22.5270 H   0  0  0  0  0  0  0  0  0  0  0  0
  -21.1530  -13.1800   22.3560 H   0  0  0  0  0  0  0  0  0  0  0  0
  -25.3550  -15.3160   20.3640 N   0  0  0  0  0  0  0  0  0  0  0  0
  -24.5800  -15.9560   20.5060 H   0  0  0  0  0  0  0  0  0  0  0  0
  -26.1750  -15.7670   19.9830 H   0  0  0  0  0  0  0  0  0  0  0  0
  -27.9450  -23.7890   20.2440 C   0  0  0  0  0  1  0  0  0  0  0  0
  -28.1330  -25.5630   20.3160 O   0  0  0  0  0  0  0  0  0  0  0  0
  -24.6560  -31.9140   23.2330 C   0  0  0  0  0  0  0  0  0  0  0  0
  -27.1640  -26.7920   20.2660 C   0  0  0  0  0  0  0  0  0  0  0  0
  -23.4650  -30.5150   21.6010 C   0  0  0  0  0  3  0  0  0  0  0  0
  -24.9060  -28.8520   20.1970 C   0  0  0  0  0  0  0  0  0  0  0  0
  -26.0460  -30.6410   21.4830 C   0  0  0  0  0  2  0  0  0  0  0  0
  -26.1040  -29.2020   20.8320 C   0  0  0  0  0  0  0  0  0  0  0  0
  -27.2170  -28.2020   20.8300 C   0  0  0  0  0  3  0  0  0  0  0  0
  -25.9320  -26.6610   19.5730 C   0  0  0  0  0  3  0  0  0  0  0  0
  -24.8620  -27.6080   19.5420 C   0  0  0  0  0  3  0  0  0  0  0  0
  -23.7030  -29.8100   20.2350 C   0  0  0  0  0  2  0  0  0  0  0  0
  -24.7470  -31.0570   22.1580 N   0  0  0  0  0  0  0  0  0  0  0  0
  -23.5630  -32.2200   23.7410 O   0  0  0  0  0  0  0  0  0  0  0  0
  -22.7410  -29.5460   22.5750 C   0  0  0  0  0  0  0  0  0  0  0  0
  -21.4100  -29.3920   22.4460 N   0  0  0  0  0  0  0  0  0  0  0  0
  -23.3920  -28.9280   23.4210 O   0  0  0  0  0  0  0  0  0  0  0  0
  -20.9340  -29.9390   21.7400 H   0  0  0  0  0  0  0  0  0  0  0  0
  -18.0190  -28.1820   22.9500 C   0  0  0  0  0  0  0  0  0  0  0  0
  -20.5780  -28.4600   23.2190 C   0  0  0  0  0  3  0  0  0  0  0  0
  -20.6840  -27.0230   22.6580 C   0  0  0  0  0  2  0  0  0  0  0  0
  -19.5880  -26.6910   21.6400 C   0  0  0  0  0  2  0  0  0  0  0  0
  -18.2030  -26.8310   22.2780 C   0  0  0  0  0  2  0  0  0  0  0  0
  -19.1330  -28.9530   23.3770 C   0  0  0  0  0  0  0  0  0  0  0  0
  -18.9020  -30.2130   23.9720 C   0  0  0  0  0  3  0  0  0  0  0  0
  -17.5930  -30.7030   24.1400 C   0  0  0  0  0  3  0  0  0  0  0  0
  -16.4950  -29.9300   23.7240 C   0  0  0  0  0  3  0  0  0  0  0  0
  -16.7090  -28.6700   23.1360 C   0  0  0  0  0  3  0  0  0  0  0  0
  -25.9200  -32.5630   23.8750 C   0  0  0  0  0  3  0  0  0  0  0  0
  -25.6000  -33.9670   24.2040 N   0  0  0  0  0  0  0  0  0  0  0  0
  -25.9150  -35.0300   23.4500 C   0  0  0  0  0  0  0  0  0  0  0  0
  -26.5600  -34.9320   22.4040 O   0  0  0  0  0  0  0  0  0  0  0  0
  -25.0230  -34.1150   25.0180 H   0  0  0  0  0  0  0  0  0  0  0  0
  -24.1700  -36.8270   23.1680 C   0  0  0  0  0  1  0  0  0  0  0  0
  -25.4440  -36.4200   23.9280 C   0  0  0  0  0  3  0  0  0  0  0  0
  -27.6010  -37.3250   24.6790 C   0  0  0  0  0  1  0  0  0  0  0  0
  -26.4670  -37.4780   23.7720 N   0  0  0  0  0  0  0  0  0  0  0  0
  -26.0620  -38.3980   23.9240 H   0  0  0  0  0  0  0  0  0  0  0  0
  -26.4080  -31.8090   25.1750 C   0  0  1  0  0  0  0  0  0  0  0  0
  -25.2960  -31.5930   26.2270 C   0  0  0  0  0  1  0  0  0  0  0  0
  -26.9920  -30.4230   24.8260 C   0  0  0  0  0  1  0  0  0  0  0  0
  -27.5510  -32.6090   25.8440 C   0  0  0  0  0  1  0  0  0  0  0  0
  2  5  1  0
  2  3  1  0
  3 16  1  0
  3  1  1  0
  4  1  1  0
  5  4  1  0
  6  5  1  0
  7  5  1  0
  8 16  1  0
  9 14  1  0
 10 11  1  0
 10  9  1  0
 12 11  1  0
 12 21  1  0
 12 13  1  0
 14  8  1  0
 14 13  1  0
 15  8  2  0
 16 17  1  0
 18 19  2  0
 19 38  1  0
 20 19  1  0
 20 23  1  0
 21 22  1  0
 21 18  1  0
 22 20  2  0
 23 24  1  0
 24 25  2  0
 26 29  1  0
 26 25  1  0
 27 26  2  0
 28 27  1  0
 28 23  2  0
 29 30  1  0
 30 31  1  0
 31 32  2  0
 33 32  1  0
 33 37  1  0
 34 33  2  0
 35 30  2  0
 35 34  1  0
 36 35  1  0
 38 39  1  0
 39 42  1  0
 39 41  1  0
 40 38  2  0
 43 44  1  0
 43 18  1  0
 45 43  1  0
 46 47  1  0
 48 59  2  0
 49 47  1  0
 49 54  1  0
 50 58  1  0
 50 60  1  0
 51 57  1  0
 51 53  1  0
 52 58  1  0
 53 52  1  0
 54 53  2  0
 55 49  2  0
 56 55  1  0
 56 51  2  0
 57 50  1  0
 58 48  1  0
 60 62  2  0
 61 60  1  0
 63 61  1  0
 64 73  2  0
 64 69  1  0
 65 61  1  0
 65 69  1  0
 66 65  1  0
 67 68  1  0
 67 66  1  0
 68 64  1  0
 69 70  2  0
 70 71  1  0
 72 71  2  0
 73 72  1  0
 74 48  1  0
 74 75  1  0
 74 84  1  0
 75 78  1  0
 76 80  1  0
 76 75  1  0
 77 76  2  0
 80 79  1  0
 82 83  1  0
 82 80  1  0
 82 81  1  0
 84 87  1  1
 84 85  1  0
 86 84  1  0
M  ISO  4   8 100  16 100  46 101  47 101
M  END
>  <TORSDO>  (37) 
F 17

>  <SCORE>  (37) 
-16.453

>  <name>  (37) 
36

>  <ligand_id>  (37) 
36

>  <original_smiles>  (37) 
[H]c1c([H])c([H])c2c(c1[H])C([H])([H])C([H])([H])C([H])([H])C2([H])N([H])C(=O)C1([H])N(C(=O)C([H])(N([H])C(=O)C([H])(N([H])C([H])([H])[H])C([H])([H])[H])C(C([H])([H])[H])(C([H])([H])[H])C([H])([H])[H])C([H])([H])c2c([H])c(OC([H])([H])C3([H])C([H])([H])C([H])(N([H])C(=O)N4C([H])([H])C([H])([H])C([H])([H])C([H])(n5nc(-c6c([H])c([H])c(Oc7c([H])c([H])c(F)c([H])c7F)c([H])c6[H])c(C(=O)N([H])[H])c5N([H])[H])C4([H])[H])C([H])([H])[N+]3([H])[H])c([H])c([H])c2C1([H])[H]

>  <smiles>  (37) 
[H]c1c([H])c([H])c2c(c1[H])C([H])([H])C([H])([H])C([H])([H])C2([H])N([H])C(=O)C1([H])N(C(=O)C([H])(N([H])C(=O)C([H])(N([H])C([H])([H])[H])C([H])([H])[H])C(C([H])([H])[H])(C([H])([H])[H])C([H])([H])[H])C([H])([H])c2c([H])c(OC([H])([H])C3([H])C([H])([H])C([H])(N([H])C(=O)N4C([H])([H])C([H])([H])C([H])([H])C([H])(n5nc(-c6c([H])c([H])c(Oc7c([H])c([H])c(F)c([H])c7F)c([H])c6[H])c(C(=O)N([H])[H])c5N([H])[H])C4([H])[H])C([H])([H])[N+]3([H])[H])c([H])c([H])c2C1([H])[H]

$$$$
37:0:0
     RDKit          3D

 89 96  0  0  1  0  0  0  0  0999 V2000
  -29.2260  -21.2260   19.8370 C   0  0  0  0  0  3  0  0  0  0  0  0
  -31.2410  -21.8630   18.4910 C   0  0  0  0  0  0  0  0  0  0  0  0
  -32.7610  -21.9540   18.5210 C   0  0  0  0  0  1  0  0  0  0  0  0
  -30.6580  -21.3630   19.5860 N   0  0  0  0  0  0  0  0  0  0  0  0
  -30.6170  -22.2450   17.5010 O   0  0  0  0  0  0  0  0  0  0  0  0
  -31.2740  -21.0750   20.3360 H   0  0  0  0  0  0  0  0  0  0  0  0
  -27.5250  -19.2420   20.3720 C   0  0  0  0  0  1  0  0  0  0  0  0
  -29.0260  -19.5420   20.4030 C   0  0  0  0  0  3  0  0  0  0  0  0
  -29.6070  -16.6280   20.2380 C   0  0  0  0  0  3  0  0  0  0  0  0
  -29.8640  -18.0640   20.0510 C   0  0  0  0  0  3  0  0  0  0  0  0
  -30.4460  -15.2680   19.9890 C   0  0  0  0  0  0  0  0  0  0  0  0
  -30.4150  -12.8060   19.1910 C   0  0  0  0  0  2  0  0  0  0  0  0
  -29.4620  -12.6130   17.9880 C   0  0  0  0  0  2  0  0  0  0  0  0
  -28.0270  -12.3360   18.4670 C   0  0  0  0  0  2  0  0  0  0  0  0
  -27.6070  -13.3040   19.6020 C   0  0  0  0  0  3  0  0  0  0  0  0
  -28.6870  -13.4680   20.6920 C   0  0  0  0  0  2  0  0  0  0  0  0
  -29.9090  -13.9530   20.0320 N   0  0  0  0  0  0  0  0  0  0  0  0
  -31.6390  -15.2750   19.6510 O   0  0  0  0  0  0  0  0  0  0  0  0
  -25.2720  -13.8490   20.4690 C   0  0  0  0  0  0  0  0  0  0  0  0
  -24.2260  -13.0660   20.8690 C   0  0  0  0  0  0  0  0  0  0  0  0
  -24.6870  -11.7150   20.7880 C   0  0  0  0  0  0  0  0  0  0  0  0
  -26.3000  -12.9770   20.1600 N   0  0  0  0  0  0  0  0  0  0  0  0
  -25.9650  -11.6870   20.4200 N   0  0  0  0  0  0  0  0  0  0  0  0
  -23.9660  -10.4500   20.9800 C   0  0  0  0  0  0  0  0  0  0  0  0
  -24.4190   -9.4750   21.8940 C   0  0  0  0  0  3  0  0  0  0  0  0
  -23.6950   -8.2760   22.0780 C   0  0  0  0  0  3  0  0  0  0  0  0
  -22.5020   -8.0460   21.3490 C   0  0  0  0  0  0  0  0  0  0  0  0
  -22.0700   -9.0130   20.4250 C   0  0  0  0  0  3  0  0  0  0  0  0
  -22.7940  -10.2020   20.2380 C   0  0  0  0  0  3  0  0  0  0  0  0
  -21.7490   -6.9010   21.4440 O   0  0  0  0  0  0  0  0  0  0  0  0
  -21.7080   -6.1590   22.5980 C   0  0  0  0  0  0  0  0  0  0  0  0
  -21.2580   -6.7040   23.8200 C   0  0  0  0  0  3  0  0  0  0  0  0
  -21.1650   -5.8860   24.9640 C   0  0  0  0  0  3  0  0  0  0  0  0
  -21.5120   -4.5240   24.8880 C   0  0  0  0  0  0  0  0  0  0  0  0
  -21.9540   -3.9780   23.6690 C   0  0  0  0  0  3  0  0  0  0  0  0
  -22.0480   -4.7930   22.5270 C   0  0  0  0  0  0  0  0  0  0  0  0
  -22.4540   -4.2570   21.3510 F   0  0  0  0  0  0  0  0  0  0  0  0
  -21.4170   -3.7360   25.9830 F   0  0  0  0  0  0  0  0  0  0  0  0
  -22.8440  -13.5400   21.2080 C   0  0  0  0  0  0  0  0  0  0  0  0
  -22.1520  -12.8300   22.0930 N   0  0  0  0  0  0  0  0  0  0  0  0
  -22.3860  -14.5720   20.7210 O   0  0  0  0  0  0  0  0  0  0  0  0
  -22.5370  -11.9930   22.5070 H   0  0  0  0  0  0  0  0  0  0  0  0
  -21.2250  -13.1280   22.3600 H   0  0  0  0  0  0  0  0  0  0  0  0
  -25.4330  -15.2240   20.3150 N   0  0  0  0  0  0  0  0  0  0  0  0
  -24.6770  -15.8830   20.4670 H   0  0  0  0  0  0  0  0  0  0  0  0
  -26.2680  -15.6630   19.9470 H   0  0  0  0  0  0  0  0  0  0  0  0
  -28.6920  -22.7990   20.5210 C   0  0  0  0  0  2  0  0  0  0  0  0
  -28.2670  -24.3930   19.8270 C   0  0  0  0  0  2  0  0  0  0  0  0
  -28.2810  -25.9500   20.3450 O   0  0  0  0  0  0  0  0  0  0  0  0
  -24.6820  -31.8770   23.2190 C   0  0  0  0  0  0  0  0  0  0  0  0
  -27.2640  -27.0260   20.2150 C   0  0  0  0  0  0  0  0  0  0  0  0
  -23.5030  -30.4880   21.5600 C   0  0  0  0  0  3  0  0  0  0  0  0
  -24.9660  -28.8920   20.1430 C   0  0  0  0  0  0  0  0  0  0  0  0
  -26.0690  -30.6990   21.4470 C   0  0  0  0  0  2  0  0  0  0  0  0
  -26.1410  -29.2950   20.7870 C   0  0  0  0  0  0  0  0  0  0  0  0
  -27.2820  -28.3800   20.8040 C   0  0  0  0  0  3  0  0  0  0  0  0
  -26.0660  -26.7730   19.5070 C   0  0  0  0  0  3  0  0  0  0  0  0
  -24.9520  -27.6520   19.4850 C   0  0  0  0  0  3  0  0  0  0  0  0
  -23.7460  -29.8100   20.1830 C   0  0  0  0  0  2  0  0  0  0  0  0
  -24.7720  -31.0470   22.1300 N   0  0  0  0  0  0  0  0  0  0  0  0
  -23.5880  -32.1670   23.7280 O   0  0  0  0  0  0  0  0  0  0  0  0
  -22.7980  -29.4900   22.5140 C   0  0  0  0  0  0  0  0  0  0  0  0
  -21.4660  -29.3430   22.3850 N   0  0  0  0  0  0  0  0  0  0  0  0
  -23.4550  -28.8480   23.3390 O   0  0  0  0  0  0  0  0  0  0  0  0
  -20.9910  -29.9070   21.6940 H   0  0  0  0  0  0  0  0  0  0  0  0
  -18.0640  -28.1960   22.8990 C   0  0  0  0  0  0  0  0  0  0  0  0
  -20.6300  -28.4100   23.1470 C   0  0  0  0  0  3  0  0  0  0  0  0
  -20.7000  -26.9860   22.5470 C   0  0  0  0  0  2  0  0  0  0  0  0
  -19.5840  -26.7020   21.5360 C   0  0  0  0  0  2  0  0  0  0  0  0
  -18.2110  -26.8590   22.1940 C   0  0  0  0  0  2  0  0  0  0  0  0
  -19.2000  -28.9310   23.3330 C   0  0  0  0  0  0  0  0  0  0  0  0
  -19.0060  -30.1830   23.9570 C   0  0  0  0  0  3  0  0  0  0  0  0
  -17.7110  -30.6990   24.1490 C   0  0  0  0  0  3  0  0  0  0  0  0
  -16.5900  -29.9620   23.7290 C   0  0  0  0  0  3  0  0  0  0  0  0
  -16.7670  -28.7110   23.1110 C   0  0  0  0  0  3  0  0  0  0  0  0
  -25.9490  -32.5110   23.8690 C   0  0  0  0  0  3  0  0  0  0  0  0
  -25.6430  -33.9200   24.1760 N   0  0  0  0  0  0  0  0  0  0  0  0
  -25.9910  -34.9650   23.4130 C   0  0  0  0  0  0  0  0  0  0  0  0
  -26.6670  -34.8440   22.3880 O   0  0  0  0  0  0  0  0  0  0  0  0
  -25.0420  -34.0860   24.9690 H   0  0  0  0  0  0  0  0  0  0  0  0
  -24.2830  -36.7770   23.0360 C   0  0  0  0  0  1  0  0  0  0  0  0
  -25.5180  -36.3650   23.8540 C   0  0  0  0  0  3  0  0  0  0  0  0
  -27.6530  -37.2480   24.6890 C   0  0  0  0  0  1  0  0  0  0  0  0
  -26.5620  -37.4070   23.7320 N   0  0  0  0  0  0  0  0  0  0  0  0
  -26.1620  -38.3330   23.8580 H   0  0  0  0  0  0  0  0  0  0  0  0
  -26.4190  -31.7600   25.1750 C   0  0  1  0  0  0  0  0  0  0  0  0
  -25.2920  -31.5550   26.2150 C   0  0  0  0  0  1  0  0  0  0  0  0
  -26.9960  -30.3660   24.8370 C   0  0  0  0  0  1  0  0  0  0  0  0
  -27.5600  -32.5530   25.8540 C   0  0  0  0  0  1  0  0  0  0  0  0
  1  8  1  0
  1 47  1  0
  2  3  1  0
  2  4  1  0
  4  1  1  0
  4  6  1  0
  5  2  2  0
  8  7  1  0
 10  9  2  0
 10  8  1  0
 11 17  1  0
 11  9  1  0
 12 17  1  0
 13 14  1  0
 13 12  1  0
 15 14  1  0
 15 22  1  0
 15 16  1  0
 17 16  1  0
 18 11  2  0
 19 20  2  0
 20 39  1  0
 21 20  1  0
 21 24  1  0
 22 23  1  0
 22 19  1  0
 23 21  2  0
 24 25  1  0
 25 26  2  0
 27 30  1  0
 27 26  1  0
 28 27  2  0
 29 28  1  0
 29 24  2  0
 30 31  1  0
 31 32  1  0
 32 33  2  0
 34 33  1  0
 34 38  1  0
 35 34  2  0
 36 31  2  0
 36 35  1  0
 37 36  1  0
 39 40  1  0
 40 43  1  0
 40 42  1  0
 41 39  2  0
 44 45  1  0
 44 19  1  0
 46 44  1  0
 48 49  1  0
 48 47  1  0
 50 61  2  0
 51 49  1  0
 51 56  1  0
 52 60  1  0
 52 62  1  0
 53 59  1  0
 53 55  1  0
 54 60  1  0
 55 56  2  0
 55 54  1  0
 57 51  2  0
 58 57  1  0
 58 53  2  0
 59 52  1  0
 60 50  1  0
 62 64  2  0
 63 62  1  0
 65 63  1  0
 66 75  2  0
 66 71  1  0
 67 63  1  0
 67 71  1  0
 68 67  1  0
 69 70  1  0
 69 68  1  0
 70 66  1  0
 71 72  2  0
 72 73  1  0
 74 73  2  0
 75 74  1  0
 76 50  1  0
 76 77  1  0
 76 86  1  0
 77 80  1  0
 78 82  1  0
 78 77  1  0
 79 78  2  0
 82 81  1  0
 84 82  1  0
 84 85  1  0
 84 83  1  0
 86 89  1  1
 86 87  1  0
 88 86  1  0
M  ISO  4   9 100  11 100  48 101  49 101
M  END
>  <TORSDO>  (38) 
F 21

>  <SCORE>  (38) 
-15.081

>  <name>  (38) 
37

>  <ligand_id>  (38) 
37

>  <original_smiles>  (38) 
[H]C(C(=O)N1C([H])([H])C([H])([H])C([H])([H])C([H])(n2nc(-c3c([H])c([H])c(Oc4c([H])c([H])c(F)c([H])c4F)c([H])c3[H])c(C(=O)N([H])[H])c2N([H])[H])C1([H])[H])=C([H])C([H])(C([H])([H])[H])C([H])(N([H])C(=O)C([H])([H])[H])C([H])([H])C([H])([H])Oc1c([H])c([H])c2c(c1[H])C([H])([H])N(C(=O)C([H])(N([H])C(=O)C([H])(N([H])C([H])([H])[H])C([H])([H])[H])C(C([H])([H])[H])(C([H])([H])[H])C([H])([H])[H])C([H])(C(=O)N([H])C1([H])c3c([H])c([H])c([H])c([H])c3C([H])([H])C([H])([H])C1([H])[H])C2([H])[H]

>  <smiles>  (38) 
[H]C(C(=O)N1C([H])([H])C([H])([H])C([H])([H])C([H])(n2nc(-c3c([H])c([H])c(Oc4c([H])c([H])c(F)c([H])c4F)c([H])c3[H])c(C(=O)N([H])[H])c2N([H])[H])C1([H])[H])=C([H])C([H])(C([H])([H])[H])C([H])(N([H])C(=O)C([H])([H])[H])C([H])([H])C([H])([H])Oc1c([H])c([H])c2c(c1[H])C([H])([H])N(C(=O)C([H])(N([H])C(=O)C([H])(N([H])C([H])([H])[H])C([H])([H])[H])C(C([H])([H])[H])(C([H])([H])[H])C([H])([H])[H])C([H])(C(=O)N([H])C1([H])c3c([H])c([H])c([H])c([H])c3C([H])([H])C([H])([H])C1([H])[H])C2([H])[H]

$$$$
38:0:0
     RDKit          3D

 84 92  0  0  1  0  0  0  0  0999 V2000
  -28.7320  -21.1740   19.1650 C   0  0  0  0  0  2  0  0  0  0  0  0
  -28.7720  -20.2590   20.3720 C   0  0  0  0  0  3  0  0  0  0  0  0
  -28.8970  -22.1750   20.3000 C   0  0  0  0  0  3  0  0  0  0  0  0
  -29.4590  -17.1360   20.4330 C   0  0  0  0  0  3  0  0  0  0  0  0
  -29.6800  -18.6550   20.3110 C   0  0  0  0  0  0  0  0  0  0  0  0
  -31.1210  -19.0470   20.0380 C   0  0  0  0  0  1  0  0  0  0  0  0
  -30.3080  -15.6490   20.3530 C   0  0  0  0  0  0  0  0  0  0  0  0
  -30.4310  -13.0930   19.6000 C   0  0  0  0  0  2  0  0  0  0  0  0
  -29.5720  -12.7050   18.3630 C   0  0  0  0  0  2  0  0  0  0  0  0
  -28.1350  -12.3570   18.7780 C   0  0  0  0  0  2  0  0  0  0  0  0
  -27.5970  -13.3610   19.8240 C   0  0  0  0  0  3  0  0  0  0  0  0
  -28.5970  -13.6800   20.9570 C   0  0  0  0  0  2  0  0  0  0  0  0
  -29.8020  -14.2780   20.3400 N   0  0  0  0  0  0  0  0  0  0  0  0
  -31.5390  -15.5740   20.1720 O   0  0  0  0  0  0  0  0  0  0  0  0
  -25.2170  -13.8700   20.5470 C   0  0  0  0  0  0  0  0  0  0  0  0
  -24.1610  -13.0800   20.9010 C   0  0  0  0  0  0  0  0  0  0  0  0
  -24.6470  -11.7360   20.8870 C   0  0  0  0  0  0  0  0  0  0  0  0
  -26.2750  -13.0110   20.3230 N   0  0  0  0  0  0  0  0  0  0  0  0
  -25.9460  -11.7190   20.5970 N   0  0  0  0  0  0  0  0  0  0  0  0
  -23.9310  -10.4660   21.0720 C   0  0  0  0  0  0  0  0  0  0  0  0
  -24.3600   -9.5020   22.0100 C   0  0  0  0  0  3  0  0  0  0  0  0
  -23.6390   -8.3010   22.1850 C   0  0  0  0  0  3  0  0  0  0  0  0
  -22.4740   -8.0540   21.4210 C   0  0  0  0  0  0  0  0  0  0  0  0
  -22.0630   -9.0070   20.4720 C   0  0  0  0  0  3  0  0  0  0  0  0
  -22.7850  -10.2000   20.2960 C   0  0  0  0  0  3  0  0  0  0  0  0
  -21.7250   -6.9060   21.5050 O   0  0  0  0  0  0  0  0  0  0  0  0
  -21.6790   -6.1580   22.6540 C   0  0  0  0  0  0  0  0  0  0  0  0
  -21.2490   -6.7060   23.8830 C   0  0  0  0  0  3  0  0  0  0  0  0
  -21.1510   -5.8850   25.0240 C   0  0  0  0  0  3  0  0  0  0  0  0
  -21.4720   -4.5170   24.9380 C   0  0  0  0  0  0  0  0  0  0  0  0
  -21.8940   -3.9680   23.7130 C   0  0  0  0  0  3  0  0  0  0  0  0
  -21.9930   -4.7870   22.5750 C   0  0  0  0  0  0  0  0  0  0  0  0
  -22.3810   -4.2480   21.3930 F   0  0  0  0  0  0  0  0  0  0  0  0
  -21.3710   -3.7260   26.0320 F   0  0  0  0  0  0  0  0  0  0  0  0
  -22.7520  -13.5420   21.1350 C   0  0  0  0  0  0  0  0  0  0  0  0
  -22.0180  -12.8530   21.9990 N   0  0  0  0  0  0  0  0  0  0  0  0
  -22.3150  -14.5530   20.5880 O   0  0  0  0  0  0  0  0  0  0  0  0
  -22.3860  -12.0350   22.4640 H   0  0  0  0  0  0  0  0  0  0  0  0
  -21.0710  -13.1450   22.1990 H   0  0  0  0  0  0  0  0  0  0  0  0
  -25.3640  -15.2430   20.3640 N   0  0  0  0  0  0  0  0  0  0  0  0
  -24.5870  -15.8870   20.4610 H   0  0  0  0  0  0  0  0  0  0  0  0
  -26.2100  -15.6900   20.0380 H   0  0  0  0  0  0  0  0  0  0  0  0
  -27.9510  -23.8320   20.1820 C   0  0  0  0  0  2  0  0  0  0  0  0
  -28.1450  -25.5720   20.2700 O   0  0  0  0  0  0  0  0  0  0  0  0
  -24.6300  -31.8470   23.1590 C   0  0  0  0  0  0  0  0  0  0  0  0
  -27.1640  -26.7700   20.2070 C   0  0  0  0  0  0  0  0  0  0  0  0
  -23.4430  -30.4370   21.5310 C   0  0  0  0  0  3  0  0  0  0  0  0
  -24.8920  -28.7840   20.1310 C   0  0  0  0  0  0  0  0  0  0  0  0
  -26.0210  -30.5880   21.4070 C   0  0  0  0  0  2  0  0  0  0  0  0
  -26.0860  -29.1530   20.7610 C   0  0  0  0  0  0  0  0  0  0  0  0
  -27.2080  -28.1730   20.7650 C   0  0  0  0  0  3  0  0  0  0  0  0
  -25.9350  -26.6040   19.5210 C   0  0  0  0  0  3  0  0  0  0  0  0
  -24.8540  -27.5350   19.4870 C   0  0  0  0  0  3  0  0  0  0  0  0
  -23.6830  -29.7310   20.1650 C   0  0  0  0  0  2  0  0  0  0  0  0
  -24.7220  -30.9900   22.0850 N   0  0  0  0  0  0  0  0  0  0  0  0
  -23.5380  -32.1490   23.6680 O   0  0  0  0  0  0  0  0  0  0  0  0
  -22.7290  -29.4660   22.5090 C   0  0  0  0  0  0  0  0  0  0  0  0
  -21.3940  -29.3220   22.3950 N   0  0  0  0  0  0  0  0  0  0  0  0
  -23.3870  -28.8370   23.3420 O   0  0  0  0  0  0  0  0  0  0  0  0
  -20.9140  -29.8790   21.7020 H   0  0  0  0  0  0  0  0  0  0  0  0
  -18.0010  -28.1430   22.9390 C   0  0  0  0  0  0  0  0  0  0  0  0
  -20.5650  -28.3940   23.1750 C   0  0  0  0  0  3  0  0  0  0  0  0
  -20.6490  -26.9590   22.6040 C   0  0  0  0  0  2  0  0  0  0  0  0
  -19.5360  -26.6440   21.5990 C   0  0  0  0  0  2  0  0  0  0  0  0
  -18.1620  -26.7950   22.2560 C   0  0  0  0  0  2  0  0  0  0  0  0
  -19.1280  -28.9000   23.3560 C   0  0  0  0  0  0  0  0  0  0  0  0
  -18.9190  -30.1590   23.9610 C   0  0  0  0  0  3  0  0  0  0  0  0
  -17.6170  -30.6610   24.1480 C   0  0  0  0  0  3  0  0  0  0  0  0
  -16.5050  -29.9030   23.7430 C   0  0  0  0  0  3  0  0  0  0  0  0
  -16.6980  -28.6450   23.1450 C   0  0  0  0  0  3  0  0  0  0  0  0
  -25.8940  -32.5010   23.7960 C   0  0  0  0  0  3  0  0  0  0  0  0
  -25.5630  -33.8970   24.1460 N   0  0  0  0  0  0  0  0  0  0  0  0
  -25.8760  -34.9720   23.4110 C   0  0  0  0  0  0  0  0  0  0  0  0
  -26.5320  -34.8950   22.3690 O   0  0  0  0  0  0  0  0  0  0  0  0
  -24.9750  -34.0280   24.9550 H   0  0  0  0  0  0  0  0  0  0  0  0
  -24.1240  -36.7640   23.1350 C   0  0  0  0  0  1  0  0  0  0  0  0
  -25.3900  -36.3510   23.9050 C   0  0  0  0  0  3  0  0  0  0  0  0
  -27.5350  -37.2500   24.6970 C   0  0  0  0  0  1  0  0  0  0  0  0
  -26.4080  -37.4180   23.7820 N   0  0  0  0  0  0  0  0  0  0  0  0
  -25.9970  -38.3310   23.9520 H   0  0  0  0  0  0  0  0  0  0  0  0
  -26.4050  -31.7360   25.0790 C   0  0  1  0  0  0  0  0  0  0  0  0
  -25.3080  -31.5010   26.1450 C   0  0  0  0  0  1  0  0  0  0  0  0
  -26.9930  -30.3570   24.7070 C   0  0  0  0  0  1  0  0  0  0  0  0
  -27.5510  -32.5350   25.7440 C   0  0  0  0  0  1  0  0  0  0  0  0
  1  3  1  0
  1  2  1  0
  2  5  1  0
  3 43  1  0
  3  2  1  0
  5  4  2  0
  6  5  1  0
  7  4  1  0
  8 13  1  0
  9 10  1  0
  9  8  1  0
 11 10  1  0
 11 18  1  0
 11 12  1  0
 13  7  1  0
 13 12  1  0
 14  7  2  0
 15 16  2  0
 16 35  1  0
 17 16  1  0
 17 20  1  0
 18 15  1  0
 18 19  1  0
 19 17  2  0
 20 21  1  0
 21 22  2  0
 23 26  1  0
 23 22  1  0
 24 23  2  0
 25 24  1  0
 25 20  2  0
 26 27  1  0
 27 28  1  0
 28 29  2  0
 30 29  1  0
 30 34  1  0
 31 30  2  0
 32 27  2  0
 32 31  1  0
 33 32  1  0
 35 36  1  0
 36 39  1  0
 36 38  1  0
 37 35  2  0
 40 41  1  0
 40 15  1  0
 42 40  1  0
 43 44  1  0
 45 56  2  0
 46 44  1  0
 46 51  1  0
 47 55  1  0
 47 57  1  0
 48 54  1  0
 48 50  1  0
 49 55  1  0
 50 51  2  0
 50 49  1  0
 52 46  2  0
 53 52  1  0
 53 48  2  0
 54 47  1  0
 55 45  1  0
 57 59  2  0
 58 57  1  0
 60 58  1  0
 61 70  2  0
 61 66  1  0
 62 58  1  0
 62 66  1  0
 63 62  1  0
 64 65  1  0
 64 63  1  0
 65 61  1  0
 66 67  2  0
 67 68  1  0
 69 68  2  0
 70 69  1  0
 71 45  1  0
 71 72  1  0
 71 81  1  0
 72 75  1  0
 73 77  1  0
 73 72  1  0
 74 73  2  0
 77 76  1  0
 79 77  1  0
 79 80  1  0
 79 78  1  0
 81 84  1  1
 81 82  1  0
 83 81  1  0
M  ISO  4   4 100   7 100  43 101  44 101
M  END
>  <TORSDO>  (39) 
F 18

>  <SCORE>  (39) 
-16.441

>  <name>  (39) 
38

>  <ligand_id>  (39) 
38

>  <original_smiles>  (39) 
[H]C(C(=O)N1C([H])([H])C([H])([H])C([H])([H])C([H])(n2nc(-c3c([H])c([H])c(Oc4c([H])c([H])c(F)c([H])c4F)c([H])c3[H])c(C(=O)N([H])[H])c2N([H])[H])C1([H])[H])=C(C([H])([H])[H])C1([H])C([H])([H])C1([H])C([H])([H])Oc1c([H])c([H])c2c(c1[H])C([H])([H])N(C(=O)C([H])(N([H])C(=O)C([H])(N([H])C([H])([H])[H])C([H])([H])[H])C(C([H])([H])[H])(C([H])([H])[H])C([H])([H])[H])C([H])(C(=O)N([H])C1([H])c3c([H])c([H])c([H])c([H])c3C([H])([H])C([H])([H])C1([H])[H])C2([H])[H]

>  <smiles>  (39) 
[H]C(C(=O)N1C([H])([H])C([H])([H])C([H])([H])C([H])(n2nc(-c3c([H])c([H])c(Oc4c([H])c([H])c(F)c([H])c4F)c([H])c3[H])c(C(=O)N([H])[H])c2N([H])[H])C1([H])[H])=C(C([H])([H])[H])C1([H])C([H])([H])C1([H])C([H])([H])Oc1c([H])c([H])c2c(c1[H])C([H])([H])N(C(=O)C([H])(N([H])C(=O)C([H])(N([H])C([H])([H])[H])C([H])([H])[H])C(C([H])([H])[H])(C([H])([H])[H])C([H])([H])[H])C([H])(C(=O)N([H])C1([H])c3c([H])c([H])c([H])c([H])c3C([H])([H])C([H])([H])C1([H])[H])C2([H])[H]

$$$$
39:0:0
     RDKit          3D

 88 97  0  0  1  0  0  0  0  0999 V2000
  -29.2460  -21.5110   22.7770 C   0  0  0  0  0  2  0  0  0  0  0  0
  -28.3640  -20.9340   21.9480 C   0  0  0  0  0  2  0  0  0  0  0  0
  -30.3100  -21.9000   20.0580 C   0  0  0  0  0  3  0  0  0  0  0  0
  -30.0420  -23.3680   19.8620 C   0  0  0  0  0  2  0  0  0  0  0  0
  -31.2720  -21.6510   21.2190 C   0  0  0  0  0  2  0  0  0  0  0  0
  -30.4400  -20.7810   22.1700 C   0  0  0  0  0  3  0  0  0  0  0  0
  -29.4100  -20.0070   21.3420 C   0  0  0  0  0  3  0  0  0  0  0  0
  -29.8030  -20.2190   19.8730 C   0  0  0  0  0  3  0  0  0  0  0  0
  -30.5010  -17.2640   19.9300 C   0  0  0  0  0  3  0  0  0  0  0  0
  -30.7210  -18.7170   19.6720 C   0  0  0  0  0  3  0  0  0  0  0  0
  -31.3600  -15.8710   19.8240 C   0  0  0  0  0  0  0  0  0  0  0  0
  -31.3970  -13.3330   19.2210 C   0  0  0  0  0  2  0  0  0  0  0  0
  -30.4760  -12.9940   18.0180 C   0  0  0  0  0  2  0  0  0  0  0  0
  -29.0310  -12.7450   18.4840 C   0  0  0  0  0  2  0  0  0  0  0  0
  -28.5720  -13.7940   19.5260 C   0  0  0  0  0  3  0  0  0  0  0  0
  -29.6240  -14.0620   20.6210 C   0  0  0  0  0  2  0  0  0  0  0  0
  -30.8430  -14.5390   19.9470 N   0  0  0  0  0  0  0  0  0  0  0  0
  -32.5660  -15.8450   19.5360 O   0  0  0  0  0  0  0  0  0  0  0  0
  -26.2660  -14.4000   20.4200 C   0  0  0  0  0  0  0  0  0  0  0  0
  -25.1880  -13.6470   20.7940 C   0  0  0  0  0  0  0  0  0  0  0  0
  -25.5960  -12.2840   20.6700 C   0  0  0  0  0  0  0  0  0  0  0  0
  -27.2560  -13.5000   20.0780 N   0  0  0  0  0  0  0  0  0  0  0  0
  -26.8690  -12.2150   20.2960 N   0  0  0  0  0  0  0  0  0  0  0  0
  -24.8220  -11.0440   20.8250 C   0  0  0  0  0  0  0  0  0  0  0  0
  -25.1620  -10.0740   21.7950 C   0  0  0  0  0  3  0  0  0  0  0  0
  -24.3870   -8.9020   21.9390 C   0  0  0  0  0  3  0  0  0  0  0  0
  -23.2580   -8.6910   21.1130 C   0  0  0  0  0  0  0  0  0  0  0  0
  -22.9360   -9.6490   20.1330 C   0  0  0  0  0  3  0  0  0  0  0  0
  -23.7110  -10.8110   19.9870 C   0  0  0  0  0  3  0  0  0  0  0  0
  -22.4640   -7.5710   21.1630 O   0  0  0  0  0  0  0  0  0  0  0  0
  -22.1370   -6.9730   22.3540 C   0  0  0  0  0  0  0  0  0  0  0  0
  -21.4660   -7.6740   23.3810 C   0  0  0  0  0  3  0  0  0  0  0  0
  -21.0880   -7.0010   24.5590 C   0  0  0  0  0  3  0  0  0  0  0  0
  -21.3710   -5.6300   24.7120 C   0  0  0  0  0  0  0  0  0  0  0  0
  -22.0380   -4.9310   23.6900 C   0  0  0  0  0  3  0  0  0  0  0  0
  -22.4170   -5.6010   22.5140 C   0  0  0  0  0  0  0  0  0  0  0  0
  -23.0380   -4.9160   21.5230 F   0  0  0  0  0  0  0  0  0  0  0  0
  -21.0030   -4.9830   25.8430 F   0  0  0  0  0  0  0  0  0  0  0  0
  -23.8250  -14.1680   21.1470 C   0  0  0  0  0  0  0  0  0  0  0  0
  -23.1180  -13.4800   22.0360 N   0  0  0  0  0  0  0  0  0  0  0  0
  -23.4020  -15.2200   20.6720 O   0  0  0  0  0  0  0  0  0  0  0  0
  -23.4760  -12.6290   22.4430 H   0  0  0  0  0  0  0  0  0  0  0  0
  -22.2080  -13.8130   22.3170 H   0  0  0  0  0  0  0  0  0  0  0  0
  -26.4770  -15.7720   20.3130 N   0  0  0  0  0  0  0  0  0  0  0  0
  -25.7440  -16.4460   20.5060 H   0  0  0  0  0  0  0  0  0  0  0  0
  -27.3270  -16.2010   19.9720 H   0  0  0  0  0  0  0  0  0  0  0  0
  -29.0730  -24.7060   19.2860 C   0  0  0  0  0  2  0  0  0  0  0  0
  -29.0920  -26.3010   19.7760 O   0  0  0  0  0  0  0  0  0  0  0  0
  -24.8590  -31.6290   23.1260 C   0  0  0  0  0  0  0  0  0  0  0  0
  -27.9870  -27.3180   19.7630 C   0  0  0  0  0  0  0  0  0  0  0  0
  -23.8710  -30.3030   21.3030 C   0  0  0  0  0  3  0  0  0  0  0  0
  -25.5210  -28.9920   19.7950 C   0  0  0  0  0  0  0  0  0  0  0  0
  -26.4110  -30.7560   21.3040 C   0  0  0  0  0  2  0  0  0  0  0  0
  -26.6400  -29.4320   20.5110 C   0  0  0  0  0  0  0  0  0  0  0  0
  -27.8640  -28.6190   20.4720 C   0  0  0  0  0  3  0  0  0  0  0  0
  -26.8240  -27.0390   19.0090 C   0  0  0  0  0  3  0  0  0  0  0  0
  -25.6380  -27.8220   19.0270 C   0  0  0  0  0  3  0  0  0  0  0  0
  -24.2190  -29.7930   19.8780 C   0  0  0  0  0  2  0  0  0  0  0  0
  -25.0640  -30.9200   21.9670 N   0  0  0  0  0  0  0  0  0  0  0  0
  -23.7270  -31.7620   23.6190 O   0  0  0  0  0  0  0  0  0  0  0  0
  -23.2400  -29.1540   22.1320 C   0  0  0  0  0  0  0  0  0  0  0  0
  -21.9410  -28.8730   21.9210 N   0  0  0  0  0  0  0  0  0  0  0  0
  -23.9290  -28.5190   22.9350 O   0  0  0  0  0  0  0  0  0  0  0  0
  -21.4330  -29.4400   21.2570 H   0  0  0  0  0  0  0  0  0  0  0  0
  -18.6670  -27.3290   22.1840 C   0  0  0  0  0  0  0  0  0  0  0  0
  -21.1860  -27.7870   22.5570 C   0  0  0  0  0  3  0  0  0  0  0  0
  -21.4300  -26.4430   21.8310 C   0  0  0  0  0  2  0  0  0  0  0  0
  -20.3840  -26.1430   20.7520 C   0  0  0  0  0  2  0  0  0  0  0  0
  -18.9810  -26.0880   21.3650 C   0  0  0  0  0  2  0  0  0  0  0  0
  -19.7020  -28.1340   22.7310 C   0  0  0  0  0  0  0  0  0  0  0  0
  -19.3530  -29.2900   23.4610 C   0  0  0  0  0  3  0  0  0  0  0  0
  -18.0050  -29.6470   23.6480 C   0  0  0  0  0  3  0  0  0  0  0  0
  -16.9850  -28.8390   23.1150 C   0  0  0  0  0  3  0  0  0  0  0  0
  -17.3160  -27.6810   22.3900 C   0  0  0  0  0  3  0  0  0  0  0  0
  -26.0350  -32.3220   23.8800 C   0  0  0  0  0  3  0  0  0  0  0  0
  -25.6340  -33.7110   24.1680 N   0  0  0  0  0  0  0  0  0  0  0  0
  -25.9780  -34.7790   23.4340 C   0  0  0  0  0  0  0  0  0  0  0  0
  -26.7280  -34.6990   22.4580 O   0  0  0  0  0  0  0  0  0  0  0  0
  -24.9720  -33.8410   24.9190 H   0  0  0  0  0  0  0  0  0  0  0  0
  -24.2030  -36.5010   22.9590 C   0  0  0  0  0  1  0  0  0  0  0  0
  -25.4070  -36.1500   23.8490 C   0  0  0  0  0  3  0  0  0  0  0  0
  -27.4350  -37.1440   24.8140 C   0  0  0  0  0  1  0  0  0  0  0  0
  -26.4010  -37.2440   23.7880 N   0  0  0  0  0  0  0  0  0  0  0  0
  -25.9490  -38.1500   23.8780 H   0  0  0  0  0  0  0  0  0  0  0  0
  -26.4290  -31.5850   25.2190 C   0  0  1  0  0  0  0  0  0  0  0  0
  -25.2320  -31.3120   26.1610 C   0  0  0  0  0  1  0  0  0  0  0  0
  -27.1080  -30.2280   24.9270 C   0  0  0  0  0  1  0  0  0  0  0  0
  -27.4630  -32.4320   25.9980 C   0  0  0  0  0  1  0  0  0  0  0  0
  2  1  1  0
  3  4  1  0
  3  5  1  0
  6  5  1  0
  6  1  1  0
  7  2  1  0
  7  6  1  0
  8 10  1  0
  8  3  1  0
  8  7  1  0
 10  9  2  0
 11  9  1  0
 11 17  1  0
 12 17  1  0
 13 14  1  0
 13 12  1  0
 15 14  1  0
 15 22  1  0
 15 16  1  0
 17 16  1  0
 18 11  2  0
 19 20  2  0
 20 39  1  0
 21 20  1  0
 21 24  1  0
 22 23  1  0
 22 19  1  0
 23 21  2  0
 24 25  1  0
 25 26  2  0
 27 30  1  0
 27 26  1  0
 28 27  2  0
 29 28  1  0
 29 24  2  0
 30 31  1  0
 31 36  2  0
 31 32  1  0
 32 33  2  0
 33 34  1  0
 34 38  1  0
 35 34  2  0
 36 35  1  0
 37 36  1  0
 39 40  1  0
 40 43  1  0
 40 42  1  0
 41 39  2  0
 44 19  1  0
 44 45  1  0
 46 44  1  0
 47 48  1  0
 47  4  1  0
 49 60  2  0
 50 48  1  0
 50 55  1  0
 51 59  1  0
 51 61  1  0
 52 58  1  0
 52 54  1  0
 53 59  1  0
 54 53  1  0
 55 54  2  0
 56 57  1  0
 56 50  2  0
 57 52  2  0
 58 51  1  0
 59 49  1  0
 61 63  2  0
 62 61  1  0
 64 62  1  0
 65 74  2  0
 65 70  1  0
 66 62  1  0
 66 70  1  0
 67 66  1  0
 68 69  1  0
 68 67  1  0
 69 65  1  0
 70 71  2  0
 71 72  1  0
 73 72  2  0
 74 73  1  0
 75 49  1  0
 75 76  1  0
 75 85  1  0
 76 79  1  0
 77 81  1  0
 77 76  1  0
 78 77  2  0
 81 80  1  0
 83 81  1  0
 83 84  1  0
 83 82  1  0
 85 88  1  1
 85 86  1  0
 87 85  1  0
M  ISO  4   9 100  11 100  47 101  48 101
M  END
>  <TORSDO>  (40) 
F 18

>  <SCORE>  (40) 
-11.866

>  <name>  (40) 
39

>  <ligand_id>  (40) 
39

>  <original_smiles>  (40) 
[H]C(C(=O)N1C([H])([H])C([H])([H])C([H])([H])C([H])(n2nc(-c3c([H])c([H])c(Oc4c([H])c([H])c(F)c([H])c4F)c([H])c3[H])c(C(=O)N([H])[H])c2N([H])[H])C1([H])[H])=C([H])C1([H])C(=C([H])C([H])([H])Oc2c([H])c([H])c3c(c2[H])C([H])([H])N(C(=O)C([H])(N([H])C(=O)C([H])(N([H])C([H])([H])[H])C([H])([H])[H])C(C([H])([H])[H])(C([H])([H])[H])C([H])([H])[H])C([H])(C(=O)N([H])C2([H])c4c([H])c([H])c([H])c([H])c4C([H])([H])C([H])([H])C2([H])[H])C3([H])[H])C([H])([H])C2([H])C([H])=C([H])C12[H]

>  <smiles>  (40) 
[H]C(C(=O)N1C([H])([H])C([H])([H])C([H])([H])C([H])(n2nc(-c3c([H])c([H])c(Oc4c([H])c([H])c(F)c([H])c4F)c([H])c3[H])c(C(=O)N([H])[H])c2N([H])[H])C1([H])[H])=C([H])C1([H])C(=C([H])C([H])([H])Oc2c([H])c([H])c3c(c2[H])C([H])([H])N(C(=O)C([H])(N([H])C(=O)C([H])(N([H])C([H])([H])[H])C([H])([H])[H])C(C([H])([H])[H])(C([H])([H])[H])C([H])([H])[H])C([H])(C(=O)N([H])C2([H])c4c([H])c([H])c([H])c([H])c4C([H])([H])C([H])([H])C2([H])[H])C3([H])[H])C([H])([H])C2([H])C([H])=C([H])C12[H]

$$$$
40:0:0
     RDKit          3D

 89 96  0  0  1  0  0  0  0  0999 V2000
  -29.4720  -20.4740   20.3000 N   0  0  0  0  0  4  0  0  0  0  0  0
  -30.2810  -20.6600   20.8720 H   0  0  0  0  0  0  0  0  0  0  0  0
  -29.7950  -20.5090   19.3480 H   0  0  0  0  0  0  0  0  0  0  0  0
  -27.6610  -18.6460   20.0770 C   0  0  0  0  0  1  0  0  0  0  0  0
  -29.0760  -18.9590   20.5960 C   0  0  0  0  0  3  0  0  0  0  0  0
  -30.5060  -17.8210   18.7240 C   0  0  0  0  0  1  0  0  0  0  0  0
  -30.1090  -17.6770   20.2050 C   0  0  0  0  0  3  0  0  0  0  0  0
  -30.5440  -14.9620   20.2940 C   0  0  0  0  0  0  0  0  0  0  0  0
  -30.4080  -12.6310   19.3200 C   0  0  0  0  0  2  0  0  0  0  0  0
  -29.4670  -12.6110   18.0940 C   0  0  0  0  0  2  0  0  0  0  0  0
  -28.0070  -12.3950   18.5380 C   0  0  0  0  0  2  0  0  0  0  0  0
  -27.6090  -13.3050   19.7300 C   0  0  0  0  0  3  0  0  0  0  0  0
  -28.6710  -13.2990   20.8490 C   0  0  0  0  0  2  0  0  0  0  0  0
  -29.9400  -13.7100   20.2380 N   0  0  0  0  0  0  0  0  0  0  0  0
  -31.7410  -15.0250   19.9940 O   0  0  0  0  0  0  0  0  0  0  0  0
  -29.7770  -16.1490   20.4600 N   0  0  0  0  0  0  0  0  0  0  0  0
  -28.8150  -15.9670   20.7050 H   0  0  0  0  0  0  0  0  0  0  0  0
  -25.2270  -13.8610   20.4900 C   0  0  0  0  0  0  0  0  0  0  0  0
  -24.1730  -13.0760   20.8640 C   0  0  0  0  0  0  0  0  0  0  0  0
  -24.6480  -11.7290   20.8230 C   0  0  0  0  0  0  0  0  0  0  0  0
  -26.2760  -12.9930   20.2360 N   0  0  0  0  0  0  0  0  0  0  0  0
  -25.9370  -11.7060   20.5020 N   0  0  0  0  0  0  0  0  0  0  0  0
  -23.9340  -10.4600   21.0100 C   0  0  0  0  0  0  0  0  0  0  0  0
  -24.3620   -9.5010   21.9550 C   0  0  0  0  0  3  0  0  0  0  0  0
  -23.6450   -8.2980   22.1300 C   0  0  0  0  0  3  0  0  0  0  0  0
  -22.4860   -8.0440   21.3590 C   0  0  0  0  0  0  0  0  0  0  0  0
  -22.0770   -8.9910   20.4030 C   0  0  0  0  0  3  0  0  0  0  0  0
  -22.7950  -10.1860   20.2270 C   0  0  0  0  0  3  0  0  0  0  0  0
  -21.7390   -6.8940   21.4430 O   0  0  0  0  0  0  0  0  0  0  0  0
  -21.6630   -6.1690   22.6060 C   0  0  0  0  0  0  0  0  0  0  0  0
  -21.1610   -6.7280   23.8010 C   0  0  0  0  0  3  0  0  0  0  0  0
  -21.0350   -5.9270   24.9540 C   0  0  0  0  0  3  0  0  0  0  0  0
  -21.4010   -4.5680   24.9110 C   0  0  0  0  0  0  0  0  0  0  0  0
  -21.8950   -4.0090   23.7190 C   0  0  0  0  0  3  0  0  0  0  0  0
  -22.0230   -4.8070   22.5700 C   0  0  0  0  0  0  0  0  0  0  0  0
  -22.4800   -4.2570   21.4180 F   0  0  0  0  0  0  0  0  0  0  0  0
  -21.2730   -3.7970   26.0160 F   0  0  0  0  0  0  0  0  0  0  0  0
  -22.7730  -13.5400   21.1440 C   0  0  0  0  0  0  0  0  0  0  0  0
  -22.0560  -12.8380   22.0130 N   0  0  0  0  0  0  0  0  0  0  0  0
  -22.3260  -14.5620   20.6260 O   0  0  0  0  0  0  0  0  0  0  0  0
  -22.4310  -12.0110   22.4530 H   0  0  0  0  0  0  0  0  0  0  0  0
  -21.1160  -13.1320   22.2410 H   0  0  0  0  0  0  0  0  0  0  0  0
  -25.3760  -15.2340   20.3160 N   0  0  0  0  0  0  0  0  0  0  0  0
  -24.5920  -15.8690   20.4190 H   0  0  0  0  0  0  0  0  0  0  0  0
  -26.1890  -15.6720   19.9040 H   0  0  0  0  0  0  0  0  0  0  0  0
  -28.4990  -21.7210   20.4710 C   0  0  0  0  0  2  0  0  0  0  0  0
  -28.9680  -23.3410   20.3210 C   0  0  0  0  0  3  0  0  0  0  0  0
  -27.9120  -24.6550   20.2630 C   0  0  0  0  0  3  0  0  0  0  0  0
  -28.2220  -26.1860   20.2700 O   0  0  0  0  0  0  0  0  0  0  0  0
  -24.6020  -31.8750   23.2570 C   0  0  0  0  0  0  0  0  0  0  0  0
  -27.1670  -27.1700   20.2130 C   0  0  0  0  0  0  0  0  0  0  0  0
  -23.4000  -30.4890   21.6130 C   0  0  0  0  0  3  0  0  0  0  0  0
  -24.8430  -28.9200   20.1840 C   0  0  0  0  0  0  0  0  0  0  0  0
  -25.9550  -30.7510   21.4500 C   0  0  0  0  0  2  0  0  0  0  0  0
  -26.0240  -29.3630   20.7920 C   0  0  0  0  0  0  0  0  0  0  0  0
  -27.1890  -28.5050   20.7870 C   0  0  0  0  0  3  0  0  0  0  0  0
  -25.9580  -26.8340   19.5630 C   0  0  0  0  0  3  0  0  0  0  0  0
  -24.8230  -27.6700   19.5540 C   0  0  0  0  0  3  0  0  0  0  0  0
  -23.6180  -29.8190   20.2310 C   0  0  0  0  0  2  0  0  0  0  0  0
  -24.6720  -31.0610   22.1600 N   0  0  0  0  0  0  0  0  0  0  0  0
  -23.5170  -32.1570   23.7880 O   0  0  0  0  0  0  0  0  0  0  0  0
  -22.7190  -29.4800   22.5710 C   0  0  0  0  0  0  0  0  0  0  0  0
  -21.3910  -29.3070   22.4410 N   0  0  0  0  0  0  0  0  0  0  0  0
  -23.3880  -28.8530   23.3980 O   0  0  0  0  0  0  0  0  0  0  0  0
  -20.9100  -29.8590   21.7440 H   0  0  0  0  0  0  0  0  0  0  0  0
  -18.0060  -28.1100   22.9270 C   0  0  0  0  0  0  0  0  0  0  0  0
  -20.5650  -28.3700   23.2060 C   0  0  0  0  0  3  0  0  0  0  0  0
  -20.6700  -26.9390   22.6300 C   0  0  0  0  0  2  0  0  0  0  0  0
  -19.5710  -26.6180   21.6100 C   0  0  0  0  0  2  0  0  0  0  0  0
  -18.1870  -26.7630   22.2490 C   0  0  0  0  0  2  0  0  0  0  0  0
  -19.1240  -28.8720   23.3610 C   0  0  0  0  0  0  0  0  0  0  0  0
  -18.9020  -30.1330   23.9560 C   0  0  0  0  0  3  0  0  0  0  0  0
  -17.5970  -30.6320   24.1230 C   0  0  0  0  0  3  0  0  0  0  0  0
  -16.4940  -29.8680   23.7050 C   0  0  0  0  0  3  0  0  0  0  0  0
  -16.6990  -28.6090   23.1120 C   0  0  0  0  0  3  0  0  0  0  0  0
  -25.8810  -32.5070   23.8860 C   0  0  0  0  0  3  0  0  0  0  0  0
  -25.5740  -33.9090   24.2120 N   0  0  0  0  0  0  0  0  0  0  0  0
  -25.8980  -34.9580   23.4480 C   0  0  0  0  0  0  0  0  0  0  0  0
  -26.5520  -34.8510   22.4070 O   0  0  0  0  0  0  0  0  0  0  0  0
  -24.9940  -34.0670   25.0230 H   0  0  0  0  0  0  0  0  0  0  0  0
  -24.1630  -36.7560   23.1250 C   0  0  0  0  0  1  0  0  0  0  0  0
  -25.4220  -36.3520   23.9090 C   0  0  0  0  0  3  0  0  0  0  0  0
  -27.5710  -37.2470   24.6940 C   0  0  0  0  0  1  0  0  0  0  0  0
  -26.4520  -37.4060   23.7690 N   0  0  0  0  0  0  0  0  0  0  0  0
  -26.0460  -38.3270   23.9130 H   0  0  0  0  0  0  0  0  0  0  0  0
  -26.3830  -31.7400   25.1730 C   0  0  1  0  0  0  0  0  0  0  0  0
  -25.2790  -31.5150   26.2330 C   0  0  0  0  0  1  0  0  0  0  0  0
  -26.9620  -30.3570   24.7980 C   0  0  0  0  0  1  0  0  0  0  0  0
  -27.5310  -32.5320   25.8390 C   0  0  0  0  0  1  0  0  0  0  0  0
  1 46  1  0
  1  5  1  0
  1  2  1  0
  3  1  1  0
  5  4  1  0
  7  6  1  0
  7 16  1  0
  7  5  1  0
  8 16  1  0
  9 14  1  0
 10 11  1  0
 10  9  1  0
 12 11  1  0
 12 21  1  0
 12 13  1  0
 14  8  1  0
 14 13  1  0
 15  8  2  0
 16 17  1  0
 18 19  2  0
 19 38  1  0
 20 19  1  0
 20 23  1  0
 21 18  1  0
 21 22  1  0
 22 20  2  0
 23 24  1  0
 24 25  2  0
 26 29  1  0
 26 25  1  0
 27 26  2  0
 28 27  1  0
 28 23  2  0
 29 30  1  0
 30 31  1  0
 31 32  2  0
 33 32  1  0
 33 37  1  0
 34 33  2  0
 35 30  2  0
 35 34  1  0
 36 35  1  0
 38 39  1  0
 39 42  1  0
 39 41  1  0
 40 38  2  0
 43 44  1  0
 43 18  1  0
 45 43  1  0
 47 46  1  0
 48 49  1  0
 48 47  2  0
 50 61  2  0
 51 49  1  0
 51 56  1  0
 52 60  1  0
 52 62  1  0
 53 59  1  0
 53 55  1  0
 54 60  1  0
 55 54  1  0
 56 55  2  0
 57 51  2  0
 58 57  1  0
 58 53  2  0
 59 52  1  0
 60 50  1  0
 62 64  2  0
 63 62  1  0
 65 63  1  0
 66 75  2  0
 66 71  1  0
 67 63  1  0
 67 71  1  0
 68 67  1  0
 69 70  1  0
 69 68  1  0
 70 66  1  0
 71 72  2  0
 72 73  1  0
 74 73  2  0
 75 74  1  0
 76 50  1  0
 76 77  1  0
 76 86  1  0
 77 80  1  0
 78 82  1  0
 78 77  1  0
 79 78  2  0
 82 81  1  0
 84 82  1  0
 84 85  1  0
 84 83  1  0
 86 89  1  1
 86 87  1  0
 88 86  1  0
M  ISO  4   8 100  16 100  48 101  49 101
M  END
>  <TORSDO>  (41) 
F 21

>  <SCORE>  (41) 
-13.351

>  <name>  (41) 
40

>  <ligand_id>  (41) 
40

>  <original_smiles>  (41) 
[H]c1c([H])c([H])c2c(c1[H])C([H])([H])C([H])([H])C([H])([H])C2([H])N([H])C(=O)C1([H])N(C(=O)C([H])(N([H])C(=O)C([H])(N([H])C([H])([H])[H])C([H])([H])[H])C(C([H])([H])[H])(C([H])([H])[H])C([H])([H])[H])C([H])([H])c2c([H])c(OC([H])([H])C([H])([H])C([H])([H])[N+]([H])([H])C([H])(C([H])([H])[H])C([H])(N([H])C(=O)N3C([H])([H])C([H])([H])C([H])([H])C([H])(n4nc(-c5c([H])c([H])c(Oc6c([H])c([H])c(F)c([H])c6F)c([H])c5[H])c(C(=O)N([H])[H])c4N([H])[H])C3([H])[H])C([H])([H])[H])c([H])c([H])c2C1([H])[H]

>  <smiles>  (41) 
[H]c1c([H])c([H])c2c(c1[H])C([H])([H])C([H])([H])C([H])([H])C2([H])N([H])C(=O)C1([H])N(C(=O)C([H])(N([H])C(=O)C([H])(N([H])C([H])([H])[H])C([H])([H])[H])C(C([H])([H])[H])(C([H])([H])[H])C([H])([H])[H])C([H])([H])c2c([H])c(OC([H])([H])C([H])([H])C([H])([H])[N+]([H])([H])C([H])(C([H])([H])[H])C([H])(N([H])C(=O)N3C([H])([H])C([H])([H])C([H])([H])C([H])(n4nc(-c5c([H])c([H])c(Oc6c([H])c([H])c(F)c([H])c6F)c([H])c5[H])c(C(=O)N([H])[H])c4N([H])[H])C3([H])[H])C([H])([H])[H])c([H])c([H])c2C1([H])[H]

$$$$
41:0:0
     RDKit          3D

 86 94  0  0  1  0  0  0  0  0999 V2000
  -28.6250  -23.6990   21.4130 C   0  0  0  0  0  2  0  0  0  0  0  0
  -28.9040  -22.7850   20.2320 C   0  0  0  0  0  3  0  0  0  0  0  0
  -27.9790  -24.3140   20.1980 C   0  0  0  0  0  3  0  0  0  0  0  0
  -28.6510  -19.7690   20.3800 C   0  0  0  0  0  0  0  0  0  0  0  0
  -28.4280  -21.2410   20.3990 N   0  0  0  0  0  0  0  0  0  0  0  0
  -27.5720  -19.2130   20.5790 O   0  0  0  0  0  0  0  0  0  0  0  0
  -27.4360  -21.3000   20.5860 H   0  0  0  0  0  0  0  0  0  0  0  0
  -29.8380  -18.5270   20.2130 C   0  0  0  0  0  3  0  0  0  0  0  0
  -29.5700  -16.7720   20.4910 C   0  0  0  0  0  3  0  0  0  0  0  0
  -30.4410  -15.2860   20.1950 C   0  0  0  0  0  0  0  0  0  0  0  0
  -30.4410  -12.8500   19.2960 C   0  0  0  0  0  2  0  0  0  0  0  0
  -29.4930  -12.6920   18.0780 C   0  0  0  0  0  2  0  0  0  0  0  0
  -28.0490  -12.4190   18.5340 C   0  0  0  0  0  2  0  0  0  0  0  0
  -27.6220  -13.3580   19.6900 C   0  0  0  0  0  3  0  0  0  0  0  0
  -28.6900  -13.4640   20.7980 C   0  0  0  0  0  2  0  0  0  0  0  0
  -29.9260  -13.9610   20.1720 N   0  0  0  0  0  0  0  0  0  0  0  0
  -31.6390  -15.3340   19.8780 O   0  0  0  0  0  0  0  0  0  0  0  0
  -25.2630  -13.9010   20.4990 C   0  0  0  0  0  0  0  0  0  0  0  0
  -24.2110  -13.1150   20.8790 C   0  0  0  0  0  0  0  0  0  0  0  0
  -24.6800  -11.7670   20.8180 C   0  0  0  0  0  0  0  0  0  0  0  0
  -26.3030  -13.0320   20.2190 N   0  0  0  0  0  0  0  0  0  0  0  0
  -25.9660  -11.7410   20.4790 N   0  0  0  0  0  0  0  0  0  0  0  0
  -23.9600  -10.4990   21.0050 C   0  0  0  0  0  0  0  0  0  0  0  0
  -24.3930   -9.5340   21.9400 C   0  0  0  0  0  3  0  0  0  0  0  0
  -23.6720   -8.3340   22.1170 C   0  0  0  0  0  3  0  0  0  0  0  0
  -22.5020   -8.0900   21.3580 C   0  0  0  0  0  0  0  0  0  0  0  0
  -22.0890   -9.0440   20.4100 C   0  0  0  0  0  3  0  0  0  0  0  0
  -22.8110  -10.2350   20.2320 C   0  0  0  0  0  3  0  0  0  0  0  0
  -21.7530   -6.9420   21.4430 O   0  0  0  0  0  0  0  0  0  0  0  0
  -21.6730   -6.2170   22.6050 C   0  0  0  0  0  0  0  0  0  0  0  0
  -21.2010   -6.7880   23.8080 C   0  0  0  0  0  3  0  0  0  0  0  0
  -21.0690   -5.9900   24.9620 C   0  0  0  0  0  3  0  0  0  0  0  0
  -21.4000   -4.6230   24.9150 C   0  0  0  0  0  0  0  0  0  0  0  0
  -21.8660   -4.0520   23.7180 C   0  0  0  0  0  3  0  0  0  0  0  0
  -21.9990   -4.8470   22.5650 C   0  0  0  0  0  0  0  0  0  0  0  0
  -22.4280   -4.2860   21.4090 F   0  0  0  0  0  0  0  0  0  0  0  0
  -21.2680   -3.8550   26.0210 F   0  0  0  0  0  0  0  0  0  0  0  0
  -22.8180  -13.5830   21.1830 C   0  0  0  0  0  0  0  0  0  0  0  0
  -22.1120  -12.8770   22.0590 N   0  0  0  0  0  0  0  0  0  0  0  0
  -22.3660  -14.6110   20.6800 O   0  0  0  0  0  0  0  0  0  0  0  0
  -22.4920  -12.0460   22.4870 H   0  0  0  0  0  0  0  0  0  0  0  0
  -21.1760  -13.1710   22.3050 H   0  0  0  0  0  0  0  0  0  0  0  0
  -25.4190  -15.2750   20.3420 N   0  0  0  0  0  0  0  0  0  0  0  0
  -24.6590  -15.9290   20.4930 H   0  0  0  0  0  0  0  0  0  0  0  0
  -26.2690  -15.7240   20.0270 H   0  0  0  0  0  0  0  0  0  0  0  0
  -28.2330  -25.9350   20.2650 O   0  0  0  0  0  0  0  0  0  0  0  0
  -24.6740  -31.8740   23.2420 C   0  0  0  0  0  0  0  0  0  0  0  0
  -27.2100  -27.0140   20.2180 C   0  0  0  0  0  0  0  0  0  0  0  0
  -23.4700  -30.4830   21.6060 C   0  0  0  0  0  3  0  0  0  0  0  0
  -24.9080  -28.8790   20.1780 C   0  0  0  0  0  0  0  0  0  0  0  0
  -26.0330  -30.6960   21.4480 C   0  0  0  0  0  2  0  0  0  0  0  0
  -26.0980  -29.2870   20.7950 C   0  0  0  0  0  0  0  0  0  0  0  0
  -27.2430  -28.3750   20.7910 C   0  0  0  0  0  3  0  0  0  0  0  0
  -25.9910  -26.7520   19.5520 C   0  0  0  0  0  3  0  0  0  0  0  0
  -24.8780  -27.6300   19.5390 C   0  0  0  0  0  3  0  0  0  0  0  0
  -23.6900  -29.8000   20.2280 C   0  0  0  0  0  2  0  0  0  0  0  0
  -24.7470  -31.0440   22.1530 N   0  0  0  0  0  0  0  0  0  0  0  0
  -23.5870  -32.1660   23.7670 O   0  0  0  0  0  0  0  0  0  0  0  0
  -22.7780  -29.4870   22.5740 C   0  0  0  0  0  0  0  0  0  0  0  0
  -21.4490  -29.3220   22.4510 N   0  0  0  0  0  0  0  0  0  0  0  0
  -23.4450  -28.8630   23.4020 O   0  0  0  0  0  0  0  0  0  0  0  0
  -20.9630  -29.8770   21.7600 H   0  0  0  0  0  0  0  0  0  0  0  0
  -18.0670  -28.1120   22.9600 C   0  0  0  0  0  0  0  0  0  0  0  0
  -20.6260  -28.3860   23.2250 C   0  0  0  0  0  3  0  0  0  0  0  0
  -20.7310  -26.9510   22.6560 C   0  0  0  0  0  2  0  0  0  0  0  0
  -19.6310  -26.6230   21.6420 C   0  0  0  0  0  2  0  0  0  0  0  0
  -18.2480  -26.7640   22.2840 C   0  0  0  0  0  2  0  0  0  0  0  0
  -19.1830  -28.8810   23.3870 C   0  0  0  0  0  0  0  0  0  0  0  0
  -18.9560  -30.1410   23.9810 C   0  0  0  0  0  3  0  0  0  0  0  0
  -17.6480  -30.6340   24.1510 C   0  0  0  0  0  3  0  0  0  0  0  0
  -16.5480  -29.8630   23.7370 C   0  0  0  0  0  3  0  0  0  0  0  0
  -16.7580  -28.6040   23.1480 C   0  0  0  0  0  3  0  0  0  0  0  0
  -25.9490  -32.5120   23.8710 C   0  0  0  0  0  3  0  0  0  0  0  0
  -26.4630  -31.7370   25.1490 C   0  0  1  0  0  0  0  0  0  0  0  0
  -25.3690  -31.5020   26.2150 C   0  0  0  0  0  1  0  0  0  0  0  0
  -27.0430  -30.3580   24.7620 C   0  0  0  0  0  1  0  0  0  0  0  0
  -27.6160  -32.5270   25.8120 C   0  0  0  0  0  1  0  0  0  0  0  0
  -25.6340  -33.9090   24.2190 N   0  0  0  0  0  0  0  0  0  0  0  0
  -25.9360  -34.9740   23.4650 C   0  0  0  0  0  0  0  0  0  0  0  0
  -26.5730  -34.8840   22.4120 O   0  0  0  0  0  0  0  0  0  0  0  0
  -25.0650  -34.0500   25.0400 H   0  0  0  0  0  0  0  0  0  0  0  0
  -24.1750  -36.7550   23.2080 C   0  0  0  0  0  1  0  0  0  0  0  0
  -25.4590  -36.3560   23.9530 C   0  0  0  0  0  3  0  0  0  0  0  0
  -27.6210  -37.2660   24.6820 C   0  0  0  0  0  1  0  0  0  0  0  0
  -26.4740  -37.4220   23.7930 N   0  0  0  0  0  0  0  0  0  0  0  0
  -26.0650  -38.3370   23.9600 H   0  0  0  0  0  0  0  0  0  0  0  0
  2  5  1  0
  2  1  1  0
  3  2  1  0
  3 46  1  0
  3  1  1  0
  4  5  1  0
  4  6  2  0
  5  7  1  0
  8  4  1  0
  8  9  2  0
 10  9  1  0
 11 16  1  0
 12 13  1  0
 12 11  1  0
 14 13  1  0
 14 21  1  0
 14 15  1  0
 16 10  1  0
 16 15  1  0
 17 10  2  0
 18 19  2  0
 19 38  1  0
 20 19  1  0
 20 23  1  0
 21 22  1  0
 21 18  1  0
 22 20  2  0
 23 24  1  0
 24 25  2  0
 26 29  1  0
 26 25  1  0
 27 26  2  0
 28 27  1  0
 28 23  2  0
 29 30  1  0
 30 31  1  0
 31 32  2  0
 33 32  1  0
 33 37  1  0
 34 33  2  0
 35 30  2  0
 35 34  1  0
 36 35  1  0
 38 39  1  0
 39 42  1  0
 39 41  1  0
 40 38  2  0
 43 44  1  0
 43 18  1  0
 45 43  1  0
 47 58  2  0
 48 46  1  0
 48 53  1  0
 49 57  1  0
 49 59  1  0
 50 56  1  0
 50 52  1  0
 51 57  1  0
 52 51  1  0
 53 52  2  0
 54 48  2  0
 55 54  1  0
 55 50  2  0
 56 49  1  0
 57 47  1  0
 59 61  2  0
 60 59  1  0
 62 60  1  0
 63 72  2  0
 63 68  1  0
 64 60  1  0
 64 68  1  0
 65 64  1  0
 66 67  1  0
 66 65  1  0
 67 63  1  0
 68 69  2  0
 69 70  1  0
 71 70  2  0
 72 71  1  0
 73 47  1  0
 73 78  1  0
 73 74  1  0
 74 77  1  1
 74 75  1  0
 76 74  1  0
 78 81  1  0
 79 83  1  0
 79 78  1  0
 80 79  2  0
 83 82  1  0
 85 83  1  0
 85 86  1  0
 85 84  1  0
M  ISO  4   3 101   9 100  10 100  46 101
M  END
>  <TORSDO>  (42) 
F 19

>  <SCORE>  (42) 
-15.202

>  <name>  (42) 
41

>  <ligand_id>  (42) 
41

>  <original_smiles>  (42) 
[H]c1c([H])c([H])c2c(c1[H])C([H])([H])C([H])([H])C([H])([H])C2([H])N([H])C(=O)C1([H])N(C(=O)C([H])(N([H])C(=O)C([H])(N([H])C([H])([H])[H])C([H])([H])[H])C(C([H])([H])[H])(C([H])([H])[H])C([H])([H])[H])C([H])([H])c2c([H])c(OC3([H])C([H])([H])C3([H])N([H])C(=O)C([H])([H])C([H])([H])C(=O)N3C([H])([H])C([H])([H])C([H])([H])C([H])(n4nc(-c5c([H])c([H])c(Oc6c([H])c([H])c(F)c([H])c6F)c([H])c5[H])c(C(=O)N([H])[H])c4N([H])[H])C3([H])[H])c([H])c([H])c2C1([H])[H]

>  <smiles>  (42) 
[H]c1c([H])c([H])c2c(c1[H])C([H])([H])C([H])([H])C([H])([H])C2([H])N([H])C(=O)C1([H])N(C(=O)C([H])(N([H])C(=O)C([H])(N([H])C([H])([H])[H])C([H])([H])[H])C(C([H])([H])[H])(C([H])([H])[H])C([H])([H])[H])C([H])([H])c2c([H])c(OC3([H])C([H])([H])C3([H])N([H])C(=O)C([H])([H])C([H])([H])C(=O)N3C([H])([H])C([H])([H])C([H])([H])C([H])(n4nc(-c5c([H])c([H])c(Oc6c([H])c([H])c(F)c([H])c6F)c([H])c5[H])c(C(=O)N([H])[H])c4N([H])[H])C3([H])[H])c([H])c([H])c2C1([H])[H]

$$$$
42:0:0
     RDKit          3D

 88 96  0  0  1  0  0  0  0  0999 V2000
  -27.9980  -19.5980   18.1730 C   0  0  0  0  0  2  0  0  0  0  0  0
  -28.2370  -18.2330   18.8990 C   0  0  0  0  0  2  0  0  0  0  0  0
  -27.6940  -20.8370   19.0730 C   0  0  0  0  0  2  0  0  0  0  0  0
  -29.2860  -19.7580   20.6750 C   0  0  0  0  0  2  0  0  0  0  0  0
  -29.4610  -18.1780   19.8610 C   0  0  0  0  0  3  0  0  0  0  0  0
  -28.8530  -21.1760   19.9300 N   0  0  2  0  0  4  0  0  0  0  0  0
  -29.5910  -21.2820   19.2490 H   0  0  0  0  0  0  0  0  0  0  0  0
  -30.3990  -15.3450   20.2550 C   0  0  0  0  0  0  0  0  0  0  0  0
  -30.4500  -12.8720   19.4610 C   0  0  0  0  0  2  0  0  0  0  0  0
  -29.5460  -12.6480   18.2210 C   0  0  0  0  0  2  0  0  0  0  0  0
  -28.1030  -12.3490   18.6660 C   0  0  0  0  0  2  0  0  0  0  0  0
  -27.6260  -13.3240   19.7680 C   0  0  0  0  0  3  0  0  0  0  0  0
  -28.6590  -13.4980   20.9010 C   0  0  0  0  0  2  0  0  0  0  0  0
  -29.8870  -14.0150   20.2770 N   0  0  0  0  0  0  0  0  0  0  0  0
  -31.5980  -15.3820   19.9330 O   0  0  0  0  0  0  0  0  0  0  0  0
  -29.5870  -16.5850   20.4070 N   0  0  0  0  0  0  0  0  0  0  0  0
  -28.7080  -16.3180   20.8250 H   0  0  0  0  0  0  0  0  0  0  0  0
  -25.2530  -13.8680   20.5120 C   0  0  0  0  0  0  0  0  0  0  0  0
  -24.1940  -13.0860   20.8780 C   0  0  0  0  0  0  0  0  0  0  0  0
  -24.6680  -11.7380   20.8440 C   0  0  0  0  0  0  0  0  0  0  0  0
  -26.2990  -12.9990   20.2680 N   0  0  0  0  0  0  0  0  0  0  0  0
  -25.9580  -11.7110   20.5290 N   0  0  0  0  0  0  0  0  0  0  0  0
  -23.9500  -10.4700   21.0240 C   0  0  0  0  0  0  0  0  0  0  0  0
  -24.3710   -9.5070   21.9680 C   0  0  0  0  0  3  0  0  0  0  0  0
  -23.6470   -8.3090   22.1400 C   0  0  0  0  0  3  0  0  0  0  0  0
  -22.4910   -8.0620   21.3630 C   0  0  0  0  0  0  0  0  0  0  0  0
  -22.0880   -9.0130   20.4110 C   0  0  0  0  0  3  0  0  0  0  0  0
  -22.8140  -10.2040   20.2370 C   0  0  0  0  0  3  0  0  0  0  0  0
  -21.7420   -6.9110   21.4440 O   0  0  0  0  0  0  0  0  0  0  0  0
  -21.6570   -6.1860   22.6050 C   0  0  0  0  0  0  0  0  0  0  0  0
  -21.1500   -6.7480   23.7960 C   0  0  0  0  0  3  0  0  0  0  0  0
  -21.0150   -5.9510   24.9490 C   0  0  0  0  0  3  0  0  0  0  0  0
  -21.3750   -4.5910   24.9120 C   0  0  0  0  0  0  0  0  0  0  0  0
  -21.8710   -4.0260   23.7240 C   0  0  0  0  0  3  0  0  0  0  0  0
  -22.0090   -4.8210   22.5730 C   0  0  0  0  0  0  0  0  0  0  0  0
  -22.4710   -4.2670   21.4260 F   0  0  0  0  0  0  0  0  0  0  0  0
  -21.2380   -3.8240   26.0190 F   0  0  0  0  0  0  0  0  0  0  0  0
  -22.7920  -13.5570   21.1430 C   0  0  0  0  0  0  0  0  0  0  0  0
  -22.0570  -12.8470   21.9890 N   0  0  0  0  0  0  0  0  0  0  0  0
  -22.3590  -14.5920   20.6340 O   0  0  0  0  0  0  0  0  0  0  0  0
  -22.4220  -12.0090   22.4180 H   0  0  0  0  0  0  0  0  0  0  0  0
  -21.1210  -13.1450   22.2200 H   0  0  0  0  0  0  0  0  0  0  0  0
  -25.4130  -15.2390   20.3330 N   0  0  0  0  0  0  0  0  0  0  0  0
  -24.6380  -15.8860   20.4330 H   0  0  0  0  0  0  0  0  0  0  0  0
  -26.2330  -15.6560   19.9180 H   0  0  0  0  0  0  0  0  0  0  0  0
  -28.7940  -22.7340   20.5570 C   0  0  0  0  0  3  0  0  0  0  0  0
  -28.0100  -24.2570   19.9780 C   0  0  0  0  0  3  0  0  0  0  0  0
  -28.1850  -25.8730   20.3080 O   0  0  0  0  0  0  0  0  0  0  0  0
  -24.6260  -31.8560   23.2230 C   0  0  0  0  0  0  0  0  0  0  0  0
  -27.1850  -26.9770   20.2070 C   0  0  0  0  0  0  0  0  0  0  0  0
  -23.4390  -30.4550   21.5810 C   0  0  0  0  0  3  0  0  0  0  0  0
  -24.8910  -28.8590   20.1540 C   0  0  0  0  0  0  0  0  0  0  0  0
  -26.0030  -30.6740   21.4410 C   0  0  0  0  0  2  0  0  0  0  0  0
  -26.0780  -29.2650   20.7820 C   0  0  0  0  0  0  0  0  0  0  0  0
  -27.2200  -28.3430   20.7840 C   0  0  0  0  0  3  0  0  0  0  0  0
  -25.9750  -26.7300   19.5240 C   0  0  0  0  0  3  0  0  0  0  0  0
  -24.8660  -27.6130   19.5070 C   0  0  0  0  0  3  0  0  0  0  0  0
  -23.6690  -29.7750   20.2030 C   0  0  0  0  0  2  0  0  0  0  0  0
  -24.7100  -31.0240   22.1340 N   0  0  0  0  0  0  0  0  0  0  0  0
  -23.5330  -32.1460   23.7370 O   0  0  0  0  0  0  0  0  0  0  0  0
  -22.7440  -29.4620   22.5470 C   0  0  0  0  0  0  0  0  0  0  0  0
  -21.4150  -29.3030   22.4200 N   0  0  0  0  0  0  0  0  0  0  0  0
  -23.4080  -28.8320   23.3740 O   0  0  0  0  0  0  0  0  0  0  0  0
  -20.9330  -29.8690   21.7320 H   0  0  0  0  0  0  0  0  0  0  0  0
  -18.0290  -28.0920   22.9050 C   0  0  0  0  0  0  0  0  0  0  0  0
  -20.5890  -28.3610   23.1820 C   0  0  0  0  0  3  0  0  0  0  0  0
  -20.6980  -26.9330   22.6010 C   0  0  0  0  0  2  0  0  0  0  0  0
  -19.6020  -26.6220   21.5770 C   0  0  0  0  0  2  0  0  0  0  0  0
  -18.2140  -26.7530   22.2100 C   0  0  0  0  0  2  0  0  0  0  0  0
  -19.1440  -28.8560   23.3430 C   0  0  0  0  0  0  0  0  0  0  0  0
  -18.9180  -30.1110   23.9450 C   0  0  0  0  0  3  0  0  0  0  0  0
  -17.6120  -30.6090   24.1060 C   0  0  0  0  0  3  0  0  0  0  0  0
  -16.5120  -29.8420   23.6840 C   0  0  0  0  0  3  0  0  0  0  0  0
  -16.7200  -28.5830   23.0960 C   0  0  0  0  0  3  0  0  0  0  0  0
  -25.8960  -32.4990   23.8600 C   0  0  0  0  0  3  0  0  0  0  0  0
  -25.5850  -33.9040   24.1780 N   0  0  0  0  0  0  0  0  0  0  0  0
  -25.9320  -34.9560   23.4250 C   0  0  0  0  0  0  0  0  0  0  0  0
  -26.6090  -34.8470   22.4000 O   0  0  0  0  0  0  0  0  0  0  0  0
  -24.9830  -34.0620   24.9730 H   0  0  0  0  0  0  0  0  0  0  0  0
  -24.2280  -36.7700   23.0530 C   0  0  0  0  0  1  0  0  0  0  0  0
  -25.4560  -36.3520   23.8780 C   0  0  0  0  0  3  0  0  0  0  0  0
  -27.5820  -37.2210   24.7440 C   0  0  0  0  0  1  0  0  0  0  0  0
  -26.5010  -37.3940   23.7770 N   0  0  0  0  0  0  0  0  0  0  0  0
  -26.1000  -38.3190   23.9130 H   0  0  0  0  0  0  0  0  0  0  0  0
  -26.3870  -31.7440   25.1570 C   0  0  1  0  0  0  0  0  0  0  0  0
  -25.2730  -31.5310   26.2100 C   0  0  0  0  0  1  0  0  0  0  0  0
  -26.9660  -30.3560   24.8040 C   0  0  0  0  0  1  0  0  0  0  0  0
  -27.5340  -32.5380   25.8260 C   0  0  0  0  0  1  0  0  0  0  0  0
  1  2  1  0
  1  3  1  0
  2  5  1  0
  3  6  1  0
  5 16  1  0
  5  4  1  0
  6 46  1  0
  6  4  1  0
  6  7  1  6
  8 14  1  0
  8 16  1  0
  9 14  1  0
 10 11  1  0
 10  9  1  0
 12 11  1  0
 12 21  1  0
 12 13  1  0
 14 13  1  0
 15  8  2  0
 16 17  1  0
 18 19  2  0
 19 38  1  0
 20 19  1  0
 20 23  1  0
 21 18  1  0
 21 22  1  0
 22 20  2  0
 23 24  1  0
 24 25  2  0
 26 29  1  0
 26 25  1  0
 27 26  2  0
 28 27  1  0
 28 23  2  0
 29 30  1  0
 30 31  1  0
 31 32  2  0
 33 32  1  0
 33 37  1  0
 34 33  2  0
 35 30  2  0
 35 34  1  0
 36 35  1  0
 38 39  1  0
 39 42  1  0
 39 41  1  0
 40 38  2  0
 43 44  1  0
 43 18  1  0
 45 43  1  0
 47 48  1  0
 47 46  2  0
 49 60  2  0
 50 48  1  0
 50 55  1  0
 51 59  1  0
 51 61  1  0
 52 58  1  0
 52 54  1  0
 53 59  1  0
 54 55  2  0
 54 53  1  0
 56 50  2  0
 57 56  1  0
 57 52  2  0
 58 51  1  0
 59 49  1  0
 61 63  2  0
 62 61  1  0
 64 62  1  0
 65 74  2  0
 65 70  1  0
 66 62  1  0
 66 70  1  0
 67 66  1  0
 68 69  1  0
 68 67  1  0
 69 65  1  0
 70 71  2  0
 71 72  1  0
 73 72  2  0
 74 73  1  0
 75 49  1  0
 75 76  1  0
 75 85  1  0
 76 79  1  0
 77 81  1  0
 77 76  1  0
 78 77  2  0
 81 80  1  0
 83 81  1  0
 83 84  1  0
 83 82  1  0
 85 88  1  1
 85 86  1  0
 87 85  1  0
M  ISO  4   8 100  16 100  47 101  48 101
M  END
>  <TORSDO>  (43) 
F 18

>  <SCORE>  (43) 
-16.680

>  <name>  (43) 
42

>  <ligand_id>  (43) 
42

>  <original_smiles>  (43) 
[H]c1c([H])c([H])c2c(c1[H])C([H])([H])C([H])([H])C([H])([H])C2([H])N([H])C(=O)C1([H])N(C(=O)C([H])(N([H])C(=O)C([H])(N([H])C([H])([H])[H])C([H])([H])[H])C(C([H])([H])[H])(C([H])([H])[H])C([H])([H])[H])C([H])([H])c2c([H])c(OC([H])([H])C([H])([H])[N+]3([H])C([H])([H])C([H])([H])C([H])([H])C([H])(N([H])C(=O)N4C([H])([H])C([H])([H])C([H])([H])C([H])(n5nc(-c6c([H])c([H])c(Oc7c([H])c([H])c(F)c([H])c7F)c([H])c6[H])c(C(=O)N([H])[H])c5N([H])[H])C4([H])[H])C3([H])[H])c([H])c([H])c2C1([H])[H]

>  <smiles>  (43) 
[H]c1c([H])c([H])c2c(c1[H])C([H])([H])C([H])([H])C([H])([H])C2([H])N([H])C(=O)C1([H])N(C(=O)C([H])(N([H])C(=O)C([H])(N([H])C([H])([H])[H])C([H])([H])[H])C(C([H])([H])[H])(C([H])([H])[H])C([H])([H])[H])C([H])([H])c2c([H])c(OC([H])([H])C([H])([H])[N+]3([H])C([H])([H])C([H])([H])C([H])([H])C([H])(N([H])C(=O)N4C([H])([H])C([H])([H])C([H])([H])C([H])(n5nc(-c6c([H])c([H])c(Oc7c([H])c([H])c(F)c([H])c7F)c([H])c6[H])c(C(=O)N([H])[H])c5N([H])[H])C4([H])[H])C3([H])[H])c([H])c([H])c2C1([H])[H]

$$$$
43:0:0
     RDKit          3D

 93102  0  0  1  0  0  0  0  0999 V2000
  -29.9790  -16.3370   22.3720 C   0  0  0  0  0  2  0  0  0  0  0  0
  -31.0820  -17.3800   22.6110 C   0  0  0  0  0  2  0  0  0  0  0  0
  -30.3850  -19.7060   21.5890 C   0  0  0  0  0  2  0  0  0  0  0  0
  -29.2100  -18.6480   19.8880 C   0  0  0  0  0  3  0  0  0  0  0  0
  -29.8740  -16.1280   20.8480 C   0  0  0  0  0  3  0  0  0  0  0  0
  -31.0710  -18.3150   21.3920 C   0  0  0  0  0  3  0  0  0  0  0  0
  -30.3020  -17.5680   20.2830 C   0  0  0  0  0  3  0  0  0  0  0  0
  -29.7170  -20.0130   20.3060 N   0  0  1  0  0  4  0  0  0  0  0  0
  -30.4590  -20.2360   19.6610 H   0  0  0  0  0  0  0  0  0  0  0  0
  -30.6800  -14.8260   20.3750 C   0  0  0  0  0  0  0  0  0  0  0  0
  -30.4870  -12.5990   19.2610 C   0  0  0  0  0  2  0  0  0  0  0  0
  -29.5410  -12.7290   18.0440 C   0  0  0  0  0  2  0  0  0  0  0  0
  -28.0700  -12.5510   18.4690 C   0  0  0  0  0  2  0  0  0  0  0  0
  -27.7040  -13.3990   19.7140 C   0  0  0  0  0  3  0  0  0  0  0  0
  -28.7600  -13.2490   20.8290 C   0  0  0  0  0  2  0  0  0  0  0  0
  -30.0680  -13.6020   20.2620 N   0  0  0  0  0  0  0  0  0  0  0  0
  -31.8410  -14.9670   19.9820 O   0  0  0  0  0  0  0  0  0  0  0  0
  -25.3030  -13.9840   20.4120 C   0  0  0  0  0  0  0  0  0  0  0  0
  -24.2400  -13.2050   20.7820 C   0  0  0  0  0  0  0  0  0  0  0  0
  -24.7170  -11.8580   20.7720 C   0  0  0  0  0  0  0  0  0  0  0  0
  -26.3560  -13.1110   20.1950 N   0  0  0  0  0  0  0  0  0  0  0  0
  -26.0100  -11.8280   20.4740 N   0  0  0  0  0  0  0  0  0  0  0  0
  -24.0020  -10.5920   20.9700 C   0  0  0  0  0  0  0  0  0  0  0  0
  -24.4300   -9.6440   21.9250 C   0  0  0  0  0  3  0  0  0  0  0  0
  -23.7160   -8.4400   22.1100 C   0  0  0  0  0  3  0  0  0  0  0  0
  -22.5570   -8.1780   21.3410 C   0  0  0  0  0  0  0  0  0  0  0  0
  -22.1480   -9.1140   20.3760 C   0  0  0  0  0  3  0  0  0  0  0  0
  -22.8640  -10.3080   20.1890 C   0  0  0  0  0  3  0  0  0  0  0  0
  -21.8150   -7.0250   21.4340 O   0  0  0  0  0  0  0  0  0  0  0  0
  -21.7480   -6.3040   22.5990 C   0  0  0  0  0  0  0  0  0  0  0  0
  -21.2870   -6.8770   23.8040 C   0  0  0  0  0  3  0  0  0  0  0  0
  -21.1690   -6.0820   24.9620 C   0  0  0  0  0  3  0  0  0  0  0  0
  -21.5020   -4.7160   24.9140 C   0  0  0  0  0  0  0  0  0  0  0  0
  -21.9570   -4.1410   23.7140 C   0  0  0  0  0  3  0  0  0  0  0  0
  -22.0760   -4.9340   22.5590 C   0  0  0  0  0  0  0  0  0  0  0  0
  -22.4950   -4.3720   21.4000 F   0  0  0  0  0  0  0  0  0  0  0  0
  -21.3820   -3.9490   26.0250 F   0  0  0  0  0  0  0  0  0  0  0  0
  -22.8360  -13.6720   21.0350 C   0  0  0  0  0  0  0  0  0  0  0  0
  -22.1060  -12.9750   21.8990 N   0  0  0  0  0  0  0  0  0  0  0  0
  -22.3940  -14.6890   20.5040 O   0  0  0  0  0  0  0  0  0  0  0  0
  -22.4750  -12.1520   22.3500 H   0  0  0  0  0  0  0  0  0  0  0  0
  -21.1630  -13.2700   22.1120 H   0  0  0  0  0  0  0  0  0  0  0  0
  -25.4550  -15.3540   20.2200 N   0  0  0  0  0  0  0  0  0  0  0  0
  -24.6780  -15.9990   20.3110 H   0  0  0  0  0  0  0  0  0  0  0  0
  -26.2980  -15.7940   19.8780 H   0  0  0  0  0  0  0  0  0  0  0  0
  -29.4350  -19.2700   17.4390 C   0  0  0  0  0  2  0  0  0  0  0  0
  -28.8300  -18.5610   18.4100 C   0  0  0  0  0  0  0  0  0  0  0  0
  -27.7090  -17.5890   18.0900 C   0  0  0  0  0  1  0  0  0  0  0  0
  -28.7450  -21.1990   20.2620 C   0  0  0  0  0  2  0  0  0  0  0  0
  -29.2520  -22.6660   20.6770 C   0  0  0  0  0  2  0  0  0  0  0  0
  -28.5470  -23.9710   20.0500 C   0  0  0  0  0  2  0  0  0  0  0  0
  -28.5330  -25.3360   20.8870 C   0  0  0  0  0  2  0  0  0  0  0  0
  -28.5400  -26.6670   20.2360 O   0  0  0  0  0  0  0  0  0  0  0  0
  -24.6530  -31.9740   23.2530 C   0  0  0  0  0  0  0  0  0  0  0  0
  -27.3870  -27.4590   20.2540 C   0  0  0  0  0  0  0  0  0  0  0  0
  -23.4930  -30.5460   21.6050 C   0  0  0  0  0  3  0  0  0  0  0  0
  -24.9880  -29.0090   20.2090 C   0  0  0  0  0  0  0  0  0  0  0  0
  -26.0250  -30.9160   21.4420 C   0  0  0  0  0  2  0  0  0  0  0  0
  -26.1390  -29.5330   20.8100 C   0  0  0  0  0  0  0  0  0  0  0  0
  -27.3450  -28.7700   20.8170 C   0  0  0  0  0  3  0  0  0  0  0  0
  -26.2130  -26.9730   19.6440 C   0  0  0  0  0  3  0  0  0  0  0  0
  -25.0250  -27.7320   19.6180 C   0  0  0  0  0  3  0  0  0  0  0  0
  -23.7360  -29.8620   20.2330 C   0  0  0  0  0  2  0  0  0  0  0  0
  -24.7430  -31.1640   22.1580 N   0  0  0  0  0  0  0  0  0  0  0  0
  -23.5590  -32.2340   23.7750 O   0  0  0  0  0  0  0  0  0  0  0  0
  -22.8400  -29.5220   22.5640 C   0  0  0  0  0  0  0  0  0  0  0  0
  -21.5170  -29.3270   22.4300 N   0  0  0  0  0  0  0  0  0  0  0  0
  -23.5220  -28.9070   23.3870 O   0  0  0  0  0  0  0  0  0  0  0  0
  -21.0230  -29.8750   21.7400 H   0  0  0  0  0  0  0  0  0  0  0  0
  -18.1500  -28.1050   22.9280 C   0  0  0  0  0  0  0  0  0  0  0  0
  -20.7070  -28.3780   23.1960 C   0  0  0  0  0  3  0  0  0  0  0  0
  -20.8190  -26.9520   22.6120 C   0  0  0  0  0  2  0  0  0  0  0  0
  -19.7180  -26.6270   21.5980 C   0  0  0  0  0  2  0  0  0  0  0  0
  -18.3360  -26.7610   22.2420 C   0  0  0  0  0  2  0  0  0  0  0  0
  -19.2640  -28.8710   23.3610 C   0  0  0  0  0  0  0  0  0  0  0  0
  -19.0380  -30.1300   23.9600 C   0  0  0  0  0  3  0  0  0  0  0  0
  -17.7300  -30.6210   24.1310 C   0  0  0  0  0  3  0  0  0  0  0  0
  -16.6300  -29.8510   23.7140 C   0  0  0  0  0  3  0  0  0  0  0  0
  -16.8420  -28.5950   23.1170 C   0  0  0  0  0  3  0  0  0  0  0  0
  -25.9160  -32.6330   23.8870 C   0  0  0  0  0  3  0  0  0  0  0  0
  -25.5830  -34.0300   24.1970 N   0  0  0  0  0  0  0  0  0  0  0  0
  -25.9100  -35.0790   23.4300 C   0  0  0  0  0  0  0  0  0  0  0  0
  -26.5930  -34.9730   22.4070 O   0  0  0  0  0  0  0  0  0  0  0  0
  -24.9810  -34.1870   24.9920 H   0  0  0  0  0  0  0  0  0  0  0  0
  -24.1650  -36.8450   23.0310 C   0  0  0  0  0  1  0  0  0  0  0  0
  -25.3980  -36.4650   23.8660 C   0  0  0  0  0  3  0  0  0  0  0  0
  -27.5080  -37.3870   24.7200 C   0  0  0  0  0  1  0  0  0  0  0  0
  -26.4190  -37.5310   23.7580 N   0  0  0  0  0  0  0  0  0  0  0  0
  -25.9970  -38.4460   23.8910 H   0  0  0  0  0  0  0  0  0  0  0  0
  -26.4250  -31.8830   25.1790 C   0  0  1  0  0  0  0  0  0  0  0  0
  -25.3150  -31.6290   26.2260 C   0  0  0  0  0  1  0  0  0  0  0  0
  -27.0480  -30.5180   24.8090 C   0  0  0  0  0  1  0  0  0  0  0  0
  -27.5430  -32.7080   25.8600 C   0  0  0  0  0  1  0  0  0  0  0  0
  1  2  1  0
  4 47  1  0
  4  7  1  0
  4  8  1  0
  5 10  1  0
  5  1  1  0
  6  3  1  0
  6  2  1  0
  7  5  1  0
  7  6  1  0
  8  3  1  0
  8  9  1  6
 11 16  1  0
 12 13  1  0
 12 11  1  0
 13 14  1  0
 14 21  1  0
 14 15  1  0
 16 10  1  0
 16 15  1  0
 17 10  2  0
 18 19  2  0
 19 38  1  0
 20 19  1  0
 20 23  1  0
 21 18  1  0
 21 22  1  0
 22 20  2  0
 23 24  1  0
 24 25  2  0
 26 29  1  0
 26 25  1  0
 27 26  2  0
 28 27  1  0
 28 23  2  0
 29 30  1  0
 30 31  1  0
 31 32  2  0
 33 32  1  0
 33 37  1  0
 34 33  2  0
 35 30  2  0
 35 34  1  0
 36 35  1  0
 38 39  1  0
 39 42  1  0
 39 41  1  0
 40 38  2  0
 43 44  1  0
 43 18  1  0
 45 43  1  0
 46 47  2  0
 48 47  1  0
 49  8  1  0
 49 50  1  0
 51 50  1  0
 51 52  1  0
 53 55  1  0
 53 52  1  0
 54 65  2  0
 54 80  1  0
 55 60  1  0
 56 64  1  0
 56 66  1  0
 57 63  1  0
 57 59  1  0
 58 64  1  0
 59 60  2  0
 59 58  1  0
 61 55  2  0
 62 61  1  0
 62 57  2  0
 63 56  1  0
 64 54  1  0
 66 68  2  0
 67 66  1  0
 67 71  1  0
 69 67  1  0
 70 79  2  0
 70 75  1  0
 71 75  1  0
 72 71  1  0
 73 74  1  0
 73 72  1  0
 74 70  1  0
 75 76  2  0
 76 77  1  0
 78 77  2  0
 79 78  1  0
 80 81  1  0
 80 90  1  0
 81 84  1  0
 82 86  1  0
 82 81  1  0
 83 82  2  0
 85 86  1  0
 88 86  1  0
 88 89  1  0
 88 87  1  0
 90 93  1  1
 90 91  1  0
 92 90  1  0
M  ISO  4   5 100  10 100  52 101  53 101
M  END
>  <TORSDO>  (44) 
F 21

>  <SCORE>  (44) 
-12.922

>  <name>  (44) 
43

>  <ligand_id>  (44) 
43

>  <original_smiles>  (44) 
[H]C([H])=C(C([H])([H])[H])C1([H])C2([H])C([H])(C(=O)N3C([H])([H])C([H])([H])C([H])([H])C([H])(n4nc(-c5c([H])c([H])c(Oc6c([H])c([H])c(F)c([H])c6F)c([H])c5[H])c(C(=O)N([H])[H])c4N([H])[H])C3([H])[H])C([H])([H])C([H])([H])C2([H])C([H])([H])[N+]1([H])C([H])([H])C([H])([H])C([H])([H])C([H])([H])Oc1c([H])c([H])c2c(c1[H])C([H])([H])N(C(=O)C([H])(N([H])C(=O)C([H])(N([H])C([H])([H])[H])C([H])([H])[H])C(C([H])([H])[H])(C([H])([H])[H])C([H])([H])[H])C([H])(C(=O)N([H])C1([H])c3c([H])c([H])c([H])c([H])c3C([H])([H])C([H])([H])C1([H])[H])C2([H])[H]

>  <smiles>  (44) 
[H]C([H])=C(C([H])([H])[H])C1([H])C2([H])C([H])(C(=O)N3C([H])([H])C([H])([H])C([H])([H])C([H])(n4nc(-c5c([H])c([H])c(Oc6c([H])c([H])c(F)c([H])c6F)c([H])c5[H])c(C(=O)N([H])[H])c4N([H])[H])C3([H])[H])C([H])([H])C([H])([H])C2([H])C([H])([H])[N+]1([H])C([H])([H])C([H])([H])C([H])([H])C([H])([H])Oc1c([H])c([H])c2c(c1[H])C([H])([H])N(C(=O)C([H])(N([H])C(=O)C([H])(N([H])C([H])([H])[H])C([H])([H])[H])C(C([H])([H])[H])(C([H])([H])[H])C([H])([H])[H])C([H])(C(=O)N([H])C1([H])c3c([H])c([H])c([H])c([H])c3C([H])([H])C([H])([H])C1([H])[H])C2([H])[H]

$$$$
44:0:0
     RDKit          3D

 87 95  0  0  1  0  0  0  0  0999 V2000
  -29.9410  -18.5070   20.4750 C   0  0  0  0  0  0  0  0  0  0  0  0
  -27.0750  -20.9530   19.3640 C   0  0  0  0  0  2  0  0  0  0  0  0
  -27.6510  -22.3870   19.1490 C   0  0  0  0  0  2  0  0  0  0  0  0
  -28.0710  -19.7460   19.3000 C   0  0  0  0  0  2  0  0  0  0  0  0
  -29.5790  -21.3710   20.5680 C   0  0  0  0  0  2  0  0  0  0  0  0
  -28.5580  -22.7880   20.3150 C   0  0  0  0  0  3  0  0  0  0  0  0
  -29.2420  -19.7940   20.1990 N   0  0  0  0  0  0  0  0  0  0  0  0
  -31.0120  -18.6120   21.0780 O   0  0  0  0  0  0  0  0  0  0  0  0
  -29.4740  -16.8590   20.1520 C   0  0  0  0  0  2  0  0  0  0  0  0
  -30.4180  -15.3860   19.9900 C   0  0  0  0  0  0  0  0  0  0  0  0
  -30.4030  -12.9580   19.0600 C   0  0  0  0  0  2  0  0  0  0  0  0
  -29.4130  -12.8170   17.8720 C   0  0  0  0  0  2  0  0  0  0  0  0
  -27.9790  -12.5460   18.3640 C   0  0  0  0  0  2  0  0  0  0  0  0
  -27.5960  -13.4630   19.5510 C   0  0  0  0  0  3  0  0  0  0  0  0
  -28.6990  -13.5470   20.6240 C   0  0  0  0  0  2  0  0  0  0  0  0
  -29.9130  -14.0560   19.9690 N   0  0  0  0  0  0  0  0  0  0  0  0
  -31.6210  -15.4290   19.6880 O   0  0  0  0  0  0  0  0  0  0  0  0
  -25.2720  -14.0070   20.4460 C   0  0  0  0  0  0  0  0  0  0  0  0
  -24.2290  -13.2220   20.8520 C   0  0  0  0  0  0  0  0  0  0  0  0
  -24.6890  -11.8730   20.7590 C   0  0  0  0  0  0  0  0  0  0  0  0
  -26.2960  -13.1370   20.1190 N   0  0  0  0  0  0  0  0  0  0  0  0
  -25.9620  -11.8450   20.3780 N   0  0  0  0  0  0  0  0  0  0  0  0
  -23.9690  -10.6070   20.9530 C   0  0  0  0  0  0  0  0  0  0  0  0
  -24.4280   -9.6250   21.8580 C   0  0  0  0  0  3  0  0  0  0  0  0
  -23.7040   -8.4270   22.0430 C   0  0  0  0  0  3  0  0  0  0  0  0
  -22.5070   -8.2020   21.3230 C   0  0  0  0  0  0  0  0  0  0  0  0
  -22.0670   -9.1730   20.4060 C   0  0  0  0  0  3  0  0  0  0  0  0
  -22.7910  -10.3620   20.2190 C   0  0  0  0  0  3  0  0  0  0  0  0
  -21.7530   -7.0580   21.4170 O   0  0  0  0  0  0  0  0  0  0  0  0
  -21.7210   -6.3090   22.5670 C   0  0  0  0  0  0  0  0  0  0  0  0
  -21.2560   -6.8420   23.7890 C   0  0  0  0  0  3  0  0  0  0  0  0
  -21.1750   -6.0180   24.9300 C   0  0  0  0  0  3  0  0  0  0  0  0
  -21.5480   -4.6640   24.8490 C   0  0  0  0  0  0  0  0  0  0  0  0
  -22.0060   -4.1300   23.6320 C   0  0  0  0  0  3  0  0  0  0  0  0
  -22.0880   -4.9510   22.4930 C   0  0  0  0  0  0  0  0  0  0  0  0
  -22.5110   -4.4270   21.3160 F   0  0  0  0  0  0  0  0  0  0  0  0
  -21.4620   -3.8690   25.9420 F   0  0  0  0  0  0  0  0  0  0  0  0
  -22.8500  -13.6940   21.2060 C   0  0  0  0  0  0  0  0  0  0  0  0
  -22.1720  -12.9860   22.1020 N   0  0  0  0  0  0  0  0  0  0  0  0
  -22.3840  -14.7270   20.7250 O   0  0  0  0  0  0  0  0  0  0  0  0
  -22.5660  -12.1510   22.5090 H   0  0  0  0  0  0  0  0  0  0  0  0
  -21.2500  -13.2830   22.3860 H   0  0  0  0  0  0  0  0  0  0  0  0
  -25.4300  -15.3830   20.3000 N   0  0  0  0  0  0  0  0  0  0  0  0
  -24.6670  -16.0310   20.4620 H   0  0  0  0  0  0  0  0  0  0  0  0
  -26.2560  -15.8270   19.9200 H   0  0  0  0  0  0  0  0  0  0  0  0
  -28.5460  -24.5440   20.7770 C   0  0  0  0  0  2  0  0  0  0  0  0
  -28.5240  -26.0850   20.2240 O   0  0  0  0  0  0  0  0  0  0  0  0
  -24.6810  -31.8770   23.2410 C   0  0  0  0  0  0  0  0  0  0  0  0
  -27.4480  -27.1080   20.2760 C   0  0  0  0  0  0  0  0  0  0  0  0
  -23.5700  -30.4610   21.5610 C   0  0  0  0  0  3  0  0  0  0  0  0
  -25.0970  -28.9060   20.1750 C   0  0  0  0  0  0  0  0  0  0  0  0
  -26.1300  -30.7500   21.4830 C   0  0  0  0  0  2  0  0  0  0  0  0
  -26.2560  -29.3470   20.8270 C   0  0  0  0  0  0  0  0  0  0  0  0
  -27.4300  -28.4710   20.8450 C   0  0  0  0  0  3  0  0  0  0  0  0
  -26.2520  -26.8070   19.5880 C   0  0  0  0  0  3  0  0  0  0  0  0
  -25.1170  -27.6560   19.5360 C   0  0  0  0  0  3  0  0  0  0  0  0
  -23.8550  -29.7940   20.1870 C   0  0  0  0  0  2  0  0  0  0  0  0
  -24.8130  -31.0570   22.1500 N   0  0  0  0  0  0  0  0  0  0  0  0
  -23.5720  -32.1340   23.7360 O   0  0  0  0  0  0  0  0  0  0  0  0
  -22.8810  -29.4370   22.5000 C   0  0  0  0  0  0  0  0  0  0  0  0
  -21.5540  -29.2630   22.3610 N   0  0  0  0  0  0  0  0  0  0  0  0
  -23.5470  -28.8030   23.3210 O   0  0  0  0  0  0  0  0  0  0  0  0
  -21.0680  -29.8400   21.6870 H   0  0  0  0  0  0  0  0  0  0  0  0
  -18.1700  -28.0510   22.8510 C   0  0  0  0  0  0  0  0  0  0  0  0
  -20.7340  -28.3000   23.1030 C   0  0  0  0  0  3  0  0  0  0  0  0
  -20.8260  -26.8880   22.4750 C   0  0  0  0  0  2  0  0  0  0  0  0
  -19.7150  -26.6070   21.4580 C   0  0  0  0  0  2  0  0  0  0  0  0
  -18.3370  -26.7290   22.1210 C   0  0  0  0  0  2  0  0  0  0  0  0
  -19.2950  -28.7950   23.2970 C   0  0  0  0  0  0  0  0  0  0  0  0
  -19.0820  -30.0320   23.9430 C   0  0  0  0  0  3  0  0  0  0  0  0
  -17.7790  -30.5260   24.1470 C   0  0  0  0  0  3  0  0  0  0  0  0
  -16.6700  -29.7790   23.7150 C   0  0  0  0  0  3  0  0  0  0  0  0
  -16.8670  -28.5430   23.0730 C   0  0  0  0  0  3  0  0  0  0  0  0
  -25.9190  -32.5470   23.9140 C   0  0  0  0  0  3  0  0  0  0  0  0
  -25.5740  -33.9480   24.2060 N   0  0  0  0  0  0  0  0  0  0  0  0
  -25.9120  -34.9960   23.4420 C   0  0  0  0  0  0  0  0  0  0  0  0
  -26.6100  -34.8870   22.4330 O   0  0  0  0  0  0  0  0  0  0  0  0
  -24.9530  -34.1040   24.9850 H   0  0  0  0  0  0  0  0  0  0  0  0
  -24.1710  -36.7670   23.0160 C   0  0  0  0  0  1  0  0  0  0  0  0
  -25.3950  -36.3880   23.8650 C   0  0  0  0  0  3  0  0  0  0  0  0
  -27.4860  -37.3250   24.7490 C   0  0  0  0  0  1  0  0  0  0  0  0
  -26.4170  -37.4520   23.7630 N   0  0  0  0  0  0  0  0  0  0  0  0
  -25.9940  -38.3700   23.8730 H   0  0  0  0  0  0  0  0  0  0  0  0
  -26.3770  -31.8130   25.2350 C   0  0  1  0  0  0  0  0  0  0  0  0
  -25.2350  -31.5870   26.2520 C   0  0  0  0  0  1  0  0  0  0  0  0
  -26.9960  -30.4340   24.9150 C   0  0  0  0  0  1  0  0  0  0  0  0
  -27.4830  -32.6390   25.9340 C   0  0  0  0  0  1  0  0  0  0  0  0
  1  8  2  0
  3  2  1  0
  3  6  1  0
  4  2  1  0
  4  7  1  0
  6  5  1  0
  6 46  1  0
  7  1  1  0
  7  5  1  0
  9  1  1  0
 10  9  1  0
 11 16  1  0
 12 13  1  0
 12 11  1  0
 14 13  1  0
 14 21  1  0
 14 15  1  0
 16 10  1  0
 16 15  1  0
 17 10  2  0
 18 19  2  0
 19 38  1  0
 20 19  1  0
 20 23  1  0
 21 22  1  0
 21 18  1  0
 22 20  2  0
 23 24  1  0
 24 25  2  0
 26 29  1  0
 26 25  1  0
 27 26  2  0
 28 27  1  0
 28 23  2  0
 29 30  1  0
 30 31  1  0
 31 32  2  0
 33 32  1  0
 33 37  1  0
 34 33  2  0
 35 30  2  0
 35 34  1  0
 36 35  1  0
 38 39  1  0
 39 42  1  0
 39 41  1  0
 40 38  2  0
 43 18  1  0
 43 44  1  0
 45 43  1  0
 47 49  1  0
 47 46  1  0
 48 59  2  0
 49 54  1  0
 50 58  1  0
 50 60  1  0
 51 57  1  0
 51 53  1  0
 52 58  1  0
 53 54  2  0
 53 52  1  0
 55 49  2  0
 56 55  1  0
 56 51  2  0
 57 50  1  0
 58 48  1  0
 60 62  2  0
 61 60  1  0
 63 61  1  0
 64 73  2  0
 64 69  1  0
 65 61  1  0
 65 69  1  0
 66 65  1  0
 67 68  1  0
 67 66  1  0
 68 64  1  0
 69 70  2  0
 70 71  1  0
 72 71  2  0
 73 72  1  0
 74 48  1  0
 74 75  1  0
 74 84  1  0
 75 78  1  0
 76 80  1  0
 76 75  1  0
 77 76  2  0
 80 79  1  0
 82 80  1  0
 82 83  1  0
 82 81  1  0
 84 87  1  1
 84 85  1  0
 86 84  1  0
M  ISO  4   9 100  10 100  46 101  47 101
M  END
>  <TORSDO>  (45) 
F 18

>  <SCORE>  (45) 
-15.980

>  <name>  (45) 
44

>  <ligand_id>  (45) 
44

>  <original_smiles>  (45) 
[H]c1c([H])c([H])c2c(c1[H])C([H])([H])C([H])([H])C([H])([H])C2([H])N([H])C(=O)C1([H])N(C(=O)C([H])(N([H])C(=O)C([H])(N([H])C([H])([H])[H])C([H])([H])[H])C(C([H])([H])[H])(C([H])([H])[H])C([H])([H])[H])C([H])([H])c2c([H])c(OC([H])([H])C3([H])C([H])([H])N(C(=O)C([H])([H])C(=O)N4C([H])([H])C([H])([H])C([H])([H])C([H])(n5nc(-c6c([H])c([H])c(Oc7c([H])c([H])c(F)c([H])c7F)c([H])c6[H])c(C(=O)N([H])[H])c5N([H])[H])C4([H])[H])C([H])([H])C([H])([H])C3([H])[H])c([H])c([H])c2C1([H])[H]

>  <smiles>  (45) 
[H]c1c([H])c([H])c2c(c1[H])C([H])([H])C([H])([H])C([H])([H])C2([H])N([H])C(=O)C1([H])N(C(=O)C([H])(N([H])C(=O)C([H])(N([H])C([H])([H])[H])C([H])([H])[H])C(C([H])([H])[H])(C([H])([H])[H])C([H])([H])[H])C([H])([H])c2c([H])c(OC([H])([H])C3([H])C([H])([H])N(C(=O)C([H])([H])C(=O)N4C([H])([H])C([H])([H])C([H])([H])C([H])(n5nc(-c6c([H])c([H])c(Oc7c([H])c([H])c(F)c([H])c7F)c([H])c6[H])c(C(=O)N([H])[H])c5N([H])[H])C4([H])[H])C([H])([H])C([H])([H])C3([H])[H])c([H])c([H])c2C1([H])[H]

$$$$
45:0:0
     RDKit          3D

 85 92  0  0  1  0  0  0  0  0999 V2000
  -27.6550  -22.6520   21.7370 C   0  0  0  0  0  1  0  0  0  0  0  0
  -28.6530  -22.8250   20.5810 C   0  0  0  0  0  3  0  0  0  0  0  0
  -29.3960  -20.0940   20.4270 C   0  0  0  0  0  0  0  0  0  0  0  0
  -29.9200  -20.0970   21.8470 C   0  0  0  0  0  1  0  0  0  0  0  0
  -28.8670  -21.3020   19.9150 N   0  0  0  0  0  0  0  0  0  0  0  0
  -29.7420  -18.4820   19.7650 C   0  0  0  0  0  3  0  0  0  0  0  0
  -29.7380  -16.8430   20.4860 C   0  0  0  0  0  3  0  0  0  0  0  0
  -30.4500  -15.3080   20.0430 C   0  0  0  0  0  0  0  0  0  0  0  0
  -30.3700  -12.8720   19.1460 C   0  0  0  0  0  2  0  0  0  0  0  0
  -29.4050  -12.7330   17.9390 C   0  0  0  0  0  2  0  0  0  0  0  0
  -27.9670  -12.4770   18.4200 C   0  0  0  0  0  2  0  0  0  0  0  0
  -27.5730  -13.4190   19.5860 C   0  0  0  0  0  3  0  0  0  0  0  0
  -28.6620  -13.5160   20.6760 C   0  0  0  0  0  2  0  0  0  0  0  0
  -29.8920  -13.9980   20.0280 N   0  0  0  0  0  0  0  0  0  0  0  0
  -31.6290  -15.3090   19.6610 O   0  0  0  0  0  0  0  0  0  0  0  0
  -25.2250  -13.9790   20.4100 C   0  0  0  0  0  0  0  0  0  0  0  0
  -24.1740  -13.2040   20.8100 C   0  0  0  0  0  0  0  0  0  0  0  0
  -24.6380  -11.8530   20.7630 C   0  0  0  0  0  0  0  0  0  0  0  0
  -26.2600  -13.1040   20.1330 N   0  0  0  0  0  0  0  0  0  0  0  0
  -25.9200  -11.8190   20.4120 N   0  0  0  0  0  0  0  0  0  0  0  0
  -23.9150  -10.5910   20.9720 C   0  0  0  0  0  0  0  0  0  0  0  0
  -24.3680   -9.6220   21.8940 C   0  0  0  0  0  3  0  0  0  0  0  0
  -23.6410   -8.4280   22.0940 C   0  0  0  0  0  3  0  0  0  0  0  0
  -22.4470   -8.1930   21.3710 C   0  0  0  0  0  0  0  0  0  0  0  0
  -22.0130   -9.1510   20.4380 C   0  0  0  0  0  3  0  0  0  0  0  0
  -22.7400  -10.3360   20.2360 C   0  0  0  0  0  3  0  0  0  0  0  0
  -21.6920   -7.0510   21.4800 O   0  0  0  0  0  0  0  0  0  0  0  0
  -21.6670   -6.3110   22.6350 C   0  0  0  0  0  0  0  0  0  0  0  0
  -21.2780   -6.8730   23.8710 C   0  0  0  0  0  3  0  0  0  0  0  0
  -21.1980   -6.0620   25.0190 C   0  0  0  0  0  3  0  0  0  0  0  0
  -21.4980   -4.6890   24.9350 C   0  0  0  0  0  0  0  0  0  0  0  0
  -21.8800   -4.1260   23.7040 C   0  0  0  0  0  3  0  0  0  0  0  0
  -21.9610   -4.9350   22.5570 C   0  0  0  0  0  0  0  0  0  0  0  0
  -22.3090   -4.3830   21.3690 F   0  0  0  0  0  0  0  0  0  0  0  0
  -21.4160   -3.9060   26.0360 F   0  0  0  0  0  0  0  0  0  0  0  0
  -22.7860  -13.6810   21.1210 C   0  0  0  0  0  0  0  0  0  0  0  0
  -22.0870  -12.9900   22.0120 N   0  0  0  0  0  0  0  0  0  0  0  0
  -22.3350  -14.7050   20.6090 O   0  0  0  0  0  0  0  0  0  0  0  0
  -22.4670  -12.1600   22.4430 H   0  0  0  0  0  0  0  0  0  0  0  0
  -21.1580  -13.2940   22.2670 H   0  0  0  0  0  0  0  0  0  0  0  0
  -25.3870  -15.3500   20.2310 N   0  0  0  0  0  0  0  0  0  0  0  0
  -24.6290  -16.0110   20.3710 H   0  0  0  0  0  0  0  0  0  0  0  0
  -26.2290  -15.7870   19.8780 H   0  0  0  0  0  0  0  0  0  0  0  0
  -28.1260  -24.3550   19.8070 C   0  0  0  0  0  2  0  0  0  0  0  0
  -28.1710  -25.9390   20.2480 O   0  0  0  0  0  0  0  0  0  0  0  0
  -24.6270  -31.8770   23.2060 C   0  0  0  0  0  0  0  0  0  0  0  0
  -27.1480  -27.0150   20.1510 C   0  0  0  0  0  0  0  0  0  0  0  0
  -23.4130  -30.4850   21.5780 C   0  0  0  0  0  3  0  0  0  0  0  0
  -24.8450  -28.8830   20.1350 C   0  0  0  0  0  0  0  0  0  0  0  0
  -25.9770  -30.6950   21.4090 C   0  0  0  0  0  2  0  0  0  0  0  0
  -26.0370  -29.2890   20.7470 C   0  0  0  0  0  0  0  0  0  0  0  0
  -27.1790  -28.3720   20.7370 C   0  0  0  0  0  3  0  0  0  0  0  0
  -25.9290  -26.7600   19.4830 C   0  0  0  0  0  3  0  0  0  0  0  0
  -24.8140  -27.6390   19.4840 C   0  0  0  0  0  3  0  0  0  0  0  0
  -23.6280  -29.8060   20.1970 C   0  0  0  0  0  2  0  0  0  0  0  0
  -24.6940  -31.0450   22.1180 N   0  0  0  0  0  0  0  0  0  0  0  0
  -23.5430  -32.1710   23.7380 O   0  0  0  0  0  0  0  0  0  0  0  0
  -22.7260  -29.4890   22.5490 C   0  0  0  0  0  0  0  0  0  0  0  0
  -21.3970  -29.3190   22.4270 N   0  0  0  0  0  0  0  0  0  0  0  0
  -23.3960  -28.8710   23.3800 O   0  0  0  0  0  0  0  0  0  0  0  0
  -20.9100  -29.8700   21.7320 H   0  0  0  0  0  0  0  0  0  0  0  0
  -18.0240  -28.0760   22.9180 C   0  0  0  0  0  0  0  0  0  0  0  0
  -20.5770  -28.3830   23.2030 C   0  0  0  0  0  3  0  0  0  0  0  0
  -20.7060  -26.9440   22.6500 C   0  0  0  0  0  2  0  0  0  0  0  0
  -19.6190  -26.5910   21.6300 C   0  0  0  0  0  2  0  0  0  0  0  0
  -18.2280  -26.7220   22.2590 C   0  0  0  0  0  2  0  0  0  0  0  0
  -19.1270  -28.8620   23.3470 C   0  0  0  0  0  0  0  0  0  0  0  0
  -18.8830  -30.1260   23.9270 C   0  0  0  0  0  3  0  0  0  0  0  0
  -17.5680  -30.6050   24.0820 C   0  0  0  0  0  3  0  0  0  0  0  0
  -16.4790  -29.8170   23.6680 C   0  0  0  0  0  3  0  0  0  0  0  0
  -16.7090  -28.5560   23.0910 C   0  0  0  0  0  3  0  0  0  0  0  0
  -25.9050  -32.5160   23.8270 C   0  0  0  0  0  3  0  0  0  0  0  0
  -26.4170  -31.7500   25.1100 C   0  0  1  0  0  0  0  0  0  0  0  0
  -25.3220  -31.5280   26.1800 C   0  0  0  0  0  1  0  0  0  0  0  0
  -26.9910  -30.3660   24.7350 C   0  0  0  0  0  1  0  0  0  0  0  0
  -27.5740  -32.5410   25.7640 C   0  0  0  0  0  1  0  0  0  0  0  0
  -25.5940  -33.9150   24.1670 N   0  0  0  0  0  0  0  0  0  0  0  0
  -25.9210  -34.9780   23.4190 C   0  0  0  0  0  0  0  0  0  0  0  0
  -26.5800  -34.8830   22.3800 O   0  0  0  0  0  0  0  0  0  0  0  0
  -25.0060  -34.0630   24.9750 H   0  0  0  0  0  0  0  0  0  0  0  0
  -24.1900  -36.7820   23.1140 C   0  0  0  0  0  1  0  0  0  0  0  0
  -25.4450  -36.3660   23.8970 C   0  0  0  0  0  3  0  0  0  0  0  0
  -27.5980  -37.2450   24.6940 C   0  0  0  0  0  1  0  0  0  0  0  0
  -26.4780  -37.4190   23.7720 N   0  0  0  0  0  0  0  0  0  0  0  0
  -26.0760  -38.3380   23.9350 H   0  0  0  0  0  0  0  0  0  0  0  0
  2  1  1  0
  3  4  1  0
  5  3  2  0
  5  2  1  0
  6  3  1  0
  6  7  2  0
  8  7  1  0
  9 14  1  0
 10 11  1  0
 10  9  1  0
 12 11  1  0
 12 19  1  0
 12 13  1  0
 14  8  1  0
 14 13  1  0
 15  8  2  0
 16 17  2  0
 17 36  1  0
 18 17  1  0
 18 21  1  0
 19 16  1  0
 19 20  1  0
 20 18  2  0
 21 22  1  0
 22 23  2  0
 24 27  1  0
 24 23  1  0
 25 24  2  0
 26 25  1  0
 26 21  2  0
 27 28  1  0
 28 29  1  0
 29 30  2  0
 31 30  1  0
 31 35  1  0
 32 31  2  0
 33 28  2  0
 33 32  1  0
 34 33  1  0
 36 37  1  0
 37 40  1  0
 37 39  1  0
 38 36  2  0
 41 42  1  0
 41 16  1  0
 43 41  1  0
 44 45  1  0
 44  2  1  0
 46 57  2  0
 47 45  1  0
 47 52  1  0
 48 56  1  0
 48 58  1  0
 49 55  1  0
 49 51  1  0
 50 56  1  0
 51 50  1  0
 52 51  2  0
 53 54  1  0
 53 47  2  0
 54 49  2  0
 55 48  1  0
 56 46  1  0
 58 60  2  0
 59 58  1  0
 61 59  1  0
 62 71  2  0
 62 67  1  0
 63 59  1  0
 63 67  1  0
 64 63  1  0
 65 66  1  0
 65 64  1  0
 66 62  1  0
 67 68  2  0
 68 69  1  0
 70 69  2  0
 71 70  1  0
 72 46  1  0
 72 77  1  0
 72 73  1  0
 73 76  1  1
 73 74  1  0
 75 73  1  0
 77 80  1  0
 78 82  1  0
 78 77  1  0
 79 78  2  0
 82 81  1  0
 84 82  1  0
 84 85  1  0
 84 83  1  0
M  ISO  4   7 100   8 100  44 101  45 101
M  END
>  <TORSDO>  (46) 
F 20

>  <SCORE>  (46) 
-15.718

>  <name>  (46) 
45

>  <ligand_id>  (46) 
45

>  <original_smiles>  (46) 
[H]c1c([H])c([H])c2c(c1[H])C([H])([H])C([H])([H])C([H])([H])C2([H])N([H])C(=O)C1([H])N(C(=O)C([H])(N([H])C(=O)C([H])(N([H])C([H])([H])[H])C([H])([H])[H])C(C([H])([H])[H])(C([H])([H])[H])C([H])([H])[H])C([H])([H])c2c([H])c(OC([H])([H])C([H])(N=C(C([H])([H])[H])C([H])([H])C([H])([H])C(=O)N3C([H])([H])C([H])([H])C([H])([H])C([H])(n4nc(-c5c([H])c([H])c(Oc6c([H])c([H])c(F)c([H])c6F)c([H])c5[H])c(C(=O)N([H])[H])c4N([H])[H])C3([H])[H])C([H])([H])[H])c([H])c([H])c2C1([H])[H]

>  <smiles>  (46) 
[H]c1c([H])c([H])c2c(c1[H])C([H])([H])C([H])([H])C([H])([H])C2([H])N([H])C(=O)C1([H])N(C(=O)C([H])(N([H])C(=O)C([H])(N([H])C([H])([H])[H])C([H])([H])[H])C(C([H])([H])[H])(C([H])([H])[H])C([H])([H])[H])C([H])([H])c2c([H])c(OC([H])([H])C([H])(N=C(C([H])([H])[H])C([H])([H])C([H])([H])C(=O)N3C([H])([H])C([H])([H])C([H])([H])C([H])(n4nc(-c5c([H])c([H])c(Oc6c([H])c([H])c(F)c([H])c6F)c([H])c5[H])c(C(=O)N([H])[H])c4N([H])[H])C3([H])[H])C([H])([H])[H])c([H])c([H])c2C1([H])[H]

$$$$
46:0:0
     RDKit          3D

 93101  0  0  1  0  0  0  0  0999 V2000
  -29.0990  -21.9470   22.0930 C   0  0  0  0  0  0  0  0  0  0  0  0
  -29.0150  -23.2430   21.7800 N   0  0  0  0  0  0  0  0  0  0  0  0
  -28.1180  -21.2750   22.4160 O   0  0  0  0  0  0  0  0  0  0  0  0
  -29.8710  -23.7300   21.5520 H   0  0  0  0  0  0  0  0  0  0  0  0
  -30.4880  -21.3140   22.0050 C   0  0  0  0  0  2  0  0  0  0  0  0
  -30.1410  -18.7780   21.2850 C   0  0  0  0  0  2  0  0  0  0  0  0
  -31.9140  -19.6490   20.5240 C   0  0  0  0  0  2  0  0  0  0  0  0
  -30.5500  -20.2180   20.9400 C   0  0  0  0  0  3  0  0  0  0  0  0
  -31.2350  -18.2870   20.3250 C   0  0  0  0  0  3  0  0  0  0  0  0
  -31.6040  -15.9990   20.8150 C   0  0  0  0  0  0  0  0  0  0  0  0
  -32.4050  -14.9090   21.4980 C   0  0  0  0  0  1  0  0  0  0  0  0
  -32.0220  -17.2050   20.8760 N   0  0  0  0  0  0  0  0  0  0  0  0
  -30.2970  -15.5060   20.1750 C   0  0  0  0  0  2  0  0  0  0  0  0
  -30.5180  -14.4330   19.0820 C   0  0  0  0  0  0  0  0  0  0  0  0
  -30.1290  -12.1200   18.2790 C   0  0  0  0  0  2  0  0  0  0  0  0
  -28.9660  -12.0090   17.2770 C   0  0  0  0  0  2  0  0  0  0  0  0
  -27.6240  -11.8510   18.0170 C   0  0  0  0  0  2  0  0  0  0  0  0
  -27.4350  -12.9180   19.1230 C   0  0  0  0  0  3  0  0  0  0  0  0
  -28.6820  -12.9940   20.0310 C   0  0  0  0  0  2  0  0  0  0  0  0
  -29.8630  -13.2450   19.1880 N   0  0  0  0  0  0  0  0  0  0  0  0
  -31.3130  -14.6540   18.1580 O   0  0  0  0  0  0  0  0  0  0  0  0
  -25.3410  -13.5790   20.4730 C   0  0  0  0  0  0  0  0  0  0  0  0
  -24.3360  -12.8300   21.0250 C   0  0  0  0  0  0  0  0  0  0  0  0
  -24.6620  -11.4670   20.7470 C   0  0  0  0  0  0  0  0  0  0  0  0
  -26.2210  -12.6720   19.9010 N   0  0  0  0  0  0  0  0  0  0  0  0
  -25.8280  -11.3910   20.1200 N   0  0  0  0  0  0  0  0  0  0  0  0
  -23.9050  -10.2330   20.9930 C   0  0  0  0  0  0  0  0  0  0  0  0
  -24.3690   -9.2490   21.8950 C   0  0  0  0  0  3  0  0  0  0  0  0
  -23.6130   -8.0800   22.1270 C   0  0  0  0  0  3  0  0  0  0  0  0
  -22.3810   -7.8860   21.4580 C   0  0  0  0  0  0  0  0  0  0  0  0
  -21.9370   -8.8580   20.5440 C   0  0  0  0  0  3  0  0  0  0  0  0
  -22.6920  -10.0190   20.3100 C   0  0  0  0  0  3  0  0  0  0  0  0
  -21.5920   -6.7690   21.6010 O   0  0  0  0  0  0  0  0  0  0  0  0
  -21.5060   -6.0990   22.7940 C   0  0  0  0  0  0  0  0  0  0  0  0
  -21.0140   -6.7180   23.9630 C   0  0  0  0  0  3  0  0  0  0  0  0
  -20.8760   -5.9720   25.1520 C   0  0  0  0  0  3  0  0  0  0  0  0
  -21.2210   -4.6080   25.1700 C   0  0  0  0  0  0  0  0  0  0  0  0
  -21.7070   -3.9880   24.0050 C   0  0  0  0  0  3  0  0  0  0  0  0
  -21.8460   -4.7310   22.8200 C   0  0  0  0  0  0  0  0  0  0  0  0
  -22.2940   -4.1240   21.6950 F   0  0  0  0  0  0  0  0  0  0  0  0
  -21.0820   -3.8880   26.3080 F   0  0  0  0  0  0  0  0  0  0  0  0
  -23.0930  -13.3490   21.6870 C   0  0  0  0  0  0  0  0  0  0  0  0
  -22.5630  -12.6120   22.6580 N   0  0  0  0  0  0  0  0  0  0  0  0
  -22.6100  -14.4380   21.3790 O   0  0  0  0  0  0  0  0  0  0  0  0
  -22.9720  -11.7290   22.9250 H   0  0  0  0  0  0  0  0  0  0  0  0
  -21.7400  -12.9390   23.1430 H   0  0  0  0  0  0  0  0  0  0  0  0
  -25.5680  -14.9500   20.3940 N   0  0  0  0  0  0  0  0  0  0  0  0
  -24.9110  -15.6280   20.7630 H   0  0  0  0  0  0  0  0  0  0  0  0
  -26.3460  -15.3790   19.9070 H   0  0  0  0  0  0  0  0  0  0  0  0
  -27.7690  -23.9890   21.6830 C   0  0  0  0  0  2  0  0  0  0  0  0
  -28.0230  -25.4620   21.3450 C   0  0  0  0  0  2  0  0  0  0  0  0
  -28.6710  -25.7100   19.9570 C   0  0  0  0  0  2  0  0  0  0  0  0
  -28.7060  -27.1040   19.6280 O   0  0  0  0  0  0  0  0  0  0  0  0
  -24.5860  -31.6660   23.1610 C   0  0  0  0  0  0  0  0  0  0  0  0
  -27.4920  -27.7490   19.6480 C   0  0  0  0  0  0  0  0  0  0  0  0
  -23.4560  -30.3110   21.4280 C   0  0  0  0  0  3  0  0  0  0  0  0
  -24.9900  -29.0310   19.8440 C   0  0  0  0  0  0  0  0  0  0  0  0
  -25.9400  -30.8910   21.2210 C   0  0  0  0  0  2  0  0  0  0  0  0
  -26.1150  -29.5980   20.4550 C   0  0  0  0  0  0  0  0  0  0  0  0
  -27.3710  -28.9620   20.3570 C   0  0  0  0  0  3  0  0  0  0  0  0
  -26.3520  -27.1980   19.0200 C   0  0  0  0  0  3  0  0  0  0  0  0
  -25.1010  -27.8290   19.1240 C   0  0  0  0  0  3  0  0  0  0  0  0
  -23.6820  -29.7710   19.9920 C   0  0  0  0  0  2  0  0  0  0  0  0
  -24.6780  -30.9670   21.9940 N   0  0  0  0  0  0  0  0  0  0  0  0
  -23.5000  -31.8060   23.7400 O   0  0  0  0  0  0  0  0  0  0  0  0
  -22.9150  -29.1600   22.3080 C   0  0  0  0  0  0  0  0  0  0  0  0
  -21.6190  -28.8490   22.1500 N   0  0  0  0  0  0  0  0  0  0  0  0
  -23.6570  -28.5560   23.0870 O   0  0  0  0  0  0  0  0  0  0  0  0
  -21.0790  -29.3970   21.4940 H   0  0  0  0  0  0  0  0  0  0  0  0
  -18.3900  -27.2660   22.4950 C   0  0  0  0  0  0  0  0  0  0  0  0
  -20.8980  -27.7800   22.8430 C   0  0  0  0  0  3  0  0  0  0  0  0
  -21.1690  -26.4090   22.1820 C   0  0  0  0  0  2  0  0  0  0  0  0
  -20.1250  -26.0320   21.1250 C   0  0  0  0  0  2  0  0  0  0  0  0
  -18.7250  -25.9860   21.7450 C   0  0  0  0  0  2  0  0  0  0  0  0
  -19.4110  -28.1150   22.9950 C   0  0  0  0  0  0  0  0  0  0  0  0
  -19.0450  -29.3120   23.6520 C   0  0  0  0  0  3  0  0  0  0  0  0
  -17.6910  -29.6580   23.8150 C   0  0  0  0  0  3  0  0  0  0  0  0
  -16.6850  -28.8040   23.3330 C   0  0  0  0  0  3  0  0  0  0  0  0
  -17.0350  -27.6100   22.6770 C   0  0  0  0  0  3  0  0  0  0  0  0
  -25.8350  -32.3420   23.8080 C   0  0  0  0  0  3  0  0  0  0  0  0
  -25.4640  -33.7250   24.1380 N   0  0  0  0  0  0  0  0  0  0  0  0
  -25.7690  -34.7930   23.3880 C   0  0  0  0  0  0  0  0  0  0  0  0
  -26.4630  -34.7230   22.3700 O   0  0  0  0  0  0  0  0  0  0  0  0
  -24.8480  -33.8510   24.9270 H   0  0  0  0  0  0  0  0  0  0  0  0
  -23.9710  -36.5080   23.0070 C   0  0  0  0  0  1  0  0  0  0  0  0
  -25.2150  -36.1570   23.8400 C   0  0  0  0  0  3  0  0  0  0  0  0
  -27.2920  -37.1340   24.7120 C   0  0  0  0  0  1  0  0  0  0  0  0
  -26.2040  -37.2530   23.7450 N   0  0  0  0  0  0  0  0  0  0  0  0
  -25.7550  -38.1550   23.8830 H   0  0  0  0  0  0  0  0  0  0  0  0
  -26.3620  -31.5830   25.0870 C   0  0  1  0  0  0  0  0  0  0  0  0
  -25.2610  -31.2790   26.1290 C   0  0  0  0  0  1  0  0  0  0  0  0
  -27.0180  -30.2390   24.6890 C   0  0  0  0  0  1  0  0  0  0  0  0
  -27.4620  -32.4240   25.7800 C   0  0  0  0  0  1  0  0  0  0  0  0
  1  3  2  0
  2  1  1  0
  4  2  1  0
  5  1  1  0
  7  8  1  0
  8  6  1  0
  8  5  1  0
  9  7  1  0
  9 12  1  0
  9  6  1  0
 10 12  2  0
 10 11  1  0
 13 10  1  0
 14 20  1  0
 14 13  1  0
 15 20  1  0
 16 17  1  0
 16 15  1  0
 18 17  1  0
 18 25  1  0
 18 19  1  0
 20 19  1  0
 21 14  2  0
 22 23  2  0
 23 42  1  0
 24 27  1  0
 24 23  1  0
 25 26  1  0
 25 22  1  0
 26 24  2  0
 27 28  1  0
 28 29  2  0
 30 33  1  0
 30 29  1  0
 31 30  2  0
 32 31  1  0
 32 27  2  0
 33 34  1  0
 34 39  2  0
 34 35  1  0
 35 36  2  0
 36 37  1  0
 37 41  1  0
 38 37  2  0
 39 38  1  0
 40 39  1  0
 42 43  1  0
 43 45  1  0
 43 46  1  0
 44 42  2  0
 47 22  1  0
 47 48  1  0
 49 47  1  0
 50  2  1  0
 51 50  1  0
 52 51  1  0
 53 55  1  0
 53 52  1  0
 54 65  2  0
 55 60  1  0
 56 64  1  0
 56 66  1  0
 57 63  1  0
 57 59  1  0
 58 64  1  0
 59 58  1  0
 60 59  2  0
 61 62  1  0
 61 55  2  0
 62 57  2  0
 63 56  1  0
 64 54  1  0
 66 68  2  0
 67 66  1  0
 69 67  1  0
 70 79  2  0
 70 75  1  0
 71 67  1  0
 71 75  1  0
 72 71  1  0
 73 74  1  0
 73 72  1  0
 74 70  1  0
 75 76  2  0
 76 77  1  0
 78 77  2  0
 79 78  1  0
 80 54  1  0
 80 81  1  0
 80 90  1  0
 81 84  1  0
 82 86  1  0
 82 81  1  0
 83 82  2  0
 86 85  1  0
 88 86  1  0
 88 89  1  0
 88 87  1  0
 90 93  1  1
 90 91  1  0
 92 90  1  0
M  ISO  4  13 100  14 100  52 101  53 101
M  END
>  <TORSDO>  (47) 
F 23

>  <SCORE>  (47) 
-9.155

>  <name>  (47) 
46

>  <ligand_id>  (47) 
46

>  <original_smiles>  (47) 
[H]c1c([H])c([H])c2c(c1[H])C([H])([H])C([H])([H])C([H])([H])C2([H])N([H])C(=O)C1([H])N(C(=O)C([H])(N([H])C(=O)C([H])(N([H])C([H])([H])[H])C([H])([H])[H])C(C([H])([H])[H])(C([H])([H])[H])C([H])([H])[H])C([H])([H])c2c([H])c(OC([H])([H])C([H])([H])C([H])([H])N([H])C(=O)C([H])([H])C3([H])C([H])([H])C([H])(N=C(C([H])([H])[H])C([H])([H])C(=O)N4C([H])([H])C([H])([H])C([H])([H])C([H])(n5nc(-c6c([H])c([H])c(Oc7c([H])c([H])c(F)c([H])c7F)c([H])c6[H])c(C(=O)N([H])[H])c5N([H])[H])C4([H])[H])C3([H])[H])c([H])c([H])c2C1([H])[H]

>  <smiles>  (47) 
[H]c1c([H])c([H])c2c(c1[H])C([H])([H])C([H])([H])C([H])([H])C2([H])N([H])C(=O)C1([H])N(C(=O)C([H])(N([H])C(=O)C([H])(N([H])C([H])([H])[H])C([H])([H])[H])C(C([H])([H])[H])(C([H])([H])[H])C([H])([H])[H])C([H])([H])c2c([H])c(OC([H])([H])C([H])([H])C([H])([H])N([H])C(=O)C([H])([H])C3([H])C([H])([H])C([H])(N=C(C([H])([H])[H])C([H])([H])C(=O)N4C([H])([H])C([H])([H])C([H])([H])C([H])(n5nc(-c6c([H])c([H])c(Oc7c([H])c([H])c(F)c([H])c7F)c([H])c6[H])c(C(=O)N([H])[H])c5N([H])[H])C4([H])[H])C3([H])[H])c([H])c([H])c2C1([H])[H]

$$$$
47:0:0
     RDKit          3D

 83 90  0  0  1  0  0  0  0  0999 V2000
  -28.0300  -24.3430   20.4890 C   0  0  0  0  0  3  0  0  0  0  0  0
  -28.2350  -25.9400   20.2140 O   0  0  0  0  0  0  0  0  0  0  0  0
  -24.6090  -31.8440   23.1680 C   0  0  0  0  0  0  0  0  0  0  0  0
  -27.1940  -26.9920   20.1990 C   0  0  0  0  0  0  0  0  0  0  0  0
  -23.4220  -30.4310   21.5380 C   0  0  0  0  0  3  0  0  0  0  0  0
  -24.8780  -28.8260   20.1340 C   0  0  0  0  0  0  0  0  0  0  0  0
  -25.9840  -30.6670   21.3880 C   0  0  0  0  0  2  0  0  0  0  0  0
  -26.0630  -29.2550   20.7470 C   0  0  0  0  0  0  0  0  0  0  0  0
  -27.2190  -28.3600   20.7510 C   0  0  0  0  0  3  0  0  0  0  0  0
  -25.9780  -26.7010   19.5450 C   0  0  0  0  0  3  0  0  0  0  0  0
  -24.8580  -27.5680   19.5130 C   0  0  0  0  0  3  0  0  0  0  0  0
  -23.6550  -29.7380   20.1680 C   0  0  0  0  0  2  0  0  0  0  0  0
  -24.6920  -31.0070   22.0850 N   0  0  0  0  0  0  0  0  0  0  0  0
  -23.5180  -32.1320   23.6870 O   0  0  0  0  0  0  0  0  0  0  0  0
  -22.7330  -29.4380   22.5100 C   0  0  0  0  0  0  0  0  0  0  0  0
  -21.4030  -29.2760   22.3920 N   0  0  0  0  0  0  0  0  0  0  0  0
  -23.4030  -28.8120   23.3360 O   0  0  0  0  0  0  0  0  0  0  0  0
  -20.9160  -29.8290   21.7020 H   0  0  0  0  0  0  0  0  0  0  0  0
  -18.0210  -28.0740   22.9180 C   0  0  0  0  0  0  0  0  0  0  0  0
  -20.5820  -28.3420   23.1710 C   0  0  0  0  0  3  0  0  0  0  0  0
  -20.6820  -26.9060   22.6030 C   0  0  0  0  0  2  0  0  0  0  0  0
  -19.5750  -26.5790   21.5940 C   0  0  0  0  0  2  0  0  0  0  0  0
  -18.1960  -26.7230   22.2440 C   0  0  0  0  0  2  0  0  0  0  0  0
  -19.1410  -28.8410   23.3390 C   0  0  0  0  0  0  0  0  0  0  0  0
  -18.9200  -30.1030   23.9330 C   0  0  0  0  0  3  0  0  0  0  0  0
  -17.6140  -30.5990   24.1070 C   0  0  0  0  0  3  0  0  0  0  0  0
  -16.5100  -29.8310   23.7000 C   0  0  0  0  0  3  0  0  0  0  0  0
  -16.7140  -28.5700   23.1110 C   0  0  0  0  0  3  0  0  0  0  0  0
  -25.8770  -32.4960   23.7970 C   0  0  0  0  0  3  0  0  0  0  0  0
  -26.4000  -31.7260   25.0730 C   0  0  1  0  0  0  0  0  0  0  0  0
  -25.3110  -31.4780   26.1420 C   0  0  0  0  0  1  0  0  0  0  0  0
  -26.9950  -30.3540   24.6840 C   0  0  0  0  0  1  0  0  0  0  0  0
  -27.5460  -32.5280   25.7350 C   0  0  0  0  0  1  0  0  0  0  0  0
  -25.5450  -33.8890   24.1470 N   0  0  0  0  0  0  0  0  0  0  0  0
  -25.8560  -34.9600   23.4060 C   0  0  0  0  0  0  0  0  0  0  0  0
  -26.5180  -34.8830   22.3670 O   0  0  0  0  0  0  0  0  0  0  0  0
  -24.9540  -34.0210   24.9540 H   0  0  0  0  0  0  0  0  0  0  0  0
  -24.0990  -36.7410   23.1110 C   0  0  0  0  0  1  0  0  0  0  0  0
  -25.3600  -36.3370   23.8930 C   0  0  0  0  0  3  0  0  0  0  0  0
  -27.4980  -37.2400   24.6970 C   0  0  0  0  0  1  0  0  0  0  0  0
  -26.3760  -37.4060   23.7780 N   0  0  0  0  0  0  0  0  0  0  0  0
  -25.9600  -38.3190   23.9470 H   0  0  0  0  0  0  0  0  0  0  0  0
  -28.8560  -22.8490   19.9770 C   0  0  0  0  0  3  0  0  0  0  0  0
  -28.8920  -21.1690   20.5880 C   0  0  0  0  0  3  0  0  0  0  0  0
  -29.3590  -19.6470   19.7980 C   0  0  0  0  0  3  0  0  0  0  0  0
  -29.5500  -16.5720   20.2770 C   0  0  0  0  0  2  0  0  0  0  0  0
  -29.8060  -18.0240   20.2420 C   0  0  0  0  0  2  0  0  0  0  0  0
  -30.4440  -15.2280   20.2500 C   0  0  0  0  0  0  0  0  0  0  0  0
  -30.4210  -12.7880   19.3970 C   0  0  0  0  0  2  0  0  0  0  0  0
  -29.4960  -12.6170   18.1650 C   0  0  0  0  0  2  0  0  0  0  0  0
  -28.0420  -12.3580   18.6020 C   0  0  0  0  0  2  0  0  0  0  0  0
  -27.5980  -13.3170   19.7340 C   0  0  0  0  0  3  0  0  0  0  0  0
  -28.6480  -13.4420   20.8560 C   0  0  0  0  0  2  0  0  0  0  0  0
  -29.8940  -13.9190   20.2380 N   0  0  0  0  0  0  0  0  0  0  0  0
  -31.6640  -15.2340   20.0360 O   0  0  0  0  0  0  0  0  0  0  0  0
  -25.2280  -13.8750   20.4970 C   0  0  0  0  0  0  0  0  0  0  0  0
  -24.1700  -13.0950   20.8740 C   0  0  0  0  0  0  0  0  0  0  0  0
  -24.6420  -11.7470   20.8470 C   0  0  0  0  0  0  0  0  0  0  0  0
  -26.2720  -13.0010   20.2500 N   0  0  0  0  0  0  0  0  0  0  0  0
  -25.9320  -11.7160   20.5300 N   0  0  0  0  0  0  0  0  0  0  0  0
  -23.9190  -10.4830   21.0430 C   0  0  0  0  0  0  0  0  0  0  0  0
  -24.3650   -9.5120   21.9660 C   0  0  0  0  0  3  0  0  0  0  0  0
  -23.6390   -8.3150   22.1520 C   0  0  0  0  0  3  0  0  0  0  0  0
  -22.4540   -8.0800   21.4150 C   0  0  0  0  0  0  0  0  0  0  0  0
  -22.0270   -9.0410   20.4800 C   0  0  0  0  0  3  0  0  0  0  0  0
  -22.7530  -10.2280   20.2920 C   0  0  0  0  0  3  0  0  0  0  0  0
  -21.7000   -6.9360   21.5100 O   0  0  0  0  0  0  0  0  0  0  0  0
  -21.6800   -6.1800   22.6550 C   0  0  0  0  0  0  0  0  0  0  0  0
  -21.3060   -6.7260   23.9020 C   0  0  0  0  0  3  0  0  0  0  0  0
  -21.2320   -5.8970   25.0390 C   0  0  0  0  0  3  0  0  0  0  0  0
  -21.5230   -4.5240   24.9320 C   0  0  0  0  0  0  0  0  0  0  0  0
  -21.8910   -3.9780   23.6880 C   0  0  0  0  0  3  0  0  0  0  0  0
  -21.9660   -4.8040   22.5530 C   0  0  0  0  0  0  0  0  0  0  0  0
  -22.3000   -4.2680   21.3550 F   0  0  0  0  0  0  0  0  0  0  0  0
  -21.4450   -3.7260   26.0220 F   0  0  0  0  0  0  0  0  0  0  0  0
  -22.7720  -13.5690   21.1430 C   0  0  0  0  0  0  0  0  0  0  0  0
  -22.0480  -12.8770   22.0160 N   0  0  0  0  0  0  0  0  0  0  0  0
  -22.3310  -14.5900   20.6150 O   0  0  0  0  0  0  0  0  0  0  0  0
  -22.4190  -12.0530   22.4640 H   0  0  0  0  0  0  0  0  0  0  0  0
  -21.1100  -13.1770   22.2380 H   0  0  0  0  0  0  0  0  0  0  0  0
  -25.3840  -15.2450   20.3150 N   0  0  0  0  0  0  0  0  0  0  0  0
  -24.6130  -15.8950   20.4290 H   0  0  0  0  0  0  0  0  0  0  0  0
  -26.2230  -15.6880   19.9630 H   0  0  0  0  0  0  0  0  0  0  0  0
  2  1  1  0
  3 14  2  0
  4  2  1  0
  4  9  1  0
  5 13  1  0
  5 15  1  0
  6 12  1  0
  6  8  1  0
  7 13  1  0
  8  9  2  0
  8  7  1  0
 10  4  2  0
 11 10  1  0
 11  6  2  0
 12  5  1  0
 13  3  1  0
 15 17  2  0
 16 15  1  0
 18 16  1  0
 19 28  2  0
 19 24  1  0
 20 16  1  0
 20 24  1  0
 21 20  1  0
 22 23  1  0
 22 21  1  0
 23 19  1  0
 24 25  2  0
 25 26  1  0
 27 26  2  0
 28 27  1  0
 29  3  1  0
 29 34  1  0
 29 30  1  0
 30 33  1  1
 30 31  1  0
 32 30  1  0
 34 37  1  0
 35 39  1  0
 35 34  1  0
 36 35  2  0
 39 38  1  0
 41 39  1  0
 41 42  1  0
 41 40  1  0
 43  1  2  0
 43 44  1  0
 45 47  1  0
 45 44  2  0
 47 46  1  0
 48 46  1  0
 49 54  1  0
 50 51  1  0
 50 49  1  0
 52 51  1  0
 52 59  1  0
 52 53  1  0
 54 48  1  0
 54 53  1  0
 55 48  2  0
 56 57  2  0
 57 76  1  0
 58 57  1  0
 58 61  1  0
 59 56  1  0
 59 60  1  0
 60 58  2  0
 61 62  1  0
 62 63  2  0
 64 67  1  0
 64 63  1  0
 65 64  2  0
 66 65  1  0
 66 61  2  0
 67 68  1  0
 68 69  1  0
 69 70  2  0
 71 70  1  0
 71 75  1  0
 72 71  2  0
 73 68  2  0
 73 72  1  0
 74 73  1  0
 76 77  1  0
 77 80  1  0
 77 79  1  0
 78 76  2  0
 81 82  1  0
 81 56  1  0
 83 81  1  0
M  ISO  4   1 101   2 101  46 100  48 100
M  END
>  <TORSDO>  (48) 
F 20

>  <SCORE>  (48) 
-15.327

>  <name>  (48) 
47

>  <ligand_id>  (48) 
47

>  <original_smiles>  (48) 
[H]C(C(=O)N1C([H])([H])C([H])([H])C([H])([H])C([H])(n2nc(-c3c([H])c([H])c(Oc4c([H])c([H])c(F)c([H])c4F)c([H])c3[H])c(C(=O)N([H])[H])c2N([H])[H])C1([H])[H])=C([H])C([H])([H])C([H])([H])C([H])([H])C([H])([H])Oc1c([H])c([H])c2c(c1[H])C([H])([H])N(C(=O)C([H])(N([H])C(=O)C([H])(N([H])C([H])([H])[H])C([H])([H])[H])C(C([H])([H])[H])(C([H])([H])[H])C([H])([H])[H])C([H])(C(=O)N([H])C1([H])c3c([H])c([H])c([H])c([H])c3C([H])([H])C([H])([H])C1([H])[H])C2([H])[H]

>  <smiles>  (48) 
[H]C(C(=O)N1C([H])([H])C([H])([H])C([H])([H])C([H])(n2nc(-c3c([H])c([H])c(Oc4c([H])c([H])c(F)c([H])c4F)c([H])c3[H])c(C(=O)N([H])[H])c2N([H])[H])C1([H])[H])=C([H])C([H])([H])C([H])([H])C([H])([H])C([H])([H])Oc1c([H])c([H])c2c(c1[H])C([H])([H])N(C(=O)C([H])(N([H])C(=O)C([H])(N([H])C([H])([H])[H])C([H])([H])[H])C(C([H])([H])[H])(C([H])([H])[H])C([H])([H])[H])C([H])(C(=O)N([H])C1([H])c3c([H])c([H])c([H])c([H])c3C([H])([H])C([H])([H])C1([H])[H])C2([H])[H]

$$$$
48:0:0
     RDKit          3D

 85 92  0  0  1  0  0  0  0  0999 V2000
  -29.9290  -22.9250   18.9720 C   0  0  0  0  0  1  0  0  0  0  0  0
  -29.0330  -22.7000   20.1980 C   0  0  0  0  0  3  0  0  0  0  0  0
  -28.7560  -20.9550   20.3300 C   0  0  0  0  0  3  0  0  0  0  0  0
  -29.5340  -19.6820   20.2670 C   0  0  0  0  0  0  0  0  0  0  0  0
  -31.0210  -19.8360   20.0310 C   0  0  0  0  0  1  0  0  0  0  0  0
  -29.0630  -18.1160   20.4410 C   0  0  0  0  0  3  0  0  0  0  0  0
  -29.3260  -16.6380   20.4330 C   0  0  0  0  0  3  0  0  0  0  0  0
  -30.3100  -15.3490   20.2200 C   0  0  0  0  0  0  0  0  0  0  0  0
  -30.3690  -12.8870   19.3390 C   0  0  0  0  0  2  0  0  0  0  0  0
  -29.4290  -12.6790   18.1180 C   0  0  0  0  0  2  0  0  0  0  0  0
  -27.9860  -12.3850   18.5680 C   0  0  0  0  0  2  0  0  0  0  0  0
  -27.5410  -13.3280   19.7120 C   0  0  0  0  0  3  0  0  0  0  0  0
  -28.6020  -13.4530   20.8240 C   0  0  0  0  0  2  0  0  0  0  0  0
  -29.8220  -14.0020   20.2010 N   0  0  0  0  0  0  0  0  0  0  0  0
  -31.5190  -15.3970   19.9440 O   0  0  0  0  0  0  0  0  0  0  0  0
  -25.1740  -13.8650   20.4930 C   0  0  0  0  0  0  0  0  0  0  0  0
  -24.1220  -13.0790   20.8740 C   0  0  0  0  0  0  0  0  0  0  0  0
  -24.6010  -11.7320   20.8350 C   0  0  0  0  0  0  0  0  0  0  0  0
  -26.2200  -12.9990   20.2340 N   0  0  0  0  0  0  0  0  0  0  0  0
  -25.8890  -11.7100   20.5070 N   0  0  0  0  0  0  0  0  0  0  0  0
  -23.8850  -10.4630   21.0300 C   0  0  0  0  0  0  0  0  0  0  0  0
  -24.3330   -9.4960   21.9550 C   0  0  0  0  0  3  0  0  0  0  0  0
  -23.6150   -8.2950   22.1400 C   0  0  0  0  0  3  0  0  0  0  0  0
  -22.4340   -8.0530   21.3990 C   0  0  0  0  0  0  0  0  0  0  0  0
  -22.0040   -9.0090   20.4630 C   0  0  0  0  0  3  0  0  0  0  0  0
  -22.7230  -10.2020   20.2750 C   0  0  0  0  0  3  0  0  0  0  0  0
  -21.6860   -6.9040   21.4930 O   0  0  0  0  0  0  0  0  0  0  0  0
  -21.6570   -6.1560   22.6430 C   0  0  0  0  0  0  0  0  0  0  0  0
  -21.2460   -6.7040   23.8790 C   0  0  0  0  0  3  0  0  0  0  0  0
  -21.1650   -5.8840   25.0210 C   0  0  0  0  0  3  0  0  0  0  0  0
  -21.4820   -4.5150   24.9300 C   0  0  0  0  0  0  0  0  0  0  0  0
  -21.8850   -3.9660   23.6990 C   0  0  0  0  0  3  0  0  0  0  0  0
  -21.9680   -4.7840   22.5590 C   0  0  0  0  0  0  0  0  0  0  0  0
  -22.3360   -4.2460   21.3720 F   0  0  0  0  0  0  0  0  0  0  0  0
  -21.3960   -3.7240   26.0250 F   0  0  0  0  0  0  0  0  0  0  0  0
  -22.7240  -13.5440   21.1570 C   0  0  0  0  0  0  0  0  0  0  0  0
  -22.0120  -12.8460   22.0350 N   0  0  0  0  0  0  0  0  0  0  0  0
  -22.2730  -14.5630   20.6360 O   0  0  0  0  0  0  0  0  0  0  0  0
  -22.3920  -12.0230   22.4780 H   0  0  0  0  0  0  0  0  0  0  0  0
  -21.0740  -13.1410   22.2680 H   0  0  0  0  0  0  0  0  0  0  0  0
  -25.3220  -15.2370   20.3160 N   0  0  0  0  0  0  0  0  0  0  0  0
  -24.5460  -15.8810   20.4290 H   0  0  0  0  0  0  0  0  0  0  0  0
  -26.1500  -15.6800   19.9410 H   0  0  0  0  0  0  0  0  0  0  0  0
  -27.9490  -24.1700   20.2170 C   0  0  0  0  0  2  0  0  0  0  0  0
  -28.1830  -25.8230   20.2420 O   0  0  0  0  0  0  0  0  0  0  0  0
  -24.6500  -31.8560   23.1920 C   0  0  0  0  0  0  0  0  0  0  0  0
  -27.1700  -26.9300   20.1940 C   0  0  0  0  0  0  0  0  0  0  0  0
  -23.4430  -30.4600   21.5640 C   0  0  0  0  0  3  0  0  0  0  0  0
  -24.8790  -28.8360   20.1460 C   0  0  0  0  0  0  0  0  0  0  0  0
  -26.0110  -30.6510   21.4090 C   0  0  0  0  0  2  0  0  0  0  0  0
  -26.0720  -29.2360   20.7590 C   0  0  0  0  0  0  0  0  0  0  0  0
  -27.2110  -28.3060   20.7530 C   0  0  0  0  0  3  0  0  0  0  0  0
  -25.9430  -26.6870   19.5350 C   0  0  0  0  0  3  0  0  0  0  0  0
  -24.8400  -27.5830   19.5120 C   0  0  0  0  0  3  0  0  0  0  0  0
  -23.6660  -29.7670   20.1920 C   0  0  0  0  0  2  0  0  0  0  0  0
  -24.7240  -31.0160   22.1080 N   0  0  0  0  0  0  0  0  0  0  0  0
  -23.5630  -32.1550   23.7160 O   0  0  0  0  0  0  0  0  0  0  0  0
  -22.7450  -29.4740   22.5380 C   0  0  0  0  0  0  0  0  0  0  0  0
  -21.4120  -29.3210   22.4230 N   0  0  0  0  0  0  0  0  0  0  0  0
  -23.4100  -28.8450   23.3660 O   0  0  0  0  0  0  0  0  0  0  0  0
  -20.9290  -29.8780   21.7340 H   0  0  0  0  0  0  0  0  0  0  0  0
  -18.0250  -28.1340   22.9570 C   0  0  0  0  0  0  0  0  0  0  0  0
  -20.5870  -28.3920   23.2030 C   0  0  0  0  0  3  0  0  0  0  0  0
  -20.6790  -26.9570   22.6340 C   0  0  0  0  0  2  0  0  0  0  0  0
  -19.5690  -26.6350   21.6270 C   0  0  0  0  0  2  0  0  0  0  0  0
  -18.1920  -26.7850   22.2800 C   0  0  0  0  0  2  0  0  0  0  0  0
  -19.1490  -28.8960   23.3750 C   0  0  0  0  0  0  0  0  0  0  0  0
  -18.9350  -30.1570   23.9720 C   0  0  0  0  0  3  0  0  0  0  0  0
  -17.6310  -30.6590   24.1510 C   0  0  0  0  0  3  0  0  0  0  0  0
  -16.5230  -29.8960   23.7460 C   0  0  0  0  0  3  0  0  0  0  0  0
  -16.7210  -28.6350   23.1550 C   0  0  0  0  0  3  0  0  0  0  0  0
  -25.9250  -32.4960   23.8190 C   0  0  0  0  0  3  0  0  0  0  0  0
  -26.4420  -31.7240   25.0950 C   0  0  1  0  0  0  0  0  0  0  0  0
  -25.3520  -31.4890   26.1670 C   0  0  0  0  0  1  0  0  0  0  0  0
  -27.0210  -30.3430   24.7090 C   0  0  0  0  0  1  0  0  0  0  0  0
  -27.5970  -32.5140   25.7550 C   0  0  0  0  0  1  0  0  0  0  0  0
  -25.6080  -33.8930   24.1700 N   0  0  0  0  0  0  0  0  0  0  0  0
  -25.9140  -34.9620   23.4210 C   0  0  0  0  0  0  0  0  0  0  0  0
  -26.5540  -34.8770   22.3710 O   0  0  0  0  0  0  0  0  0  0  0  0
  -25.0340  -34.0310   24.9880 H   0  0  0  0  0  0  0  0  0  0  0  0
  -24.1560  -36.7480   23.1650 C   0  0  0  0  0  1  0  0  0  0  0  0
  -25.4350  -36.3440   23.9150 C   0  0  0  0  0  3  0  0  0  0  0  0
  -27.5960  -37.2450   24.6580 C   0  0  0  0  0  1  0  0  0  0  0  0
  -26.4520  -37.4080   23.7650 N   0  0  0  0  0  0  0  0  0  0  0  0
  -26.0450  -38.3240   23.9360 H   0  0  0  0  0  0  0  0  0  0  0  0
  2  1  1  0
  2 44  1  0
  2  3  1  0
  4  3  2  0
  4  6  1  0
  5  4  1  0
  7  6  2  0
  8  7  1  0
  9 14  1  0
 10 11  1  0
 10  9  1  0
 12 11  1  0
 12 19  1  0
 12 13  1  0
 14  8  1  0
 14 13  1  0
 15  8  2  0
 16 17  2  0
 17 36  1  0
 18 17  1  0
 18 21  1  0
 19 16  1  0
 19 20  1  0
 20 18  2  0
 21 22  1  0
 22 23  2  0
 24 27  1  0
 24 23  1  0
 25 24  2  0
 26 25  1  0
 26 21  2  0
 27 28  1  0
 28 29  1  0
 29 30  2  0
 31 30  1  0
 31 35  1  0
 32 31  2  0
 33 28  2  0
 33 32  1  0
 34 33  1  0
 36 37  1  0
 37 40  1  0
 37 39  1  0
 38 36  2  0
 41 42  1  0
 41 16  1  0
 43 41  1  0
 44 45  1  0
 46 57  2  0
 47 45  1  0
 47 52  1  0
 48 56  1  0
 48 58  1  0
 49 55  1  0
 49 51  1  0
 50 56  1  0
 51 50  1  0
 52 51  2  0
 53 47  2  0
 54 53  1  0
 54 49  2  0
 55 48  1  0
 56 46  1  0
 58 60  2  0
 59 58  1  0
 61 59  1  0
 62 71  2  0
 62 67  1  0
 63 59  1  0
 63 67  1  0
 64 63  1  0
 65 66  1  0
 65 64  1  0
 66 62  1  0
 67 68  2  0
 68 69  1  0
 70 69  2  0
 71 70  1  0
 72 46  1  0
 72 77  1  0
 72 73  1  0
 73 76  1  1
 73 74  1  0
 75 73  1  0
 77 80  1  0
 78 82  1  0
 78 77  1  0
 79 78  2  0
 82 81  1  0
 84 82  1  0
 84 85  1  0
 84 83  1  0
M  ISO  4   7 100   8 100  44 101  45 101
M  END
>  <TORSDO>  (49) 
F 19

>  <SCORE>  (49) 
-15.539

>  <name>  (49) 
48

>  <ligand_id>  (49) 
48

>  <original_smiles>  (49) 
[H]C(C(=O)N1C([H])([H])C([H])([H])C([H])([H])C([H])(n2nc(-c3c([H])c([H])c(Oc4c([H])c([H])c(F)c([H])c4F)c([H])c3[H])c(C(=O)N([H])[H])c2N([H])[H])C1([H])[H])=C([H])C(=C([H])C([H])(C([H])([H])[H])C([H])([H])Oc1c([H])c([H])c2c(c1[H])C([H])([H])N(C(=O)C([H])(N([H])C(=O)C([H])(N([H])C([H])([H])[H])C([H])([H])[H])C(C([H])([H])[H])(C([H])([H])[H])C([H])([H])[H])C([H])(C(=O)N([H])C1([H])c3c([H])c([H])c([H])c([H])c3C([H])([H])C([H])([H])C1([H])[H])C2([H])[H])C([H])([H])[H]

>  <smiles>  (49) 
[H]C(C(=O)N1C([H])([H])C([H])([H])C([H])([H])C([H])(n2nc(-c3c([H])c([H])c(Oc4c([H])c([H])c(F)c([H])c4F)c([H])c3[H])c(C(=O)N([H])[H])c2N([H])[H])C1([H])[H])=C([H])C(=C([H])C([H])(C([H])([H])[H])C([H])([H])Oc1c([H])c([H])c2c(c1[H])C([H])([H])N(C(=O)C([H])(N([H])C(=O)C([H])(N([H])C([H])([H])[H])C([H])([H])[H])C(C([H])([H])[H])(C([H])([H])[H])C([H])([H])[H])C([H])(C(=O)N([H])C1([H])c3c([H])c([H])c([H])c([H])c3C([H])([H])C([H])([H])C1([H])[H])C2([H])[H])C([H])([H])[H]

$$$$
49:0:0
     RDKit          3D

 86 90  0  0  1  0  0  0  0  0999 V2000
  -28.6950  -21.7710   21.9100 C   0  0  0  0  0  1  0  0  0  0  0  0
  -28.7580  -21.7050   20.5620 C   0  0  0  0  0  2  0  0  0  0  0  0
  -28.2230  -23.4850   19.9180 C   0  0  0  0  0  2  0  0  0  0  0  0
  -28.1440  -25.2880   20.3950 O   0  0  0  0  0  0  0  0  0  0  0  0
  -24.6740  -31.8620   23.1890 C   0  0  0  0  0  0  0  0  0  0  0  0
  -27.2060  -26.5960   20.2620 C   0  0  0  0  0  0  0  0  0  0  0  0
  -23.4940  -30.4410   21.5690 C   0  0  0  0  0  3  0  0  0  0  0  0
  -24.9470  -28.7490   20.1730 C   0  0  0  0  0  0  0  0  0  0  0  0
  -26.0800  -30.5310   21.4660 C   0  0  0  0  0  2  0  0  0  0  0  0
  -26.1440  -29.0730   20.8230 C   0  0  0  0  0  0  0  0  0  0  0  0
  -27.2400  -28.0300   20.8350 C   0  0  0  0  0  3  0  0  0  0  0  0
  -25.9770  -26.5360   19.5380 C   0  0  0  0  0  3  0  0  0  0  0  0
  -24.9160  -27.5080   19.5050 C   0  0  0  0  0  3  0  0  0  0  0  0
  -23.7420  -29.7170   20.2100 C   0  0  0  0  0  2  0  0  0  0  0  0
  -24.7760  -30.9830   22.1260 N   0  0  0  0  0  0  0  0  0  0  0  0
  -23.5770  -32.1720   23.6890 O   0  0  0  0  0  0  0  0  0  0  0  0
  -22.7620  -29.4890   22.5560 C   0  0  0  0  0  0  0  0  0  0  0  0
  -21.4270  -29.3440   22.4370 N   0  0  0  0  0  0  0  0  0  0  0  0
  -23.4120  -28.8760   23.4050 O   0  0  0  0  0  0  0  0  0  0  0  0
  -20.9490  -29.8870   21.7320 H   0  0  0  0  0  0  0  0  0  0  0  0
  -18.0400  -28.1260   22.9690 C   0  0  0  0  0  0  0  0  0  0  0  0
  -20.6000  -28.4160   23.2220 C   0  0  0  0  0  3  0  0  0  0  0  0
  -20.7080  -26.9750   22.6700 C   0  0  0  0  0  2  0  0  0  0  0  0
  -19.6090  -26.6330   21.6590 C   0  0  0  0  0  2  0  0  0  0  0  0
  -18.2250  -26.7730   22.3030 C   0  0  0  0  0  2  0  0  0  0  0  0
  -19.1530  -28.9040   23.3860 C   0  0  0  0  0  0  0  0  0  0  0  0
  -18.9210  -30.1640   23.9780 C   0  0  0  0  0  3  0  0  0  0  0  0
  -17.6110  -30.6490   24.1510 C   0  0  0  0  0  3  0  0  0  0  0  0
  -16.5130  -29.8700   23.7460 C   0  0  0  0  0  3  0  0  0  0  0  0
  -16.7280  -28.6100   23.1610 C   0  0  0  0  0  3  0  0  0  0  0  0
  -25.9280  -32.5320   23.8310 C   0  0  0  0  0  3  0  0  0  0  0  0
  -26.4220  -31.7920   25.1360 C   0  0  1  0  0  0  0  0  0  0  0  0
  -25.3120  -31.5810   26.1940 C   0  0  0  0  0  1  0  0  0  0  0  0
  -27.0100  -30.4040   24.8020 C   0  0  0  0  0  1  0  0  0  0  0  0
  -27.5640  -32.6010   25.7970 C   0  0  0  0  0  1  0  0  0  0  0  0
  -25.5950  -33.9360   24.1560 N   0  0  0  0  0  0  0  0  0  0  0  0
  -25.9230  -35.0030   23.4170 C   0  0  0  0  0  0  0  0  0  0  0  0
  -26.5900  -34.9120   22.3840 O   0  0  0  0  0  0  0  0  0  0  0  0
  -24.9980  -34.0790   24.9580 H   0  0  0  0  0  0  0  0  0  0  0  0
  -24.1880  -36.8080   23.1060 C   0  0  0  0  0  1  0  0  0  0  0  0
  -25.4410  -36.3930   23.8930 C   0  0  0  0  0  3  0  0  0  0  0  0
  -27.5830  -37.2880   24.7020 C   0  0  0  0  0  1  0  0  0  0  0  0
  -26.4690  -37.4510   23.7720 N   0  0  0  0  0  0  0  0  0  0  0  0
  -26.0620  -38.3690   23.9240 H   0  0  0  0  0  0  0  0  0  0  0  0
  -29.3340  -19.9300   19.9070 C   0  0  0  0  0  1  0  0  0  0  0  0
  -31.0820  -19.7230   18.0840 C   0  0  0  0  0  1  0  0  0  0  0  0
  -30.6600  -20.3210   19.3680 N   0  0  0  0  0  4  0  0  0  0  0  0
  -30.6340  -21.3180   19.2270 H   0  0  0  0  0  0  0  0  0  0  0  0
  -31.3700  -20.1500   20.0610 H   0  0  0  0  0  0  0  0  0  0  0  0
  -29.4940  -17.8970   20.3730 C   0  0  0  0  0 15  0  0  0  0  0  0
  -30.1870  -16.0460   20.1100 C   0  0  0  0  0  2  0  0  0  0  0  0
  -30.3520  -13.4130   19.3260 C   0  0  0  0  0  2  0  0  0  0  0  0
  -29.4690  -12.9000   18.1410 C   0  0  0  0  0  2  0  0  0  0  0  0
  -28.0730  -12.4820   18.6230 C   0  0  0  0  0  2  0  0  0  0  0  0
  -27.5420  -13.4930   19.6590 C   0  0  0  0  0  3  0  0  0  0  0  0
  -28.5700  -13.9150   20.7430 C   0  0  0  0  0  2  0  0  0  0  0  0
  -29.7090  -14.6180   20.0790 N   0  0  0  0  0  0  0  0  0  0  0  0
  -31.4050  -15.9020   19.8550 O   0  0  0  0  0  1  0  0  0  0  0  0
  -25.1980  -13.9820   20.4810 C   0  0  0  0  0  0  0  0  0  0  0  0
  -24.1530  -13.1930   20.8630 C   0  0  0  0  0  0  0  0  0  0  0  0
  -24.6320  -11.8470   20.8150 C   0  0  0  0  0  0  0  0  0  0  0  0
  -26.2450  -13.1230   20.2100 N   0  0  0  0  0  0  0  0  0  0  0  0
  -25.9210  -11.8290   20.4760 N   0  0  0  0  0  0  0  0  0  0  0  0
  -23.9120  -10.5800   21.0150 C   0  0  0  0  0  0  0  0  0  0  0  0
  -24.3560   -9.6120   21.9430 C   0  0  0  0  0  3  0  0  0  0  0  0
  -23.6290   -8.4150   22.1340 C   0  0  0  0  0  3  0  0  0  0  0  0
  -22.4430   -8.1780   21.3990 C   0  0  0  0  0  0  0  0  0  0  0  0
  -22.0170   -9.1360   20.4620 C   0  0  0  0  0  3  0  0  0  0  0  0
  -22.7450  -10.3230   20.2680 C   0  0  0  0  0  3  0  0  0  0  0  0
  -21.6880   -7.0350   21.4990 O   0  0  0  0  0  0  0  0  0  0  0  0
  -21.6540   -6.2920   22.6520 C   0  0  0  0  0  0  0  0  0  0  0  0
  -21.2350   -6.8450   23.8830 C   0  0  0  0  0  3  0  0  0  0  0  0
  -21.1490   -6.0290   25.0280 C   0  0  0  0  0  3  0  0  0  0  0  0
  -21.4710   -4.6610   24.9450 C   0  0  0  0  0  0  0  0  0  0  0  0
  -21.8830   -4.1080   23.7200 C   0  0  0  0  0  3  0  0  0  0  0  0
  -21.9710   -4.9210   22.5770 C   0  0  0  0  0  0  0  0  0  0  0  0
  -22.3480   -4.3770   21.3930 F   0  0  0  0  0  0  0  0  0  0  0  0
  -21.3810   -3.8750   26.0440 F   0  0  0  0  0  0  0  0  0  0  0  0
  -22.7580  -13.6620   21.1550 C   0  0  0  0  0  0  0  0  0  0  0  0
  -22.0480  -12.9650   22.0330 N   0  0  0  0  0  0  0  0  0  0  0  0
  -22.3100  -14.6870   20.6400 O   0  0  0  0  0  0  0  0  0  0  0  0
  -22.4250  -12.1380   22.4700 H   0  0  0  0  0  0  0  0  0  0  0  0
  -21.1130  -13.2620   22.2720 H   0  0  0  0  0  0  0  0  0  0  0  0
  -25.3450  -15.3560   20.3050 N   0  0  0  0  0  0  0  0  0  0  0  0
  -24.5750  -16.0030   20.4380 H   0  0  0  0  0  0  0  0  0  0  0  0
  -26.1900  -15.8070   19.9770 H   0  0  0  0  0  0  0  0  0  0  0  0
  2  1  1  0
  3  4  1  0
  3  2  1  0
  5 16  2  0
  6  4  1  0
  6 11  1  0
  7 15  1  0
  7 17  1  0
  8 14  1  0
  8 10  1  0
  9 15  1  0
 10 11  2  0
 10  9  1  0
 12  6  2  0
 13 12  1  0
 13  8  2  0
 14  7  1  0
 15  5  1  0
 17 19  2  0
 18 17  1  0
 20 18  1  0
 21 30  2  0
 21 26  1  0
 22 18  1  0
 22 26  1  0
 23 22  1  0
 24 25  1  0
 24 23  1  0
 25 21  1  0
 26 27  2  0
 27 28  1  0
 29 28  2  0
 30 29  1  0
 31  5  1  0
 31 36  1  0
 31 32  1  0
 32 35  1  1
 32 33  1  0
 34 32  1  0
 36 39  1  0
 37 41  1  0
 37 36  1  0
 38 37  2  0
 41 40  1  0
 43 41  1  0
 43 44  1  0
 43 42  1  0
 46 47  1  0
 47 45  1  0
 47 49  1  0
 48 47  1  0
 52 57  1  0
 53 54  1  0
 53 52  1  0
 55 54  1  0
 55 62  1  0
 55 56  1  0
 57 51  1  0
 57 56  1  0
 58 51  1  0
 59 60  2  0
 60 79  1  0
 61 60  1  0
 61 64  1  0
 62 63  1  0
 62 59  1  0
 63 61  2  0
 64 65  1  0
 65 66  2  0
 67 70  1  0
 67 66  1  0
 68 67  2  0
 69 68  1  0
 69 64  2  0
 70 71  1  0
 71 72  1  0
 72 73  2  0
 74 73  1  0
 74 78  1  0
 75 74  2  0
 76 71  2  0
 76 75  1  0
 77 76  1  0
 79 80  1  0
 80 83  1  0
 80 82  1  0
 81 79  2  0
 84 85  1  0
 84 59  1  0
 86 84  1  0
M  ISO  4   3 101   4 101  50 100  51 100
M  END
>  <TORSDO>  (50) 
F 20

>  <SCORE>  (50) 
-16.163

>  <name>  (50) 
49

>  <ligand_id>  (50) 
49

>  <original_smiles>  (50) 
[H]C([H])=C(C([H])([H])Oc1c([H])c([H])c2c(c1[H])C([H])([H])N(C(=O)C([H])(N([H])C(=O)C([H])(N([H])C([H])([H])[H])C([H])([H])[H])C(C([H])([H])[H])(C([H])([H])[H])C([H])([H])[H])C([H])(C(=O)N([H])C1([H])c3c([H])c([H])c([H])c([H])c3C([H])([H])C([H])([H])C1([H])[H])C2([H])[H])C([H])(C([H])([H])C(=O)N1C([H])([H])C([H])([H])C([H])([H])C([H])(n2nc(-c3c([H])c([H])c(Oc4c([H])c([H])c(F)c([H])c4F)c([H])c3[H])c(C(=O)N([H])[H])c2N([H])[H])C1([H])[H])[N+]([H])([H])C([H])([H])[H]

>  <smiles>  (50) 
[H]C([H])=C(C([H])([H])Oc1c([H])c([H])c2c(c1[H])C([H])([H])N(C(=O)C([H])(N([H])C(=O)C([H])(N([H])C([H])([H])[H])C([H])([H])[H])C(C([H])([H])[H])(C([H])([H])[H])C([H])([H])[H])C([H])(C(=O)N([H])C1([H])c3c([H])c([H])c([H])c([H])c3C([H])([H])C([H])([H])C1([H])[H])C2([H])[H])C([H])(C([H])([H])C(=O)N1C([H])([H])C([H])([H])C([H])([H])C([H])(n2nc(-c3c([H])c([H])c(Oc4c([H])c([H])c(F)c([H])c4F)c([H])c3[H])c(C(=O)N([H])[H])c2N([H])[H])C1([H])[H])[N+]([H])([H])C([H])([H])[H]

$$$$
50:0:0
     RDKit          3D

 85 92  0  0  1  0  0  0  0  0999 V2000
  -28.9460  -22.3110   20.3920 C   0  0  0  0  0  0  0  0  0  0  0  0
  -30.4750  -22.7220   20.9080 S   0  0  0  0  0  0  0  0  0  0  0  0
  -28.7260  -20.7960   20.2230 N   0  0  0  0  0  4  0  0  0  0  0  0
  -27.7630  -20.6030   19.9740 H   0  0  0  0  0  0  0  0  0  0  0  0
  -30.6990  -19.4130   19.1400 C   0  0  0  0  0  1  0  0  0  0  0  0
  -29.6630  -19.2740   20.2640 C   0  0  0  0  0  0  0  0  0  0  0  0
  -29.3540  -17.3600   20.3370 C   0  0  0  0  0  2  0  0  0  0  0  0
  -30.2330  -15.7120   20.1490 C   0  0  0  0  0  0  0  0  0  0  0  0
  -30.3620  -13.1800   19.2880 C   0  0  0  0  0  2  0  0  0  0  0  0
  -29.4350  -12.8300   18.0860 C   0  0  0  0  0  2  0  0  0  0  0  0
  -28.0160  -12.4690   18.5550 C   0  0  0  0  0  2  0  0  0  0  0  0
  -27.5340  -13.4300   19.6620 C   0  0  0  0  0  3  0  0  0  0  0  0
  -28.5890  -13.7010   20.7570 C   0  0  0  0  0  2  0  0  0  0  0  0
  -29.7630  -14.3260   20.1090 N   0  0  0  0  0  0  0  0  0  0  0  0
  -31.4550  -15.6790   19.9020 O   0  0  0  0  0  0  0  0  0  0  0  0
  -25.1870  -13.9210   20.4990 C   0  0  0  0  0  0  0  0  0  0  0  0
  -24.1480  -13.1220   20.8840 C   0  0  0  0  0  0  0  0  0  0  0  0
  -24.6340  -11.7800   20.8200 C   0  0  0  0  0  0  0  0  0  0  0  0
  -26.2340  -13.0670   20.2090 N   0  0  0  0  0  0  0  0  0  0  0  0
  -25.9190  -11.7710   20.4700 N   0  0  0  0  0  0  0  0  0  0  0  0
  -23.9270  -10.5050   21.0100 C   0  0  0  0  0  0  0  0  0  0  0  0
  -24.3760   -9.5400   21.9390 C   0  0  0  0  0  3  0  0  0  0  0  0
  -23.6640   -8.3350   22.1200 C   0  0  0  0  0  3  0  0  0  0  0  0
  -22.4880   -8.0840   21.3730 C   0  0  0  0  0  0  0  0  0  0  0  0
  -22.0590   -9.0380   20.4330 C   0  0  0  0  0  3  0  0  0  0  0  0
  -22.7710  -10.2340   20.2500 C   0  0  0  0  0  3  0  0  0  0  0  0
  -21.7470   -6.9300   21.4640 O   0  0  0  0  0  0  0  0  0  0  0  0
  -21.6940   -6.1990   22.6230 C   0  0  0  0  0  0  0  0  0  0  0  0
  -21.2080   -6.7490   23.8310 C   0  0  0  0  0  3  0  0  0  0  0  0
  -21.1040   -5.9400   24.9800 C   0  0  0  0  0  3  0  0  0  0  0  0
  -21.4740   -4.5840   24.9240 C   0  0  0  0  0  0  0  0  0  0  0  0
  -21.9520   -4.0330   23.7220 C   0  0  0  0  0  3  0  0  0  0  0  0
  -22.0570   -4.8370   22.5740 C   0  0  0  0  0  0  0  0  0  0  0  0
  -22.4980   -4.2970   21.4130 F   0  0  0  0  0  0  0  0  0  0  0  0
  -21.3670   -3.8050   26.0260 F   0  0  0  0  0  0  0  0  0  0  0  0
  -22.7510  -13.5750   21.1930 C   0  0  0  0  0  0  0  0  0  0  0  0
  -22.0540  -12.8640   22.0720 N   0  0  0  0  0  0  0  0  0  0  0  0
  -22.2880  -14.5990   20.6900 O   0  0  0  0  0  0  0  0  0  0  0  0
  -22.4420  -12.0370   22.5010 H   0  0  0  0  0  0  0  0  0  0  0  0
  -21.1180  -13.1500   22.3190 H   0  0  0  0  0  0  0  0  0  0  0  0
  -25.3260  -15.2970   20.3410 N   0  0  0  0  0  0  0  0  0  0  0  0
  -24.5570  -15.9420   20.4880 H   0  0  0  0  0  0  0  0  0  0  0  0
  -26.1640  -15.7530   20.0040 H   0  0  0  0  0  0  0  0  0  0  0  0
  -27.8840  -23.8540   20.1830 C   0  0  0  0  0  2  0  0  0  0  0  0
  -28.1320  -25.5850   20.3610 O   0  0  0  0  0  0  0  0  0  0  0  0
  -24.6570  -31.8850   23.2670 C   0  0  0  0  0  0  0  0  0  0  0  0
  -27.1700  -26.8020   20.2930 C   0  0  0  0  0  0  0  0  0  0  0  0
  -23.4660  -30.4910   21.6300 C   0  0  0  0  0  3  0  0  0  0  0  0
  -24.9110  -28.8410   20.2190 C   0  0  0  0  0  0  0  0  0  0  0  0
  -26.0450  -30.6270   21.5120 C   0  0  0  0  0  2  0  0  0  0  0  0
  -26.1050  -29.1950   20.8570 C   0  0  0  0  0  0  0  0  0  0  0  0
  -27.2200  -28.2030   20.8600 C   0  0  0  0  0  3  0  0  0  0  0  0
  -25.9390  -26.6550   19.6010 C   0  0  0  0  0  3  0  0  0  0  0  0
  -24.8670  -27.5980   19.5660 C   0  0  0  0  0  3  0  0  0  0  0  0
  -23.7050  -29.7940   20.2600 C   0  0  0  0  0  2  0  0  0  0  0  0
  -24.7470  -31.0330   22.1900 N   0  0  0  0  0  0  0  0  0  0  0  0
  -23.5660  -32.1890   23.7760 O   0  0  0  0  0  0  0  0  0  0  0  0
  -22.7460  -29.5150   22.6010 C   0  0  0  0  0  0  0  0  0  0  0  0
  -21.4150  -29.3580   22.4690 N   0  0  0  0  0  0  0  0  0  0  0  0
  -23.3960  -28.8950   23.4440 O   0  0  0  0  0  0  0  0  0  0  0  0
  -20.9390  -29.9100   21.7680 H   0  0  0  0  0  0  0  0  0  0  0  0
  -18.0250  -28.1410   22.9570 C   0  0  0  0  0  0  0  0  0  0  0  0
  -20.5820  -28.4260   23.2400 C   0  0  0  0  0  3  0  0  0  0  0  0
  -20.6950  -26.9880   22.6800 C   0  0  0  0  0  2  0  0  0  0  0  0
  -19.6050  -26.6510   21.6580 C   0  0  0  0  0  2  0  0  0  0  0  0
  -18.2150  -26.7900   22.2880 C   0  0  0  0  0  2  0  0  0  0  0  0
  -19.1360  -28.9160   23.3890 C   0  0  0  0  0  0  0  0  0  0  0  0
  -18.9000  -30.1760   23.9810 C   0  0  0  0  0  3  0  0  0  0  0  0
  -17.5890  -30.6640   24.1400 C   0  0  0  0  0  3  0  0  0  0  0  0
  -16.4940  -29.8890   23.7200 C   0  0  0  0  0  3  0  0  0  0  0  0
  -16.7130  -28.6280   23.1360 C   0  0  0  0  0  3  0  0  0  0  0  0
  -25.9230  -32.5300   23.9110 C   0  0  0  0  0  3  0  0  0  0  0  0
  -26.4040  -31.7800   25.2150 C   0  0  1  0  0  0  0  0  0  0  0  0
  -25.2870  -31.5810   26.2670 C   0  0  0  0  0  1  0  0  0  0  0  0
  -26.9750  -30.3850   24.8750 C   0  0  0  0  0  1  0  0  0  0  0  0
  -27.5540  -32.5730   25.8810 C   0  0  0  0  0  1  0  0  0  0  0  0
  -25.6110  -33.9370   24.2300 N   0  0  0  0  0  0  0  0  0  0  0  0
  -25.9340  -34.9920   23.4690 C   0  0  0  0  0  0  0  0  0  0  0  0
  -26.5840  -34.8840   22.4270 O   0  0  0  0  0  0  0  0  0  0  0  0
  -25.0280  -34.0950   25.0390 H   0  0  0  0  0  0  0  0  0  0  0  0
  -24.1960  -36.7910   23.1710 C   0  0  0  0  0  1  0  0  0  0  0  0
  -25.4660  -36.3880   23.9350 C   0  0  0  0  0  3  0  0  0  0  0  0
  -27.6290  -37.2840   24.6790 C   0  0  0  0  0  1  0  0  0  0  0  0
  -26.4920  -37.4430   23.7760 N   0  0  0  0  0  0  0  0  0  0  0  0
  -26.0900  -38.3640   23.9340 H   0  0  0  0  0  0  0  0  0  0  0  0
  1  2  2  0
  3  6  2  0
  3  1  1  0
  4  3  1  0
  5  6  1  0
  6  7  1  0
  8  7  1  0
  9 14  1  0
 10 11  1  0
 10  9  1  0
 12 11  1  0
 12 19  1  0
 12 13  1  0
 14  8  1  0
 14 13  1  0
 15  8  2  0
 16 17  2  0
 17 36  1  0
 18 17  1  0
 18 21  1  0
 19 20  1  0
 19 16  1  0
 20 18  2  0
 21 22  1  0
 22 23  2  0
 24 27  1  0
 24 23  1  0
 25 24  2  0
 26 25  1  0
 26 21  2  0
 27 28  1  0
 28 29  1  0
 29 30  2  0
 31 30  1  0
 31 35  1  0
 32 31  2  0
 33 28  2  0
 33 32  1  0
 34 33  1  0
 36 37  1  0
 37 40  1  0
 37 39  1  0
 38 36  2  0
 41 42  1  0
 41 16  1  0
 43 41  1  0
 44 45  1  0
 44  1  1  0
 46 57  2  0
 47 45  1  0
 47 52  1  0
 48 56  1  0
 48 58  1  0
 49 55  1  0
 49 51  1  0
 50 56  1  0
 51 52  2  0
 51 50  1  0
 53 47  2  0
 54 53  1  0
 54 49  2  0
 55 48  1  0
 56 46  1  0
 58 60  2  0
 59 58  1  0
 61 59  1  0
 62 71  2  0
 62 67  1  0
 63 59  1  0
 63 67  1  0
 64 63  1  0
 65 66  1  0
 65 64  1  0
 66 62  1  0
 67 68  2  0
 68 69  1  0
 70 69  2  0
 71 70  1  0
 72 46  1  0
 72 77  1  0
 72 73  1  0
 73 76  1  1
 73 74  1  0
 75 73  1  0
 77 80  1  0
 78 82  1  0
 78 77  1  0
 79 78  2  0
 82 81  1  0
 84 85  1  0
 84 82  1  0
 84 83  1  0
M  ISO  4   7 100   8 100  44 101  45 101
M  END
>  <TORSDO>  (51) 
F 20

>  <SCORE>  (51) 
-16.189

>  <name>  (51) 
50

>  <ligand_id>  (51) 
50

>  <original_smiles>  (51) 
[H]c1c([H])c([H])c2c(c1[H])C([H])([H])C([H])([H])C([H])([H])C2([H])N([H])C(=O)C1([H])N(C(=O)C([H])(N([H])C(=O)C([H])(N([H])C([H])([H])[H])C([H])([H])[H])C(C([H])([H])[H])(C([H])([H])[H])C([H])([H])[H])C([H])([H])c2c([H])c(OC([H])([H])C(=S)N([H])C([H])(C([H])([H])[H])C([H])([H])C(=O)N3C([H])([H])C([H])([H])C([H])([H])C([H])(n4nc(-c5c([H])c([H])c(Oc6c([H])c([H])c(F)c([H])c6F)c([H])c5[H])c(C(=O)N([H])[H])c4N([H])[H])C3([H])[H])c([H])c([H])c2C1([H])[H]

>  <smiles>  (51) 
[H]c1c([H])c([H])c2c(c1[H])C([H])([H])C([H])([H])C([H])([H])C2([H])N([H])C(=O)C1([H])N(C(=O)C([H])(N([H])C(=O)C([H])(N([H])C([H])([H])[H])C([H])([H])[H])C(C([H])([H])[H])(C([H])([H])[H])C([H])([H])[H])C([H])([H])c2c([H])c(OC([H])([H])C(=S)N([H])C([H])(C([H])([H])[H])C([H])([H])C(=O)N3C([H])([H])C([H])([H])C([H])([H])C([H])(n4nc(-c5c([H])c([H])c(Oc6c([H])c([H])c(F)c([H])c6F)c([H])c5[H])c(C(=O)N([H])[H])c4N([H])[H])C3([H])[H])c([H])c([H])c2C1([H])[H]

$$$$
51:0:0
     RDKit          3D

 87 94  0  0  1  0  0  0  0  0999 V2000
  -28.9320  -21.2140   19.9570 C   0  0  0  0  0  0  0  0  0  0  0  0
  -29.3310  -19.9270   20.5600 N   0  0  0  0  0  0  0  0  0  0  0  0
  -28.6980  -21.1680   18.7490 O   0  0  0  0  0  0  0  0  0  0  0  0
  -29.4240  -20.0080   21.5650 H   0  0  0  0  0  0  0  0  0  0  0  0
  -28.8000  -22.8190   20.6180 C   0  0  0  0  0  2  0  0  0  0  0  0
  -28.0150  -24.3150   20.0280 C   0  0  0  0  0  2  0  0  0  0  0  0
  -28.1930  -25.9150   20.3320 O   0  0  0  0  0  0  0  0  0  0  0  0
  -24.6200  -31.8620   23.2040 C   0  0  0  0  0  0  0  0  0  0  0  0
  -27.1770  -26.9900   20.2250 C   0  0  0  0  0  0  0  0  0  0  0  0
  -23.4260  -30.4590   21.5700 C   0  0  0  0  0  3  0  0  0  0  0  0
  -24.8770  -28.8500   20.1580 C   0  0  0  0  0  0  0  0  0  0  0  0
  -25.9900  -30.6740   21.4270 C   0  0  0  0  0  2  0  0  0  0  0  0
  -26.0600  -29.2640   20.7800 C   0  0  0  0  0  0  0  0  0  0  0  0
  -27.2060  -28.3540   20.7910 C   0  0  0  0  0  3  0  0  0  0  0  0
  -25.9670  -26.7200   19.5470 C   0  0  0  0  0  3  0  0  0  0  0  0
  -24.8520  -27.5970   19.5230 C   0  0  0  0  0  3  0  0  0  0  0  0
  -23.6550  -29.7640   20.1990 C   0  0  0  0  0  2  0  0  0  0  0  0
  -24.6990  -31.0250   22.1200 N   0  0  0  0  0  0  0  0  0  0  0  0
  -23.5300  -32.1570   23.7210 O   0  0  0  0  0  0  0  0  0  0  0  0
  -22.7300  -29.4680   22.5400 C   0  0  0  0  0  0  0  0  0  0  0  0
  -21.4000  -29.3100   22.4150 N   0  0  0  0  0  0  0  0  0  0  0  0
  -23.3930  -28.8440   23.3710 O   0  0  0  0  0  0  0  0  0  0  0  0
  -20.9180  -29.8640   21.7200 H   0  0  0  0  0  0  0  0  0  0  0  0
  -18.0090  -28.1230   22.9220 C   0  0  0  0  0  0  0  0  0  0  0  0
  -20.5700  -28.3810   23.1890 C   0  0  0  0  0  3  0  0  0  0  0  0
  -20.6670  -26.9450   22.6220 C   0  0  0  0  0  2  0  0  0  0  0  0
  -19.5650  -26.6220   21.6070 C   0  0  0  0  0  2  0  0  0  0  0  0
  -18.1830  -26.7720   22.2490 C   0  0  0  0  0  2  0  0  0  0  0  0
  -19.1300  -28.8860   23.3480 C   0  0  0  0  0  0  0  0  0  0  0  0
  -18.9110  -30.1490   23.9400 C   0  0  0  0  0  3  0  0  0  0  0  0
  -17.6070  -30.6500   24.1070 C   0  0  0  0  0  3  0  0  0  0  0  0
  -16.5020  -29.8850   23.6960 C   0  0  0  0  0  3  0  0  0  0  0  0
  -16.7050  -28.6230   23.1100 C   0  0  0  0  0  3  0  0  0  0  0  0
  -25.8920  -32.5050   23.8360 C   0  0  0  0  0  3  0  0  0  0  0  0
  -25.5760  -33.9050   24.1630 N   0  0  0  0  0  0  0  0  0  0  0  0
  -25.9140  -34.9640   23.4160 C   0  0  0  0  0  0  0  0  0  0  0  0
  -26.5880  -34.8650   22.3880 O   0  0  0  0  0  0  0  0  0  0  0  0
  -24.9750  -34.0570   24.9610 H   0  0  0  0  0  0  0  0  0  0  0  0
  -24.1920  -36.7690   23.0710 C   0  0  0  0  0  1  0  0  0  0  0  0
  -25.4310  -36.3540   23.8810 C   0  0  0  0  0  3  0  0  0  0  0  0
  -27.5660  -37.2320   24.7190 C   0  0  0  0  0  1  0  0  0  0  0  0
  -26.4670  -37.4060   23.7740 N   0  0  0  0  0  0  0  0  0  0  0  0
  -26.0630  -38.3270   23.9260 H   0  0  0  0  0  0  0  0  0  0  0  0
  -26.3930  -31.7450   25.1260 C   0  0  1  0  0  0  0  0  0  0  0  0
  -25.2900  -31.5230   26.1870 C   0  0  0  0  0  1  0  0  0  0  0  0
  -26.9740  -30.3600   24.7600 C   0  0  0  0  0  1  0  0  0  0  0  0
  -27.5420  -32.5400   25.7910 C   0  0  0  0  0  1  0  0  0  0  0  0
  -29.8770  -18.4460   20.0130 C   0  0  0  0  0  3  0  0  0  0  0  0
  -31.8600  -19.8070   18.9530 C   0  0  0  0  0  1  0  0  0  0  0  0
  -31.4010  -18.5910   19.7730 C   0  0  0  0  0  2  0  0  0  0  0  0
  -29.6660  -16.7820   20.6510 C   0  0  0  0  0  2  0  0  0  0  0  0
  -30.4330  -15.2450   20.3030 C   0  0  0  0  0  0  0  0  0  0  0  0
  -30.3980  -12.8120   19.4030 C   0  0  0  0  0  2  0  0  0  0  0  0
  -29.4870  -12.6730   18.1570 C   0  0  0  0  0  2  0  0  0  0  0  0
  -28.0270  -12.4190   18.5710 C   0  0  0  0  0  2  0  0  0  0  0  0
  -27.5820  -13.3570   19.7210 C   0  0  0  0  0  3  0  0  0  0  0  0
  -28.6210  -13.4530   20.8570 C   0  0  0  0  0  2  0  0  0  0  0  0
  -29.8780  -13.9350   20.2630 N   0  0  0  0  0  0  0  0  0  0  0  0
  -31.6340  -15.2400   19.9990 O   0  0  0  0  0  0  0  0  0  0  0  0
  -25.1960  -13.9130   20.4340 C   0  0  0  0  0  0  0  0  0  0  0  0
  -24.1330  -13.1340   20.8010 C   0  0  0  0  0  0  0  0  0  0  0  0
  -24.6080  -11.7870   20.7940 C   0  0  0  0  0  0  0  0  0  0  0  0
  -26.2480  -13.0400   20.2140 N   0  0  0  0  0  0  0  0  0  0  0  0
  -25.9040  -11.7550   20.4990 N   0  0  0  0  0  0  0  0  0  0  0  0
  -23.8830  -10.5230   20.9910 C   0  0  0  0  0  0  0  0  0  0  0  0
  -24.3080   -9.5670   21.9400 C   0  0  0  0  0  3  0  0  0  0  0  0
  -23.5810   -8.3710   22.1280 C   0  0  0  0  0  3  0  0  0  0  0  0
  -22.4160   -8.1220   21.3630 C   0  0  0  0  0  0  0  0  0  0  0  0
  -22.0100   -9.0660   20.4040 C   0  0  0  0  0  3  0  0  0  0  0  0
  -22.7380  -10.2530   20.2160 C   0  0  0  0  0  3  0  0  0  0  0  0
  -21.6630   -6.9760   21.4570 O   0  0  0  0  0  0  0  0  0  0  0  0
  -21.6070   -6.2430   22.6160 C   0  0  0  0  0  0  0  0  0  0  0  0
  -21.1750   -6.8100   23.8350 C   0  0  0  0  0  3  0  0  0  0  0  0
  -21.0660   -6.0040   24.9850 C   0  0  0  0  0  3  0  0  0  0  0  0
  -21.3800   -4.6330   24.9190 C   0  0  0  0  0  0  0  0  0  0  0  0
  -21.8050   -4.0660   23.7040 C   0  0  0  0  0  3  0  0  0  0  0  0
  -21.9160   -4.8690   22.5550 C   0  0  0  0  0  0  0  0  0  0  0  0
  -22.3060   -4.3140   21.3830 F   0  0  0  0  0  0  0  0  0  0  0  0
  -21.2690   -3.8570   26.0220 F   0  0  0  0  0  0  0  0  0  0  0  0
  -22.7300  -13.6080   21.0420 C   0  0  0  0  0  0  0  0  0  0  0  0
  -21.9910  -12.9200   21.9050 N   0  0  0  0  0  0  0  0  0  0  0  0
  -22.2980  -14.6250   20.5020 O   0  0  0  0  0  0  0  0  0  0  0  0
  -22.3560  -12.1010   22.3690 H   0  0  0  0  0  0  0  0  0  0  0  0
  -21.0470  -13.2210   22.1080 H   0  0  0  0  0  0  0  0  0  0  0  0
  -25.3540  -15.2820   20.2450 N   0  0  0  0  0  0  0  0  0  0  0  0
  -24.5840  -15.9340   20.3480 H   0  0  0  0  0  0  0  0  0  0  0  0
  -26.2060  -15.7260   19.9290 H   0  0  0  0  0  0  0  0  0  0  0  0
  1  2  1  0
  1  5  1  0
  2  4  1  0
  3  1  2  0
  6  7  1  0
  6  5  1  0
  8 19  2  0
  9  7  1  0
  9 14  1  0
 10 18  1  0
 10 20  1  0
 11 17  1  0
 11 13  1  0
 12 18  1  0
 13 14  2  0
 13 12  1  0
 15  9  2  0
 16 15  1  0
 16 11  2  0
 17 10  1  0
 18  8  1  0
 20 22  2  0
 21 20  1  0
 23 21  1  0
 24 33  2  0
 24 29  1  0
 25 21  1  0
 25 29  1  0
 26 25  1  0
 27 28  1  0
 27 26  1  0
 28 24  1  0
 29 30  2  0
 30 31  1  0
 32 31  2  0
 33 32  1  0
 34  8  1  0
 34 35  1  0
 34 44  1  0
 35 38  1  0
 36 40  1  0
 36 35  1  0
 37 36  2  0
 40 39  1  0
 42 40  1  0
 42 43  1  0
 42 41  1  0
 44 47  1  1
 44 45  1  0
 46 44  1  0
 48 50  1  0
 48  2  1  0
 48 51  1  0
 49 50  1  0
 52 51  1  0
 53 58  1  0
 54 55  1  0
 54 53  1  0
 56 55  1  0
 56 63  1  0
 56 57  1  0
 58 52  1  0
 58 57  1  0
 59 52  2  0
 60 61  2  0
 61 80  1  0
 62 61  1  0
 62 65  1  0
 63 60  1  0
 63 64  1  0
 64 62  2  0
 65 66  1  0
 66 67  2  0
 68 71  1  0
 68 67  1  0
 69 68  2  0
 70 69  1  0
 70 65  2  0
 71 72  1  0
 72 73  1  0
 73 74  2  0
 75 74  1  0
 75 79  1  0
 76 75  2  0
 77 72  2  0
 77 76  1  0
 78 77  1  0
 80 81  1  0
 81 84  1  0
 81 83  1  0
 82 80  2  0
 85 86  1  0
 85 60  1  0
 87 85  1  0
M  ISO  4   6 101   7 101  51 100  52 100
M  END
>  <TORSDO>  (52) 
F 21

>  <SCORE>  (52) 
-15.076

>  <name>  (52) 
51

>  <ligand_id>  (52) 
51

>  <original_smiles>  (52) 
[H]c1c([H])c([H])c2c(c1[H])C([H])([H])C([H])([H])C([H])([H])C2([H])N([H])C(=O)C1([H])N(C(=O)C([H])(N([H])C(=O)C([H])(N([H])C([H])([H])[H])C([H])([H])[H])C(C([H])([H])[H])(C([H])([H])[H])C([H])([H])[H])C([H])([H])c2c([H])c(OC([H])([H])C([H])([H])C(=O)N([H])C([H])(C([H])([H])C(=O)N3C([H])([H])C([H])([H])C([H])([H])C([H])(n4nc(-c5c([H])c([H])c(Oc6c([H])c([H])c(F)c([H])c6F)c([H])c5[H])c(C(=O)N([H])[H])c4N([H])[H])C3([H])[H])C([H])([H])C([H])([H])[H])c([H])c([H])c2C1([H])[H]

>  <smiles>  (52) 
[H]c1c([H])c([H])c2c(c1[H])C([H])([H])C([H])([H])C([H])([H])C2([H])N([H])C(=O)C1([H])N(C(=O)C([H])(N([H])C(=O)C([H])(N([H])C([H])([H])[H])C([H])([H])[H])C(C([H])([H])[H])(C([H])([H])[H])C([H])([H])[H])C([H])([H])c2c([H])c(OC([H])([H])C([H])([H])C(=O)N([H])C([H])(C([H])([H])C(=O)N3C([H])([H])C([H])([H])C([H])([H])C([H])(n4nc(-c5c([H])c([H])c(Oc6c([H])c([H])c(F)c([H])c6F)c([H])c5[H])c(C(=O)N([H])[H])c4N([H])[H])C3([H])[H])C([H])([H])C([H])([H])[H])c([H])c([H])c2C1([H])[H]

$$$$
52:0:0
     RDKit          3D

 89 96  0  0  1  0  0  0  0  0999 V2000
  -29.3560  -22.4520   19.9180 C   0  0  0  0  0  0  0  0  0  0  0  0
  -29.4130  -21.2620   20.6140 N   0  0  0  0  0  0  0  0  0  0  0  0
  -29.6340  -22.4690   18.7180 O   0  0  0  0  0  0  0  0  0  0  0  0
  -29.1130  -21.3120   21.5800 H   0  0  0  0  0  0  0  0  0  0  0  0
  -31.5380  -20.0250   20.8080 C   0  0  0  0  0  1  0  0  0  0  0  0
  -30.1150  -19.9680   20.2220 C   0  0  0  0  0  3  0  0  0  0  0  0
  -28.9860  -18.4940   22.0540 C   0  0  0  0  0  1  0  0  0  0  0  0
  -29.4130  -18.5590   20.5780 C   0  0  0  0  0  3  0  0  0  0  0  0
  -29.8830  -15.9150   20.4870 C   0  0  0  0  0  3  0  0  0  0  0  0
  -30.1600  -17.2270   20.1440 C   0  0  0  0  0  3  0  0  0  0  0  0
  -30.6610  -14.7220   20.0040 C   0  0  0  0  0  0  0  0  0  0  0  0
  -30.3640  -12.5100   18.8960 C   0  0  0  0  0  2  0  0  0  0  0  0
  -29.3450  -12.6800   17.7460 C   0  0  0  0  0  2  0  0  0  0  0  0
  -27.9010  -12.5150   18.2600 C   0  0  0  0  0  2  0  0  0  0  0  0
  -27.6310  -13.3290   19.5540 C   0  0  0  0  0  3  0  0  0  0  0  0
  -28.7590  -13.1240   20.5880 C   0  0  0  0  0  2  0  0  0  0  0  0
  -30.0260  -13.5010   19.9450 N   0  0  0  0  0  0  0  0  0  0  0  0
  -31.7980  -14.8330   19.5350 O   0  0  0  0  0  0  0  0  0  0  0  0
  -25.2950  -13.9120   20.4460 C   0  0  0  0  0  0  0  0  0  0  0  0
  -24.2490  -13.1310   20.8600 C   0  0  0  0  0  0  0  0  0  0  0  0
  -24.7010  -11.7790   20.7580 C   0  0  0  0  0  0  0  0  0  0  0  0
  -26.3160  -13.0340   20.1170 N   0  0  0  0  0  0  0  0  0  0  0  0
  -25.9680  -11.7460   20.3640 N   0  0  0  0  0  0  0  0  0  0  0  0
  -23.9800  -10.5150   20.9580 C   0  0  0  0  0  0  0  0  0  0  0  0
  -24.4460   -9.5340   21.8620 C   0  0  0  0  0  3  0  0  0  0  0  0
  -23.7250   -8.3350   22.0500 C   0  0  0  0  0  3  0  0  0  0  0  0
  -22.5240   -8.1090   21.3350 C   0  0  0  0  0  0  0  0  0  0  0  0
  -22.0780   -9.0790   20.4190 C   0  0  0  0  0  3  0  0  0  0  0  0
  -22.7990  -10.2680   20.2300 C   0  0  0  0  0  3  0  0  0  0  0  0
  -21.7720   -6.9630   21.4330 O   0  0  0  0  0  0  0  0  0  0  0  0
  -21.7300   -6.2280   22.5910 C   0  0  0  0  0  0  0  0  0  0  0  0
  -21.3190   -6.7920   23.8180 C   0  0  0  0  0  3  0  0  0  0  0  0
  -21.2240   -5.9840   24.9690 C   0  0  0  0  0  3  0  0  0  0  0  0
  -21.5280   -4.6120   24.8920 C   0  0  0  0  0  0  0  0  0  0  0  0
  -21.9310   -4.0460   23.6690 C   0  0  0  0  0  3  0  0  0  0  0  0
  -22.0280   -4.8520   22.5210 C   0  0  0  0  0  0  0  0  0  0  0  0
  -22.3970   -4.2980   21.3410 F   0  0  0  0  0  0  0  0  0  0  0  0
  -21.4300   -3.8330   25.9940 F   0  0  0  0  0  0  0  0  0  0  0  0
  -22.8760  -13.6060   21.2360 C   0  0  0  0  0  0  0  0  0  0  0  0
  -22.2030  -12.8900   22.1300 N   0  0  0  0  0  0  0  0  0  0  0  0
  -22.4110  -14.6460   20.7740 O   0  0  0  0  0  0  0  0  0  0  0  0
  -22.5930  -12.0470   22.5270 H   0  0  0  0  0  0  0  0  0  0  0  0
  -21.2830  -13.1890   22.4230 H   0  0  0  0  0  0  0  0  0  0  0  0
  -25.4570  -15.2860   20.3000 N   0  0  0  0  0  0  0  0  0  0  0  0
  -24.7070  -15.9430   20.4860 H   0  0  0  0  0  0  0  0  0  0  0  0
  -26.2930  -15.7320   19.9440 H   0  0  0  0  0  0  0  0  0  0  0  0
  -29.0280  -23.8420   20.6240 C   0  0  0  0  0  3  0  0  0  0  0  0
  -28.3250  -25.0130   19.7740 C   0  0  0  0  0  3  0  0  0  0  0  0
  -28.3600  -26.4410   20.2270 O   0  0  0  0  0  0  0  0  0  0  0  0
  -24.6210  -31.8620   23.2110 C   0  0  0  0  0  0  0  0  0  0  0  0
  -27.2350  -27.2890   20.1430 C   0  0  0  0  0  0  0  0  0  0  0  0
  -23.4160  -30.4580   21.5790 C   0  0  0  0  0  3  0  0  0  0  0  0
  -24.8640  -28.9140   20.1430 C   0  0  0  0  0  0  0  0  0  0  0  0
  -25.9550  -30.7790   21.3870 C   0  0  0  0  0  2  0  0  0  0  0  0
  -26.0340  -29.3990   20.7400 C   0  0  0  0  0  0  0  0  0  0  0  0
  -27.2160  -28.5950   20.7360 C   0  0  0  0  0  3  0  0  0  0  0  0
  -26.0420  -26.8810   19.4960 C   0  0  0  0  0  3  0  0  0  0  0  0
  -24.8720  -27.6620   19.5140 C   0  0  0  0  0  3  0  0  0  0  0  0
  -23.6250  -29.7850   20.1990 C   0  0  0  0  0  2  0  0  0  0  0  0
  -24.6830  -31.0510   22.1160 N   0  0  0  0  0  0  0  0  0  0  0  0
  -23.5400  -32.1360   23.7510 O   0  0  0  0  0  0  0  0  0  0  0  0
  -22.7630  -29.4380   22.5450 C   0  0  0  0  0  0  0  0  0  0  0  0
  -21.4390  -29.2440   22.4160 N   0  0  0  0  0  0  0  0  0  0  0  0
  -23.4470  -28.8240   23.3680 O   0  0  0  0  0  0  0  0  0  0  0  0
  -20.9460  -29.7910   21.7240 H   0  0  0  0  0  0  0  0  0  0  0  0
  -18.0780  -27.9950   22.9040 C   0  0  0  0  0  0  0  0  0  0  0  0
  -20.6300  -28.3020   23.1910 C   0  0  0  0  0  3  0  0  0  0  0  0
  -20.7600  -26.8660   22.6350 C   0  0  0  0  0  2  0  0  0  0  0  0
  -19.6740  -26.5110   21.6150 C   0  0  0  0  0  2  0  0  0  0  0  0
  -18.2840  -26.6410   22.2450 C   0  0  0  0  0  2  0  0  0  0  0  0
  -19.1790  -28.7820   23.3330 C   0  0  0  0  0  0  0  0  0  0  0  0
  -18.9350  -30.0480   23.9070 C   0  0  0  0  0  3  0  0  0  0  0  0
  -17.6200  -30.5290   24.0560 C   0  0  0  0  0  3  0  0  0  0  0  0
  -16.5320  -29.7400   23.6430 C   0  0  0  0  0  3  0  0  0  0  0  0
  -16.7620  -28.4750   23.0720 C   0  0  0  0  0  3  0  0  0  0  0  0
  -25.9040  -32.5020   23.8250 C   0  0  0  0  0  3  0  0  0  0  0  0
  -25.5920  -33.9020   24.1480 N   0  0  0  0  0  0  0  0  0  0  0  0
  -25.9110  -34.9510   23.3770 C   0  0  0  0  0  0  0  0  0  0  0  0
  -26.5680  -34.8420   22.3380 O   0  0  0  0  0  0  0  0  0  0  0  0
  -25.0090  -34.0600   24.9560 H   0  0  0  0  0  0  0  0  0  0  0  0
  -24.1630  -36.7290   23.0390 C   0  0  0  0  0  1  0  0  0  0  0  0
  -25.4240  -36.3410   23.8290 C   0  0  0  0  0  3  0  0  0  0  0  0
  -27.5690  -37.2490   24.6050 C   0  0  0  0  0  1  0  0  0  0  0  0
  -26.4460  -37.4000   23.6820 N   0  0  0  0  0  0  0  0  0  0  0  0
  -26.0380  -38.3190   23.8280 H   0  0  0  0  0  0  0  0  0  0  0  0
  -26.4240  -31.7410   25.1070 C   0  0  1  0  0  0  0  0  0  0  0  0
  -25.3350  -31.5100   26.1800 C   0  0  0  0  0  1  0  0  0  0  0  0
  -27.0090  -30.3610   24.7250 C   0  0  0  0  0  1  0  0  0  0  0  0
  -27.5760  -32.5420   25.7590 C   0  0  0  0  0  1  0  0  0  0  0  0
  1  2  1  0
  1 47  1  0
  2  4  1  0
  3  1  2  0
  6  8  1  0
  6  2  1  0
  6  5  1  0
  8  7  1  0
 10  9  2  0
 10  8  1  0
 11  9  1  0
 12 17  1  0
 13 14  1  0
 13 12  1  0
 15 14  1  0
 15 22  1  0
 15 16  1  0
 17 11  1  0
 17 16  1  0
 18 11  2  0
 19 20  2  0
 20 39  1  0
 21 20  1  0
 21 24  1  0
 22 23  1  0
 22 19  1  0
 23 21  2  0
 24 25  1  0
 25 26  2  0
 27 30  1  0
 27 26  1  0
 28 27  2  0
 29 28  1  0
 29 24  2  0
 30 31  1  0
 31 32  1  0
 32 33  2  0
 34 33  1  0
 34 38  1  0
 35 34  2  0
 36 31  2  0
 36 35  1  0
 37 36  1  0
 39 40  1  0
 40 43  1  0
 40 42  1  0
 41 39  2  0
 44 19  1  0
 44 45  1  0
 46 44  1  0
 48 49  1  0
 48 47  2  0
 50 61  2  0
 51 49  1  0
 51 56  1  0
 52 60  1  0
 52 62  1  0
 53 59  1  0
 53 55  1  0
 54 60  1  0
 55 54  1  0
 56 55  2  0
 57 58  1  0
 57 51  2  0
 58 53  2  0
 59 52  1  0
 60 50  1  0
 62 64  2  0
 63 62  1  0
 65 63  1  0
 66 75  2  0
 66 71  1  0
 67 63  1  0
 67 71  1  0
 68 67  1  0
 69 70  1  0
 69 68  1  0
 70 66  1  0
 71 72  2  0
 72 73  1  0
 74 73  2  0
 75 74  1  0
 76 50  1  0
 76 77  1  0
 76 86  1  0
 77 80  1  0
 78 82  1  0
 78 77  1  0
 79 78  2  0
 82 81  1  0
 84 85  1  0
 84 82  1  0
 84 83  1  0
 86 89  1  1
 86 87  1  0
 88 86  1  0
M  ISO  4   9 100  11 100  48 101  49 101
M  END
>  <TORSDO>  (53) 
F 21

>  <SCORE>  (53) 
-11.423

>  <name>  (53) 
52

>  <ligand_id>  (53) 
52

>  <original_smiles>  (53) 
[H]C(C(=O)N1C([H])([H])C([H])([H])C([H])([H])C([H])(n2nc(-c3c([H])c([H])c(Oc4c([H])c([H])c(F)c([H])c4F)c([H])c3[H])c(C(=O)N([H])[H])c2N([H])[H])C1([H])[H])=C([H])C([H])(C([H])([H])[H])C([H])(N([H])C(=O)C([H])([H])C([H])([H])Oc1c([H])c([H])c2c(c1[H])C([H])([H])N(C(=O)C([H])(N([H])C(=O)C([H])(N([H])C([H])([H])[H])C([H])([H])[H])C(C([H])([H])[H])(C([H])([H])[H])C([H])([H])[H])C([H])(C(=O)N([H])C1([H])c3c([H])c([H])c([H])c([H])c3C([H])([H])C([H])([H])C1([H])[H])C2([H])[H])C([H])([H])[H]

>  <smiles>  (53) 
[H]C(C(=O)N1C([H])([H])C([H])([H])C([H])([H])C([H])(n2nc(-c3c([H])c([H])c(Oc4c([H])c([H])c(F)c([H])c4F)c([H])c3[H])c(C(=O)N([H])[H])c2N([H])[H])C1([H])[H])=C([H])C([H])(C([H])([H])[H])C([H])(N([H])C(=O)C([H])([H])C([H])([H])Oc1c([H])c([H])c2c(c1[H])C([H])([H])N(C(=O)C([H])(N([H])C(=O)C([H])(N([H])C([H])([H])[H])C([H])([H])[H])C(C([H])([H])[H])(C([H])([H])[H])C([H])([H])[H])C([H])(C(=O)N([H])C1([H])c3c([H])c([H])c([H])c([H])c3C([H])([H])C([H])([H])C1([H])[H])C2([H])[H])C([H])([H])[H]

$$$$
53:0:0
     RDKit          3D

 91 99  0  0  1  0  0  0  0  0999 V2000
  -29.2620  -21.1310   20.6230 C   0  0  0  0  0  0  0  0  0  0  0  0
  -29.0800  -22.3710   20.0260 N   0  0  0  0  0  0  0  0  0  0  0  0
  -29.0700  -20.9920   21.8320 O   0  0  0  0  0  0  0  0  0  0  0  0
  -29.2120  -22.3770   19.0230 H   0  0  0  0  0  0  0  0  0  0  0  0
  -29.5210  -17.3120   20.4360 C   0  0  0  0  0  0  0  0  0  0  0  0
  -32.1370  -19.9260   20.3970 C   0  0  0  0  0  2  0  0  0  0  0  0
  -31.1980  -20.2950   19.2540 C   0  0  0  0  0  2  0  0  0  0  0  0
  -31.5940  -18.5730   20.8600 C   0  0  0  0  0  2  0  0  0  0  0  0
  -29.8160  -19.8730   19.7860 C   0  0  0  0  0  3  0  0  0  0  0  0
  -30.1790  -18.5380   20.4640 N   0  0  0  0  0  0  0  0  0  0  0  0
  -28.4620  -17.2070   19.8130 O   0  0  0  0  0  0  0  0  0  0  0  0
  -30.0100  -16.0240   21.2610 C   0  0  0  0  0  2  0  0  0  0  0  0
  -30.5980  -14.7560   20.4730 C   0  0  0  0  0  0  0  0  0  0  0  0
  -30.3850  -12.5020   19.3800 C   0  0  0  0  0  2  0  0  0  0  0  0
  -29.4610  -12.6140   18.1470 C   0  0  0  0  0  2  0  0  0  0  0  0
  -27.9830  -12.4520   18.5540 C   0  0  0  0  0  2  0  0  0  0  0  0
  -27.6120  -13.3130   19.7890 C   0  0  0  0  0  3  0  0  0  0  0  0
  -28.6540  -13.1640   20.9180 C   0  0  0  0  0  2  0  0  0  0  0  0
  -29.9620  -13.5340   20.3610 N   0  0  0  0  0  0  0  0  0  0  0  0
  -31.7230  -14.8780   19.9750 O   0  0  0  0  0  0  0  0  0  0  0  0
  -25.2130  -13.9240   20.4630 C   0  0  0  0  0  0  0  0  0  0  0  0
  -24.1370  -13.1590   20.8250 C   0  0  0  0  0  0  0  0  0  0  0  0
  -24.5950  -11.8050   20.8210 C   0  0  0  0  0  0  0  0  0  0  0  0
  -26.2560  -13.0360   20.2570 N   0  0  0  0  0  0  0  0  0  0  0  0
  -25.8890  -11.7580   20.5320 N   0  0  0  0  0  0  0  0  0  0  0  0
  -23.8590  -10.5490   21.0180 C   0  0  0  0  0  0  0  0  0  0  0  0
  -24.2850   -9.5830   21.9570 C   0  0  0  0  0  3  0  0  0  0  0  0
  -23.5500   -8.3930   22.1440 C   0  0  0  0  0  3  0  0  0  0  0  0
  -22.3740   -8.1590   21.3910 C   0  0  0  0  0  0  0  0  0  0  0  0
  -21.9670   -9.1130   20.4420 C   0  0  0  0  0  3  0  0  0  0  0  0
  -22.7030  -10.2950   20.2530 C   0  0  0  0  0  3  0  0  0  0  0  0
  -21.6120   -7.0190   21.4840 O   0  0  0  0  0  0  0  0  0  0  0  0
  -21.5720   -6.2730   22.6350 C   0  0  0  0  0  0  0  0  0  0  0  0
  -21.1800   -6.8300   23.8720 C   0  0  0  0  0  3  0  0  0  0  0  0
  -21.0850   -6.0120   25.0150 C   0  0  0  0  0  3  0  0  0  0  0  0
  -21.3710   -4.6360   24.9220 C   0  0  0  0  0  0  0  0  0  0  0  0
  -21.7560   -4.0780   23.6900 C   0  0  0  0  0  3  0  0  0  0  0  0
  -21.8530   -4.8950   22.5500 C   0  0  0  0  0  0  0  0  0  0  0  0
  -22.2020   -4.3470   21.3610 F   0  0  0  0  0  0  0  0  0  0  0  0
  -21.2740   -3.8470   26.0190 F   0  0  0  0  0  0  0  0  0  0  0  0
  -22.7380  -13.6460   21.0690 C   0  0  0  0  0  0  0  0  0  0  0  0
  -21.9960  -12.9650   21.9370 N   0  0  0  0  0  0  0  0  0  0  0  0
  -22.3100  -14.6640   20.5260 O   0  0  0  0  0  0  0  0  0  0  0  0
  -22.3540  -12.1430   22.3990 H   0  0  0  0  0  0  0  0  0  0  0  0
  -21.0550  -13.2720   22.1400 H   0  0  0  0  0  0  0  0  0  0  0  0
  -25.3900  -15.2920   20.2730 N   0  0  0  0  0  0  0  0  0  0  0  0
  -24.6300  -15.9570   20.3690 H   0  0  0  0  0  0  0  0  0  0  0  0
  -26.2580  -15.7290   19.9830 H   0  0  0  0  0  0  0  0  0  0  0  0
  -28.9630  -23.7650   20.6520 C   0  0  0  0  0  3  0  0  0  0  0  0
  -28.1060  -24.9230   19.9160 C   0  0  0  0  0  3  0  0  0  0  0  0
  -28.2750  -26.3860   20.2500 O   0  0  0  0  0  0  0  0  0  0  0  0
  -24.6120  -31.8900   23.2430 C   0  0  0  0  0  0  0  0  0  0  0  0
  -27.1800  -27.2830   20.1690 C   0  0  0  0  0  0  0  0  0  0  0  0
  -23.3960  -30.4960   21.6130 C   0  0  0  0  0  3  0  0  0  0  0  0
  -24.8320  -28.9420   20.1700 C   0  0  0  0  0  0  0  0  0  0  0  0
  -25.9390  -30.7940   21.4170 C   0  0  0  0  0  2  0  0  0  0  0  0
  -26.0070  -29.4110   20.7680 C   0  0  0  0  0  0  0  0  0  0  0  0
  -27.1830  -28.5920   20.7620 C   0  0  0  0  0  3  0  0  0  0  0  0
  -25.9860  -26.8960   19.5180 C   0  0  0  0  0  3  0  0  0  0  0  0
  -24.8270  -27.6930   19.5330 C   0  0  0  0  0  3  0  0  0  0  0  0
  -23.5980  -29.8220   20.2310 C   0  0  0  0  0  2  0  0  0  0  0  0
  -24.6690  -31.0790   22.1460 N   0  0  0  0  0  0  0  0  0  0  0  0
  -23.5330  -32.1710   23.7840 O   0  0  0  0  0  0  0  0  0  0  0  0
  -22.7350  -29.4810   22.5780 C   0  0  0  0  0  0  0  0  0  0  0  0
  -21.4080  -29.3020   22.4570 N   0  0  0  0  0  0  0  0  0  0  0  0
  -23.4170  -28.8580   23.3960 O   0  0  0  0  0  0  0  0  0  0  0  0
  -20.9170  -29.8580   21.7710 H   0  0  0  0  0  0  0  0  0  0  0  0
  -18.0360  -28.0870   22.9600 C   0  0  0  0  0  0  0  0  0  0  0  0
  -20.5920  -28.3650   23.2330 C   0  0  0  0  0  3  0  0  0  0  0  0
  -20.7040  -26.9300   22.6690 C   0  0  0  0  0  2  0  0  0  0  0  0
  -19.6060  -26.5930   21.6540 C   0  0  0  0  0  2  0  0  0  0  0  0
  -18.2220  -26.7350   22.2940 C   0  0  0  0  0  2  0  0  0  0  0  0
  -19.1500  -28.8610   23.3860 C   0  0  0  0  0  0  0  0  0  0  0  0
  -18.9210  -30.1260   23.9690 C   0  0  0  0  0  3  0  0  0  0  0  0
  -17.6120  -30.6190   24.1290 C   0  0  0  0  0  3  0  0  0  0  0  0
  -16.5140  -29.8440   23.7180 C   0  0  0  0  0  3  0  0  0  0  0  0
  -16.7270  -28.5800   23.1410 C   0  0  0  0  0  3  0  0  0  0  0  0
  -25.8990  -32.5230   23.8570 C   0  0  0  0  0  3  0  0  0  0  0  0
  -26.4220  -31.7500   25.1300 C   0  0  1  0  0  0  0  0  0  0  0  0
  -25.3360  -31.5150   26.2070 C   0  0  0  0  0  1  0  0  0  0  0  0
  -26.9970  -30.3700   24.7350 C   0  0  0  0  0  1  0  0  0  0  0  0
  -27.5790  -32.5410   25.7840 C   0  0  0  0  0  1  0  0  0  0  0  0
  -25.5910  -33.9200   24.1940 N   0  0  0  0  0  0  0  0  0  0  0  0
  -25.9140  -34.9770   23.4350 C   0  0  0  0  0  0  0  0  0  0  0  0
  -26.5720  -34.8760   22.3960 O   0  0  0  0  0  0  0  0  0  0  0  0
  -25.0050  -34.0720   25.0010 H   0  0  0  0  0  0  0  0  0  0  0  0
  -24.1780  -36.7700   23.1120 C   0  0  0  0  0  1  0  0  0  0  0  0
  -25.4330  -36.3640   23.9030 C   0  0  0  0  0  3  0  0  0  0  0  0
  -27.5820  -37.2500   24.6970 C   0  0  0  0  0  1  0  0  0  0  0  0
  -26.4630  -37.4190   23.7730 N   0  0  0  0  0  0  0  0  0  0  0  0
  -26.0590  -38.3390   23.9280 H   0  0  0  0  0  0  0  0  0  0  0  0
  1  3  2  0
  2  1  1  0
  2 49  1  0
  4  2  1  0
  5 10  1  0
  5 12  1  0
  6  8  1  0
  7  9  1  0
  7  6  1  0
  9 10  1  0
  9  1  1  0
 10  8  1  0
 11  5  2  0
 13 12  1  0
 14 19  1  0
 15 16  1  0
 15 14  1  0
 17 16  1  0
 17 24  1  0
 17 18  1  0
 19 13  1  0
 19 18  1  0
 20 13  2  0
 21 22  2  0
 22 41  1  0
 23 22  1  0
 23 26  1  0
 24 21  1  0
 24 25  1  0
 25 23  2  0
 26 27  1  0
 27 28  2  0
 29 32  1  0
 29 28  1  0
 30 29  2  0
 31 30  1  0
 31 26  2  0
 32 33  1  0
 33 34  1  0
 34 35  2  0
 36 35  1  0
 36 40  1  0
 37 36  2  0
 38 33  2  0
 38 37  1  0
 39 38  1  0
 41 42  1  0
 42 45  1  0
 42 44  1  0
 43 41  2  0
 46 47  1  0
 46 21  1  0
 48 46  1  0
 50 51  1  0
 50 49  2  0
 52 63  2  0
 53 51  1  0
 53 58  1  0
 54 62  1  0
 54 64  1  0
 55 61  1  0
 55 57  1  0
 56 62  1  0
 57 56  1  0
 58 57  2  0
 59 60  1  0
 59 53  2  0
 60 55  2  0
 61 54  1  0
 62 52  1  0
 64 66  2  0
 65 64  1  0
 67 65  1  0
 68 77  2  0
 68 73  1  0
 69 65  1  0
 69 73  1  0
 70 69  1  0
 71 72  1  0
 71 70  1  0
 72 68  1  0
 73 74  2  0
 74 75  1  0
 76 75  2  0
 77 76  1  0
 78 52  1  0
 78 83  1  0
 78 79  1  0
 79 82  1  1
 79 80  1  0
 81 79  1  0
 83 86  1  0
 84 88  1  0
 84 83  1  0
 85 84  2  0
 88 87  1  0
 90 88  1  0
 90 91  1  0
 90 89  1  0
M  ISO  4  12 100  13 100  50 101  51 101
M  END
>  <TORSDO>  (54) 
F 20

>  <SCORE>  (54) 
-13.992

>  <name>  (54) 
53

>  <ligand_id>  (54) 
53

>  <original_smiles>  (54) 
[H]c1c([H])c([H])c2c(c1[H])C([H])([H])C([H])([H])C([H])([H])C2([H])N([H])C(=O)C1([H])N(C(=O)C([H])(N([H])C(=O)C([H])(N([H])C([H])([H])[H])C([H])([H])[H])C(C([H])([H])[H])(C([H])([H])[H])C([H])([H])[H])C([H])([H])c2c([H])c(OC([H])([H])C([H])([H])N([H])C(=O)C3([H])N(C(=O)C([H])([H])C(=O)N4C([H])([H])C([H])([H])C([H])([H])C([H])(n5nc(-c6c([H])c([H])c(Oc7c([H])c([H])c(F)c([H])c7F)c([H])c6[H])c(C(=O)N([H])[H])c5N([H])[H])C4([H])[H])C([H])([H])C([H])([H])C3([H])[H])c([H])c([H])c2C1([H])[H]

>  <smiles>  (54) 
[H]c1c([H])c([H])c2c(c1[H])C([H])([H])C([H])([H])C([H])([H])C2([H])N([H])C(=O)C1([H])N(C(=O)C([H])(N([H])C(=O)C([H])(N([H])C([H])([H])[H])C([H])([H])[H])C(C([H])([H])[H])(C([H])([H])[H])C([H])([H])[H])C([H])([H])c2c([H])c(OC([H])([H])C([H])([H])N([H])C(=O)C3([H])N(C(=O)C([H])([H])C(=O)N4C([H])([H])C([H])([H])C([H])([H])C([H])(n5nc(-c6c([H])c([H])c(Oc7c([H])c([H])c(F)c([H])c7F)c([H])c6[H])c(C(=O)N([H])[H])c5N([H])[H])C4([H])[H])C([H])([H])C([H])([H])C3([H])[H])c([H])c([H])c2C1([H])[H]

$$$$
54:0:0
     RDKit          3D

 87 96  0  0  1  0  0  0  0  0999 V2000
  -28.5450  -20.2860   20.2930 C   0  0  0  0  0  3  0  0  0  0  0  0
  -29.6360  -18.8190   20.4640 C   0  0  0  0  0  3  0  0  0  0  0  0
  -29.7570  -20.0460   19.4360 C   0  0  0  0  0  3  0  0  0  0  0  0
  -28.7150  -22.0510   19.9550 C   0  0  0  0  0  3  0  0  0  0  0  0
  -30.0940  -21.5450   19.7320 N   0  0  0  0  0  4  0  0  0  0  0  0
  -30.5520  -22.0020   18.9620 H   0  0  0  0  0  0  0  0  0  0  0  0
  -30.6500  -21.6320   20.5630 H   0  0  0  0  0  0  0  0  0  0  0  0
  -30.2650  -15.7170   20.1680 C   0  0  0  0  0  0  0  0  0  0  0  0
  -30.3520  -13.1860   19.2990 C   0  0  0  0  0  2  0  0  0  0  0  0
  -29.4260  -12.7750   18.1180 C   0  0  0  0  0  2  0  0  0  0  0  0
  -28.0160  -12.4150   18.6150 C   0  0  0  0  0  2  0  0  0  0  0  0
  -27.5330  -13.4070   19.6980 C   0  0  0  0  0  3  0  0  0  0  0  0
  -28.5980  -13.7180   20.7750 C   0  0  0  0  0  2  0  0  0  0  0  0
  -29.7380  -14.3560   20.0750 N   0  0  0  0  0  0  0  0  0  0  0  0
  -31.5040  -15.6540   20.0410 O   0  0  0  0  0  0  0  0  0  0  0  0
  -29.4910  -17.0760   20.1970 N   0  0  0  0  0  0  0  0  0  0  0  0
  -28.5090  -16.8460   20.1340 H   0  0  0  0  0  0  0  0  0  0  0  0
  -25.1980  -13.9210   20.5520 C   0  0  0  0  0  0  0  0  0  0  0  0
  -24.1520  -13.1340   20.9350 C   0  0  0  0  0  0  0  0  0  0  0  0
  -24.6220  -11.7860   20.8640 C   0  0  0  0  0  0  0  0  0  0  0  0
  -26.2350  -13.0580   20.2570 N   0  0  0  0  0  0  0  0  0  0  0  0
  -25.9060  -11.7630   20.5120 N   0  0  0  0  0  0  0  0  0  0  0  0
  -23.9010  -10.5190   21.0480 C   0  0  0  0  0  0  0  0  0  0  0  0
  -24.3450   -9.5410   21.9660 C   0  0  0  0  0  3  0  0  0  0  0  0
  -23.6190   -8.3430   22.1420 C   0  0  0  0  0  3  0  0  0  0  0  0
  -22.4370   -8.1120   21.3990 C   0  0  0  0  0  0  0  0  0  0  0  0
  -22.0130   -9.0780   20.4700 C   0  0  0  0  0  3  0  0  0  0  0  0
  -22.7380  -10.2680   20.2920 C   0  0  0  0  0  3  0  0  0  0  0  0
  -21.6830   -6.9680   21.4860 O   0  0  0  0  0  0  0  0  0  0  0  0
  -21.6280   -6.2270   22.6400 C   0  0  0  0  0  0  0  0  0  0  0  0
  -21.1620   -6.7740   23.8550 C   0  0  0  0  0  3  0  0  0  0  0  0
  -21.0560   -5.9580   24.9990 C   0  0  0  0  0  3  0  0  0  0  0  0
  -21.4070   -4.5970   24.9290 C   0  0  0  0  0  0  0  0  0  0  0  0
  -21.8640   -4.0490   23.7180 C   0  0  0  0  0  3  0  0  0  0  0  0
  -21.9710   -4.8610   22.5760 C   0  0  0  0  0  0  0  0  0  0  0  0
  -22.3940   -4.3230   21.4070 F   0  0  0  0  0  0  0  0  0  0  0  0
  -21.2980   -3.8110   26.0260 F   0  0  0  0  0  0  0  0  0  0  0  0
  -22.7610  -13.6020   21.2470 C   0  0  0  0  0  0  0  0  0  0  0  0
  -22.0550  -12.8900   22.1170 N   0  0  0  0  0  0  0  0  0  0  0  0
  -22.3120  -14.6380   20.7570 O   0  0  0  0  0  0  0  0  0  0  0  0
  -22.4330  -12.0530   22.5360 H   0  0  0  0  0  0  0  0  0  0  0  0
  -21.1220  -13.1860   22.3690 H   0  0  0  0  0  0  0  0  0  0  0  0
  -25.3470  -15.2960   20.3950 N   0  0  0  0  0  0  0  0  0  0  0  0
  -24.5760  -15.9400   20.5350 H   0  0  0  0  0  0  0  0  0  0  0  0
  -26.1720  -15.7430   20.0160 H   0  0  0  0  0  0  0  0  0  0  0  0
  -28.1620  -23.8260   20.5780 C   0  0  0  0  0  2  0  0  0  0  0  0
  -28.2300  -25.5730   20.2770 O   0  0  0  0  0  0  0  0  0  0  0  0
  -24.6410  -31.8640   23.2000 C   0  0  0  0  0  0  0  0  0  0  0  0
  -27.2230  -26.7630   20.2920 C   0  0  0  0  0  0  0  0  0  0  0  0
  -23.4720  -30.4390   21.5760 C   0  0  0  0  0  3  0  0  0  0  0  0
  -24.9380  -28.7810   20.1980 C   0  0  0  0  0  0  0  0  0  0  0  0
  -26.0510  -30.5990   21.4640 C   0  0  0  0  0  2  0  0  0  0  0  0
  -26.1300  -29.1560   20.8280 C   0  0  0  0  0  0  0  0  0  0  0  0
  -27.2600  -28.1770   20.8340 C   0  0  0  0  0  3  0  0  0  0  0  0
  -25.9900  -26.5960   19.6110 C   0  0  0  0  0  3  0  0  0  0  0  0
  -24.9060  -27.5250   19.5650 C   0  0  0  0  0  3  0  0  0  0  0  0
  -23.7240  -29.7250   20.2170 C   0  0  0  0  0  2  0  0  0  0  0  0
  -24.7450  -31.0020   22.1320 N   0  0  0  0  0  0  0  0  0  0  0  0
  -23.5420  -32.1620   23.7020 O   0  0  0  0  0  0  0  0  0  0  0  0
  -22.7570  -29.4680   22.5560 C   0  0  0  0  0  0  0  0  0  0  0  0
  -21.4260  -29.3070   22.4290 N   0  0  0  0  0  0  0  0  0  0  0  0
  -23.4140  -28.8560   23.4010 O   0  0  0  0  0  0  0  0  0  0  0  0
  -20.9450  -29.8510   21.7260 H   0  0  0  0  0  0  0  0  0  0  0  0
  -18.0400  -28.0980   22.9630 C   0  0  0  0  0  0  0  0  0  0  0  0
  -20.6020  -28.3740   23.2100 C   0  0  0  0  0  3  0  0  0  0  0  0
  -20.7020  -26.9380   22.6440 C   0  0  0  0  0  2  0  0  0  0  0  0
  -19.5950  -26.6080   21.6370 C   0  0  0  0  0  2  0  0  0  0  0  0
  -18.2160  -26.7500   22.2870 C   0  0  0  0  0  2  0  0  0  0  0  0
  -19.1580  -28.8690   23.3820 C   0  0  0  0  0  0  0  0  0  0  0  0
  -18.9350  -30.1270   23.9800 C   0  0  0  0  0  3  0  0  0  0  0  0
  -17.6280  -30.6180   24.1600 C   0  0  0  0  0  3  0  0  0  0  0  0
  -16.5250  -29.8480   23.7540 C   0  0  0  0  0  3  0  0  0  0  0  0
  -16.7320  -28.5890   23.1620 C   0  0  0  0  0  3  0  0  0  0  0  0
  -25.8950  -32.5330   23.8410 C   0  0  0  0  0  3  0  0  0  0  0  0
  -25.5610  -33.9370   24.1520 N   0  0  0  0  0  0  0  0  0  0  0  0
  -25.9000  -34.9960   23.4040 C   0  0  0  0  0  0  0  0  0  0  0  0
  -26.5840  -34.8950   22.3830 O   0  0  0  0  0  0  0  0  0  0  0  0
  -24.9510  -34.0880   24.9420 H   0  0  0  0  0  0  0  0  0  0  0  0
  -24.1810  -36.8010   23.0290 C   0  0  0  0  0  1  0  0  0  0  0  0
  -25.4080  -36.3880   23.8580 C   0  0  0  0  0  3  0  0  0  0  0  0
  -27.5240  -37.2820   24.7300 C   0  0  0  0  0  1  0  0  0  0  0  0
  -26.4440  -37.4420   23.7620 N   0  0  0  0  0  0  0  0  0  0  0  0
  -26.0330  -38.3620   23.8920 H   0  0  0  0  0  0  0  0  0  0  0  0
  -26.3850  -31.7990   25.1510 C   0  0  1  0  0  0  0  0  0  0  0  0
  -25.2710  -31.5930   26.2060 C   0  0  0  0  0  1  0  0  0  0  0  0
  -26.9750  -30.4100   24.8220 C   0  0  0  0  0  1  0  0  0  0  0  0
  -27.5230  -32.6120   25.8120 C   0  0  0  0  0  1  0  0  0  0  0  0
  1  2  1  0
  3  5  1  0
  3  1  1  0
  3  2  1  0
  4  1  1  0
  4 46  1  0
  5  4  1  0
  5  7  1  0
  6  5  1  0
  8 16  1  0
  9 14  1  0
 10 11  1  0
 10  9  1  0
 11 12  1  0
 12 21  1  0
 12 13  1  0
 14  8  1  0
 14 13  1  0
 15  8  2  0
 16  2  1  0
 17 16  1  0
 18 19  2  0
 19 38  1  0
 20 19  1  0
 20 23  1  0
 21 22  1  0
 21 18  1  0
 22 20  2  0
 23 24  1  0
 24 25  2  0
 26 29  1  0
 26 25  1  0
 27 26  2  0
 28 27  1  0
 28 23  2  0
 29 30  1  0
 30 31  1  0
 31 32  2  0
 33 32  1  0
 33 37  1  0
 34 33  2  0
 35 30  2  0
 35 34  1  0
 36 35  1  0
 38 39  1  0
 39 42  1  0
 39 41  1  0
 40 38  2  0
 43 44  1  0
 43 18  1  0
 45 43  1  0
 47 49  1  0
 47 46  1  0
 48 59  2  0
 48 74  1  0
 49 54  1  0
 50 58  1  0
 50 60  1  0
 51 57  1  0
 51 53  1  0
 52 58  1  0
 53 54  2  0
 53 52  1  0
 55 49  2  0
 56 55  1  0
 56 51  2  0
 57 50  1  0
 58 48  1  0
 60 62  2  0
 61 60  1  0
 61 65  1  0
 63 61  1  0
 64 73  2  0
 64 69  1  0
 65 69  1  0
 66 65  1  0
 67 68  1  0
 67 66  1  0
 68 64  1  0
 69 70  2  0
 70 71  1  0
 72 71  2  0
 73 72  1  0
 74 75  1  0
 74 84  1  0
 75 78  1  0
 76 80  1  0
 76 75  1  0
 77 76  2  0
 79 80  1  0
 82 80  1  0
 82 83  1  0
 82 81  1  0
 84 87  1  1
 84 85  1  0
 86 84  1  0
M  ISO  4   8 100  16 100  46 101  47 101
M  END
>  <TORSDO>  (55) 
F 17

>  <SCORE>  (55) 
-16.448

>  <name>  (55) 
54

>  <ligand_id>  (55) 
54

>  <original_smiles>  (55) 
[H]c1c([H])c([H])c2c(c1[H])C([H])([H])C([H])([H])C([H])([H])C2([H])N([H])C(=O)C1([H])N(C(=O)C([H])(N([H])C(=O)C([H])(N([H])C([H])([H])[H])C([H])([H])[H])C(C([H])([H])[H])(C([H])([H])[H])C([H])([H])[H])C([H])([H])c2c([H])c(OC([H])([H])C3([H])C4([H])C([H])(N([H])C(=O)N5C([H])([H])C([H])([H])C([H])([H])C([H])(n6nc(-c7c([H])c([H])c(Oc8c([H])c([H])c(F)c([H])c8F)c([H])c7[H])c(C(=O)N([H])[H])c6N([H])[H])C5([H])[H])C4([H])[N+]3([H])[H])c([H])c([H])c2C1([H])[H]

>  <smiles>  (55) 
[H]c1c([H])c([H])c2c(c1[H])C([H])([H])C([H])([H])C([H])([H])C2([H])N([H])C(=O)C1([H])N(C(=O)C([H])(N([H])C(=O)C([H])(N([H])C([H])([H])[H])C([H])([H])[H])C(C([H])([H])[H])(C([H])([H])[H])C([H])([H])[H])C([H])([H])c2c([H])c(OC([H])([H])C3([H])C4([H])C([H])(N([H])C(=O)N5C([H])([H])C([H])([H])C([H])([H])C([H])(n6nc(-c7c([H])c([H])c(Oc8c([H])c([H])c(F)c([H])c8F)c([H])c7[H])c(C(=O)N([H])[H])c6N([H])[H])C5([H])[H])C4([H])[N+]3([H])[H])c([H])c([H])c2C1([H])[H]

$$$$
55:0:0
     RDKit          3D

 87 95  0  0  1  0  0  0  0  0999 V2000
  -29.4590  -20.0670   20.7940 C   0  0  0  0  0  0  0  0  0  0  0  0
  -30.0870  -18.8470   19.8110 C   0  0  0  0  0  3  0  0  0  0  0  0
  -29.4900  -19.9670   18.7630 C   0  0  0  0  0  3  0  0  0  0  0  0
  -28.1960  -19.6900   18.0140 C   0  0  0  0  0  1  0  0  0  0  0  0
  -29.2570  -21.1390   19.8150 N   0  0  0  0  0  0  0  0  0  0  0  0
  -29.3000  -20.1350   21.9960 O   0  0  0  0  0  0  0  0  0  0  0  0
  -30.5730  -15.8320   19.7440 C   0  0  0  0  0  0  0  0  0  0  0  0
  -30.5860  -13.3180   18.9630 C   0  0  0  0  0  2  0  0  0  0  0  0
  -29.6190  -12.9550   17.8070 C   0  0  0  0  0  2  0  0  0  0  0  0
  -28.2130  -12.6350   18.3340 C   0  0  0  0  0  2  0  0  0  0  0  0
  -27.7740  -13.6320   19.4330 C   0  0  0  0  0  3  0  0  0  0  0  0
  -28.8720  -13.9370   20.4790 C   0  0  0  0  0  2  0  0  0  0  0  0
  -30.0290  -14.4950   19.7480 N   0  0  0  0  0  0  0  0  0  0  0  0
  -31.7840  -15.8030   19.4730 O   0  0  0  0  0  0  0  0  0  0  0  0
  -29.8230  -17.1460   19.8460 N   0  0  0  0  0  0  0  0  0  0  0  0
  -28.8530  -16.9640   20.0630 H   0  0  0  0  0  0  0  0  0  0  0  0
  -25.4790  -14.1440   20.4090 C   0  0  0  0  0  0  0  0  0  0  0  0
  -24.4460  -13.3520   20.8180 C   0  0  0  0  0  0  0  0  0  0  0  0
  -24.8990  -12.0020   20.6800 C   0  0  0  0  0  0  0  0  0  0  0  0
  -26.4940  -13.2810   20.0350 N   0  0  0  0  0  0  0  0  0  0  0  0
  -26.1630  -11.9820   20.2650 N   0  0  0  0  0  0  0  0  0  0  0  0
  -24.1770  -10.7350   20.8590 C   0  0  0  0  0  0  0  0  0  0  0  0
  -24.5970   -9.7690   21.8010 C   0  0  0  0  0  3  0  0  0  0  0  0
  -23.8710   -8.5700   21.9710 C   0  0  0  0  0  3  0  0  0  0  0  0
  -22.7110   -8.3280   21.1960 C   0  0  0  0  0  0  0  0  0  0  0  0
  -22.3120   -9.2800   20.2440 C   0  0  0  0  0  3  0  0  0  0  0  0
  -23.0380  -10.4710   20.0720 C   0  0  0  0  0  3  0  0  0  0  0  0
  -21.9560   -7.1810   21.2770 O   0  0  0  0  0  0  0  0  0  0  0  0
  -21.7920   -6.5080   22.4590 C   0  0  0  0  0  0  0  0  0  0  0  0
  -21.1200   -7.0840   23.5600 C   0  0  0  0  0  3  0  0  0  0  0  0
  -20.9110   -6.3310   24.7310 C   0  0  0  0  0  3  0  0  0  0  0  0
  -21.3640   -5.0000   24.8050 C   0  0  0  0  0  0  0  0  0  0  0  0
  -22.0260   -4.4200   23.7080 C   0  0  0  0  0  3  0  0  0  0  0  0
  -22.2370   -5.1710   22.5390 C   0  0  0  0  0  0  0  0  0  0  0  0
  -22.8580   -4.5990   21.4790 F   0  0  0  0  0  0  0  0  0  0  0  0
  -21.1560   -4.2750   25.9290 F   0  0  0  0  0  0  0  0  0  0  0  0
  -23.0750  -13.8180   21.2120 C   0  0  0  0  0  0  0  0  0  0  0  0
  -22.4140  -13.0940   22.1090 N   0  0  0  0  0  0  0  0  0  0  0  0
  -22.6020  -14.8600   20.7620 O   0  0  0  0  0  0  0  0  0  0  0  0
  -22.8100  -12.2490   22.4920 H   0  0  0  0  0  0  0  0  0  0  0  0
  -21.4990  -13.3910   22.4200 H   0  0  0  0  0  0  0  0  0  0  0  0
  -25.6370  -15.5220   20.2870 N   0  0  0  0  0  0  0  0  0  0  0  0
  -24.8880  -16.1770   20.4920 H   0  0  0  0  0  0  0  0  0  0  0  0
  -26.4550  -15.9700   19.8960 H   0  0  0  0  0  0  0  0  0  0  0  0
  -29.2310  -22.8760   19.8250 C   0  0  0  0  0  3  0  0  0  0  0  0
  -28.0740  -24.3380   19.7800 C   0  0  0  0  0  3  0  0  0  0  0  0
  -28.2010  -26.0330   19.9300 O   0  0  0  0  0  0  0  0  0  0  0  0
  -24.6040  -31.9550   23.1990 C   0  0  0  0  0  0  0  0  0  0  0  0
  -27.1650  -27.1490   19.9420 C   0  0  0  0  0  0  0  0  0  0  0  0
  -23.3960  -30.6100   21.5310 C   0  0  0  0  0  3  0  0  0  0  0  0
  -24.8390  -29.0590   20.0200 C   0  0  0  0  0  0  0  0  0  0  0  0
  -25.9660  -30.8270   21.3540 C   0  0  0  0  0  2  0  0  0  0  0  0
  -26.0390  -29.4360   20.6360 C   0  0  0  0  0  0  0  0  0  0  0  0
  -27.1870  -28.5080   20.5650 C   0  0  0  0  0  3  0  0  0  0  0  0
  -25.9220  -26.9470   19.2920 C   0  0  0  0  0  3  0  0  0  0  0  0
  -24.8110  -27.8380   19.3240 C   0  0  0  0  0  3  0  0  0  0  0  0
  -23.6100  -29.9750   20.1270 C   0  0  0  0  0  2  0  0  0  0  0  0
  -24.6800  -31.1570   22.0810 N   0  0  0  0  0  0  0  0  0  0  0  0
  -23.5200  -32.2150   23.7490 O   0  0  0  0  0  0  0  0  0  0  0  0
  -22.7260  -29.5770   22.4750 C   0  0  0  0  0  0  0  0  0  0  0  0
  -21.4090  -29.3410   22.3120 N   0  0  0  0  0  0  0  0  0  0  0  0
  -23.3980  -28.9890   23.3260 O   0  0  0  0  0  0  0  0  0  0  0  0
  -20.9160  -29.8610   21.5990 H   0  0  0  0  0  0  0  0  0  0  0  0
  -18.0950  -27.9170   22.7140 C   0  0  0  0  0  0  0  0  0  0  0  0
  -20.6230  -28.3540   23.0580 C   0  0  0  0  0  3  0  0  0  0  0  0
  -20.8380  -26.9320   22.4900 C   0  0  0  0  0  2  0  0  0  0  0  0
  -19.7950  -26.5390   21.4390 C   0  0  0  0  0  2  0  0  0  0  0  0
  -18.3850  -26.5870   22.0380 C   0  0  0  0  0  2  0  0  0  0  0  0
  -19.1460  -28.7540   23.1770 C   0  0  0  0  0  0  0  0  0  0  0  0
  -18.8210  -29.9920   23.7740 C   0  0  0  0  0  3  0  0  0  0  0  0
  -17.4810  -30.3990   23.9070 C   0  0  0  0  0  3  0  0  0  0  0  0
  -16.4450  -29.5630   23.4570 C   0  0  0  0  0  3  0  0  0  0  0  0
  -16.7520  -28.3240   22.8660 C   0  0  0  0  0  3  0  0  0  0  0  0
  -25.8760  -32.5960   23.8330 C   0  0  0  0  0  3  0  0  0  0  0  0
  -25.5690  -34.0050   24.1450 N   0  0  0  0  0  0  0  0  0  0  0  0
  -25.8640  -35.0520   23.3630 C   0  0  0  0  0  0  0  0  0  0  0  0
  -26.4810  -34.9350   22.3030 O   0  0  0  0  0  0  0  0  0  0  0  0
  -25.0060  -34.1690   24.9670 H   0  0  0  0  0  0  0  0  0  0  0  0
  -24.0990  -36.8360   23.1150 C   0  0  0  0  0  1  0  0  0  0  0  0
  -25.4050  -36.4500   23.8290 C   0  0  0  0  0  3  0  0  0  0  0  0
  -27.5760  -37.3980   24.4840 C   0  0  0  0  0  1  0  0  0  0  0  0
  -26.4140  -37.5090   23.6050 N   0  0  0  0  0  0  0  0  0  0  0  0
  -26.0050  -38.4310   23.7360 H   0  0  0  0  0  0  0  0  0  0  0  0
  -26.3610  -31.8460   25.1370 C   0  0  1  0  0  0  0  0  0  0  0  0
  -25.2430  -31.6260   26.1830 C   0  0  0  0  0  1  0  0  0  0  0  0
  -26.9520  -30.4590   24.7930 C   0  0  0  0  0  1  0  0  0  0  0  0
  -27.4970  -32.6510   25.8100 C   0  0  0  0  0  1  0  0  0  0  0  0
  1  6  2  0
  2 15  1  0
  2  1  1  0
  3  4  1  0
  3  2  1  0
  3  5  1  0
  5 45  1  0
  5  1  1  0
  7 13  1  0
  7 15  1  0
  8 13  1  0
  9 10  1  0
  9  8  1  0
 11 10  1  0
 11 20  1  0
 11 12  1  0
 13 12  1  0
 14  7  2  0
 15 16  1  0
 17 18  2  0
 18 37  1  0
 19 18  1  0
 19 22  1  0
 20 21  1  0
 20 17  1  0
 21 19  2  0
 22 23  1  0
 23 24  2  0
 25 28  1  0
 25 24  1  0
 26 25  2  0
 27 26  1  0
 27 22  2  0
 28 29  1  0
 29 34  2  0
 29 30  1  0
 30 31  2  0
 31 32  1  0
 32 36  1  0
 33 32  2  0
 34 33  1  0
 35 34  1  0
 37 38  1  0
 38 41  1  0
 38 40  1  0
 39 37  2  0
 42 17  1  0
 42 43  1  0
 44 42  1  0
 46 45  2  0
 46 47  1  0
 47 49  1  0
 48 59  2  0
 49 54  1  0
 50 58  1  0
 50 60  1  0
 51 57  1  0
 51 53  1  0
 52 58  1  0
 53 52  1  0
 54 53  2  0
 55 56  1  0
 55 49  2  0
 56 51  2  0
 57 50  1  0
 58 48  1  0
 60 62  2  0
 61 60  1  0
 63 61  1  0
 64 73  2  0
 64 69  1  0
 65 61  1  0
 65 69  1  0
 66 65  1  0
 67 68  1  0
 67 66  1  0
 68 64  1  0
 69 70  2  0
 70 71  1  0
 72 71  2  0
 73 72  1  0
 74 48  1  0
 74 75  1  0
 74 84  1  0
 75 78  1  0
 76 80  1  0
 76 75  1  0
 77 76  2  0
 80 79  1  0
 82 83  1  0
 82 80  1  0
 82 81  1  0
 84 87  1  1
 84 85  1  0
 86 84  1  0
M  ISO  4   7 100  15 100  46 101  47 101
M  END
>  <TORSDO>  (56) 
F 18

>  <SCORE>  (56) 
-15.557

>  <name>  (56) 
55

>  <ligand_id>  (56) 
55

>  <original_smiles>  (56) 
[H]c1c([H])c([H])c2c(c1[H])C([H])([H])C([H])([H])C([H])([H])C2([H])N([H])C(=O)C1([H])N(C(=O)C([H])(N([H])C(=O)C([H])(N([H])C([H])([H])[H])C([H])([H])[H])C(C([H])([H])[H])(C([H])([H])[H])C([H])([H])[H])C([H])([H])c2c([H])c(OC([H])([H])C([H])([H])N3C(=O)C([H])(N([H])C(=O)N4C([H])([H])C([H])([H])C([H])([H])C([H])(n5nc(-c6c([H])c([H])c(Oc7c([H])c([H])c(F)c([H])c7F)c([H])c6[H])c(C(=O)N([H])[H])c5N([H])[H])C4([H])[H])C3([H])C([H])([H])[H])c([H])c([H])c2C1([H])[H]

>  <smiles>  (56) 
[H]c1c([H])c([H])c2c(c1[H])C([H])([H])C([H])([H])C([H])([H])C2([H])N([H])C(=O)C1([H])N(C(=O)C([H])(N([H])C(=O)C([H])(N([H])C([H])([H])[H])C([H])([H])[H])C(C([H])([H])[H])(C([H])([H])[H])C([H])([H])[H])C([H])([H])c2c([H])c(OC([H])([H])C([H])([H])N3C(=O)C([H])(N([H])C(=O)N4C([H])([H])C([H])([H])C([H])([H])C([H])(n5nc(-c6c([H])c([H])c(Oc7c([H])c([H])c(F)c([H])c7F)c([H])c6[H])c(C(=O)N([H])[H])c5N([H])[H])C4([H])[H])C3([H])C([H])([H])[H])c([H])c([H])c2C1([H])[H]

$$$$
56:0:0
     RDKit          3D

 94103  0  0  1  0  0  0  0  0999 V2000
  -27.2370  -20.8980   21.3560 C   0  0  0  0  0  2  0  0  0  0  0  0
  -28.7400  -20.9840   21.7810 C   0  0  0  0  0  2  0  0  0  0  0  0
  -27.8210  -20.0650   19.0440 C   0  0  0  0  0  2  0  0  0  0  0  0
  -29.2270  -19.8420   19.6580 C   0  0  0  0  0  3  0  0  0  0  0  0
  -27.3080  -21.2890   19.8580 C   0  0  0  0  0  3  0  0  0  0  0  0
  -29.4390  -21.2050   20.4170 C   0  0  0  0  0  3  0  0  0  0  0  0
  -28.4520  -22.2020   19.9210 N   0  0  1  0  0  4  0  0  0  0  0  0
  -28.2930  -22.7870   20.7300 H   0  0  0  0  0  0  0  0  0  0  0  0
  -30.4060  -19.1740   18.8690 C   0  0  0  0  0  0  0  0  0  0  0  0
  -30.7930  -19.4000   17.6720 N   0  0  0  0  0  0  0  0  0  0  0  0
  -29.3280  -19.6810   15.7310 C   0  0  0  0  0  1  0  0  0  0  0  0
  -30.2030  -20.3820   16.7850 C   0  0  0  0  0  2  0  0  0  0  0  0
  -31.2240  -18.0960   19.6440 C   0  0  0  0  0  2  0  0  0  0  0  0
  -30.6240  -16.6430   19.6310 C   0  0  0  0  0  2  0  0  0  0  0  0
  -31.5850  -15.3990   19.6690 C   0  0  0  0  0  0  0  0  0  0  0  0
  -31.4300  -13.0400   18.9600 C   0  0  0  0  0  2  0  0  0  0  0  0
  -30.4510  -13.0190   17.7630 C   0  0  0  0  0  2  0  0  0  0  0  0
  -28.9850  -12.9080   18.2380 C   0  0  0  0  0  2  0  0  0  0  0  0
  -28.6520  -13.9150   19.3680 C   0  0  0  0  0  3  0  0  0  0  0  0
  -29.7400  -13.8920   20.4640 C   0  0  0  0  0  2  0  0  0  0  0  0
  -31.0330  -14.1590   19.8270 N   0  0  0  0  0  0  0  0  0  0  0  0
  -32.7570  -15.5380   19.3050 O   0  0  0  0  0  0  0  0  0  0  0  0
  -26.3450  -14.6300   20.2410 C   0  0  0  0  0  0  0  0  0  0  0  0
  -25.2550  -13.9080   20.6380 C   0  0  0  0  0  0  0  0  0  0  0  0
  -25.6310  -12.5320   20.5290 C   0  0  0  0  0  0  0  0  0  0  0  0
  -27.3190  -13.6980   19.9140 N   0  0  0  0  0  0  0  0  0  0  0  0
  -26.8980  -12.4300   20.1470 N   0  0  0  0  0  0  0  0  0  0  0  0
  -24.8410  -11.3090   20.7080 C   0  0  0  0  0  0  0  0  0  0  0  0
  -25.1800  -10.3490   21.6880 C   0  0  0  0  0  3  0  0  0  0  0  0
  -24.3960   -9.1880   21.8540 C   0  0  0  0  0  3  0  0  0  0  0  0
  -23.2580   -8.9780   21.0380 C   0  0  0  0  0  0  0  0  0  0  0  0
  -22.9380   -9.9240   20.0500 C   0  0  0  0  0  3  0  0  0  0  0  0
  -23.7220  -11.0780   19.8830 C   0  0  0  0  0  3  0  0  0  0  0  0
  -22.4540   -7.8670   21.1100 O   0  0  0  0  0  0  0  0  0  0  0  0
  -22.1880   -7.2470   22.3050 C   0  0  0  0  0  0  0  0  0  0  0  0
  -21.5630   -7.9270   23.3730 C   0  0  0  0  0  3  0  0  0  0  0  0
  -21.2450   -7.2340   24.5580 C   0  0  0  0  0  3  0  0  0  0  0  0
  -21.5400   -5.8630   24.6740 C   0  0  0  0  0  0  0  0  0  0  0  0
  -22.1580   -5.1830   23.6100 C   0  0  0  0  0  3  0  0  0  0  0  0
  -22.4770   -5.8730   22.4270 C   0  0  0  0  0  0  0  0  0  0  0  0
  -23.0520   -5.2090   21.3950 F   0  0  0  0  0  0  0  0  0  0  0  0
  -21.2300   -5.1940   25.8090 F   0  0  0  0  0  0  0  0  0  0  0  0
  -23.9040  -14.4520   21.0040 C   0  0  0  0  0  0  0  0  0  0  0  0
  -23.1880  -13.7730   21.8910 N   0  0  0  0  0  0  0  0  0  0  0  0
  -23.4950  -15.5170   20.5400 O   0  0  0  0  0  0  0  0  0  0  0  0
  -23.5300  -12.9100   22.2890 H   0  0  0  0  0  0  0  0  0  0  0  0
  -22.2850  -14.1210   22.1790 H   0  0  0  0  0  0  0  0  0  0  0  0
  -26.5840  -15.9960   20.1090 N   0  0  0  0  0  0  0  0  0  0  0  0
  -25.8580  -16.6830   20.2750 H   0  0  0  0  0  0  0  0  0  0  0  0
  -27.4320  -16.3940   19.7260 H   0  0  0  0  0  0  0  0  0  0  0  0
  -28.7110  -23.2160   18.8430 C   0  0  0  0  0  2  0  0  0  0  0  0
  -28.2110  -24.6600   19.2530 C   0  0  0  0  0  3  0  0  0  0  0  0
  -28.5350  -25.8450   18.2800 C   0  0  0  0  0  3  0  0  0  0  0  0
  -28.4300  -27.1880   18.8380 O   0  0  0  0  0  0  0  0  0  0  0  0
  -24.5170  -31.5980   22.9020 C   0  0  0  0  0  0  0  0  0  0  0  0
  -27.2040  -27.8200   19.0090 C   0  0  0  0  0  0  0  0  0  0  0  0
  -23.2850  -30.3350   21.1690 C   0  0  0  0  0  3  0  0  0  0  0  0
  -24.7200  -29.1350   19.4320 C   0  0  0  0  0  0  0  0  0  0  0  0
  -25.7570  -30.9190   20.8420 C   0  0  0  0  0  2  0  0  0  0  0  0
  -25.8870  -29.6580   20.0020 C   0  0  0  0  0  0  0  0  0  0  0  0
  -27.1290  -29.0060   19.7880 C   0  0  0  0  0  3  0  0  0  0  0  0
  -26.0130  -27.3240   18.4330 C   0  0  0  0  0  3  0  0  0  0  0  0
  -24.7820  -27.9750   18.6410 C   0  0  0  0  0  3  0  0  0  0  0  0
  -23.4240  -29.8670   19.6960 C   0  0  0  0  0  2  0  0  0  0  0  0
  -24.5410  -30.9620   21.6960 N   0  0  0  0  0  0  0  0  0  0  0  0
  -23.4670  -31.6990   23.5530 O   0  0  0  0  0  0  0  0  0  0  0  0
  -22.7970  -29.1430   22.0220 C   0  0  0  0  0  0  0  0  0  0  0  0
  -21.4960  -28.8300   21.9200 N   0  0  0  0  0  0  0  0  0  0  0  0
  -23.5830  -28.5080   22.7310 O   0  0  0  0  0  0  0  0  0  0  0  0
  -20.9120  -29.4140   21.3350 H   0  0  0  0  0  0  0  0  0  0  0  0
  -18.3190  -27.1570   22.3290 C   0  0  0  0  0  0  0  0  0  0  0  0
  -20.8250  -27.7210   22.5980 C   0  0  0  0  0  3  0  0  0  0  0  0
  -21.1000  -26.3780   21.8820 C   0  0  0  0  0  2  0  0  0  0  0  0
  -20.0280  -26.0040   20.8550 C   0  0  0  0  0  2  0  0  0  0  0  0
  -18.6540  -25.9070   21.5240 C   0  0  0  0  0  2  0  0  0  0  0  0
  -19.3400  -28.0140   22.8180 C   0  0  0  0  0  0  0  0  0  0  0  0
  -18.9770  -29.1820   23.5210 C   0  0  0  0  0  3  0  0  0  0  0  0
  -17.6230  -29.4880   23.7570 C   0  0  0  0  0  3  0  0  0  0  0  0
  -16.6170  -28.6240   23.2900 C   0  0  0  0  0  3  0  0  0  0  0  0
  -16.9660  -27.4650   22.5740 C   0  0  0  0  0  3  0  0  0  0  0  0
  -25.8020  -32.2440   23.5100 C   0  0  0  0  0  3  0  0  0  0  0  0
  -25.4350  -33.5830   23.9890 N   0  0  0  0  0  0  0  0  0  0  0  0
  -25.6880  -34.7220   23.3310 C   0  0  0  0  0  0  0  0  0  0  0  0
  -26.3260  -34.7570   22.2760 O   0  0  0  0  0  0  0  0  0  0  0  0
  -24.8580  -33.6230   24.8160 H   0  0  0  0  0  0  0  0  0  0  0  0
  -23.8730  -36.4610   23.2070 C   0  0  0  0  0  1  0  0  0  0  0  0
  -25.1540  -36.0310   23.9430 C   0  0  0  0  0  3  0  0  0  0  0  0
  -27.2620  -36.9370   24.8170 C   0  0  0  0  0  1  0  0  0  0  0  0
  -26.1310  -37.1420   23.9150 N   0  0  0  0  0  0  0  0  0  0  0  0
  -25.6870  -38.0230   24.1580 H   0  0  0  0  0  0  0  0  0  0  0  0
  -26.4390  -31.3890   24.6750 C   0  0  1  0  0  0  0  0  0  0  0  0
  -25.4330  -30.9860   25.7790 C   0  0  0  0  0  1  0  0  0  0  0  0
  -27.0670  -30.0910   24.1170 C   0  0  0  0  0  1  0  0  0  0  0  0
  -27.5810  -32.1840   25.3470 C   0  0  0  0  0  1  0  0  0  0  0  0
  1  2  1  0
  3  4  1  0
  4  9  1  0
  4  6  1  0
  5  3  1  0
  5  7  1  0
  5  1  1  0
  6  2  1  0
  7  6  1  0
  7  8  1  1
  9 13  1  0
 10  9  2  0
 11 12  1  0
 12 10  1  0
 14 13  1  0
 14 15  1  0
 15 21  1  0
 16 21  1  0
 17 18  1  0
 17 16  1  0
 19 18  1  0
 19 26  1  0
 19 20  1  0
 21 20  1  0
 22 15  2  0
 23 24  2  0
 24 43  1  0
 25 24  1  0
 25 28  1  0
 26 27  1  0
 26 23  1  0
 27 25  2  0
 28 29  1  0
 29 30  2  0
 31 34  1  0
 31 30  1  0
 32 31  2  0
 33 32  1  0
 33 28  2  0
 34 35  1  0
 35 40  2  0
 35 36  1  0
 36 37  2  0
 37 38  1  0
 38 42  1  0
 39 38  2  0
 40 39  1  0
 41 40  1  0
 43 44  1  0
 44 47  1  0
 44 46  1  0
 45 43  2  0
 48 23  1  0
 48 49  1  0
 50 48  1  0
 51 52  1  0
 51  7  1  0
 53 54  1  0
 53 52  2  0
 54 56  1  0
 55 66  2  0
 56 61  1  0
 57 65  1  0
 57 67  1  0
 58 64  1  0
 58 60  1  0
 59 65  1  0
 60 59  1  0
 61 60  2  0
 62 63  1  0
 62 56  2  0
 63 58  2  0
 64 57  1  0
 65 55  1  0
 67 69  2  0
 68 67  1  0
 70 68  1  0
 71 80  2  0
 71 76  1  0
 72 68  1  0
 72 76  1  0
 73 72  1  0
 74 75  1  0
 74 73  1  0
 75 71  1  0
 76 77  2  0
 77 78  1  0
 79 78  2  0
 80 79  1  0
 81 55  1  0
 81 82  1  0
 81 91  1  0
 82 85  1  0
 83 87  1  0
 83 82  1  0
 84 83  2  0
 87 86  1  0
 89 87  1  0
 89 90  1  0
 89 88  1  0
 91 94  1  1
 91 92  1  0
 93 91  1  0
M  ISO  4  14 100  15 100  53 101  54 101
M  END
>  <TORSDO>  (57) 
F 23

>  <SCORE>  (57) 
-7.962

>  <name>  (57) 
56

>  <ligand_id>  (57) 
56

>  <original_smiles>  (57) 
[H]c1c([H])c([H])c2c(c1[H])C([H])([H])C([H])([H])C([H])([H])C2([H])N([H])C(=O)C1([H])N(C(=O)C([H])(N([H])C(=O)C([H])(N([H])C([H])([H])[H])C([H])([H])[H])C(C([H])([H])[H])(C([H])([H])[H])C([H])([H])[H])C([H])([H])c2c([H])c(OC([H])([H])C([H])([H])C([H])([H])[N+]3([H])C4([H])C([H])([H])C([H])([H])C3([H])C([H])(C(=NC([H])([H])C([H])([H])[H])C([H])([H])C([H])([H])C(=O)N3C([H])([H])C([H])([H])C([H])([H])C([H])(n5nc(-c6c([H])c([H])c(Oc7c([H])c([H])c(F)c([H])c7F)c([H])c6[H])c(C(=O)N([H])[H])c5N([H])[H])C3([H])[H])C4([H])[H])c([H])c([H])c2C1([H])[H]

>  <smiles>  (57) 
[H]c1c([H])c([H])c2c(c1[H])C([H])([H])C([H])([H])C([H])([H])C2([H])N([H])C(=O)C1([H])N(C(=O)C([H])(N([H])C(=O)C([H])(N([H])C([H])([H])[H])C([H])([H])[H])C(C([H])([H])[H])(C([H])([H])[H])C([H])([H])[H])C([H])([H])c2c([H])c(OC([H])([H])C([H])([H])C([H])([H])[N+]3([H])C4([H])C([H])([H])C([H])([H])C3([H])C([H])(C(=NC([H])([H])C([H])([H])[H])C([H])([H])C([H])([H])C(=O)N3C([H])([H])C([H])([H])C([H])([H])C([H])(n5nc(-c6c([H])c([H])c(Oc7c([H])c([H])c(F)c([H])c7F)c([H])c6[H])c(C(=O)N([H])[H])c5N([H])[H])C3([H])[H])C4([H])[H])c([H])c([H])c2C1([H])[H]

$$$$
57:0:0
     RDKit          3D

 81 85  0  0  1  0  0  0  0  0999 V2000
  -28.1420  -24.7700   20.3100 O   0  0  0  0  0  1  0  0  0  0  0  0
  -24.7390  -31.7840   23.1530 C   0  0  0  0  0  0  0  0  0  0  0  0
  -27.2290  -26.2230   20.2600 C   0  0  0  0  0  0  0  0  0  0  0  0
  -23.5680  -30.3610   21.5350 C   0  0  0  0  0  3  0  0  0  0  0  0
  -25.0130  -28.5900   20.1710 C   0  0  0  0  0  0  0  0  0  0  0  0
  -26.1650  -30.3430   21.4750 C   0  0  0  0  0  2  0  0  0  0  0  0
  -26.2190  -28.8480   20.8320 C   0  0  0  0  0  0  0  0  0  0  0  0
  -27.2810  -27.7130   20.8290 C   0  0  0  0  0  3  0  0  0  0  0  0
  -25.9840  -26.3120   19.5330 C   0  0  0  0  0  3  0  0  0  0  0  0
  -24.9670  -27.3520   19.4950 C   0  0  0  0  0  3  0  0  0  0  0  0
  -23.8310  -29.6060   20.1910 C   0  0  0  0  0  2  0  0  0  0  0  0
  -24.8550  -30.8760   22.1050 N   0  0  0  0  0  0  0  0  0  0  0  0
  -23.6370  -32.1130   23.6320 O   0  0  0  0  0  0  0  0  0  0  0  0
  -22.7980  -29.4420   22.5300 C   0  0  0  0  0  0  0  0  0  0  0  0
  -21.4600  -29.3240   22.4120 N   0  0  0  0  0  0  0  0  0  0  0  0
  -23.4300  -28.8260   23.3900 O   0  0  0  0  0  0  0  0  0  0  0  0
  -20.9920  -29.8710   21.7020 H   0  0  0  0  0  0  0  0  0  0  0  0
  -18.0540  -28.1380   22.9560 C   0  0  0  0  0  0  0  0  0  0  0  0
  -20.6190  -28.4060   23.1970 C   0  0  0  0  0  3  0  0  0  0  0  0
  -20.7080  -26.9650   22.6400 C   0  0  0  0  0  2  0  0  0  0  0  0
  -19.6030  -26.6390   21.6310 C   0  0  0  0  0  2  0  0  0  0  0  0
  -18.2240  -26.7880   22.2790 C   0  0  0  0  0  2  0  0  0  0  0  0
  -19.1770  -28.9050   23.3710 C   0  0  0  0  0  0  0  0  0  0  0  0
  -18.9570  -30.1630   23.9740 C   0  0  0  0  0  3  0  0  0  0  0  0
  -17.6510  -30.6560   24.1590 C   0  0  0  0  0  3  0  0  0  0  0  0
  -16.5460  -29.8890   23.7530 C   0  0  0  0  0  3  0  0  0  0  0  0
  -16.7480  -28.6310   23.1590 C   0  0  0  0  0  3  0  0  0  0  0  0
  -25.9800  -32.4660   23.8100 C   0  0  0  0  0  3  0  0  0  0  0  0
  -25.6340  -33.8660   24.1540 N   0  0  0  0  0  0  0  0  0  0  0  0
  -25.9420  -34.9500   23.4280 C   0  0  0  0  0  0  0  0  0  0  0  0
  -26.5910  -34.8790   22.3820 O   0  0  0  0  0  0  0  0  0  0  0  0
  -25.0490  -33.9920   24.9680 H   0  0  0  0  0  0  0  0  0  0  0  0
  -24.1780  -36.7430   23.1990 C   0  0  0  0  0  1  0  0  0  0  0  0
  -25.4640  -36.3320   23.9350 C   0  0  0  0  0  3  0  0  0  0  0  0
  -27.6220  -37.2500   24.6740 C   0  0  0  0  0  1  0  0  0  0  0  0
  -26.4740  -37.4040   23.7840 N   0  0  0  0  0  0  0  0  0  0  0  0
  -26.0610  -38.3170   23.9570 H   0  0  0  0  0  0  0  0  0  0  0  0
  -26.4700  -31.7220   25.1160 C   0  0  1  0  0  0  0  0  0  0  0  0
  -25.3570  -31.5040   26.1690 C   0  0  0  0  0  1  0  0  0  0  0  0
  -27.0620  -30.3370   24.7810 C   0  0  0  0  0  1  0  0  0  0  0  0
  -27.6080  -32.5290   25.7840 C   0  0  0  0  0  1  0  0  0  0  0  0
  -28.6570  -21.7470   21.1990 C   0  0  0  0  0  2  0  0  0  0  0  0
  -29.0710  -20.7080   20.1060 C   0  0  0  0  0  1  0  0  0  0  0  0
  -28.1430  -22.7330   20.1160 C   0  0  0  0  0  1  0  0  0  0  0  0
  -29.0950  -18.4630   20.2720 C   0  0  0  0  0 15  0  0  0  0  0  0
  -29.9590  -16.4830   20.1050 C   0  0  0  0  0  2  0  0  0  0  0  0
  -30.3310  -13.7380   19.3560 C   0  0  0  0  0  2  0  0  0  0  0  0
  -29.5310  -12.9960   18.2110 C   0  0  0  0  0  2  0  0  0  0  0  0
  -28.1820  -12.4580   18.6980 C   0  0  0  0  0  2  0  0  0  0  0  0
  -27.5580  -13.4800   19.6590 C   0  0  0  0  0  3  0  0  0  0  0  0
  -28.5290  -14.0960   20.7200 C   0  0  0  0  0  2  0  0  0  0  0  0
  -29.5820  -14.9600   20.0500 N   0  0  0  0  0  0  0  0  0  0  0  0
  -31.2010  -16.3130   19.9330 O   0  0  0  0  0  1  0  0  0  0  0  0
  -25.2010  -13.8980   20.4500 C   0  0  0  0  0  0  0  0  0  0  0  0
  -24.1660  -13.0910   20.8230 C   0  0  0  0  0  0  0  0  0  0  0  0
  -24.6710  -11.7540   20.7910 C   0  0  0  0  0  0  0  0  0  0  0  0
  -26.2710  -13.0630   20.2050 N   0  0  0  0  0  0  0  0  0  0  0  0
  -25.9670  -11.7600   20.4680 N   0  0  0  0  0  0  0  0  0  0  0  0
  -23.9650  -10.4770   20.9910 C   0  0  0  0  0  0  0  0  0  0  0  0
  -24.4020   -9.5260   21.9410 C   0  0  0  0  0  3  0  0  0  0  0  0
  -23.6870   -8.3230   22.1340 C   0  0  0  0  0  3  0  0  0  0  0  0
  -22.5180   -8.0600   21.3790 C   0  0  0  0  0  0  0  0  0  0  0  0
  -22.0990   -9.0000   20.4200 C   0  0  0  0  0  3  0  0  0  0  0  0
  -22.8150  -10.1930   20.2250 C   0  0  0  0  0  3  0  0  0  0  0  0
  -21.7760   -6.9070   21.4790 O   0  0  0  0  0  0  0  0  0  0  0  0
  -21.7220   -6.1830   22.6430 C   0  0  0  0  0  0  0  0  0  0  0  0
  -21.2650   -6.7510   23.8530 C   0  0  0  0  0  3  0  0  0  0  0  0
  -21.1580   -5.9530   25.0090 C   0  0  0  0  0  3  0  0  0  0  0  0
  -21.4990   -4.5880   24.9580 C   0  0  0  0  0  0  0  0  0  0  0  0
  -21.9490   -4.0190   23.7540 C   0  0  0  0  0  3  0  0  0  0  0  0
  -22.0570   -4.8140   22.5990 C   0  0  0  0  0  0  0  0  0  0  0  0
  -22.4690   -4.2560   21.4360 F   0  0  0  0  0  0  0  0  0  0  0  0
  -21.3910   -3.8200   26.0680 F   0  0  0  0  0  0  0  0  0  0  0  0
  -22.7590  -13.5390   21.0890 C   0  0  0  0  0  0  0  0  0  0  0  0
  -22.0490  -12.8410   21.9680 N   0  0  0  0  0  0  0  0  0  0  0  0
  -22.3020  -14.5500   20.5560 O   0  0  0  0  0  0  0  0  0  0  0  0
  -22.4350  -12.0260   22.4220 H   0  0  0  0  0  0  0  0  0  0  0  0
  -21.1070  -13.1260   22.1900 H   0  0  0  0  0  0  0  0  0  0  0  0
  -25.3190  -15.2720   20.2630 N   0  0  0  0  0  0  0  0  0  0  0  0
  -24.5330  -15.9030   20.3740 H   0  0  0  0  0  0  0  0  0  0  0  0
  -26.1550  -15.7360   19.9290 H   0  0  0  0  0  0  0  0  0  0  0  0
  2 13  2  0
  3  1  1  0
  3  8  1  0
  4 12  1  0
  4 14  1  0
  5 11  1  0
  5  7  1  0
  6 12  1  0
  7  6  1  0
  8  7  2  0
  9  3  2  0
 10  9  1  0
 10  5  2  0
 11  4  1  0
 12  2  1  0
 14 16  2  0
 15 14  1  0
 17 15  1  0
 18 27  2  0
 18 23  1  0
 19 15  1  0
 19 23  1  0
 20 19  1  0
 21 22  1  0
 21 20  1  0
 22 18  1  0
 23 24  2  0
 24 25  1  0
 26 25  2  0
 27 26  1  0
 28  2  1  0
 28 29  1  0
 28 38  1  0
 29 32  1  0
 30 34  1  0
 30 29  1  0
 31 30  2  0
 34 33  1  0
 36 34  1  0
 36 37  1  0
 36 35  1  0
 38 41  1  1
 38 39  1  0
 40 38  1  0
 43 42  1  0
 44 42  1  0
 47 52  1  0
 48 49  1  0
 48 47  1  0
 50 49  1  0
 50 57  1  0
 50 51  1  0
 52 46  1  0
 52 51  1  0
 53 46  1  0
 54 55  2  0
 55 74  1  0
 56 55  1  0
 56 59  1  0
 57 54  1  0
 57 58  1  0
 58 56  2  0
 59 60  1  0
 60 61  2  0
 62 65  1  0
 62 61  1  0
 63 62  2  0
 64 63  1  0
 64 59  2  0
 65 66  1  0
 66 67  1  0
 67 68  2  0
 69 68  1  0
 69 73  1  0
 70 69  2  0
 71 66  2  0
 71 70  1  0
 72 71  1  0
 74 75  1  0
 75 78  1  0
 75 77  1  0
 76 74  2  0
 79 80  1  0
 79 54  1  0
 81 79  1  0
M  ISO  4   1 101  44 101  45 100  46 100
M  END
>  <TORSDO>  (58) 
F 17

>  <SCORE>  (58) 
-16.271

>  <name>  (58) 
57

>  <ligand_id>  (58) 
57

>  <original_smiles>  (58) 
[H]c1c([H])c([H])c2c(c1[H])C([H])([H])C([H])([H])C([H])([H])C2([H])N([H])C(=O)C1([H])N(C(=O)C([H])(N([H])C(=O)C([H])(N([H])C([H])([H])[H])C([H])([H])[H])C(C([H])([H])[H])(C([H])([H])[H])C([H])([H])[H])C([H])([H])c2c([H])c(OC3([H])C([H])([H])C3([H])C([H])([H])C(=O)N3C([H])([H])C([H])([H])C([H])([H])C([H])(n4nc(-c5c([H])c([H])c(Oc6c([H])c([H])c(F)c([H])c6F)c([H])c5[H])c(C(=O)N([H])[H])c4N([H])[H])C3([H])[H])c([H])c([H])c2C1([H])[H]

>  <smiles>  (58) 
[H]c1c([H])c([H])c2c(c1[H])C([H])([H])C([H])([H])C([H])([H])C2([H])N([H])C(=O)C1([H])N(C(=O)C([H])(N([H])C(=O)C([H])(N([H])C([H])([H])[H])C([H])([H])[H])C(C([H])([H])[H])(C([H])([H])[H])C([H])([H])[H])C([H])([H])c2c([H])c(OC3([H])C([H])([H])C3([H])C([H])([H])C(=O)N3C([H])([H])C([H])([H])C([H])([H])C([H])(n4nc(-c5c([H])c([H])c(Oc6c([H])c([H])c(F)c([H])c6F)c([H])c5[H])c(C(=O)N([H])[H])c4N([H])[H])C3([H])[H])c([H])c([H])c2C1([H])[H]

$$$$
58:0:0
     RDKit          3D

 89 96  0  0  1  0  0  0  0  0999 V2000
  -28.4390  -22.0740   19.9140 C   0  0  0  0  0  3  0  0  0  0  0  0
  -26.5370  -22.9630   18.4340 C   0  0  0  0  0  1  0  0  0  0  0  0
  -27.1700  -20.5760   18.2480 C   0  0  0  0  0  1  0  0  0  0  0  0
  -28.7270  -22.3580   17.4020 C   0  0  0  0  0  1  0  0  0  0  0  0
  -27.7310  -21.9920   18.5190 C   0  0  2  0  0  0  0  0  0  0  0  0
  -29.5460  -20.7170   19.9820 N   0  0  0  0  0  4  0  0  0  0  0  0
  -29.9600  -20.7090   19.0640 H   0  0  0  0  0  0  0  0  0  0  0  0
  -30.2880  -21.0700   20.5660 H   0  0  0  0  0  0  0  0  0  0  0  0
  -30.0460  -18.9350   21.8600 C   0  0  0  0  0  1  0  0  0  0  0  0
  -29.4950  -19.0230   20.4310 C   0  0  0  0  0  3  0  0  0  0  0  0
  -29.8830  -17.3260   19.6320 C   0  0  0  0  0  2  0  0  0  0  0  0
  -30.5900  -15.6210   19.8600 C   0  0  0  0  0  0  0  0  0  0  0  0
  -30.5840  -13.1170   18.9660 C   0  0  0  0  0  2  0  0  0  0  0  0
  -29.6090  -12.8060   17.7960 C   0  0  0  0  0  2  0  0  0  0  0  0
  -28.2030  -12.4720   18.3200 C   0  0  0  0  0  2  0  0  0  0  0  0
  -27.7800  -13.4380   19.4500 C   0  0  0  0  0  3  0  0  0  0  0  0
  -28.8820  -13.6810   20.5030 C   0  0  0  0  0  2  0  0  0  0  0  0
  -30.0390  -14.2750   19.7990 N   0  0  0  0  0  0  0  0  0  0  0  0
  -31.8220  -15.5090   19.7160 O   0  0  0  0  0  0  0  0  0  0  0  0
  -25.4770  -13.9600   20.3850 C   0  0  0  0  0  0  0  0  0  0  0  0
  -24.4380  -13.1730   20.7940 C   0  0  0  0  0  0  0  0  0  0  0  0
  -24.8990  -11.8240   20.6970 C   0  0  0  0  0  0  0  0  0  0  0  0
  -26.4980  -13.0920   20.0470 N   0  0  0  0  0  0  0  0  0  0  0  0
  -26.1700  -11.7980   20.3050 N   0  0  0  0  0  0  0  0  0  0  0  0
  -24.1780  -10.5590   20.8960 C   0  0  0  0  0  0  0  0  0  0  0  0
  -24.5850   -9.6180   21.8680 C   0  0  0  0  0  3  0  0  0  0  0  0
  -23.8600   -8.4210   22.0540 C   0  0  0  0  0  3  0  0  0  0  0  0
  -22.7140   -8.1550   21.2680 C   0  0  0  0  0  0  0  0  0  0  0  0
  -22.3260   -9.0840   20.2850 C   0  0  0  0  0  3  0  0  0  0  0  0
  -23.0520  -10.2710   20.0980 C   0  0  0  0  0  3  0  0  0  0  0  0
  -21.9630   -7.0080   21.3600 O   0  0  0  0  0  0  0  0  0  0  0  0
  -21.7900   -6.3550   22.5550 C   0  0  0  0  0  0  0  0  0  0  0  0
  -21.1890   -6.9840   23.6680 C   0  0  0  0  0  3  0  0  0  0  0  0
  -20.9670   -6.2560   24.8530 C   0  0  0  0  0  3  0  0  0  0  0  0
  -21.3360   -4.9000   24.9260 C   0  0  0  0  0  0  0  0  0  0  0  0
  -21.9280   -4.2700   23.8170 C   0  0  0  0  0  3  0  0  0  0  0  0
  -22.1510   -4.9960   22.6340 C   0  0  0  0  0  0  0  0  0  0  0  0
  -22.7040   -4.3780   21.5620 F   0  0  0  0  0  0  0  0  0  0  0  0
  -21.1160   -4.1970   26.0620 F   0  0  0  0  0  0  0  0  0  0  0  0
  -23.0610  -13.6460   21.1560 C   0  0  0  0  0  0  0  0  0  0  0  0
  -22.3820  -12.9320   22.0460 N   0  0  0  0  0  0  0  0  0  0  0  0
  -22.5990  -14.6840   20.6830 O   0  0  0  0  0  0  0  0  0  0  0  0
  -22.7720  -12.0930   22.4470 H   0  0  0  0  0  0  0  0  0  0  0  0
  -21.4600  -13.2290   22.3300 H   0  0  0  0  0  0  0  0  0  0  0  0
  -25.6350  -15.3350   20.2390 N   0  0  0  0  0  0  0  0  0  0  0  0
  -24.8800  -15.9880   20.4230 H   0  0  0  0  0  0  0  0  0  0  0  0
  -26.4670  -15.7820   19.8770 H   0  0  0  0  0  0  0  0  0  0  0  0
  -28.4480  -23.9120   20.4900 C   0  0  0  0  0  2  0  0  0  0  0  0
  -28.2880  -25.6040   20.0610 O   0  0  0  0  0  0  0  0  0  0  0  0
  -24.5480  -31.7280   23.0350 C   0  0  0  0  0  0  0  0  0  0  0  0
  -27.2320  -26.7260   20.1210 C   0  0  0  0  0  0  0  0  0  0  0  0
  -23.4070  -30.2830   21.4080 C   0  0  0  0  0  3  0  0  0  0  0  0
  -24.9050  -28.6660   20.0300 C   0  0  0  0  0  0  0  0  0  0  0  0
  -25.9800  -30.5090   21.2920 C   0  0  0  0  0  2  0  0  0  0  0  0
  -26.0880  -29.0740   20.6570 C   0  0  0  0  0  0  0  0  0  0  0  0
  -27.2420  -28.1340   20.6610 C   0  0  0  0  0  3  0  0  0  0  0  0
  -26.0010  -26.5120   19.4520 C   0  0  0  0  0  3  0  0  0  0  0  0
  -24.8970  -27.4100   19.4040 C   0  0  0  0  0  3  0  0  0  0  0  0
  -23.6730  -29.5810   20.0470 C   0  0  0  0  0  2  0  0  0  0  0  0
  -24.6670  -30.8720   21.9640 N   0  0  0  0  0  0  0  0  0  0  0  0
  -23.4430  -32.0000   23.5380 O   0  0  0  0  0  0  0  0  0  0  0  0
  -22.7160  -29.2910   22.3820 C   0  0  0  0  0  0  0  0  0  0  0  0
  -21.3870  -29.1070   22.2590 N   0  0  0  0  0  0  0  0  0  0  0  0
  -23.3880  -28.6840   23.2200 O   0  0  0  0  0  0  0  0  0  0  0  0
  -20.8960  -29.6460   21.5610 H   0  0  0  0  0  0  0  0  0  0  0  0
  -18.0270  -27.8310   22.7830 C   0  0  0  0  0  0  0  0  0  0  0  0
  -20.5820  -28.1570   23.0370 C   0  0  0  0  0  3  0  0  0  0  0  0
  -20.7130  -26.7230   22.4700 C   0  0  0  0  0  2  0  0  0  0  0  0
  -19.6160  -26.3720   21.4600 C   0  0  0  0  0  2  0  0  0  0  0  0
  -18.2320  -26.4860   22.1060 C   0  0  0  0  0  2  0  0  0  0  0  0
  -19.1290  -28.6220   23.2050 C   0  0  0  0  0  0  0  0  0  0  0  0
  -18.8790  -29.8770   23.8020 C   0  0  0  0  0  3  0  0  0  0  0  0
  -17.5610  -30.3420   23.9770 C   0  0  0  0  0  3  0  0  0  0  0  0
  -16.4760  -29.5500   23.5680 C   0  0  0  0  0  3  0  0  0  0  0  0
  -16.7090  -28.2960   22.9770 C   0  0  0  0  0  3  0  0  0  0  0  0
  -25.7890  -32.4180   23.6770 C   0  0  0  0  0  3  0  0  0  0  0  0
  -25.4120  -33.7980   24.0370 N   0  0  0  0  0  0  0  0  0  0  0  0
  -25.7040  -34.8910   23.3180 C   0  0  0  0  0  0  0  0  0  0  0  0
  -26.3780  -34.8440   22.2860 O   0  0  0  0  0  0  0  0  0  0  0  0
  -24.8090  -33.9040   24.8400 H   0  0  0  0  0  0  0  0  0  0  0  0
  -23.9180  -36.6420   23.0200 C   0  0  0  0  0  1  0  0  0  0  0  0
  -25.1700  -36.2490   23.8210 C   0  0  0  0  0  3  0  0  0  0  0  0
  -27.2630  -37.1900   24.6960 C   0  0  0  0  0  1  0  0  0  0  0  0
  -26.1650  -37.3420   23.7450 N   0  0  0  0  0  0  0  0  0  0  0  0
  -25.7250  -38.2430   23.9100 H   0  0  0  0  0  0  0  0  0  0  0  0
  -26.3260  -31.6590   24.9540 C   0  0  1  0  0  0  0  0  0  0  0  0
  -25.2370  -31.3710   26.0130 C   0  0  0  0  0  1  0  0  0  0  0  0
  -26.9680  -30.3080   24.5660 C   0  0  0  0  0  1  0  0  0  0  0  0
  -27.4400  -32.4940   25.6280 C   0  0  0  0  0  1  0  0  0  0  0  0
  1  6  1  0
  1 48  1  0
  5  2  1  1
  3  5  1  0
  4  5  1  0
  5  1  1  0
  6 10  1  0
  6  8  1  0
  7  6  1  0
 10  9  1  0
 11 12  1  0
 11 10  1  0
 13 18  1  0
 14 15  1  0
 14 13  1  0
 16 15  1  0
 16 23  1  0
 16 17  1  0
 18 12  1  0
 18 17  1  0
 19 12  2  0
 20 21  2  0
 21 40  1  0
 22 21  1  0
 22 25  1  0
 23 24  1  0
 23 20  1  0
 24 22  2  0
 25 26  1  0
 26 27  2  0
 28 31  1  0
 28 27  1  0
 29 28  2  0
 30 29  1  0
 30 25  2  0
 31 32  1  0
 32 37  2  0
 32 33  1  0
 33 34  2  0
 34 35  1  0
 35 39  1  0
 36 35  2  0
 37 36  1  0
 38 37  1  0
 40 41  1  0
 41 44  1  0
 41 43  1  0
 42 40  2  0
 45 20  1  0
 45 46  1  0
 47 45  1  0
 49 51  1  0
 49 48  1  0
 50 61  2  0
 51 56  1  0
 52 60  1  0
 52 62  1  0
 53 59  1  0
 53 55  1  0
 54 60  1  0
 55 56  2  0
 55 54  1  0
 57 51  2  0
 58 57  1  0
 58 53  2  0
 59 52  1  0
 60 50  1  0
 62 64  2  0
 63 62  1  0
 65 63  1  0
 66 75  2  0
 66 71  1  0
 67 63  1  0
 67 71  1  0
 68 67  1  0
 69 70  1  0
 69 68  1  0
 70 66  1  0
 71 72  2  0
 72 73  1  0
 74 73  2  0
 75 74  1  0
 76 50  1  0
 76 77  1  0
 76 86  1  0
 77 80  1  0
 78 82  1  0
 78 77  1  0
 79 78  2  0
 82 81  1  0
 84 82  1  0
 84 85  1  0
 84 83  1  0
 86 89  1  1
 86 87  1  0
 88 86  1  0
M  ISO  4  11 100  12 100  48 101  49 101
M  END
>  <TORSDO>  (59) 
F 21

>  <SCORE>  (59) 
-15.462

>  <name>  (59) 
58

>  <ligand_id>  (59) 
58

>  <original_smiles>  (59) 
[H]c1c([H])c([H])c2c(c1[H])C([H])([H])C([H])([H])C([H])([H])C2([H])N([H])C(=O)C1([H])N(C(=O)C([H])(N([H])C(=O)C([H])(N([H])C([H])([H])[H])C([H])([H])[H])C(C([H])([H])[H])(C([H])([H])[H])C([H])([H])[H])C([H])([H])c2c([H])c(OC([H])([H])C([H])(C(C([H])([H])[H])(C([H])([H])[H])C([H])([H])[H])[N+]([H])([H])C([H])(C([H])([H])[H])C([H])([H])C(=O)N3C([H])([H])C([H])([H])C([H])([H])C([H])(n4nc(-c5c([H])c([H])c(Oc6c([H])c([H])c(F)c([H])c6F)c([H])c5[H])c(C(=O)N([H])[H])c4N([H])[H])C3([H])[H])c([H])c([H])c2C1([H])[H]

>  <smiles>  (59) 
[H]c1c([H])c([H])c2c(c1[H])C([H])([H])C([H])([H])C([H])([H])C2([H])N([H])C(=O)C1([H])N(C(=O)C([H])(N([H])C(=O)C([H])(N([H])C([H])([H])[H])C([H])([H])[H])C(C([H])([H])[H])(C([H])([H])[H])C([H])([H])[H])C([H])([H])c2c([H])c(OC([H])([H])C([H])(C(C([H])([H])[H])(C([H])([H])[H])C([H])([H])[H])[N+]([H])([H])C([H])(C([H])([H])[H])C([H])([H])C(=O)N3C([H])([H])C([H])([H])C([H])([H])C([H])(n4nc(-c5c([H])c([H])c(Oc6c([H])c([H])c(F)c([H])c6F)c([H])c5[H])c(C(=O)N([H])[H])c4N([H])[H])C3([H])[H])c([H])c([H])c2C1([H])[H]

$$$$
59:0:0
     RDKit          3D

 94102  0  0  1  0  0  0  0  0999 V2000
  -25.5340  -22.0450   17.8910 C   0  0  0  0  0  2  0  0  0  0  0  0
  -24.8240  -22.1150   19.2550 C   0  0  0  0  0  2  0  0  0  0  0  0
  -26.7650  -21.1060   17.8420 C   0  0  0  0  0  2  0  0  0  0  0  0
  -25.5480  -22.9790   20.3090 C   0  0  0  0  0  2  0  0  0  0  0  0
  -27.9280  -21.8890   20.0430 C   0  0  0  0  0  2  0  0  0  0  0  0
  -27.3930  -20.7040   19.1980 C   0  0  0  0  0  3  0  0  0  0  0  0
  -27.0710  -23.1850   20.1170 C   0  0  0  0  0  3  0  0  0  0  0  0
  -27.5710  -24.1000   21.1730 N   0  0  0  0  0  4  0  0  0  0  0  0
  -27.5950  -23.6120   22.0560 H   0  0  0  0  0  0  0  0  0  0  0  0
  -26.9020  -24.8460   21.2730 H   0  0  0  0  0  0  0  0  0  0  0  0
  -28.8960  -24.7180   20.9280 C   0  0  0  0  0  2  0  0  0  0  0  0
  -28.8800  -26.2470   21.1260 C   0  0  0  0  0  2  0  0  0  0  0  0
  -28.3950  -26.8510   19.9300 O   0  0  0  0  0  0  0  0  0  0  0  0
  -24.5840  -31.9260   23.2080 C   0  0  0  0  0  0  0  0  0  0  0  0
  -27.2310  -27.5670   20.0380 C   0  0  0  0  0  0  0  0  0  0  0  0
  -23.3690  -30.5370   21.5600 C   0  0  0  0  0  3  0  0  0  0  0  0
  -24.8210  -29.0240   20.1050 C   0  0  0  0  0  0  0  0  0  0  0  0
  -25.8850  -30.9230   21.3330 C   0  0  0  0  0  2  0  0  0  0  0  0
  -25.9770  -29.5550   20.6910 C   0  0  0  0  0  0  0  0  0  0  0  0
  -27.1860  -28.8290   20.6680 C   0  0  0  0  0  3  0  0  0  0  0  0
  -26.0670  -27.0450   19.4420 C   0  0  0  0  0  3  0  0  0  0  0  0
  -24.8550  -27.7630   19.4840 C   0  0  0  0  0  3  0  0  0  0  0  0
  -23.5690  -29.8700   20.1710 C   0  0  0  0  0  2  0  0  0  0  0  0
  -24.6330  -31.1430   22.0930 N   0  0  0  0  0  0  0  0  0  0  0  0
  -23.5080  -32.1830   23.7650 O   0  0  0  0  0  0  0  0  0  0  0  0
  -22.7380  -29.4970   22.5160 C   0  0  0  0  0  0  0  0  0  0  0  0
  -21.4130  -29.3110   22.4040 N   0  0  0  0  0  0  0  0  0  0  0  0
  -23.4370  -28.8610   23.3100 O   0  0  0  0  0  0  0  0  0  0  0  0
  -20.9100  -29.8790   21.7360 H   0  0  0  0  0  0  0  0  0  0  0  0
  -18.0520  -28.0910   22.9240 C   0  0  0  0  0  0  0  0  0  0  0  0
  -20.6110  -28.3570   23.1700 C   0  0  0  0  0  3  0  0  0  0  0  0
  -20.7150  -26.9360   22.5700 C   0  0  0  0  0  2  0  0  0  0  0  0
  -19.6030  -26.6220   21.5650 C   0  0  0  0  0  2  0  0  0  0  0  0
  -18.2290  -26.7520   22.2290 C   0  0  0  0  0  2  0  0  0  0  0  0
  -19.1720  -28.8520   23.3510 C   0  0  0  0  0  0  0  0  0  0  0  0
  -18.9550  -30.1060   23.9610 C   0  0  0  0  0  3  0  0  0  0  0  0
  -17.6500  -30.6010   24.1480 C   0  0  0  0  0  3  0  0  0  0  0  0
  -16.5460  -29.8370   23.7360 C   0  0  0  0  0  3  0  0  0  0  0  0
  -16.7480  -28.5830   23.1310 C   0  0  0  0  0  3  0  0  0  0  0  0
  -25.8750  -32.5570   23.8190 C   0  0  0  0  0  3  0  0  0  0  0  0
  -25.5640  -33.9500   24.1670 N   0  0  0  0  0  0  0  0  0  0  0  0
  -25.8880  -35.0110   23.4130 C   0  0  0  0  0  0  0  0  0  0  0  0
  -26.5520  -34.9210   22.3780 O   0  0  0  0  0  0  0  0  0  0  0  0
  -24.9760  -34.0960   24.9750 H   0  0  0  0  0  0  0  0  0  0  0  0
  -24.1540  -36.8010   23.0810 C   0  0  0  0  0  1  0  0  0  0  0  0
  -25.3970  -36.3930   23.8880 C   0  0  0  0  0  3  0  0  0  0  0  0
  -27.5320  -37.2720   24.7240 C   0  0  0  0  0  1  0  0  0  0  0  0
  -26.4280  -37.4490   23.7850 N   0  0  0  0  0  0  0  0  0  0  0  0
  -26.0200  -38.3660   23.9450 H   0  0  0  0  0  0  0  0  0  0  0  0
  -26.4140  -31.7750   25.0780 C   0  0  1  0  0  0  0  0  0  0  0  0
  -25.3360  -31.5200   26.1590 C   0  0  0  0  0  1  0  0  0  0  0  0
  -26.9960  -30.4050   24.6580 C   0  0  0  0  0  1  0  0  0  0  0  0
  -27.5700  -32.5660   25.7340 C   0  0  0  0  0  1  0  0  0  0  0  0
  -28.5100  -19.6880   18.9810 C   0  0  0  0  0  3  0  0  0  0  0  0
  -28.5480  -18.4460   19.4960 C   0  0  0  0  0  3  0  0  0  0  0  0
  -29.6910  -17.4600   19.3030 C   0  0  0  0  0  2  0  0  0  0  0  0
  -30.4270  -17.1450   20.6260 C   0  0  0  0  0  2  0  0  0  0  0  0
  -30.1050  -15.7650   21.2550 C   0  0  0  0  0  2  0  0  0  0  0  0
  -30.7900  -14.5700   20.5540 C   0  0  0  0  0  0  0  0  0  0  0  0
  -30.5240  -12.4210   19.3670 C   0  0  0  0  0  2  0  0  0  0  0  0
  -29.6030  -12.6360   18.1500 C   0  0  0  0  0  2  0  0  0  0  0  0
  -28.1200  -12.5060   18.5490 C   0  0  0  0  0  2  0  0  0  0  0  0
  -27.7640  -13.3370   19.8090 C   0  0  0  0  0  3  0  0  0  0  0  0
  -28.7950  -13.0870   20.9320 C   0  0  0  0  0  2  0  0  0  0  0  0
  -30.1290  -13.3930   20.3970 N   0  0  0  0  0  0  0  0  0  0  0  0
  -31.9150  -14.7510   20.0790 O   0  0  0  0  0  0  0  0  0  0  0  0
  -25.3440  -13.9350   20.4500 C   0  0  0  0  0  0  0  0  0  0  0  0
  -24.2740  -13.1600   20.8060 C   0  0  0  0  0  0  0  0  0  0  0  0
  -24.7480  -11.8120   20.8140 C   0  0  0  0  0  0  0  0  0  0  0  0
  -26.4020  -13.0620   20.2580 N   0  0  0  0  0  0  0  0  0  0  0  0
  -26.0440  -11.7800   20.5370 N   0  0  0  0  0  0  0  0  0  0  0  0
  -24.0310  -10.5440   21.0040 C   0  0  0  0  0  0  0  0  0  0  0  0
  -24.4510   -9.5930   21.9620 C   0  0  0  0  0  3  0  0  0  0  0  0
  -23.7290   -8.3930   22.1420 C   0  0  0  0  0  3  0  0  0  0  0  0
  -22.5760   -8.1350   21.3630 C   0  0  0  0  0  0  0  0  0  0  0  0
  -22.1770   -9.0740   20.3960 C   0  0  0  0  0  3  0  0  0  0  0  0
  -22.8990  -10.2650   20.2130 C   0  0  0  0  0  3  0  0  0  0  0  0
  -21.8290   -6.9860   21.4490 O   0  0  0  0  0  0  0  0  0  0  0  0
  -21.7570   -6.2600   22.6110 C   0  0  0  0  0  0  0  0  0  0  0  0
  -21.3020   -6.8330   23.8190 C   0  0  0  0  0  3  0  0  0  0  0  0
  -21.1780   -6.0340   24.9750 C   0  0  0  0  0  3  0  0  0  0  0  0
  -21.5010   -4.6640   24.9190 C   0  0  0  0  0  0  0  0  0  0  0  0
  -21.9500   -4.0920   23.7160 C   0  0  0  0  0  3  0  0  0  0  0  0
  -22.0750   -4.8890   22.5650 C   0  0  0  0  0  0  0  0  0  0  0  0
  -22.4890   -4.3290   21.4030 F   0  0  0  0  0  0  0  0  0  0  0  0
  -21.3750   -3.8940   26.0250 F   0  0  0  0  0  0  0  0  0  0  0  0
  -22.8650  -13.6290   21.0320 C   0  0  0  0  0  0  0  0  0  0  0  0
  -22.1200  -12.9450   21.8920 N   0  0  0  0  0  0  0  0  0  0  0  0
  -22.4320  -14.6390   20.4790 O   0  0  0  0  0  0  0  0  0  0  0  0
  -22.4810  -12.1290   22.3630 H   0  0  0  0  0  0  0  0  0  0  0  0
  -21.1750  -13.2460   22.0850 H   0  0  0  0  0  0  0  0  0  0  0  0
  -25.5110  -15.3030   20.2520 N   0  0  0  0  0  0  0  0  0  0  0  0
  -24.7460  -15.9660   20.3150 H   0  0  0  0  0  0  0  0  0  0  0  0
  -26.3830  -15.7240   19.9520 H   0  0  0  0  0  0  0  0  0  0  0  0
  1  2  1  0
  2  4  1  0
  3  1  1  0
  3  6  1  0
  5  7  1  0
  6 54  1  0
  6  5  1  0
  7  4  1  0
  7  8  1  0
  8 10  1  0
  8  9  1  0
 11 12  1  0
 11  8  1  0
 13 15  1  0
 13 12  1  0
 14 25  2  0
 15 20  1  0
 16 24  1  0
 16 26  1  0
 17 23  1  0
 17 19  1  0
 18 24  1  0
 19 18  1  0
 20 19  2  0
 21 22  1  0
 21 15  2  0
 22 17  2  0
 23 16  1  0
 24 14  1  0
 26 28  2  0
 27 26  1  0
 29 27  1  0
 30 39  2  0
 30 35  1  0
 31 27  1  0
 31 35  1  0
 32 31  1  0
 33 34  1  0
 33 32  1  0
 34 30  1  0
 35 36  2  0
 36 37  1  0
 38 37  2  0
 39 38  1  0
 40 14  1  0
 40 41  1  0
 40 50  1  0
 41 44  1  0
 42 46  1  0
 42 41  1  0
 43 42  2  0
 46 45  1  0
 48 46  1  0
 48 49  1  0
 48 47  1  0
 50 53  1  1
 50 51  1  0
 52 50  1  0
 54 55  2  0
 56 55  1  0
 56 57  1  0
 57 58  1  0
 59 58  1  0
 60 65  1  0
 61 62  1  0
 61 60  1  0
 63 62  1  0
 63 70  1  0
 63 64  1  0
 65 59  1  0
 65 64  1  0
 66 59  2  0
 67 68  2  0
 68 69  1  0
 68 87  1  0
 69 72  1  0
 70 67  1  0
 70 71  1  0
 71 69  2  0
 72 73  1  0
 73 74  2  0
 75 78  1  0
 75 74  1  0
 76 75  2  0
 77 76  1  0
 77 72  2  0
 78 79  1  0
 79 80  1  0
 80 81  2  0
 82 81  1  0
 82 86  1  0
 83 82  2  0
 84 79  2  0
 84 83  1  0
 85 84  1  0
 87 88  1  0
 88 91  1  0
 88 90  1  0
 89 87  2  0
 92 93  1  0
 92 67  1  0
 94 92  1  0
M  ISO  4  12 101  13 101  58 100  59 100
M  END
>  <TORSDO>  (60) 
F 23

>  <SCORE>  (60) 
-12.743

>  <name>  (60) 
59

>  <ligand_id>  (60) 
59

>  <original_smiles>  (60) 
[H]C(=C([H])C1([H])C([H])([H])C([H])([H])C([H])([H])C([H])([H])C([H])([N+]([H])([H])C([H])([H])C([H])([H])Oc2c([H])c([H])c3c(c2[H])C([H])([H])N(C(=O)C([H])(N([H])C(=O)C([H])(N([H])C([H])([H])[H])C([H])([H])[H])C(C([H])([H])[H])(C([H])([H])[H])C([H])([H])[H])C([H])(C(=O)N([H])C2([H])c4c([H])c([H])c([H])c([H])c4C([H])([H])C([H])([H])C2([H])[H])C3([H])[H])C1([H])[H])C([H])([H])C([H])([H])C([H])([H])C(=O)N1C([H])([H])C([H])([H])C([H])([H])C([H])(n2nc(-c3c([H])c([H])c(Oc4c([H])c([H])c(F)c([H])c4F)c([H])c3[H])c(C(=O)N([H])[H])c2N([H])[H])C1([H])[H]

>  <smiles>  (60) 
[H]C(=C([H])C1([H])C([H])([H])C([H])([H])C([H])([H])C([H])([H])C([H])([N+]([H])([H])C([H])([H])C([H])([H])Oc2c([H])c([H])c3c(c2[H])C([H])([H])N(C(=O)C([H])(N([H])C(=O)C([H])(N([H])C([H])([H])[H])C([H])([H])[H])C(C([H])([H])[H])(C([H])([H])[H])C([H])([H])[H])C([H])(C(=O)N([H])C2([H])c4c([H])c([H])c([H])c([H])c4C([H])([H])C([H])([H])C2([H])[H])C3([H])[H])C1([H])[H])C([H])([H])C([H])([H])C([H])([H])C(=O)N1C([H])([H])C([H])([H])C([H])([H])C([H])(n2nc(-c3c([H])c([H])c(Oc4c([H])c([H])c(F)c([H])c4F)c([H])c3[H])c(C(=O)N([H])[H])c2N([H])[H])C1([H])[H]

$$$$
60:0:0
     RDKit          3D

 89 97  0  0  1  0  0  0  0  0999 V2000
  -29.3070  -23.4930   20.1730 C   0  0  0  0  0  0  0  0  0  0  0  0
  -30.5730  -24.3260   20.1050 C   0  0  0  0  0  1  0  0  0  0  0  0
  -29.5910  -22.1490   20.2240 N   0  0  0  0  0  0  0  0  0  0  0  0
  -28.0390  -24.5870   20.1230 C   0  0  0  0  0  2  0  0  0  0  0  0
  -28.2630  -26.1450   20.2350 O   0  0  0  0  0  0  0  0  0  0  0  0
  -24.5860  -31.8570   23.1800 C   0  0  0  0  0  0  0  0  0  0  0  0
  -27.1950  -27.1220   20.1800 C   0  0  0  0  0  0  0  0  0  0  0  0
  -23.3940  -30.4440   21.5490 C   0  0  0  0  0  3  0  0  0  0  0  0
  -24.8540  -28.8630   20.1370 C   0  0  0  0  0  0  0  0  0  0  0  0
  -25.9470  -30.7170   21.3820 C   0  0  0  0  0  2  0  0  0  0  0  0
  -26.0290  -29.3150   20.7490 C   0  0  0  0  0  0  0  0  0  0  0  0
  -27.1970  -28.4590   20.7580 C   0  0  0  0  0  3  0  0  0  0  0  0
  -25.9920  -26.7760   19.5260 C   0  0  0  0  0  3  0  0  0  0  0  0
  -24.8490  -27.6080   19.5100 C   0  0  0  0  0  3  0  0  0  0  0  0
  -23.6210  -29.7560   20.1740 C   0  0  0  0  0  2  0  0  0  0  0  0
  -24.6640  -31.0310   22.0910 N   0  0  0  0  0  0  0  0  0  0  0  0
  -23.5000  -32.1360   23.7100 O   0  0  0  0  0  0  0  0  0  0  0  0
  -22.7230  -29.4410   22.5200 C   0  0  0  0  0  0  0  0  0  0  0  0
  -21.3930  -29.2700   22.4060 N   0  0  0  0  0  0  0  0  0  0  0  0
  -23.4020  -28.8120   23.3370 O   0  0  0  0  0  0  0  0  0  0  0  0
  -20.9030  -29.8290   21.7230 H   0  0  0  0  0  0  0  0  0  0  0  0
  -18.0150  -28.0740   22.9410 C   0  0  0  0  0  0  0  0  0  0  0  0
  -20.5760  -28.3350   23.1860 C   0  0  0  0  0  3  0  0  0  0  0  0
  -20.6720  -26.9000   22.6160 C   0  0  0  0  0  2  0  0  0  0  0  0
  -19.5610  -26.5770   21.6120 C   0  0  0  0  0  2  0  0  0  0  0  0
  -18.1860  -26.7230   22.2670 C   0  0  0  0  0  2  0  0  0  0  0  0
  -19.1380  -28.8370   23.3590 C   0  0  0  0  0  0  0  0  0  0  0  0
  -18.9220  -30.0990   23.9520 C   0  0  0  0  0  3  0  0  0  0  0  0
  -17.6190  -30.5990   24.1330 C   0  0  0  0  0  3  0  0  0  0  0  0
  -16.5110  -29.8330   23.7280 C   0  0  0  0  0  3  0  0  0  0  0  0
  -16.7110  -28.5730   23.1370 C   0  0  0  0  0  3  0  0  0  0  0  0
  -25.8610  -32.5060   23.8020 C   0  0  0  0  0  3  0  0  0  0  0  0
  -26.3820  -31.7450   25.0830 C   0  0  1  0  0  0  0  0  0  0  0  0
  -25.2920  -31.5070   26.1550 C   0  0  0  0  0  1  0  0  0  0  0  0
  -26.9760  -30.3680   24.7010 C   0  0  0  0  0  1  0  0  0  0  0  0
  -27.5230  -32.5510   25.7460 C   0  0  0  0  0  1  0  0  0  0  0  0
  -25.5330  -33.9020   24.1350 N   0  0  0  0  0  0  0  0  0  0  0  0
  -25.8590  -34.9650   23.3880 C   0  0  0  0  0  0  0  0  0  0  0  0
  -26.5320  -34.8730   22.3580 O   0  0  0  0  0  0  0  0  0  0  0  0
  -24.9350  -34.0430   24.9360 H   0  0  0  0  0  0  0  0  0  0  0  0
  -24.1240  -36.7600   23.0390 C   0  0  0  0  0  1  0  0  0  0  0  0
  -25.3610  -36.3480   23.8540 C   0  0  0  0  0  3  0  0  0  0  0  0
  -27.4840  -37.2420   24.7080 C   0  0  0  0  0  1  0  0  0  0  0  0
  -26.3870  -37.4080   23.7590 N   0  0  0  0  0  0  0  0  0  0  0  0
  -25.9740  -38.3250   23.9080 H   0  0  0  0  0  0  0  0  0  0  0  0
  -28.9390  -20.7140   20.2220 C   0  0  0  0  0  2  0  0  0  0  0  0
  -30.1360  -18.8480   17.7910 C   0  0  0  0  0  2  0  0  0  0  0  0
  -29.6090  -17.5320   18.3630 C   0  0  0  0  0  2  0  0  0  0  0  0
  -30.8770  -19.5160   18.9440 C   0  0  0  0  0  2  0  0  0  0  0  0
  -29.5160  -17.6930   19.8960 C   0  0  0  0  0  3  0  0  0  0  0  0
  -29.9570  -19.3280   20.1620 C   0  0  0  0  0  3  0  0  0  0  0  0
  -30.1380  -16.2070   21.9960 C   0  0  0  0  0  2  0  0  0  0  0  0
  -30.0990  -16.3050   20.6470 C   0  0  0  0  0  0  0  0  0  0  0  0
  -30.6980  -15.0000   20.0190 C   0  0  0  0  0  0  0  0  0  0  0  0
  -30.4420  -12.6870   19.0030 C   0  0  0  0  0  2  0  0  0  0  0  0
  -29.4490  -12.7280   17.8180 C   0  0  0  0  0  2  0  0  0  0  0  0
  -28.0100  -12.5110   18.3170 C   0  0  0  0  0  2  0  0  0  0  0  0
  -27.6880  -13.3850   19.5540 C   0  0  0  0  0  3  0  0  0  0  0  0
  -28.7980  -13.3390   20.6260 C   0  0  0  0  0  2  0  0  0  0  0  0
  -30.0540  -13.7540   19.9830 N   0  0  0  0  0  0  0  0  0  0  0  0
  -31.8260  -15.0170   19.5170 O   0  0  0  0  0  0  0  0  0  0  0  0
  -25.3520  -13.9620   20.4200 C   0  0  0  0  0  0  0  0  0  0  0  0
  -24.2990  -13.1870   20.8230 C   0  0  0  0  0  0  0  0  0  0  0  0
  -24.7500  -11.8330   20.7440 C   0  0  0  0  0  0  0  0  0  0  0  0
  -26.3740  -13.0830   20.1110 N   0  0  0  0  0  0  0  0  0  0  0  0
  -26.0230  -11.7950   20.3680 N   0  0  0  0  0  0  0  0  0  0  0  0
  -24.0200  -10.5740   20.9430 C   0  0  0  0  0  0  0  0  0  0  0  0
  -24.4700   -9.5980   21.8590 C   0  0  0  0  0  3  0  0  0  0  0  0
  -23.7420   -8.4040   22.0490 C   0  0  0  0  0  3  0  0  0  0  0  0
  -22.5480   -8.1780   21.3210 C   0  0  0  0  0  0  0  0  0  0  0  0
  -22.1190   -9.1420   20.3910 C   0  0  0  0  0  3  0  0  0  0  0  0
  -22.8490  -10.3280   20.2020 C   0  0  0  0  0  3  0  0  0  0  0  0
  -21.7890   -7.0380   21.4210 O   0  0  0  0  0  0  0  0  0  0  0  0
  -21.7320   -6.3100   22.5840 C   0  0  0  0  0  0  0  0  0  0  0  0
  -21.3140   -6.8860   23.8030 C   0  0  0  0  0  3  0  0  0  0  0  0
  -21.2050   -6.0850   24.9580 C   0  0  0  0  0  3  0  0  0  0  0  0
  -21.5010   -4.7110   24.8930 C   0  0  0  0  0  0  0  0  0  0  0  0
  -21.9110   -4.1350   23.6790 C   0  0  0  0  0  3  0  0  0  0  0  0
  -22.0240   -4.9330   22.5270 C   0  0  0  0  0  0  0  0  0  0  0  0
  -22.4000   -4.3690   21.3540 F   0  0  0  0  0  0  0  0  0  0  0  0
  -21.3880   -3.9400   26.0000 F   0  0  0  0  0  0  0  0  0  0  0  0
  -22.9220  -13.6710   21.1730 C   0  0  0  0  0  0  0  0  0  0  0  0
  -22.2380  -12.9720   22.0720 N   0  0  0  0  0  0  0  0  0  0  0  0
  -22.4660  -14.7040   20.6860 O   0  0  0  0  0  0  0  0  0  0  0  0
  -22.6250  -12.1350   22.4850 H   0  0  0  0  0  0  0  0  0  0  0  0
  -21.3160  -13.2730   22.3500 H   0  0  0  0  0  0  0  0  0  0  0  0
  -25.5160  -15.3350   20.2650 N   0  0  0  0  0  0  0  0  0  0  0  0
  -24.7620  -15.9910   20.4310 H   0  0  0  0  0  0  0  0  0  0  0  0
  -26.3610  -15.7780   19.9270 H   0  0  0  0  0  0  0  0  0  0  0  0
  1  3  2  0
  2  1  1  0
  4  1  1  0
  4  5  1  0
  6 17  2  0
  7  5  1  0
  7 12  1  0
  8 16  1  0
  8 18  1  0
  9 15  1  0
  9 11  1  0
 10 16  1  0
 11 12  2  0
 11 10  1  0
 13  7  2  0
 14 13  1  0
 14  9  2  0
 15  8  1  0
 16  6  1  0
 18 20  2  0
 19 18  1  0
 21 19  1  0
 22 31  2  0
 22 27  1  0
 23 19  1  0
 23 27  1  0
 24 23  1  0
 25 26  1  0
 25 24  1  0
 26 22  1  0
 27 28  2  0
 28 29  1  0
 30 29  2  0
 31 30  1  0
 32  6  1  0
 32 37  1  0
 32 33  1  0
 33 36  1  1
 33 34  1  0
 35 33  1  0
 37 40  1  0
 38 42  1  0
 38 37  1  0
 39 38  2  0
 42 41  1  0
 44 42  1  0
 44 45  1  0
 44 43  1  0
 46  3  1  0
 47 48  1  0
 47 49  1  0
 48 50  1  0
 49 51  1  0
 50 51  1  0
 50 53  1  0
 51 46  1  0
 53 52  2  0
 54 53  1  0
 55 60  1  0
 56 57  1  0
 56 55  1  0
 58 57  1  0
 58 65  1  0
 58 59  1  0
 60 54  1  0
 60 59  1  0
 61 54  2  0
 62 63  2  0
 63 82  1  0
 64 63  1  0
 64 67  1  0
 65 66  1  0
 65 62  1  0
 66 64  2  0
 67 68  1  0
 68 69  2  0
 70 73  1  0
 70 69  1  0
 71 70  2  0
 72 71  1  0
 72 67  2  0
 73 74  1  0
 74 75  1  0
 75 76  2  0
 77 76  1  0
 77 81  1  0
 78 77  2  0
 79 74  2  0
 79 78  1  0
 80 79  1  0
 82 83  1  0
 83 86  1  0
 83 85  1  0
 84 82  2  0
 87 62  1  0
 87 88  1  0
 89 87  1  0
M  ISO  4   4 101   5 101  53 100  54 100
M  END
>  <TORSDO>  (61) 
F 20

>  <SCORE>  (61) 
-14.165

>  <name>  (61) 
60

>  <ligand_id>  (61) 
60

>  <original_smiles>  (61) 
[H]C([H])=C(C(=O)N1C([H])([H])C([H])([H])C([H])([H])C([H])(n2nc(-c3c([H])c([H])c(Oc4c([H])c([H])c(F)c([H])c4F)c([H])c3[H])c(C(=O)N([H])[H])c2N([H])[H])C1([H])[H])C1([H])C([H])([H])C([H])([H])C([H])([H])C1([H])C([H])([H])N=C(C([H])([H])[H])C([H])([H])Oc1c([H])c([H])c2c(c1[H])C([H])([H])N(C(=O)C([H])(N([H])C(=O)C([H])(N([H])C([H])([H])[H])C([H])([H])[H])C(C([H])([H])[H])(C([H])([H])[H])C([H])([H])[H])C([H])(C(=O)N([H])C1([H])c3c([H])c([H])c([H])c([H])c3C([H])([H])C([H])([H])C1([H])[H])C2([H])[H]

>  <smiles>  (61) 
[H]C([H])=C(C(=O)N1C([H])([H])C([H])([H])C([H])([H])C([H])(n2nc(-c3c([H])c([H])c(Oc4c([H])c([H])c(F)c([H])c4F)c([H])c3[H])c(C(=O)N([H])[H])c2N([H])[H])C1([H])[H])C1([H])C([H])([H])C([H])([H])C([H])([H])C1([H])C([H])([H])N=C(C([H])([H])[H])C([H])([H])Oc1c([H])c([H])c2c(c1[H])C([H])([H])N(C(=O)C([H])(N([H])C(=O)C([H])(N([H])C([H])([H])[H])C([H])([H])[H])C(C([H])([H])[H])(C([H])([H])[H])C([H])([H])[H])C([H])(C(=O)N([H])C1([H])c3c([H])c([H])c([H])c([H])c3C([H])([H])C([H])([H])C1([H])[H])C2([H])[H]

$$$$
61:0:0
     RDKit          3D

 87 94  0  0  1  0  0  0  0  0999 V2000
  -29.0120  -21.3530   20.6940 C   0  0  0  0  0  3  0  0  0  0  0  0
  -28.6180  -21.2920   22.1580 C   0  0  0  0  0  1  0  0  0  0  0  0
  -29.4050  -20.1370   20.1000 N   0  0  0  0  0  2  0  0  0  0  0  0
  -29.0110  -23.0470   20.1510 C   0  0  0  0  0  3  0  0  0  0  0  0
  -28.0190  -24.4930   20.4920 C   0  0  0  0  0  3  0  0  0  0  0  0
  -28.2050  -26.0960   20.1840 O   0  0  0  0  0  0  0  0  0  0  0  0
  -24.6440  -31.9760   23.2110 C   0  0  0  0  0  0  0  0  0  0  0  0
  -27.1620  -27.1530   20.1520 C   0  0  0  0  0  0  0  0  0  0  0  0
  -23.4240  -30.5870   21.5860 C   0  0  0  0  0  3  0  0  0  0  0  0
  -24.8530  -29.0090   20.1230 C   0  0  0  0  0  0  0  0  0  0  0  0
  -25.9810  -30.8330   21.3760 C   0  0  0  0  0  2  0  0  0  0  0  0
  -26.0480  -29.4240   20.7250 C   0  0  0  0  0  0  0  0  0  0  0  0
  -27.1980  -28.5200   20.7090 C   0  0  0  0  0  3  0  0  0  0  0  0
  -25.9360  -26.8810   19.5010 C   0  0  0  0  0  3  0  0  0  0  0  0
  -24.8210  -27.7590   19.4870 C   0  0  0  0  0  3  0  0  0  0  0  0
  -23.6270  -29.9200   20.1970 C   0  0  0  0  0  2  0  0  0  0  0  0
  -24.7070  -31.1590   22.1140 N   0  0  0  0  0  0  0  0  0  0  0  0
  -23.5650  -32.2500   23.7650 O   0  0  0  0  0  0  0  0  0  0  0  0
  -22.7660  -29.5710   22.5560 C   0  0  0  0  0  0  0  0  0  0  0  0
  -21.4420  -29.3620   22.4380 N   0  0  0  0  0  0  0  0  0  0  0  0
  -23.4530  -28.9660   23.3800 O   0  0  0  0  0  0  0  0  0  0  0  0
  -20.9380  -29.9070   21.7530 H   0  0  0  0  0  0  0  0  0  0  0  0
  -18.1070  -28.0220   22.9340 C   0  0  0  0  0  0  0  0  0  0  0  0
  -20.6510  -28.4020   23.2170 C   0  0  0  0  0  3  0  0  0  0  0  0
  -20.8150  -26.9640   22.6710 C   0  0  0  0  0  2  0  0  0  0  0  0
  -19.7390  -26.5790   21.6510 C   0  0  0  0  0  2  0  0  0  0  0  0
  -18.3460  -26.6720   22.2800 C   0  0  0  0  0  2  0  0  0  0  0  0
  -19.1870  -28.8400   23.3600 C   0  0  0  0  0  0  0  0  0  0  0  0
  -18.9040  -30.0990   23.9340 C   0  0  0  0  0  3  0  0  0  0  0  0
  -17.5760  -30.5430   24.0810 C   0  0  0  0  0  3  0  0  0  0  0  0
  -16.5100  -29.7240   23.6670 C   0  0  0  0  0  3  0  0  0  0  0  0
  -16.7780  -28.4660   23.1000 C   0  0  0  0  0  3  0  0  0  0  0  0
  -25.9250  -32.6260   23.8170 C   0  0  0  0  0  3  0  0  0  0  0  0
  -25.6110  -34.0240   24.1550 N   0  0  0  0  0  0  0  0  0  0  0  0
  -25.9300  -35.0850   23.4020 C   0  0  0  0  0  0  0  0  0  0  0  0
  -26.5860  -34.9910   22.3620 O   0  0  0  0  0  0  0  0  0  0  0  0
  -25.0230  -34.1700   24.9630 H   0  0  0  0  0  0  0  0  0  0  0  0
  -24.2080  -36.8960   23.0830 C   0  0  0  0  0  1  0  0  0  0  0  0
  -25.4510  -36.4720   23.8810 C   0  0  0  0  0  3  0  0  0  0  0  0
  -27.5880  -37.3520   24.7130 C   0  0  0  0  0  1  0  0  0  0  0  0
  -26.4840  -37.5240   23.7730 N   0  0  0  0  0  0  0  0  0  0  0  0
  -26.0790  -38.4430   23.9290 H   0  0  0  0  0  0  0  0  0  0  0  0
  -26.4570  -31.8640   25.0930 C   0  0  1  0  0  0  0  0  0  0  0  0
  -25.3760  -31.6250   26.1750 C   0  0  0  0  0  1  0  0  0  0  0  0
  -27.0380  -30.4860   24.7050 C   0  0  0  0  0  1  0  0  0  0  0  0
  -27.6110  -32.6720   25.7340 C   0  0  0  0  0  1  0  0  0  0  0  0
  -29.9650  -18.6970   20.7350 C   0  0  0  0  0  3  0  0  0  0  0  0
  -31.8210  -18.8920   22.5740 C   0  0  0  0  0  1  0  0  0  0  0  0
  -32.1790  -20.1360   20.4690 C   0  0  0  0  0  1  0  0  0  0  0  0
  -31.5010  -18.8870   21.0640 C   0  0  0  0  0  3  0  0  0  0  0  0
  -29.7320  -17.0040   20.1680 C   0  0  0  0  0  2  0  0  0  0  0  0
  -30.5180  -15.4400   20.0260 C   0  0  0  0  0  0  0  0  0  0  0  0
  -30.4530  -13.0160   19.1170 C   0  0  0  0  0  2  0  0  0  0  0  0
  -29.4970  -12.8660   17.9050 C   0  0  0  0  0  2  0  0  0  0  0  0
  -28.0640  -12.5770   18.3840 C   0  0  0  0  0  2  0  0  0  0  0  0
  -27.6450  -13.5210   19.5370 C   0  0  0  0  0  3  0  0  0  0  0  0
  -28.7220  -13.6440   20.6350 C   0  0  0  0  0  2  0  0  0  0  0  0
  -29.9570  -14.1340   19.9990 N   0  0  0  0  0  0  0  0  0  0  0  0
  -31.7260  -15.4260   19.7390 O   0  0  0  0  0  0  0  0  0  0  0  0
  -25.2880  -14.0360   20.3580 C   0  0  0  0  0  0  0  0  0  0  0  0
  -24.2470  -13.2370   20.7530 C   0  0  0  0  0  0  0  0  0  0  0  0
  -24.7370  -11.8980   20.7020 C   0  0  0  0  0  0  0  0  0  0  0  0
  -26.3350  -13.1810   20.0790 N   0  0  0  0  0  0  0  0  0  0  0  0
  -26.0200  -11.8870   20.3540 N   0  0  0  0  0  0  0  0  0  0  0  0
  -24.0350  -10.6210   20.9100 C   0  0  0  0  0  0  0  0  0  0  0  0
  -24.4800   -9.6770   21.8630 C   0  0  0  0  0  3  0  0  0  0  0  0
  -23.7750   -8.4700   22.0570 C   0  0  0  0  0  3  0  0  0  0  0  0
  -22.6100   -8.1960   21.3010 C   0  0  0  0  0  0  0  0  0  0  0  0
  -22.1820   -9.1300   20.3430 C   0  0  0  0  0  3  0  0  0  0  0  0
  -22.8860  -10.3300   20.1460 C   0  0  0  0  0  3  0  0  0  0  0  0
  -21.8760   -7.0390   21.4060 O   0  0  0  0  0  0  0  0  0  0  0  0
  -21.8080   -6.3340   22.5810 C   0  0  0  0  0  0  0  0  0  0  0  0
  -21.3040   -6.9120   23.7660 C   0  0  0  0  0  3  0  0  0  0  0  0
  -21.1870   -6.1330   24.9330 C   0  0  0  0  0  3  0  0  0  0  0  0
  -21.5610   -4.7760   24.9160 C   0  0  0  0  0  0  0  0  0  0  0  0
  -22.0570   -4.1980   23.7360 C   0  0  0  0  0  3  0  0  0  0  0  0
  -22.1780   -4.9750   22.5700 C   0  0  0  0  0  0  0  0  0  0  0  0
  -22.6380   -4.4080   21.4280 F   0  0  0  0  0  0  0  0  0  0  0  0
  -21.4410   -4.0240   26.0340 F   0  0  0  0  0  0  0  0  0  0  0  0
  -22.8510  -13.6930   21.0580 C   0  0  0  0  0  0  0  0  0  0  0  0
  -22.1580  -12.9810   21.9420 N   0  0  0  0  0  0  0  0  0  0  0  0
  -22.3850  -14.7130   20.5540 O   0  0  0  0  0  0  0  0  0  0  0  0
  -22.5520  -12.1550   22.3680 H   0  0  0  0  0  0  0  0  0  0  0  0
  -21.2200  -13.2580   22.1930 H   0  0  0  0  0  0  0  0  0  0  0  0
  -25.4270  -15.4060   20.1780 N   0  0  0  0  0  0  0  0  0  0  0  0
  -24.6660  -16.0590   20.3240 H   0  0  0  0  0  0  0  0  0  0  0  0
  -26.2720  -15.8500   19.8390 H   0  0  0  0  0  0  0  0  0  0  0  0
  1  2  1  0
  3  1  1  0
  3 47  1  0
  4  5  2  0
  4  1  1  0
  6  5  1  0
  7 18  2  0
  8  6  1  0
  8 13  1  0
  9 17  1  0
  9 19  1  0
 10 16  1  0
 10 12  1  0
 11 17  1  0
 12 11  1  0
 13 12  2  0
 14  8  2  0
 15 14  1  0
 15 10  2  0
 16  9  1  0
 17  7  1  0
 19 21  2  0
 20 19  1  0
 22 20  1  0
 23 32  2  0
 23 28  1  0
 24 20  1  0
 24 28  1  0
 25 24  1  0
 26 27  1  0
 26 25  1  0
 27 23  1  0
 28 29  2  0
 29 30  1  0
 31 30  2  0
 32 31  1  0
 33  7  1  0
 33 34  1  0
 33 43  1  0
 34 37  1  0
 35 39  1  0
 35 34  1  0
 36 35  2  0
 39 38  1  0
 41 39  1  0
 41 42  1  0
 41 40  1  0
 43 46  1  1
 43 44  1  0
 45 43  1  0
 47 51  1  0
 47 50  1  0
 49 50  1  0
 50 48  1  0
 52 51  1  0
 53 58  1  0
 54 55  1  0
 54 53  1  0
 56 55  1  0
 56 63  1  0
 56 57  1  0
 58 52  1  0
 58 57  1  0
 59 52  2  0
 60 61  2  0
 61 80  1  0
 62 61  1  0
 62 65  1  0
 63 64  1  0
 63 60  1  0
 64 62  2  0
 65 66  1  0
 66 67  2  0
 68 71  1  0
 68 67  1  0
 69 68  2  0
 70 69  1  0
 70 65  2  0
 71 72  1  0
 72 73  1  0
 73 74  2  0
 75 74  1  0
 75 79  1  0
 76 75  2  0
 77 72  2  0
 77 76  1  0
 78 77  1  0
 80 81  1  0
 81 84  1  0
 81 83  1  0
 82 80  2  0
 85 86  1  0
 85 60  1  0
 87 85  1  0
M  ISO  4   5 101   6 101  51 100  52 100
M  END
>  <TORSDO>  (62) 
F 21

>  <SCORE>  (62) 
-14.536

>  <name>  (62) 
61

>  <ligand_id>  (62) 
61

>  <original_smiles>  (62) 
[H]c1c([H])c([H])c2c(c1[H])C([H])([H])C([H])([H])C([H])([H])C2([H])N([H])C(=O)C1([H])N(C(=O)C([H])(N([H])C(=O)C([H])(N([H])C([H])([H])[H])C([H])([H])[H])C(C([H])([H])[H])(C([H])([H])[H])C([H])([H])[H])C([H])([H])c2c([H])c(OC([H])([H])C([H])([H])C(=NC([H])(C([H])([H])C(=O)N3C([H])([H])C([H])([H])C([H])([H])C([H])(n4nc(-c5c([H])c([H])c(Oc6c([H])c([H])c(F)c([H])c6F)c([H])c5[H])c(C(=O)N([H])[H])c4N([H])[H])C3([H])[H])C([H])(C([H])([H])[H])C([H])([H])[H])C([H])([H])[H])c([H])c([H])c2C1([H])[H]

>  <smiles>  (62) 
[H]c1c([H])c([H])c2c(c1[H])C([H])([H])C([H])([H])C([H])([H])C2([H])N([H])C(=O)C1([H])N(C(=O)C([H])(N([H])C(=O)C([H])(N([H])C([H])([H])[H])C([H])([H])[H])C(C([H])([H])[H])(C([H])([H])[H])C([H])([H])[H])C([H])([H])c2c([H])c(OC([H])([H])C([H])([H])C(=NC([H])(C([H])([H])C(=O)N3C([H])([H])C([H])([H])C([H])([H])C([H])(n4nc(-c5c([H])c([H])c(Oc6c([H])c([H])c(F)c([H])c6F)c([H])c5[H])c(C(=O)N([H])[H])c4N([H])[H])C3([H])[H])C([H])(C([H])([H])[H])C([H])([H])[H])C([H])([H])[H])c([H])c([H])c2C1([H])[H]

$$$$
62:0:0
     RDKit          3D

 88 96  0  0  1  0  0  0  0  0999 V2000
  -28.6190  -20.9650   19.6170 C   0  0  0  0  0  0  0  0  0  0  0  0
  -29.5290  -19.6770   19.6960 C   0  0  0  0  0  0  0  0  0  0  0  0
  -28.5830  -22.3690   19.6950 C   0  0  0  0  0  3  0  0  0  0  0  0
  -27.2120  -20.3710   19.7260 C   0  0  0  0  0  2  0  0  0  0  0  0
  -28.6560  -18.5270   20.1780 C   0  0  0  0  0  2  0  0  0  0  0  0
  -27.3090  -19.1070   20.5560 C   0  0  0  0  0  2  0  0  0  0  0  0
  -30.7420  -19.3730   19.3070 N   0  0  0  0  0  0  0  0  0  0  0  0
  -29.3950  -23.7220   19.8970 C   0  0  0  0  0  2  0  0  0  0  0  0
  -28.4390  -24.9940   20.3230 C   0  0  0  0  0  2  0  0  0  0  0  0
  -28.7130  -26.4850   20.2060 O   0  0  0  0  0  0  0  0  0  0  0  0
  -24.5610  -31.7030   23.1750 C   0  0  0  0  0  0  0  0  0  0  0  0
  -27.5920  -27.3540   20.1340 C   0  0  0  0  0  0  0  0  0  0  0  0
  -23.5320  -30.2800   21.4420 C   0  0  0  0  0  3  0  0  0  0  0  0
  -25.1480  -28.8710   20.0400 C   0  0  0  0  0  0  0  0  0  0  0  0
  -26.0590  -30.7480   21.3990 C   0  0  0  0  0  2  0  0  0  0  0  0
  -26.2570  -29.3930   20.7180 C   0  0  0  0  0  0  0  0  0  0  0  0
  -27.4840  -28.6460   20.7570 C   0  0  0  0  0  3  0  0  0  0  0  0
  -26.4650  -26.9240   19.4000 C   0  0  0  0  0  3  0  0  0  0  0  0
  -25.2580  -27.6460   19.3680 C   0  0  0  0  0  3  0  0  0  0  0  0
  -23.8580  -29.6680   20.0530 C   0  0  0  0  0  2  0  0  0  0  0  0
  -24.7320  -30.9300   22.0620 N   0  0  0  0  0  0  0  0  0  0  0  0
  -23.4380  -31.8950   23.6620 O   0  0  0  0  0  0  0  0  0  0  0  0
  -22.8930  -29.1930   22.3400 C   0  0  0  0  0  0  0  0  0  0  0  0
  -21.5790  -28.9610   22.1720 N   0  0  0  0  0  0  0  0  0  0  0  0
  -23.5800  -28.5640   23.1490 O   0  0  0  0  0  0  0  0  0  0  0  0
  -21.0790  -29.5280   21.5000 H   0  0  0  0  0  0  0  0  0  0  0  0
  -18.2370  -27.6400   22.5920 C   0  0  0  0  0  0  0  0  0  0  0  0
  -20.7880  -27.9540   22.8810 C   0  0  0  0  0  3  0  0  0  0  0  0
  -20.9290  -26.5630   22.2190 C   0  0  0  0  0  2  0  0  0  0  0  0
  -19.8380  -26.2720   21.1860 C   0  0  0  0  0  2  0  0  0  0  0  0
  -18.4510  -26.3430   21.8290 C   0  0  0  0  0  2  0  0  0  0  0  0
  -19.3350  -28.4050   23.0710 C   0  0  0  0  0  0  0  0  0  0  0  0
  -19.0810  -29.6200   23.7430 C   0  0  0  0  0  3  0  0  0  0  0  0
  -17.7630  -30.0710   23.9420 C   0  0  0  0  0  3  0  0  0  0  0  0
  -16.6800  -29.3040   23.4800 C   0  0  0  0  0  3  0  0  0  0  0  0
  -16.9180  -28.0900   22.8100 C   0  0  0  0  0  3  0  0  0  0  0  0
  -25.7670  -32.4010   23.8740 C   0  0  0  0  0  3  0  0  0  0  0  0
  -26.2120  -31.6800   25.2060 C   0  0  1  0  0  0  0  0  0  0  0  0
  -25.0450  -31.3960   26.1800 C   0  0  0  0  0  1  0  0  0  0  0  0
  -26.9050  -30.3330   24.8950 C   0  0  0  0  0  1  0  0  0  0  0  0
  -27.2520  -32.5500   25.9500 C   0  0  0  0  0  1  0  0  0  0  0  0
  -25.3770  -33.7930   24.1490 N   0  0  0  0  0  0  0  0  0  0  0  0
  -25.7350  -34.8460   23.4040 C   0  0  0  0  0  0  0  0  0  0  0  0
  -26.4970  -34.7530   22.4380 O   0  0  0  0  0  0  0  0  0  0  0  0
  -24.7110  -33.9350   24.8930 H   0  0  0  0  0  0  0  0  0  0  0  0
  -23.9860  -36.5730   22.8630 C   0  0  0  0  0  1  0  0  0  0  0  0
  -25.1590  -36.2230   23.7920 C   0  0  0  0  0  3  0  0  0  0  0  0
  -27.1720  -37.2000   24.8050 C   0  0  0  0  0  1  0  0  0  0  0  0
  -26.1600  -37.3110   23.7560 N   0  0  0  0  0  0  0  0  0  0  0  0
  -25.7110  -38.2180   23.8460 H   0  0  0  0  0  0  0  0  0  0  0  0
  -31.4450  -18.0090   19.5520 C   0  0  0  0  0  3  0  0  0  0  0  0
  -30.7300  -16.5500   19.3570 C   0  0  0  0  0  3  0  0  0  0  0  0
  -31.5730  -15.1590   19.3630 C   0  0  0  0  0  0  0  0  0  0  0  0
  -31.3000  -12.7520   18.7270 C   0  0  0  0  0  2  0  0  0  0  0  0
  -30.2610  -12.6840   17.5830 C   0  0  0  0  0  2  0  0  0  0  0  0
  -28.8280  -12.6090   18.1460 C   0  0  0  0  0  2  0  0  0  0  0  0
  -28.5730  -13.6640   19.2530 C   0  0  0  0  0  3  0  0  0  0  0  0
  -29.7180  -13.6950   20.2850 C   0  0  0  0  0  2  0  0  0  0  0  0
  -30.9700  -13.9330   19.5600 N   0  0  0  0  0  0  0  0  0  0  0  0
  -32.7450  -15.1800   18.9730 O   0  0  0  0  0  0  0  0  0  0  0  0
  -26.4030  -14.4590   20.3640 C   0  0  0  0  0  0  0  0  0  0  0  0
  -25.2910  -13.7890   20.7910 C   0  0  0  0  0  0  0  0  0  0  0  0
  -25.5510  -12.4040   20.5550 C   0  0  0  0  0  0  0  0  0  0  0  0
  -27.2730  -13.4910   19.8920 N   0  0  0  0  0  0  0  0  0  0  0  0
  -26.7760  -12.2400   20.0710 N   0  0  0  0  0  0  0  0  0  0  0  0
  -24.6810  -11.2300   20.7070 C   0  0  0  0  0  0  0  0  0  0  0  0
  -25.0090  -10.1760   21.5890 C   0  0  0  0  0  3  0  0  0  0  0  0
  -24.1470   -9.0670   21.7310 C   0  0  0  0  0  3  0  0  0  0  0  0
  -22.9430   -9.0050   20.9900 C   0  0  0  0  0  0  0  0  0  0  0  0
  -22.6330  -10.0450   20.0950 C   0  0  0  0  0  3  0  0  0  0  0  0
  -23.4950  -11.1450   19.9510 C   0  0  0  0  0  3  0  0  0  0  0  0
  -22.0570   -7.9550   21.0450 O   0  0  0  0  0  0  0  0  0  0  0  0
  -21.8240   -7.2700   22.2100 C   0  0  0  0  0  0  0  0  0  0  0  0
  -21.3290   -7.9100   23.3660 C   0  0  0  0  0  3  0  0  0  0  0  0
  -21.0390   -7.1550   24.5200 C   0  0  0  0  0  3  0  0  0  0  0  0
  -21.2340   -5.7600   24.5170 C   0  0  0  0  0  0  0  0  0  0  0  0
  -21.7200   -5.1190   23.3640 C   0  0  0  0  0  3  0  0  0  0  0  0
  -22.0140   -5.8720   22.2130 C   0  0  0  0  0  0  0  0  0  0  0  0
  -22.4620   -5.2470   21.0970 F   0  0  0  0  0  0  0  0  0  0  0  0
  -20.9480   -5.0330   25.6220 F   0  0  0  0  0  0  0  0  0  0  0  0
  -24.0170  -14.4020   21.2950 C   0  0  0  0  0  0  0  0  0  0  0  0
  -23.3210  -13.7170   22.1950 N   0  0  0  0  0  0  0  0  0  0  0  0
  -23.6560  -15.5190   20.9260 O   0  0  0  0  0  0  0  0  0  0  0  0
  -23.6290  -12.8100   22.5120 H   0  0  0  0  0  0  0  0  0  0  0  0
  -22.4700  -14.1070   22.5760 H   0  0  0  0  0  0  0  0  0  0  0  0
  -26.7450  -15.8080   20.3120 N   0  0  0  0  0  0  0  0  0  0  0  0
  -26.1010  -16.5420   20.5870 H   0  0  0  0  0  0  0  0  0  0  0  0
  -27.6020  -16.1640   19.9100 H   0  0  0  0  0  0  0  0  0  0  0  0
  1  3  2  0
  1  2  1  0
  1  4  1  0
  2  5  1  0
  3  8  1  0
  4  6  1  0
  5  6  1  0
  7 51  1  0
  7  2  2  0
  8  9  1  0
 10  9  1  0
 11 22  2  0
 12 10  1  0
 12 17  1  0
 13 21  1  0
 13 23  1  0
 14 20  1  0
 14 16  1  0
 15 21  1  0
 16 17  2  0
 16 15  1  0
 18 12  2  0
 19 18  1  0
 19 14  2  0
 20 13  1  0
 21 11  1  0
 23 25  2  0
 24 23  1  0
 26 24  1  0
 27 36  2  0
 27 32  1  0
 28 24  1  0
 28 32  1  0
 29 28  1  0
 30 31  1  0
 30 29  1  0
 31 27  1  0
 32 33  2  0
 33 34  1  0
 35 34  2  0
 36 35  1  0
 37 11  1  0
 37 42  1  0
 37 38  1  0
 38 41  1  1
 38 39  1  0
 40 38  1  0
 42 45  1  0
 43 47  1  0
 43 42  1  0
 44 43  2  0
 47 46  1  0
 49 47  1  0
 49 50  1  0
 49 48  1  0
 52 53  1  0
 52 51  2  0
 53 59  1  0
 54 59  1  0
 55 56  1  0
 55 54  1  0
 57 56  1  0
 57 64  1  0
 57 58  1  0
 59 58  1  0
 60 53  2  0
 61 62  2  0
 62 81  1  0
 63 66  1  0
 63 62  1  0
 64 65  1  0
 64 61  1  0
 65 63  2  0
 66 67  1  0
 67 68  2  0
 69 72  1  0
 69 68  1  0
 70 69  2  0
 71 70  1  0
 71 66  2  0
 72 73  1  0
 73 78  2  0
 73 74  1  0
 74 75  2  0
 76 75  1  0
 76 80  1  0
 77 76  2  0
 78 77  1  0
 79 78  1  0
 81 82  1  0
 82 84  1  0
 82 85  1  0
 83 81  2  0
 86 61  1  0
 86 87  1  0
 88 86  1  0
M  ISO  4   9 101  10 101  52 100  53 100
M  END
>  <TORSDO>  (63) 
F 20

>  <SCORE>  (63) 
-10.828

>  <name>  (63) 
62

>  <ligand_id>  (63) 
62

>  <original_smiles>  (63) 
[H]C(=C1C(=NC([H])([H])C([H])([H])C(=O)N2C([H])([H])C([H])([H])C([H])([H])C([H])(n3nc(-c4c([H])c([H])c(Oc5c([H])c([H])c(F)c([H])c5F)c([H])c4[H])c(C(=O)N([H])[H])c3N([H])[H])C2([H])[H])C([H])([H])C([H])([H])C1([H])[H])C([H])([H])C([H])([H])Oc1c([H])c([H])c2c(c1[H])C([H])([H])N(C(=O)C([H])(N([H])C(=O)C([H])(N([H])C([H])([H])[H])C([H])([H])[H])C(C([H])([H])[H])(C([H])([H])[H])C([H])([H])[H])C([H])(C(=O)N([H])C1([H])c3c([H])c([H])c([H])c([H])c3C([H])([H])C([H])([H])C1([H])[H])C2([H])[H]

>  <smiles>  (63) 
[H]C(=C1C(=NC([H])([H])C([H])([H])C(=O)N2C([H])([H])C([H])([H])C([H])([H])C([H])(n3nc(-c4c([H])c([H])c(Oc5c([H])c([H])c(F)c([H])c5F)c([H])c4[H])c(C(=O)N([H])[H])c3N([H])[H])C2([H])[H])C([H])([H])C([H])([H])C1([H])[H])C([H])([H])C([H])([H])Oc1c([H])c([H])c2c(c1[H])C([H])([H])N(C(=O)C([H])(N([H])C(=O)C([H])(N([H])C([H])([H])[H])C([H])([H])[H])C(C([H])([H])[H])(C([H])([H])[H])C([H])([H])[H])C([H])(C(=O)N([H])C1([H])c3c([H])c([H])c([H])c([H])c3C([H])([H])C([H])([H])C1([H])[H])C2([H])[H]

$$$$
63:0:0
     RDKit          3D

 82 87  0  0  1  0  0  0  0  0999 V2000
  -28.1280  -24.4540   20.3210 O   0  0  0  0  0  1  0  0  0  0  0  0
  -24.7370  -31.7560   23.1310 C   0  0  0  0  0  0  0  0  0  0  0  0
  -27.2390  -26.0050   20.2720 C   0  0  0  0  0  0  0  0  0  0  0  0
  -23.5860  -30.3250   21.5080 C   0  0  0  0  0  3  0  0  0  0  0  0
  -25.0420  -28.5080   20.1700 C   0  0  0  0  0  0  0  0  0  0  0  0
  -26.1880  -30.2440   21.4910 C   0  0  0  0  0  2  0  0  0  0  0  0
  -26.2460  -28.7240   20.8480 C   0  0  0  0  0  0  0  0  0  0  0  0
  -27.2850  -27.5300   20.8470 C   0  0  0  0  0  3  0  0  0  0  0  0
  -25.9970  -26.1930   19.5290 C   0  0  0  0  0  3  0  0  0  0  0  0
  -25.0010  -27.2710   19.4840 C   0  0  0  0  0  3  0  0  0  0  0  0
  -23.8700  -29.5510   20.1740 C   0  0  0  0  0  2  0  0  0  0  0  0
  -24.8720  -30.8270   22.0960 N   0  0  0  0  0  0  0  0  0  0  0  0
  -23.6260  -32.0960   23.5880 O   0  0  0  0  0  0  0  0  0  0  0  0
  -22.7880  -29.4320   22.5020 C   0  0  0  0  0  0  0  0  0  0  0  0
  -21.4460  -29.3340   22.3770 N   0  0  0  0  0  0  0  0  0  0  0  0
  -23.4020  -28.8120   23.3720 O   0  0  0  0  0  0  0  0  0  0  0  0
  -20.9900  -29.8810   21.6610 H   0  0  0  0  0  0  0  0  0  0  0  0
  -18.0250  -28.1740   22.9170 C   0  0  0  0  0  0  0  0  0  0  0  0
  -20.5930  -28.4180   23.1550 C   0  0  0  0  0  3  0  0  0  0  0  0
  -20.6680  -26.9810   22.5850 C   0  0  0  0  0  2  0  0  0  0  0  0
  -19.5570  -26.6740   21.5760 C   0  0  0  0  0  2  0  0  0  0  0  0
  -18.1820  -26.8280   22.2290 C   0  0  0  0  0  2  0  0  0  0  0  0
  -19.1550  -28.9280   23.3350 C   0  0  0  0  0  0  0  0  0  0  0  0
  -18.9460  -30.1820   23.9500 C   0  0  0  0  0  3  0  0  0  0  0  0
  -17.6450  -30.6830   24.1430 C   0  0  0  0  0  3  0  0  0  0  0  0
  -16.5320  -29.9300   23.7320 C   0  0  0  0  0  3  0  0  0  0  0  0
  -16.7230  -28.6750   23.1260 C   0  0  0  0  0  3  0  0  0  0  0  0
  -25.9610  -32.4520   23.8090 C   0  0  0  0  0  3  0  0  0  0  0  0
  -25.6090  -33.8570   24.1380 N   0  0  0  0  0  0  0  0  0  0  0  0
  -25.9380  -34.9410   23.4200 C   0  0  0  0  0  0  0  0  0  0  0  0
  -26.6060  -34.8660   22.3870 O   0  0  0  0  0  0  0  0  0  0  0  0
  -25.0080  -33.9870   24.9390 H   0  0  0  0  0  0  0  0  0  0  0  0
  -24.1920  -36.7490   23.1530 C   0  0  0  0  0  1  0  0  0  0  0  0
  -25.4600  -36.3270   23.9160 C   0  0  0  0  0  3  0  0  0  0  0  0
  -27.6090  -37.2330   24.6990 C   0  0  0  0  0  1  0  0  0  0  0  0
  -26.4800  -37.3940   23.7880 N   0  0  0  0  0  0  0  0  0  0  0  0
  -26.0670  -38.3080   23.9530 H   0  0  0  0  0  0  0  0  0  0  0  0
  -26.4260  -31.7210   25.1320 C   0  0  1  0  0  0  0  0  0  0  0  0
  -25.2930  -31.5140   26.1660 C   0  0  0  0  0  1  0  0  0  0  0  0
  -27.0240  -30.3350   24.8220 C   0  0  0  0  0  1  0  0  0  0  0  0
  -27.5520  -32.5350   25.8130 C   0  0  0  0  0  1  0  0  0  0  0  0
  -29.0600  -20.1610   20.1840 C   0  0  0  0  0  2  0  0  0  0  0  0
  -30.2960  -21.0010   19.9020 C   0  0  0  0  0  2  0  0  0  0  0  0
  -29.3920  -22.1390   19.1790 C   0  0  0  0  0  2  0  0  0  0  0  0
  -28.1520  -22.2950   20.1260 C   0  0  0  0  0  1  0  0  0  0  0  0
  -29.0560  -18.5980   20.2290 N   0  0  0  0  0  1  0  0  0  0  0  0
  -29.8580  -16.8180   20.1490 C   0  0  0  0  0  2  0  0  0  0  0  0
  -30.2820  -13.9890   19.4580 C   0  0  0  0  0  2  0  0  0  0  0  0
  -29.5630  -13.1160   18.3380 C   0  0  0  0  0  2  0  0  0  0  0  0
  -28.2510  -12.5000   18.8210 C   0  0  0  0  0  2  0  0  0  0  0  0
  -27.5530  -13.5340   19.7110 C   0  0  0  0  0  3  0  0  0  0  0  0
  -28.4600  -14.2990   20.7550 C   0  0  0  0  0  2  0  0  0  0  0  0
  -29.4790  -15.2460   20.0920 N   0  0  0  0  0  0  0  0  0  0  0  0
  -31.0980  -16.5570   20.0390 O   0  0  0  0  0  1  0  0  0  0  0  0
  -25.1820  -13.9060   20.4580 C   0  0  0  0  0  0  0  0  0  0  0  0
  -24.1480  -13.0920   20.8110 C   0  0  0  0  0  0  0  0  0  0  0  0
  -24.6630  -11.7580   20.7900 C   0  0  0  0  0  0  0  0  0  0  0  0
  -26.2660  -13.0860   20.2410 N   0  0  0  0  0  0  0  0  0  0  0  0
  -25.9660  -11.7750   20.4910 N   0  0  0  0  0  0  0  0  0  0  0  0
  -23.9540  -10.4780   20.9800 C   0  0  0  0  0  0  0  0  0  0  0  0
  -24.3730   -9.5280   21.9380 C   0  0  0  0  0  3  0  0  0  0  0  0
  -23.6520   -8.3270   22.1230 C   0  0  0  0  0  3  0  0  0  0  0  0
  -22.4950   -8.0640   21.3520 C   0  0  0  0  0  0  0  0  0  0  0  0
  -22.0920   -9.0020   20.3850 C   0  0  0  0  0  3  0  0  0  0  0  0
  -22.8140  -10.1940   20.1990 C   0  0  0  0  0  3  0  0  0  0  0  0
  -21.7500   -6.9110   21.4420 O   0  0  0  0  0  0  0  0  0  0  0  0
  -21.6790   -6.1850   22.6050 C   0  0  0  0  0  0  0  0  0  0  0  0
  -21.2040   -6.7520   23.8080 C   0  0  0  0  0  3  0  0  0  0  0  0
  -21.0820   -5.9540   24.9630 C   0  0  0  0  0  3  0  0  0  0  0  0
  -21.4260   -4.5900   24.9170 C   0  0  0  0  0  0  0  0  0  0  0  0
  -21.8950   -4.0220   23.7180 C   0  0  0  0  0  3  0  0  0  0  0  0
  -22.0180   -4.8170   22.5660 C   0  0  0  0  0  0  0  0  0  0  0  0
  -22.4480   -4.2600   21.4080 F   0  0  0  0  0  0  0  0  0  0  0  0
  -21.3040   -3.8210   26.0230 F   0  0  0  0  0  0  0  0  0  0  0  0
  -22.7350  -13.5340   21.0480 C   0  0  0  0  0  0  0  0  0  0  0  0
  -22.0110  -12.8390   21.9160 N   0  0  0  0  0  0  0  0  0  0  0  0
  -22.2840  -14.5410   20.5020 O   0  0  0  0  0  0  0  0  0  0  0  0
  -22.3920  -12.0280   22.3800 H   0  0  0  0  0  0  0  0  0  0  0  0
  -21.0620  -13.1210   22.1190 H   0  0  0  0  0  0  0  0  0  0  0  0
  -25.2900  -15.2810   20.2660 N   0  0  0  0  0  0  0  0  0  0  0  0
  -24.4980  -15.9070   20.3630 H   0  0  0  0  0  0  0  0  0  0  0  0
  -26.1390  -15.7520   19.9770 H   0  0  0  0  0  0  0  0  0  0  0  0
  2 13  2  0
  3  1  1  0
  3  8  1  0
  4 12  1  0
  4 14  1  0
  5 11  1  0
  5  7  1  0
  6 12  1  0
  7  6  1  0
  8  7  2  0
  9  3  2  0
 10  9  1  0
 10  5  2  0
 11  4  1  0
 12  2  1  0
 14 16  2  0
 15 14  1  0
 17 15  1  0
 18 27  2  0
 18 23  1  0
 19 15  1  0
 19 23  1  0
 20 19  1  0
 21 22  1  0
 21 20  1  0
 22 18  1  0
 23 24  2  0
 24 25  1  0
 26 25  2  0
 27 26  1  0
 28  2  1  0
 28 29  1  0
 28 38  1  0
 29 32  1  0
 30 34  1  0
 30 29  1  0
 31 30  2  0
 34 33  1  0
 36 34  1  0
 36 37  1  0
 36 35  1  0
 38 41  1  1
 38 39  1  0
 40 38  1  0
 42 46  1  0
 43 42  1  0
 44 43  1  0
 44 45  1  0
 48 53  1  0
 49 50  1  0
 49 48  1  0
 51 50  1  0
 51 58  1  0
 51 52  1  0
 53 47  1  0
 53 52  1  0
 54 47  1  0
 55 56  2  0
 56 75  1  0
 57 56  1  0
 57 60  1  0
 58 55  1  0
 58 59  1  0
 59 57  2  0
 60 61  1  0
 61 62  2  0
 63 66  1  0
 63 62  1  0
 64 63  2  0
 65 64  1  0
 65 60  2  0
 66 67  1  0
 67 68  1  0
 68 69  2  0
 70 69  1  0
 70 74  1  0
 71 70  2  0
 72 67  2  0
 72 71  1  0
 73 72  1  0
 75 76  1  0
 76 79  1  0
 76 78  1  0
 77 75  2  0
 80 81  1  0
 80 55  1  0
 82 80  1  0
M  ISO  4   1 101  45 101  46 100  47 100
M  END
>  <TORSDO>  (64) 
F 16

>  <SCORE>  (64) 
-16.165

>  <name>  (64) 
63

>  <ligand_id>  (64) 
63

>  <original_smiles>  (64) 
[H]c1c([H])c([H])c2c(c1[H])C([H])([H])C([H])([H])C([H])([H])C2([H])N([H])C(=O)C1([H])N(C(=O)C([H])(N([H])C(=O)C([H])(N([H])C([H])([H])[H])C([H])([H])[H])C(C([H])([H])[H])(C([H])([H])[H])C([H])([H])[H])C([H])([H])c2c([H])c(OC3([H])C(=NC(=O)N4C([H])([H])C([H])([H])C([H])([H])C([H])(n5nc(-c6c([H])c([H])c(Oc7c([H])c([H])c(F)c([H])c7F)c([H])c6[H])c(C(=O)N([H])[H])c5N([H])[H])C4([H])[H])C([H])([H])C3([H])[H])c([H])c([H])c2C1([H])[H]

>  <smiles>  (64) 
[H]c1c([H])c([H])c2c(c1[H])C([H])([H])C([H])([H])C([H])([H])C2([H])N([H])C(=O)C1([H])N(C(=O)C([H])(N([H])C(=O)C([H])(N([H])C([H])([H])[H])C([H])([H])[H])C(C([H])([H])[H])(C([H])([H])[H])C([H])([H])[H])C([H])([H])c2c([H])c(OC3([H])C(=NC(=O)N4C([H])([H])C([H])([H])C([H])([H])C([H])(n5nc(-c6c([H])c([H])c(Oc7c([H])c([H])c(F)c([H])c7F)c([H])c6[H])c(C(=O)N([H])[H])c5N([H])[H])C4([H])[H])C([H])([H])C3([H])[H])c([H])c([H])c2C1([H])[H]

$$$$
64:0:0
     RDKit          3D

 83 90  0  0  1  0  0  0  0  0999 V2000
  -27.9860  -24.2950   19.8880 C   0  0  0  0  0  2  0  0  0  0  0  0
  -28.7030  -22.7820   20.4810 C   0  0  0  0  0  3  0  0  0  0  0  0
  -28.8030  -21.4590   19.9960 N   0  0  0  0  0  0  0  0  0  0  0  0
  -29.2390  -20.0270   20.7220 C   0  0  0  0  0  2  0  0  0  0  0  0
  -29.6540  -18.4350   20.0090 C   0  0  0  0  0  2  0  0  0  0  0  0
  -29.6590  -16.7690   20.6810 C   0  0  0  0  0  2  0  0  0  0  0  0
  -30.4210  -15.2480   20.2720 C   0  0  0  0  0  0  0  0  0  0  0  0
  -30.3990  -12.8030   19.3950 C   0  0  0  0  0  2  0  0  0  0  0  0
  -29.4820  -12.6440   18.1540 C   0  0  0  0  0  2  0  0  0  0  0  0
  -28.0260  -12.3890   18.5800 C   0  0  0  0  0  2  0  0  0  0  0  0
  -27.5830  -13.3420   19.7190 C   0  0  0  0  0  3  0  0  0  0  0  0
  -28.6260  -13.4500   20.8500 C   0  0  0  0  0  2  0  0  0  0  0  0
  -29.8790  -13.9320   20.2490 N   0  0  0  0  0  0  0  0  0  0  0  0
  -31.6130  -15.2620   19.9330 O   0  0  0  0  0  0  0  0  0  0  0  0
  -25.2050  -13.9100   20.4450 C   0  0  0  0  0  0  0  0  0  0  0  0
  -24.1410  -13.1370   20.8170 C   0  0  0  0  0  0  0  0  0  0  0  0
  -24.6080  -11.7870   20.8050 C   0  0  0  0  0  0  0  0  0  0  0  0
  -26.2500  -13.0320   20.2180 N   0  0  0  0  0  0  0  0  0  0  0  0
  -25.9020  -11.7500   20.5030 N   0  0  0  0  0  0  0  0  0  0  0  0
  -23.8790  -10.5270   21.0070 C   0  0  0  0  0  0  0  0  0  0  0  0
  -24.3150   -9.5600   21.9390 C   0  0  0  0  0  3  0  0  0  0  0  0
  -23.5840   -8.3670   22.1290 C   0  0  0  0  0  3  0  0  0  0  0  0
  -22.4030   -8.1330   21.3870 C   0  0  0  0  0  0  0  0  0  0  0  0
  -21.9850   -9.0870   20.4430 C   0  0  0  0  0  3  0  0  0  0  0  0
  -22.7160  -10.2720   20.2510 C   0  0  0  0  0  3  0  0  0  0  0  0
  -21.6430   -6.9920   21.4850 O   0  0  0  0  0  0  0  0  0  0  0  0
  -21.6170   -6.2410   22.6330 C   0  0  0  0  0  0  0  0  0  0  0  0
  -21.2420   -6.7940   23.8770 C   0  0  0  0  0  3  0  0  0  0  0  0
  -21.1620   -5.9710   25.0190 C   0  0  0  0  0  3  0  0  0  0  0  0
  -21.4470   -4.5970   24.9170 C   0  0  0  0  0  0  0  0  0  0  0  0
  -21.8150   -4.0430   23.6780 C   0  0  0  0  0  3  0  0  0  0  0  0
  -21.8960   -4.8630   22.5390 C   0  0  0  0  0  0  0  0  0  0  0  0
  -22.2310   -4.3200   21.3440 F   0  0  0  0  0  0  0  0  0  0  0  0
  -21.3630   -3.8040   26.0110 F   0  0  0  0  0  0  0  0  0  0  0  0
  -22.7410  -13.6180   21.0680 C   0  0  0  0  0  0  0  0  0  0  0  0
  -22.0060  -12.9370   21.9400 N   0  0  0  0  0  0  0  0  0  0  0  0
  -22.3080  -14.6340   20.5270 O   0  0  0  0  0  0  0  0  0  0  0  0
  -22.3700  -12.1150   22.4020 H   0  0  0  0  0  0  0  0  0  0  0  0
  -21.0670  -13.2420   22.1510 H   0  0  0  0  0  0  0  0  0  0  0  0
  -25.3680  -15.2790   20.2540 N   0  0  0  0  0  0  0  0  0  0  0  0
  -24.6020  -15.9350   20.3590 H   0  0  0  0  0  0  0  0  0  0  0  0
  -26.2210  -15.7160   19.9290 H   0  0  0  0  0  0  0  0  0  0  0  0
  -28.1910  -25.8720   20.2950 O   0  0  0  0  0  0  0  0  0  0  0  0
  -24.6430  -31.8410   23.1990 C   0  0  0  0  0  0  0  0  0  0  0  0
  -27.1880  -26.9680   20.1910 C   0  0  0  0  0  0  0  0  0  0  0  0
  -23.4410  -30.4360   21.5740 C   0  0  0  0  0  3  0  0  0  0  0  0
  -24.8850  -28.8320   20.1470 C   0  0  0  0  0  0  0  0  0  0  0  0
  -26.0050  -30.6530   21.4130 C   0  0  0  0  0  2  0  0  0  0  0  0
  -26.0730  -29.2430   20.7630 C   0  0  0  0  0  0  0  0  0  0  0  0
  -27.2170  -28.3280   20.7670 C   0  0  0  0  0  3  0  0  0  0  0  0
  -25.9750  -26.7110   19.5110 C   0  0  0  0  0  3  0  0  0  0  0  0
  -24.8590  -27.5860   19.5000 C   0  0  0  0  0  3  0  0  0  0  0  0
  -23.6630  -29.7480   20.1990 C   0  0  0  0  0  2  0  0  0  0  0  0
  -24.7180  -31.0040   22.1140 N   0  0  0  0  0  0  0  0  0  0  0  0
  -23.5570  -32.1320   23.7250 O   0  0  0  0  0  0  0  0  0  0  0  0
  -22.7540  -29.4430   22.5470 C   0  0  0  0  0  0  0  0  0  0  0  0
  -21.4230  -29.2800   22.4350 N   0  0  0  0  0  0  0  0  0  0  0  0
  -23.4260  -28.8190   23.3740 O   0  0  0  0  0  0  0  0  0  0  0  0
  -20.9340  -29.8330   21.7450 H   0  0  0  0  0  0  0  0  0  0  0  0
  -18.0450  -28.0690   22.9650 C   0  0  0  0  0  0  0  0  0  0  0  0
  -20.6050  -28.3470   23.2170 C   0  0  0  0  0  3  0  0  0  0  0  0
  -20.7100  -26.9100   22.6540 C   0  0  0  0  0  2  0  0  0  0  0  0
  -19.6050  -26.5750   21.6470 C   0  0  0  0  0  2  0  0  0  0  0  0
  -18.2250  -26.7160   22.2960 C   0  0  0  0  0  2  0  0  0  0  0  0
  -19.1620  -28.8410   23.3830 C   0  0  0  0  0  0  0  0  0  0  0  0
  -18.9370  -30.1040   23.9720 C   0  0  0  0  0  3  0  0  0  0  0  0
  -17.6300  -30.5960   24.1450 C   0  0  0  0  0  3  0  0  0  0  0  0
  -16.5280  -29.8220   23.7410 C   0  0  0  0  0  3  0  0  0  0  0  0
  -16.7360  -28.5600   23.1570 C   0  0  0  0  0  3  0  0  0  0  0  0
  -25.9170  -32.4880   23.8200 C   0  0  0  0  0  3  0  0  0  0  0  0
  -26.4410  -31.7210   25.0970 C   0  0  1  0  0  0  0  0  0  0  0  0
  -25.3530  -31.4830   26.1720 C   0  0  0  0  0  1  0  0  0  0  0  0
  -27.0250  -30.3420   24.7140 C   0  0  0  0  0  1  0  0  0  0  0  0
  -27.5940  -32.5170   25.7510 C   0  0  0  0  0  1  0  0  0  0  0  0
  -25.5950  -33.8830   24.1660 N   0  0  0  0  0  0  0  0  0  0  0  0
  -25.9090  -34.9520   23.4200 C   0  0  0  0  0  0  0  0  0  0  0  0
  -26.5620  -34.8660   22.3770 O   0  0  0  0  0  0  0  0  0  0  0  0
  -25.0110  -34.0230   24.9770 H   0  0  0  0  0  0  0  0  0  0  0  0
  -24.1560  -36.7380   23.1320 C   0  0  0  0  0  1  0  0  0  0  0  0
  -25.4220  -36.3330   23.9040 C   0  0  0  0  0  3  0  0  0  0  0  0
  -27.5720  -37.2310   24.6840 C   0  0  0  0  0  1  0  0  0  0  0  0
  -26.4430  -37.3970   23.7730 N   0  0  0  0  0  0  0  0  0  0  0  0
  -26.0330  -38.3120   23.9400 H   0  0  0  0  0  0  0  0  0  0  0  0
  1 43  1  0
  1  2  1  0
  3  2  2  0
  3  4  1  0
  5  6  1  0
  5  4  1  0
  7  6  1  0
  8 13  1  0
  9 10  1  0
  9  8  1  0
 11 10  1  0
 11 18  1  0
 11 12  1  0
 13  7  1  0
 13 12  1  0
 14  7  2  0
 15 16  2  0
 16 35  1  0
 17 16  1  0
 17 20  1  0
 18 15  1  0
 18 19  1  0
 19 17  2  0
 20 21  1  0
 21 22  2  0
 23 26  1  0
 23 22  1  0
 24 23  2  0
 25 24  1  0
 25 20  2  0
 26 27  1  0
 27 28  1  0
 28 29  2  0
 30 29  1  0
 30 34  1  0
 31 30  2  0
 32 27  2  0
 32 31  1  0
 33 32  1  0
 35 36  1  0
 36 39  1  0
 36 38  1  0
 37 35  2  0
 40 41  1  0
 40 15  1  0
 42 40  1  0
 44 55  2  0
 45 43  1  0
 45 50  1  0
 46 54  1  0
 46 56  1  0
 47 53  1  0
 47 49  1  0
 48 54  1  0
 49 50  2  0
 49 48  1  0
 51 45  2  0
 52 51  1  0
 52 47  2  0
 53 46  1  0
 54 44  1  0
 56 58  2  0
 57 56  1  0
 59 57  1  0
 60 69  2  0
 60 65  1  0
 61 57  1  0
 61 65  1  0
 62 61  1  0
 63 64  1  0
 63 62  1  0
 64 60  1  0
 65 66  2  0
 66 67  1  0
 68 67  2  0
 69 68  1  0
 70 44  1  0
 70 75  1  0
 70 71  1  0
 71 74  1  1
 71 72  1  0
 73 71  1  0
 75 78  1  0
 76 80  1  0
 76 75  1  0
 77 76  2  0
 80 79  1  0
 82 80  1  0
 82 83  1  0
 82 81  1  0
M  ISO  4   1 101   6 100   7 100  43 101
M  END
>  <TORSDO>  (65) 
F 20

>  <SCORE>  (65) 
-15.505

>  <name>  (65) 
64

>  <ligand_id>  (65) 
64

>  <original_smiles>  (65) 
[H]C(=NC([H])([H])C([H])([H])C([H])([H])C(=O)N1C([H])([H])C([H])([H])C([H])([H])C([H])(n2nc(-c3c([H])c([H])c(Oc4c([H])c([H])c(F)c([H])c4F)c([H])c3[H])c(C(=O)N([H])[H])c2N([H])[H])C1([H])[H])C([H])([H])Oc1c([H])c([H])c2c(c1[H])C([H])([H])N(C(=O)C([H])(N([H])C(=O)C([H])(N([H])C([H])([H])[H])C([H])([H])[H])C(C([H])([H])[H])(C([H])([H])[H])C([H])([H])[H])C([H])(C(=O)N([H])C1([H])c3c([H])c([H])c([H])c([H])c3C([H])([H])C([H])([H])C1([H])[H])C2([H])[H]

>  <smiles>  (65) 
[H]C(=NC([H])([H])C([H])([H])C([H])([H])C(=O)N1C([H])([H])C([H])([H])C([H])([H])C([H])(n2nc(-c3c([H])c([H])c(Oc4c([H])c([H])c(F)c([H])c4F)c([H])c3[H])c(C(=O)N([H])[H])c2N([H])[H])C1([H])[H])C([H])([H])Oc1c([H])c([H])c2c(c1[H])C([H])([H])N(C(=O)C([H])(N([H])C(=O)C([H])(N([H])C([H])([H])[H])C([H])([H])[H])C(C([H])([H])[H])(C([H])([H])[H])C([H])([H])[H])C([H])(C(=O)N([H])C1([H])c3c([H])c([H])c([H])c([H])c3C([H])([H])C([H])([H])C1([H])[H])C2([H])[H]

$$$$
65:0:0
     RDKit          3D

 91 98  0  0  1  0  0  0  0  0999 V2000
  -29.5030  -19.8490   19.9950 C   0  0  0  0  0  0  0  0  0  0  0  0
  -29.6790  -21.1520   20.4030 N   0  0  0  0  0  0  0  0  0  0  0  0
  -28.6580  -19.5920   19.1350 O   0  0  0  0  0  0  0  0  0  0  0  0
  -30.4240  -21.3450   21.0600 H   0  0  0  0  0  0  0  0  0  0  0  0
  -28.8190  -22.3190   19.9770 C   0  0  0  0  0  2  0  0  0  0  0  0
  -29.1940  -23.8150   20.4030 C   0  0  0  0  0  2  0  0  0  0  0  0
  -28.1410  -24.9220   19.9470 C   0  0  0  0  0  2  0  0  0  0  0  0
  -28.3510  -26.3750   20.1760 O   0  0  0  0  0  0  0  0  0  0  0  0
  -24.6440  -31.8140   23.1300 C   0  0  0  0  0  0  0  0  0  0  0  0
  -27.2340  -27.2290   20.0990 C   0  0  0  0  0  0  0  0  0  0  0  0
  -23.4280  -30.4010   21.5110 C   0  0  0  0  0  3  0  0  0  0  0  0
  -24.8680  -28.8430   20.0860 C   0  0  0  0  0  0  0  0  0  0  0  0
  -25.9660  -30.7190   21.3080 C   0  0  0  0  0  2  0  0  0  0  0  0
  -26.0400  -29.3370   20.6700 C   0  0  0  0  0  0  0  0  0  0  0  0
  -27.2260  -28.5410   20.6680 C   0  0  0  0  0  3  0  0  0  0  0  0
  -26.0370  -26.7980   19.4760 C   0  0  0  0  0  3  0  0  0  0  0  0
  -24.8690  -27.5810   19.4790 C   0  0  0  0  0  3  0  0  0  0  0  0
  -23.6310  -29.7160   20.1350 C   0  0  0  0  0  2  0  0  0  0  0  0
  -24.6980  -30.9960   22.0390 N   0  0  0  0  0  0  0  0  0  0  0  0
  -23.5640  -32.0980   23.6690 O   0  0  0  0  0  0  0  0  0  0  0  0
  -22.7710  -29.3940   22.4860 C   0  0  0  0  0  0  0  0  0  0  0  0
  -21.4530  -29.1800   22.3390 N   0  0  0  0  0  0  0  0  0  0  0  0
  -23.4490  -28.8060   23.3320 O   0  0  0  0  0  0  0  0  0  0  0  0
  -20.9620  -29.7090   21.6310 H   0  0  0  0  0  0  0  0  0  0  0  0
  -18.0970  -27.9120   22.7970 C   0  0  0  0  0  0  0  0  0  0  0  0
  -20.6400  -28.2460   23.1200 C   0  0  0  0  0  3  0  0  0  0  0  0
  -20.7920  -26.8010   22.5910 C   0  0  0  0  0  2  0  0  0  0  0  0
  -19.7250  -26.4190   21.5620 C   0  0  0  0  0  2  0  0  0  0  0  0
  -18.3240  -26.5470   22.1690 C   0  0  0  0  0  2  0  0  0  0  0  0
  -19.1840  -28.7160   23.2280 C   0  0  0  0  0  0  0  0  0  0  0  0
  -18.9180  -29.9910   23.7750 C   0  0  0  0  0  3  0  0  0  0  0  0
  -17.5970  -30.4620   23.8940 C   0  0  0  0  0  3  0  0  0  0  0  0
  -16.5230  -29.6550   23.4790 C   0  0  0  0  0  3  0  0  0  0  0  0
  -16.7750  -28.3820   22.9360 C   0  0  0  0  0  3  0  0  0  0  0  0
  -25.9330  -32.4510   23.7360 C   0  0  0  0  0  3  0  0  0  0  0  0
  -26.4940  -31.6530   24.9780 C   0  0  1  0  0  0  0  0  0  0  0  0
  -25.4300  -31.3580   26.0600 C   0  0  0  0  0  1  0  0  0  0  0  0
  -27.1010  -30.3020   24.5340 C   0  0  0  0  0  1  0  0  0  0  0  0
  -27.6400  -32.4540   25.6390 C   0  0  0  0  0  1  0  0  0  0  0  0
  -25.6090  -33.8340   24.1120 N   0  0  0  0  0  0  0  0  0  0  0  0
  -25.9060  -34.9130   23.3760 C   0  0  0  0  0  0  0  0  0  0  0  0
  -26.5500  -34.8490   22.3260 O   0  0  0  0  0  0  0  0  0  0  0  0
  -25.0320  -33.9550   24.9320 H   0  0  0  0  0  0  0  0  0  0  0  0
  -24.1480  -36.6940   23.1080 C   0  0  0  0  0  1  0  0  0  0  0  0
  -25.4070  -36.2790   23.8850 C   0  0  0  0  0  3  0  0  0  0  0  0
  -27.5380  -37.1720   24.7180 C   0  0  0  0  0  1  0  0  0  0  0  0
  -26.4230  -37.3500   23.7920 N   0  0  0  0  0  0  0  0  0  0  0  0
  -26.0060  -38.2590   23.9690 H   0  0  0  0  0  0  0  0  0  0  0  0
  -30.2750  -18.6390   20.6680 C   0  0  0  0  0  3  0  0  0  0  0  0
  -29.8620  -18.6000   22.0810 N   0  0  0  0  0  4  0  0  0  0  0  0
  -28.8800  -18.4020   22.1410 H   0  0  0  0  0  0  0  0  0  0  0  0
  -30.0220  -19.4980   22.5000 H   0  0  0  0  0  0  0  0  0  0  0  0
  -30.3770  -17.9130   22.6000 H   0  0  0  0  0  0  0  0  0  0  0  0
  -30.1010  -17.1890   19.9920 C   0  0  0  0  0  2  0  0  0  0  0  0
  -30.4620  -15.8770   20.8340 C   0  0  0  0  0  2  0  0  0  0  0  0
  -31.0060  -14.5980   20.0740 C   0  0  0  0  0  0  0  0  0  0  0  0
  -30.6640  -12.4060   18.9390 C   0  0  0  0  0  2  0  0  0  0  0  0
  -29.6880  -12.5920   17.7550 C   0  0  0  0  0  2  0  0  0  0  0  0
  -28.2250  -12.4650   18.2260 C   0  0  0  0  0  2  0  0  0  0  0  0
  -27.9360  -13.3010   19.5040 C   0  0  0  0  0  3  0  0  0  0  0  0
  -29.0250  -13.0850   20.5780 C   0  0  0  0  0  2  0  0  0  0  0  0
  -30.3250  -13.4090   19.9710 N   0  0  0  0  0  0  0  0  0  0  0  0
  -32.1030  -14.7220   19.5240 O   0  0  0  0  0  0  0  0  0  0  0  0
  -25.5740  -13.9370   20.2910 C   0  0  0  0  0  0  0  0  0  0  0  0
  -24.5060  -13.1810   20.6920 C   0  0  0  0  0  0  0  0  0  0  0  0
  -24.9420  -11.8210   20.6420 C   0  0  0  0  0  0  0  0  0  0  0  0
  -26.5950  -13.0390   20.0230 N   0  0  0  0  0  0  0  0  0  0  0  0
  -26.2210  -11.7610   20.2920 N   0  0  0  0  0  0  0  0  0  0  0  0
  -24.1970  -10.5720   20.8470 C   0  0  0  0  0  0  0  0  0  0  0  0
  -24.5850   -9.6350   21.8290 C   0  0  0  0  0  3  0  0  0  0  0  0
  -23.8420   -8.4510   22.0240 C   0  0  0  0  0  3  0  0  0  0  0  0
  -22.6950   -8.1970   21.2350 C   0  0  0  0  0  0  0  0  0  0  0  0
  -22.3250   -9.1210   20.2440 C   0  0  0  0  0  3  0  0  0  0  0  0
  -23.0690  -10.2970   20.0480 C   0  0  0  0  0  3  0  0  0  0  0  0
  -21.9270   -7.0620   21.3360 O   0  0  0  0  0  0  0  0  0  0  0  0
  -21.7610   -6.4070   22.5300 C   0  0  0  0  0  0  0  0  0  0  0  0
  -21.1780   -7.0370   23.6510 C   0  0  0  0  0  3  0  0  0  0  0  0
  -20.9650   -6.3050   24.8370 C   0  0  0  0  0  3  0  0  0  0  0  0
  -21.3220   -4.9460   24.9010 C   0  0  0  0  0  0  0  0  0  0  0  0
  -21.8970   -4.3160   23.7820 C   0  0  0  0  0  3  0  0  0  0  0  0
  -22.1120   -5.0440   22.6000 C   0  0  0  0  0  0  0  0  0  0  0  0
  -22.6470   -4.4260   21.5190 F   0  0  0  0  0  0  0  0  0  0  0  0
  -21.1110   -4.2410   26.0370 F   0  0  0  0  0  0  0  0  0  0  0  0
  -23.1270  -13.6810   21.0100 C   0  0  0  0  0  0  0  0  0  0  0  0
  -22.4170  -13.0000   21.9030 N   0  0  0  0  0  0  0  0  0  0  0  0
  -22.6890  -14.7140   20.5030 O   0  0  0  0  0  0  0  0  0  0  0  0
  -22.7840  -12.1660   22.3370 H   0  0  0  0  0  0  0  0  0  0  0  0
  -21.4920  -13.3160   22.1560 H   0  0  0  0  0  0  0  0  0  0  0  0
  -25.7580  -15.3050   20.1120 N   0  0  0  0  0  0  0  0  0  0  0  0
  -24.9980  -15.9670   20.2270 H   0  0  0  0  0  0  0  0  0  0  0  0
  -26.5860  -15.7210   19.7070 H   0  0  0  0  0  0  0  0  0  0  0  0
  1  2  1  0
  1 49  1  0
  2  4  1  0
  3  1  2  0
  5  2  1  0
  5  6  1  0
  7  8  1  0
  7  6  1  0
  9 20  2  0
 10  8  1  0
 10 15  1  0
 11 19  1  0
 11 21  1  0
 12 18  1  0
 12 14  1  0
 13 19  1  0
 14 13  1  0
 15 14  2  0
 16 17  1  0
 16 10  2  0
 17 12  2  0
 18 11  1  0
 19  9  1  0
 21 23  2  0
 22 21  1  0
 24 22  1  0
 25 34  2  0
 25 30  1  0
 26 22  1  0
 26 30  1  0
 27 26  1  0
 28 29  1  0
 28 27  1  0
 29 25  1  0
 30 31  2  0
 31 32  1  0
 33 32  2  0
 34 33  1  0
 35  9  1  0
 35 40  1  0
 35 36  1  0
 36 39  1  1
 36 37  1  0
 38 36  1  0
 40 43  1  0
 41 45  1  0
 41 40  1  0
 42 41  2  0
 45 44  1  0
 47 45  1  0
 47 48  1  0
 47 46  1  0
 49 54  1  0
 49 50  1  0
 50 51  1  0
 50 52  1  0
 50 53  1  0
 54 55  1  0
 56 55  1  0
 57 62  1  0
 58 59  1  0
 58 57  1  0
 60 59  1  0
 60 67  1  0
 60 61  1  0
 62 56  1  0
 62 61  1  0
 63 56  2  0
 64 65  2  0
 65 84  1  0
 66 65  1  0
 66 69  1  0
 67 64  1  0
 67 68  1  0
 68 66  2  0
 69 70  1  0
 70 71  2  0
 72 75  1  0
 72 71  1  0
 73 72  2  0
 74 73  1  0
 74 69  2  0
 75 76  1  0
 76 81  2  0
 76 77  1  0
 77 78  2  0
 78 79  1  0
 79 83  1  0
 80 79  2  0
 81 80  1  0
 82 81  1  0
 84 85  1  0
 85 88  1  0
 85 87  1  0
 86 84  2  0
 89 90  1  0
 89 64  1  0
 91 89  1  0
M  ISO  4   7 101   8 101  55 100  56 100
M  END
>  <TORSDO>  (66) 
F 23

>  <SCORE>  (66) 
-12.240

>  <name>  (66) 
65

>  <ligand_id>  (66) 
65

>  <original_smiles>  (66) 
[H]c1c([H])c([H])c2c(c1[H])C([H])([H])C([H])([H])C([H])([H])C2([H])N([H])C(=O)C1([H])N(C(=O)C([H])(N([H])C(=O)C([H])(N([H])C([H])([H])[H])C([H])([H])[H])C(C([H])([H])[H])(C([H])([H])[H])C([H])([H])[H])C([H])([H])c2c([H])c(OC([H])([H])C([H])([H])C([H])([H])N([H])C(=O)C([H])(C([H])([H])C([H])([H])C(=O)N3C([H])([H])C([H])([H])C([H])([H])C([H])(n4nc(-c5c([H])c([H])c(Oc6c([H])c([H])c(F)c([H])c6F)c([H])c5[H])c(C(=O)N([H])[H])c4N([H])[H])C3([H])[H])[N+]([H])([H])[H])c([H])c([H])c2C1([H])[H]

>  <smiles>  (66) 
[H]c1c([H])c([H])c2c(c1[H])C([H])([H])C([H])([H])C([H])([H])C2([H])N([H])C(=O)C1([H])N(C(=O)C([H])(N([H])C(=O)C([H])(N([H])C([H])([H])[H])C([H])([H])[H])C(C([H])([H])[H])(C([H])([H])[H])C([H])([H])[H])C([H])([H])c2c([H])c(OC([H])([H])C([H])([H])C([H])([H])N([H])C(=O)C([H])(C([H])([H])C([H])([H])C(=O)N3C([H])([H])C([H])([H])C([H])([H])C([H])(n4nc(-c5c([H])c([H])c(Oc6c([H])c([H])c(F)c([H])c6F)c([H])c5[H])c(C(=O)N([H])[H])c4N([H])[H])C3([H])[H])[N+]([H])([H])[H])c([H])c([H])c2C1([H])[H]

$$$$
66:0:0
     RDKit          3D

 84 92  0  0  1  0  0  0  0  0999 V2000
  -29.3370  -20.9090   20.2080 C   0  0  0  0  0  2  0  0  0  0  0  0
  -29.0800  -22.4450   20.1680 C   0  0  0  0  0  0  0  0  0  0  0  0
  -30.3540  -23.2220   19.8500 C   0  0  0  0  0  1  0  0  0  0  0  0
  -29.3400  -18.2580   19.2020 C   0  0  0  0  0  2  0  0  0  0  0  0
  -28.9560  -19.1350   20.3900 C   0  0  0  0  0  3  0  0  0  0  0  0
  -29.2360  -17.2180   20.2910 C   0  0  0  0  0  3  0  0  0  0  0  0
  -30.2070  -15.6600   20.0830 C   0  0  0  0  0  0  0  0  0  0  0  0
  -30.3080  -13.1340   19.2210 C   0  0  0  0  0  2  0  0  0  0  0  0
  -29.3590  -12.8040   18.0310 C   0  0  0  0  0  2  0  0  0  0  0  0
  -27.9460  -12.4520   18.5260 C   0  0  0  0  0  2  0  0  0  0  0  0
  -27.4880  -13.4140   19.6430 C   0  0  0  0  0  3  0  0  0  0  0  0
  -28.5670  -13.6630   20.7220 C   0  0  0  0  0  2  0  0  0  0  0  0
  -29.7370  -14.2790   20.0570 N   0  0  0  0  0  0  0  0  0  0  0  0
  -31.4230  -15.6450   19.8110 O   0  0  0  0  0  0  0  0  0  0  0  0
  -25.1590  -13.9210   20.5270 C   0  0  0  0  0  0  0  0  0  0  0  0
  -24.1190  -13.1290   20.9210 C   0  0  0  0  0  0  0  0  0  0  0  0
  -24.5920  -11.7830   20.8360 C   0  0  0  0  0  0  0  0  0  0  0  0
  -26.1930  -13.0600   20.2110 N   0  0  0  0  0  0  0  0  0  0  0  0
  -25.8700  -11.7650   20.4650 N   0  0  0  0  0  0  0  0  0  0  0  0
  -23.8780  -10.5110   21.0270 C   0  0  0  0  0  0  0  0  0  0  0  0
  -24.3350   -9.5330   21.9380 C   0  0  0  0  0  3  0  0  0  0  0  0
  -23.6170   -8.3320   22.1190 C   0  0  0  0  0  3  0  0  0  0  0  0
  -22.4260   -8.0990   21.3910 C   0  0  0  0  0  0  0  0  0  0  0  0
  -21.9870   -9.0650   20.4690 C   0  0  0  0  0  3  0  0  0  0  0  0
  -22.7060  -10.2590   20.2850 C   0  0  0  0  0  3  0  0  0  0  0  0
  -21.6780   -6.9500   21.4830 O   0  0  0  0  0  0  0  0  0  0  0  0
  -21.6380   -6.2070   22.6360 C   0  0  0  0  0  0  0  0  0  0  0  0
  -21.1860   -6.7500   23.8590 C   0  0  0  0  0  3  0  0  0  0  0  0
  -21.0960   -5.9320   25.0020 C   0  0  0  0  0  3  0  0  0  0  0  0
  -21.4470   -4.5720   24.9240 C   0  0  0  0  0  0  0  0  0  0  0  0
  -21.8930   -4.0270   23.7070 C   0  0  0  0  0  3  0  0  0  0  0  0
  -21.9850   -4.8430   22.5650 C   0  0  0  0  0  0  0  0  0  0  0  0
  -22.3940   -4.3080   21.3900 F   0  0  0  0  0  0  0  0  0  0  0  0
  -21.3540   -3.7820   26.0210 F   0  0  0  0  0  0  0  0  0  0  0  0
  -22.7320  -13.5920   21.2580 C   0  0  0  0  0  0  0  0  0  0  0  0
  -22.0430  -12.8770   22.1400 N   0  0  0  0  0  0  0  0  0  0  0  0
  -22.2700  -14.6230   20.7720 O   0  0  0  0  0  0  0  0  0  0  0  0
  -22.4360  -12.0440   22.5530 H   0  0  0  0  0  0  0  0  0  0  0  0
  -21.1130  -13.1670   22.4080 H   0  0  0  0  0  0  0  0  0  0  0  0
  -25.3070  -15.2970   20.3810 N   0  0  0  0  0  0  0  0  0  0  0  0
  -24.5400  -15.9430   20.5360 H   0  0  0  0  0  0  0  0  0  0  0  0
  -26.1360  -15.7460   20.0110 H   0  0  0  0  0  0  0  0  0  0  0  0
  -27.9320  -23.8700   20.3080 C   0  0  0  0  0  3  0  0  0  0  0  0
  -28.1460  -25.6090   20.2930 O   0  0  0  0  0  0  0  0  0  0  0  0
  -24.6480  -31.8870   23.2050 C   0  0  0  0  0  0  0  0  0  0  0  0
  -27.1630  -26.8030   20.2510 C   0  0  0  0  0  0  0  0  0  0  0  0
  -23.4500  -30.4740   21.5880 C   0  0  0  0  0  3  0  0  0  0  0  0
  -24.8910  -28.8190   20.1820 C   0  0  0  0  0  0  0  0  0  0  0  0
  -26.0290  -30.6240   21.4490 C   0  0  0  0  0  2  0  0  0  0  0  0
  -26.0900  -29.1880   20.8050 C   0  0  0  0  0  0  0  0  0  0  0  0
  -27.2120  -28.2090   20.8030 C   0  0  0  0  0  3  0  0  0  0  0  0
  -25.9270  -26.6350   19.5760 C   0  0  0  0  0  3  0  0  0  0  0  0
  -24.8470  -27.5670   19.5440 C   0  0  0  0  0  3  0  0  0  0  0  0
  -23.6840  -29.7660   20.2220 C   0  0  0  0  0  2  0  0  0  0  0  0
  -24.7340  -31.0280   22.1330 N   0  0  0  0  0  0  0  0  0  0  0  0
  -23.5570  -32.1920   23.7170 O   0  0  0  0  0  0  0  0  0  0  0  0
  -22.7400  -29.5050   22.5700 C   0  0  0  0  0  0  0  0  0  0  0  0
  -21.4080  -29.3480   22.4490 N   0  0  0  0  0  0  0  0  0  0  0  0
  -23.3990  -28.8920   23.4130 O   0  0  0  0  0  0  0  0  0  0  0  0
  -20.9260  -29.8950   21.7490 H   0  0  0  0  0  0  0  0  0  0  0  0
  -18.0240  -28.1350   22.9790 C   0  0  0  0  0  0  0  0  0  0  0  0
  -20.5830  -28.4200   23.2340 C   0  0  0  0  0  3  0  0  0  0  0  0
  -20.6890  -26.9790   22.6800 C   0  0  0  0  0  2  0  0  0  0  0  0
  -19.5880  -26.6380   21.6710 C   0  0  0  0  0  2  0  0  0  0  0  0
  -18.2060  -26.7820   22.3150 C   0  0  0  0  0  2  0  0  0  0  0  0
  -19.1380  -28.9110   23.3960 C   0  0  0  0  0  0  0  0  0  0  0  0
  -18.9100  -30.1740   23.9840 C   0  0  0  0  0  3  0  0  0  0  0  0
  -17.6010  -30.6630   24.1530 C   0  0  0  0  0  3  0  0  0  0  0  0
  -16.5020  -29.8860   23.7490 C   0  0  0  0  0  3  0  0  0  0  0  0
  -16.7140  -28.6230   23.1690 C   0  0  0  0  0  3  0  0  0  0  0  0
  -25.9160  -32.5400   23.8360 C   0  0  0  0  0  3  0  0  0  0  0  0
  -25.5930  -33.9400   24.1730 N   0  0  0  0  0  0  0  0  0  0  0  0
  -25.9040  -35.0050   23.4230 C   0  0  0  0  0  0  0  0  0  0  0  0
  -26.5520  -34.9140   22.3780 O   0  0  0  0  0  0  0  0  0  0  0  0
  -25.0110  -34.0840   24.9860 H   0  0  0  0  0  0  0  0  0  0  0  0
  -24.1580  -36.8010   23.1400 C   0  0  0  0  0  1  0  0  0  0  0  0
  -25.4270  -36.3910   23.9060 C   0  0  0  0  0  3  0  0  0  0  0  0
  -27.5760  -37.2940   24.6800 C   0  0  0  0  0  1  0  0  0  0  0  0
  -26.4500  -37.4500   23.7650 N   0  0  0  0  0  0  0  0  0  0  0  0
  -26.0430  -38.3690   23.9170 H   0  0  0  0  0  0  0  0  0  0  0  0
  -26.4250  -31.7820   25.1260 C   0  0  1  0  0  0  0  0  0  0  0  0
  -25.3270  -31.5590   26.1920 C   0  0  0  0  0  1  0  0  0  0  0  0
  -27.0110  -30.3990   24.7650 C   0  0  0  0  0  1  0  0  0  0  0  0
  -27.5720  -32.5850   25.7840 C   0  0  0  0  0  1  0  0  0  0  0  0
  2  1  1  0
  2 43  2  0
  3  2  1  0
  4  6  1  0
  4  5  1  0
  5  1  1  0
  6  7  1  0
  6  5  1  0
  8 13  1  0
  9 10  1  0
  9  8  1  0
 11 10  1  0
 11 18  1  0
 11 12  1  0
 13  7  1  0
 13 12  1  0
 14  7  2  0
 15 16  2  0
 16 35  1  0
 17 16  1  0
 17 20  1  0
 18 19  1  0
 18 15  1  0
 19 17  2  0
 20 21  1  0
 21 22  2  0
 23 26  1  0
 23 22  1  0
 24 23  2  0
 25 24  1  0
 25 20  2  0
 26 27  1  0
 27 28  1  0
 28 29  2  0
 30 29  1  0
 30 34  1  0
 31 30  2  0
 32 27  2  0
 32 31  1  0
 33 32  1  0
 35 36  1  0
 36 39  1  0
 36 38  1  0
 37 35  2  0
 40 15  1  0
 40 41  1  0
 42 40  1  0
 44 43  1  0
 45 56  2  0
 46 44  1  0
 46 51  1  0
 47 55  1  0
 47 57  1  0
 48 54  1  0
 48 50  1  0
 49 55  1  0
 50 49  1  0
 51 50  2  0
 52 46  2  0
 53 52  1  0
 53 48  2  0
 54 47  1  0
 55 45  1  0
 57 59  2  0
 58 57  1  0
 60 58  1  0
 61 70  2  0
 61 66  1  0
 62 58  1  0
 62 66  1  0
 63 62  1  0
 64 65  1  0
 64 63  1  0
 65 61  1  0
 66 67  2  0
 67 68  1  0
 69 68  2  0
 70 69  1  0
 71 45  1  0
 71 72  1  0
 71 81  1  0
 72 75  1  0
 73 77  1  0
 73 72  1  0
 74 73  2  0
 77 76  1  0
 79 77  1  0
 79 80  1  0
 79 78  1  0
 81 84  1  1
 81 82  1  0
 83 81  1  0
M  ISO  4   6 100   7 100  43 101  44 101
M  END
>  <TORSDO>  (67) 
F 18

>  <SCORE>  (67) 
-16.444

>  <name>  (67) 
66

>  <ligand_id>  (67) 
66

>  <original_smiles>  (67) 
[H]C(=C(C([H])([H])[H])C([H])([H])Oc1c([H])c([H])c2c(c1[H])C([H])([H])N(C(=O)C([H])(N([H])C(=O)C([H])(N([H])C([H])([H])[H])C([H])([H])[H])C(C([H])([H])[H])(C([H])([H])[H])C([H])([H])[H])C([H])(C(=O)N([H])C1([H])c3c([H])c([H])c([H])c([H])c3C([H])([H])C([H])([H])C1([H])[H])C2([H])[H])C1([H])C([H])([H])C1([H])C(=O)N1C([H])([H])C([H])([H])C([H])([H])C([H])(n2nc(-c3c([H])c([H])c(Oc4c([H])c([H])c(F)c([H])c4F)c([H])c3[H])c(C(=O)N([H])[H])c2N([H])[H])C1([H])[H]

>  <smiles>  (67) 
[H]C(=C(C([H])([H])[H])C([H])([H])Oc1c([H])c([H])c2c(c1[H])C([H])([H])N(C(=O)C([H])(N([H])C(=O)C([H])(N([H])C([H])([H])[H])C([H])([H])[H])C(C([H])([H])[H])(C([H])([H])[H])C([H])([H])[H])C([H])(C(=O)N([H])C1([H])c3c([H])c([H])c([H])c([H])c3C([H])([H])C([H])([H])C1([H])[H])C2([H])[H])C1([H])C([H])([H])C1([H])C(=O)N1C([H])([H])C([H])([H])C([H])([H])C([H])(n2nc(-c3c([H])c([H])c(Oc4c([H])c([H])c(F)c([H])c4F)c([H])c3[H])c(C(=O)N([H])[H])c2N([H])[H])C1([H])[H]

$$$$
67:0:0
     RDKit          3D

 91 99  0  0  1  0  0  0  0  0999 V2000
  -28.0390  -23.2670   20.5480 C   0  0  0  0  0  0  0  0  0  0  0  0
  -27.7940  -24.5870   20.4630 C   0  0  0  0  0  3  0  0  0  0  0  0
  -27.2090  -22.3150   21.3720 C   0  0  0  0  0  2  0  0  0  0  0  0
  -29.0730  -22.4780   19.7660 C   0  0  0  0  0  2  0  0  0  0  0  0
  -27.3610  -20.9730   20.6530 C   0  0  0  0  0  2  0  0  0  0  0  0
  -28.7810  -20.9790   20.0480 C   0  0  0  0  0  3  0  0  0  0  0  0
  -29.7900  -20.3320   21.0200 C   0  0  0  0  0  0  0  0  0  0  0  0
  -30.0980  -19.0400   20.8290 N   0  0  0  0  0  0  0  0  0  0  0  0
  -30.2770  -20.9890   21.9420 O   0  0  0  0  0  0  0  0  0  0  0  0
  -29.6560  -18.5560   20.0590 H   0  0  0  0  0  0  0  0  0  0  0  0
  -31.0140  -18.2820   21.6830 C   0  0  0  0  0  2  0  0  0  0  0  0
  -31.5740  -17.0280   20.9910 C   0  0  0  0  0  2  0  0  0  0  0  0
  -30.6340  -15.7980   21.0010 C   0  0  0  0  0  2  0  0  0  0  0  0
  -31.2400  -14.5720   20.2880 C   0  0  0  0  0  0  0  0  0  0  0  0
  -30.8800  -12.3690   19.2340 C   0  0  0  0  0  2  0  0  0  0  0  0
  -29.9500  -12.5310   18.0160 C   0  0  0  0  0  2  0  0  0  0  0  0
  -28.4710  -12.4510   18.4440 C   0  0  0  0  0  2  0  0  0  0  0  0
  -28.1500  -13.3730   19.6530 C   0  0  0  0  0  3  0  0  0  0  0  0
  -29.1950  -13.1930   20.7770 C   0  0  0  0  0  2  0  0  0  0  0  0
  -30.5300  -13.4170   20.2050 N   0  0  0  0  0  0  0  0  0  0  0  0
  -32.3360  -14.7030   19.7350 O   0  0  0  0  0  0  0  0  0  0  0  0
  -25.7810  -14.0830   20.3690 C   0  0  0  0  0  0  0  0  0  0  0  0
  -24.6820  -13.3590   20.7440 C   0  0  0  0  0  0  0  0  0  0  0  0
  -25.0850  -11.9890   20.7150 C   0  0  0  0  0  0  0  0  0  0  0  0
  -26.7880  -13.1580   20.1390 N   0  0  0  0  0  0  0  0  0  0  0  0
  -26.3710  -11.8930   20.4020 N   0  0  0  0  0  0  0  0  0  0  0  0
  -24.3080  -10.7590   20.9120 C   0  0  0  0  0  0  0  0  0  0  0  0
  -24.6810   -9.7980   21.8760 C   0  0  0  0  0  3  0  0  0  0  0  0
  -23.9070   -8.6310   22.0590 C   0  0  0  0  0  3  0  0  0  0  0  0
  -22.7460   -8.4190   21.2780 C   0  0  0  0  0  0  0  0  0  0  0  0
  -22.3940   -9.3680   20.3020 C   0  0  0  0  0  3  0  0  0  0  0  0
  -23.1670  -10.5250   20.1180 C   0  0  0  0  0  3  0  0  0  0  0  0
  -21.9480   -7.3040   21.3700 O   0  0  0  0  0  0  0  0  0  0  0  0
  -21.8050   -6.6160   22.5500 C   0  0  0  0  0  0  0  0  0  0  0  0
  -21.3140   -7.2360   23.7190 C   0  0  0  0  0  3  0  0  0  0  0  0
  -21.1200   -6.4750   24.8900 C   0  0  0  0  0  3  0  0  0  0  0  0
  -21.4030   -5.0970   24.8890 C   0  0  0  0  0  0  0  0  0  0  0  0
  -21.8850   -4.4760   23.7230 C   0  0  0  0  0  3  0  0  0  0  0  0
  -22.0840   -5.2340   22.5550 C   0  0  0  0  0  0  0  0  0  0  0  0
  -22.5280   -4.6280   21.4290 F   0  0  0  0  0  0  0  0  0  0  0  0
  -21.2080   -4.3640   26.0100 F   0  0  0  0  0  0  0  0  0  0  0  0
  -23.3080  -13.8970   21.0230 C   0  0  0  0  0  0  0  0  0  0  0  0
  -22.5620  -13.2410   21.9050 N   0  0  0  0  0  0  0  0  0  0  0  0
  -22.9060  -14.9320   20.4940 O   0  0  0  0  0  0  0  0  0  0  0  0
  -22.8990  -12.4010   22.3520 H   0  0  0  0  0  0  0  0  0  0  0  0
  -21.6400  -13.5810   22.1360 H   0  0  0  0  0  0  0  0  0  0  0  0
  -26.0040  -15.4440   20.1860 N   0  0  0  0  0  0  0  0  0  0  0  0
  -25.2720  -16.1350   20.3050 H   0  0  0  0  0  0  0  0  0  0  0  0
  -26.8780  -15.8420   19.8620 H   0  0  0  0  0  0  0  0  0  0  0  0
  -28.5140  -25.5990   19.5790 C   0  0  0  0  0  2  0  0  0  0  0  0
  -28.4800  -26.9240   20.1270 O   0  0  0  0  0  0  0  0  0  0  0  0
  -24.6310  -31.9500   23.3650 C   0  0  0  0  0  0  0  0  0  0  0  0
  -27.2870  -27.6230   20.1250 C   0  0  0  0  0  0  0  0  0  0  0  0
  -23.4250  -30.5910   21.6880 C   0  0  0  0  0  3  0  0  0  0  0  0
  -24.8790  -29.1120   20.2090 C   0  0  0  0  0  0  0  0  0  0  0  0
  -25.9510  -30.9660   21.4960 C   0  0  0  0  0  2  0  0  0  0  0  0
  -26.0370  -29.6190   20.8100 C   0  0  0  0  0  0  0  0  0  0  0  0
  -27.2410  -28.8800   20.7700 C   0  0  0  0  0  3  0  0  0  0  0  0
  -26.1070  -27.1360   19.5110 C   0  0  0  0  0  3  0  0  0  0  0  0
  -24.9090  -27.8680   19.5600 C   0  0  0  0  0  3  0  0  0  0  0  0
  -23.6320  -29.9600   20.2870 C   0  0  0  0  0  2  0  0  0  0  0  0
  -24.6870  -31.1820   22.2400 N   0  0  0  0  0  0  0  0  0  0  0  0
  -23.5500  -32.2010   23.9150 O   0  0  0  0  0  0  0  0  0  0  0  0
  -22.7880  -29.5340   22.6180 C   0  0  0  0  0  0  0  0  0  0  0  0
  -21.4690  -29.3340   22.4780 N   0  0  0  0  0  0  0  0  0  0  0  0
  -23.4790  -28.8990   23.4200 O   0  0  0  0  0  0  0  0  0  0  0  0
  -20.9740  -29.9000   21.8010 H   0  0  0  0  0  0  0  0  0  0  0  0
  -18.1130  -28.0710   22.9090 C   0  0  0  0  0  0  0  0  0  0  0  0
  -20.6610  -28.3680   23.2200 C   0  0  0  0  0  3  0  0  0  0  0  0
  -20.7980  -26.9510   22.6190 C   0  0  0  0  0  2  0  0  0  0  0  0
  -19.7150  -26.6270   21.5860 C   0  0  0  0  0  2  0  0  0  0  0  0
  -18.3220  -26.7370   22.2130 C   0  0  0  0  0  2  0  0  0  0  0  0
  -19.2110  -28.8440   23.3670 C   0  0  0  0  0  0  0  0  0  0  0  0
  -18.9630  -30.0950   23.9760 C   0  0  0  0  0  3  0  0  0  0  0  0
  -17.6480  -30.5690   24.1350 C   0  0  0  0  0  3  0  0  0  0  0  0
  -16.5620  -29.7930   23.6920 C   0  0  0  0  0  3  0  0  0  0  0  0
  -16.7960  -28.5460   23.0840 C   0  0  0  0  0  3  0  0  0  0  0  0
  -25.9180  -32.5690   23.9960 C   0  0  0  0  0  3  0  0  0  0  0  0
  -25.6150  -33.9680   24.3260 N   0  0  0  0  0  0  0  0  0  0  0  0
  -25.9660  -35.0190   23.5730 C   0  0  0  0  0  0  0  0  0  0  0  0
  -26.6480  -34.9110   22.5500 O   0  0  0  0  0  0  0  0  0  0  0  0
  -25.0140  -34.1280   25.1200 H   0  0  0  0  0  0  0  0  0  0  0  0
  -24.2550  -36.8220   23.1960 C   0  0  0  0  0  1  0  0  0  0  0  0
  -25.4810  -36.4080   24.0260 C   0  0  0  0  0  3  0  0  0  0  0  0
  -27.6090  -37.2760   24.8880 C   0  0  0  0  0  1  0  0  0  0  0  0
  -26.5230  -37.4550   23.9280 N   0  0  0  0  0  0  0  0  0  0  0  0
  -26.1210  -38.3770   24.0740 H   0  0  0  0  0  0  0  0  0  0  0  0
  -26.4200  -31.7880   25.2720 C   0  0  1  0  0  0  0  0  0  0  0  0
  -25.3150  -31.5410   26.3260 C   0  0  0  0  0  1  0  0  0  0  0  0
  -27.0090  -30.4140   24.8750 C   0  0  0  0  0  1  0  0  0  0  0  0
  -27.5630  -32.5790   25.9530 C   0  0  0  0  0  1  0  0  0  0  0  0
  1  3  1  0
  2  1  2  0
  4  6  1  0
  4  1  1  0
  5  3  1  0
  6  5  1  0
  6  7  1  0
  7  9  2  0
  8  7  1  0
  8 11  1  0
 10  8  1  0
 12 13  1  0
 12 11  1  0
 14 13  1  0
 15 20  1  0
 16 17  1  0
 16 15  1  0
 18 17  1  0
 18 25  1  0
 18 19  1  0
 20 14  1  0
 20 19  1  0
 21 14  2  0
 22 23  2  0
 23 42  1  0
 24 23  1  0
 24 27  1  0
 25 22  1  0
 25 26  1  0
 26 24  2  0
 27 28  1  0
 28 29  2  0
 30 33  1  0
 30 29  1  0
 31 30  2  0
 32 31  1  0
 32 27  2  0
 33 34  1  0
 34 39  2  0
 34 35  1  0
 35 36  2  0
 37 36  1  0
 37 41  1  0
 38 37  2  0
 39 38  1  0
 40 39  1  0
 42 43  1  0
 43 46  1  0
 43 45  1  0
 44 42  2  0
 47 48  1  0
 47 22  1  0
 49 47  1  0
 50 51  1  0
 50  2  1  0
 52 63  2  0
 53 51  1  0
 53 58  1  0
 54 62  1  0
 54 64  1  0
 55 61  1  0
 55 57  1  0
 56 62  1  0
 57 56  1  0
 58 57  2  0
 59 60  1  0
 59 53  2  0
 60 55  2  0
 61 54  1  0
 62 52  1  0
 64 66  2  0
 65 64  1  0
 67 65  1  0
 68 77  2  0
 68 73  1  0
 69 65  1  0
 69 73  1  0
 70 69  1  0
 71 72  1  0
 71 70  1  0
 72 68  1  0
 73 74  2  0
 74 75  1  0
 76 75  2  0
 77 76  1  0
 78 52  1  0
 78 79  1  0
 78 88  1  0
 79 82  1  0
 80 84  1  0
 80 79  1  0
 81 80  2  0
 84 83  1  0
 86 84  1  0
 86 87  1  0
 86 85  1  0
 88 91  1  1
 88 89  1  0
 90 88  1  0
M  ISO  4  13 100  14 100  50 101  51 101
M  END
>  <TORSDO>  (68) 
F 21

>  <SCORE>  (68) 
-12.742

>  <name>  (68) 
67

>  <ligand_id>  (68) 
67

>  <original_smiles>  (68) 
[H]C(=C1C([H])([H])C([H])([H])C([H])(C(=O)N([H])C([H])([H])C([H])([H])C([H])([H])C(=O)N2C([H])([H])C([H])([H])C([H])([H])C([H])(n3nc(-c4c([H])c([H])c(Oc5c([H])c([H])c(F)c([H])c5F)c([H])c4[H])c(C(=O)N([H])[H])c3N([H])[H])C2([H])[H])C1([H])[H])C([H])([H])Oc1c([H])c([H])c2c(c1[H])C([H])([H])N(C(=O)C([H])(N([H])C(=O)C([H])(N([H])C([H])([H])[H])C([H])([H])[H])C(C([H])([H])[H])(C([H])([H])[H])C([H])([H])[H])C([H])(C(=O)N([H])C1([H])c3c([H])c([H])c([H])c([H])c3C([H])([H])C([H])([H])C1([H])[H])C2([H])[H]

>  <smiles>  (68) 
[H]C(=C1C([H])([H])C([H])([H])C([H])(C(=O)N([H])C([H])([H])C([H])([H])C([H])([H])C(=O)N2C([H])([H])C([H])([H])C([H])([H])C([H])(n3nc(-c4c([H])c([H])c(Oc5c([H])c([H])c(F)c([H])c5F)c([H])c4[H])c(C(=O)N([H])[H])c3N([H])[H])C2([H])[H])C1([H])[H])C([H])([H])Oc1c([H])c([H])c2c(c1[H])C([H])([H])N(C(=O)C([H])(N([H])C(=O)C([H])(N([H])C([H])([H])[H])C([H])([H])[H])C(C([H])([H])[H])(C([H])([H])[H])C([H])([H])[H])C([H])(C(=O)N([H])C1([H])c3c([H])c([H])c([H])c([H])c3C([H])([H])C([H])([H])C1([H])[H])C2([H])[H]

$$$$
68:0:0
     RDKit          3D

 89 97  0  0  1  0  0  0  0  0999 V2000
  -29.6480  -24.4390   19.8130 C   0  0  0  0  0  2  0  0  0  0  0  0
  -27.5960  -24.4120   21.1590 C   0  0  0  0  0  2  0  0  0  0  0  0
  -29.5410  -22.8870   19.6120 C   0  0  0  0  0  2  0  0  0  0  0  0
  -27.4900  -22.8730   20.9480 C   0  0  0  0  0  2  0  0  0  0  0  0
  -28.2710  -25.1320   19.9700 C   0  0  0  0  0  3  0  0  0  0  0  0
  -28.7990  -22.1840   20.7050 N   0  0  1  0  0  4  0  0  0  0  0  0
  -29.3390  -22.2940   21.5530 H   0  0  0  0  0  0  0  0  0  0  0  0
  -28.3640  -26.5840   20.1590 O   0  0  0  0  0  0  0  0  0  0  0  0
  -24.6310  -31.8860   23.2440 C   0  0  0  0  0  0  0  0  0  0  0  0
  -27.2080  -27.3700   20.1380 C   0  0  0  0  0  0  0  0  0  0  0  0
  -23.4030  -30.4950   21.6140 C   0  0  0  0  0  3  0  0  0  0  0  0
  -24.8320  -28.9480   20.1700 C   0  0  0  0  0  0  0  0  0  0  0  0
  -25.9370  -30.8200   21.3980 C   0  0  0  0  0  2  0  0  0  0  0  0
  -26.0050  -29.4460   20.7490 C   0  0  0  0  0  0  0  0  0  0  0  0
  -27.1960  -28.6680   20.7240 C   0  0  0  0  0  3  0  0  0  0  0  0
  -26.0060  -26.9100   19.5490 C   0  0  0  0  0  3  0  0  0  0  0  0
  -24.8310  -27.6830   19.5660 C   0  0  0  0  0  3  0  0  0  0  0  0
  -23.5970  -29.8210   20.2310 C   0  0  0  0  0  2  0  0  0  0  0  0
  -24.6760  -31.0830   22.1420 N   0  0  0  0  0  0  0  0  0  0  0  0
  -23.5550  -32.1660   23.7920 O   0  0  0  0  0  0  0  0  0  0  0  0
  -22.7520  -29.4760   22.5780 C   0  0  0  0  0  0  0  0  0  0  0  0
  -21.4260  -29.2970   22.4580 N   0  0  0  0  0  0  0  0  0  0  0  0
  -23.4370  -28.8510   23.3910 O   0  0  0  0  0  0  0  0  0  0  0  0
  -20.9330  -29.8550   21.7750 H   0  0  0  0  0  0  0  0  0  0  0  0
  -18.0540  -28.0940   22.9650 C   0  0  0  0  0  0  0  0  0  0  0  0
  -20.6110  -28.3610   23.2330 C   0  0  0  0  0  3  0  0  0  0  0  0
  -20.7170  -26.9270   22.6640 C   0  0  0  0  0  2  0  0  0  0  0  0
  -19.6150  -26.5960   21.6520 C   0  0  0  0  0  2  0  0  0  0  0  0
  -18.2320  -26.7410   22.2960 C   0  0  0  0  0  2  0  0  0  0  0  0
  -19.1710  -28.8610   23.3910 C   0  0  0  0  0  0  0  0  0  0  0  0
  -18.9500  -30.1270   23.9750 C   0  0  0  0  0  3  0  0  0  0  0  0
  -17.6440  -30.6260   24.1390 C   0  0  0  0  0  3  0  0  0  0  0  0
  -16.5410  -29.8560   23.7300 C   0  0  0  0  0  3  0  0  0  0  0  0
  -16.7470  -28.5920   23.1490 C   0  0  0  0  0  3  0  0  0  0  0  0
  -25.9240  -32.5120   23.8530 C   0  0  0  0  0  3  0  0  0  0  0  0
  -25.6200  -33.9060   24.1990 N   0  0  0  0  0  0  0  0  0  0  0  0
  -25.9300  -34.9640   23.4370 C   0  0  0  0  0  0  0  0  0  0  0  0
  -26.5710  -34.8670   22.3870 O   0  0  0  0  0  0  0  0  0  0  0  0
  -25.0450  -34.0550   25.0160 H   0  0  0  0  0  0  0  0  0  0  0  0
  -24.1800  -36.7490   23.1490 C   0  0  0  0  0  1  0  0  0  0  0  0
  -25.4510  -36.3490   23.9150 C   0  0  0  0  0  3  0  0  0  0  0  0
  -27.6110  -37.2430   24.6670 C   0  0  0  0  0  1  0  0  0  0  0  0
  -26.4740  -37.4080   23.7660 N   0  0  0  0  0  0  0  0  0  0  0  0
  -26.0690  -38.3260   23.9320 H   0  0  0  0  0  0  0  0  0  0  0  0
  -26.4570  -31.7280   25.1160 C   0  0  1  0  0  0  0  0  0  0  0  0
  -25.3790  -31.4830   26.1970 C   0  0  0  0  0  1  0  0  0  0  0  0
  -27.0310  -30.3520   24.7030 C   0  0  0  0  0  1  0  0  0  0  0  0
  -27.6190  -32.5130   25.7670 C   0  0  0  0  0  1  0  0  0  0  0  0
  -28.5990  -20.6910   20.5010 C   0  0  0  0  0  2  0  0  0  0  0  0
  -29.8280  -19.7210   20.6550 C   0  0  0  0  0  2  0  0  0  0  0  0
  -29.3960  -18.3350   20.7840 O   0  0  0  0  0  0  0  0  0  0  0  0
  -30.4020  -17.2900   20.6550 C   0  0  0  0  0  2  0  0  0  0  0  0
  -29.8680  -15.8540   21.0330 C   0  0  0  0  0  2  0  0  0  0  0  0
  -30.6310  -14.6010   20.4690 C   0  0  0  0  0  0  0  0  0  0  0  0
  -30.3620  -12.4160   19.3150 C   0  0  0  0  0  2  0  0  0  0  0  0
  -29.4090  -12.6130   18.1160 C   0  0  0  0  0  2  0  0  0  0  0  0
  -27.9370  -12.4610   18.5530 C   0  0  0  0  0  2  0  0  0  0  0  0
  -27.6060  -13.2940   19.8190 C   0  0  0  0  0  3  0  0  0  0  0  0
  -28.6720  -13.0870   20.9190 C   0  0  0  0  0  2  0  0  0  0  0  0
  -29.9880  -13.4010   20.3460 N   0  0  0  0  0  0  0  0  0  0  0  0
  -31.7730  -14.7560   20.0260 O   0  0  0  0  0  0  0  0  0  0  0  0
  -25.2220  -13.9120   20.5550 C   0  0  0  0  0  0  0  0  0  0  0  0
  -24.1520  -13.1440   20.9280 C   0  0  0  0  0  0  0  0  0  0  0  0
  -24.6050  -11.7910   20.8910 C   0  0  0  0  0  0  0  0  0  0  0  0
  -26.2590  -13.0240   20.3110 N   0  0  0  0  0  0  0  0  0  0  0  0
  -25.8920  -11.7440   20.5740 N   0  0  0  0  0  0  0  0  0  0  0  0
  -23.8720  -10.5320   21.0810 C   0  0  0  0  0  0  0  0  0  0  0  0
  -24.3180   -9.5510   21.9940 C   0  0  0  0  0  3  0  0  0  0  0  0
  -23.5870   -8.3570   22.1750 C   0  0  0  0  0  3  0  0  0  0  0  0
  -22.3970   -8.1360   21.4420 C   0  0  0  0  0  0  0  0  0  0  0  0
  -21.9710   -9.1040   20.5170 C   0  0  0  0  0  3  0  0  0  0  0  0
  -22.7020  -10.2910   20.3350 C   0  0  0  0  0  3  0  0  0  0  0  0
  -21.6370   -6.9940   21.5310 O   0  0  0  0  0  0  0  0  0  0  0  0
  -21.6190   -6.2300   22.6700 C   0  0  0  0  0  0  0  0  0  0  0  0
  -21.2430   -6.7650   23.9220 C   0  0  0  0  0  3  0  0  0  0  0  0
  -21.1710   -5.9280   25.0530 C   0  0  0  0  0  3  0  0  0  0  0  0
  -21.4640   -4.5560   24.9340 C   0  0  0  0  0  0  0  0  0  0  0  0
  -21.8320   -4.0190   23.6880 C   0  0  0  0  0  3  0  0  0  0  0  0
  -21.9070   -4.8550   22.5580 C   0  0  0  0  0  0  0  0  0  0  0  0
  -22.2410   -4.3280   21.3550 F   0  0  0  0  0  0  0  0  0  0  0  0
  -21.3870   -3.7480   26.0180 F   0  0  0  0  0  0  0  0  0  0  0  0
  -22.7590  -13.6280   21.2120 C   0  0  0  0  0  0  0  0  0  0  0  0
  -22.0360  -12.9340   22.0830 N   0  0  0  0  0  0  0  0  0  0  0  0
  -22.3210  -14.6540   20.6940 O   0  0  0  0  0  0  0  0  0  0  0  0
  -22.4040  -12.1030   22.5220 H   0  0  0  0  0  0  0  0  0  0  0  0
  -21.1020  -13.2380   22.3160 H   0  0  0  0  0  0  0  0  0  0  0  0
  -25.3950  -15.2820   20.3820 N   0  0  0  0  0  0  0  0  0  0  0  0
  -24.6350  -15.9440   20.4990 H   0  0  0  0  0  0  0  0  0  0  0  0
  -26.2510  -15.7180   20.0600 H   0  0  0  0  0  0  0  0  0  0  0  0
  1  5  1  0
  3  1  1  0
  3  6  1  0
  4  2  1  0
  5  8  1  0
  5  2  1  0
  6  4  1  0
  6  7  1  1
  9 20  2  0
 10  8  1  0
 10 15  1  0
 11 19  1  0
 11 21  1  0
 12 18  1  0
 12 14  1  0
 13 19  1  0
 14 13  1  0
 15 14  2  0
 16 17  1  0
 16 10  2  0
 17 12  2  0
 18 11  1  0
 19  9  1  0
 21 23  2  0
 22 21  1  0
 24 22  1  0
 25 34  2  0
 25 30  1  0
 26 22  1  0
 26 30  1  0
 27 26  1  0
 28 29  1  0
 28 27  1  0
 29 25  1  0
 30 31  2  0
 31 32  1  0
 33 32  2  0
 34 33  1  0
 35  9  1  0
 35 36  1  0
 35 45  1  0
 36 39  1  0
 37 41  1  0
 37 36  1  0
 38 37  2  0
 41 40  1  0
 43 41  1  0
 43 44  1  0
 43 42  1  0
 45 48  1  1
 45 46  1  0
 47 45  1  0
 49 50  1  0
 49  6  1  0
 50 51  1  0
 52 51  1  0
 52 53  1  0
 54 53  1  0
 55 60  1  0
 56 57  1  0
 56 55  1  0
 58 57  1  0
 58 65  1  0
 58 59  1  0
 60 54  1  0
 60 59  1  0
 61 54  2  0
 62 63  2  0
 63 82  1  0
 64 63  1  0
 64 67  1  0
 65 62  1  0
 65 66  1  0
 66 64  2  0
 67 68  1  0
 68 69  2  0
 70 73  1  0
 70 69  1  0
 71 70  2  0
 72 71  1  0
 72 67  2  0
 73 74  1  0
 74 75  1  0
 75 76  2  0
 77 76  1  0
 77 81  1  0
 78 77  2  0
 79 74  2  0
 79 78  1  0
 80 79  1  0
 82 83  1  0
 83 86  1  0
 83 85  1  0
 84 82  2  0
 87 88  1  0
 87 62  1  0
 89 87  1  0
M  ISO  4   5 101   8 101  53 100  54 100
M  END
>  <TORSDO>  (69) 
F 21

>  <SCORE>  (69) 
-13.530

>  <name>  (69) 
68

>  <ligand_id>  (69) 
68

>  <original_smiles>  (69) 
[H]c1c([H])c([H])c2c(c1[H])C([H])([H])C([H])([H])C([H])([H])C2([H])N([H])C(=O)C1([H])N(C(=O)C([H])(N([H])C(=O)C([H])(N([H])C([H])([H])[H])C([H])([H])[H])C(C([H])([H])[H])(C([H])([H])[H])C([H])([H])[H])C([H])([H])c2c([H])c(OC3([H])C([H])([H])C([H])([H])[N+]([H])(C([H])([H])C([H])([H])OC([H])([H])C([H])([H])C(=O)N4C([H])([H])C([H])([H])C([H])([H])C([H])(n5nc(-c6c([H])c([H])c(Oc7c([H])c([H])c(F)c([H])c7F)c([H])c6[H])c(C(=O)N([H])[H])c5N([H])[H])C4([H])[H])C([H])([H])C3([H])[H])c([H])c([H])c2C1([H])[H]

>  <smiles>  (69) 
[H]c1c([H])c([H])c2c(c1[H])C([H])([H])C([H])([H])C([H])([H])C2([H])N([H])C(=O)C1([H])N(C(=O)C([H])(N([H])C(=O)C([H])(N([H])C([H])([H])[H])C([H])([H])[H])C(C([H])([H])[H])(C([H])([H])[H])C([H])([H])[H])C([H])([H])c2c([H])c(OC3([H])C([H])([H])C([H])([H])[N+]([H])(C([H])([H])C([H])([H])OC([H])([H])C([H])([H])C(=O)N4C([H])([H])C([H])([H])C([H])([H])C([H])(n5nc(-c6c([H])c([H])c(Oc7c([H])c([H])c(F)c([H])c7F)c([H])c6[H])c(C(=O)N([H])[H])c5N([H])[H])C4([H])[H])C([H])([H])C3([H])[H])c([H])c([H])c2C1([H])[H]

$$$$
69:0:0
     RDKit          3D

 93102  0  0  1  0  0  0  0  0999 V2000
  -28.3370  -20.3250   19.8860 C   0  0  0  0  0  2  0  0  0  0  0  0
  -29.4430  -21.7900   21.7420 C   0  0  0  0  0  2  0  0  0  0  0  0
  -29.8420  -20.2220   19.9490 C   0  0  0  0  0  3  0  0  0  0  0  0
  -30.5910  -19.6850   21.1870 C   0  0  0  0  0  3  0  0  0  0  0  0
  -29.1470  -21.5480   20.2880 C   0  0  1  0  0  0  0  0  0  0  0  0
  -30.0060  -20.5270   22.2980 N   0  0  1  0  0  4  0  0  0  0  0  0
  -29.1950  -20.0090   22.6000 H   0  0  0  0  0  0  0  0  0  0  0  0
  -29.0300  -22.7930   19.4100 C   0  0  0  0  0  3  0  0  0  0  0  0
  -28.4880  -24.0120   19.7100 C   0  0  0  0  0  3  0  0  0  0  0  0
  -28.3620  -25.2120   18.7340 C   0  0  0  0  0  2  0  0  0  0  0  0
  -28.3730  -26.5570   19.3050 O   0  0  0  0  0  0  0  0  0  0  0  0
  -24.8370  -31.5040   23.0890 C   0  0  0  0  0  0  0  0  0  0  0  0
  -27.2140  -27.3270   19.4060 C   0  0  0  0  0  0  0  0  0  0  0  0
  -23.5150  -30.2990   21.3830 C   0  0  0  0  0  3  0  0  0  0  0  0
  -24.8570  -28.8990   19.7180 C   0  0  0  0  0  0  0  0  0  0  0  0
  -26.0360  -30.6310   21.0780 C   0  0  0  0  0  2  0  0  0  0  0  0
  -26.0590  -29.3300   20.2910 C   0  0  0  0  0  0  0  0  0  0  0  0
  -27.2350  -28.5500   20.1340 C   0  0  0  0  0  3  0  0  0  0  0  0
  -25.9860  -26.9260   18.8350 C   0  0  0  0  0  3  0  0  0  0  0  0
  -24.8180  -27.7000   18.9900 C   0  0  0  0  0  3  0  0  0  0  0  0
  -23.6320  -29.7650   19.9300 C   0  0  0  0  0  2  0  0  0  0  0  0
  -24.8170  -30.8230   21.9080 N   0  0  0  0  0  0  0  0  0  0  0  0
  -23.7930  -31.7330   23.7170 O   0  0  0  0  0  0  0  0  0  0  0  0
  -22.9000  -29.1910   22.2720 C   0  0  0  0  0  0  0  0  0  0  0  0
  -21.5710  -29.0190   22.1830 N   0  0  0  0  0  0  0  0  0  0  0  0
  -23.6160  -28.4940   22.9950 O   0  0  0  0  0  0  0  0  0  0  0  0
  -21.0530  -29.6380   21.5740 H   0  0  0  0  0  0  0  0  0  0  0  0
  -18.2280  -27.7200   22.6430 C   0  0  0  0  0  0  0  0  0  0  0  0
  -20.7860  -28.0070   22.8890 C   0  0  0  0  0  3  0  0  0  0  0  0
  -20.9050  -26.6280   22.1990 C   0  0  0  0  0  2  0  0  0  0  0  0
  -19.7900  -26.3640   21.1830 C   0  0  0  0  0  2  0  0  0  0  0  0
  -18.4180  -26.4320   21.8590 C   0  0  0  0  0  2  0  0  0  0  0  0
  -19.3400  -28.4680   23.1110 C   0  0  0  0  0  0  0  0  0  0  0  0
  -19.1130  -29.6800   23.8020 C   0  0  0  0  0  3  0  0  0  0  0  0
  -17.8030  -30.1380   24.0330 C   0  0  0  0  0  3  0  0  0  0  0  0
  -16.7050  -29.3860   23.5820 C   0  0  0  0  0  3  0  0  0  0  0  0
  -16.9170  -28.1800   22.8900 C   0  0  0  0  0  3  0  0  0  0  0  0
  -26.1670  -32.0540   23.6970 C   0  0  0  0  0  3  0  0  0  0  0  0
  -25.8860  -33.3860   24.2500 N   0  0  0  0  0  0  0  0  0  0  0  0
  -26.1940  -34.5410   23.6480 C   0  0  0  0  0  0  0  0  0  0  0  0
  -26.8180  -34.5970   22.5840 O   0  0  0  0  0  0  0  0  0  0  0  0
  -25.3360  -33.4180   25.0970 H   0  0  0  0  0  0  0  0  0  0  0  0
  -24.4680  -36.3680   23.6520 C   0  0  0  0  0  1  0  0  0  0  0  0
  -25.7380  -35.8410   24.3350 C   0  0  0  0  0  3  0  0  0  0  0  0
  -27.9110  -36.5800   25.2040 C   0  0  0  0  0  1  0  0  0  0  0  0
  -26.7740  -36.8970   24.3440 N   0  0  0  0  0  0  0  0  0  0  0  0
  -26.3820  -37.7820   24.6550 H   0  0  0  0  0  0  0  0  0  0  0  0
  -26.7810  -31.1120   24.8050 C   0  0  1  0  0  0  0  0  0  0  0  0
  -25.7750  -30.7150   25.9110 C   0  0  0  0  0  1  0  0  0  0  0  0
  -27.3280  -29.8130   24.1720 C   0  0  0  0  0  1  0  0  0  0  0  0
  -27.9870  -31.8120   25.4780 C   0  0  0  0  0  1  0  0  0  0  0  0
  -30.1840  -20.0850   24.7490 C   0  0  0  0  0  1  0  0  0  0  0  0
  -30.8080  -20.7780   23.5250 C   0  0  0  0  0  2  0  0  0  0  0  0
  -31.2370  -17.8240   22.8890 C   0  0  0  0  0  1  0  0  0  0  0  0
  -30.5710  -18.1100   21.5140 C   0  0  0  0  0  3  0  0  0  0  0  0
  -31.0630  -15.7080   20.7870 C   0  0  0  0  0  3  0  0  0  0  0  0
  -31.2170  -17.0550   20.5650 C   0  0  0  0  0  3  0  0  0  0  0  0
  -31.6990  -14.5940   20.0490 C   0  0  0  0  0  0  0  0  0  0  0  0
  -31.2860  -12.3990   18.9550 C   0  0  0  0  0  2  0  0  0  0  0  0
  -30.2970  -12.5870   17.7810 C   0  0  0  0  0  2  0  0  0  0  0  0
  -28.8300  -12.5540   18.2590 C   0  0  0  0  0  2  0  0  0  0  0  0
  -28.5960  -13.4410   19.5080 C   0  0  0  0  0  3  0  0  0  0  0  0
  -29.6670  -13.1450   20.5760 C   0  0  0  0  0  2  0  0  0  0  0  0
  -30.9850  -13.4240   19.9750 N   0  0  0  0  0  0  0  0  0  0  0  0
  -32.7960  -14.7030   19.4910 O   0  0  0  0  0  0  0  0  0  0  0  0
  -26.2990  -14.2580   20.3290 C   0  0  0  0  0  0  0  0  0  0  0  0
  -25.1740  -13.5810   20.7140 C   0  0  0  0  0  0  0  0  0  0  0  0
  -25.4960  -12.1920   20.6200 C   0  0  0  0  0  0  0  0  0  0  0  0
  -27.2410  -13.2850   20.0290 N   0  0  0  0  0  0  0  0  0  0  0  0
  -26.7630  -12.0360   20.2570 N   0  0  0  0  0  0  0  0  0  0  0  0
  -24.6550  -11.0010   20.7950 C   0  0  0  0  0  0  0  0  0  0  0  0
  -24.9980   -9.9820   21.7100 C   0  0  0  0  0  3  0  0  0  0  0  0
  -24.1620   -8.8560   21.8740 C   0  0  0  0  0  3  0  0  0  0  0  0
  -22.9680   -8.7450   21.1230 C   0  0  0  0  0  0  0  0  0  0  0  0
  -22.6430   -9.7510   20.1970 C   0  0  0  0  0  3  0  0  0  0  0  0
  -23.4790  -10.8670   20.0300 C   0  0  0  0  0  3  0  0  0  0  0  0
  -22.1080   -7.6760   21.1990 O   0  0  0  0  0  0  0  0  0  0  0  0
  -21.9340   -6.9750   22.3650 C   0  0  0  0  0  0  0  0  0  0  0  0
  -21.5210   -7.6050   23.5600 C   0  0  0  0  0  3  0  0  0  0  0  0
  -21.2860   -6.8350   24.7160 C   0  0  0  0  0  3  0  0  0  0  0  0
  -21.4530   -5.4380   24.6780 C   0  0  0  0  0  0  0  0  0  0  0  0
  -21.8570   -4.8080   23.4870 C   0  0  0  0  0  3  0  0  0  0  0  0
  -22.0940   -5.5750   22.3340 C   0  0  0  0  0  0  0  0  0  0  0  0
  -22.4630   -4.9620   21.1830 F   0  0  0  0  0  0  0  0  0  0  0  0
  -21.2210   -4.6950   25.7860 F   0  0  0  0  0  0  0  0  0  0  0  0
  -23.8430  -14.1840   21.0610 C   0  0  0  0  0  0  0  0  0  0  0  0
  -23.1010  -13.5510   21.9610 N   0  0  0  0  0  0  0  0  0  0  0  0
  -23.4740  -15.2500   20.5680 O   0  0  0  0  0  0  0  0  0  0  0  0
  -23.4120  -12.6870   22.3820 H   0  0  0  0  0  0  0  0  0  0  0  0
  -22.2090  -13.9360   22.2370 H   0  0  0  0  0  0  0  0  0  0  0  0
  -26.5960  -15.6100   20.1910 N   0  0  0  0  0  0  0  0  0  0  0  0
  -25.9040  -16.3350   20.3410 H   0  0  0  0  0  0  0  0  0  0  0  0
  -27.4800  -15.9710   19.8540 H   0  0  0  0  0  0  0  0  0  0  0  0
  1  5  1  0
  2  6  1  0
  3  1  1  0
  3  5  1  0
  3  4  1  0
  4 55  1  0
  4  6  1  0
  5  8  1  6
  5  2  1  0
  6  7  1  1
  6 53  1  0
  8  9  2  0
 10 11  1  0
 10  9  1  0
 11 13  1  0
 12 23  2  0
 13 18  1  0
 14 22  1  0
 14 24  1  0
 15 21  1  0
 15 17  1  0
 16 22  1  0
 17 16  1  0
 18 17  2  0
 19 20  1  0
 19 13  2  0
 20 15  2  0
 21 14  1  0
 22 12  1  0
 24 26  2  0
 25 24  1  0
 27 25  1  0
 28 37  2  0
 28 33  1  0
 29 25  1  0
 29 33  1  0
 30 29  1  0
 31 32  1  0
 31 30  1  0
 32 28  1  0
 33 34  2  0
 34 35  1  0
 36 35  2  0
 37 36  1  0
 38 12  1  0
 38 39  1  0
 38 48  1  0
 39 42  1  0
 40 39  1  0
 40 44  1  0
 41 40  2  0
 44 43  1  0
 44 46  1  0
 46 47  1  0
 46 45  1  0
 48 51  1  1
 48 49  1  0
 50 48  1  0
 53 52  1  0
 55 54  1  0
 57 56  2  0
 57 55  1  0
 58 56  1  0
 59 64  1  0
 60 61  1  0
 60 59  1  0
 62 61  1  0
 62 69  1  0
 62 63  1  0
 64 58  1  0
 64 63  1  0
 65 58  2  0
 66 67  2  0
 67 86  1  0
 68 67  1  0
 68 71  1  0
 69 70  1  0
 69 66  1  0
 70 68  2  0
 71 72  1  0
 72 73  2  0
 74 77  1  0
 74 73  1  0
 75 74  2  0
 76 75  1  0
 76 71  2  0
 77 78  1  0
 78 79  1  0
 79 80  2  0
 81 80  1  0
 81 85  1  0
 82 81  2  0
 83 78  2  0
 83 82  1  0
 84 83  1  0
 86 87  1  0
 87 90  1  0
 87 89  1  0
 88 86  2  0
 91 66  1  0
 91 92  1  0
 93 91  1  0
M  ISO  4  10 101  11 101  56 100  58 100
M  END
>  <TORSDO>  (70) 
F 21

>  <SCORE>  (70) 
-11.101

>  <name>  (70) 
69

>  <ligand_id>  (70) 
69

>  <original_smiles>  (70) 
[H]C(C(=O)N1C([H])([H])C([H])([H])C([H])([H])C([H])(n2nc(-c3c([H])c([H])c(Oc4c([H])c([H])c(F)c([H])c4F)c([H])c3[H])c(C(=O)N([H])[H])c2N([H])[H])C1([H])[H])=C([H])C([H])(C([H])([H])[H])C1([H])C2([H])C([H])([H])C2(C([H])=C([H])C([H])([H])Oc2c([H])c([H])c3c(c2[H])C([H])([H])N(C(=O)C([H])(N([H])C(=O)C([H])(N([H])C([H])([H])[H])C([H])([H])[H])C(C([H])([H])[H])(C([H])([H])[H])C([H])([H])[H])C([H])(C(=O)N([H])C2([H])c4c([H])c([H])c([H])c([H])c4C([H])([H])C([H])([H])C2([H])[H])C3([H])[H])C([H])([H])[N+]1([H])C([H])([H])C([H])([H])[H]

>  <smiles>  (70) 
[H]C(C(=O)N1C([H])([H])C([H])([H])C([H])([H])C([H])(n2nc(-c3c([H])c([H])c(Oc4c([H])c([H])c(F)c([H])c4F)c([H])c3[H])c(C(=O)N([H])[H])c2N([H])[H])C1([H])[H])=C([H])C([H])(C([H])([H])[H])C1([H])C2([H])C([H])([H])C2(C([H])=C([H])C([H])([H])Oc2c([H])c([H])c3c(c2[H])C([H])([H])N(C(=O)C([H])(N([H])C(=O)C([H])(N([H])C([H])([H])[H])C([H])([H])[H])C(C([H])([H])[H])(C([H])([H])[H])C([H])([H])[H])C([H])(C(=O)N([H])C2([H])c4c([H])c([H])c([H])c([H])c4C([H])([H])C([H])([H])C2([H])[H])C3([H])[H])C([H])([H])[N+]1([H])C([H])([H])C([H])([H])[H]

$$$$
70:0:0
     RDKit          3D

 95104  0  0  1  0  0  0  0  0999 V2000
  -30.1020  -19.4220   19.8250 C   0  0  0  0  0  0  0  0  0  0  0  0
  -30.0700  -18.0170   19.7810 C   0  0  0  0  0  3  0  0  0  0  0  0
  -31.3070  -20.0840   19.1720 C   0  0  0  0  0  2  0  0  0  0  0  0
  -32.3040  -20.5120   20.2710 C   0  0  0  0  0  2  0  0  0  0  0  0
  -32.0600  -22.1150   23.8400 C   0  0  0  0  0  2  0  0  0  0  0  0
  -30.7700  -21.4190   24.3000 C   0  0  0  0  0  2  0  0  0  0  0  0
  -32.6630  -21.4040   22.6200 C   0  0  0  0  0  2  0  0  0  0  0  0
  -29.7340  -21.3750   23.1690 C   0  0  0  0  0  2  0  0  0  0  0  0
  -29.3450  -20.5470   20.6810 C   0  0  0  0  0  3  0  0  0  0  0  0
  -31.6810  -21.3340   21.4320 C   0  0  0  0  0  3  0  0  0  0  0  0
  -30.3170  -20.7350   21.8850 C   0  0  0  0  0  3  0  0  0  0  0  0
  -29.0020  -21.8990   19.9560 N   0  0  0  0  0  4  0  0  0  0  0  0
  -28.1930  -21.7040   19.3850 H   0  0  0  0  0  0  0  0  0  0  0  0
  -29.7530  -22.0540   19.3020 H   0  0  0  0  0  0  0  0  0  0  0  0
  -28.7560  -23.2650   20.6860 C   0  0  0  0  0  3  0  0  0  0  0  0
  -28.1850  -24.5800   19.8900 C   0  0  0  0  0  3  0  0  0  0  0  0
  -28.2090  -25.9950   20.4710 O   0  0  0  0  0  0  0  0  0  0  0  0
  -24.5440  -31.6840   23.2240 C   0  0  0  0  0  0  0  0  0  0  0  0
  -27.1410  -26.9310   20.3330 C   0  0  0  0  0  0  0  0  0  0  0  0
  -23.3730  -30.2870   21.5640 C   0  0  0  0  0  3  0  0  0  0  0  0
  -24.8380  -28.6750   20.2120 C   0  0  0  0  0  0  0  0  0  0  0  0
  -25.9320  -30.5100   21.4890 C   0  0  0  0  0  2  0  0  0  0  0  0
  -25.9980  -29.1140   20.8610 C   0  0  0  0  0  0  0  0  0  0  0  0
  -27.1470  -28.2530   20.9150 C   0  0  0  0  0  3  0  0  0  0  0  0
  -25.9610  -26.5850   19.6330 C   0  0  0  0  0  3  0  0  0  0  0  0
  -24.8290  -27.4220   19.5870 C   0  0  0  0  0  3  0  0  0  0  0  0
  -23.6280  -29.5900   20.2020 C   0  0  0  0  0  2  0  0  0  0  0  0
  -24.6340  -30.8470   22.1490 N   0  0  0  0  0  0  0  0  0  0  0  0
  -23.4460  -32.0020   23.7050 O   0  0  0  0  0  0  0  0  0  0  0  0
  -22.6400  -29.3060   22.5120 C   0  0  0  0  0  0  0  0  0  0  0  0
  -21.3150  -29.1650   22.3370 N   0  0  0  0  0  0  0  0  0  0  0  0
  -23.2670  -28.6760   23.3680 O   0  0  0  0  0  0  0  0  0  0  0  0
  -20.8710  -29.7190   21.6170 H   0  0  0  0  0  0  0  0  0  0  0  0
  -17.8830  -28.0910   22.7400 C   0  0  0  0  0  0  0  0  0  0  0  0
  -20.4390  -28.2660   23.0900 C   0  0  0  0  0  3  0  0  0  0  0  0
  -20.5120  -26.8270   22.5260 C   0  0  0  0  0  2  0  0  0  0  0  0
  -19.4320  -26.5350   21.4810 C   0  0  0  0  0  2  0  0  0  0  0  0
  -18.0360  -26.7310   22.0790 C   0  0  0  0  0  2  0  0  0  0  0  0
  -19.0130  -28.8190   23.2000 C   0  0  0  0  0  0  0  0  0  0  0  0
  -18.8170  -30.0930   23.7760 C   0  0  0  0  0  3  0  0  0  0  0  0
  -17.5240  -30.6380   23.9000 C   0  0  0  0  0  3  0  0  0  0  0  0
  -16.4080  -29.9050   23.4580 C   0  0  0  0  0  3  0  0  0  0  0  0
  -16.5880  -28.6350   22.8830 C   0  0  0  0  0  3  0  0  0  0  0  0
  -25.8120  -32.2980   23.8890 C   0  0  0  0  0  3  0  0  0  0  0  0
  -26.2730  -31.5190   25.1820 C   0  0  1  0  0  0  0  0  0  0  0  0
  -25.1360  -31.2850   26.2030 C   0  0  0  0  0  1  0  0  0  0  0  0
  -26.8580  -30.1370   24.8120 C   0  0  0  0  0  1  0  0  0  0  0  0
  -27.4040  -32.3010   25.8890 C   0  0  0  0  0  1  0  0  0  0  0  0
  -25.5150  -33.7020   24.2110 N   0  0  0  0  0  0  0  0  0  0  0  0
  -25.8600  -34.7500   23.4490 C   0  0  0  0  0  0  0  0  0  0  0  0
  -26.5320  -34.6360   22.4220 O   0  0  0  0  0  0  0  0  0  0  0  0
  -24.9220  -33.8660   25.0100 H   0  0  0  0  0  0  0  0  0  0  0  0
  -24.1390  -36.5520   23.0990 C   0  0  0  0  0  1  0  0  0  0  0  0
  -25.3860  -36.1460   23.9010 C   0  0  0  0  0  3  0  0  0  0  0  0
  -27.5290  -37.0310   24.7110 C   0  0  0  0  0  1  0  0  0  0  0  0
  -26.4240  -37.1920   23.7700 N   0  0  0  0  0  0  0  0  0  0  0  0
  -26.0220  -38.1150   23.9080 H   0  0  0  0  0  0  0  0  0  0  0  0
  -29.2550  -16.9520   20.4510 C   0  0  0  0  0  3  0  0  0  0  0  0
  -29.2500  -15.5480   20.4700 C   0  0  0  0  0  3  0  0  0  0  0  0
  -30.0930  -14.4310   19.8760 C   0  0  0  0  0  0  0  0  0  0  0  0
  -29.9780  -12.1000   18.9330 C   0  0  0  0  0  2  0  0  0  0  0  0
  -28.9390  -12.1260   17.7860 C   0  0  0  0  0  2  0  0  0  0  0  0
  -27.5080  -11.9020   18.3200 C   0  0  0  0  0  2  0  0  0  0  0  0
  -27.2060  -12.7660   19.5750 C   0  0  0  0  0  3  0  0  0  0  0  0
  -28.3580  -12.6850   20.5980 C   0  0  0  0  0  2  0  0  0  0  0  0
  -29.5820  -13.1400   19.9150 N   0  0  0  0  0  0  0  0  0  0  0  0
  -31.1850  -14.6140   19.3270 O   0  0  0  0  0  0  0  0  0  0  0  0
  -24.8790  -13.2880   20.5160 C   0  0  0  0  0  0  0  0  0  0  0  0
  -23.8680  -12.4850   20.9680 C   0  0  0  0  0  0  0  0  0  0  0  0
  -24.3550  -11.1450   20.8700 C   0  0  0  0  0  0  0  0  0  0  0  0
  -25.9170  -12.4370   20.1720 N   0  0  0  0  0  0  0  0  0  0  0  0
  -25.6130  -11.1410   20.4410 N   0  0  0  0  0  0  0  0  0  0  0  0
  -23.6750   -9.8650   21.1070 C   0  0  0  0  0  0  0  0  0  0  0  0
  -24.1880   -8.9120   22.0130 C   0  0  0  0  0  3  0  0  0  0  0  0
  -23.5040   -7.6960   22.2370 C   0  0  0  0  0  3  0  0  0  0  0  0
  -22.2940   -7.4280   21.5560 C   0  0  0  0  0  0  0  0  0  0  0  0
  -21.8010   -8.3710   20.6370 C   0  0  0  0  0  3  0  0  0  0  0  0
  -22.4850   -9.5760   20.4110 C   0  0  0  0  0  3  0  0  0  0  0  0
  -21.5740   -6.2640   21.6900 O   0  0  0  0  0  0  0  0  0  0  0  0
  -21.6030   -5.5310   22.8500 C   0  0  0  0  0  0  0  0  0  0  0  0
  -21.1850   -6.0700   24.0860 C   0  0  0  0  0  3  0  0  0  0  0  0
  -21.1670   -5.2590   25.2380 C   0  0  0  0  0  3  0  0  0  0  0  0
  -21.5560   -3.9080   25.1540 C   0  0  0  0  0  0  0  0  0  0  0  0
  -21.9660   -3.3680   23.9230 C   0  0  0  0  0  3  0  0  0  0  0  0
  -21.9880   -4.1770   22.7750 C   0  0  0  0  0  0  0  0  0  0  0  0
  -22.3640   -3.6450   21.5860 F   0  0  0  0  0  0  0  0  0  0  0  0
  -21.5320   -3.1260   26.2590 F   0  0  0  0  0  0  0  0  0  0  0  0
  -22.4940  -12.9270   21.3790 C   0  0  0  0  0  0  0  0  0  0  0  0
  -21.8620  -12.1990   22.2930 N   0  0  0  0  0  0  0  0  0  0  0  0
  -21.9910  -13.9550   20.9250 O   0  0  0  0  0  0  0  0  0  0  0  0
  -22.2810  -11.3650   22.6790 H   0  0  0  0  0  0  0  0  0  0  0  0
  -20.9450  -12.4760   22.6110 H   0  0  0  0  0  0  0  0  0  0  0  0
  -24.9930  -14.6650   20.3470 N   0  0  0  0  0  0  0  0  0  0  0  0
  -24.2180  -15.2940   20.5290 H   0  0  0  0  0  0  0  0  0  0  0  0
  -25.8030  -15.1340   19.9590 H   0  0  0  0  0  0  0  0  0  0  0  0
  1  9  1  0
  2  1  2  0
  2 58  1  0
  3  1  1  0
  3  4  1  0
  5  6  1  0
  7  5  1  0
  8  6  1  0
  9 12  1  0
  9 11  1  0
 10  4  1  0
 10 11  1  0
 10  7  1  0
 11  8  1  0
 12 15  1  0
 13 12  1  0
 14 12  1  0
 16 17  1  0
 16 15  2  0
 18 29  2  0
 19 17  1  0
 19 24  1  0
 20 28  1  0
 20 30  1  0
 21 23  1  0
 22 28  1  0
 23 24  2  0
 23 22  1  0
 25 19  2  0
 26 25  1  0
 26 21  2  0
 27 21  1  0
 27 20  1  0
 28 18  1  0
 30 32  2  0
 31 30  1  0
 33 31  1  0
 34 43  2  0
 34 39  1  0
 35 31  1  0
 35 39  1  0
 36 35  1  0
 37 38  1  0
 37 36  1  0
 38 34  1  0
 39 40  2  0
 40 41  1  0
 42 41  2  0
 43 42  1  0
 44 18  1  0
 44 49  1  0
 44 45  1  0
 45 48  1  1
 45 46  1  0
 47 45  1  0
 49 52  1  0
 50 54  1  0
 50 49  1  0
 51 50  2  0
 54 53  1  0
 56 54  1  0
 56 57  1  0
 56 55  1  0
 58 59  2  0
 60 66  1  0
 60 59  1  0
 61 66  1  0
 62 63  1  0
 62 61  1  0
 64 63  1  0
 64 71  1  0
 64 65  1  0
 66 65  1  0
 67 60  2  0
 68 69  2  0
 69 88  1  0
 70 69  1  0
 70 73  1  0
 71 72  1  0
 71 68  1  0
 72 70  2  0
 73 74  1  0
 74 75  2  0
 76 79  1  0
 76 75  1  0
 77 76  2  0
 78 77  1  0
 78 73  2  0
 79 80  1  0
 80 81  1  0
 81 82  2  0
 83 82  1  0
 83 87  1  0
 84 83  2  0
 85 80  2  0
 85 84  1  0
 86 85  1  0
 88 89  1  0
 89 92  1  0
 89 91  1  0
 90 88  2  0
 93 68  1  0
 93 94  1  0
 95 93  1  0
M  ISO  4  16 101  17 101  59 100  60 100
M  END
>  <TORSDO>  (71) 
F 20

>  <SCORE>  (71) 
-11.662

>  <name>  (71) 
70

>  <ligand_id>  (71) 
70

>  <original_smiles>  (71) 
[H]C(C(=O)N1C([H])([H])C([H])([H])C([H])([H])C([H])(n2nc(-c3c([H])c([H])c(Oc4c([H])c([H])c(F)c([H])c4F)c([H])c3[H])c(C(=O)N([H])[H])c2N([H])[H])C1([H])[H])=C([H])C([H])=C1C([H])([H])C([H])([H])C2([H])C([H])([H])C([H])([H])C([H])([H])C([H])([H])C2([H])C1([H])[N+]([H])([H])C([H])([H])C([H])([H])Oc1c([H])c([H])c2c(c1[H])C([H])([H])N(C(=O)C([H])(N([H])C(=O)C([H])(N([H])C([H])([H])[H])C([H])([H])[H])C(C([H])([H])[H])(C([H])([H])[H])C([H])([H])[H])C([H])(C(=O)N([H])C1([H])c3c([H])c([H])c([H])c([H])c3C([H])([H])C([H])([H])C1([H])[H])C2([H])[H]

>  <smiles>  (71) 
[H]C(C(=O)N1C([H])([H])C([H])([H])C([H])([H])C([H])(n2nc(-c3c([H])c([H])c(Oc4c([H])c([H])c(F)c([H])c4F)c([H])c3[H])c(C(=O)N([H])[H])c2N([H])[H])C1([H])[H])=C([H])C([H])=C1C([H])([H])C([H])([H])C2([H])C([H])([H])C([H])([H])C([H])([H])C([H])([H])C2([H])C1([H])[N+]([H])([H])C([H])([H])C([H])([H])Oc1c([H])c([H])c2c(c1[H])C([H])([H])N(C(=O)C([H])(N([H])C(=O)C([H])(N([H])C([H])([H])[H])C([H])([H])[H])C(C([H])([H])[H])(C([H])([H])[H])C([H])([H])[H])C([H])(C(=O)N([H])C1([H])c3c([H])c([H])c([H])c([H])c3C([H])([H])C([H])([H])C1([H])[H])C2([H])[H]

$$$$
71:0:0
     RDKit          3D

 92100  0  0  1  0  0  0  0  0999 V2000
  -29.9050  -24.7650   19.3530 C   0  0  0  0  0  2  0  0  0  0  0  0
  -30.0170  -23.2300   19.1730 C   0  0  0  0  0  2  0  0  0  0  0  0
  -28.1190  -23.7680   20.4910 C   0  0  0  0  0  2  0  0  0  0  0  0
  -28.4380  -25.0800   19.6490 C   0  0  0  0  0  3  0  0  0  0  0  0
  -28.8650  -22.5890   19.8600 N   0  0  2  0  0  4  0  0  0  0  0  0
  -28.2620  -22.2950   19.1030 H   0  0  0  0  0  0  0  0  0  0  0  0
  -30.0690  -21.5280   21.8490 C   0  0  0  0  0  1  0  0  0  0  0  0
  -29.1270  -21.2790   20.6530 C   0  0  0  0  0  3  0  0  0  0  0  0
  -30.9120  -20.1130   19.1000 C   0  0  0  0  0  1  0  0  0  0  0  0
  -29.5670  -19.9260   19.8420 C   0  0  0  0  0  3  0  0  0  0  0  0
  -29.7770  -17.3090   20.1620 C   0  0  0  0  0  0  0  0  0  0  0  0
  -29.6620  -18.6130   20.6280 N   0  0  0  0  0  0  0  0  0  0  0  0
  -29.7630  -17.0960   18.9480 O   0  0  0  0  0  0  0  0  0  0  0  0
  -29.6510  -18.7140   21.6350 H   0  0  0  0  0  0  0  0  0  0  0  0
  -29.8480  -16.0610   21.1580 C   0  0  0  0  0  2  0  0  0  0  0  0
  -30.5830  -14.7360   20.6220 C   0  0  0  0  0  0  0  0  0  0  0  0
  -30.4180  -12.4570   19.5970 C   0  0  0  0  0  2  0  0  0  0  0  0
  -29.5200  -12.5530   18.3430 C   0  0  0  0  0  2  0  0  0  0  0  0
  -28.0340  -12.3920   18.7190 C   0  0  0  0  0  2  0  0  0  0  0  0
  -27.6310  -13.2700   19.9330 C   0  0  0  0  0  3  0  0  0  0  0  0
  -28.6510  -13.1480   21.0850 C   0  0  0  0  0  2  0  0  0  0  0  0
  -29.9700  -13.5020   20.5450 N   0  0  0  0  0  0  0  0  0  0  0  0
  -31.7540  -14.8360   20.2350 O   0  0  0  0  0  0  0  0  0  0  0  0
  -25.2170  -13.8730   20.5650 C   0  0  0  0  0  0  0  0  0  0  0  0
  -24.1380  -13.1060   20.9110 C   0  0  0  0  0  0  0  0  0  0  0  0
  -24.6010  -11.7530   20.9150 C   0  0  0  0  0  0  0  0  0  0  0  0
  -26.2680  -12.9900   20.3780 N   0  0  0  0  0  0  0  0  0  0  0  0
  -25.9010  -11.7100   20.6490 N   0  0  0  0  0  0  0  0  0  0  0  0
  -23.8650  -10.4950   21.1000 C   0  0  0  0  0  0  0  0  0  0  0  0
  -24.2890   -9.5240   22.0340 C   0  0  0  0  0  3  0  0  0  0  0  0
  -23.5550   -8.3300   22.2080 C   0  0  0  0  0  3  0  0  0  0  0  0
  -22.3850   -8.1000   21.4470 C   0  0  0  0  0  0  0  0  0  0  0  0
  -21.9810   -9.0590   20.5020 C   0  0  0  0  0  3  0  0  0  0  0  0
  -22.7150  -10.2440   20.3260 C   0  0  0  0  0  3  0  0  0  0  0  0
  -21.6240   -6.9590   21.5290 O   0  0  0  0  0  0  0  0  0  0  0  0
  -21.5890   -6.1970   22.6690 C   0  0  0  0  0  0  0  0  0  0  0  0
  -21.2160   -6.7400   23.9180 C   0  0  0  0  0  3  0  0  0  0  0  0
  -21.1270   -5.9060   25.0500 C   0  0  0  0  0  3  0  0  0  0  0  0
  -21.4000   -4.5300   24.9350 C   0  0  0  0  0  0  0  0  0  0  0  0
  -21.7660   -3.9860   23.6920 C   0  0  0  0  0  3  0  0  0  0  0  0
  -21.8580   -4.8170   22.5620 C   0  0  0  0  0  0  0  0  0  0  0  0
  -22.1890   -4.2830   21.3610 F   0  0  0  0  0  0  0  0  0  0  0  0
  -21.3070   -3.7270   26.0220 F   0  0  0  0  0  0  0  0  0  0  0  0
  -22.7330  -13.5870   21.1280 C   0  0  0  0  0  0  0  0  0  0  0  0
  -21.9760  -12.9070   21.9810 N   0  0  0  0  0  0  0  0  0  0  0  0
  -22.3130  -14.6030   20.5730 O   0  0  0  0  0  0  0  0  0  0  0  0
  -22.3270  -12.0890   22.4550 H   0  0  0  0  0  0  0  0  0  0  0  0
  -21.0300  -13.2090   22.1640 H   0  0  0  0  0  0  0  0  0  0  0  0
  -25.3880  -15.2410   20.3740 N   0  0  0  0  0  0  0  0  0  0  0  0
  -24.6150  -15.8950   20.4470 H   0  0  0  0  0  0  0  0  0  0  0  0
  -26.2430  -15.6770   20.0530 H   0  0  0  0  0  0  0  0  0  0  0  0
  -28.3610  -26.4740   20.1880 O   0  0  0  0  0  0  0  0  0  0  0  0
  -24.6390  -31.8870   23.1920 C   0  0  0  0  0  0  0  0  0  0  0  0
  -27.2190  -27.2950   20.1300 C   0  0  0  0  0  0  0  0  0  0  0  0
  -23.4190  -30.4810   21.5700 C   0  0  0  0  0  3  0  0  0  0  0  0
  -24.8530  -28.9150   20.1390 C   0  0  0  0  0  0  0  0  0  0  0  0
  -25.9560  -30.7920   21.3590 C   0  0  0  0  0  2  0  0  0  0  0  0
  -26.0260  -29.4070   20.7200 C   0  0  0  0  0  0  0  0  0  0  0  0
  -27.2080  -28.6060   20.7070 C   0  0  0  0  0  3  0  0  0  0  0  0
  -26.0180  -26.8520   19.5350 C   0  0  0  0  0  3  0  0  0  0  0  0
  -24.8510  -27.6440   19.5390 C   0  0  0  0  0  3  0  0  0  0  0  0
  -23.6190  -29.7930   20.1930 C   0  0  0  0  0  2  0  0  0  0  0  0
  -24.6910  -31.0730   22.0970 N   0  0  0  0  0  0  0  0  0  0  0  0
  -23.5610  -32.1680   23.7360 O   0  0  0  0  0  0  0  0  0  0  0  0
  -22.7640  -29.4720   22.5440 C   0  0  0  0  0  0  0  0  0  0  0  0
  -21.4350  -29.2980   22.4340 N   0  0  0  0  0  0  0  0  0  0  0  0
  -23.4490  -28.8490   23.3590 O   0  0  0  0  0  0  0  0  0  0  0  0
  -20.9400  -29.8520   21.7480 H   0  0  0  0  0  0  0  0  0  0  0  0
  -18.0620  -28.1000   22.9650 C   0  0  0  0  0  0  0  0  0  0  0  0
  -20.6220  -28.3660   23.2170 C   0  0  0  0  0  3  0  0  0  0  0  0
  -20.7230  -26.9300   22.6510 C   0  0  0  0  0  2  0  0  0  0  0  0
  -19.6160  -26.5980   21.6470 C   0  0  0  0  0  2  0  0  0  0  0  0
  -18.2380  -26.7460   22.2980 C   0  0  0  0  0  2  0  0  0  0  0  0
  -19.1830  -28.8680   23.3820 C   0  0  0  0  0  0  0  0  0  0  0  0
  -18.9640  -30.1350   23.9650 C   0  0  0  0  0  3  0  0  0  0  0  0
  -17.6600  -30.6350   24.1360 C   0  0  0  0  0  3  0  0  0  0  0  0
  -16.5540  -29.8640   23.7350 C   0  0  0  0  0  3  0  0  0  0  0  0
  -16.7570  -28.5990   23.1550 C   0  0  0  0  0  3  0  0  0  0  0  0
  -25.9280  -32.5220   23.8000 C   0  0  0  0  0  3  0  0  0  0  0  0
  -26.4710  -31.7390   25.0580 C   0  0  1  0  0  0  0  0  0  0  0  0
  -25.4010  -31.4850   26.1440 C   0  0  0  0  0  1  0  0  0  0  0  0
  -27.0520  -30.3680   24.6380 C   0  0  0  0  0  1  0  0  0  0  0  0
  -27.6310  -32.5300   25.7080 C   0  0  0  0  0  1  0  0  0  0  0  0
  -25.6120  -33.9140   24.1560 N   0  0  0  0  0  0  0  0  0  0  0  0
  -25.9230  -34.9810   23.4080 C   0  0  0  0  0  0  0  0  0  0  0  0
  -26.5730  -34.8980   22.3630 O   0  0  0  0  0  0  0  0  0  0  0  0
  -25.0320  -34.0510   24.9700 H   0  0  0  0  0  0  0  0  0  0  0  0
  -24.1730  -36.7650   23.1190 C   0  0  0  0  0  1  0  0  0  0  0  0
  -25.4350  -36.3600   23.8960 C   0  0  0  0  0  3  0  0  0  0  0  0
  -27.5840  -37.2490   24.6830 C   0  0  0  0  0  1  0  0  0  0  0  0
  -26.4570  -37.4230   23.7730 N   0  0  0  0  0  0  0  0  0  0  0  0
  -26.0470  -38.3370   23.9460 H   0  0  0  0  0  0  0  0  0  0  0  0
  1  4  1  0
  2  1  1  0
  2  5  1  0
  4 52  1  0
  4  3  1  0
  5  3  1  0
  5  8  1  0
  5  6  1  6
  8  7  1  0
 10  9  1  0
 10 12  1  0
 10  8  1  0
 11 12  1  0
 11 15  1  0
 12 14  1  0
 13 11  2  0
 16 15  1  0
 17 22  1  0
 18 19  1  0
 18 17  1  0
 20 19  1  0
 20 27  1  0
 20 21  1  0
 22 16  1  0
 22 21  1  0
 23 16  2  0
 24 25  2  0
 25 26  1  0
 25 44  1  0
 26 29  1  0
 27 24  1  0
 27 28  1  0
 28 26  2  0
 29 30  1  0
 30 31  2  0
 32 35  1  0
 32 31  1  0
 33 32  2  0
 34 33  1  0
 34 29  2  0
 35 36  1  0
 36 37  1  0
 37 38  2  0
 39 38  1  0
 39 43  1  0
 40 39  2  0
 41 36  2  0
 41 40  1  0
 42 41  1  0
 44 45  1  0
 45 48  1  0
 45 47  1  0
 46 44  2  0
 49 50  1  0
 49 24  1  0
 51 49  1  0
 53 64  2  0
 54 52  1  0
 54 59  1  0
 55 63  1  0
 55 65  1  0
 56 62  1  0
 56 58  1  0
 57 63  1  0
 58 57  1  0
 59 58  2  0
 60 61  1  0
 60 54  2  0
 61 56  2  0
 62 55  1  0
 63 53  1  0
 65 67  2  0
 66 65  1  0
 68 66  1  0
 69 78  2  0
 69 74  1  0
 70 66  1  0
 70 74  1  0
 71 70  1  0
 72 73  1  0
 72 71  1  0
 73 69  1  0
 74 75  2  0
 75 76  1  0
 77 76  2  0
 78 77  1  0
 79 53  1  0
 79 84  1  0
 79 80  1  0
 80 83  1  1
 80 81  1  0
 82 80  1  0
 84 87  1  0
 85 89  1  0
 85 84  1  0
 86 85  2  0
 89 88  1  0
 91 89  1  0
 91 92  1  0
 91 90  1  0
M  ISO  4   4 101  15 100  16 100  52 101
M  END
>  <TORSDO>  (72) 
F 20

>  <SCORE>  (72) 
-13.927

>  <name>  (72) 
71

>  <ligand_id>  (72) 
71

>  <original_smiles>  (72) 
[H]c1c([H])c([H])c2c(c1[H])C([H])([H])C([H])([H])C([H])([H])C2([H])N([H])C(=O)C1([H])N(C(=O)C([H])(N([H])C(=O)C([H])(N([H])C([H])([H])[H])C([H])([H])[H])C(C([H])([H])[H])(C([H])([H])[H])C([H])([H])[H])C([H])([H])c2c([H])c(OC3([H])C([H])([H])C([H])([H])[N+]([H])(C([H])(C([H])([H])[H])C([H])(N([H])C(=O)C([H])([H])C(=O)N4C([H])([H])C([H])([H])C([H])([H])C([H])(n5nc(-c6c([H])c([H])c(Oc7c([H])c([H])c(F)c([H])c7F)c([H])c6[H])c(C(=O)N([H])[H])c5N([H])[H])C4([H])[H])C([H])([H])[H])C3([H])[H])c([H])c([H])c2C1([H])[H]

>  <smiles>  (72) 
[H]c1c([H])c([H])c2c(c1[H])C([H])([H])C([H])([H])C([H])([H])C2([H])N([H])C(=O)C1([H])N(C(=O)C([H])(N([H])C(=O)C([H])(N([H])C([H])([H])[H])C([H])([H])[H])C(C([H])([H])[H])(C([H])([H])[H])C([H])([H])[H])C([H])([H])c2c([H])c(OC3([H])C([H])([H])C([H])([H])[N+]([H])(C([H])(C([H])([H])[H])C([H])(N([H])C(=O)C([H])([H])C(=O)N4C([H])([H])C([H])([H])C([H])([H])C([H])(n5nc(-c6c([H])c([H])c(Oc7c([H])c([H])c(F)c([H])c7F)c([H])c6[H])c(C(=O)N([H])[H])c5N([H])[H])C4([H])[H])C([H])([H])[H])C3([H])[H])c([H])c([H])c2C1([H])[H]

$$$$
72:0:0
     RDKit          3D

 86 94  0  0  1  0  0  0  0  0999 V2000
  -28.3230  -22.2870   21.8850 C   0  0  0  0  0  2  0  0  0  0  0  0
  -27.5740  -23.6230   21.6720 C   0  0  0  0  0  2  0  0  0  0  0  0
  -28.9680  -22.1950   20.4910 C   0  0  0  0  0  3  0  0  0  0  0  0
  -28.0220  -23.8550   20.2240 C   0  0  0  0  0  3  0  0  0  0  0  0
  -29.6590  -19.1250   20.3220 C   0  0  0  0  0  0  0  0  0  0  0  0
  -28.8700  -20.4550   20.1380 N   0  0  0  0  0  0  0  0  0  0  0  0
  -30.8070  -19.3230   20.7270 O   0  0  0  0  0  0  0  0  0  0  0  0
  -27.9630  -20.2440   19.7420 H   0  0  0  0  0  0  0  0  0  0  0  0
  -29.3070  -17.3080   20.1390 C   0  0  0  0  0  2  0  0  0  0  0  0
  -30.2430  -15.6880   20.1230 C   0  0  0  0  0  0  0  0  0  0  0  0
  -30.3870  -13.1350   19.3440 C   0  0  0  0  0  2  0  0  0  0  0  0
  -29.4780  -12.7630   18.1300 C   0  0  0  0  0  2  0  0  0  0  0  0
  -28.0620  -12.3930   18.5980 C   0  0  0  0  0  2  0  0  0  0  0  0
  -27.5540  -13.3910   19.6600 C   0  0  0  0  0  3  0  0  0  0  0  0
  -28.5900  -13.6960   20.7650 C   0  0  0  0  0  2  0  0  0  0  0  0
  -29.7790  -14.3010   20.1210 N   0  0  0  0  0  0  0  0  0  0  0  0
  -31.4750  -15.6560   19.9290 O   0  0  0  0  0  0  0  0  0  0  0  0
  -25.2000  -13.9050   20.4700 C   0  0  0  0  0  0  0  0  0  0  0  0
  -24.1530  -13.1150   20.8510 C   0  0  0  0  0  0  0  0  0  0  0  0
  -24.6330  -11.7690   20.8050 C   0  0  0  0  0  0  0  0  0  0  0  0
  -26.2460  -13.0420   20.1960 N   0  0  0  0  0  0  0  0  0  0  0  0
  -25.9200  -11.7510   20.4690 N   0  0  0  0  0  0  0  0  0  0  0  0
  -23.9180  -10.5010   21.0030 C   0  0  0  0  0  0  0  0  0  0  0  0
  -24.3670   -9.5320   21.9280 C   0  0  0  0  0  3  0  0  0  0  0  0
  -23.6490   -8.3320   22.1130 C   0  0  0  0  0  3  0  0  0  0  0  0
  -22.4660   -8.0900   21.3740 C   0  0  0  0  0  0  0  0  0  0  0  0
  -22.0370   -9.0460   20.4370 C   0  0  0  0  0  3  0  0  0  0  0  0
  -22.7550  -10.2390   20.2500 C   0  0  0  0  0  3  0  0  0  0  0  0
  -21.7170   -6.9410   21.4690 O   0  0  0  0  0  0  0  0  0  0  0  0
  -21.6860   -6.1940   22.6200 C   0  0  0  0  0  0  0  0  0  0  0  0
  -21.2670   -6.7420   23.8520 C   0  0  0  0  0  3  0  0  0  0  0  0
  -21.1850   -5.9220   24.9950 C   0  0  0  0  0  3  0  0  0  0  0  0
  -21.5110   -4.5550   24.9070 C   0  0  0  0  0  0  0  0  0  0  0  0
  -21.9240   -4.0070   23.6810 C   0  0  0  0  0  3  0  0  0  0  0  0
  -22.0090   -4.8240   22.5400 C   0  0  0  0  0  0  0  0  0  0  0  0
  -22.3870   -4.2860   21.3560 F   0  0  0  0  0  0  0  0  0  0  0  0
  -21.4260   -3.7660   26.0050 F   0  0  0  0  0  0  0  0  0  0  0  0
  -22.7550  -13.5760   21.1370 C   0  0  0  0  0  0  0  0  0  0  0  0
  -22.0450  -12.8730   22.0120 N   0  0  0  0  0  0  0  0  0  0  0  0
  -22.3020  -14.5980   20.6250 O   0  0  0  0  0  0  0  0  0  0  0  0
  -22.4300  -12.0520   22.4560 H   0  0  0  0  0  0  0  0  0  0  0  0
  -21.1020  -13.1570   22.2390 H   0  0  0  0  0  0  0  0  0  0  0  0
  -25.3520  -15.2790   20.3010 N   0  0  0  0  0  0  0  0  0  0  0  0
  -24.5900  -15.9350   20.4410 H   0  0  0  0  0  0  0  0  0  0  0  0
  -26.2020  -15.7190   19.9710 H   0  0  0  0  0  0  0  0  0  0  0  0
  -28.1750  -25.6090   20.2810 O   0  0  0  0  0  0  0  0  0  0  0  0
  -24.6620  -31.8870   23.1970 C   0  0  0  0  0  0  0  0  0  0  0  0
  -27.1810  -26.8000   20.2400 C   0  0  0  0  0  0  0  0  0  0  0  0
  -23.4640  -30.4740   21.5770 C   0  0  0  0  0  3  0  0  0  0  0  0
  -24.9040  -28.8130   20.1750 C   0  0  0  0  0  0  0  0  0  0  0  0
  -26.0410  -30.6240   21.4360 C   0  0  0  0  0  2  0  0  0  0  0  0
  -26.1030  -29.1850   20.7950 C   0  0  0  0  0  0  0  0  0  0  0  0
  -27.2270  -28.2070   20.7920 C   0  0  0  0  0  3  0  0  0  0  0  0
  -25.9450  -26.6290   19.5700 C   0  0  0  0  0  3  0  0  0  0  0  0
  -24.8630  -27.5590   19.5390 C   0  0  0  0  0  3  0  0  0  0  0  0
  -23.6940  -29.7590   20.2140 C   0  0  0  0  0  2  0  0  0  0  0  0
  -24.7460  -31.0280   22.1220 N   0  0  0  0  0  0  0  0  0  0  0  0
  -23.5720  -32.1920   23.7100 O   0  0  0  0  0  0  0  0  0  0  0  0
  -22.7500  -29.5100   22.5610 C   0  0  0  0  0  0  0  0  0  0  0  0
  -21.4150  -29.3560   22.4420 N   0  0  0  0  0  0  0  0  0  0  0  0
  -23.4070  -28.8930   23.4030 O   0  0  0  0  0  0  0  0  0  0  0  0
  -20.9360  -29.9020   21.7390 H   0  0  0  0  0  0  0  0  0  0  0  0
  -18.0290  -28.1490   22.9650 C   0  0  0  0  0  0  0  0  0  0  0  0
  -20.5890  -28.4290   23.2240 C   0  0  0  0  0  3  0  0  0  0  0  0
  -20.6930  -26.9890   22.6690 C   0  0  0  0  0  2  0  0  0  0  0  0
  -19.5940  -26.6530   21.6580 C   0  0  0  0  0  2  0  0  0  0  0  0
  -18.2110  -26.7960   22.2980 C   0  0  0  0  0  2  0  0  0  0  0  0
  -19.1440  -28.9230   23.3840 C   0  0  0  0  0  0  0  0  0  0  0  0
  -18.9160  -30.1870   23.9720 C   0  0  0  0  0  3  0  0  0  0  0  0
  -17.6070  -30.6780   24.1400 C   0  0  0  0  0  3  0  0  0  0  0  0
  -16.5080  -29.9010   23.7350 C   0  0  0  0  0  3  0  0  0  0  0  0
  -16.7200  -28.6390   23.1540 C   0  0  0  0  0  3  0  0  0  0  0  0
  -25.9300  -32.5370   23.8270 C   0  0  0  0  0  3  0  0  0  0  0  0
  -25.6090  -33.9380   24.1710 N   0  0  0  0  0  0  0  0  0  0  0  0
  -25.9240  -35.0060   23.4250 C   0  0  0  0  0  0  0  0  0  0  0  0
  -26.5760  -34.9160   22.3820 O   0  0  0  0  0  0  0  0  0  0  0  0
  -25.0290  -34.0780   24.9840 H   0  0  0  0  0  0  0  0  0  0  0  0
  -24.1800  -36.8020   23.1470 C   0  0  0  0  0  1  0  0  0  0  0  0
  -25.4480  -36.3920   23.9130 C   0  0  0  0  0  3  0  0  0  0  0  0
  -27.6030  -37.2840   24.6850 C   0  0  0  0  0  1  0  0  0  0  0  0
  -26.4720  -37.4510   23.7760 N   0  0  0  0  0  0  0  0  0  0  0  0
  -26.0650  -38.3680   23.9420 H   0  0  0  0  0  0  0  0  0  0  0  0
  -26.4380  -31.7760   25.1150 C   0  0  1  0  0  0  0  0  0  0  0  0
  -25.3410  -31.5540   26.1830 C   0  0  0  0  0  1  0  0  0  0  0  0
  -27.0180  -30.3920   24.7480 C   0  0  0  0  0  1  0  0  0  0  0  0
  -27.5900  -32.5700   25.7730 C   0  0  0  0  0  1  0  0  0  0  0  0
  2  1  1  0
  3  6  1  0
  3  1  1  0
  4 46  1  0
  4  3  1  0
  4  2  1  0
  5  7  2  0
  6  5  1  0
  8  6  1  0
  9  5  1  0
 10  9  1  0
 11 16  1  0
 12 13  1  0
 12 11  1  0
 14 13  1  0
 14 21  1  0
 14 15  1  0
 16 10  1  0
 16 15  1  0
 17 10  2  0
 18 19  2  0
 19 38  1  0
 20 19  1  0
 20 23  1  0
 21 22  1  0
 21 18  1  0
 22 20  2  0
 23 24  1  0
 24 25  2  0
 26 29  1  0
 26 25  1  0
 27 26  2  0
 28 27  1  0
 28 23  2  0
 29 30  1  0
 30 31  1  0
 31 32  2  0
 33 32  1  0
 33 37  1  0
 34 33  2  0
 35 30  2  0
 35 34  1  0
 36 35  1  0
 38 39  1  0
 39 42  1  0
 39 41  1  0
 40 38  2  0
 43 44  1  0
 43 18  1  0
 45 43  1  0
 47 58  2  0
 48 46  1  0
 48 53  1  0
 49 57  1  0
 49 59  1  0
 50 56  1  0
 50 52  1  0
 51 57  1  0
 52 51  1  0
 53 52  2  0
 54 48  2  0
 55 54  1  0
 55 50  2  0
 56 49  1  0
 57 47  1  0
 59 61  2  0
 60 59  1  0
 62 60  1  0
 63 72  2  0
 63 68  1  0
 64 60  1  0
 64 68  1  0
 65 64  1  0
 66 67  1  0
 66 65  1  0
 67 63  1  0
 68 69  2  0
 69 70  1  0
 71 70  2  0
 72 71  1  0
 73 47  1  0
 73 74  1  0
 73 83  1  0
 74 77  1  0
 75 79  1  0
 75 74  1  0
 76 75  2  0
 79 78  1  0
 81 79  1  0
 81 82  1  0
 81 80  1  0
 83 86  1  1
 83 84  1  0
 85 83  1  0
M  ISO  4   4 101   9 100  10 100  46 101
M  END
>  <TORSDO>  (73) 
F 18

>  <SCORE>  (73) 
-16.560

>  <name>  (73) 
72

>  <ligand_id>  (73) 
72

>  <original_smiles>  (73) 
[H]c1c([H])c([H])c2c(c1[H])C([H])([H])C([H])([H])C([H])([H])C2([H])N([H])C(=O)C1([H])N(C(=O)C([H])(N([H])C(=O)C([H])(N([H])C([H])([H])[H])C([H])([H])[H])C(C([H])([H])[H])(C([H])([H])[H])C([H])([H])[H])C([H])([H])c2c([H])c(OC3([H])C([H])([H])C([H])([H])C3([H])N([H])C(=O)C([H])([H])C(=O)N3C([H])([H])C([H])([H])C([H])([H])C([H])(n4nc(-c5c([H])c([H])c(Oc6c([H])c([H])c(F)c([H])c6F)c([H])c5[H])c(C(=O)N([H])[H])c4N([H])[H])C3([H])[H])c([H])c([H])c2C1([H])[H]

>  <smiles>  (73) 
[H]c1c([H])c([H])c2c(c1[H])C([H])([H])C([H])([H])C([H])([H])C2([H])N([H])C(=O)C1([H])N(C(=O)C([H])(N([H])C(=O)C([H])(N([H])C([H])([H])[H])C([H])([H])[H])C(C([H])([H])[H])(C([H])([H])[H])C([H])([H])[H])C([H])([H])c2c([H])c(OC3([H])C([H])([H])C([H])([H])C3([H])N([H])C(=O)C([H])([H])C(=O)N3C([H])([H])C([H])([H])C([H])([H])C([H])(n4nc(-c5c([H])c([H])c(Oc6c([H])c([H])c(F)c([H])c6F)c([H])c5[H])c(C(=O)N([H])[H])c4N([H])[H])C3([H])[H])c([H])c([H])c2C1([H])[H]

$$$$
73:0:0
     RDKit          3D

 92 99  0  0  1  0  0  0  0  0999 V2000
  -29.5210  -19.8030   20.8670 C   0  0  0  0  0  0  0  0  0  0  0  0
  -29.2650  -20.8460   20.0640 N   0  0  0  0  0  0  0  0  0  0  0  0
  -28.9480  -19.6240   21.9450 O   0  0  0  0  0  0  0  0  0  0  0  0
  -29.7990  -20.9050   19.2060 H   0  0  0  0  0  0  0  0  0  0  0  0
  -30.5970  -18.8120   20.4080 C   0  0  0  0  0  2  0  0  0  0  0  0
  -30.7030  -17.6810   21.3550 N   0  0  0  0  0  4  0  0  0  0  0  0
  -30.1690  -17.9990   22.1540 H   0  0  0  0  0  0  0  0  0  0  0  0
  -31.6620  -17.5800   21.6470 H   0  0  0  0  0  0  0  0  0  0  0  0
  -28.7810  -16.1580   21.6250 C   0  0  0  0  0  1  0  0  0  0  0  0
  -30.1420  -16.3670   20.9310 C   0  0  0  0  0  3  0  0  0  0  0  0
  -31.1230  -15.1840   21.2120 C   0  0  0  0  0  2  0  0  0  0  0  0
  -31.3470  -14.1980   20.0390 C   0  0  0  0  0  0  0  0  0  0  0  0
  -30.8670  -12.0190   18.9550 C   0  0  0  0  0  2  0  0  0  0  0  0
  -29.9100  -12.1300   17.7540 C   0  0  0  0  0  2  0  0  0  0  0  0
  -28.4430  -12.0990   18.2180 C   0  0  0  0  0  2  0  0  0  0  0  0
  -28.1730  -13.0920   19.3780 C   0  0  0  0  0  3  0  0  0  0  0  0
  -29.2250  -12.9200   20.4960 C   0  0  0  0  0  2  0  0  0  0  0  0
  -30.5610  -13.0940   19.9090 N   0  0  0  0  0  0  0  0  0  0  0  0
  -32.3190  -14.3980   19.3050 O   0  0  0  0  0  0  0  0  0  0  0  0
  -25.8620  -13.9370   20.1420 C   0  0  0  0  0  0  0  0  0  0  0  0
  -24.7330  -13.2750   20.5400 C   0  0  0  0  0  0  0  0  0  0  0  0
  -25.0580  -11.8840   20.5010 C   0  0  0  0  0  0  0  0  0  0  0  0
  -26.8100  -12.9570   19.8900 N   0  0  0  0  0  0  0  0  0  0  0  0
  -26.3290  -11.7160   20.1590 N   0  0  0  0  0  0  0  0  0  0  0  0
  -24.2180  -10.7000   20.7160 C   0  0  0  0  0  0  0  0  0  0  0  0
  -24.5500   -9.7250   21.6830 C   0  0  0  0  0  3  0  0  0  0  0  0
  -23.7160   -8.6020   21.8830 C   0  0  0  0  0  3  0  0  0  0  0  0
  -22.5370   -8.4490   21.1150 C   0  0  0  0  0  0  0  0  0  0  0  0
  -22.2250   -9.4100   20.1380 C   0  0  0  0  0  3  0  0  0  0  0  0
  -23.0570  -10.5240   19.9380 C   0  0  0  0  0  3  0  0  0  0  0  0
  -21.6810   -7.3790   21.2230 O   0  0  0  0  0  0  0  0  0  0  0  0
  -21.5030   -6.7160   22.4110 C   0  0  0  0  0  0  0  0  0  0  0  0
  -21.0640   -7.3810   23.5770 C   0  0  0  0  0  3  0  0  0  0  0  0
  -20.8280   -6.6480   24.7570 C   0  0  0  0  0  3  0  0  0  0  0  0
  -21.0210   -5.2530   24.7720 C   0  0  0  0  0  0  0  0  0  0  0  0
  -21.4540   -4.5900   23.6100 C   0  0  0  0  0  3  0  0  0  0  0  0
  -21.6910   -5.3190   22.4320 C   0  0  0  0  0  0  0  0  0  0  0  0
  -22.0870   -4.6730   21.3090 F   0  0  0  0  0  0  0  0  0  0  0  0
  -20.7870   -4.5480   25.9030 F   0  0  0  0  0  0  0  0  0  0  0  0
  -23.3980  -13.8870   20.8510 C   0  0  0  0  0  0  0  0  0  0  0  0
  -22.6380  -13.2740   21.7520 N   0  0  0  0  0  0  0  0  0  0  0  0
  -23.0390  -14.9380   20.3230 O   0  0  0  0  0  0  0  0  0  0  0  0
  -22.9450  -12.4220   22.1970 H   0  0  0  0  0  0  0  0  0  0  0  0
  -21.7400  -13.6620   22.0000 H   0  0  0  0  0  0  0  0  0  0  0  0
  -26.1620  -15.2830   19.9560 N   0  0  0  0  0  0  0  0  0  0  0  0
  -25.4770  -16.0160   20.0960 H   0  0  0  0  0  0  0  0  0  0  0  0
  -27.0420  -15.6270   19.5950 H   0  0  0  0  0  0  0  0  0  0  0  0
  -28.2620  -21.8950   20.2830 C   0  0  0  0  0  2  0  0  0  0  0  0
  -28.8960  -23.2060   20.7860 C   0  0  0  0  0  2  0  0  0  0  0  0
  -27.9330  -24.4080   20.6920 C   0  0  0  0  0  2  0  0  0  0  0  0
  -28.5730  -25.7610   21.0730 C   0  0  0  0  0  2  0  0  0  0  0  0
  -28.3850  -26.7510   20.0610 O   0  0  0  0  0  0  0  0  0  0  0  0
  -24.5200  -31.8410   23.1730 C   0  0  0  0  0  0  0  0  0  0  0  0
  -27.1980  -27.4370   20.1110 C   0  0  0  0  0  0  0  0  0  0  0  0
  -23.3210  -30.4230   21.5390 C   0  0  0  0  0  3  0  0  0  0  0  0
  -24.7830  -28.8910   20.1170 C   0  0  0  0  0  0  0  0  0  0  0  0
  -25.8360  -30.8180   21.3210 C   0  0  0  0  0  2  0  0  0  0  0  0
  -25.9350  -29.4410   20.6990 C   0  0  0  0  0  0  0  0  0  0  0  0
  -27.1480  -28.7210   20.6930 C   0  0  0  0  0  3  0  0  0  0  0  0
  -26.0380  -26.8930   19.5240 C   0  0  0  0  0  3  0  0  0  0  0  0
  -24.8270  -27.6120   19.5330 C   0  0  0  0  0  3  0  0  0  0  0  0
  -23.5310  -29.7380   20.1620 C   0  0  0  0  0  2  0  0  0  0  0  0
  -24.5780  -31.0410   22.0720 N   0  0  0  0  0  0  0  0  0  0  0  0
  -23.4380  -32.1000   23.7200 O   0  0  0  0  0  0  0  0  0  0  0  0
  -22.6820  -29.3970   22.5030 C   0  0  0  0  0  0  0  0  0  0  0  0
  -21.3660  -29.1700   22.3550 N   0  0  0  0  0  0  0  0  0  0  0  0
  -23.3700  -28.8050   23.3410 O   0  0  0  0  0  0  0  0  0  0  0  0
  -20.8680  -29.7100   21.6610 H   0  0  0  0  0  0  0  0  0  0  0  0
  -18.0310  -27.8560   22.7800 C   0  0  0  0  0  0  0  0  0  0  0  0
  -20.5660  -28.2200   23.1260 C   0  0  0  0  0  3  0  0  0  0  0  0
  -20.7440  -26.7770   22.5970 C   0  0  0  0  0  2  0  0  0  0  0  0
  -19.6890  -26.3860   21.5550 C   0  0  0  0  0  2  0  0  0  0  0  0
  -18.2820  -26.4950   22.1510 C   0  0  0  0  0  2  0  0  0  0  0  0
  -19.1050  -28.6710   23.2250 C   0  0  0  0  0  0  0  0  0  0  0  0
  -18.8210  -29.9410   23.7680 C   0  0  0  0  0  3  0  0  0  0  0  0
  -17.4940  -30.3960   23.8750 C   0  0  0  0  0  3  0  0  0  0  0  0
  -16.4340  -29.5800   23.4490 C   0  0  0  0  0  3  0  0  0  0  0  0
  -16.7030  -28.3120   22.9040 C   0  0  0  0  0  3  0  0  0  0  0  0
  -25.8020  -32.4840   23.7870 C   0  0  0  0  0  3  0  0  0  0  0  0
  -25.4730  -33.8720   24.1340 N   0  0  0  0  0  0  0  0  0  0  0  0
  -25.7940  -34.9390   23.3880 C   0  0  0  0  0  0  0  0  0  0  0  0
  -26.4670  -34.8580   22.3570 O   0  0  0  0  0  0  0  0  0  0  0  0
  -24.8710  -34.0110   24.9330 H   0  0  0  0  0  0  0  0  0  0  0  0
  -24.0420  -36.7090   23.0510 C   0  0  0  0  0  1  0  0  0  0  0  0
  -25.2860  -36.3140   23.8610 C   0  0  0  0  0  3  0  0  0  0  0  0
  -27.4090  -37.2120   24.7050 C   0  0  0  0  0  1  0  0  0  0  0  0
  -26.3030  -37.3830   23.7640 N   0  0  0  0  0  0  0  0  0  0  0  0
  -25.8870  -38.2970   23.9270 H   0  0  0  0  0  0  0  0  0  0  0  0
  -26.3460  -31.7070   25.0460 C   0  0  1  0  0  0  0  0  0  0  0  0
  -25.2690  -31.4260   26.1180 C   0  0  0  0  0  1  0  0  0  0  0  0
  -26.9590  -30.3540   24.6200 C   0  0  0  0  0  1  0  0  0  0  0  0
  -27.4770  -32.5200   25.7160 C   0  0  0  0  0  1  0  0  0  0  0  0
  1  3  2  0
  2 48  1  0
  2  1  1  0
  4  2  1  0
  5  1  1  0
  5  6  1  0
  6  8  1  0
  6  7  1  0
 10 11  1  0
 10  6  1  0
 10  9  1  0
 12 11  1  0
 13 18  1  0
 14 15  1  0
 14 13  1  0
 16 15  1  0
 16 23  1  0
 16 17  1  0
 18 12  1  0
 18 17  1  0
 19 12  2  0
 20 21  2  0
 21 40  1  0
 22 21  1  0
 22 25  1  0
 23 20  1  0
 23 24  1  0
 24 22  2  0
 25 26  1  0
 26 27  2  0
 28 31  1  0
 28 27  1  0
 29 28  2  0
 30 29  1  0
 30 25  2  0
 31 32  1  0
 32 37  2  0
 32 33  1  0
 33 34  2  0
 34 35  1  0
 35 39  1  0
 36 35  2  0
 37 36  1  0
 38 37  1  0
 40 41  1  0
 41 44  1  0
 41 43  1  0
 42 40  2  0
 45 46  1  0
 45 20  1  0
 47 45  1  0
 48 49  1  0
 50 49  1  0
 50 51  1  0
 52 54  1  0
 52 51  1  0
 53 64  2  0
 54 59  1  0
 55 63  1  0
 55 65  1  0
 56 62  1  0
 56 58  1  0
 57 63  1  0
 58 57  1  0
 59 58  2  0
 60 61  1  0
 60 54  2  0
 61 56  2  0
 62 55  1  0
 63 53  1  0
 65 67  2  0
 66 65  1  0
 68 66  1  0
 69 78  2  0
 69 74  1  0
 70 66  1  0
 70 74  1  0
 71 70  1  0
 72 73  1  0
 72 71  1  0
 73 69  1  0
 74 75  2  0
 75 76  1  0
 77 76  2  0
 78 77  1  0
 79 53  1  0
 79 80  1  0
 79 89  1  0
 80 83  1  0
 81 85  1  0
 81 80  1  0
 82 81  2  0
 85 84  1  0
 87 85  1  0
 87 88  1  0
 87 86  1  0
 89 92  1  1
 89 90  1  0
 91 89  1  0
M  ISO  4  11 100  12 100  51 101  52 101
M  END
>  <TORSDO>  (74) 
F 24

>  <SCORE>  (74) 
-10.376

>  <name>  (74) 
73

>  <ligand_id>  (74) 
73

>  <original_smiles>  (74) 
[H]c1c([H])c([H])c2c(c1[H])C([H])([H])C([H])([H])C([H])([H])C2([H])N([H])C(=O)C1([H])N(C(=O)C([H])(N([H])C(=O)C([H])(N([H])C([H])([H])[H])C([H])([H])[H])C(C([H])([H])[H])(C([H])([H])[H])C([H])([H])[H])C([H])([H])c2c([H])c(OC([H])([H])C([H])([H])C([H])([H])C([H])([H])N([H])C(=O)C([H])([H])[N+]([H])([H])C([H])(C([H])([H])[H])C([H])([H])C(=O)N3C([H])([H])C([H])([H])C([H])([H])C([H])(n4nc(-c5c([H])c([H])c(Oc6c([H])c([H])c(F)c([H])c6F)c([H])c5[H])c(C(=O)N([H])[H])c4N([H])[H])C3([H])[H])c([H])c([H])c2C1([H])[H]

>  <smiles>  (74) 
[H]c1c([H])c([H])c2c(c1[H])C([H])([H])C([H])([H])C([H])([H])C2([H])N([H])C(=O)C1([H])N(C(=O)C([H])(N([H])C(=O)C([H])(N([H])C([H])([H])[H])C([H])([H])[H])C(C([H])([H])[H])(C([H])([H])[H])C([H])([H])[H])C([H])([H])c2c([H])c(OC([H])([H])C([H])([H])C([H])([H])C([H])([H])N([H])C(=O)C([H])([H])[N+]([H])([H])C([H])(C([H])([H])[H])C([H])([H])C(=O)N3C([H])([H])C([H])([H])C([H])([H])C([H])(n4nc(-c5c([H])c([H])c(Oc6c([H])c([H])c(F)c([H])c6F)c([H])c5[H])c(C(=O)N([H])[H])c4N([H])[H])C3([H])[H])c([H])c([H])c2C1([H])[H]

$$$$
74:0:0
     RDKit          3D

 88 97  0  0  1  0  0  0  0  0999 V2000
  -28.9500  -22.7840   20.2950 C   0  0  0  0  0  0  0  0  0  0  0  0
  -28.8060  -21.3430   19.9220 N   0  0  0  0  0  0  0  0  0  0  0  0
  -29.9560  -23.0420   20.9590 O   0  0  0  0  0  0  0  0  0  0  0  0
  -27.9730  -21.2170   19.3600 H   0  0  0  0  0  0  0  0  0  0  0  0
  -29.2800  -19.0860   21.5310 C   0  0  0  0  0  2  0  0  0  0  0  0
  -29.8270  -17.5550   21.5290 C   0  0  0  0  0  2  0  0  0  0  0  0
  -28.6600  -17.3290   19.1790 C   0  0  0  0  0  2  0  0  0  0  0  0
  -29.7190  -18.4120   19.3090 C   0  0  0  0  0  3  0  0  0  0  0  0
  -29.5760  -19.8620   20.1920 C   0  0  0  0  0  3  0  0  0  0  0  0
  -29.7810  -16.9250   20.1180 C   0  0  1  0  0  0  0  0  0  0  0  0
  -30.5470  -15.3650   19.8280 C   0  0  0  0  0  0  0  0  0  0  0  0
  -30.4720  -12.9140   18.9440 C   0  0  0  0  0  2  0  0  0  0  0  0
  -29.4750  -12.7270   17.7700 C   0  0  0  0  0  2  0  0  0  0  0  0
  -28.0600  -12.4370   18.3010 C   0  0  0  0  0  2  0  0  0  0  0  0
  -27.6830  -13.3810   19.4680 C   0  0  0  0  0  3  0  0  0  0  0  0
  -28.8010  -13.5320   20.5200 C   0  0  0  0  0  2  0  0  0  0  0  0
  -29.9910  -14.0470   19.8250 N   0  0  0  0  0  0  0  0  0  0  0  0
  -31.7360  -15.3360   19.4760 O   0  0  0  0  0  0  0  0  0  0  0  0
  -25.3830  -13.9090   20.4300 C   0  0  0  0  0  0  0  0  0  0  0  0
  -24.3490  -13.1210   20.8470 C   0  0  0  0  0  0  0  0  0  0  0  0
  -24.8040  -11.7710   20.7260 C   0  0  0  0  0  0  0  0  0  0  0  0
  -26.3980  -13.0430   20.0680 N   0  0  0  0  0  0  0  0  0  0  0  0
  -26.0680  -11.7460   20.3140 N   0  0  0  0  0  0  0  0  0  0  0  0
  -24.0850  -10.5040   20.9200 C   0  0  0  0  0  0  0  0  0  0  0  0
  -24.5190   -9.5410   21.8590 C   0  0  0  0  0  3  0  0  0  0  0  0
  -23.7970   -8.3430   22.0420 C   0  0  0  0  0  3  0  0  0  0  0  0
  -22.6250   -8.0970   21.2860 C   0  0  0  0  0  0  0  0  0  0  0  0
  -22.2100   -9.0470   20.3370 C   0  0  0  0  0  3  0  0  0  0  0  0
  -22.9330  -10.2380   20.1530 C   0  0  0  0  0  3  0  0  0  0  0  0
  -21.8750   -6.9500   21.3780 O   0  0  0  0  0  0  0  0  0  0  0  0
  -21.7420   -6.2690   22.5620 C   0  0  0  0  0  0  0  0  0  0  0  0
  -21.2190   -6.8830   23.7210 C   0  0  0  0  0  3  0  0  0  0  0  0
  -21.0350   -6.1270   24.8960 C   0  0  0  0  0  3  0  0  0  0  0  0
  -21.3640   -4.7590   24.9130 C   0  0  0  0  0  0  0  0  0  0  0  0
  -21.8810   -4.1440   23.7580 C   0  0  0  0  0  3  0  0  0  0  0  0
  -22.0660   -4.8970   22.5860 C   0  0  0  0  0  0  0  0  0  0  0  0
  -22.5430   -4.2940   21.4700 F   0  0  0  0  0  0  0  0  0  0  0  0
  -21.1820   -4.0310   26.0400 F   0  0  0  0  0  0  0  0  0  0  0  0
  -22.9790  -13.5900   21.2400 C   0  0  0  0  0  0  0  0  0  0  0  0
  -22.3170  -12.8690   22.1380 N   0  0  0  0  0  0  0  0  0  0  0  0
  -22.5090  -14.6330   20.7860 O   0  0  0  0  0  0  0  0  0  0  0  0
  -22.7140  -12.0260   22.5250 H   0  0  0  0  0  0  0  0  0  0  0  0
  -21.4020  -13.1660   22.4430 H   0  0  0  0  0  0  0  0  0  0  0  0
  -25.5430  -15.2860   20.3010 N   0  0  0  0  0  0  0  0  0  0  0  0
  -24.7950  -15.9390   20.5080 H   0  0  0  0  0  0  0  0  0  0  0  0
  -26.3760  -15.7340   19.9460 H   0  0  0  0  0  0  0  0  0  0  0  0
  -27.9330  -24.1970   19.9800 C   0  0  0  0  0  2  0  0  0  0  0  0
  -28.1890  -25.8080   20.3040 O   0  0  0  0  0  0  0  0  0  0  0  0
  -24.6270  -31.8260   23.2140 C   0  0  0  0  0  0  0  0  0  0  0  0
  -27.1930  -26.9260   20.2180 C   0  0  0  0  0  0  0  0  0  0  0  0
  -23.4400  -30.4250   21.5760 C   0  0  0  0  0  3  0  0  0  0  0  0
  -24.8950  -28.8180   20.1590 C   0  0  0  0  0  0  0  0  0  0  0  0
  -26.0080  -30.6330   21.4390 C   0  0  0  0  0  2  0  0  0  0  0  0
  -26.0810  -29.2210   20.7850 C   0  0  0  0  0  0  0  0  0  0  0  0
  -27.2240  -28.2960   20.7890 C   0  0  0  0  0  3  0  0  0  0  0  0
  -25.9780  -26.6820   19.5390 C   0  0  0  0  0  3  0  0  0  0  0  0
  -24.8690  -27.5690   19.5150 C   0  0  0  0  0  3  0  0  0  0  0  0
  -23.6750  -29.7390   20.2020 C   0  0  0  0  0  2  0  0  0  0  0  0
  -24.7130  -30.9900   22.1290 N   0  0  0  0  0  0  0  0  0  0  0  0
  -23.5360  -32.1170   23.7310 O   0  0  0  0  0  0  0  0  0  0  0  0
  -22.7430  -29.4320   22.5420 C   0  0  0  0  0  0  0  0  0  0  0  0
  -21.4130  -29.2630   22.4120 N   0  0  0  0  0  0  0  0  0  0  0  0
  -23.4050  -28.8130   23.3790 O   0  0  0  0  0  0  0  0  0  0  0  0
  -20.9300  -29.8130   21.7160 H   0  0  0  0  0  0  0  0  0  0  0  0
  -18.0330  -28.0350   22.9040 C   0  0  0  0  0  0  0  0  0  0  0  0
  -20.5900  -28.3260   23.1840 C   0  0  0  0  0  3  0  0  0  0  0  0
  -20.7070  -26.8900   22.6210 C   0  0  0  0  0  2  0  0  0  0  0  0
  -19.6150  -26.5510   21.6010 C   0  0  0  0  0  2  0  0  0  0  0  0
  -18.2280  -26.6850   22.2340 C   0  0  0  0  0  2  0  0  0  0  0  0
  -19.1430  -28.8120   23.3360 C   0  0  0  0  0  0  0  0  0  0  0  0
  -18.9050  -30.0730   23.9260 C   0  0  0  0  0  3  0  0  0  0  0  0
  -17.5930  -30.5580   24.0850 C   0  0  0  0  0  3  0  0  0  0  0  0
  -16.5000  -29.7800   23.6670 C   0  0  0  0  0  3  0  0  0  0  0  0
  -16.7210  -28.5200   23.0830 C   0  0  0  0  0  3  0  0  0  0  0  0
  -25.8940  -32.4730   23.8500 C   0  0  0  0  0  3  0  0  0  0  0  0
  -25.5780  -33.8780   24.1660 N   0  0  0  0  0  0  0  0  0  0  0  0
  -25.9000  -34.9300   23.4010 C   0  0  0  0  0  0  0  0  0  0  0  0
  -26.5580  -34.8200   22.3630 O   0  0  0  0  0  0  0  0  0  0  0  0
  -24.9910  -34.0360   24.9710 H   0  0  0  0  0  0  0  0  0  0  0  0
  -24.1580  -36.7200   23.0760 C   0  0  0  0  0  1  0  0  0  0  0  0
  -25.4220  -36.3240   23.8570 C   0  0  0  0  0  3  0  0  0  0  0  0
  -27.5720  -37.2310   24.6260 C   0  0  0  0  0  1  0  0  0  0  0  0
  -26.4480  -37.3800   23.7060 N   0  0  0  0  0  0  0  0  0  0  0  0
  -26.0410  -38.3000   23.8480 H   0  0  0  0  0  0  0  0  0  0  0  0
  -26.3850  -31.7240   25.1510 C   0  0  1  0  0  0  0  0  0  0  0  0
  -25.2730  -31.5100   26.2050 C   0  0  0  0  0  1  0  0  0  0  0  0
  -26.9710  -30.3370   24.8020 C   0  0  0  0  0  1  0  0  0  0  0  0
  -27.5280  -32.5270   25.8170 C   0  0  0  0  0  1  0  0  0  0  0  0
  1  3  2  0
  2  1  1  0
  4  2  1  0
  6  5  1  0
  7 10  1  0
  8  7  1  0
  8 10  1  0
  8  9  1  0
  9  2  1  0
  9  5  1  0
 10 11  1  6
 10  6  1  0
 12 17  1  0
 13 14  1  0
 13 12  1  0
 15 14  1  0
 15 22  1  0
 15 16  1  0
 17 11  1  0
 17 16  1  0
 18 11  2  0
 19 20  2  0
 20 39  1  0
 21 20  1  0
 21 24  1  0
 22 23  1  0
 22 19  1  0
 23 21  2  0
 24 25  1  0
 25 26  2  0
 27 30  1  0
 27 26  1  0
 28 27  2  0
 29 28  1  0
 29 24  2  0
 30 31  1  0
 31 36  2  0
 31 32  1  0
 32 33  2  0
 33 34  1  0
 34 38  1  0
 35 34  2  0
 36 35  1  0
 37 36  1  0
 39 40  1  0
 40 43  1  0
 40 42  1  0
 41 39  2  0
 44 19  1  0
 44 45  1  0
 46 44  1  0
 47  1  1  0
 47 48  1  0
 49 60  2  0
 50 48  1  0
 50 55  1  0
 51 59  1  0
 51 61  1  0
 52 58  1  0
 52 54  1  0
 53 59  1  0
 54 55  2  0
 54 53  1  0
 56 50  2  0
 57 56  1  0
 57 52  2  0
 58 51  1  0
 59 49  1  0
 61 63  2  0
 62 61  1  0
 64 62  1  0
 65 74  2  0
 65 70  1  0
 66 62  1  0
 66 70  1  0
 67 66  1  0
 68 69  1  0
 68 67  1  0
 69 65  1  0
 70 71  2  0
 71 72  1  0
 73 72  2  0
 74 73  1  0
 75 49  1  0
 75 76  1  0
 75 85  1  0
 76 79  1  0
 77 81  1  0
 77 76  1  0
 78 77  2  0
 81 80  1  0
 83 84  1  0
 83 81  1  0
 83 82  1  0
 85 88  1  1
 85 86  1  0
 87 85  1  0
M  ISO  4  10 100  11 100  47 101  48 101
M  END
>  <TORSDO>  (75) 
F 18

>  <SCORE>  (75) 
-15.602

>  <name>  (75) 
74

>  <ligand_id>  (75) 
74

>  <original_smiles>  (75) 
[H]c1c([H])c([H])c2c(c1[H])C([H])([H])C([H])([H])C([H])([H])C2([H])N([H])C(=O)C1([H])N(C(=O)C([H])(N([H])C(=O)C([H])(N([H])C([H])([H])[H])C([H])([H])[H])C(C([H])([H])[H])(C([H])([H])[H])C([H])([H])[H])C([H])([H])c2c([H])c(OC([H])([H])C(=O)N([H])C3([H])C([H])([H])C([H])([H])C4(C(=O)N5C([H])([H])C([H])([H])C([H])([H])C([H])(n6nc(-c7c([H])c([H])c(Oc8c([H])c([H])c(F)c([H])c8F)c([H])c7[H])c(C(=O)N([H])[H])c6N([H])[H])C5([H])[H])C([H])([H])C34[H])c([H])c([H])c2C1([H])[H]

>  <smiles>  (75) 
[H]c1c([H])c([H])c2c(c1[H])C([H])([H])C([H])([H])C([H])([H])C2([H])N([H])C(=O)C1([H])N(C(=O)C([H])(N([H])C(=O)C([H])(N([H])C([H])([H])[H])C([H])([H])[H])C(C([H])([H])[H])(C([H])([H])[H])C([H])([H])[H])C([H])([H])c2c([H])c(OC([H])([H])C(=O)N([H])C3([H])C([H])([H])C([H])([H])C4(C(=O)N5C([H])([H])C([H])([H])C([H])([H])C([H])(n6nc(-c7c([H])c([H])c(Oc8c([H])c([H])c(F)c([H])c8F)c([H])c7[H])c(C(=O)N([H])[H])c6N([H])[H])C5([H])[H])C([H])([H])C34[H])c([H])c([H])c2C1([H])[H]

$$$$
75:0:0
     RDKit          3D

 88 92  0  0  1  0  0  0  0  0999 V2000
  -27.2170  -20.8050   20.1930 C   0  0  0  0  0  1  0  0  0  0  0  0
  -28.8790  -21.5570   21.8810 C   0  0  0  0  0  1  0  0  0  0  0  0
  -28.6530  -21.3570   20.3590 C   0  0  0  0  0  2  0  0  0  0  0  0
  -28.3330  -23.3760   19.7990 C   0  0  0  0  0 15  0  0  0  0  0  0
  -28.2020  -25.2340   20.1560 O   0  0  0  0  0  1  0  0  0  0  0  0
  -24.6370  -31.7770   23.0240 C   0  0  0  0  0  0  0  0  0  0  0  0
  -27.2420  -26.5430   20.0380 C   0  0  0  0  0  0  0  0  0  0  0  0
  -23.4790  -30.3560   21.3890 C   0  0  0  0  0  3  0  0  0  0  0  0
  -24.9560  -28.6940   19.9750 C   0  0  0  0  0  0  0  0  0  0  0  0
  -26.0660  -30.4770   21.2890 C   0  0  0  0  0  2  0  0  0  0  0  0
  -26.1490  -29.0230   20.6280 C   0  0  0  0  0  0  0  0  0  0  0  0
  -27.2590  -27.9820   20.6230 C   0  0  0  0  0  3  0  0  0  0  0  0
  -26.0090  -26.4940   19.3130 C   0  0  0  0  0  3  0  0  0  0  0  0
  -24.9380  -27.4620   19.2930 C   0  0  0  0  0  3  0  0  0  0  0  0
  -23.7390  -29.6490   20.0220 C   0  0  0  0  0  2  0  0  0  0  0  0
  -24.7530  -30.9100   21.9520 N   0  0  0  0  0  0  0  0  0  0  0  0
  -23.5370  -32.0620   23.5300 O   0  0  0  0  0  0  0  0  0  0  0  0
  -22.7630  -29.3820   22.3680 C   0  0  0  0  0  0  0  0  0  0  0  0
  -21.4270  -29.2280   22.2630 N   0  0  0  0  0  0  0  0  0  0  0  0
  -23.4280  -28.7590   23.1970 O   0  0  0  0  0  0  0  0  0  0  0  0
  -20.9390  -29.7760   21.5710 H   0  0  0  0  0  0  0  0  0  0  0  0
  -18.0540  -27.9760   22.8250 C   0  0  0  0  0  0  0  0  0  0  0  0
  -20.6180  -28.2800   23.0450 C   0  0  0  0  0  3  0  0  0  0  0  0
  -20.7270  -26.8510   22.4640 C   0  0  0  0  0  2  0  0  0  0  0  0
  -19.6140  -26.5200   21.4640 C   0  0  0  0  0  2  0  0  0  0  0  0
  -18.2400  -26.6380   22.1290 C   0  0  0  0  0  2  0  0  0  0  0  0
  -19.1690  -28.7530   23.2410 C   0  0  0  0  0  0  0  0  0  0  0  0
  -18.9370  -29.9990   23.8630 C   0  0  0  0  0  3  0  0  0  0  0  0
  -17.6260  -30.4690   24.0690 C   0  0  0  0  0  3  0  0  0  0  0  0
  -16.5280  -29.6910   23.6650 C   0  0  0  0  0  3  0  0  0  0  0  0
  -16.7420  -28.4460   23.0490 C   0  0  0  0  0  3  0  0  0  0  0  0
  -25.8800  -32.4630   23.6680 C   0  0  0  0  0  3  0  0  0  0  0  0
  -26.4080  -31.7030   24.9500 C   0  0  1  0  0  0  0  0  0  0  0  0
  -25.3150  -31.4510   26.0200 C   0  0  0  0  0  1  0  0  0  0  0  0
  -27.0180  -30.3340   24.5830 C   0  0  0  0  0  1  0  0  0  0  0  0
  -27.5410  -32.5230   25.6140 C   0  0  0  0  0  1  0  0  0  0  0  0
  -25.5150  -33.8480   24.0310 N   0  0  0  0  0  0  0  0  0  0  0  0
  -25.8260  -34.9460   23.3290 C   0  0  0  0  0  0  0  0  0  0  0  0
  -26.5000  -34.9030   22.2980 O   0  0  0  0  0  0  0  0  0  0  0  0
  -24.9080  -33.9560   24.8330 H   0  0  0  0  0  0  0  0  0  0  0  0
  -24.0640  -36.7330   23.0610 C   0  0  0  0  0  1  0  0  0  0  0  0
  -25.3140  -36.3120   23.8470 C   0  0  0  0  0  3  0  0  0  0  0  0
  -27.4280  -37.2180   24.7140 C   0  0  0  0  0  1  0  0  0  0  0  0
  -26.3260  -37.3890   23.7740 N   0  0  0  0  0  0  0  0  0  0  0  0
  -25.8980  -38.2960   23.9510 H   0  0  0  0  0  0  0  0  0  0  0  0
  -29.6750  -19.5370   20.0250 C   0  0  0  0  0  2  0  0  0  0  0  0
  -30.2210  -16.1320   20.0120 C   0  0  0  0  0  0  0  0  0  0  0  0
  -30.3620  -13.4930   19.2140 C   0  0  0  0  0  2  0  0  0  0  0  0
  -29.4910  -12.9270   18.0470 C   0  0  0  0  0  2  0  0  0  0  0  0
  -28.1030  -12.4990   18.5460 C   0  0  0  0  0  2  0  0  0  0  0  0
  -27.5680  -13.5060   19.5910 C   0  0  0  0  0  3  0  0  0  0  0  0
  -28.6130  -13.9670   20.6480 C   0  0  0  0  0  2  0  0  0  0  0  0
  -29.7010  -14.7110   19.9360 N   0  0  0  0  0  0  0  0  0  0  0  0
  -31.4510  -15.9640   19.8450 O   0  0  0  0  0  0  0  0  0  0  0  0
  -29.5190  -17.6270   20.0870 N   0  0  0  0  0  0  0  0  0  0  0  0
  -28.5330  -17.4370   20.1630 H   0  0  0  0  0  0  0  0  0  0  0  0
  -25.2430  -13.9980   20.4670 C   0  0  0  0  0  0  0  0  0  0  0  0
  -24.1950  -13.2130   20.8500 C   0  0  0  0  0  0  0  0  0  0  0  0
  -24.6630  -11.8640   20.7780 C   0  0  0  0  0  0  0  0  0  0  0  0
  -26.2770  -13.1350   20.1620 N   0  0  0  0  0  0  0  0  0  0  0  0
  -25.9440  -11.8400   20.4120 N   0  0  0  0  0  0  0  0  0  0  0  0
  -23.9320  -10.6020   20.9740 C   0  0  0  0  0  0  0  0  0  0  0  0
  -24.3740   -9.6190   21.8870 C   0  0  0  0  0  3  0  0  0  0  0  0
  -23.6340   -8.4320   22.0740 C   0  0  0  0  0  3  0  0  0  0  0  0
  -22.4400   -8.2130   21.3500 C   0  0  0  0  0  0  0  0  0  0  0  0
  -22.0160   -9.1850   20.4260 C   0  0  0  0  0  3  0  0  0  0  0  0
  -22.7560  -10.3630   20.2350 C   0  0  0  0  0  3  0  0  0  0  0  0
  -21.6760   -7.0760   21.4480 O   0  0  0  0  0  0  0  0  0  0  0  0
  -21.6360   -6.3330   22.6020 C   0  0  0  0  0  0  0  0  0  0  0  0
  -21.2180   -6.8880   23.8300 C   0  0  0  0  0  3  0  0  0  0  0  0
  -21.1200   -6.0710   24.9760 C   0  0  0  0  0  3  0  0  0  0  0  0
  -21.4330   -4.7020   24.8930 C   0  0  0  0  0  0  0  0  0  0  0  0
  -21.8510   -4.1480   23.6710 C   0  0  0  0  0  3  0  0  0  0  0  0
  -21.9480   -4.9620   22.5270 C   0  0  0  0  0  0  0  0  0  0  0  0
  -22.3280   -4.4190   21.3460 F   0  0  0  0  0  0  0  0  0  0  0  0
  -21.3390   -3.9130   25.9900 F   0  0  0  0  0  0  0  0  0  0  0  0
  -22.8090  -13.7000   21.1640 C   0  0  0  0  0  0  0  0  0  0  0  0
  -22.1060  -13.0090   22.0520 N   0  0  0  0  0  0  0  0  0  0  0  0
  -22.3620  -14.7280   20.6610 O   0  0  0  0  0  0  0  0  0  0  0  0
  -22.4860  -12.1780   22.4820 H   0  0  0  0  0  0  0  0  0  0  0  0
  -21.1770  -13.3150   22.2960 H   0  0  0  0  0  0  0  0  0  0  0  0
  -25.3840  -15.3760   20.3200 N   0  0  0  0  0  0  0  0  0  0  0  0
  -24.5830  -15.9850   20.4510 H   0  0  0  0  0  0  0  0  0  0  0  0
  -26.1850  -15.8510   19.9280 H   0  0  0  0  0  0  0  0  0  0  0  0
  -32.2320  -19.3690   19.7420 C   0  0  0  0  0  1  0  0  0  0  0  0
  -30.7470  -19.1530   17.7140 C   0  0  0  0  0  1  0  0  0  0  0  0
  -31.1110  -21.3460   18.7980 C   0  0  0  0  0  1  0  0  0  0  0  0
  -30.9100  -19.8430   19.0860 C   0  0  1  0  0  0  0  0  0  0  0  0
  1  3  1  0
  3  2  1  0
  6 17  2  0
  7  5  1  0
  7 12  1  0
  8 16  1  0
  8 18  1  0
  9 15  1  0
  9 11  1  0
 10 16  1  0
 11 10  1  0
 12 11  2  0
 13  7  2  0
 14 13  1  0
 14  9  2  0
 15  8  1  0
 16  6  1  0
 18 20  2  0
 19 18  1  0
 21 19  1  0
 22 31  2  0
 22 27  1  0
 23 19  1  0
 23 27  1  0
 24 23  1  0
 25 26  1  0
 25 24  1  0
 26 22  1  0
 27 28  2  0
 28 29  1  0
 30 29  2  0
 31 30  1  0
 32  6  1  0
 32 37  1  0
 32 33  1  0
 33 36  1  1
 33 34  1  0
 35 33  1  0
 37 40  1  0
 38 42  1  0
 38 37  1  0
 39 38  2  0
 42 41  1  0
 44 42  1  0
 44 45  1  0
 44 43  1  0
 46 55  1  0
 47 55  1  0
 48 53  1  0
 49 50  1  0
 49 48  1  0
 51 50  1  0
 51 60  1  0
 51 52  1  0
 53 47  1  0
 53 52  1  0
 54 47  2  0
 55 56  1  0
 57 58  2  0
 58 77  1  0
 59 58  1  0
 59 62  1  0
 60 61  1  0
 60 57  1  0
 61 59  2  0
 62 63  1  0
 63 64  2  0
 65 68  1  0
 65 64  1  0
 66 65  2  0
 67 66  1  0
 67 62  2  0
 68 69  1  0
 69 70  1  0
 70 71  2  0
 72 71  1  0
 72 76  1  0
 73 72  2  0
 74 69  2  0
 74 73  1  0
 75 74  1  0
 77 78  1  0
 78 81  1  0
 78 80  1  0
 79 77  2  0
 82 83  1  0
 82 57  1  0
 84 82  1  0
 88 86  1  6
 87 88  1  0
 88 85  1  0
 88 46  1  0
M  ISO  4   4 101   5 101  47 100  55 100
M  END
>  <TORSDO>  (76) 
F 19

>  <SCORE>  (76) 
-15.800

>  <name>  (76) 
75

>  <ligand_id>  (76) 
75

>  <original_smiles>  (76) 
[H]c1c([H])c([H])c2c(c1[H])C([H])([H])C([H])([H])C([H])([H])C2([H])N([H])C(=O)C1([H])N(C(=O)C([H])(N([H])C(=O)C([H])(N([H])C([H])([H])[H])C([H])([H])[H])C(C([H])([H])[H])(C([H])([H])[H])C([H])([H])[H])C([H])([H])c2c([H])c(OC([H])([H])C(C([H])([H])[H])(C([H])([H])[H])C([H])(N([H])C(=O)N3C([H])([H])C([H])([H])C([H])([H])C([H])(n4nc(-c5c([H])c([H])c(Oc6c([H])c([H])c(F)c([H])c6F)c([H])c5[H])c(C(=O)N([H])[H])c4N([H])[H])C3([H])[H])C(C([H])([H])[H])(C([H])([H])[H])C([H])([H])[H])c([H])c([H])c2C1([H])[H]

>  <smiles>  (76) 
[H]c1c([H])c([H])c2c(c1[H])C([H])([H])C([H])([H])C([H])([H])C2([H])N([H])C(=O)C1([H])N(C(=O)C([H])(N([H])C(=O)C([H])(N([H])C([H])([H])[H])C([H])([H])[H])C(C([H])([H])[H])(C([H])([H])[H])C([H])([H])[H])C([H])([H])c2c([H])c(OC([H])([H])C(C([H])([H])[H])(C([H])([H])[H])C([H])(N([H])C(=O)N3C([H])([H])C([H])([H])C([H])([H])C([H])(n4nc(-c5c([H])c([H])c(Oc6c([H])c([H])c(F)c([H])c6F)c([H])c5[H])c(C(=O)N([H])[H])c4N([H])[H])C3([H])[H])C(C([H])([H])[H])(C([H])([H])[H])C([H])([H])[H])c([H])c([H])c2C1([H])[H]

$$$$
76:0:0
     RDKit          3D

 88 96  0  0  1  0  0  0  0  0999 V2000
  -28.7890  -21.1760   20.9420 C   0  0  0  0  0  3  0  0  0  0  0  0
  -29.1590  -22.3810   20.4150 C   0  0  0  0  0  0  0  0  0  0  0  0
  -29.5730  -19.9870   20.4240 C   0  0  0  0  0  0  0  0  0  0  0  0
  -30.2990  -22.1550   19.4450 C   0  0  0  0  0  2  0  0  0  0  0  0
  -30.5240  -20.6010   19.3820 C   0  0  0  0  0  3  0  0  0  0  0  0
  -32.0070  -20.2360   19.5720 C   0  0  0  0  0  1  0  0  0  0  0  0
  -29.4410  -18.7300   20.8130 N   0  0  0  0  0  0  0  0  0  0  0  0
  -28.7050  -23.8500   20.8490 C   0  0  0  0  0  3  0  0  0  0  0  0
  -28.4470  -25.0400   19.7920 C   0  0  0  0  0  3  0  0  0  0  0  0
  -28.3680  -26.4670   20.2600 O   0  0  0  0  0  0  0  0  0  0  0  0
  -24.6190  -31.8860   23.2470 C   0  0  0  0  0  0  0  0  0  0  0  0
  -27.2210  -27.2910   20.1900 C   0  0  0  0  0  0  0  0  0  0  0  0
  -23.4100  -30.4850   21.6130 C   0  0  0  0  0  3  0  0  0  0  0  0
  -24.8520  -28.9270   20.1830 C   0  0  0  0  0  0  0  0  0  0  0  0
  -25.9510  -30.7940   21.4220 C   0  0  0  0  0  2  0  0  0  0  0  0
  -26.0240  -29.4110   20.7760 C   0  0  0  0  0  0  0  0  0  0  0  0
  -27.2050  -28.6050   20.7680 C   0  0  0  0  0  3  0  0  0  0  0  0
  -26.0190  -26.8650   19.5770 C   0  0  0  0  0  3  0  0  0  0  0  0
  -24.8550  -27.6600   19.5780 C   0  0  0  0  0  3  0  0  0  0  0  0
  -23.6180  -29.8050   20.2330 C   0  0  0  0  0  2  0  0  0  0  0  0
  -24.6790  -31.0750   22.1490 N   0  0  0  0  0  0  0  0  0  0  0  0
  -23.5370  -32.1650   23.7840 O   0  0  0  0  0  0  0  0  0  0  0  0
  -22.7470  -29.4750   22.5800 C   0  0  0  0  0  0  0  0  0  0  0  0
  -21.4220  -29.2920   22.4520 N   0  0  0  0  0  0  0  0  0  0  0  0
  -23.4260  -28.8560   23.4030 O   0  0  0  0  0  0  0  0  0  0  0  0
  -20.9360  -29.8420   21.7570 H   0  0  0  0  0  0  0  0  0  0  0  0
  -18.0500  -28.0710   22.9390 C   0  0  0  0  0  0  0  0  0  0  0  0
  -20.6040  -28.3560   23.2270 C   0  0  0  0  0  3  0  0  0  0  0  0
  -20.7240  -26.9200   22.6680 C   0  0  0  0  0  2  0  0  0  0  0  0
  -19.6340  -26.5750   21.6490 C   0  0  0  0  0  2  0  0  0  0  0  0
  -18.2440  -26.7170   22.2780 C   0  0  0  0  0  2  0  0  0  0  0  0
  -19.1580  -28.8480   23.3700 C   0  0  0  0  0  0  0  0  0  0  0  0
  -18.9240  -30.1150   23.9450 C   0  0  0  0  0  3  0  0  0  0  0  0
  -17.6130  -30.6050   24.0980 C   0  0  0  0  0  3  0  0  0  0  0  0
  -16.5190  -29.8260   23.6850 C   0  0  0  0  0  3  0  0  0  0  0  0
  -16.7370  -28.5610   23.1090 C   0  0  0  0  0  3  0  0  0  0  0  0
  -25.9040  -32.5200   23.8630 C   0  0  0  0  0  3  0  0  0  0  0  0
  -26.4240  -31.7520   25.1400 C   0  0  1  0  0  0  0  0  0  0  0  0
  -25.3350  -31.5190   26.2130 C   0  0  0  0  0  1  0  0  0  0  0  0
  -27.0050  -30.3730   24.7500 C   0  0  0  0  0  1  0  0  0  0  0  0
  -27.5790  -32.5470   25.7950 C   0  0  0  0  0  1  0  0  0  0  0  0
  -25.5940  -33.9180   24.1950 N   0  0  0  0  0  0  0  0  0  0  0  0
  -25.9200  -34.9730   23.4350 C   0  0  0  0  0  0  0  0  0  0  0  0
  -26.5840  -34.8700   22.3990 O   0  0  0  0  0  0  0  0  0  0  0  0
  -25.0070  -34.0730   25.0020 H   0  0  0  0  0  0  0  0  0  0  0  0
  -24.1860  -36.7620   23.1010 C   0  0  0  0  0  1  0  0  0  0  0  0
  -25.4360  -36.3620   23.8980 C   0  0  0  0  0  3  0  0  0  0  0  0
  -27.5790  -37.2480   24.7040 C   0  0  0  0  0  1  0  0  0  0  0  0
  -26.4660  -37.4160   23.7720 N   0  0  0  0  0  0  0  0  0  0  0  0
  -26.0620  -38.3350   23.9270 H   0  0  0  0  0  0  0  0  0  0  0  0
  -30.2650  -17.5430   20.3360 C   0  0  0  0  0  3  0  0  0  0  0  0
  -29.8080  -16.0740   20.8490 C   0  0  0  0  0  3  0  0  0  0  0  0
  -30.5790  -14.7450   20.3740 C   0  0  0  0  0  0  0  0  0  0  0  0
  -30.3710  -12.4790   19.3240 C   0  0  0  0  0  2  0  0  0  0  0  0
  -29.4230  -12.5830   18.1070 C   0  0  0  0  0  2  0  0  0  0  0  0
  -27.9550  -12.4120   18.5430 C   0  0  0  0  0  2  0  0  0  0  0  0
  -27.5950  -13.2850   19.7740 C   0  0  0  0  0  3  0  0  0  0  0  0
  -28.6620  -13.1730   20.8850 C   0  0  0  0  0  2  0  0  0  0  0  0
  -29.9640  -13.5150   20.3000 N   0  0  0  0  0  0  0  0  0  0  0  0
  -31.7380  -14.8610   19.9610 O   0  0  0  0  0  0  0  0  0  0  0  0
  -25.2090  -13.8790   20.5080 C   0  0  0  0  0  0  0  0  0  0  0  0
  -24.1430  -13.1070   20.8820 C   0  0  0  0  0  0  0  0  0  0  0  0
  -24.6080  -11.7560   20.8550 C   0  0  0  0  0  0  0  0  0  0  0  0
  -26.2530  -13.0000   20.2700 N   0  0  0  0  0  0  0  0  0  0  0  0
  -25.8970  -11.7170   20.5430 N   0  0  0  0  0  0  0  0  0  0  0  0
  -23.8820  -10.4930   21.0530 C   0  0  0  0  0  0  0  0  0  0  0  0
  -24.3280   -9.5200   21.9740 C   0  0  0  0  0  3  0  0  0  0  0  0
  -23.6020   -8.3230   22.1600 C   0  0  0  0  0  3  0  0  0  0  0  0
  -22.4160   -8.0920   21.4240 C   0  0  0  0  0  0  0  0  0  0  0  0
  -21.9890   -9.0530   20.4920 C   0  0  0  0  0  3  0  0  0  0  0  0
  -22.7140  -10.2410   20.3040 C   0  0  0  0  0  3  0  0  0  0  0  0
  -21.6610   -6.9480   21.5200 O   0  0  0  0  0  0  0  0  0  0  0  0
  -21.6420   -6.1910   22.6640 C   0  0  0  0  0  0  0  0  0  0  0  0
  -21.2680   -6.7360   23.9100 C   0  0  0  0  0  3  0  0  0  0  0  0
  -21.1940   -5.9040   25.0480 C   0  0  0  0  0  3  0  0  0  0  0  0
  -21.4870   -4.5330   24.9380 C   0  0  0  0  0  0  0  0  0  0  0  0
  -21.8570   -3.9880   23.6950 C   0  0  0  0  0  3  0  0  0  0  0  0
  -21.9320   -4.8150   22.5610 C   0  0  0  0  0  0  0  0  0  0  0  0
  -22.2660   -4.2810   21.3620 F   0  0  0  0  0  0  0  0  0  0  0  0
  -21.4110   -3.7330   26.0270 F   0  0  0  0  0  0  0  0  0  0  0  0
  -22.7470  -13.5840   21.1570 C   0  0  0  0  0  0  0  0  0  0  0  0
  -22.0240  -12.8920   22.0310 N   0  0  0  0  0  0  0  0  0  0  0  0
  -22.3060  -14.6070   20.6330 O   0  0  0  0  0  0  0  0  0  0  0  0
  -22.3940  -12.0630   22.4720 H   0  0  0  0  0  0  0  0  0  0  0  0
  -21.0890  -13.1950   22.2620 H   0  0  0  0  0  0  0  0  0  0  0  0
  -25.3710  -15.2490   20.3250 N   0  0  0  0  0  0  0  0  0  0  0  0
  -24.6070  -15.9060   20.4380 H   0  0  0  0  0  0  0  0  0  0  0  0
  -26.2290  -15.6910   20.0160 H   0  0  0  0  0  0  0  0  0  0  0  0
  2  8  1  0
  2  1  2  0
  3  7  2  0
  3  1  1  0
  4  2  1  0
  5  4  1  0
  5  6  1  0
  5  3  1  0
  9 10  1  0
  9  8  2  0
 11 22  2  0
 12 10  1  0
 12 17  1  0
 13 21  1  0
 13 23  1  0
 14 20  1  0
 14 16  1  0
 15 21  1  0
 16 15  1  0
 17 16  2  0
 18 19  1  0
 18 12  2  0
 19 14  2  0
 20 13  1  0
 21 11  1  0
 23 25  2  0
 24 23  1  0
 26 24  1  0
 27 36  2  0
 27 32  1  0
 28 24  1  0
 28 32  1  0
 29 28  1  0
 30 31  1  0
 30 29  1  0
 31 27  1  0
 32 33  2  0
 33 34  1  0
 35 34  2  0
 36 35  1  0
 37 11  1  0
 37 42  1  0
 37 38  1  0
 38 41  1  1
 38 39  1  0
 40 38  1  0
 42 45  1  0
 43 47  1  0
 43 42  1  0
 44 43  2  0
 47 46  1  0
 49 47  1  0
 49 50  1  0
 49 48  1  0
 51  7  1  0
 51 52  2  0
 53 52  1  0
 54 59  1  0
 55 56  1  0
 55 54  1  0
 57 56  1  0
 57 64  1  0
 57 58  1  0
 59 53  1  0
 59 58  1  0
 60 53  2  0
 61 62  2  0
 62 81  1  0
 63 62  1  0
 63 66  1  0
 64 61  1  0
 64 65  1  0
 65 63  2  0
 66 67  1  0
 67 68  2  0
 69 72  1  0
 69 68  1  0
 70 69  2  0
 71 70  1  0
 71 66  2  0
 72 73  1  0
 73 74  1  0
 74 75  2  0
 76 75  1  0
 76 80  1  0
 77 76  2  0
 78 73  2  0
 78 77  1  0
 79 78  1  0
 81 82  1  0
 82 85  1  0
 82 84  1  0
 83 81  2  0
 86 87  1  0
 86 61  1  0
 88 86  1  0
M  ISO  4   9 101  10 101  52 100  53 100
M  END
>  <TORSDO>  (77) 
F 20

>  <SCORE>  (77) 
-13.818

>  <name>  (77) 
76

>  <ligand_id>  (77) 
76

>  <original_smiles>  (77) 
[H]C1=C(C([H])([H])C([H])([H])Oc2c([H])c([H])c3c(c2[H])C([H])([H])N(C(=O)C([H])(N([H])C(=O)C([H])(N([H])C([H])([H])[H])C([H])([H])[H])C(C([H])([H])[H])(C([H])([H])[H])C([H])([H])[H])C([H])(C(=O)N([H])C2([H])c4c([H])c([H])c([H])c([H])c4C([H])([H])C([H])([H])C2([H])[H])C3([H])[H])C([H])([H])C([H])(C([H])([H])[H])C1=NC([H])([H])C([H])([H])C(=O)N1C([H])([H])C([H])([H])C([H])([H])C([H])(n2nc(-c3c([H])c([H])c(Oc4c([H])c([H])c(F)c([H])c4F)c([H])c3[H])c(C(=O)N([H])[H])c2N([H])[H])C1([H])[H]

>  <smiles>  (77) 
[H]C1=C(C([H])([H])C([H])([H])Oc2c([H])c([H])c3c(c2[H])C([H])([H])N(C(=O)C([H])(N([H])C(=O)C([H])(N([H])C([H])([H])[H])C([H])([H])[H])C(C([H])([H])[H])(C([H])([H])[H])C([H])([H])[H])C([H])(C(=O)N([H])C2([H])c4c([H])c([H])c([H])c([H])c4C([H])([H])C([H])([H])C2([H])[H])C3([H])[H])C([H])([H])C([H])(C([H])([H])[H])C1=NC([H])([H])C([H])([H])C(=O)N1C([H])([H])C([H])([H])C([H])([H])C([H])(n2nc(-c3c([H])c([H])c(Oc4c([H])c([H])c(F)c([H])c4F)c([H])c3[H])c(C(=O)N([H])[H])c2N([H])[H])C1([H])[H]

$$$$
77:0:0
     RDKit          3D

 93101  0  0  1  0  0  0  0  0999 V2000
  -28.7220  -22.3210   20.1160 C   0  0  0  0  0  3  0  0  0  0  0  0
  -29.5930  -21.2630   20.2800 C   0  0  0  0  0  0  0  0  0  0  0  0
  -31.0450  -21.6120   20.5860 C   0  0  0  0  0  2  0  0  0  0  0  0
  -31.3750  -23.1160   20.4110 C   0  0  0  0  0  2  0  0  0  0  0  0
  -29.1370  -23.8440   20.1140 C   0  0  0  0  0  3  0  0  0  0  0  0
  -30.3300  -23.9690   20.8870 O   0  0  0  0  0  0  0  0  0  0  0  0
  -28.0750  -24.9670   20.5620 C   0  0  0  0  0  2  0  0  0  0  0  0
  -28.3060  -26.4110   20.2280 O   0  0  0  0  0  0  0  0  0  0  0  0
  -24.6040  -31.8740   23.2290 C   0  0  0  0  0  0  0  0  0  0  0  0
  -27.1970  -27.2820   20.1920 C   0  0  0  0  0  0  0  0  0  0  0  0
  -23.3960  -30.4670   21.5990 C   0  0  0  0  0  3  0  0  0  0  0  0
  -24.8420  -28.9130   20.1720 C   0  0  0  0  0  0  0  0  0  0  0  0
  -25.9350  -30.7820   21.4080 C   0  0  0  0  0  2  0  0  0  0  0  0
  -26.0120  -29.3970   20.7700 C   0  0  0  0  0  0  0  0  0  0  0  0
  -27.1930  -28.5910   20.7740 C   0  0  0  0  0  3  0  0  0  0  0  0
  -26.0120  -26.8690   19.5440 C   0  0  0  0  0  3  0  0  0  0  0  0
  -24.8440  -27.6560   19.5480 C   0  0  0  0  0  3  0  0  0  0  0  0
  -23.6060  -29.7910   20.2200 C   0  0  0  0  0  2  0  0  0  0  0  0
  -24.6650  -31.0570   22.1370 N   0  0  0  0  0  0  0  0  0  0  0  0
  -23.5220  -32.1560   23.7630 O   0  0  0  0  0  0  0  0  0  0  0  0
  -22.7350  -29.4540   22.5640 C   0  0  0  0  0  0  0  0  0  0  0  0
  -21.4090  -29.2750   22.4390 N   0  0  0  0  0  0  0  0  0  0  0  0
  -23.4130  -28.8340   23.3880 O   0  0  0  0  0  0  0  0  0  0  0  0
  -20.9200  -29.8270   21.7480 H   0  0  0  0  0  0  0  0  0  0  0  0
  -18.0350  -28.0700   22.9390 C   0  0  0  0  0  0  0  0  0  0  0  0
  -20.5920  -28.3420   23.2150 C   0  0  0  0  0  3  0  0  0  0  0  0
  -20.7010  -26.9060   22.6500 C   0  0  0  0  0  2  0  0  0  0  0  0
  -19.6030  -26.5710   21.6360 C   0  0  0  0  0  2  0  0  0  0  0  0
  -18.2190  -26.7160   22.2740 C   0  0  0  0  0  2  0  0  0  0  0  0
  -19.1490  -28.8390   23.3670 C   0  0  0  0  0  0  0  0  0  0  0  0
  -18.9230  -30.1070   23.9480 C   0  0  0  0  0  3  0  0  0  0  0  0
  -17.6160  -30.6030   24.1070 C   0  0  0  0  0  3  0  0  0  0  0  0
  -16.5160  -29.8300   23.6980 C   0  0  0  0  0  3  0  0  0  0  0  0
  -16.7270  -28.5660   23.1190 C   0  0  0  0  0  3  0  0  0  0  0  0
  -25.8890  -32.5080   23.8480 C   0  0  0  0  0  3  0  0  0  0  0  0
  -25.5780  -33.9080   24.1750 N   0  0  0  0  0  0  0  0  0  0  0  0
  -25.9090  -34.9590   23.4120 C   0  0  0  0  0  0  0  0  0  0  0  0
  -26.5760  -34.8530   22.3800 O   0  0  0  0  0  0  0  0  0  0  0  0
  -24.9860  -34.0640   24.9770 H   0  0  0  0  0  0  0  0  0  0  0  0
  -24.1820  -36.7540   23.0590 C   0  0  0  0  0  1  0  0  0  0  0  0
  -25.4230  -36.3480   23.8690 C   0  0  0  0  0  3  0  0  0  0  0  0
  -27.5600  -37.2300   24.7000 C   0  0  0  0  0  1  0  0  0  0  0  0
  -26.4570  -37.4020   23.7560 N   0  0  0  0  0  0  0  0  0  0  0  0
  -26.0510  -38.3200   23.9120 H   0  0  0  0  0  0  0  0  0  0  0  0
  -26.4090  -31.7420   25.1260 C   0  0  1  0  0  0  0  0  0  0  0  0
  -25.3180  -31.5050   26.1960 C   0  0  0  0  0  1  0  0  0  0  0  0
  -26.9900  -30.3640   24.7360 C   0  0  0  0  0  1  0  0  0  0  0  0
  -27.5640  -32.5350   25.7820 C   0  0  0  0  0  1  0  0  0  0  0  0
  -29.2500  -19.7030   20.1640 C   0  0  0  0  0  3  0  0  0  0  0  0
  -30.2830  -18.7420   20.7570 N   0  0  0  0  0  4  0  0  0  0  0  0
  -31.0780  -18.6930   20.1440 H   0  0  0  0  0  0  0  0  0  0  0  0
  -30.6110  -19.2140   21.5850 H   0  0  0  0  0  0  0  0  0  0  0  0
  -29.9510  -17.3290   21.2560 C   0  0  0  0  0  2  0  0  0  0  0  0
  -29.7580  -16.0940   20.2510 C   0  0  0  0  0  2  0  0  0  0  0  0
  -30.5930  -14.7330   20.3430 C   0  0  0  0  0  0  0  0  0  0  0  0
  -30.3950  -12.4590   19.3500 C   0  0  0  0  0  2  0  0  0  0  0  0
  -29.4500  -12.5510   18.1280 C   0  0  0  0  0  2  0  0  0  0  0  0
  -27.9770  -12.3780   18.5550 C   0  0  0  0  0  2  0  0  0  0  0  0
  -27.6050  -13.2630   19.7710 C   0  0  0  0  0  3  0  0  0  0  0  0
  -28.6690  -13.1770   20.8880 C   0  0  0  0  0  2  0  0  0  0  0  0
  -29.9800  -13.5030   20.3110 N   0  0  0  0  0  0  0  0  0  0  0  0
  -31.8030  -14.8160   20.1100 O   0  0  0  0  0  0  0  0  0  0  0  0
  -25.2210  -13.8550   20.5180 C   0  0  0  0  0  0  0  0  0  0  0  0
  -24.1580  -13.0800   20.8940 C   0  0  0  0  0  0  0  0  0  0  0  0
  -24.6260  -11.7290   20.8650 C   0  0  0  0  0  0  0  0  0  0  0  0
  -26.2660  -12.9760   20.2750 N   0  0  0  0  0  0  0  0  0  0  0  0
  -25.9150  -11.6950   20.5480 N   0  0  0  0  0  0  0  0  0  0  0  0
  -23.9040  -10.4670   21.0600 C   0  0  0  0  0  0  0  0  0  0  0  0
  -24.3470   -9.4960   21.9860 C   0  0  0  0  0  3  0  0  0  0  0  0
  -23.6240   -8.2960   22.1670 C   0  0  0  0  0  3  0  0  0  0  0  0
  -22.4450   -8.0600   21.4220 C   0  0  0  0  0  0  0  0  0  0  0  0
  -22.0210   -9.0180   20.4840 C   0  0  0  0  0  3  0  0  0  0  0  0
  -22.7430  -10.2090   20.3020 C   0  0  0  0  0  3  0  0  0  0  0  0
  -21.6920   -6.9150   21.5150 O   0  0  0  0  0  0  0  0  0  0  0  0
  -21.6620   -6.1640   22.6620 C   0  0  0  0  0  0  0  0  0  0  0  0
  -21.2610   -6.7120   23.9020 C   0  0  0  0  0  3  0  0  0  0  0  0
  -21.1810   -5.8900   25.0400 C   0  0  0  0  0  3  0  0  0  0  0  0
  -21.4890   -4.5190   24.9440 C   0  0  0  0  0  0  0  0  0  0  0  0
  -21.8830   -3.9710   23.7110 C   0  0  0  0  0  3  0  0  0  0  0  0
  -21.9680   -4.7910   22.5720 C   0  0  0  0  0  0  0  0  0  0  0  0
  -22.3290   -4.2540   21.3820 F   0  0  0  0  0  0  0  0  0  0  0  0
  -21.4030   -3.7260   26.0380 F   0  0  0  0  0  0  0  0  0  0  0  0
  -22.7600  -13.5520   21.1660 C   0  0  0  0  0  0  0  0  0  0  0  0
  -22.0370  -12.8540   22.0340 N   0  0  0  0  0  0  0  0  0  0  0  0
  -22.3180  -14.5770   20.6450 O   0  0  0  0  0  0  0  0  0  0  0  0
  -22.4130  -12.0280   22.4740 H   0  0  0  0  0  0  0  0  0  0  0  0
  -21.0980  -13.1470   22.2620 H   0  0  0  0  0  0  0  0  0  0  0  0
  -25.3770  -15.2260   20.3420 N   0  0  0  0  0  0  0  0  0  0  0  0
  -24.5940  -15.8630   20.4490 H   0  0  0  0  0  0  0  0  0  0  0  0
  -26.2090  -15.6740   19.9820 H   0  0  0  0  0  0  0  0  0  0  0  0
  -29.0060  -19.2570   18.6960 C   0  0  0  0  0  2  0  0  0  0  0  0
  -27.7870  -19.4770   16.4650 C   0  0  0  0  0  1  0  0  0  0  0  0
  -28.0330  -20.0960   17.8510 C   0  0  0  0  0  2  0  0  0  0  0  0
  1  2  2  0
  2  3  1  0
  4  3  1  0
  4  6  1  0
  5  1  1  0
  5  7  1  0
  5  6  1  0
  8  7  1  0
  9 20  2  0
 10  8  1  0
 10 15  1  0
 11 19  1  0
 11 21  1  0
 12 18  1  0
 12 14  1  0
 13 19  1  0
 14 15  2  0
 14 13  1  0
 16 17  1  0
 16 10  2  0
 17 12  2  0
 18 11  1  0
 19  9  1  0
 21 23  2  0
 22 21  1  0
 24 22  1  0
 25 34  2  0
 25 30  1  0
 26 22  1  0
 26 30  1  0
 27 26  1  0
 28 29  1  0
 28 27  1  0
 29 25  1  0
 30 31  2  0
 31 32  1  0
 33 32  2  0
 34 33  1  0
 35  9  1  0
 35 36  1  0
 35 45  1  0
 36 39  1  0
 37 41  1  0
 37 36  1  0
 38 37  2  0
 41 40  1  0
 43 41  1  0
 43 44  1  0
 43 42  1  0
 45 48  1  1
 45 46  1  0
 47 45  1  0
 49 91  1  0
 49  2  1  0
 49 50  1  0
 50 53  1  0
 50 52  1  0
 51 50  1  0
 54 55  1  0
 54 53  1  0
 56 61  1  0
 57 58  1  0
 57 56  1  0
 59 58  1  0
 59 66  1  0
 59 60  1  0
 61 55  1  0
 61 60  1  0
 62 55  2  0
 63 64  2  0
 64 83  1  0
 65 64  1  0
 65 68  1  0
 66 63  1  0
 66 67  1  0
 67 65  2  0
 68 69  1  0
 69 70  2  0
 71 74  1  0
 71 70  1  0
 72 71  2  0
 73 72  1  0
 73 68  2  0
 74 75  1  0
 75 76  1  0
 76 77  2  0
 78 77  1  0
 78 82  1  0
 79 78  2  0
 80 75  2  0
 80 79  1  0
 81 80  1  0
 83 84  1  0
 84 87  1  0
 84 86  1  0
 85 83  2  0
 88 89  1  0
 88 63  1  0
 90 88  1  0
 92 93  1  0
 93 91  1  0
M  ISO  4   7 101   8 101  54 100  55 100
M  END
>  <TORSDO>  (78) 
F 23

>  <SCORE>  (78) 
-13.019

>  <name>  (78) 
77

>  <ligand_id>  (78) 
77

>  <original_smiles>  (78) 
[H]C1=C(C([H])(C([H])([H])C([H])([H])C([H])([H])[H])[N+]([H])([H])C([H])([H])C([H])([H])C(=O)N2C([H])([H])C([H])([H])C([H])([H])C([H])(n3nc(-c4c([H])c([H])c(Oc5c([H])c([H])c(F)c([H])c5F)c([H])c4[H])c(C(=O)N([H])[H])c3N([H])[H])C2([H])[H])C([H])([H])C([H])([H])OC1([H])C([H])([H])Oc1c([H])c([H])c2c(c1[H])C([H])([H])N(C(=O)C([H])(N([H])C(=O)C([H])(N([H])C([H])([H])[H])C([H])([H])[H])C(C([H])([H])[H])(C([H])([H])[H])C([H])([H])[H])C([H])(C(=O)N([H])C1([H])c3c([H])c([H])c([H])c([H])c3C([H])([H])C([H])([H])C1([H])[H])C2([H])[H]

>  <smiles>  (78) 
[H]C1=C(C([H])(C([H])([H])C([H])([H])C([H])([H])[H])[N+]([H])([H])C([H])([H])C([H])([H])C(=O)N2C([H])([H])C([H])([H])C([H])([H])C([H])(n3nc(-c4c([H])c([H])c(Oc5c([H])c([H])c(F)c([H])c5F)c([H])c4[H])c(C(=O)N([H])[H])c3N([H])[H])C2([H])[H])C([H])([H])C([H])([H])OC1([H])C([H])([H])Oc1c([H])c([H])c2c(c1[H])C([H])([H])N(C(=O)C([H])(N([H])C(=O)C([H])(N([H])C([H])([H])[H])C([H])([H])[H])C(C([H])([H])[H])(C([H])([H])[H])C([H])([H])[H])C([H])(C(=O)N([H])C1([H])c3c([H])c([H])c([H])c([H])c3C([H])([H])C([H])([H])C1([H])[H])C2([H])[H]

$$$$
78:0:0
     RDKit          3D

 95102  0  0  1  0  0  0  0  0999 V2000
  -30.4740  -20.5540   20.8390 C   0  0  0  0  0  3  0  0  0  0  0  0
  -30.5940  -19.4870   21.9790 C   0  0  0  0  0  0  0  0  0  0  0  0
  -31.2670  -17.4120   23.0450 C   0  0  0  0  0  1  0  0  0  0  0  0
  -30.9140  -18.1500   21.8190 N   0  0  0  0  0  0  0  0  0  0  0  0
  -30.4360  -19.9500   23.1150 O   0  0  0  0  0  0  0  0  0  0  0  0
  -32.4320  -17.2230   20.0680 C   0  0  0  0  0  1  0  0  0  0  0  0
  -30.9730  -17.2740   20.5930 C   0  0  0  0  0  3  0  0  0  0  0  0
  -28.6950  -16.1870   20.7090 C   0  0  0  0  0  1  0  0  0  0  0  0
  -30.2070  -15.8560   20.7890 C   0  0  0  0  0  3  0  0  0  0  0  0
  -30.6740  -14.5750   19.9640 C   0  0  0  0  0  0  0  0  0  0  0  0
  -30.3170  -12.3480   18.8990 C   0  0  0  0  0  2  0  0  0  0  0  0
  -29.2840  -12.5070   17.7620 C   0  0  0  0  0  2  0  0  0  0  0  0
  -27.8520  -12.3360   18.3060 C   0  0  0  0  0  2  0  0  0  0  0  0
  -27.5970  -13.1850   19.5790 C   0  0  0  0  0  3  0  0  0  0  0  0
  -28.7600  -12.9890   20.5950 C   0  0  0  0  0  2  0  0  0  0  0  0
  -30.0100  -13.3750   19.9210 N   0  0  0  0  0  0  0  0  0  0  0  0
  -31.7160  -14.6770   19.3140 O   0  0  0  0  0  0  0  0  0  0  0  0
  -25.2760  -13.7740   20.5150 C   0  0  0  0  0  0  0  0  0  0  0  0
  -24.2380  -12.9870   20.9410 C   0  0  0  0  0  0  0  0  0  0  0  0
  -24.6860  -11.6380   20.8090 C   0  0  0  0  0  0  0  0  0  0  0  0
  -26.2920  -12.8970   20.1630 N   0  0  0  0  0  0  0  0  0  0  0  0
  -25.9450  -11.6060   20.3900 N   0  0  0  0  0  0  0  0  0  0  0  0
  -23.9670  -10.3740   21.0000 C   0  0  0  0  0  0  0  0  0  0  0  0
  -24.4210   -9.4000   21.9160 C   0  0  0  0  0  3  0  0  0  0  0  0
  -23.7020   -8.1980   22.0990 C   0  0  0  0  0  3  0  0  0  0  0  0
  -22.5200   -7.9600   21.3600 C   0  0  0  0  0  0  0  0  0  0  0  0
  -22.0860   -8.9230   20.4300 C   0  0  0  0  0  3  0  0  0  0  0  0
  -22.8040  -10.1170   20.2470 C   0  0  0  0  0  3  0  0  0  0  0  0
  -21.7730   -6.8100   21.4540 O   0  0  0  0  0  0  0  0  0  0  0  0
  -21.6950   -6.0910   22.6200 C   0  0  0  0  0  0  0  0  0  0  0  0
  -21.1800   -6.6580   23.8060 C   0  0  0  0  0  3  0  0  0  0  0  0
  -21.0510   -5.8690   24.9670 C   0  0  0  0  0  3  0  0  0  0  0  0
  -21.4230   -4.5100   24.9410 C   0  0  0  0  0  0  0  0  0  0  0  0
  -21.9250   -3.9400   23.7600 C   0  0  0  0  0  3  0  0  0  0  0  0
  -22.0610   -4.7300   22.6030 C   0  0  0  0  0  0  0  0  0  0  0  0
  -22.5290   -4.1730   21.4590 F   0  0  0  0  0  0  0  0  0  0  0  0
  -21.2900   -3.7490   26.0510 F   0  0  0  0  0  0  0  0  0  0  0  0
  -22.8740  -13.4560   21.3550 C   0  0  0  0  0  0  0  0  0  0  0  0
  -22.2180  -12.7180   22.2450 N   0  0  0  0  0  0  0  0  0  0  0  0
  -22.4040  -14.5090   20.9280 O   0  0  0  0  0  0  0  0  0  0  0  0
  -22.6140  -11.8680   22.6220 H   0  0  0  0  0  0  0  0  0  0  0  0
  -21.3020  -13.0100   22.5530 H   0  0  0  0  0  0  0  0  0  0  0  0
  -25.4280  -15.1520   20.3850 N   0  0  0  0  0  0  0  0  0  0  0  0
  -24.6760  -15.8010   20.5930 H   0  0  0  0  0  0  0  0  0  0  0  0
  -26.2510  -15.6160   20.0250 H   0  0  0  0  0  0  0  0  0  0  0  0
  -29.5860  -21.6890   21.3060 N   0  0  0  0  0  4  0  0  0  0  0  0
  -28.8070  -21.2400   21.7640 H   0  0  0  0  0  0  0  0  0  0  0  0
  -30.0950  -22.1480   22.0430 H   0  0  0  0  0  0  0  0  0  0  0  0
  -29.0340  -22.6920   20.3250 C   0  0  0  0  0  2  0  0  0  0  0  0
  -28.6870  -24.1260   20.9010 C   0  0  0  0  0  3  0  0  0  0  0  0
  -28.4960  -25.2560   19.8130 C   0  0  0  0  0  3  0  0  0  0  0  0
  -28.3930  -26.6410   20.2760 O   0  0  0  0  0  0  0  0  0  0  0  0
  -24.6170  -31.9400   23.2410 C   0  0  0  0  0  0  0  0  0  0  0  0
  -27.2170  -27.3910   20.2080 C   0  0  0  0  0  0  0  0  0  0  0  0
  -23.4000  -30.5100   21.6350 C   0  0  0  0  0  3  0  0  0  0  0  0
  -24.8380  -28.9620   20.2030 C   0  0  0  0  0  0  0  0  0  0  0  0
  -25.9310  -30.8510   21.4180 C   0  0  0  0  0  2  0  0  0  0  0  0
  -26.0070  -29.4740   20.7780 C   0  0  0  0  0  0  0  0  0  0  0  0
  -27.1990  -28.6990   20.7660 C   0  0  0  0  0  3  0  0  0  0  0  0
  -26.0200  -26.9090   19.6290 C   0  0  0  0  0  3  0  0  0  0  0  0
  -24.8500  -27.6870   19.6150 C   0  0  0  0  0  3  0  0  0  0  0  0
  -23.5940  -29.8190   20.2590 C   0  0  0  0  0  2  0  0  0  0  0  0
  -24.6670  -31.1200   22.1530 N   0  0  0  0  0  0  0  0  0  0  0  0
  -23.5420  -32.2160   23.7900 O   0  0  0  0  0  0  0  0  0  0  0  0
  -22.7630  -29.5000   22.6150 C   0  0  0  0  0  0  0  0  0  0  0  0
  -21.4520  -29.2500   22.4520 N   0  0  0  0  0  0  0  0  0  0  0  0
  -23.4450  -28.9390   23.4760 O   0  0  0  0  0  0  0  0  0  0  0  0
  -20.9630  -29.7510   21.7230 H   0  0  0  0  0  0  0  0  0  0  0  0
  -18.1350  -27.8650   22.8320 C   0  0  0  0  0  0  0  0  0  0  0  0
  -20.6510  -28.3080   23.2310 C   0  0  0  0  0  3  0  0  0  0  0  0
  -20.8780  -26.8550   22.7500 C   0  0  0  0  0  2  0  0  0  0  0  0
  -19.8610  -26.4030   21.6970 C   0  0  0  0  0  2  0  0  0  0  0  0
  -18.4370  -26.4940   22.2520 C   0  0  0  0  0  2  0  0  0  0  0  0
  -19.1760  -28.7230   23.2760 C   0  0  0  0  0  0  0  0  0  0  0  0
  -18.8430  -30.0030   23.7720 C   0  0  0  0  0  3  0  0  0  0  0  0
  -17.5010  -30.4260   23.8330 C   0  0  0  0  0  3  0  0  0  0  0  0
  -16.4730  -29.5630   23.4110 C   0  0  0  0  0  3  0  0  0  0  0  0
  -16.7920  -28.2860   22.9160 C   0  0  0  0  0  3  0  0  0  0  0  0
  -25.9100  -32.5840   23.8370 C   0  0  0  0  0  3  0  0  0  0  0  0
  -25.6000  -33.9830   24.1530 N   0  0  0  0  0  0  0  0  0  0  0  0
  -25.9280  -35.0290   23.3840 C   0  0  0  0  0  0  0  0  0  0  0  0
  -26.5880  -34.9200   22.3480 O   0  0  0  0  0  0  0  0  0  0  0  0
  -25.0090  -34.1460   24.9560 H   0  0  0  0  0  0  0  0  0  0  0  0
  -24.1970  -36.8140   23.0240 C   0  0  0  0  0  1  0  0  0  0  0  0
  -25.4430  -36.4200   23.8330 C   0  0  0  0  0  3  0  0  0  0  0  0
  -27.5730  -37.3160   24.6600 C   0  0  0  0  0  1  0  0  0  0  0  0
  -26.4740  -37.4730   23.7110 N   0  0  0  0  0  0  0  0  0  0  0  0
  -26.0680  -38.3950   23.8520 H   0  0  0  0  0  0  0  0  0  0  0  0
  -26.4470  -31.8320   25.1150 C   0  0  1  0  0  0  0  0  0  0  0  0
  -25.3610  -31.5820   26.1890 C   0  0  0  0  0  1  0  0  0  0  0  0
  -27.0490  -30.4610   24.7330 C   0  0  0  0  0  1  0  0  0  0  0  0
  -27.5890  -32.6530   25.7620 C   0  0  0  0  0  1  0  0  0  0  0  0
  -32.5990  -21.9880   21.5040 C   0  0  0  0  0  1  0  0  0  0  0  0
  -32.1000  -21.5900   19.0450 C   0  0  0  0  0  1  0  0  0  0  0  0
  -31.9210  -21.0510   20.4770 C   0  0  0  0  0  3  0  0  0  0  0  0
  1 95  1  0
  1 46  1  0
  1  2  1  0
  2  5  2  0
  4  2  1  0
  4  3  1  0
  7  6  1  0
  7  9  1  0
  7  4  1  0
  9  8  1  0
 10  9  1  0
 11 16  1  0
 12 13  1  0
 12 11  1  0
 14 13  1  0
 14 21  1  0
 14 15  1  0
 16 10  1  0
 16 15  1  0
 17 10  2  0
 18 19  2  0
 19 38  1  0
 20 19  1  0
 20 23  1  0
 21 22  1  0
 21 18  1  0
 22 20  2  0
 23 24  1  0
 24 25  2  0
 26 29  1  0
 26 25  1  0
 27 26  2  0
 28 27  1  0
 28 23  2  0
 29 30  1  0
 30 31  1  0
 31 32  2  0
 33 32  1  0
 33 37  1  0
 34 33  2  0
 35 30  2  0
 35 34  1  0
 36 35  1  0
 38 39  1  0
 39 42  1  0
 39 41  1  0
 40 38  2  0
 43 18  1  0
 43 44  1  0
 45 43  1  0
 46 47  1  0
 46 48  1  0
 49 50  1  0
 49 46  1  0
 51 52  1  0
 51 50  2  0
 53 64  2  0
 54 52  1  0
 54 59  1  0
 55 63  1  0
 55 65  1  0
 56 62  1  0
 56 58  1  0
 57 63  1  0
 58 57  1  0
 59 58  2  0
 60 54  2  0
 61 60  1  0
 61 56  2  0
 62 55  1  0
 63 53  1  0
 65 67  2  0
 66 65  1  0
 68 66  1  0
 69 78  2  0
 69 74  1  0
 70 66  1  0
 70 74  1  0
 71 70  1  0
 72 73  1  0
 72 71  1  0
 73 69  1  0
 74 75  2  0
 75 76  1  0
 77 76  2  0
 78 77  1  0
 79 53  1  0
 79 80  1  0
 79 89  1  0
 80 83  1  0
 81 85  1  0
 81 80  1  0
 82 81  2  0
 85 84  1  0
 87 85  1  0
 87 88  1  0
 87 86  1  0
 89 92  1  1
 89 90  1  0
 91 89  1  0
 94 95  1  0
 95 93  1  0
M  ISO  4   9 100  10 100  51 101  52 101
M  END
>  <TORSDO>  (79) 
F 24

>  <SCORE>  (79) 
-11.250

>  <name>  (79) 
78

>  <ligand_id>  (79) 
78

>  <original_smiles>  (79) 
[H]c1c([H])c([H])c2c(c1[H])C([H])([H])C([H])([H])C([H])([H])C2([H])N([H])C(=O)C1([H])N(C(=O)C([H])(N([H])C(=O)C([H])(N([H])C([H])([H])[H])C([H])([H])[H])C(C([H])([H])[H])(C([H])([H])[H])C([H])([H])[H])C([H])([H])c2c([H])c(OC([H])([H])C([H])([H])C([H])([H])[N+]([H])([H])C([H])(C(=O)N(C([H])([H])[H])C([H])(C([H])([H])[H])C([H])(C(=O)N3C([H])([H])C([H])([H])C([H])([H])C([H])(n4nc(-c5c([H])c([H])c(Oc6c([H])c([H])c(F)c([H])c6F)c([H])c5[H])c(C(=O)N([H])[H])c4N([H])[H])C3([H])[H])C([H])([H])[H])C([H])(C([H])([H])[H])C([H])([H])[H])c([H])c([H])c2C1([H])[H]

>  <smiles>  (79) 
[H]c1c([H])c([H])c2c(c1[H])C([H])([H])C([H])([H])C([H])([H])C2([H])N([H])C(=O)C1([H])N(C(=O)C([H])(N([H])C(=O)C([H])(N([H])C([H])([H])[H])C([H])([H])[H])C(C([H])([H])[H])(C([H])([H])[H])C([H])([H])[H])C([H])([H])c2c([H])c(OC([H])([H])C([H])([H])C([H])([H])[N+]([H])([H])C([H])(C(=O)N(C([H])([H])[H])C([H])(C([H])([H])[H])C([H])(C(=O)N3C([H])([H])C([H])([H])C([H])([H])C([H])(n4nc(-c5c([H])c([H])c(Oc6c([H])c([H])c(F)c([H])c6F)c([H])c5[H])c(C(=O)N([H])[H])c4N([H])[H])C3([H])[H])C([H])([H])[H])C([H])(C([H])([H])[H])C([H])([H])[H])c([H])c([H])c2C1([H])[H]

$$$$
79:0:0
     RDKit          3D

 88 95  0  0  1  0  0  0  0  0999 V2000
  -29.0080  -22.8610   20.2590 C   0  0  0  0  0  3  0  0  0  0  0  0
  -28.6390  -21.1550   20.0980 C   0  0  0  0  0  0  0  0  0  0  0  0
  -29.4220  -19.9480   20.4280 N   0  0  0  0  0  0  0  0  0  0  0  0
  -27.5540  -20.9350   19.5610 O   0  0  0  0  0  0  0  0  0  0  0  0
  -30.2440  -20.1930   20.9670 H   0  0  0  0  0  0  0  0  0  0  0  0
  -29.5000  -18.3620   19.9150 C   0  0  0  0  0  2  0  0  0  0  0  0
  -29.7160  -16.7870   20.7300 C   0  0  0  0  0  2  0  0  0  0  0  0
  -30.4230  -15.2520   20.2740 C   0  0  0  0  0  0  0  0  0  0  0  0
  -30.3940  -12.8120   19.3840 C   0  0  0  0  0  2  0  0  0  0  0  0
  -29.4750  -12.6610   18.1430 C   0  0  0  0  0  2  0  0  0  0  0  0
  -28.0170  -12.4100   18.5650 C   0  0  0  0  0  2  0  0  0  0  0  0
  -27.5770  -13.3560   19.7110 C   0  0  0  0  0  3  0  0  0  0  0  0
  -28.6190  -13.4560   20.8470 C   0  0  0  0  0  2  0  0  0  0  0  0
  -29.8740  -13.9380   20.2470 N   0  0  0  0  0  0  0  0  0  0  0  0
  -31.6100  -15.2550   19.9130 O   0  0  0  0  0  0  0  0  0  0  0  0
  -25.2010  -13.9250   20.4390 C   0  0  0  0  0  0  0  0  0  0  0  0
  -24.1350  -13.1540   20.8060 C   0  0  0  0  0  0  0  0  0  0  0  0
  -24.6000  -11.8020   20.7900 C   0  0  0  0  0  0  0  0  0  0  0  0
  -26.2430  -13.0460   20.2080 N   0  0  0  0  0  0  0  0  0  0  0  0
  -25.8920  -11.7620   20.4880 N   0  0  0  0  0  0  0  0  0  0  0  0
  -23.8680  -10.5440   20.9870 C   0  0  0  0  0  0  0  0  0  0  0  0
  -24.2960   -9.5760   21.9210 C   0  0  0  0  0  3  0  0  0  0  0  0
  -23.5620   -8.3850   22.1040 C   0  0  0  0  0  3  0  0  0  0  0  0
  -22.3850   -8.1530   21.3550 C   0  0  0  0  0  0  0  0  0  0  0  0
  -21.9770   -9.1080   20.4080 C   0  0  0  0  0  3  0  0  0  0  0  0
  -22.7100  -10.2920   20.2230 C   0  0  0  0  0  3  0  0  0  0  0  0
  -21.6210   -7.0120   21.4490 O   0  0  0  0  0  0  0  0  0  0  0  0
  -21.5790   -6.2670   22.6010 C   0  0  0  0  0  0  0  0  0  0  0  0
  -21.1760   -6.8240   23.8350 C   0  0  0  0  0  3  0  0  0  0  0  0
  -21.0800   -6.0060   24.9780 C   0  0  0  0  0  3  0  0  0  0  0  0
  -21.3780   -4.6320   24.8880 C   0  0  0  0  0  0  0  0  0  0  0  0
  -21.7730   -4.0760   23.6580 C   0  0  0  0  0  3  0  0  0  0  0  0
  -21.8710   -4.8910   22.5180 C   0  0  0  0  0  0  0  0  0  0  0  0
  -22.2320   -4.3440   21.3310 F   0  0  0  0  0  0  0  0  0  0  0  0
  -21.2780   -3.8430   25.9830 F   0  0  0  0  0  0  0  0  0  0  0  0
  -22.7380  -13.6360   21.0630 C   0  0  0  0  0  0  0  0  0  0  0  0
  -22.0030  -12.9510   21.9310 N   0  0  0  0  0  0  0  0  0  0  0  0
  -22.3080  -14.6570   20.5290 O   0  0  0  0  0  0  0  0  0  0  0  0
  -22.3650  -12.1250   22.3850 H   0  0  0  0  0  0  0  0  0  0  0  0
  -21.0640  -13.2580   22.1460 H   0  0  0  0  0  0  0  0  0  0  0  0
  -25.3690  -15.2950   20.2540 N   0  0  0  0  0  0  0  0  0  0  0  0
  -24.6000  -15.9490   20.3620 H   0  0  0  0  0  0  0  0  0  0  0  0
  -26.2210  -15.7370   19.9380 H   0  0  0  0  0  0  0  0  0  0  0  0
  -30.9780  -24.3830   19.5210 C   0  0  0  0  0  1  0  0  0  0  0  0
  -29.6940  -23.1070   17.7750 C   0  0  0  0  0  1  0  0  0  0  0  0
  -30.1630  -23.1080   19.2440 C   0  0  0  0  0  3  0  0  0  0  0  0
  -27.9500  -24.3050   20.1730 C   0  0  0  0  0  2  0  0  0  0  0  0
  -28.2030  -25.9180   20.2890 O   0  0  0  0  0  0  0  0  0  0  0  0
  -24.6420  -31.8620   23.2150 C   0  0  0  0  0  0  0  0  0  0  0  0
  -27.1860  -26.9950   20.2230 C   0  0  0  0  0  0  0  0  0  0  0  0
  -23.4410  -30.4580   21.5910 C   0  0  0  0  0  3  0  0  0  0  0  0
  -24.8850  -28.8530   20.1680 C   0  0  0  0  0  0  0  0  0  0  0  0
  -26.0050  -30.6770   21.4340 C   0  0  0  0  0  2  0  0  0  0  0  0
  -26.0740  -29.2680   20.7800 C   0  0  0  0  0  0  0  0  0  0  0  0
  -27.2210  -28.3580   20.7850 C   0  0  0  0  0  3  0  0  0  0  0  0
  -25.9680  -26.7210   19.5640 C   0  0  0  0  0  3  0  0  0  0  0  0
  -24.8540  -27.5980   19.5410 C   0  0  0  0  0  3  0  0  0  0  0  0
  -23.6640  -29.7730   20.2150 C   0  0  0  0  0  2  0  0  0  0  0  0
  -24.7180  -31.0240   22.1340 N   0  0  0  0  0  0  0  0  0  0  0  0
  -23.5560  -32.1570   23.7390 O   0  0  0  0  0  0  0  0  0  0  0  0
  -22.7500  -29.4640   22.5610 C   0  0  0  0  0  0  0  0  0  0  0  0
  -21.4200  -29.3020   22.4390 N   0  0  0  0  0  0  0  0  0  0  0  0
  -23.4190  -28.8460   23.3930 O   0  0  0  0  0  0  0  0  0  0  0  0
  -20.9350  -29.8470   21.7410 H   0  0  0  0  0  0  0  0  0  0  0  0
  -18.0380  -28.1030   22.9500 C   0  0  0  0  0  0  0  0  0  0  0  0
  -20.5970  -28.3710   23.2150 C   0  0  0  0  0  3  0  0  0  0  0  0
  -20.7020  -26.9350   22.6510 C   0  0  0  0  0  2  0  0  0  0  0  0
  -19.6010  -26.6060   21.6390 C   0  0  0  0  0  2  0  0  0  0  0  0
  -18.2180  -26.7520   22.2800 C   0  0  0  0  0  2  0  0  0  0  0  0
  -19.1550  -28.8710   23.3730 C   0  0  0  0  0  0  0  0  0  0  0  0
  -18.9320  -30.1360   23.9600 C   0  0  0  0  0  3  0  0  0  0  0  0
  -17.6250  -30.6320   24.1290 C   0  0  0  0  0  3  0  0  0  0  0  0
  -16.5230  -29.8610   23.7210 C   0  0  0  0  0  3  0  0  0  0  0  0
  -16.7310  -28.6000   23.1360 C   0  0  0  0  0  3  0  0  0  0  0  0
  -25.9200  -32.5030   23.8410 C   0  0  0  0  0  3  0  0  0  0  0  0
  -25.6030  -33.9030   24.1770 N   0  0  0  0  0  0  0  0  0  0  0  0
  -25.9250  -34.9630   23.4230 C   0  0  0  0  0  0  0  0  0  0  0  0
  -26.5830  -34.8660   22.3840 O   0  0  0  0  0  0  0  0  0  0  0  0
  -25.0150  -34.0530   24.9840 H   0  0  0  0  0  0  0  0  0  0  0  0
  -24.1840  -36.7550   23.1160 C   0  0  0  0  0  1  0  0  0  0  0  0
  -25.4440  -36.3510   23.8980 C   0  0  0  0  0  3  0  0  0  0  0  0
  -27.5920  -37.2410   24.6870 C   0  0  0  0  0  1  0  0  0  0  0  0
  -26.4700  -37.4080   23.7660 N   0  0  0  0  0  0  0  0  0  0  0  0
  -26.0630  -38.3240   23.9260 H   0  0  0  0  0  0  0  0  0  0  0  0
  -26.4310  -31.7380   25.1250 C   0  0  1  0  0  0  0  0  0  0  0  0
  -25.3330  -31.5120   26.1920 C   0  0  0  0  0  1  0  0  0  0  0  0
  -27.0130  -30.3550   24.7500 C   0  0  0  0  0  1  0  0  0  0  0  0
  -27.5810  -32.5340   25.7840 C   0  0  0  0  0  1  0  0  0  0  0  0
  1 47  1  0
  2  1  1  0
  2  3  1  0
  3  5  1  0
  4  2  2  0
  6  3  1  0
  6  7  1  0
  8  7  1  0
  9 14  1  0
 10 11  1  0
 10  9  1  0
 12 11  1  0
 12 19  1  0
 12 13  1  0
 14  8  1  0
 14 13  1  0
 15  8  2  0
 16 17  2  0
 17 36  1  0
 18 17  1  0
 18 21  1  0
 19 16  1  0
 19 20  1  0
 20 18  2  0
 21 22  1  0
 22 23  2  0
 24 27  1  0
 24 23  1  0
 25 24  2  0
 26 25  1  0
 26 21  2  0
 27 28  1  0
 28 29  1  0
 29 30  2  0
 31 30  1  0
 31 35  1  0
 32 31  2  0
 33 28  2  0
 33 32  1  0
 34 33  1  0
 36 37  1  0
 37 40  1  0
 37 39  1  0
 38 36  2  0
 41 42  1  0
 41 16  1  0
 43 41  1  0
 45 46  1  0
 46 44  1  0
 46  1  1  0
 47 48  1  0
 49 60  2  0
 50 48  1  0
 50 55  1  0
 51 59  1  0
 51 61  1  0
 52 58  1  0
 52 54  1  0
 53 59  1  0
 54 55  2  0
 54 53  1  0
 56 50  2  0
 57 56  1  0
 57 52  2  0
 58 51  1  0
 59 49  1  0
 61 63  2  0
 62 61  1  0
 64 62  1  0
 65 74  2  0
 65 70  1  0
 66 62  1  0
 66 70  1  0
 67 66  1  0
 68 69  1  0
 68 67  1  0
 69 65  1  0
 70 71  2  0
 71 72  1  0
 73 72  2  0
 74 73  1  0
 75 49  1  0
 75 76  1  0
 75 85  1  0
 76 79  1  0
 77 81  1  0
 77 76  1  0
 78 77  2  0
 81 80  1  0
 83 81  1  0
 83 84  1  0
 83 82  1  0
 85 88  1  1
 85 86  1  0
 87 85  1  0
M  ISO  4   7 100   8 100  47 101  48 101
M  END
>  <TORSDO>  (80) 
F 21

>  <SCORE>  (80) 
-15.515

>  <name>  (80) 
79

>  <ligand_id>  (80) 
79

>  <original_smiles>  (80) 
[H]c1c([H])c([H])c2c(c1[H])C([H])([H])C([H])([H])C([H])([H])C2([H])N([H])C(=O)C1([H])N(C(=O)C([H])(N([H])C(=O)C([H])(N([H])C([H])([H])[H])C([H])([H])[H])C(C([H])([H])[H])(C([H])([H])[H])C([H])([H])[H])C([H])([H])c2c([H])c(OC([H])([H])C([H])(C(=O)N([H])C([H])([H])C([H])([H])C(=O)N3C([H])([H])C([H])([H])C([H])([H])C([H])(n4nc(-c5c([H])c([H])c(Oc6c([H])c([H])c(F)c([H])c6F)c([H])c5[H])c(C(=O)N([H])[H])c4N([H])[H])C3([H])[H])C([H])(C([H])([H])[H])C([H])([H])[H])c([H])c([H])c2C1([H])[H]

>  <smiles>  (80) 
[H]c1c([H])c([H])c2c(c1[H])C([H])([H])C([H])([H])C([H])([H])C2([H])N([H])C(=O)C1([H])N(C(=O)C([H])(N([H])C(=O)C([H])(N([H])C([H])([H])[H])C([H])([H])[H])C(C([H])([H])[H])(C([H])([H])[H])C([H])([H])[H])C([H])([H])c2c([H])c(OC([H])([H])C([H])(C(=O)N([H])C([H])([H])C([H])([H])C(=O)N3C([H])([H])C([H])([H])C([H])([H])C([H])(n4nc(-c5c([H])c([H])c(Oc6c([H])c([H])c(F)c([H])c6F)c([H])c5[H])c(C(=O)N([H])[H])c4N([H])[H])C3([H])[H])C([H])(C([H])([H])[H])C([H])([H])[H])c([H])c([H])c2C1([H])[H]

$$$$
80:0:0
     RDKit          3D

 91100  0  0  1  0  0  0  0  0999 V2000
  -30.1930  -21.5140   21.0710 C   0  0  0  0  0  3  0  0  0  0  0  0
  -30.2860  -20.1380   21.1380 C   0  0  0  0  0  3  0  0  0  0  0  0
  -27.2330  -21.7940   18.8970 C   0  0  0  0  0  3  0  0  0  0  0  0
  -28.4110  -21.3910   19.4160 C   0  0  0  0  0  0  0  0  0  0  0  0
  -29.2040  -22.3050   20.2850 C   0  0  0  0  0  0  0  0  0  0  0  0
  -29.1240  -23.7120   20.4400 C   0  0  0  0  0  3  0  0  0  0  0  0
  -26.2970  -20.9150   18.0880 C   0  0  0  0  0  2  0  0  0  0  0  0
  -26.5650  -19.4250   18.3350 C   0  0  0  0  0  2  0  0  0  0  0  0
  -28.0500  -19.1240   18.1380 C   0  0  0  0  0  2  0  0  0  0  0  0
  -29.3700  -19.1210   20.4050 C   0  0  0  0  0  3  0  0  0  0  0  0
  -28.9520  -19.9240   19.1070 C   0  0  0  0  0  3  0  0  0  0  0  0
  -29.6680  -16.1650   20.4190 C   0  0  0  0  0  3  0  0  0  0  0  0
  -29.9160  -17.5610   20.2940 C   0  0  0  0  0  3  0  0  0  0  0  0
  -30.5880  -14.9530   20.2120 C   0  0  0  0  0  0  0  0  0  0  0  0
  -30.4980  -12.5990   19.3110 C   0  0  0  0  0  2  0  0  0  0  0  0
  -29.5640  -12.5800   18.0760 C   0  0  0  0  0  2  0  0  0  0  0  0
  -28.0920  -12.3910   18.4970 C   0  0  0  0  0  2  0  0  0  0  0  0
  -27.6890  -13.3140   19.6750 C   0  0  0  0  0  3  0  0  0  0  0  0
  -28.7410  -13.2690   20.8030 C   0  0  0  0  0  2  0  0  0  0  0  0
  -30.0280  -13.6790   20.2190 N   0  0  0  0  0  0  0  0  0  0  0  0
  -31.7790  -15.0520   19.8960 O   0  0  0  0  0  0  0  0  0  0  0  0
  -25.3000  -13.9090   20.3960 C   0  0  0  0  0  0  0  0  0  0  0  0
  -24.2340  -13.1370   20.7710 C   0  0  0  0  0  0  0  0  0  0  0  0
  -24.7000  -11.7870   20.7530 C   0  0  0  0  0  0  0  0  0  0  0  0
  -26.3440  -13.0280   20.1650 N   0  0  0  0  0  0  0  0  0  0  0  0
  -25.9900  -11.7470   20.4450 N   0  0  0  0  0  0  0  0  0  0  0  0
  -23.9750  -10.5250   20.9510 C   0  0  0  0  0  0  0  0  0  0  0  0
  -24.3950   -9.5730   21.9070 C   0  0  0  0  0  3  0  0  0  0  0  0
  -23.6690   -8.3770   22.0930 C   0  0  0  0  0  3  0  0  0  0  0  0
  -22.5100   -8.1220   21.3220 C   0  0  0  0  0  0  0  0  0  0  0  0
  -22.1100   -9.0630   20.3560 C   0  0  0  0  0  3  0  0  0  0  0  0
  -22.8350  -10.2510   20.1680 C   0  0  0  0  0  3  0  0  0  0  0  0
  -21.7580   -6.9760   21.4130 O   0  0  0  0  0  0  0  0  0  0  0  0
  -21.6780   -6.2600   22.5810 C   0  0  0  0  0  0  0  0  0  0  0  0
  -21.1980   -6.8370   23.7770 C   0  0  0  0  0  3  0  0  0  0  0  0
  -21.0680   -6.0460   24.9360 C   0  0  0  0  0  3  0  0  0  0  0  0
  -21.4070   -4.6810   24.8990 C   0  0  0  0  0  0  0  0  0  0  0  0
  -21.8800   -4.1040   23.7070 C   0  0  0  0  0  3  0  0  0  0  0  0
  -22.0120   -4.8910   22.5510 C   0  0  0  0  0  0  0  0  0  0  0  0
  -22.4500   -4.3260   21.4000 F   0  0  0  0  0  0  0  0  0  0  0  0
  -21.2740   -3.9180   26.0100 F   0  0  0  0  0  0  0  0  0  0  0  0
  -22.8360  -13.6160   21.0330 C   0  0  0  0  0  0  0  0  0  0  0  0
  -22.1070  -12.9300   21.9070 N   0  0  0  0  0  0  0  0  0  0  0  0
  -22.3960  -14.6330   20.4990 O   0  0  0  0  0  0  0  0  0  0  0  0
  -22.4740  -12.1080   22.3620 H   0  0  0  0  0  0  0  0  0  0  0  0
  -21.1710  -13.2380   22.1280 H   0  0  0  0  0  0  0  0  0  0  0  0
  -25.4620  -15.2780   20.2070 N   0  0  0  0  0  0  0  0  0  0  0  0
  -24.6890  -15.9250   20.3120 H   0  0  0  0  0  0  0  0  0  0  0  0
  -26.2990  -15.7140   19.8450 H   0  0  0  0  0  0  0  0  0  0  0  0
  -28.1900  -24.8970   19.8660 C   0  0  0  0  0  2  0  0  0  0  0  0
  -28.4180  -26.3720   20.2170 O   0  0  0  0  0  0  0  0  0  0  0  0
  -24.6810  -31.8790   23.2750 C   0  0  0  0  0  0  0  0  0  0  0  0
  -27.3320  -27.3020   20.1590 C   0  0  0  0  0  0  0  0  0  0  0  0
  -23.4990  -30.4990   21.6080 C   0  0  0  0  0  3  0  0  0  0  0  0
  -24.9690  -28.9730   20.1610 C   0  0  0  0  0  0  0  0  0  0  0  0
  -26.0460  -30.8130   21.4480 C   0  0  0  0  0  2  0  0  0  0  0  0
  -26.1390  -29.4370   20.7760 C   0  0  0  0  0  0  0  0  0  0  0  0
  -27.3210  -28.6170   20.7620 C   0  0  0  0  0  3  0  0  0  0  0  0
  -26.1360  -26.9280   19.5060 C   0  0  0  0  0  3  0  0  0  0  0  0
  -24.9770  -27.7300   19.5150 C   0  0  0  0  0  3  0  0  0  0  0  0
  -23.7290  -29.8470   20.2180 C   0  0  0  0  0  2  0  0  0  0  0  0
  -24.7620  -31.0830   22.1660 N   0  0  0  0  0  0  0  0  0  0  0  0
  -23.5920  -32.1410   23.8060 O   0  0  0  0  0  0  0  0  0  0  0  0
  -22.8320  -29.4660   22.5480 C   0  0  0  0  0  0  0  0  0  0  0  0
  -21.5070  -29.2820   22.4120 N   0  0  0  0  0  0  0  0  0  0  0  0
  -23.5080  -28.8330   23.3640 O   0  0  0  0  0  0  0  0  0  0  0  0
  -21.0190  -29.8470   21.7300 H   0  0  0  0  0  0  0  0  0  0  0  0
  -18.1350  -28.0530   22.8860 C   0  0  0  0  0  0  0  0  0  0  0  0
  -20.6920  -28.3240   23.1620 C   0  0  0  0  0  3  0  0  0  0  0  0
  -20.8030  -26.9060   22.5580 C   0  0  0  0  0  2  0  0  0  0  0  0
  -19.7040  -26.5970   21.5350 C   0  0  0  0  0  2  0  0  0  0  0  0
  -18.3210  -26.7190   22.1810 C   0  0  0  0  0  2  0  0  0  0  0  0
  -19.2480  -28.8130   23.3320 C   0  0  0  0  0  0  0  0  0  0  0  0
  -19.0200  -30.0610   23.9540 C   0  0  0  0  0  3  0  0  0  0  0  0
  -17.7110  -30.5500   24.1300 C   0  0  0  0  0  3  0  0  0  0  0  0
  -16.6130  -29.7860   23.6980 C   0  0  0  0  0  3  0  0  0  0  0  0
  -16.8250  -28.5390   23.0830 C   0  0  0  0  0  3  0  0  0  0  0  0
  -25.9530  -32.5130   23.9170 C   0  0  0  0  0  3  0  0  0  0  0  0
  -25.6360  -33.9110   24.2460 N   0  0  0  0  0  0  0  0  0  0  0  0
  -25.9450  -34.9650   23.4800 C   0  0  0  0  0  0  0  0  0  0  0  0
  -26.5960  -34.8640   22.4370 O   0  0  0  0  0  0  0  0  0  0  0  0
  -25.0550  -34.0620   25.0580 H   0  0  0  0  0  0  0  0  0  0  0  0
  -24.1820  -36.7350   23.1760 C   0  0  0  0  0  1  0  0  0  0  0  0
  -25.4580  -36.3530   23.9440 C   0  0  0  0  0  3  0  0  0  0  0  0
  -27.6070  -37.2770   24.6900 C   0  0  0  0  0  1  0  0  0  0  0  0
  -26.4710  -37.4180   23.7820 N   0  0  0  0  0  0  0  0  0  0  0  0
  -26.0580  -38.3350   23.9310 H   0  0  0  0  0  0  0  0  0  0  0  0
  -26.4490  -31.7420   25.2020 C   0  0  1  0  0  0  0  0  0  0  0  0
  -25.3380  -31.5070   26.2520 C   0  0  0  0  0  1  0  0  0  0  0  0
  -27.0380  -30.3640   24.8220 C   0  0  0  0  0  1  0  0  0  0  0  0
  -27.5890  -32.5370   25.8810 C   0  0  0  0  0  1  0  0  0  0  0  0
  1  2  2  0
  3  4  2  0
  4  5  1  0
  5  6  2  0
  5  1  1  0
  7  8  1  0
  7  3  1  0
  9  8  1  0
 10 13  1  0
 10  2  1  0
 11  9  1  0
 11  4  1  0
 11 10  1  0
 13 12  2  0
 14 20  1  0
 14 12  1  0
 15 20  1  0
 16 17  1  0
 16 15  1  0
 18 17  1  0
 18 25  1  0
 18 19  1  0
 20 19  1  0
 21 14  2  0
 22 23  2  0
 23 42  1  0
 24 23  1  0
 24 27  1  0
 25 22  1  0
 25 26  1  0
 26 24  2  0
 27 28  1  0
 28 29  2  0
 30 33  1  0
 30 29  1  0
 31 30  2  0
 32 31  1  0
 32 27  2  0
 33 34  1  0
 34 35  1  0
 35 36  2  0
 37 36  1  0
 37 41  1  0
 38 37  2  0
 39 34  2  0
 39 38  1  0
 40 39  1  0
 42 43  1  0
 43 46  1  0
 43 45  1  0
 44 42  2  0
 47 48  1  0
 47 22  1  0
 49 47  1  0
 50 51  1  0
 50  6  1  0
 52 63  2  0
 53 51  1  0
 53 58  1  0
 54 62  1  0
 54 64  1  0
 55 61  1  0
 55 57  1  0
 56 62  1  0
 57 56  1  0
 58 57  2  0
 59 60  1  0
 59 53  2  0
 60 55  2  0
 61 54  1  0
 62 52  1  0
 64 66  2  0
 65 64  1  0
 67 65  1  0
 68 77  2  0
 68 73  1  0
 69 65  1  0
 69 73  1  0
 70 69  1  0
 71 72  1  0
 71 70  1  0
 72 68  1  0
 73 74  2  0
 74 75  1  0
 76 75  2  0
 77 76  1  0
 78 52  1  0
 78 79  1  0
 78 88  1  0
 79 82  1  0
 80 84  1  0
 80 79  1  0
 81 80  2  0
 84 83  1  0
 86 87  1  0
 86 84  1  0
 86 85  1  0
 88 91  1  1
 88 89  1  0
 90 88  1  0
M  ISO  4  12 100  14 100  50 101  51 101
M  END
>  <TORSDO>  (81) 
F 18

>  <SCORE>  (81) 
-14.800

>  <name>  (81) 
80

>  <ligand_id>  (81) 
80

>  <original_smiles>  (81) 
[H]C(C(=O)N1C([H])([H])C([H])([H])C([H])([H])C([H])(n2nc(-c3c([H])c([H])c(Oc4c([H])c([H])c(F)c([H])c4F)c([H])c3[H])c(C(=O)N([H])[H])c2N([H])[H])C1([H])[H])=C([H])C1([H])C([H])=C([H])C(=C([H])C([H])([H])Oc2c([H])c([H])c3c(c2[H])C([H])([H])N(C(=O)C([H])(N([H])C(=O)C([H])(N([H])C([H])([H])[H])C([H])([H])[H])C(C([H])([H])[H])(C([H])([H])[H])C([H])([H])[H])C([H])(C(=O)N([H])C2([H])c4c([H])c([H])c([H])c([H])c4C([H])([H])C([H])([H])C2([H])[H])C3([H])[H])C2=C([H])C([H])([H])C([H])([H])C([H])([H])C21[H]

>  <smiles>  (81) 
[H]C(C(=O)N1C([H])([H])C([H])([H])C([H])([H])C([H])(n2nc(-c3c([H])c([H])c(Oc4c([H])c([H])c(F)c([H])c4F)c([H])c3[H])c(C(=O)N([H])[H])c2N([H])[H])C1([H])[H])=C([H])C1([H])C([H])=C([H])C(=C([H])C([H])([H])Oc2c([H])c([H])c3c(c2[H])C([H])([H])N(C(=O)C([H])(N([H])C(=O)C([H])(N([H])C([H])([H])[H])C([H])([H])[H])C(C([H])([H])[H])(C([H])([H])[H])C([H])([H])[H])C([H])(C(=O)N([H])C2([H])c4c([H])c([H])c([H])c([H])c4C([H])([H])C([H])([H])C2([H])[H])C3([H])[H])C2=C([H])C([H])([H])C([H])([H])C([H])([H])C21[H]

$$$$
81:0:0
     RDKit          3D

 86 93  0  0  1  0  0  0  0  0999 V2000
  -28.6260  -22.2770   20.6030 C   0  0  0  0  0  2  0  0  0  0  0  0
  -29.5130  -20.9980   20.2800 C   0  0  0  0  0  3  0  0  0  0  0  0
  -29.1250  -19.6680   20.2820 C   0  0  0  0  0  3  0  0  0  0  0  0
  -29.7510  -17.8390   18.5940 C   0  0  0  0  0  1  0  0  0  0  0  0
  -29.9610  -18.3340   20.0320 C   0  0  0  0  0  3  0  0  0  0  0  0
  -29.8700  -15.7970   21.1760 C   0  0  0  0  0  3  0  0  0  0  0  0
  -29.6680  -17.1700   21.0530 C   0  0  0  0  0  3  0  0  0  0  0  0
  -30.5740  -14.7330   20.3800 C   0  0  0  0  0  0  0  0  0  0  0  0
  -30.3660  -12.4870   19.2750 C   0  0  0  0  0  2  0  0  0  0  0  0
  -29.4040  -12.6000   18.0700 C   0  0  0  0  0  2  0  0  0  0  0  0
  -27.9370  -12.4280   18.5100 C   0  0  0  0  0  2  0  0  0  0  0  0
  -27.5950  -13.2810   19.7590 C   0  0  0  0  0  3  0  0  0  0  0  0
  -28.6630  -13.1060   20.8570 C   0  0  0  0  0  2  0  0  0  0  0  0
  -29.9620  -13.4970   20.2840 N   0  0  0  0  0  0  0  0  0  0  0  0
  -31.6750  -14.9050   19.8500 O   0  0  0  0  0  0  0  0  0  0  0  0
  -25.2080  -13.8870   20.4930 C   0  0  0  0  0  0  0  0  0  0  0  0
  -24.1440  -13.1170   20.8730 C   0  0  0  0  0  0  0  0  0  0  0  0
  -24.6040  -11.7640   20.8460 C   0  0  0  0  0  0  0  0  0  0  0  0
  -26.2500  -13.0040   20.2550 N   0  0  0  0  0  0  0  0  0  0  0  0
  -25.8920  -11.7220   20.5290 N   0  0  0  0  0  0  0  0  0  0  0  0
  -23.8760  -10.5040   21.0510 C   0  0  0  0  0  0  0  0  0  0  0  0
  -24.3210   -9.5390   21.9810 C   0  0  0  0  0  3  0  0  0  0  0  0
  -23.5950   -8.3440   22.1750 C   0  0  0  0  0  3  0  0  0  0  0  0
  -22.4110   -8.1050   21.4380 C   0  0  0  0  0  0  0  0  0  0  0  0
  -21.9850   -9.0590   20.4960 C   0  0  0  0  0  3  0  0  0  0  0  0
  -22.7100  -10.2470   20.3010 C   0  0  0  0  0  3  0  0  0  0  0  0
  -21.6550   -6.9630   21.5390 O   0  0  0  0  0  0  0  0  0  0  0  0
  -21.6280   -6.2160   22.6910 C   0  0  0  0  0  0  0  0  0  0  0  0
  -21.2320   -6.7710   23.9280 C   0  0  0  0  0  3  0  0  0  0  0  0
  -21.1500   -5.9530   25.0720 C   0  0  0  0  0  3  0  0  0  0  0  0
  -21.4540   -4.5810   24.9820 C   0  0  0  0  0  0  0  0  0  0  0  0
  -21.8440   -4.0260   23.7500 C   0  0  0  0  0  3  0  0  0  0  0  0
  -21.9270   -4.8410   22.6070 C   0  0  0  0  0  0  0  0  0  0  0  0
  -22.2810   -4.2970   21.4180 F   0  0  0  0  0  0  0  0  0  0  0  0
  -21.3700   -3.7940   26.0800 F   0  0  0  0  0  0  0  0  0  0  0  0
  -22.7490  -13.5950   21.1550 C   0  0  0  0  0  0  0  0  0  0  0  0
  -22.0300  -12.9050   22.0330 N   0  0  0  0  0  0  0  0  0  0  0  0
  -22.3070  -14.6180   20.6320 O   0  0  0  0  0  0  0  0  0  0  0  0
  -22.4010  -12.0780   22.4760 H   0  0  0  0  0  0  0  0  0  0  0  0
  -21.0950  -13.2060   22.2660 H   0  0  0  0  0  0  0  0  0  0  0  0
  -25.3760  -15.2570   20.3090 N   0  0  0  0  0  0  0  0  0  0  0  0
  -24.6200  -15.9220   20.4280 H   0  0  0  0  0  0  0  0  0  0  0  0
  -26.2400  -15.6900   20.0080 H   0  0  0  0  0  0  0  0  0  0  0  0
  -28.9570  -23.7530   20.0220 C   0  0  0  0  0  3  0  0  0  0  0  0
  -28.0960  -24.9970   20.5980 C   0  0  0  0  0  3  0  0  0  0  0  0
  -28.3210  -26.4250   20.1970 O   0  0  0  0  0  0  0  0  0  0  0  0
  -24.6020  -31.8800   23.2440 C   0  0  0  0  0  0  0  0  0  0  0  0
  -27.2140  -27.2990   20.1870 C   0  0  0  0  0  0  0  0  0  0  0  0
  -23.3980  -30.4780   21.6060 C   0  0  0  0  0  3  0  0  0  0  0  0
  -24.8510  -28.9240   20.1810 C   0  0  0  0  0  0  0  0  0  0  0  0
  -25.9400  -30.7910   21.4230 C   0  0  0  0  0  2  0  0  0  0  0  0
  -26.0210  -29.4100   20.7780 C   0  0  0  0  0  0  0  0  0  0  0  0
  -27.2080  -28.6110   20.7680 C   0  0  0  0  0  3  0  0  0  0  0  0
  -26.0230  -26.8790   19.5570 C   0  0  0  0  0  3  0  0  0  0  0  0
  -24.8550  -27.6670   19.5600 C   0  0  0  0  0  3  0  0  0  0  0  0
  -23.6150  -29.8010   20.2270 C   0  0  0  0  0  2  0  0  0  0  0  0
  -24.6650  -31.0690   22.1460 N   0  0  0  0  0  0  0  0  0  0  0  0
  -23.5180  -32.1550   23.7810 O   0  0  0  0  0  0  0  0  0  0  0  0
  -22.7360  -29.4630   22.5690 C   0  0  0  0  0  0  0  0  0  0  0  0
  -21.4100  -29.2840   22.4450 N   0  0  0  0  0  0  0  0  0  0  0  0
  -23.4160  -28.8390   23.3890 O   0  0  0  0  0  0  0  0  0  0  0  0
  -20.9200  -29.8400   21.7590 H   0  0  0  0  0  0  0  0  0  0  0  0
  -18.0360  -28.0740   22.9460 C   0  0  0  0  0  0  0  0  0  0  0  0
  -20.5940  -28.3450   23.2180 C   0  0  0  0  0  3  0  0  0  0  0  0
  -20.7010  -26.9110   22.6490 C   0  0  0  0  0  2  0  0  0  0  0  0
  -19.6020  -26.5810   21.6340 C   0  0  0  0  0  2  0  0  0  0  0  0
  -18.2190  -26.7240   22.2760 C   0  0  0  0  0  2  0  0  0  0  0  0
  -19.1520  -28.8430   23.3750 C   0  0  0  0  0  0  0  0  0  0  0  0
  -18.9250  -30.1070   23.9610 C   0  0  0  0  0  3  0  0  0  0  0  0
  -17.6170  -30.6010   24.1250 C   0  0  0  0  0  3  0  0  0  0  0  0
  -16.5180  -29.8310   23.7110 C   0  0  0  0  0  3  0  0  0  0  0  0
  -16.7280  -28.5700   23.1260 C   0  0  0  0  0  3  0  0  0  0  0  0
  -25.8850  -32.5150   23.8650 C   0  0  0  0  0  3  0  0  0  0  0  0
  -25.5730  -33.9130   24.1930 N   0  0  0  0  0  0  0  0  0  0  0  0
  -25.9000  -34.9670   23.4350 C   0  0  0  0  0  0  0  0  0  0  0  0
  -26.5680  -34.8650   22.4010 O   0  0  0  0  0  0  0  0  0  0  0  0
  -24.9850  -34.0670   24.9990 H   0  0  0  0  0  0  0  0  0  0  0  0
  -24.1710  -36.7630   23.0840 C   0  0  0  0  0  1  0  0  0  0  0  0
  -25.4130  -36.3550   23.8940 C   0  0  0  0  0  3  0  0  0  0  0  0
  -27.5480  -37.2430   24.7240 C   0  0  0  0  0  1  0  0  0  0  0  0
  -26.4450  -37.4090   23.7810 N   0  0  0  0  0  0  0  0  0  0  0  0
  -26.0380  -38.3280   23.9290 H   0  0  0  0  0  0  0  0  0  0  0  0
  -26.4020  -31.7470   25.1420 C   0  0  1  0  0  0  0  0  0  0  0  0
  -25.3110  -31.5130   26.2130 C   0  0  0  0  0  1  0  0  0  0  0  0
  -26.9830  -30.3670   24.7540 C   0  0  0  0  0  1  0  0  0  0  0  0
  -27.5530  -32.5440   25.8030 C   0  0  0  0  0  1  0  0  0  0  0  0
  2  3  2  0
  2  1  1  0
  5  4  1  0
  5  3  1  0
  5  7  1  0
  7  6  2  0
  8  6  1  0
  9 14  1  0
 10 11  1  0
 10  9  1  0
 12 11  1  0
 12 19  1  0
 12 13  1  0
 14  8  1  0
 14 13  1  0
 15  8  2  0
 16 17  2  0
 17 36  1  0
 18 17  1  0
 18 21  1  0
 19 16  1  0
 19 20  1  0
 20 18  2  0
 21 22  1  0
 22 23  2  0
 24 27  1  0
 24 23  1  0
 25 24  2  0
 26 25  1  0
 26 21  2  0
 27 28  1  0
 28 29  1  0
 29 30  2  0
 31 30  1  0
 31 35  1  0
 32 31  2  0
 33 28  2  0
 33 32  1  0
 34 33  1  0
 36 37  1  0
 37 40  1  0
 37 39  1  0
 38 36  2  0
 41 42  1  0
 41 16  1  0
 43 41  1  0
 44 45  2  0
 44  1  1  0
 46 45  1  0
 47 58  2  0
 48 46  1  0
 48 53  1  0
 49 57  1  0
 49 59  1  0
 50 56  1  0
 50 52  1  0
 51 57  1  0
 52 51  1  0
 53 52  2  0
 54 55  1  0
 54 48  2  0
 55 50  2  0
 56 49  1  0
 57 47  1  0
 59 61  2  0
 60 59  1  0
 62 60  1  0
 63 72  2  0
 63 68  1  0
 64 60  1  0
 64 68  1  0
 65 64  1  0
 66 67  1  0
 66 65  1  0
 67 63  1  0
 68 69  2  0
 69 70  1  0
 71 70  2  0
 72 71  1  0
 73 47  1  0
 73 74  1  0
 73 83  1  0
 74 77  1  0
 75 79  1  0
 75 74  1  0
 76 75  2  0
 79 78  1  0
 81 79  1  0
 81 82  1  0
 81 80  1  0
 83 86  1  1
 83 84  1  0
 85 83  1  0
M  ISO  4   6 100   8 100  45 101  46 101
M  END
>  <TORSDO>  (82) 
F 21

>  <SCORE>  (82) 
-13.412

>  <name>  (82) 
81

>  <ligand_id>  (82) 
81

>  <original_smiles>  (82) 
[H]C(C(=O)N1C([H])([H])C([H])([H])C([H])([H])C([H])(n2nc(-c3c([H])c([H])c(Oc4c([H])c([H])c(F)c([H])c4F)c([H])c3[H])c(C(=O)N([H])[H])c2N([H])[H])C1([H])[H])=C([H])C([H])(C([H])=C([H])C([H])([H])C([H])([H])C([H])([H])Oc1c([H])c([H])c2c(c1[H])C([H])([H])N(C(=O)C([H])(N([H])C(=O)C([H])(N([H])C([H])([H])[H])C([H])([H])[H])C(C([H])([H])[H])(C([H])([H])[H])C([H])([H])[H])C([H])(C(=O)N([H])C1([H])c3c([H])c([H])c([H])c([H])c3C([H])([H])C([H])([H])C1([H])[H])C2([H])[H])C([H])([H])[H]

>  <smiles>  (82) 
[H]C(C(=O)N1C([H])([H])C([H])([H])C([H])([H])C([H])(n2nc(-c3c([H])c([H])c(Oc4c([H])c([H])c(F)c([H])c4F)c([H])c3[H])c(C(=O)N([H])[H])c2N([H])[H])C1([H])[H])=C([H])C([H])(C([H])=C([H])C([H])([H])C([H])([H])C([H])([H])Oc1c([H])c([H])c2c(c1[H])C([H])([H])N(C(=O)C([H])(N([H])C(=O)C([H])(N([H])C([H])([H])[H])C([H])([H])[H])C(C([H])([H])[H])(C([H])([H])[H])C([H])([H])[H])C([H])(C(=O)N([H])C1([H])c3c([H])c([H])c([H])c([H])c3C([H])([H])C([H])([H])C1([H])[H])C2([H])[H])C([H])([H])[H]

$$$$
82:0:0
     RDKit          3D

100103  0  0  1  0  0  0  0  0999 V2000
  -28.4880  -31.2070   26.5220 C   0  0  0  0  0  1  0  0  0  0  0  0
  -29.2370  -30.0820   25.5020 C   0  0  0  0  0  1  0  0  0  0  0  0
  -26.4140  -31.8890   26.5180 C   0  0  0  0  0  1  0  0  0  0  0  0
  -23.5540  -27.8730   26.2760 C   0  0  0  0  0  2  0  0  0  0  0  0
  -24.7510  -26.9590   26.0150 C   0  0  0  0  0  2  0  0  0  0  0  0
  -23.7540  -29.4060   26.2250 C   0  0  0  0  0  2  0  0  0  0  0  0
  -25.5190  -27.1400   24.6500 C   0  0  0  0  0  2  0  0  0  0  0  0
  -28.3700  -28.7130   24.1180 C   0  0  0  0  0  1  0  0  0  0  0  0
  -24.9510  -30.0260   25.3480 C   0  0  0  0  0  1  0  0  0  0  0  0
  -26.2310  -28.5170   24.0740 C   0  0  0  0  0  2  0  0  0  0  0  0
  -29.2510  -27.1510   23.6900 C   0  0  0  0  0  2  0  0  0  0  0  0
  -28.8680  -25.5220   23.5290 N   0  0  0  0  0  4  0  0  0  0  0  0
  -27.8600  -25.5270   23.5290 H   0  0  0  0  0  0  0  0  0  0  0  0
  -29.1070  -25.1020   24.4150 H   0  0  0  0  0  0  0  0  0  0  0  0
  -29.7400  -24.9260   21.1170 C   0  0  0  0  0  1  0  0  0  0  0  0
  -29.2050  -24.3030   22.4150 C   0  0  0  0  0  3  0  0  0  0  0  0
  -30.0440  -22.7450   22.5680 C   0  0  0  0  0  0  0  0  0  0  0  0
  -31.2400  -23.0770   23.4440 C   0  0  0  0  0  1  0  0  0  0  0  0
  -30.1610  -21.3870   22.1400 N   0  0  0  0  0  0  0  0  0  0  0  0
  -29.6030  -20.1320   21.2080 C   0  0  0  0  0  2  0  0  0  0  0  0
  -30.4090  -18.5280   20.9410 C   0  0  0  0  0  3  0  0  0  0  0  0
  -29.8210  -16.8700   20.5030 C   0  0  0  0  0  3  0  0  0  0  0  0
  -30.5460  -15.3480   19.9750 C   0  0  0  0  0  0  0  0  0  0  0  0
  -30.4220  -12.9030   18.9890 C   0  0  0  0  0  2  0  0  0  0  0  0
  -29.4470  -12.6840   17.7930 C   0  0  0  0  0  2  0  0  0  0  0  0
  -28.0150  -12.4260   18.2800 C   0  0  0  0  0  2  0  0  0  0  0  0
  -27.6220  -13.4270   19.3950 C   0  0  0  0  0  3  0  0  0  0  0  0
  -28.7040  -13.5750   20.4960 C   0  0  0  0  0  2  0  0  0  0  0  0
  -29.9510  -14.0480   19.8730 N   0  0  0  0  0  0  0  0  0  0  0  0
  -31.6970  -15.3620   19.5120 O   0  0  0  0  0  0  0  0  0  0  0  0
  -25.3040  -14.0420   20.2650 C   0  0  0  0  0  0  0  0  0  0  0  0
  -24.2430  -13.2910   20.6910 C   0  0  0  0  0  0  0  0  0  0  0  0
  -24.6700  -11.9290   20.6230 C   0  0  0  0  0  0  0  0  0  0  0  0
  -26.3080  -13.1420   19.9560 N   0  0  0  0  0  0  0  0  0  0  0  0
  -25.9410  -11.8630   20.2340 N   0  0  0  0  0  0  0  0  0  0  0  0
  -23.9190  -10.6870   20.8500 C   0  0  0  0  0  0  0  0  0  0  0  0
  -24.3530   -9.7200   21.7830 C   0  0  0  0  0  3  0  0  0  0  0  0
  -23.6020   -8.5430   21.9970 C   0  0  0  0  0  3  0  0  0  0  0  0
  -22.4010   -8.3270   21.2790 C   0  0  0  0  0  0  0  0  0  0  0  0
  -21.9860   -9.2810   20.3330 C   0  0  0  0  0  3  0  0  0  0  0  0
  -22.7380  -10.4480   20.1180 C   0  0  0  0  0  3  0  0  0  0  0  0
  -21.6180   -7.2040   21.4050 O   0  0  0  0  0  0  0  0  0  0  0  0
  -21.5540   -6.4980   22.5790 C   0  0  0  0  0  0  0  0  0  0  0  0
  -21.1550   -7.1020   23.7910 C   0  0  0  0  0  3  0  0  0  0  0  0
  -21.0350   -6.3250   24.9600 C   0  0  0  0  0  3  0  0  0  0  0  0
  -21.3050   -4.9430   24.9190 C   0  0  0  0  0  0  0  0  0  0  0  0
  -21.6970   -4.3380   23.7120 C   0  0  0  0  0  3  0  0  0  0  0  0
  -21.8190   -5.1140   22.5460 C   0  0  0  0  0  0  0  0  0  0  0  0
  -22.1760   -4.5220   21.3800 F   0  0  0  0  0  0  0  0  0  0  0  0
  -21.1830   -4.1930   26.0400 F   0  0  0  0  0  0  0  0  0  0  0  0
  -22.8790  -13.8050   21.0500 C   0  0  0  0  0  0  0  0  0  0  0  0
  -22.1890  -13.1220   21.9560 N   0  0  0  0  0  0  0  0  0  0  0  0
  -22.4400  -14.8470   20.5650 O   0  0  0  0  0  0  0  0  0  0  0  0
  -22.5610  -12.2790   22.3710 H   0  0  0  0  0  0  0  0  0  0  0  0
  -21.2740  -13.4420   22.2400 H   0  0  0  0  0  0  0  0  0  0  0  0
  -25.4940  -15.4090   20.0880 N   0  0  0  0  0  0  0  0  0  0  0  0
  -24.7560  -16.0830   20.2540 H   0  0  0  0  0  0  0  0  0  0  0  0
  -26.3400  -15.8310   19.7260 H   0  0  0  0  0  0  0  0  0  0  0  0
  -26.2860  -27.7220   22.5200 C   0  0  0  0  0  2  0  0  0  0  0  0
  -27.4300  -27.1910   21.5620 O   0  0  0  0  0  0  0  0  0  0  0  0
  -24.4900  -31.7370   22.8580 C   0  0  0  0  0  0  0  0  0  0  0  0
  -27.1360  -27.4960   20.2770 C   0  0  0  0  0  3  0  0  0  0  0  0
  -23.2470  -30.2610   21.3400 C   0  0  0  0  0  3  0  0  0  0  0  0
  -24.7460  -28.7890   19.8800 C   0  0  0  0  0  0  0  0  0  0  0  0
  -25.7630  -30.7540   21.0490 C   0  0  0  0  0  2  0  0  0  0  0  0
  -25.8900  -29.4730   20.3160 C   0  0  0  0  0  0  0  0  0  0  0  0
  -27.1500  -28.8740   20.2850 C   0  0  0  0  0  2  0  0  0  0  0  0
  -26.0830  -26.7770   19.6620 C   0  0  0  0  0  3  0  0  0  0  0  0
  -24.8550  -27.4480   19.4560 C   0  0  0  0  0  3  0  0  0  0  0  0
  -23.4360  -29.5250   19.9890 C   0  0  0  0  0  2  0  0  0  0  0  0
  -24.5110  -30.9000   21.8140 N   0  0  0  0  0  0  0  0  0  0  0  0
  -23.4170  -32.1600   23.3300 O   0  0  0  0  0  0  0  0  0  0  0  0
  -22.6260  -29.2710   22.3520 C   0  0  0  0  0  0  0  0  0  0  0  0
  -21.3070  -29.0610   22.2890 N   0  0  0  0  0  0  0  0  0  0  0  0
  -23.3230  -28.6470   23.1340 O   0  0  0  0  0  0  0  0  0  0  0  0
  -20.7740  -29.5760   21.6060 H   0  0  0  0  0  0  0  0  0  0  0  0
  -18.0560  -27.6410   22.8170 C   0  0  0  0  0  0  0  0  0  0  0  0
  -20.5670  -28.1150   23.1170 C   0  0  0  0  0  3  0  0  0  0  0  0
  -20.8040  -26.6600   22.6590 C   0  0  0  0  0  2  0  0  0  0  0  0
  -19.7550  -26.1770   21.6500 C   0  0  0  0  0  2  0  0  0  0  0  0
  -18.3420  -26.2710   22.2270 C   0  0  0  0  0  2  0  0  0  0  0  0
  -19.1000  -28.5080   23.2310 C   0  0  0  0  0  0  0  0  0  0  0  0
  -18.7760  -29.7810   23.7550 C   0  0  0  0  0  3  0  0  0  0  0  0
  -17.4360  -30.1960   23.8460 C   0  0  0  0  0  3  0  0  0  0  0  0
  -16.4050  -29.3380   23.4290 C   0  0  0  0  0  3  0  0  0  0  0  0
  -16.7150  -28.0620   22.9270 C   0  0  0  0  0  3  0  0  0  0  0  0
  -25.8200  -32.0110   23.6460 C   0  0  0  0  0  2  0  0  0  0  0  0
  -25.4960  -33.5000   24.0030 N   0  0  0  0  0  0  0  0  0  0  0  0
  -25.8030  -34.6800   23.3750 C   0  0  0  0  0  0  0  0  0  0  0  0
  -26.5060  -34.7210   22.3620 O   0  0  0  0  0  0  0  0  0  0  0  0
  -24.8730  -33.5810   24.7920 H   0  0  0  0  0  0  0  0  0  0  0  0
  -23.9800  -36.4420   23.0870 C   0  0  0  0  0  1  0  0  0  0  0  0
  -25.2360  -36.0430   23.8860 C   0  0  0  0  0  3  0  0  0  0  0  0
  -27.2720  -37.0950   24.7800 C   0  0  0  0  0  1  0  0  0  0  0  0
  -26.2080  -37.1610   23.7810 N   0  0  0  0  0  0  0  0  0  0  0  0
  -26.6400  -37.1470   22.8600 H   0  0  0  0  0  0  0  0  0  0  0  0
  -26.9460  -30.6840   24.6270 C   0  0  0  0  0  1  0  0  0  0  0  0
  -26.5320  -30.1930   26.9730 C   0  0  0  0  0  3  0  0  0  0  0  0
  -27.1340  -29.3090   26.2050 C   0  0  0  0  0  2  0  0  0  0  0  0
  -27.9920  -31.8200   23.8150 C   0  0  0  0  0  1  0  0  0  0  0  0
  2  1  1  0
  3 98  1  0
  5  4  1  0
  6  4  1  0
  7  5  1  0
  9  6  1  0
 10  7  1  0
 11  8  1  0
 12 11  1  0
 12 14  1  0
 13 12  1  0
 16 15  1  0
 16 17  1  0
 16 12  1  0
 17 18  1  0
 19 17  2  0
 20 19  1  0
 21 20  1  0
 22 21  2  0
 23 22  1  0
 24 29  1  0
 25 26  1  0
 25 24  1  0
 27 26  1  0
 27 34  1  0
 27 28  1  0
 29 23  1  0
 29 28  1  0
 30 23  2  0
 31 32  2  0
 32 51  1  0
 33 32  1  0
 33 36  1  0
 34 35  1  0
 34 31  1  0
 35 33  2  0
 36 37  1  0
 37 38  2  0
 39 42  1  0
 39 38  1  0
 40 39  2  0
 41 40  1  0
 41 36  2  0
 42 43  1  0
 43 44  1  0
 44 45  2  0
 46 45  1  0
 46 50  1  0
 47 46  2  0
 48 43  2  0
 48 47  1  0
 49 48  1  0
 51 52  1  0
 52 55  1  0
 52 54  1  0
 53 51  2  0
 56 57  1  0
 56 31  1  0
 58 56  1  0
 59 10  1  0
 60 59  1  0
 61 72  2  0
 61 87  1  0
 62 67  1  0
 62 60  1  0
 63 71  1  0
 63 73  1  0
 64 70  1  0
 64 66  2  0
 65 71  1  0
 66 65  1  0
 67 66  1  0
 68 62  1  0
 69 68  2  0
 69 64  1  0
 70 63  1  0
 71 61  1  0
 73 75  2  0
 74 73  1  0
 76 74  1  0
 77 86  2  0
 77 82  1  0
 78 74  1  0
 78 82  1  0
 79 78  1  0
 80 81  1  0
 80 79  1  0
 81 77  1  0
 82 83  2  0
 83 84  1  0
 85 84  2  0
 86 85  1  0
 87 88  1  0
 88 91  1  0
 89 93  1  0
 89 88  1  0
 90 89  2  0
 93 92  1  0
 95 93  1  0
 95 94  1  0
 96 95  1  0
 99 98  2  0
100 97  1  0
M  ISO  4  22 100  23 100  59 101  60 101
M  END
>  <TORSDO>  (83) 
F 24

>  <SCORE>  (83) 
-14.393

>  <name>  (83) 
82

>  <ligand_id>  (83) 
82

>  <original_smiles>  (83) 
[H]C1=C([H])C([H])(C([H])([H])[N+]([H])([H])C([H])(C(=NC([H])([H])C([H])([H])C([H])([H])C(=O)N2C([H])([H])C([H])([H])C([H])([H])C([H])(n3nc(-c4c([H])c([H])c(Oc5c([H])c([H])c(F)c([H])c5F)c([H])c4[H])c(C(=O)N([H])[H])c3N([H])[H])C2([H])[H])C([H])([H])[H])C([H])([H])[H])C2(C([H])([H])Oc3c([H])c([H])c4c(c3[H])C([H])([H])N(C(=O)C([H])(N([H])C(=O)C([H])(N([H])C([H])([H])[H])C([H])([H])[H])C(C([H])([H])[H])(C([H])([H])[H])C([H])([H])[H])C([H])(C(=O)N([H])C3([H])c5c([H])c([H])c([H])c([H])c5C([H])([H])C([H])([H])C3([H])[H])C4([H])[H])C([H])([H])C([H])([H])C([H])([H])C([H])([H])C2([H])C1([H])[H]

>  <smiles>  (83) 
[H]C1=C([H])C([H])(C([H])([H])[N+]([H])([H])C([H])(C(=NC([H])([H])C([H])([H])C([H])([H])C(=O)N2C([H])([H])C([H])([H])C([H])([H])C([H])(n3nc(-c4c([H])c([H])c(Oc5c([H])c([H])c(F)c([H])c5F)c([H])c4[H])c(C(=O)N([H])[H])c3N([H])[H])C2([H])[H])C([H])([H])[H])C([H])([H])[H])C2(C([H])([H])Oc3c([H])c([H])c4c(c3[H])C([H])([H])N(C(=O)C([H])(N([H])C(=O)C([H])(N([H])C([H])([H])[H])C([H])([H])[H])C(C([H])([H])[H])(C([H])([H])[H])C([H])([H])[H])C([H])(C(=O)N([H])C3([H])c5c([H])c([H])c([H])c([H])c5C([H])([H])C([H])([H])C3([H])[H])C4([H])[H])C([H])([H])C([H])([H])C([H])([H])C([H])([H])C2([H])C1([H])[H]

$$$$
83:0:0
     RDKit          3D

 86 94  0  0  1  0  0  0  0  0999 V2000
  -29.7190  -19.8060   21.5550 C   0  0  0  0  0  3  0  0  0  0  0  0
  -29.5490  -20.4370   20.3250 C   0  0  0  0  0  0  0  0  0  0  0  0
  -29.9620  -18.2330   21.6390 C   0  0  0  0  0  0  0  0  0  0  0  0
  -29.9240  -19.0110   19.4170 C   0  0  0  0  0  3  0  0  0  0  0  0
  -29.8540  -17.4270   20.2280 C   0  0  0  0  0  0  0  0  0  0  0  0
  -30.1820  -17.6550   22.7630 N   0  0  0  0  0  0  0  0  0  0  0  0
  -30.2340  -18.2330   23.6180 H   0  0  0  0  0  0  0  0  0  0  0  0
  -30.5590  -15.7160   19.8870 C   0  0  0  0  0  0  0  0  0  0  0  0
  -30.5470  -13.2240   18.9110 C   0  0  0  0  0  2  0  0  0  0  0  0
  -29.5570  -12.8900   17.7570 C   0  0  0  0  0  2  0  0  0  0  0  0
  -28.1590  -12.5350   18.2790 C   0  0  0  0  0  2  0  0  0  0  0  0
  -27.7440  -13.4720   19.4340 C   0  0  0  0  0  3  0  0  0  0  0  0
  -28.8580  -13.7200   20.4830 C   0  0  0  0  0  2  0  0  0  0  0  0
  -30.0170  -14.3480   19.8060 N   0  0  0  0  0  0  0  0  0  0  0  0
  -31.7480  -15.6430   19.5190 O   0  0  0  0  0  0  0  0  0  0  0  0
  -25.4580  -13.9780   20.4170 C   0  0  0  0  0  0  0  0  0  0  0  0
  -24.4240  -13.1790   20.8380 C   0  0  0  0  0  0  0  0  0  0  0  0
  -24.8820  -11.8350   20.7020 C   0  0  0  0  0  0  0  0  0  0  0  0
  -26.4650  -13.1100   20.0420 N   0  0  0  0  0  0  0  0  0  0  0  0
  -26.1400  -11.8120   20.2780 N   0  0  0  0  0  0  0  0  0  0  0  0
  -24.1680  -10.5660   20.9060 C   0  0  0  0  0  0  0  0  0  0  0  0
  -24.6230   -9.5930   21.8210 C   0  0  0  0  0  3  0  0  0  0  0  0
  -23.9000   -8.3960   22.0170 C   0  0  0  0  0  3  0  0  0  0  0  0
  -22.7120   -8.1530   21.2880 C   0  0  0  0  0  0  0  0  0  0  0  0
  -22.2670   -9.1210   20.3710 C   0  0  0  0  0  3  0  0  0  0  0  0
  -22.9900  -10.3130   20.1760 C   0  0  0  0  0  3  0  0  0  0  0  0
  -21.9540   -7.0090   21.3910 O   0  0  0  0  0  0  0  0  0  0  0  0
  -21.8850   -6.2960   22.5590 C   0  0  0  0  0  0  0  0  0  0  0  0
  -21.3910   -6.8690   23.7500 C   0  0  0  0  0  3  0  0  0  0  0  0
  -21.2740   -6.0830   24.9140 C   0  0  0  0  0  3  0  0  0  0  0  0
  -21.6280   -4.7200   24.8820 C   0  0  0  0  0  0  0  0  0  0  0  0
  -22.1080   -4.1470   23.6910 C   0  0  0  0  0  3  0  0  0  0  0  0
  -22.2300   -4.9310   22.5330 C   0  0  0  0  0  0  0  0  0  0  0  0
  -22.6750   -4.3650   21.3870 F   0  0  0  0  0  0  0  0  0  0  0  0
  -21.5040   -3.9630   25.9990 F   0  0  0  0  0  0  0  0  0  0  0  0
  -23.0620  -13.6520   21.2410 C   0  0  0  0  0  0  0  0  0  0  0  0
  -22.4060  -12.9290   22.1460 N   0  0  0  0  0  0  0  0  0  0  0  0
  -22.5770  -14.6890   20.7950 O   0  0  0  0  0  0  0  0  0  0  0  0
  -22.8060  -12.0840   22.5240 H   0  0  0  0  0  0  0  0  0  0  0  0
  -21.4960  -13.2260   22.4660 H   0  0  0  0  0  0  0  0  0  0  0  0
  -25.6150  -15.3530   20.2910 N   0  0  0  0  0  0  0  0  0  0  0  0
  -24.8770  -16.0090   20.5110 H   0  0  0  0  0  0  0  0  0  0  0  0
  -26.4360  -15.7990   19.8920 H   0  0  0  0  0  0  0  0  0  0  0  0
  -29.3240  -22.2360   19.8530 C   0  0  0  0  0  3  0  0  0  0  0  0
  -28.4940  -23.8950   20.4380 C   0  0  0  0  0  3  0  0  0  0  0  0
  -28.5040  -25.6470   20.2180 O   0  0  0  0  0  0  0  0  0  0  0  0
  -24.7380  -31.8160   23.1510 C   0  0  0  0  0  0  0  0  0  0  0  0
  -27.4530  -26.7960   20.2110 C   0  0  0  0  0  0  0  0  0  0  0  0
  -23.6080  -30.3870   21.4910 C   0  0  0  0  0  3  0  0  0  0  0  0
  -25.1200  -28.7700   20.1160 C   0  0  0  0  0  0  0  0  0  0  0  0
  -26.1890  -30.5830   21.4200 C   0  0  0  0  0  2  0  0  0  0  0  0
  -26.2980  -29.1560   20.7620 C   0  0  0  0  0  0  0  0  0  0  0  0
  -27.4480  -28.2010   20.7710 C   0  0  0  0  0  3  0  0  0  0  0  0
  -26.2250  -26.6160   19.5060 C   0  0  0  0  0  3  0  0  0  0  0  0
  -25.1250  -27.5230   19.4640 C   0  0  0  0  0  3  0  0  0  0  0  0
  -23.8910  -29.6910   20.1290 C   0  0  0  0  0  2  0  0  0  0  0  0
  -24.8660  -30.9630   22.0730 N   0  0  0  0  0  0  0  0  0  0  0  0
  -23.6330  -32.1010   23.6430 O   0  0  0  0  0  0  0  0  0  0  0  0
  -22.8870  -29.4050   22.4590 C   0  0  0  0  0  0  0  0  0  0  0  0
  -21.5590  -29.2320   22.3050 N   0  0  0  0  0  0  0  0  0  0  0  0
  -23.5340  -28.7930   23.3130 O   0  0  0  0  0  0  0  0  0  0  0  0
  -21.0890  -29.7720   21.5840 H   0  0  0  0  0  0  0  0  0  0  0  0
  -18.1800  -27.9520   22.7470 C   0  0  0  0  0  0  0  0  0  0  0  0
  -20.7300  -28.2840   23.0620 C   0  0  0  0  0  3  0  0  0  0  0  0
  -20.8790  -26.8510   22.5030 C   0  0  0  0  0  2  0  0  0  0  0  0
  -19.8090  -26.4960   21.4670 C   0  0  0  0  0  2  0  0  0  0  0  0
  -18.4070  -26.6070   22.0760 C   0  0  0  0  0  2  0  0  0  0  0  0
  -19.2700  -28.7460   23.1940 C   0  0  0  0  0  0  0  0  0  0  0  0
  -19.0020  -30.0020   23.7850 C   0  0  0  0  0  3  0  0  0  0  0  0
  -17.6810  -30.4640   23.9280 C   0  0  0  0  0  3  0  0  0  0  0  0
  -16.6070  -29.6680   23.4960 C   0  0  0  0  0  3  0  0  0  0  0  0
  -16.8560  -28.4120   22.9100 C   0  0  0  0  0  3  0  0  0  0  0  0
  -25.9810  -32.4810   23.8220 C   0  0  0  0  0  3  0  0  0  0  0  0
  -25.6450  -33.8860   24.1310 N   0  0  0  0  0  0  0  0  0  0  0  0
  -25.9850  -34.9420   23.3820 C   0  0  0  0  0  0  0  0  0  0  0  0
  -26.6740  -34.8390   22.3640 O   0  0  0  0  0  0  0  0  0  0  0  0
  -25.0480  -34.0440   24.9290 H   0  0  0  0  0  0  0  0  0  0  0  0
  -24.2500  -36.7330   22.9960 C   0  0  0  0  0  1  0  0  0  0  0  0
  -25.4820  -36.3330   23.8270 C   0  0  0  0  0  3  0  0  0  0  0  0
  -27.5900  -37.2390   24.7020 C   0  0  0  0  0  1  0  0  0  0  0  0
  -26.5100  -37.3910   23.7330 N   0  0  0  0  0  0  0  0  0  0  0  0
  -26.0930  -38.3070   23.8620 H   0  0  0  0  0  0  0  0  0  0  0  0
  -26.4570  -31.7430   25.1370 C   0  0  1  0  0  0  0  0  0  0  0  0
  -25.3270  -31.5170   26.1690 C   0  0  0  0  0  1  0  0  0  0  0  0
  -27.0710  -30.3610   24.8110 C   0  0  0  0  0  1  0  0  0  0  0  0
  -27.5750  -32.5630   25.8250 C   0  0  0  0  0  1  0  0  0  0  0  0
  1  3  1  0
  2  1  2  0
  3  6  2  0
  4  5  2  0
  4  2  1  0
  5  3  1  0
  6  7  1  0
  8  5  1  0
  9 14  1  0
 10 11  1  0
 10  9  1  0
 12 11  1  0
 12 19  1  0
 12 13  1  0
 14  8  1  0
 14 13  1  0
 15  8  2  0
 16 17  2  0
 17 36  1  0
 18 17  1  0
 18 21  1  0
 19 20  1  0
 19 16  1  0
 20 18  2  0
 21 22  1  0
 22 23  2  0
 24 27  1  0
 24 23  1  0
 25 24  2  0
 26 25  1  0
 26 21  2  0
 27 28  1  0
 28 29  1  0
 29 30  2  0
 31 30  1  0
 31 35  1  0
 32 31  2  0
 33 28  2  0
 33 32  1  0
 34 33  1  0
 36 37  1  0
 37 40  1  0
 37 39  1  0
 38 36  2  0
 41 16  1  0
 41 42  1  0
 43 41  1  0
 44  2  1  0
 44 45  2  0
 46 45  1  0
 47 58  2  0
 48 46  1  0
 48 53  1  0
 49 57  1  0
 49 59  1  0
 50 56  1  0
 50 52  1  0
 51 57  1  0
 52 53  2  0
 52 51  1  0
 54 48  2  0
 55 54  1  0
 55 50  2  0
 56 49  1  0
 57 47  1  0
 59 61  2  0
 60 59  1  0
 62 60  1  0
 63 72  2  0
 63 68  1  0
 64 60  1  0
 64 68  1  0
 65 64  1  0
 66 67  1  0
 66 65  1  0
 67 63  1  0
 68 69  2  0
 69 70  1  0
 71 70  2  0
 72 71  1  0
 73 47  1  0
 73 74  1  0
 73 83  1  0
 74 77  1  0
 75 79  1  0
 75 74  1  0
 76 75  2  0
 79 78  1  0
 81 79  1  0
 81 82  1  0
 81 80  1  0
 83 86  1  1
 83 84  1  0
 85 83  1  0
M  ISO  4   5 100   8 100  45 101  46 101
M  END
>  <TORSDO>  (84) 
F 18

>  <SCORE>  (84) 
-15.503

>  <name>  (84) 
83

>  <ligand_id>  (84) 
83

>  <original_smiles>  (84) 
[H]N=C1C([H])=C(C([H])([H])C([H])([H])Oc2c([H])c([H])c3c(c2[H])C([H])([H])N(C(=O)C([H])(N([H])C(=O)C([H])(N([H])C([H])([H])[H])C([H])([H])[H])C(C([H])([H])[H])(C([H])([H])[H])C([H])([H])[H])C([H])(C(=O)N([H])C2([H])c4c([H])c([H])c([H])c([H])c4C([H])([H])C([H])([H])C2([H])[H])C3([H])[H])C([H])([H])C1([H])C(=O)N1C([H])([H])C([H])([H])C([H])([H])C([H])(n2nc(-c3c([H])c([H])c(Oc4c([H])c([H])c(F)c([H])c4F)c([H])c3[H])c(C(=O)N([H])[H])c2N([H])[H])C1([H])[H]

>  <smiles>  (84) 
[H]N=C1C([H])=C(C([H])([H])C([H])([H])Oc2c([H])c([H])c3c(c2[H])C([H])([H])N(C(=O)C([H])(N([H])C(=O)C([H])(N([H])C([H])([H])[H])C([H])([H])[H])C(C([H])([H])[H])(C([H])([H])[H])C([H])([H])[H])C([H])(C(=O)N([H])C2([H])c4c([H])c([H])c([H])c([H])c4C([H])([H])C([H])([H])C2([H])[H])C3([H])[H])C([H])([H])C1([H])C(=O)N1C([H])([H])C([H])([H])C([H])([H])C([H])(n2nc(-c3c([H])c([H])c(Oc4c([H])c([H])c(F)c([H])c4F)c([H])c3[H])c(C(=O)N([H])[H])c2N([H])[H])C1([H])[H]

$$$$
84:0:0
     RDKit          3D

 85 93  0  0  1  0  0  0  0  0999 V2000
  -31.1670  -21.1360   20.2400 C   0  0  0  0  0  3  0  0  0  0  0  0
  -30.8250  -19.7430   20.2650 C   0  0  0  0  0  3  0  0  0  0  0  0
  -30.2710  -22.2580   20.2500 C   0  0  0  0  0  3  0  0  0  0  0  0
  -28.5720  -20.5660   20.3130 C   0  0  0  0  0  3  0  0  0  0  0  0
  -29.5010  -19.2410   20.3060 C   0  0  0  0  0  0  0  0  0  0  0  0
  -28.8590  -22.1580   20.2870 C   0  0  0  0  0  0  0  0  0  0  0  0
  -29.2940  -17.3740   20.3760 C   0  0  0  0  0  2  0  0  0  0  0  0
  -30.2040  -15.7230   20.2110 C   0  0  0  0  0  0  0  0  0  0  0  0
  -30.3610  -13.1660   19.3880 C   0  0  0  0  0  2  0  0  0  0  0  0
  -29.4560  -12.7820   18.1780 C   0  0  0  0  0  2  0  0  0  0  0  0
  -28.0360  -12.4150   18.6360 C   0  0  0  0  0  2  0  0  0  0  0  0
  -27.5310  -13.3970   19.7160 C   0  0  0  0  0  3  0  0  0  0  0  0
  -28.5700  -13.6920   20.8210 C   0  0  0  0  0  2  0  0  0  0  0  0
  -29.7470  -14.3260   20.1820 N   0  0  0  0  0  0  0  0  0  0  0  0
  -31.4290  -15.6900   19.9790 O   0  0  0  0  0  0  0  0  0  0  0  0
  -25.1690  -13.8950   20.5050 C   0  0  0  0  0  0  0  0  0  0  0  0
  -24.1260  -13.1010   20.8850 C   0  0  0  0  0  0  0  0  0  0  0  0
  -24.6160  -11.7590   20.8540 C   0  0  0  0  0  0  0  0  0  0  0  0
  -26.2240  -13.0400   20.2500 N   0  0  0  0  0  0  0  0  0  0  0  0
  -25.9070  -11.7460   20.5280 N   0  0  0  0  0  0  0  0  0  0  0  0
  -23.9080  -10.4860   21.0560 C   0  0  0  0  0  0  0  0  0  0  0  0
  -24.3450   -9.5360   22.0050 C   0  0  0  0  0  3  0  0  0  0  0  0
  -23.6330   -8.3320   22.1960 C   0  0  0  0  0  3  0  0  0  0  0  0
  -22.4680   -8.0690   21.4360 C   0  0  0  0  0  0  0  0  0  0  0  0
  -22.0480   -9.0070   20.4760 C   0  0  0  0  0  3  0  0  0  0  0  0
  -22.7630  -10.2020   20.2840 C   0  0  0  0  0  3  0  0  0  0  0  0
  -21.7260   -6.9150   21.5350 O   0  0  0  0  0  0  0  0  0  0  0  0
  -21.6650   -6.1960   22.7020 C   0  0  0  0  0  0  0  0  0  0  0  0
  -21.1830   -6.7630   23.9020 C   0  0  0  0  0  3  0  0  0  0  0  0
  -21.0720   -5.9700   25.0610 C   0  0  0  0  0  3  0  0  0  0  0  0
  -21.4310   -4.6090   25.0200 C   0  0  0  0  0  0  0  0  0  0  0  0
  -21.9070   -4.0410   23.8250 C   0  0  0  0  0  3  0  0  0  0  0  0
  -22.0190   -4.8330   22.6690 C   0  0  0  0  0  0  0  0  0  0  0  0
  -22.4570   -4.2750   21.5140 F   0  0  0  0  0  0  0  0  0  0  0  0
  -21.3180   -3.8440   26.1320 F   0  0  0  0  0  0  0  0  0  0  0  0
  -22.7230  -13.5580   21.1600 C   0  0  0  0  0  0  0  0  0  0  0  0
  -22.0110  -12.8560   22.0340 N   0  0  0  0  0  0  0  0  0  0  0  0
  -22.2690  -14.5730   20.6340 O   0  0  0  0  0  0  0  0  0  0  0  0
  -22.3930  -12.0360   22.4810 H   0  0  0  0  0  0  0  0  0  0  0  0
  -21.0700  -13.1460   22.2620 H   0  0  0  0  0  0  0  0  0  0  0  0
  -25.3060  -15.2680   20.3230 N   0  0  0  0  0  0  0  0  0  0  0  0
  -24.5300  -15.9090   20.4440 H   0  0  0  0  0  0  0  0  0  0  0  0
  -26.1450  -15.7220   19.9840 H   0  0  0  0  0  0  0  0  0  0  0  0
  -27.8890  -23.7650   20.2510 C   0  0  0  0  0  2  0  0  0  0  0  0
  -28.1440  -25.5170   20.3220 O   0  0  0  0  0  0  0  0  0  0  0  0
  -24.6860  -31.8830   23.2040 C   0  0  0  0  0  0  0  0  0  0  0  0
  -27.1840  -26.7460   20.2660 C   0  0  0  0  0  0  0  0  0  0  0  0
  -23.4900  -30.4770   21.5830 C   0  0  0  0  0  3  0  0  0  0  0  0
  -24.9270  -28.8020   20.1870 C   0  0  0  0  0  0  0  0  0  0  0  0
  -26.0700  -30.5980   21.4590 C   0  0  0  0  0  2  0  0  0  0  0  0
  -26.1260  -29.1570   20.8170 C   0  0  0  0  0  0  0  0  0  0  0  0
  -27.2390  -28.1580   20.8210 C   0  0  0  0  0  3  0  0  0  0  0  0
  -25.9500  -26.6080   19.5790 C   0  0  0  0  0  3  0  0  0  0  0  0
  -24.8790  -27.5540   19.5440 C   0  0  0  0  0  3  0  0  0  0  0  0
  -23.7260  -29.7630   20.2200 C   0  0  0  0  0  2  0  0  0  0  0  0
  -24.7730  -31.0190   22.1340 N   0  0  0  0  0  0  0  0  0  0  0  0
  -23.5950  -32.1940   23.7120 O   0  0  0  0  0  0  0  0  0  0  0  0
  -22.7670  -29.5140   22.5640 C   0  0  0  0  0  0  0  0  0  0  0  0
  -21.4330  -29.3660   22.4410 N   0  0  0  0  0  0  0  0  0  0  0  0
  -23.4180  -28.8970   23.4110 O   0  0  0  0  0  0  0  0  0  0  0  0
  -20.9570  -29.9140   21.7370 H   0  0  0  0  0  0  0  0  0  0  0  0
  -18.0400  -28.1730   22.9640 C   0  0  0  0  0  0  0  0  0  0  0  0
  -20.6010  -28.4430   23.2240 C   0  0  0  0  0  3  0  0  0  0  0  0
  -20.7000  -27.0010   22.6690 C   0  0  0  0  0  2  0  0  0  0  0  0
  -19.5980  -26.6680   21.6580 C   0  0  0  0  0  2  0  0  0  0  0  0
  -18.2170  -26.8180   22.2990 C   0  0  0  0  0  2  0  0  0  0  0  0
  -19.1590  -28.9420   23.3840 C   0  0  0  0  0  0  0  0  0  0  0  0
  -18.9350  -30.2060   23.9720 C   0  0  0  0  0  3  0  0  0  0  0  0
  -17.6290  -30.7030   24.1410 C   0  0  0  0  0  3  0  0  0  0  0  0
  -16.5260  -29.9320   23.7340 C   0  0  0  0  0  3  0  0  0  0  0  0
  -16.7320  -28.6690   23.1520 C   0  0  0  0  0  3  0  0  0  0  0  0
  -25.9530  -32.5340   23.8390 C   0  0  0  0  0  3  0  0  0  0  0  0
  -25.6290  -33.9320   24.1860 N   0  0  0  0  0  0  0  0  0  0  0  0
  -25.9300  -35.0030   23.4390 C   0  0  0  0  0  0  0  0  0  0  0  0
  -26.5650  -34.9190   22.3860 O   0  0  0  0  0  0  0  0  0  0  0  0
  -25.0580  -34.0690   25.0070 H   0  0  0  0  0  0  0  0  0  0  0  0
  -24.1670  -36.7890   23.1990 C   0  0  0  0  0  1  0  0  0  0  0  0
  -25.4550  -36.3860   23.9360 C   0  0  0  0  0  3  0  0  0  0  0  0
  -27.6180  -37.2990   24.6620 C   0  0  0  0  0  1  0  0  0  0  0  0
  -26.4680  -37.4530   23.7750 N   0  0  0  0  0  0  0  0  0  0  0  0
  -26.0580  -38.3680   23.9430 H   0  0  0  0  0  0  0  0  0  0  0  0
  -26.4600  -31.7690   25.1250 C   0  0  1  0  0  0  0  0  0  0  0  0
  -25.3670  -31.5580   26.1990 C   0  0  0  0  0  1  0  0  0  0  0  0
  -27.0270  -30.3800   24.7590 C   0  0  0  0  0  1  0  0  0  0  0  0
  -27.6220  -32.5560   25.7770 C   0  0  0  0  0  1  0  0  0  0  0  0
  1  3  2  0
  1  2  1  0
  2  5  2  0
  3  6  1  0
  5  4  1  0
  5  7  1  0
  6  4  2  0
  8  7  1  0
  9 14  1  0
 10 11  1  0
 10  9  1  0
 12 11  1  0
 12 19  1  0
 12 13  1  0
 14  8  1  0
 14 13  1  0
 15  8  2  0
 16 17  2  0
 17 36  1  0
 18 17  1  0
 18 21  1  0
 19 16  1  0
 19 20  1  0
 20 18  2  0
 21 22  1  0
 22 23  2  0
 24 27  1  0
 24 23  1  0
 25 24  2  0
 26 25  1  0
 26 21  2  0
 27 28  1  0
 28 29  1  0
 29 30  2  0
 31 30  1  0
 31 35  1  0
 32 31  2  0
 33 28  2  0
 33 32  1  0
 34 33  1  0
 36 37  1  0
 37 40  1  0
 37 39  1  0
 38 36  2  0
 41 42  1  0
 41 16  1  0
 43 41  1  0
 44  6  1  0
 44 45  1  0
 46 57  2  0
 47 45  1  0
 47 52  1  0
 48 56  1  0
 48 58  1  0
 49 55  1  0
 49 51  1  0
 50 56  1  0
 51 52  2  0
 51 50  1  0
 53 47  2  0
 54 53  1  0
 54 49  2  0
 55 48  1  0
 56 46  1  0
 58 60  2  0
 59 58  1  0
 61 59  1  0
 62 71  2  0
 62 67  1  0
 63 59  1  0
 63 67  1  0
 64 63  1  0
 65 66  1  0
 65 64  1  0
 66 62  1  0
 67 68  2  0
 68 69  1  0
 70 69  2  0
 71 70  1  0
 72 46  1  0
 72 73  1  0
 72 82  1  0
 73 76  1  0
 74 78  1  0
 74 73  1  0
 75 74  2  0
 78 77  1  0
 80 78  1  0
 80 81  1  0
 80 79  1  0
 82 85  1  1
 82 83  1  0
 84 82  1  0
M  ISO  4   7 100   8 100  44 101  45 101
M  END
>  <TORSDO>  (85) 
F 18

>  <SCORE>  (85) 
-16.576

>  <name>  (85) 
84

>  <ligand_id>  (85) 
84

>  <original_smiles>  (85) 
[H]c1c([H])c(C([H])([H])Oc2c([H])c([H])c3c(c2[H])C([H])([H])N(C(=O)C([H])(N([H])C(=O)C([H])(N([H])C([H])([H])[H])C([H])([H])[H])C(C([H])([H])[H])(C([H])([H])[H])C([H])([H])[H])C([H])(C(=O)N([H])C2([H])c4c([H])c([H])c([H])c([H])c4C([H])([H])C([H])([H])C2([H])[H])C3([H])[H])c([H])c(C([H])([H])C(=O)N2C([H])([H])C([H])([H])C([H])([H])C([H])(n3nc(-c4c([H])c([H])c(Oc5c([H])c([H])c(F)c([H])c5F)c([H])c4[H])c(C(=O)N([H])[H])c3N([H])[H])C2([H])[H])c1[H]

>  <smiles>  (85) 
[H]c1c([H])c(C([H])([H])Oc2c([H])c([H])c3c(c2[H])C([H])([H])N(C(=O)C([H])(N([H])C(=O)C([H])(N([H])C([H])([H])[H])C([H])([H])[H])C(C([H])([H])[H])(C([H])([H])[H])C([H])([H])[H])C([H])(C(=O)N([H])C2([H])c4c([H])c([H])c([H])c([H])c4C([H])([H])C([H])([H])C2([H])[H])C3([H])[H])c([H])c(C([H])([H])C(=O)N2C([H])([H])C([H])([H])C([H])([H])C([H])(n3nc(-c4c([H])c([H])c(Oc5c([H])c([H])c(F)c([H])c5F)c([H])c4[H])c(C(=O)N([H])[H])c3N([H])[H])C2([H])[H])c1[H]

$$$$
85:0:0
     RDKit          3D

 89 96  0  0  1  0  0  0  0  0999 V2000
  -28.8590  -22.5830   20.7550 N   0  0  0  0  0  0  0  0  0  0  0  0
  -29.3400  -22.6880   21.6450 H   0  0  0  0  0  0  0  0  0  0  0  0
  -29.3640  -21.3490   20.0600 C   0  0  0  0  0  3  0  0  0  0  0  0
  -29.5530  -20.0240   20.9500 C   0  0  0  0  0  3  0  0  0  0  0  0
  -29.6580  -18.6850   20.2260 N   0  0  0  0  0  4  0  0  0  0  0  0
  -30.2330  -18.8160   19.4100 H   0  0  0  0  0  0  0  0  0  0  0  0
  -28.7280  -18.4790   19.8950 H   0  0  0  0  0  0  0  0  0  0  0  0
  -31.7160  -17.5430   21.1350 C   0  0  0  0  0  1  0  0  0  0  0  0
  -30.1840  -17.4570   20.9790 C   0  0  0  0  0  3  0  0  0  0  0  0
  -29.6420  -16.0150   20.4810 C   0  0  0  0  0  2  0  0  0  0  0  0
  -30.5280  -14.6950   20.2830 C   0  0  0  0  0  0  0  0  0  0  0  0
  -30.3290  -12.4400   19.2480 C   0  0  0  0  0  2  0  0  0  0  0  0
  -29.3590  -12.5720   18.0510 C   0  0  0  0  0  2  0  0  0  0  0  0
  -27.8960  -12.3940   18.5080 C   0  0  0  0  0  2  0  0  0  0  0  0
  -27.5560  -13.2510   19.7560 C   0  0  0  0  0  3  0  0  0  0  0  0
  -28.6410  -13.1000   20.8450 C   0  0  0  0  0  2  0  0  0  0  0  0
  -29.9360  -13.4540   20.2500 N   0  0  0  0  0  0  0  0  0  0  0  0
  -31.6980  -14.8150   19.9090 O   0  0  0  0  0  0  0  0  0  0  0  0
  -25.1820  -13.8390   20.5390 C   0  0  0  0  0  0  0  0  0  0  0  0
  -24.1260  -13.0630   20.9310 C   0  0  0  0  0  0  0  0  0  0  0  0
  -24.5870  -11.7120   20.8760 C   0  0  0  0  0  0  0  0  0  0  0  0
  -26.2210  -12.9620   20.2710 N   0  0  0  0  0  0  0  0  0  0  0  0
  -25.8680  -11.6770   20.5330 N   0  0  0  0  0  0  0  0  0  0  0  0
  -23.8670  -10.4490   21.0760 C   0  0  0  0  0  0  0  0  0  0  0  0
  -24.3340   -9.4690   21.9800 C   0  0  0  0  0  3  0  0  0  0  0  0
  -23.6150   -8.2680   22.1690 C   0  0  0  0  0  3  0  0  0  0  0  0
  -22.4150   -8.0390   21.4520 C   0  0  0  0  0  0  0  0  0  0  0  0
  -21.9680   -9.0080   20.5370 C   0  0  0  0  0  3  0  0  0  0  0  0
  -22.6870  -10.2010   20.3480 C   0  0  0  0  0  3  0  0  0  0  0  0
  -21.6660   -6.8920   21.5500 O   0  0  0  0  0  0  0  0  0  0  0  0
  -21.6710   -6.1230   22.6860 C   0  0  0  0  0  0  0  0  0  0  0  0
  -21.3210   -6.6550   23.9460 C   0  0  0  0  0  3  0  0  0  0  0  0
  -21.2730   -5.8140   25.0760 C   0  0  0  0  0  3  0  0  0  0  0  0
  -21.5640   -4.4420   24.9470 C   0  0  0  0  0  0  0  0  0  0  0  0
  -21.9090   -3.9110   23.6920 C   0  0  0  0  0  3  0  0  0  0  0  0
  -21.9590   -4.7500   22.5640 C   0  0  0  0  0  0  0  0  0  0  0  0
  -22.2700   -4.2280   21.3530 F   0  0  0  0  0  0  0  0  0  0  0  0
  -21.5110   -3.6330   26.0300 F   0  0  0  0  0  0  0  0  0  0  0  0
  -22.7350  -13.5370   21.2440 C   0  0  0  0  0  0  0  0  0  0  0  0
  -22.0300  -12.8350   22.1250 N   0  0  0  0  0  0  0  0  0  0  0  0
  -22.2830  -14.5650   20.7410 O   0  0  0  0  0  0  0  0  0  0  0  0
  -22.4080  -12.0030   22.5530 H   0  0  0  0  0  0  0  0  0  0  0  0
  -21.1000  -13.1380   22.3760 H   0  0  0  0  0  0  0  0  0  0  0  0
  -25.3400  -15.2120   20.3710 N   0  0  0  0  0  0  0  0  0  0  0  0
  -24.5710  -15.8620   20.4980 H   0  0  0  0  0  0  0  0  0  0  0  0
  -26.1750  -15.6550   20.0100 H   0  0  0  0  0  0  0  0  0  0  0  0
  -28.9390  -23.9000   20.0300 C   0  0  0  0  0  3  0  0  0  0  0  0
  -28.1590  -25.1200   20.7060 C   0  0  0  0  0  3  0  0  0  0  0  0
  -28.3350  -26.5010   20.1920 O   0  0  0  0  0  0  0  0  0  0  0  0
  -24.6040  -31.8900   23.2330 C   0  0  0  0  0  0  0  0  0  0  0  0
  -27.2130  -27.3400   20.1820 C   0  0  0  0  0  0  0  0  0  0  0  0
  -23.3940  -30.4830   21.6010 C   0  0  0  0  0  3  0  0  0  0  0  0
  -24.8410  -28.9320   20.1730 C   0  0  0  0  0  0  0  0  0  0  0  0
  -25.9300  -30.8140   21.4020 C   0  0  0  0  0  2  0  0  0  0  0  0
  -26.0110  -29.4340   20.7600 C   0  0  0  0  0  0  0  0  0  0  0  0
  -27.2020  -28.6500   20.7520 C   0  0  0  0  0  3  0  0  0  0  0  0
  -26.0260  -26.8910   19.5650 C   0  0  0  0  0  3  0  0  0  0  0  0
  -24.8500  -27.6670   19.5660 C   0  0  0  0  0  3  0  0  0  0  0  0
  -23.6010  -29.8020   20.2230 C   0  0  0  0  0  2  0  0  0  0  0  0
  -24.6620  -31.0800   22.1360 N   0  0  0  0  0  0  0  0  0  0  0  0
  -23.5230  -32.1650   23.7730 O   0  0  0  0  0  0  0  0  0  0  0  0
  -22.7410  -29.4670   22.5700 C   0  0  0  0  0  0  0  0  0  0  0  0
  -21.4140  -29.2860   22.4510 N   0  0  0  0  0  0  0  0  0  0  0  0
  -23.4260  -28.8460   23.3860 O   0  0  0  0  0  0  0  0  0  0  0  0
  -20.9220  -29.8420   21.7660 H   0  0  0  0  0  0  0  0  0  0  0  0
  -18.0430  -28.0780   22.9610 C   0  0  0  0  0  0  0  0  0  0  0  0
  -20.6010  -28.3490   23.2270 C   0  0  0  0  0  3  0  0  0  0  0  0
  -20.7070  -26.9160   22.6590 C   0  0  0  0  0  2  0  0  0  0  0  0
  -19.6060  -26.5820   21.6480 C   0  0  0  0  0  2  0  0  0  0  0  0
  -18.2230  -26.7250   22.2930 C   0  0  0  0  0  2  0  0  0  0  0  0
  -19.1590  -28.8480   23.3840 C   0  0  0  0  0  0  0  0  0  0  0  0
  -18.9360  -30.1120   23.9700 C   0  0  0  0  0  3  0  0  0  0  0  0
  -17.6300  -30.6090   24.1330 C   0  0  0  0  0  3  0  0  0  0  0  0
  -16.5280  -29.8360   23.7270 C   0  0  0  0  0  3  0  0  0  0  0  0
  -16.7350  -28.5730   23.1460 C   0  0  0  0  0  3  0  0  0  0  0  0
  -25.8880  -32.5250   23.8480 C   0  0  0  0  0  3  0  0  0  0  0  0
  -26.4190  -31.7540   25.1180 C   0  0  1  0  0  0  0  0  0  0  0  0
  -25.3370  -31.5110   26.1960 C   0  0  0  0  0  1  0  0  0  0  0  0
  -27.0030  -30.3790   24.7180 C   0  0  0  0  0  1  0  0  0  0  0  0
  -27.5740  -32.5510   25.7710 C   0  0  0  0  0  1  0  0  0  0  0  0
  -25.5770  -33.9220   24.1830 N   0  0  0  0  0  0  0  0  0  0  0  0
  -25.9000  -34.9780   23.4240 C   0  0  0  0  0  0  0  0  0  0  0  0
  -26.5620  -34.8790   22.3870 O   0  0  0  0  0  0  0  0  0  0  0  0
  -24.9890  -34.0730   24.9890 H   0  0  0  0  0  0  0  0  0  0  0  0
  -24.1610  -36.7640   23.0910 C   0  0  0  0  0  1  0  0  0  0  0  0
  -25.4110  -36.3640   23.8900 C   0  0  0  0  0  3  0  0  0  0  0  0
  -27.5530  -37.2520   24.6970 C   0  0  0  0  0  1  0  0  0  0  0  0
  -26.4380  -37.4220   23.7680 N   0  0  0  0  0  0  0  0  0  0  0  0
  -26.0310  -38.3390   23.9260 H   0  0  0  0  0  0  0  0  0  0  0  0
  1  2  1  0
  3  1  1  0
  3  4  2  0
  5  4  1  0
  5  9  1  0
  6  5  1  0
  7  5  1  0
  9  8  1  0
 10  9  1  0
 11 10  1  0
 12 17  1  0
 13 14  1  0
 13 12  1  0
 15 14  1  0
 15 22  1  0
 15 16  1  0
 17 11  1  0
 17 16  1  0
 18 11  2  0
 19 20  2  0
 20 39  1  0
 21 20  1  0
 21 24  1  0
 22 23  1  0
 22 19  1  0
 23 21  2  0
 24 25  1  0
 25 26  2  0
 27 30  1  0
 27 26  1  0
 28 27  2  0
 29 28  1  0
 29 24  2  0
 30 31  1  0
 31 32  1  0
 32 33  2  0
 34 33  1  0
 34 38  1  0
 35 34  2  0
 36 31  2  0
 36 35  1  0
 37 36  1  0
 39 40  1  0
 40 43  1  0
 40 42  1  0
 41 39  2  0
 44 45  1  0
 44 19  1  0
 46 44  1  0
 47 48  2  0
 47  1  1  0
 49 48  1  0
 50 61  2  0
 51 49  1  0
 51 56  1  0
 52 60  1  0
 52 62  1  0
 53 59  1  0
 53 55  1  0
 54 60  1  0
 55 54  1  0
 56 55  2  0
 57 58  1  0
 57 51  2  0
 58 53  2  0
 59 52  1  0
 60 50  1  0
 62 64  2  0
 63 62  1  0
 65 63  1  0
 66 75  2  0
 66 71  1  0
 67 63  1  0
 67 71  1  0
 68 67  1  0
 69 70  1  0
 69 68  1  0
 70 66  1  0
 71 72  2  0
 72 73  1  0
 74 73  2  0
 75 74  1  0
 76 50  1  0
 76 81  1  0
 76 77  1  0
 77 80  1  1
 77 78  1  0
 79 77  1  0
 81 84  1  0
 82 86  1  0
 82 81  1  0
 83 82  2  0
 86 85  1  0
 88 86  1  0
 88 89  1  0
 88 87  1  0
M  ISO  4  10 100  11 100  48 101  49 101
M  END
>  <TORSDO>  (86) 
F 23

>  <SCORE>  (86) 
-12.607

>  <name>  (86) 
85

>  <ligand_id>  (86) 
85

>  <original_smiles>  (86) 
[H]c1c([H])c([H])c2c(c1[H])C([H])([H])C([H])([H])C([H])([H])C2([H])N([H])C(=O)C1([H])N(C(=O)C([H])(N([H])C(=O)C([H])(N([H])C([H])([H])[H])C([H])([H])[H])C(C([H])([H])[H])(C([H])([H])[H])C([H])([H])[H])C([H])([H])c2c([H])c(OC([H])([H])C([H])([H])N([H])C([H])([H])C([H])([H])[N+]([H])([H])C([H])(C([H])([H])[H])C([H])([H])C(=O)N3C([H])([H])C([H])([H])C([H])([H])C([H])(n4nc(-c5c([H])c([H])c(Oc6c([H])c([H])c(F)c([H])c6F)c([H])c5[H])c(C(=O)N([H])[H])c4N([H])[H])C3([H])[H])c([H])c([H])c2C1([H])[H]

>  <smiles>  (86) 
[H]c1c([H])c([H])c2c(c1[H])C([H])([H])C([H])([H])C([H])([H])C2([H])N([H])C(=O)C1([H])N(C(=O)C([H])(N([H])C(=O)C([H])(N([H])C([H])([H])[H])C([H])([H])[H])C(C([H])([H])[H])(C([H])([H])[H])C([H])([H])[H])C([H])([H])c2c([H])c(OC([H])([H])C([H])([H])N([H])C([H])([H])C([H])([H])[N+]([H])([H])C([H])(C([H])([H])[H])C([H])([H])C(=O)N3C([H])([H])C([H])([H])C([H])([H])C([H])(n4nc(-c5c([H])c([H])c(Oc6c([H])c([H])c(F)c([H])c6F)c([H])c5[H])c(C(=O)N([H])[H])c4N([H])[H])C3([H])[H])c([H])c([H])c2C1([H])[H]

$$$$
