0:0:0
     RDKit          3D

 92 99  0  0  1  0  0  0  0  0999 V2000
  -29.4110  -21.5190   20.5270 C   0  0  0  0  0  3  0  0  0  0  0  0
  -29.1980  -21.6080   22.0100 C   0  0  0  0  0  0  0  0  0  0  0  0
  -30.2050  -21.3420   22.8490 N   0  0  0  0  0  0  0  0  0  0  0  0
  -27.9900  -21.9350   22.4860 N   0  0  0  0  0  4  0  0  0  0  0  0
  -31.1320  -21.1500   22.4980 H   0  0  0  0  0  0  0  0  0  0  0  0
  -30.1060  -21.3720   23.8510 H   0  0  0  0  0  0  0  0  0  0  0  0
  -27.2270  -22.1450   21.8600 H   0  0  0  0  0  0  0  0  0  0  0  0
  -27.7970  -22.0110   23.4730 H   0  0  0  0  0  0  0  0  0  0  0  0
  -29.1500  -19.9400   20.1150 N   0  0  0  0  0  4  0  0  0  0  0  0
  -28.2480  -19.7380   20.5100 H   0  0  0  0  0  0  0  0  0  0  0  0
  -29.0170  -19.9410   19.1180 H   0  0  0  0  0  0  0  0  0  0  0  0
  -30.0560  -18.5910   20.4300 C   0  0  0  0  0  3  0  0  0  0  0  0
  -29.6150  -16.8760   20.2630 C   0  0  0  0  0  3  0  0  0  0  0  0
  -30.5110  -15.3920   20.1300 C   0  0  0  0  0  0  0  0  0  0  0  0
  -30.4890  -12.9760   19.2010 C   0  0  0  0  0  2  0  0  0  0  0  0
  -29.5340  -12.8410   17.9860 C   0  0  0  0  0  2  0  0  0  0  0  0
  -28.0920  -12.5720   18.4520 C   0  0  0  0  0  2  0  0  0  0  0  0
  -27.6740  -13.5060   19.6140 C   0  0  0  0  0  3  0  0  0  0  0  0
  -28.7460  -13.5880   20.7190 C   0  0  0  0  0  2  0  0  0  0  0  0
  -29.9860  -14.0760   20.0960 N   0  0  0  0  0  0  0  0  0  0  0  0
  -31.7200  -15.4300   19.8590 O   0  0  0  0  0  0  0  0  0  0  0  0
  -25.3110  -14.0500   20.4140 C   0  0  0  0  0  0  0  0  0  0  0  0
  -24.2610  -13.2650   20.8010 C   0  0  0  0  0  0  0  0  0  0  0  0
  -24.7370  -11.9170   20.7590 C   0  0  0  0  0  0  0  0  0  0  0  0
  -26.3550  -13.1820   20.1460 N   0  0  0  0  0  0  0  0  0  0  0  0
  -26.0220  -11.8950   20.4230 N   0  0  0  0  0  0  0  0  0  0  0  0
  -24.0240  -10.6490   20.9590 C   0  0  0  0  0  0  0  0  0  0  0  0
  -24.4640   -9.6940   21.9010 C   0  0  0  0  0  3  0  0  0  0  0  0
  -23.7480   -8.4920   22.0900 C   0  0  0  0  0  3  0  0  0  0  0  0
  -22.5770   -8.2380   21.3360 C   0  0  0  0  0  0  0  0  0  0  0  0
  -22.1550   -9.1830   20.3830 C   0  0  0  0  0  3  0  0  0  0  0  0
  -22.8730  -10.3740   20.1930 C   0  0  0  0  0  3  0  0  0  0  0  0
  -21.8320   -7.0860   21.4340 O   0  0  0  0  0  0  0  0  0  0  0  0
  -21.7710   -6.3650   22.5990 C   0  0  0  0  0  0  0  0  0  0  0  0
  -21.2990   -6.9310   23.8040 C   0  0  0  0  0  3  0  0  0  0  0  0
  -21.1880   -6.1340   24.9610 C   0  0  0  0  0  3  0  0  0  0  0  0
  -21.5380   -4.7710   24.9140 C   0  0  0  0  0  0  0  0  0  0  0  0
  -22.0030   -4.2050   23.7140 C   0  0  0  0  0  3  0  0  0  0  0  0
  -22.1150   -4.9980   22.5590 C   0  0  0  0  0  0  0  0  0  0  0  0
  -22.5430   -4.4410   21.4010 F   0  0  0  0  0  0  0  0  0  0  0  0
  -21.4240   -4.0030   26.0220 F   0  0  0  0  0  0  0  0  0  0  0  0
  -22.8660  -13.7300   21.0960 C   0  0  0  0  0  0  0  0  0  0  0  0
  -22.1550  -13.0270   21.9710 N   0  0  0  0  0  0  0  0  0  0  0  0
  -22.4140  -14.7540   20.5850 O   0  0  0  0  0  0  0  0  0  0  0  0
  -22.5340  -12.1960   22.4030 H   0  0  0  0  0  0  0  0  0  0  0  0
  -21.2190  -13.3230   22.2110 H   0  0  0  0  0  0  0  0  0  0  0  0
  -25.4610  -15.4210   20.2380 N   0  0  0  0  0  0  0  0  0  0  0  0
  -24.6910  -16.0710   20.3650 H   0  0  0  0  0  0  0  0  0  0  0  0
  -26.2990  -15.8640   19.8840 H   0  0  0  0  0  0  0  0  0  0  0  0
  -28.7370  -23.0140   19.8190 C   0  0  0  0  0  2  0  0  0  0  0  0
  -28.4120  -24.6280   20.4890 C   0  0  0  0  0  2  0  0  0  0  0  0
  -28.4060  -26.1620   19.9560 O   0  0  0  0  0  0  0  0  0  0  0  0
  -24.6790  -31.9010   23.0850 C   0  0  0  0  0  0  0  0  0  0  0  0
  -27.3250  -27.1660   20.0090 C   0  0  0  0  0  0  0  0  0  0  0  0
  -23.5000  -30.5010   21.4370 C   0  0  0  0  0  3  0  0  0  0  0  0
  -24.9720  -28.9480   19.9920 C   0  0  0  0  0  0  0  0  0  0  0  0
  -26.0560  -30.7910   21.2640 C   0  0  0  0  0  2  0  0  0  0  0  0
  -26.1520  -29.3920   20.6010 C   0  0  0  0  0  0  0  0  0  0  0  0
  -27.3280  -28.5250   20.5750 C   0  0  0  0  0  3  0  0  0  0  0  0
  -26.1090  -26.8480   19.3670 C   0  0  0  0  0  3  0  0  0  0  0  0
  -24.9690  -27.6950   19.3570 C   0  0  0  0  0  3  0  0  0  0  0  0
  -23.7330  -29.8360   20.0520 C   0  0  0  0  0  2  0  0  0  0  0  0
  -24.7660  -31.0910   21.9830 N   0  0  0  0  0  0  0  0  0  0  0  0
  -23.5890  -32.1560   23.6220 O   0  0  0  0  0  0  0  0  0  0  0  0
  -22.8380  -29.4780   22.3960 C   0  0  0  0  0  0  0  0  0  0  0  0
  -21.5150  -29.2750   22.2690 N   0  0  0  0  0  0  0  0  0  0  0  0
  -23.5230  -28.8670   23.2210 O   0  0  0  0  0  0  0  0  0  0  0  0
  -21.0150  -29.8250   21.5850 H   0  0  0  0  0  0  0  0  0  0  0  0
  -18.1710  -27.9560   22.7480 C   0  0  0  0  0  0  0  0  0  0  0  0
  -20.7190  -28.3060   23.0310 C   0  0  0  0  0  3  0  0  0  0  0  0
  -20.8720  -26.8810   22.4520 C   0  0  0  0  0  2  0  0  0  0  0  0
  -19.7870  -26.5230   21.4300 C   0  0  0  0  0  2  0  0  0  0  0  0
  -18.3980  -26.6190   22.0650 C   0  0  0  0  0  2  0  0  0  0  0  0
  -19.2600  -28.7550   23.1880 C   0  0  0  0  0  0  0  0  0  0  0  0
  -18.9920  -30.0030   23.7890 C   0  0  0  0  0  3  0  0  0  0  0  0
  -17.6690  -30.4550   23.9530 C   0  0  0  0  0  3  0  0  0  0  0  0
  -16.5950  -29.6540   23.5280 C   0  0  0  0  0  3  0  0  0  0  0  0
  -16.8470  -28.4070   22.9310 C   0  0  0  0  0  3  0  0  0  0  0  0
  -25.9400  -32.5580   23.7200 C   0  0  0  0  0  3  0  0  0  0  0  0
  -25.6020  -33.9450   24.0760 N   0  0  0  0  0  0  0  0  0  0  0  0
  -25.9250  -35.0230   23.3480 C   0  0  0  0  0  0  0  0  0  0  0  0
  -26.6030  -34.9560   22.3200 O   0  0  0  0  0  0  0  0  0  0  0  0
  -25.0050  -34.0740   24.8800 H   0  0  0  0  0  0  0  0  0  0  0  0
  -24.1810  -36.8090   23.0230 C   0  0  0  0  0  1  0  0  0  0  0  0
  -25.4150  -36.3940   23.8390 C   0  0  0  0  0  3  0  0  0  0  0  0
  -27.5260  -37.2870   24.7290 C   0  0  0  0  0  1  0  0  0  0  0  0
  -26.4370  -37.4620   23.7710 N   0  0  0  0  0  0  0  0  0  0  0  0
  -26.0160  -38.3730   23.9310 H   0  0  0  0  0  0  0  0  0  0  0  0
  -26.4740  -31.7830   24.9880 C   0  0  1  0  0  0  0  0  0  0  0  0
  -25.3860  -31.5210   26.0550 C   0  0  0  0  0  1  0  0  0  0  0  0
  -27.0790  -30.4190   24.5880 C   0  0  0  0  0  1  0  0  0  0  0  0
  -27.6120  -32.5920   25.6570 C   0  0  0  0  0  1  0  0  0  0  0  0
  1 50  1  0
  1  2  1  0
  2  4  2  0
  2  3  1  0
  3  6  1  0
  4  8  1  0
  5  3  1  0
  7  4  1  0
  9 12  1  0
  9 10  1  0
  9  1  1  0
 11  9  1  0
 13 12  2  0
 14 13  1  0
 15 20  1  0
 16 17  1  0
 16 15  1  0
 18 17  1  0
 18 25  1  0
 18 19  1  0
 20 14  1  0
 20 19  1  0
 21 14  2  0
 22 23  2  0
 23 42  1  0
 24 23  1  0
 24 27  1  0
 25 22  1  0
 25 26  1  0
 26 24  2  0
 27 28  1  0
 28 29  2  0
 30 33  1  0
 30 29  1  0
 31 30  2  0
 32 31  1  0
 32 27  2  0
 33 34  1  0
 34 35  1  0
 35 36  2  0
 37 36  1  0
 37 41  1  0
 38 37  2  0
 39 34  2  0
 39 38  1  0
 40 39  1  0
 42 43  1  0
 43 46  1  0
 43 45  1  0
 44 42  2  0
 47 48  1  0
 47 22  1  0
 49 47  1  0
 50 51  1  0
 52 54  1  0
 52 51  1  0
 53 64  2  0
 54 59  1  0
 55 63  1  0
 55 65  1  0
 56 62  1  0
 56 58  1  0
 57 63  1  0
 58 57  1  0
 59 58  2  0
 60 54  2  0
 61 60  1  0
 61 56  2  0
 62 55  1  0
 63 53  1  0
 65 67  2  0
 66 65  1  0
 68 66  1  0
 69 78  2  0
 69 74  1  0
 70 66  1  0
 70 74  1  0
 71 70  1  0
 72 73  1  0
 72 71  1  0
 73 69  1  0
 74 75  2  0
 75 76  1  0
 77 76  2  0
 78 77  1  0
 79 53  1  0
 79 80  1  0
 79 89  1  0
 80 83  1  0
 81 85  1  0
 81 80  1  0
 82 81  2  0
 85 84  1  0
 87 85  1  0
 87 88  1  0
 87 86  1  0
 89 92  1  1
 89 90  1  0
 91 89  1  0
M  ISO  4  13 100  14 100  51 101  52 101
M  END
>  <TORSDO>  (1) 
F 22

>  <SCORE>  (1) 
-14.766

>  <name>  (1) 
0

>  <ligand_id>  (1) 
0

>  <original_smiles>  (1) 
[H]c1c([H])c([H])c2c(c1[H])C([H])([H])C([H])([H])C([H])([H])C2([H])N([H])C(=O)C1([H])N(C(=O)C([H])(N([H])C(=O)C([H])(N([H])C([H])([H])[H])C([H])([H])[H])C(C([H])([H])[H])(C([H])([H])[H])C([H])([H])[H])C([H])([H])c2c([H])c(OC([H])([H])C([H])([H])C([H])(C(N([H])[H])=[N+]([H])[H])[N+]([H])([H])C([H])([H])C([H])([H])C(=O)N3C([H])([H])C([H])([H])C([H])([H])C([H])(n4nc(-c5c([H])c([H])c(Oc6c([H])c([H])c(F)c([H])c6F)c([H])c5[H])c(C(=O)N([H])[H])c4N([H])[H])C3([H])[H])c([H])c([H])c2C1([H])[H]

>  <smiles>  (1) 
[H]c1c([H])c([H])c2c(c1[H])C([H])([H])C([H])([H])C([H])([H])C2([H])N([H])C(=O)C1([H])N(C(=O)C([H])(N([H])C(=O)C([H])(N([H])C([H])([H])[H])C([H])([H])[H])C(C([H])([H])[H])(C([H])([H])[H])C([H])([H])[H])C([H])([H])c2c([H])c(OC([H])([H])C([H])([H])C([H])(C(N([H])[H])=[N+]([H])[H])[N+]([H])([H])C([H])([H])C([H])([H])C(=O)N3C([H])([H])C([H])([H])C([H])([H])C([H])(n4nc(-c5c([H])c([H])c(Oc6c([H])c([H])c(F)c([H])c6F)c([H])c5[H])c(C(=O)N([H])[H])c4N([H])[H])C3([H])[H])c([H])c([H])c2C1([H])[H]

$$$$
1:0:0
     RDKit          3D

 83 90  0  0  1  0  0  0  0  0999 V2000
  -27.9720  -23.6020   20.1860 C   0  0  0  0  0  2  0  0  0  0  0  0
  -29.3820  -20.4850   20.1120 C   0  0  0  0  0  0  0  0  0  0  0  0
  -29.0600  -22.0400   20.1310 C   0  0  0  0  0  0  0  0  0  0  0  0
  -28.9680  -18.6860   20.1540 C   0  0  0  0  0  3  0  0  0  0  0  0
  -27.4570  -18.7440   20.2800 C   0  0  0  0  0  1  0  0  0  0  0  0
  -29.2920  -17.1880   20.1400 N   0  0  0  0  0  2  0  0  0  0  0  0
  -30.2580  -15.8330   20.0460 C   0  0  0  0  0  0  0  0  0  0  0  0
  -30.4960  -13.2190   19.3690 C   0  0  0  0  0  2  0  0  0  0  0  0
  -29.6290  -12.7160   18.1720 C   0  0  0  0  0  2  0  0  0  0  0  0
  -28.2150  -12.3220   18.6300 C   0  0  0  0  0  2  0  0  0  0  0  0
  -27.6620  -13.3520   19.6370 C   0  0  0  0  0  3  0  0  0  0  0  0
  -28.6700  -13.7620   20.7360 C   0  0  0  0  0  2  0  0  0  0  0  0
  -29.8330  -14.4150   20.0810 N   0  0  0  0  0  0  0  0  0  0  0  0
  -31.4840  -15.8020   19.8320 O   0  0  0  0  0  0  0  0  0  0  0  0
  -25.3040  -13.8470   20.4300 C   0  0  0  0  0  0  0  0  0  0  0  0
  -24.2590  -13.0550   20.8090 C   0  0  0  0  0  0  0  0  0  0  0  0
  -24.7470  -11.7110   20.7770 C   0  0  0  0  0  0  0  0  0  0  0  0
  -26.3570  -12.9900   20.1740 N   0  0  0  0  0  0  0  0  0  0  0  0
  -26.0380  -11.6960   20.4510 N   0  0  0  0  0  0  0  0  0  0  0  0
  -24.0350  -10.4400   20.9810 C   0  0  0  0  0  0  0  0  0  0  0  0
  -24.4610   -9.4960   21.9410 C   0  0  0  0  0  3  0  0  0  0  0  0
  -23.7450   -8.2950   22.1320 C   0  0  0  0  0  3  0  0  0  0  0  0
  -22.5870   -8.0280   21.3630 C   0  0  0  0  0  0  0  0  0  0  0  0
  -22.1800   -8.9600   20.3930 C   0  0  0  0  0  3  0  0  0  0  0  0
  -22.8970  -10.1530   20.2000 C   0  0  0  0  0  3  0  0  0  0  0  0
  -21.8440   -6.8750   21.4610 O   0  0  0  0  0  0  0  0  0  0  0  0
  -21.7540   -6.1730   22.6370 C   0  0  0  0  0  0  0  0  0  0  0  0
  -21.2600   -6.7630   23.8200 C   0  0  0  0  0  3  0  0  0  0  0  0
  -21.1200   -5.9860   24.9880 C   0  0  0  0  0  3  0  0  0  0  0  0
  -21.4650   -4.6220   24.9720 C   0  0  0  0  0  0  0  0  0  0  0  0
  -21.9520   -4.0320   23.7930 C   0  0  0  0  0  3  0  0  0  0  0  0
  -22.0930   -4.8050   22.6280 C   0  0  0  0  0  0  0  0  0  0  0  0
  -22.5430   -4.2270   21.4880 F   0  0  0  0  0  0  0  0  0  0  0  0
  -21.3230   -3.8740   26.0910 F   0  0  0  0  0  0  0  0  0  0  0  0
  -22.8580  -13.5150   21.0830 C   0  0  0  0  0  0  0  0  0  0  0  0
  -22.1470  -12.8210   21.9640 N   0  0  0  0  0  0  0  0  0  0  0  0
  -22.4040  -14.5270   20.5510 O   0  0  0  0  0  0  0  0  0  0  0  0
  -22.5280  -12.0040   22.4160 H   0  0  0  0  0  0  0  0  0  0  0  0
  -21.2070  -13.1130   22.1910 H   0  0  0  0  0  0  0  0  0  0  0  0
  -25.4480  -15.2200   20.2500 N   0  0  0  0  0  0  0  0  0  0  0  0
  -24.6830  -15.8710   20.3830 H   0  0  0  0  0  0  0  0  0  0  0  0
  -26.3090  -15.6680   19.9610 H   0  0  0  0  0  0  0  0  0  0  0  0
  -28.1670  -25.4020   20.2630 O   0  0  0  0  0  0  0  0  0  0  0  0
  -24.6930  -31.8260   23.1950 C   0  0  0  0  0  0  0  0  0  0  0  0
  -27.2050  -26.6590   20.2240 C   0  0  0  0  0  0  0  0  0  0  0  0
  -23.5020  -30.4220   21.5680 C   0  0  0  0  0  3  0  0  0  0  0  0
  -24.9450  -28.7510   20.1630 C   0  0  0  0  0  0  0  0  0  0  0  0
  -26.0850  -30.5370   21.4470 C   0  0  0  0  0  2  0  0  0  0  0  0
  -26.1460  -29.0920   20.7960 C   0  0  0  0  0  0  0  0  0  0  0  0
  -27.2560  -28.0780   20.7890 C   0  0  0  0  0  3  0  0  0  0  0  0
  -25.9660  -26.5510   19.5340 C   0  0  0  0  0  3  0  0  0  0  0  0
  -24.9000  -27.5080   19.5060 C   0  0  0  0  0  3  0  0  0  0  0  0
  -23.7430  -29.7130   20.2030 C   0  0  0  0  0  2  0  0  0  0  0  0
  -24.7850  -30.9640   22.1220 N   0  0  0  0  0  0  0  0  0  0  0  0
  -23.6000  -32.1320   23.7040 O   0  0  0  0  0  0  0  0  0  0  0  0
  -22.7810  -29.4560   22.5470 C   0  0  0  0  0  0  0  0  0  0  0  0
  -21.4470  -29.3020   22.4240 N   0  0  0  0  0  0  0  0  0  0  0  0
  -23.4340  -28.8400   23.3920 O   0  0  0  0  0  0  0  0  0  0  0  0
  -20.9680  -29.8490   21.7230 H   0  0  0  0  0  0  0  0  0  0  0  0
  -18.0620  -28.0830   22.9480 C   0  0  0  0  0  0  0  0  0  0  0  0
  -20.6220  -28.3690   23.2030 C   0  0  0  0  0  3  0  0  0  0  0  0
  -20.7280  -26.9320   22.6410 C   0  0  0  0  0  2  0  0  0  0  0  0
  -19.6280  -26.5970   21.6290 C   0  0  0  0  0  2  0  0  0  0  0  0
  -18.2460  -26.7340   22.2740 C   0  0  0  0  0  2  0  0  0  0  0  0
  -19.1760  -28.8580   23.3690 C   0  0  0  0  0  0  0  0  0  0  0  0
  -18.9450  -30.1160   23.9670 C   0  0  0  0  0  3  0  0  0  0  0  0
  -17.6360  -30.6020   24.1420 C   0  0  0  0  0  3  0  0  0  0  0  0
  -16.5370  -29.8270   23.7320 C   0  0  0  0  0  3  0  0  0  0  0  0
  -16.7510  -28.5680   23.1420 C   0  0  0  0  0  3  0  0  0  0  0  0
  -25.9550  -32.4830   23.8330 C   0  0  0  0  0  3  0  0  0  0  0  0
  -25.6270  -33.8820   24.1760 N   0  0  0  0  0  0  0  0  0  0  0  0
  -25.9280  -34.9540   23.4300 C   0  0  0  0  0  0  0  0  0  0  0  0
  -26.5650  -34.8690   22.3780 O   0  0  0  0  0  0  0  0  0  0  0  0
  -25.0520  -34.0190   24.9950 H   0  0  0  0  0  0  0  0  0  0  0  0
  -24.1590  -36.7360   23.1900 C   0  0  0  0  0  1  0  0  0  0  0  0
  -25.4500  -36.3370   23.9240 C   0  0  0  0  0  3  0  0  0  0  0  0
  -27.6140  -37.2570   24.6400 C   0  0  0  0  0  1  0  0  0  0  0  0
  -26.4610  -37.4070   23.7570 N   0  0  0  0  0  0  0  0  0  0  0  0
  -26.0490  -38.3210   23.9250 H   0  0  0  0  0  0  0  0  0  0  0  0
  -26.4580  -31.7250   25.1250 C   0  0  1  0  0  0  0  0  0  0  0  0
  -25.3550  -31.5010   26.1870 C   0  0  0  0  0  1  0  0  0  0  0  0
  -27.0430  -30.3420   24.7660 C   0  0  0  0  0  1  0  0  0  0  0  0
  -27.6040  -32.5240   25.7880 C   0  0  0  0  0  1  0  0  0  0  0  0
  1 43  1  0
  2  3  3  0
  2  4  1  0
  3  1  1  0
  4  5  1  0
  6  4  1  0
  7 13  1  0
  7  6  1  0
  8 13  1  0
  9 10  1  0
  9  8  1  0
 11 10  1  0
 11 18  1  0
 11 12  1  0
 13 12  1  0
 14  7  2  0
 15 16  2  0
 16 35  1  0
 17 16  1  0
 17 20  1  0
 18 15  1  0
 18 19  1  0
 19 17  2  0
 20 21  1  0
 21 22  2  0
 23 26  1  0
 23 22  1  0
 24 23  2  0
 25 24  1  0
 25 20  2  0
 26 27  1  0
 27 28  1  0
 28 29  2  0
 30 29  1  0
 30 34  1  0
 31 30  2  0
 32 27  2  0
 32 31  1  0
 33 32  1  0
 35 36  1  0
 36 39  1  0
 36 38  1  0
 37 35  2  0
 40 41  1  0
 40 15  1  0
 42 40  1  0
 44 55  2  0
 45 43  1  0
 45 50  1  0
 46 54  1  0
 46 56  1  0
 47 53  1  0
 47 49  1  0
 48 54  1  0
 49 48  1  0
 50 49  2  0
 51 45  2  0
 52 51  1  0
 52 47  2  0
 53 46  1  0
 54 44  1  0
 56 58  2  0
 57 56  1  0
 59 57  1  0
 60 69  2  0
 60 65  1  0
 61 57  1  0
 61 65  1  0
 62 61  1  0
 63 64  1  0
 63 62  1  0
 64 60  1  0
 65 66  2  0
 66 67  1  0
 68 67  2  0
 69 68  1  0
 70 44  1  0
 70 71  1  0
 70 80  1  0
 71 74  1  0
 72 76  1  0
 72 71  1  0
 73 72  2  0
 76 75  1  0
 78 76  1  0
 78 79  1  0
 78 77  1  0
 80 83  1  1
 80 81  1  0
 82 80  1  0
M  ISO  4   1 101   6 100   7 100  43 101
M  END
>  <TORSDO>  (2) 
F 18

>  <SCORE>  (2) 
-15.566

>  <name>  (2) 
1

>  <ligand_id>  (2) 
1

>  <original_smiles>  (2) 
[H]C(C(=NC(=O)N1C([H])([H])C([H])([H])C([H])([H])C([H])(n2nc(-c3c([H])c([H])c(Oc4c([H])c([H])c(F)c([H])c4F)c([H])c3[H])c(C(=O)N([H])[H])c2N([H])[H])C1([H])[H])C([H])([H])[H])=C([H])C([H])([H])Oc1c([H])c([H])c2c(c1[H])C([H])([H])N(C(=O)C([H])(N([H])C(=O)C([H])(N([H])C([H])([H])[H])C([H])([H])[H])C(C([H])([H])[H])(C([H])([H])[H])C([H])([H])[H])C([H])(C(=O)N([H])C1([H])c3c([H])c([H])c([H])c([H])c3C([H])([H])C([H])([H])C1([H])[H])C2([H])[H]

>  <smiles>  (2) 
[H]C(C(=NC(=O)N1C([H])([H])C([H])([H])C([H])([H])C([H])(n2nc(-c3c([H])c([H])c(Oc4c([H])c([H])c(F)c([H])c4F)c([H])c3[H])c(C(=O)N([H])[H])c2N([H])[H])C1([H])[H])C([H])([H])[H])=C([H])C([H])([H])Oc1c([H])c([H])c2c(c1[H])C([H])([H])N(C(=O)C([H])(N([H])C(=O)C([H])(N([H])C([H])([H])[H])C([H])([H])[H])C(C([H])([H])[H])(C([H])([H])[H])C([H])([H])[H])C([H])(C(=O)N([H])C1([H])c3c([H])c([H])c([H])c([H])c3C([H])([H])C([H])([H])C1([H])[H])C2([H])[H]

$$$$
2:0:0
     RDKit          3D

 93100  0  0  1  0  0  0  0  0999 V2000
  -29.2140  -22.4010   21.2570 N   0  0  0  0  0  4  0  0  0  0  0  0
  -28.2740  -22.2220   20.9400 H   0  0  0  0  0  0  0  0  0  0  0  0
  -29.8240  -22.2630   20.4650 H   0  0  0  0  0  0  0  0  0  0  0  0
  -29.5520  -21.4170   22.3010 C   0  0  0  0  0  2  0  0  0  0  0  0
  -30.2210  -19.0300   21.8100 C   0  0  0  0  0  3  0  0  0  0  0  0
  -29.3100  -20.0200   21.7700 C   0  0  0  0  0  3  0  0  0  0  0  0
  -29.9440  -17.7380   21.2160 C   0  0  0  0  0  0  0  0  0  0  0  0
  -30.6740  -16.7730   21.7930 N   0  0  0  0  0  0  0  0  0  0  0  0
  -29.1800  -17.5290   20.2700 O   0  0  0  0  0  0  0  0  0  0  0  0
  -31.2660  -17.0470   22.5650 H   0  0  0  0  0  0  0  0  0  0  0  0
  -31.7910  -14.6440   22.2250 C   0  0  0  0  0  1  0  0  0  0  0  0
  -30.7250  -15.3700   21.3820 C   0  0  0  0  0  3  0  0  0  0  0  0
  -30.9130  -15.2800   19.8340 C   0  0  0  0  0  2  0  0  0  0  0  0
  -31.3960  -13.9680   19.1920 C   0  0  0  0  0  0  0  0  0  0  0  0
  -30.7890  -11.7820   18.2340 C   0  0  0  0  0  2  0  0  0  0  0  0
  -29.6910  -11.9780   17.1740 C   0  0  0  0  0  2  0  0  0  0  0  0
  -28.2920  -11.9670   17.8210 C   0  0  0  0  0  2  0  0  0  0  0  0
  -28.1930  -12.9150   19.0450 C   0  0  0  0  0  3  0  0  0  0  0  0
  -29.3850  -12.6850   19.9980 C   0  0  0  0  0  2  0  0  0  0  0  0
  -30.6300  -12.8470   19.2340 N   0  0  0  0  0  0  0  0  0  0  0  0
  -32.4140  -14.0390   18.4960 O   0  0  0  0  0  0  0  0  0  0  0  0
  -26.0440  -13.7500   20.1980 C   0  0  0  0  0  0  0  0  0  0  0  0
  -24.9540  -13.0810   20.6850 C   0  0  0  0  0  0  0  0  0  0  0  0
  -25.2160  -11.6910   20.4810 C   0  0  0  0  0  0  0  0  0  0  0  0
  -26.9090  -12.7710   19.7260 N   0  0  0  0  0  0  0  0  0  0  0  0
  -26.4200  -11.5240   19.9500 N   0  0  0  0  0  0  0  0  0  0  0  0
  -24.3660  -10.5160   20.7080 C   0  0  0  0  0  0  0  0  0  0  0  0
  -24.7460   -9.4920   21.6020 C   0  0  0  0  0  3  0  0  0  0  0  0
  -23.9020   -8.3780   21.8150 C   0  0  0  0  0  3  0  0  0  0  0  0
  -22.6640   -8.2880   21.1340 C   0  0  0  0  0  0  0  0  0  0  0  0
  -22.3050   -9.3010   20.2290 C   0  0  0  0  0  3  0  0  0  0  0  0
  -23.1490  -10.4000   20.0100 C   0  0  0  0  0  3  0  0  0  0  0  0
  -21.7960   -7.2280   21.2560 O   0  0  0  0  0  0  0  0  0  0  0  0
  -21.5700   -6.6190   22.4660 C   0  0  0  0  0  0  0  0  0  0  0  0
  -21.1530   -7.3490   23.6010 C   0  0  0  0  0  3  0  0  0  0  0  0
  -20.8640   -6.6780   24.8050 C   0  0  0  0  0  3  0  0  0  0  0  0
  -20.9830   -5.2770   24.8760 C   0  0  0  0  0  0  0  0  0  0  0  0
  -21.3900   -4.5460   23.7460 C   0  0  0  0  0  3  0  0  0  0  0  0
  -21.6810   -5.2150   22.5430 C   0  0  0  0  0  0  0  0  0  0  0  0
  -22.0560   -4.5070   21.4530 F   0  0  0  0  0  0  0  0  0  0  0  0
  -20.7040   -4.6280   26.0300 F   0  0  0  0  0  0  0  0  0  0  0  0
  -23.6960  -13.6960   21.2310 C   0  0  0  0  0  0  0  0  0  0  0  0
  -23.0890  -13.0590   22.2250 N   0  0  0  0  0  0  0  0  0  0  0  0
  -23.2740  -14.7720   20.8050 O   0  0  0  0  0  0  0  0  0  0  0  0
  -23.4620  -12.2000   22.5980 H   0  0  0  0  0  0  0  0  0  0  0  0
  -22.2460  -13.4430   22.6320 H   0  0  0  0  0  0  0  0  0  0  0  0
  -26.3680  -15.1040   20.1110 N   0  0  0  0  0  0  0  0  0  0  0  0
  -25.7750  -15.8190   20.5160 H   0  0  0  0  0  0  0  0  0  0  0  0
  -27.2700  -15.4620   19.8180 H   0  0  0  0  0  0  0  0  0  0  0  0
  -29.2880  -23.8110   21.6890 C   0  0  0  0  0  2  0  0  0  0  0  0
  -28.9030  -24.7280   20.5260 C   0  0  0  0  0  2  0  0  0  0  0  0
  -29.0500  -26.2200   20.8210 C   0  0  0  0  0  2  0  0  0  0  0  0
  -28.6980  -26.9020   19.6200 O   0  0  0  0  0  0  0  0  0  0  0  0
  -24.7230  -31.6470   23.0600 C   0  0  0  0  0  0  0  0  0  0  0  0
  -27.4910  -27.5400   19.7040 C   0  0  0  0  0  0  0  0  0  0  0  0
  -23.5210  -30.2240   21.4250 C   0  0  0  0  0  3  0  0  0  0  0  0
  -25.0020  -28.8350   19.8760 C   0  0  0  0  0  0  0  0  0  0  0  0
  -25.9960  -30.7670   21.1200 C   0  0  0  0  0  2  0  0  0  0  0  0
  -26.1400  -29.4270   20.4340 C   0  0  0  0  0  0  0  0  0  0  0  0
  -27.3890  -28.7830   20.3550 C   0  0  0  0  0  3  0  0  0  0  0  0
  -26.3460  -26.9430   19.1420 C   0  0  0  0  0  3  0  0  0  0  0  0
  -25.0920  -27.5870   19.2300 C   0  0  0  0  0  3  0  0  0  0  0  0
  -23.7060  -29.6040   20.0090 C   0  0  0  0  0  2  0  0  0  0  0  0
  -24.7660  -30.8930   21.9260 N   0  0  0  0  0  0  0  0  0  0  0  0
  -23.6620  -31.8330   23.6640 O   0  0  0  0  0  0  0  0  0  0  0  0
  -22.9880  -29.1330   22.3800 C   0  0  0  0  0  0  0  0  0  0  0  0
  -21.6870  -28.8280   22.2640 N   0  0  0  0  0  0  0  0  0  0  0  0
  -23.7380  -28.5660   23.1780 O   0  0  0  0  0  0  0  0  0  0  0  0
  -21.1400  -29.3480   21.5930 H   0  0  0  0  0  0  0  0  0  0  0  0
  -18.4630  -27.2570   22.7090 C   0  0  0  0  0  0  0  0  0  0  0  0
  -20.9700  -27.8070   23.0250 C   0  0  0  0  0  3  0  0  0  0  0  0
  -21.2440  -26.3940   22.4620 C   0  0  0  0  0  2  0  0  0  0  0  0
  -20.2060  -25.9430   21.4300 C   0  0  0  0  0  2  0  0  0  0  0  0
  -18.8050  -25.9330   22.0480 C   0  0  0  0  0  2  0  0  0  0  0  0
  -19.4780  -28.1440   23.1540 C   0  0  0  0  0  0  0  0  0  0  0  0
  -19.1090  -29.3800   23.7290 C   0  0  0  0  0  3  0  0  0  0  0  0
  -17.7520  -29.7320   23.8650 C   0  0  0  0  0  3  0  0  0  0  0  0
  -16.7500  -28.8440   23.4390 C   0  0  0  0  0  3  0  0  0  0  0  0
  -17.1050  -27.6090   22.8660 C   0  0  0  0  0  3  0  0  0  0  0  0
  -26.0070  -32.3300   23.6380 C   0  0  0  0  0  3  0  0  0  0  0  0
  -25.6500  -33.7100   23.9870 N   0  0  0  0  0  0  0  0  0  0  0  0
  -25.9190  -34.7790   23.2270 C   0  0  0  0  0  0  0  0  0  0  0  0
  -26.5690  -34.7130   22.1800 O   0  0  0  0  0  0  0  0  0  0  0  0
  -25.0730  -33.8350   24.8060 H   0  0  0  0  0  0  0  0  0  0  0  0
  -24.1160  -36.5000   22.9160 C   0  0  0  0  0  1  0  0  0  0  0  0
  -25.3840  -36.1400   23.7040 C   0  0  0  0  0  3  0  0  0  0  0  0
  -27.4970  -37.1020   24.5070 C   0  0  0  0  0  1  0  0  0  0  0  0
  -26.3730  -37.2320   23.5860 N   0  0  0  0  0  0  0  0  0  0  0  0
  -25.9320  -38.1330   23.7540 H   0  0  0  0  0  0  0  0  0  0  0  0
  -26.6100  -31.5710   24.8850 C   0  0  1  0  0  0  0  0  0  0  0  0
  -25.5640  -31.2480   25.9760 C   0  0  0  0  0  1  0  0  0  0  0  0
  -27.2680  -30.2410   24.4490 C   0  0  0  0  0  1  0  0  0  0  0  0
  -27.7240  -32.4260   25.5340 C   0  0  0  0  0  1  0  0  0  0  0  0
  1 50  1  0
  1  4  1  0
  2  1  1  0
  3  1  1  0
  6  5  2  0
  6  4  1  0
  7  8  1  0
  7  5  1  0
  8 10  1  0
  9  7  2  0
 12  8  1  0
 12 11  1  0
 13 12  1  0
 14 20  1  0
 14 13  1  0
 15 20  1  0
 16 17  1  0
 16 15  1  0
 18 17  1  0
 18 25  1  0
 18 19  1  0
 20 19  1  0
 21 14  2  0
 22 23  2  0
 23 42  1  0
 24 23  1  0
 24 27  1  0
 25 26  1  0
 25 22  1  0
 26 24  2  0
 27 28  1  0
 28 29  2  0
 30 33  1  0
 30 29  1  0
 31 30  2  0
 32 31  1  0
 32 27  2  0
 33 34  1  0
 34 39  2  0
 34 35  1  0
 35 36  2  0
 36 37  1  0
 37 41  1  0
 38 37  2  0
 39 38  1  0
 40 39  1  0
 42 43  1  0
 43 45  1  0
 43 46  1  0
 44 42  2  0
 47 22  1  0
 47 48  1  0
 49 47  1  0
 51 52  1  0
 51 50  1  0
 53 55  1  0
 53 52  1  0
 54 65  2  0
 55 60  1  0
 56 64  1  0
 56 66  1  0
 57 63  1  0
 57 59  1  0
 58 64  1  0
 59 58  1  0
 60 59  2  0
 61 62  1  0
 61 55  2  0
 62 57  2  0
 63 56  1  0
 64 54  1  0
 66 68  2  0
 67 66  1  0
 69 67  1  0
 70 79  2  0
 70 75  1  0
 71 67  1  0
 71 75  1  0
 72 71  1  0
 73 74  1  0
 73 72  1  0
 74 70  1  0
 75 76  2  0
 76 77  1  0
 78 77  2  0
 79 78  1  0
 80 54  1  0
 80 81  1  0
 80 90  1  0
 81 84  1  0
 82 86  1  0
 82 81  1  0
 83 82  2  0
 86 85  1  0
 88 86  1  0
 88 89  1  0
 88 87  1  0
 90 93  1  1
 90 91  1  0
 92 90  1  0
M  ISO  4  13 100  14 100  52 101  53 101
M  END
>  <TORSDO>  (3) 
F 24

>  <SCORE>  (3) 
-8.462

>  <name>  (3) 
2

>  <ligand_id>  (3) 
2

>  <original_smiles>  (3) 
[H]C(C(=O)N([H])C([H])(C([H])([H])[H])C([H])([H])C(=O)N1C([H])([H])C([H])([H])C([H])([H])C([H])(n2nc(-c3c([H])c([H])c(Oc4c([H])c([H])c(F)c([H])c4F)c([H])c3[H])c(C(=O)N([H])[H])c2N([H])[H])C1([H])[H])=C([H])C([H])([H])[N+]([H])([H])C([H])([H])C([H])([H])C([H])([H])Oc1c([H])c([H])c2c(c1[H])C([H])([H])N(C(=O)C([H])(N([H])C(=O)C([H])(N([H])C([H])([H])[H])C([H])([H])[H])C(C([H])([H])[H])(C([H])([H])[H])C([H])([H])[H])C([H])(C(=O)N([H])C1([H])c3c([H])c([H])c([H])c([H])c3C([H])([H])C([H])([H])C1([H])[H])C2([H])[H]

>  <smiles>  (3) 
[H]C(C(=O)N([H])C([H])(C([H])([H])[H])C([H])([H])C(=O)N1C([H])([H])C([H])([H])C([H])([H])C([H])(n2nc(-c3c([H])c([H])c(Oc4c([H])c([H])c(F)c([H])c4F)c([H])c3[H])c(C(=O)N([H])[H])c2N([H])[H])C1([H])[H])=C([H])C([H])([H])[N+]([H])([H])C([H])([H])C([H])([H])C([H])([H])Oc1c([H])c([H])c2c(c1[H])C([H])([H])N(C(=O)C([H])(N([H])C(=O)C([H])(N([H])C([H])([H])[H])C([H])([H])[H])C(C([H])([H])[H])(C([H])([H])[H])C([H])([H])[H])C([H])(C(=O)N([H])C1([H])c3c([H])c([H])c([H])c([H])c3C([H])([H])C([H])([H])C1([H])[H])C2([H])[H]

$$$$
3:0:0
     RDKit          3D

 90 98  0  0  1  0  0  0  0  0999 V2000
  -29.9200  -21.2950   19.0450 C   0  0  0  0  0  2  0  0  0  0  0  0
  -28.6600  -19.6990   21.0120 C   0  0  0  0  0  2  0  0  0  0  0  0
  -29.4790  -18.9320   19.8830 C   0  0  0  0  0  3  0  0  0  0  0  0
  -29.1410  -22.1040   20.1650 C   0  0  0  0  0  3  0  0  0  0  0  0
  -30.4720  -19.9620   19.4620 N   0  0  0  0  0  0  0  0  0  0  0  0
  -28.1250  -21.0820   20.6220 N   0  0  0  0  0  4  0  0  0  0  0  0
  -31.1100  -20.1390   20.2380 H   0  0  0  0  0  0  0  0  0  0  0  0
  -27.6130  -21.4410   21.4110 H   0  0  0  0  0  0  0  0  0  0  0  0
  -27.4660  -20.9390   19.8740 H   0  0  0  0  0  0  0  0  0  0  0  0
  -29.7180  -16.1690   20.1120 C   0  0  0  0  0  3  0  0  0  0  0  0
  -30.1770  -17.4930   20.1820 C   0  0  0  0  0  3  0  0  0  0  0  0
  -30.5660  -14.8930   20.1750 C   0  0  0  0  0  0  0  0  0  0  0  0
  -30.3830  -12.5730   19.2450 C   0  0  0  0  0  2  0  0  0  0  0  0
  -29.4450  -12.6290   18.0190 C   0  0  0  0  0  2  0  0  0  0  0  0
  -27.9770  -12.4350   18.4500 C   0  0  0  0  0  2  0  0  0  0  0  0
  -27.5980  -13.3200   19.6660 C   0  0  0  0  0  3  0  0  0  0  0  0
  -28.6670  -13.2860   20.7780 C   0  0  0  0  0  2  0  0  0  0  0  0
  -29.9510  -13.6520   20.1680 N   0  0  0  0  0  0  0  0  0  0  0  0
  -31.7830  -14.9260   19.9620 O   0  0  0  0  0  0  0  0  0  0  0  0
  -25.2270  -13.9070   20.4320 C   0  0  0  0  0  0  0  0  0  0  0  0
  -24.1660  -13.1320   20.8120 C   0  0  0  0  0  0  0  0  0  0  0  0
  -24.6280  -11.7820   20.7720 C   0  0  0  0  0  0  0  0  0  0  0  0
  -26.2650  -13.0270   20.1780 N   0  0  0  0  0  0  0  0  0  0  0  0
  -25.9160  -11.7440   20.4500 N   0  0  0  0  0  0  0  0  0  0  0  0
  -23.9020  -10.5200   20.9660 C   0  0  0  0  0  0  0  0  0  0  0  0
  -24.3290   -9.5590   21.9090 C   0  0  0  0  0  3  0  0  0  0  0  0
  -23.6010   -8.3640   22.0910 C   0  0  0  0  0  3  0  0  0  0  0  0
  -22.4320   -8.1210   21.3310 C   0  0  0  0  0  0  0  0  0  0  0  0
  -22.0240   -9.0700   20.3780 C   0  0  0  0  0  3  0  0  0  0  0  0
  -22.7530  -10.2570   20.1940 C   0  0  0  0  0  3  0  0  0  0  0  0
  -21.6780   -6.9760   21.4210 O   0  0  0  0  0  0  0  0  0  0  0  0
  -21.6090   -6.2480   22.5820 C   0  0  0  0  0  0  0  0  0  0  0  0
  -21.1410   -6.8130   23.7870 C   0  0  0  0  0  3  0  0  0  0  0  0
  -21.0180   -6.0120   24.9410 C   0  0  0  0  0  3  0  0  0  0  0  0
  -21.3560   -4.6460   24.8860 C   0  0  0  0  0  0  0  0  0  0  0  0
  -21.8160   -4.0800   23.6840 C   0  0  0  0  0  3  0  0  0  0  0  0
  -21.9380   -4.8790   22.5350 C   0  0  0  0  0  0  0  0  0  0  0  0
  -22.3630   -4.3250   21.3730 F   0  0  0  0  0  0  0  0  0  0  0  0
  -21.2320   -3.8730   25.9900 F   0  0  0  0  0  0  0  0  0  0  0  0
  -22.7720  -13.6110   21.0970 C   0  0  0  0  0  0  0  0  0  0  0  0
  -22.0490  -12.9110   21.9640 N   0  0  0  0  0  0  0  0  0  0  0  0
  -22.3360  -14.6430   20.5900 O   0  0  0  0  0  0  0  0  0  0  0  0
  -22.4180  -12.0790   22.4010 H   0  0  0  0  0  0  0  0  0  0  0  0
  -21.1130  -13.2130   22.1960 H   0  0  0  0  0  0  0  0  0  0  0  0
  -25.3900  -15.2770   20.2530 N   0  0  0  0  0  0  0  0  0  0  0  0
  -24.6210  -15.9290   20.3610 H   0  0  0  0  0  0  0  0  0  0  0  0
  -26.2270  -15.7110   19.8880 H   0  0  0  0  0  0  0  0  0  0  0  0
  -28.6140  -23.6180   19.6850 C   0  0  0  0  0  2  0  0  0  0  0  0
  -28.2840  -24.9230   20.6430 C   0  0  0  0  0  2  0  0  0  0  0  0
  -28.3700  -26.3850   20.2060 O   0  0  0  0  0  0  0  0  0  0  0  0
  -24.5960  -31.8910   23.2220 C   0  0  0  0  0  0  0  0  0  0  0  0
  -27.2520  -27.2620   20.2210 C   0  0  0  0  0  0  0  0  0  0  0  0
  -23.4170  -30.4820   21.5740 C   0  0  0  0  0  3  0  0  0  0  0  0
  -24.8880  -28.9160   20.1730 C   0  0  0  0  0  0  0  0  0  0  0  0
  -25.9610  -30.7960   21.4130 C   0  0  0  0  0  2  0  0  0  0  0  0
  -26.0560  -29.4050   20.7730 C   0  0  0  0  0  0  0  0  0  0  0  0
  -27.2420  -28.5960   20.7730 C   0  0  0  0  0  3  0  0  0  0  0  0
  -26.0550  -26.8380   19.6100 C   0  0  0  0  0  3  0  0  0  0  0  0
  -24.8940  -27.6420   19.5800 C   0  0  0  0  0  3  0  0  0  0  0  0
  -23.6490  -29.7960   20.2020 C   0  0  0  0  0  2  0  0  0  0  0  0
  -24.6780  -31.0750   22.1270 N   0  0  0  0  0  0  0  0  0  0  0  0
  -23.5040  -32.1660   23.7420 O   0  0  0  0  0  0  0  0  0  0  0  0
  -22.7420  -29.4720   22.5330 C   0  0  0  0  0  0  0  0  0  0  0  0
  -21.4160  -29.2960   22.3970 N   0  0  0  0  0  0  0  0  0  0  0  0
  -23.4120  -28.8470   23.3590 O   0  0  0  0  0  0  0  0  0  0  0  0
  -20.9330  -29.8480   21.7030 H   0  0  0  0  0  0  0  0  0  0  0  0
  -18.0340  -28.1050   22.8890 C   0  0  0  0  0  0  0  0  0  0  0  0
  -20.5930  -28.3580   23.1630 C   0  0  0  0  0  3  0  0  0  0  0  0
  -20.6930  -26.9300   22.5820 C   0  0  0  0  0  2  0  0  0  0  0  0
  -19.5910  -26.6130   21.5640 C   0  0  0  0  0  2  0  0  0  0  0  0
  -18.2080  -26.7590   22.2050 C   0  0  0  0  0  2  0  0  0  0  0  0
  -19.1530  -28.8620   23.3240 C   0  0  0  0  0  0  0  0  0  0  0  0
  -18.9360  -30.1210   23.9240 C   0  0  0  0  0  3  0  0  0  0  0  0
  -17.6310  -30.6220   24.0950 C   0  0  0  0  0  3  0  0  0  0  0  0
  -16.5270  -29.8620   23.6760 C   0  0  0  0  0  3  0  0  0  0  0  0
  -16.7290  -28.6050   23.0770 C   0  0  0  0  0  3  0  0  0  0  0  0
  -25.8650  -32.5330   23.8600 C   0  0  0  0  0  3  0  0  0  0  0  0
  -26.3620  -31.7750   25.1530 C   0  0  1  0  0  0  0  0  0  0  0  0
  -25.2520  -31.5480   26.2060 C   0  0  0  0  0  1  0  0  0  0  0  0
  -26.9500  -30.3930   24.7850 C   0  0  0  0  0  1  0  0  0  0  0  0
  -27.5010  -32.5770   25.8260 C   0  0  0  0  0  1  0  0  0  0  0  0
  -25.5480  -33.9340   24.1750 N   0  0  0  0  0  0  0  0  0  0  0  0
  -25.8880  -34.9840   23.4150 C   0  0  0  0  0  0  0  0  0  0  0  0
  -26.5700  -34.8730   22.3920 O   0  0  0  0  0  0  0  0  0  0  0  0
  -24.9410  -34.0930   24.9660 H   0  0  0  0  0  0  0  0  0  0  0  0
  -24.1640  -36.7750   23.0280 C   0  0  0  0  0  1  0  0  0  0  0  0
  -25.3940  -36.3750   23.8590 C   0  0  0  0  0  3  0  0  0  0  0  0
  -27.5180  -37.2620   24.7150 C   0  0  0  0  0  1  0  0  0  0  0  0
  -26.4260  -37.4300   23.7590 N   0  0  0  0  0  0  0  0  0  0  0  0
  -26.0160  -38.3480   23.9090 H   0  0  0  0  0  0  0  0  0  0  0  0
  1  5  1  0
  1  4  1  0
  3 11  1  0
  3  2  1  0
  4 48  1  0
  4  6  1  0
  5  3  1  0
  5  7  1  0
  6  2  1  0
  6  8  1  0
  9  6  1  0
 10 12  1  0
 10 11  2  0
 13 18  1  0
 14 15  1  0
 14 13  1  0
 16 15  1  0
 16 23  1  0
 16 17  1  0
 18 12  1  0
 18 17  1  0
 19 12  2  0
 20 21  2  0
 21 40  1  0
 22 21  1  0
 22 25  1  0
 23 20  1  0
 23 24  1  0
 24 22  2  0
 25 26  1  0
 26 27  2  0
 28 31  1  0
 28 27  1  0
 29 28  2  0
 30 29  1  0
 30 25  2  0
 31 32  1  0
 32 33  1  0
 33 34  2  0
 35 34  1  0
 35 39  1  0
 36 35  2  0
 37 32  2  0
 37 36  1  0
 38 37  1  0
 40 41  1  0
 41 44  1  0
 41 43  1  0
 42 40  2  0
 45 46  1  0
 45 20  1  0
 47 45  1  0
 48 49  1  0
 50 52  1  0
 50 49  1  0
 51 62  2  0
 52 57  1  0
 53 61  1  0
 53 63  1  0
 54 60  1  0
 54 56  1  0
 55 61  1  0
 56 57  2  0
 56 55  1  0
 58 52  2  0
 59 58  1  0
 59 54  2  0
 60 53  1  0
 61 51  1  0
 63 65  2  0
 64 63  1  0
 66 64  1  0
 67 76  2  0
 67 72  1  0
 68 64  1  0
 68 72  1  0
 69 68  1  0
 70 71  1  0
 70 69  1  0
 71 67  1  0
 72 73  2  0
 73 74  1  0
 75 74  2  0
 76 75  1  0
 77 51  1  0
 77 82  1  0
 77 78  1  0
 78 81  1  1
 78 79  1  0
 80 78  1  0
 82 85  1  0
 83 87  1  0
 83 82  1  0
 84 83  2  0
 87 86  1  0
 89 87  1  0
 89 90  1  0
 89 88  1  0
M  ISO  4  10 100  12 100  49 101  50 101
M  END
>  <TORSDO>  (4) 
F 19

>  <SCORE>  (4) 
-13.970

>  <name>  (4) 
3

>  <ligand_id>  (4) 
3

>  <original_smiles>  (4) 
[H]C(C(=O)N1C([H])([H])C([H])([H])C([H])([H])C([H])(n2nc(-c3c([H])c([H])c(Oc4c([H])c([H])c(F)c([H])c4F)c([H])c3[H])c(C(=O)N([H])[H])c2N([H])[H])C1([H])[H])=C([H])C1([H])N([H])C([H])([H])C([H])(C([H])([H])C([H])([H])Oc2c([H])c([H])c3c(c2[H])C([H])([H])N(C(=O)C([H])(N([H])C(=O)C([H])(N([H])C([H])([H])[H])C([H])([H])[H])C(C([H])([H])[H])(C([H])([H])[H])C([H])([H])[H])C([H])(C(=O)N([H])C2([H])c4c([H])c([H])c([H])c([H])c4C([H])([H])C([H])([H])C2([H])[H])C3([H])[H])[N+]([H])([H])C1([H])[H]

>  <smiles>  (4) 
[H]C(C(=O)N1C([H])([H])C([H])([H])C([H])([H])C([H])(n2nc(-c3c([H])c([H])c(Oc4c([H])c([H])c(F)c([H])c4F)c([H])c3[H])c(C(=O)N([H])[H])c2N([H])[H])C1([H])[H])=C([H])C1([H])N([H])C([H])([H])C([H])(C([H])([H])C([H])([H])Oc2c([H])c([H])c3c(c2[H])C([H])([H])N(C(=O)C([H])(N([H])C(=O)C([H])(N([H])C([H])([H])[H])C([H])([H])[H])C(C([H])([H])[H])(C([H])([H])[H])C([H])([H])[H])C([H])(C(=O)N([H])C2([H])c4c([H])c([H])c([H])c([H])c4C([H])([H])C([H])([H])C2([H])[H])C3([H])[H])[N+]([H])([H])C1([H])[H]

$$$$
4:0:0
     RDKit          3D

 90 98  0  0  1  0  0  0  0  0999 V2000
  -31.2410  -19.5160   20.8350 C   0  0  0  0  0  3  0  0  0  0  0  0
  -30.1100  -18.7230   20.4930 C   0  0  0  0  0  0  0  0  0  0  0  0
  -30.8160  -20.8120   20.9800 C   0  0  0  0  0  0  0  0  0  0  0  0
  -29.0370  -19.5640   20.4000 N   0  0  0  0  0  0  0  0  0  0  0  0
  -29.4650  -20.8870   20.6320 N   0  0  0  0  0  0  0  0  0  0  0  0
  -32.9730  -21.9300   21.0940 C   0  0  0  0  0  1  0  0  0  0  0  0
  -31.2670  -22.3380   22.7940 C   0  0  0  0  0  1  0  0  0  0  0  0
  -31.5500  -21.9130   21.4280 N   0  0  0  0  0  0  0  0  0  0  0  0
  -30.4110  -17.2110   20.3570 C   0  0  0  0  0  3  0  0  0  0  0  0
  -29.7660  -15.9850   20.4450 C   0  0  0  0  0  3  0  0  0  0  0  0
  -30.5100  -14.6900   20.1760 C   0  0  0  0  0  0  0  0  0  0  0  0
  -30.2350  -12.4170   19.1840 C   0  0  0  0  0  2  0  0  0  0  0  0
  -29.2700  -12.5080   17.9820 C   0  0  0  0  0  2  0  0  0  0  0  0
  -27.8130  -12.3250   18.4480 C   0  0  0  0  0  2  0  0  0  0  0  0
  -27.4740  -13.1920   19.6890 C   0  0  0  0  0  3  0  0  0  0  0  0
  -28.5700  -13.1300   20.7740 C   0  0  0  0  0  2  0  0  0  0  0  0
  -29.8480  -13.4790   20.1450 N   0  0  0  0  0  0  0  0  0  0  0  0
  -31.6860  -14.7110   19.8070 O   0  0  0  0  0  0  0  0  0  0  0  0
  -25.1170  -13.7420   20.5280 C   0  0  0  0  0  0  0  0  0  0  0  0
  -24.0700  -12.9510   20.9190 C   0  0  0  0  0  0  0  0  0  0  0  0
  -24.5420  -11.6040   20.8360 C   0  0  0  0  0  0  0  0  0  0  0  0
  -26.1540  -12.8760   20.2280 N   0  0  0  0  0  0  0  0  0  0  0  0
  -25.8200  -11.5840   20.4790 N   0  0  0  0  0  0  0  0  0  0  0  0
  -23.8280  -10.3320   21.0220 C   0  0  0  0  0  0  0  0  0  0  0  0
  -24.2920   -9.3530   21.9270 C   0  0  0  0  0  3  0  0  0  0  0  0
  -23.5790   -8.1470   22.1030 C   0  0  0  0  0  3  0  0  0  0  0  0
  -22.3890   -7.9130   21.3770 C   0  0  0  0  0  0  0  0  0  0  0  0
  -21.9440   -8.8810   20.4590 C   0  0  0  0  0  3  0  0  0  0  0  0
  -22.6570  -10.0780   20.2810 C   0  0  0  0  0  3  0  0  0  0  0  0
  -21.6440   -6.7600   21.4660 O   0  0  0  0  0  0  0  0  0  0  0  0
  -21.6170   -6.0060   22.6120 C   0  0  0  0  0  0  0  0  0  0  0  0
  -21.1740   -6.5370   23.8430 C   0  0  0  0  0  3  0  0  0  0  0  0
  -21.0970   -5.7080   24.9800 C   0  0  0  0  0  3  0  0  0  0  0  0
  -21.4510   -4.3480   24.8860 C   0  0  0  0  0  0  0  0  0  0  0  0
  -21.8850   -3.8170   23.6580 C   0  0  0  0  0  3  0  0  0  0  0  0
  -21.9650   -4.6440   22.5240 C   0  0  0  0  0  0  0  0  0  0  0  0
  -22.3660   -4.1210   21.3400 F   0  0  0  0  0  0  0  0  0  0  0  0
  -21.3700   -3.5500   25.9750 F   0  0  0  0  0  0  0  0  0  0  0  0
  -22.6810  -13.4110   21.2520 C   0  0  0  0  0  0  0  0  0  0  0  0
  -21.9940  -12.6950   22.1350 N   0  0  0  0  0  0  0  0  0  0  0  0
  -22.2150  -14.4390   20.7650 O   0  0  0  0  0  0  0  0  0  0  0  0
  -22.3870  -11.8640   22.5530 H   0  0  0  0  0  0  0  0  0  0  0  0
  -21.0620  -12.9820   22.3970 H   0  0  0  0  0  0  0  0  0  0  0  0
  -25.2700  -15.1170   20.3790 N   0  0  0  0  0  0  0  0  0  0  0  0
  -24.5100  -15.7700   20.5370 H   0  0  0  0  0  0  0  0  0  0  0  0
  -26.1090  -15.5660   20.0350 H   0  0  0  0  0  0  0  0  0  0  0  0
  -28.5010  -22.0870   20.5900 C   0  0  0  0  0  2  0  0  0  0  0  0
  -28.9910  -23.6390   20.4530 C   0  0  0  0  0  3  0  0  0  0  0  0
  -27.9030  -24.8090   20.1490 C   0  0  0  0  0  3  0  0  0  0  0  0
  -28.1800  -26.2910   20.2660 O   0  0  0  0  0  0  0  0  0  0  0  0
  -24.5270  -31.8390   23.2310 C   0  0  0  0  0  0  0  0  0  0  0  0
  -27.0940  -27.2040   20.1950 C   0  0  0  0  0  0  0  0  0  0  0  0
  -23.3180  -30.4570   21.5820 C   0  0  0  0  0  3  0  0  0  0  0  0
  -24.7590  -28.8910   20.1600 C   0  0  0  0  0  0  0  0  0  0  0  0
  -25.8680  -30.7320   21.4200 C   0  0  0  0  0  2  0  0  0  0  0  0
  -25.9340  -29.3500   20.7690 C   0  0  0  0  0  0  0  0  0  0  0  0
  -27.1030  -28.5200   20.7740 C   0  0  0  0  0  3  0  0  0  0  0  0
  -25.8930  -26.8170   19.5560 C   0  0  0  0  0  3  0  0  0  0  0  0
  -24.7450  -27.6320   19.5410 C   0  0  0  0  0  3  0  0  0  0  0  0
  -23.5340  -29.7860   20.2020 C   0  0  0  0  0  2  0  0  0  0  0  0
  -24.5890  -31.0270   22.1330 N   0  0  0  0  0  0  0  0  0  0  0  0
  -23.4440  -32.1300   23.7590 O   0  0  0  0  0  0  0  0  0  0  0  0
  -22.6360  -29.4480   22.5380 C   0  0  0  0  0  0  0  0  0  0  0  0
  -21.3090  -29.2840   22.4040 N   0  0  0  0  0  0  0  0  0  0  0  0
  -23.3030  -28.8150   23.3620 O   0  0  0  0  0  0  0  0  0  0  0  0
  -20.8300  -29.8440   21.7120 H   0  0  0  0  0  0  0  0  0  0  0  0
  -17.9140  -28.1300   22.8950 C   0  0  0  0  0  0  0  0  0  0  0  0
  -20.4750  -28.3550   23.1700 C   0  0  0  0  0  3  0  0  0  0  0  0
  -20.5600  -26.9250   22.5890 C   0  0  0  0  0  2  0  0  0  0  0  0
  -19.4550  -26.6210   21.5730 C   0  0  0  0  0  2  0  0  0  0  0  0
  -18.0740  -26.7810   22.2140 C   0  0  0  0  0  2  0  0  0  0  0  0
  -19.0410  -28.8770   23.3280 C   0  0  0  0  0  0  0  0  0  0  0  0
  -18.8380  -30.1390   23.9250 C   0  0  0  0  0  3  0  0  0  0  0  0
  -17.5390  -30.6550   24.0950 C   0  0  0  0  0  3  0  0  0  0  0  0
  -16.4260  -29.9070   23.6750 C   0  0  0  0  0  3  0  0  0  0  0  0
  -16.6130  -28.6480   23.0810 C   0  0  0  0  0  3  0  0  0  0  0  0
  -25.8130  -32.4560   23.8610 C   0  0  0  0  0  3  0  0  0  0  0  0
  -25.5150  -33.8590   24.1920 N   0  0  0  0  0  0  0  0  0  0  0  0
  -25.8460  -34.9090   23.4290 C   0  0  0  0  0  0  0  0  0  0  0  0
  -26.5040  -34.8000   22.3910 O   0  0  0  0  0  0  0  0  0  0  0  0
  -24.9310  -34.0200   25.0000 H   0  0  0  0  0  0  0  0  0  0  0  0
  -24.1290  -36.7160   23.0960 C   0  0  0  0  0  1  0  0  0  0  0  0
  -25.3750  -36.3010   23.8920 C   0  0  0  0  0  3  0  0  0  0  0  0
  -27.5220  -37.1780   24.7050 C   0  0  0  0  0  1  0  0  0  0  0  0
  -26.4140  -37.3470   23.7670 N   0  0  0  0  0  0  0  0  0  0  0  0
  -26.0130  -38.2700   23.9110 H   0  0  0  0  0  0  0  0  0  0  0  0
  -26.3140  -31.6780   25.1390 C   0  0  1  0  0  0  0  0  0  0  0  0
  -25.2120  -31.4510   26.2000 C   0  0  0  0  0  1  0  0  0  0  0  0
  -26.8840  -30.2940   24.7530 C   0  0  0  0  0  1  0  0  0  0  0  0
  -27.4670  -32.4610   25.8100 C   0  0  0  0  0  1  0  0  0  0  0  0
  1  3  2  0
  2  1  1  0
  3  8  1  0
  4  2  2  0
  4  5  1  0
  5  3  1  0
  6  8  1  0
  8  7  1  0
  9 10  2  0
  9  2  1  0
 11 10  1  0
 12 17  1  0
 13 14  1  0
 13 12  1  0
 15 14  1  0
 15 22  1  0
 15 16  1  0
 17 11  1  0
 17 16  1  0
 18 11  2  0
 19 20  2  0
 20 39  1  0
 21 20  1  0
 21 24  1  0
 22 23  1  0
 22 19  1  0
 23 21  2  0
 24 25  1  0
 25 26  2  0
 27 30  1  0
 27 26  1  0
 28 27  2  0
 29 28  1  0
 29 24  2  0
 30 31  1  0
 31 32  1  0
 32 33  2  0
 34 33  1  0
 34 38  1  0
 35 34  2  0
 36 31  2  0
 36 35  1  0
 37 36  1  0
 39 40  1  0
 40 43  1  0
 40 42  1  0
 41 39  2  0
 44 19  1  0
 44 45  1  0
 46 44  1  0
 47  5  1  0
 48 47  1  0
 49 50  1  0
 49 48  2  0
 51 62  2  0
 52 50  1  0
 52 57  1  0
 53 61  1  0
 53 63  1  0
 54 60  1  0
 54 56  1  0
 55 61  1  0
 56 57  2  0
 56 55  1  0
 58 52  2  0
 59 58  1  0
 59 54  2  0
 60 53  1  0
 61 51  1  0
 63 65  2  0
 64 63  1  0
 66 64  1  0
 67 76  2  0
 67 72  1  0
 68 64  1  0
 68 72  1  0
 69 68  1  0
 70 71  1  0
 70 69  1  0
 71 67  1  0
 72 73  2  0
 73 74  1  0
 75 74  2  0
 76 75  1  0
 77 51  1  0
 77 78  1  0
 77 87  1  0
 78 81  1  0
 79 83  1  0
 79 78  1  0
 80 79  2  0
 83 82  1  0
 85 83  1  0
 85 86  1  0
 85 84  1  0
 87 90  1  1
 87 88  1  0
 89 87  1  0
M  ISO  4  10 100  11 100  49 101  50 101
M  END
>  <TORSDO>  (5) 
F 21

>  <SCORE>  (5) 
-12.905

>  <name>  (5) 
4

>  <ligand_id>  (5) 
4

>  <original_smiles>  (5) 
[H]C(C(=O)N1C([H])([H])C([H])([H])C([H])([H])C([H])(n2nc(-c3c([H])c([H])c(Oc4c([H])c([H])c(F)c([H])c4F)c([H])c3[H])c(C(=O)N([H])[H])c2N([H])[H])C1([H])[H])=C([H])c1nn(C([H])([H])C([H])([H])C([H])([H])Oc2c([H])c([H])c3c(c2[H])C([H])([H])N(C(=O)C([H])(N([H])C(=O)C([H])(N([H])C([H])([H])[H])C([H])([H])[H])C(C([H])([H])[H])(C([H])([H])[H])C([H])([H])[H])C([H])(C(=O)N([H])C2([H])c4c([H])c([H])c([H])c([H])c4C([H])([H])C([H])([H])C2([H])[H])C3([H])[H])c(N(C([H])([H])[H])C([H])([H])[H])c1[H]

>  <smiles>  (5) 
[H]C(C(=O)N1C([H])([H])C([H])([H])C([H])([H])C([H])(n2nc(-c3c([H])c([H])c(Oc4c([H])c([H])c(F)c([H])c4F)c([H])c3[H])c(C(=O)N([H])[H])c2N([H])[H])C1([H])[H])=C([H])c1nn(C([H])([H])C([H])([H])C([H])([H])Oc2c([H])c([H])c3c(c2[H])C([H])([H])N(C(=O)C([H])(N([H])C(=O)C([H])(N([H])C([H])([H])[H])C([H])([H])[H])C(C([H])([H])[H])(C([H])([H])[H])C([H])([H])[H])C([H])(C(=O)N([H])C2([H])c4c([H])c([H])c([H])c([H])c4C([H])([H])C([H])([H])C2([H])[H])C3([H])[H])c(N(C([H])([H])[H])C([H])([H])[H])c1[H]

$$$$
5:0:0
     RDKit          3D

 96103  0  0  1  0  0  0  0  0999 V2000
  -28.3260  -20.0470   19.0890 C   0  0  0  0  0  3  0  0  0  0  0  0
  -27.7910  -20.9440   18.2160 C   0  0  0  0  0  0  0  0  0  0  0  0
  -28.6160  -22.0790   17.8090 C   0  0  0  0  0  0  0  0  0  0  0  0
  -29.1280  -22.7580   18.8470 N   0  0  0  0  0  0  0  0  0  0  0  0
  -28.8170  -22.4080   16.6380 O   0  0  0  0  0  0  0  0  0  0  0  0
  -28.8860  -22.4220   19.7700 H   0  0  0  0  0  0  0  0  0  0  0  0
  -30.0420  -23.8980   18.7710 C   0  0  0  0  0  2  0  0  0  0  0  0
  -29.3620  -25.2370   19.1180 C   0  0  0  0  0  2  0  0  0  0  0  0
  -28.9290  -25.3670   20.5920 C   0  0  0  0  0  2  0  0  0  0  0  0
  -28.7850  -26.7310   20.9840 O   0  0  0  0  0  0  0  0  0  0  0  0
  -24.6420  -31.9070   23.5070 C   0  0  0  0  0  0  0  0  0  0  0  0
  -27.5720  -27.3700   20.8550 C   0  0  0  0  0  0  0  0  0  0  0  0
  -23.5750  -30.3980   21.8620 C   0  0  0  0  0  3  0  0  0  0  0  0
  -25.1470  -28.8120   20.6300 C   0  0  0  0  0  0  0  0  0  0  0  0
  -26.1020  -30.7960   21.8200 C   0  0  0  0  0  2  0  0  0  0  0  0
  -26.2510  -29.3950   21.2610 C   0  0  0  0  0  0  0  0  0  0  0  0
  -27.4650  -28.6840   21.3640 C   0  0  0  0  0  3  0  0  0  0  0  0
  -26.4420  -26.7880   20.2330 C   0  0  0  0  0  3  0  0  0  0  0  0
  -25.2360  -27.5060   20.1160 C   0  0  0  0  0  3  0  0  0  0  0  0
  -23.8900  -29.6480   20.5410 C   0  0  0  0  0  2  0  0  0  0  0  0
  -24.7880  -31.0510   22.4560 N   0  0  0  0  0  0  0  0  0  0  0  0
  -23.5210  -32.1890   23.9540 O   0  0  0  0  0  0  0  0  0  0  0  0
  -22.8710  -29.4180   22.8270 C   0  0  0  0  0  0  0  0  0  0  0  0
  -21.5730  -29.1770   22.5900 N   0  0  0  0  0  0  0  0  0  0  0  0
  -23.4950  -28.8750   23.7440 O   0  0  0  0  0  0  0  0  0  0  0  0
  -21.1340  -29.6650   21.8210 H   0  0  0  0  0  0  0  0  0  0  0  0
  -18.2120  -27.8770   22.8340 C   0  0  0  0  0  0  0  0  0  0  0  0
  -20.7160  -28.2620   23.3420 C   0  0  0  0  0  3  0  0  0  0  0  0
  -20.9290  -26.7990   22.8860 C   0  0  0  0  0  2  0  0  0  0  0  0
  -19.9490  -26.3600   21.7930 C   0  0  0  0  0  2  0  0  0  0  0  0
  -18.5050  -26.4920   22.2830 C   0  0  0  0  0  2  0  0  0  0  0  0
  -19.2520  -28.7140   23.3160 C   0  0  0  0  0  0  0  0  0  0  0  0
  -18.9310  -30.0060   23.7850 C   0  0  0  0  0  3  0  0  0  0  0  0
  -17.6000  -30.4640   23.7790 C   0  0  0  0  0  3  0  0  0  0  0  0
  -16.5700  -29.6250   23.3160 C   0  0  0  0  0  3  0  0  0  0  0  0
  -16.8770  -28.3340   22.8500 C   0  0  0  0  0  3  0  0  0  0  0  0
  -25.8730  -32.5890   24.1840 C   0  0  0  0  0  3  0  0  0  0  0  0
  -26.3080  -31.8910   25.5300 C   0  0  1  0  0  0  0  0  0  0  0  0
  -25.1380  -31.6470   26.5100 C   0  0  0  0  0  1  0  0  0  0  0  0
  -26.9770  -30.5260   25.2420 C   0  0  0  0  0  1  0  0  0  0  0  0
  -27.3670  -32.7590   26.2520 C   0  0  0  0  0  1  0  0  0  0  0  0
  -25.5230  -33.9970   24.4170 N   0  0  0  0  0  0  0  0  0  0  0  0
  -25.8810  -35.0100   23.6170 C   0  0  0  0  0  0  0  0  0  0  0  0
  -26.6090  -34.8620   22.6310 O   0  0  0  0  0  0  0  0  0  0  0  0
  -24.8820  -34.1840   25.1720 H   0  0  0  0  0  0  0  0  0  0  0  0
  -24.1320  -36.7340   23.0770 C   0  0  0  0  0  1  0  0  0  0  0  0
  -25.3430  -36.4110   23.9660 C   0  0  0  0  0  3  0  0  0  0  0  0
  -27.4170  -37.3970   24.8340 C   0  0  0  0  0  1  0  0  0  0  0  0
  -26.3580  -37.4800   23.8320 N   0  0  0  0  0  0  0  0  0  0  0  0
  -25.9270  -38.3980   23.9030 H   0  0  0  0  0  0  0  0  0  0  0  0
  -26.1970  -19.8590   16.5020 C   0  0  0  0  0  1  0  0  0  0  0  0
  -26.3770  -20.8860   17.6280 C   0  0  0  0  0  2  0  0  0  0  0  0
  -26.3490  -19.0710   20.3600 C   0  0  0  0  0  1  0  0  0  0  0  0
  -27.6930  -18.7780   19.6640 C   0  0  0  0  0  3  0  0  0  0  0  0
  -28.5960  -18.0840   20.6250 N   0  0  0  0  0  4  0  0  0  0  0  0
  -28.7910  -18.7000   21.4000 H   0  0  0  0  0  0  0  0  0  0  0  0
  -28.0820  -17.3030   21.0060 H   0  0  0  0  0  0  0  0  0  0  0  0
  -29.8880  -17.5670   20.1040 C   0  0  0  0  0  2  0  0  0  0  0  0
  -30.7610  -16.9580   21.2290 C   0  0  0  0  0  2  0  0  0  0  0  0
  -30.3730  -15.5100   21.6310 C   0  0  0  0  0  2  0  0  0  0  0  0
  -30.9670  -14.3980   20.7320 C   0  0  0  0  0  0  0  0  0  0  0  0
  -30.7230  -12.2270   19.5700 C   0  0  0  0  0  2  0  0  0  0  0  0
  -29.8280  -12.3860   18.3270 C   0  0  0  0  0  2  0  0  0  0  0  0
  -28.3370  -12.2600   18.7030 C   0  0  0  0  0  2  0  0  0  0  0  0
  -27.9490  -13.1370   19.9240 C   0  0  0  0  0  3  0  0  0  0  0  0
  -28.9550  -12.9190   21.0760 C   0  0  0  0  0  2  0  0  0  0  0  0
  -30.2980  -13.2260   20.5620 N   0  0  0  0  0  0  0  0  0  0  0  0
  -32.0460  -14.6150   20.1700 O   0  0  0  0  0  0  0  0  0  0  0  0
  -25.5280  -13.7780   20.5230 C   0  0  0  0  0  0  0  0  0  0  0  0
  -24.4400  -13.0190   20.8650 C   0  0  0  0  0  0  0  0  0  0  0  0
  -24.8880  -11.6640   20.8660 C   0  0  0  0  0  0  0  0  0  0  0  0
  -26.5730  -12.8830   20.3470 N   0  0  0  0  0  0  0  0  0  0  0  0
  -26.1870  -11.6080   20.6060 N   0  0  0  0  0  0  0  0  0  0  0  0
  -24.1440  -10.4100   21.0500 C   0  0  0  0  0  0  0  0  0  0  0  0
  -24.5130   -9.4740   22.0390 C   0  0  0  0  0  3  0  0  0  0  0  0
  -23.7760   -8.2840   22.2100 C   0  0  0  0  0  3  0  0  0  0  0  0
  -22.6550   -8.0190   21.3870 C   0  0  0  0  0  0  0  0  0  0  0  0
  -22.3020   -8.9450   20.3880 C   0  0  0  0  0  3  0  0  0  0  0  0
  -23.0410  -10.1280   20.2190 C   0  0  0  0  0  3  0  0  0  0  0  0
  -21.8950   -6.8760   21.4590 O   0  0  0  0  0  0  0  0  0  0  0  0
  -21.7550   -6.1770   22.6310 C   0  0  0  0  0  0  0  0  0  0  0  0
  -21.2080   -6.7680   23.7880 C   0  0  0  0  0  3  0  0  0  0  0  0
  -21.0200   -5.9950   24.9520 C   0  0  0  0  0  3  0  0  0  0  0  0
  -21.3670   -4.6310   24.9550 C   0  0  0  0  0  0  0  0  0  0  0  0
  -21.9070   -4.0390   23.8000 C   0  0  0  0  0  3  0  0  0  0  0  0
  -22.0970   -4.8100   22.6400 C   0  0  0  0  0  0  0  0  0  0  0  0
  -22.5990   -4.2300   21.5230 F   0  0  0  0  0  0  0  0  0  0  0  0
  -21.1770   -3.8850   26.0700 F   0  0  0  0  0  0  0  0  0  0  0  0
  -23.0380  -13.5110   21.0820 C   0  0  0  0  0  0  0  0  0  0  0  0
  -22.2770  -12.8320   21.9320 N   0  0  0  0  0  0  0  0  0  0  0  0
  -22.6250  -14.5310   20.5330 O   0  0  0  0  0  0  0  0  0  0  0  0
  -22.6200  -12.0070   22.4030 H   0  0  0  0  0  0  0  0  0  0  0  0
  -21.3330  -13.1430   22.1190 H   0  0  0  0  0  0  0  0  0  0  0  0
  -25.7150  -15.1420   20.3300 N   0  0  0  0  0  0  0  0  0  0  0  0
  -24.9370  -15.7930   20.3410 H   0  0  0  0  0  0  0  0  0  0  0  0
  -26.5550  -15.5250   19.9200 H   0  0  0  0  0  0  0  0  0  0  0  0
  1 54  1  0
  2  1  2  0
  3  2  1  0
  3  4  1  0
  4  6  1  0
  5  3  2  0
  7  4  1  0
  7  8  1  0
  8  9  1  0
  9 10  1  0
 11 22  2  0
 12 10  1  0
 12 17  1  0
 13 21  1  0
 13 23  1  0
 14 16  1  0
 15 21  1  0
 16 17  2  0
 16 15  1  0
 18 12  2  0
 19 18  1  0
 19 14  2  0
 20 14  1  0
 20 13  1  0
 21 11  1  0
 23 25  2  0
 24 23  1  0
 26 24  1  0
 27 36  2  0
 27 32  1  0
 28 24  1  0
 29 28  1  0
 30 31  1  0
 30 29  1  0
 31 27  1  0
 32 28  1  0
 32 33  2  0
 34 33  1  0
 35 34  2  0
 36 35  1  0
 37 11  1  0
 37 42  1  0
 37 38  1  0
 38 41  1  1
 38 39  1  0
 40 38  1  0
 42 45  1  0
 43 47  1  0
 43 42  1  0
 44 43  2  0
 47 46  1  0
 49 50  1  0
 49 47  1  0
 49 48  1  0
 51 52  1  0
 52  2  1  0
 54 53  1  0
 54 55  1  0
 55 57  1  0
 55 56  1  0
 58 55  1  0
 58 59  1  0
 59 60  1  0
 61 60  1  0
 62 67  1  0
 63 64  1  0
 63 62  1  0
 65 64  1  0
 65 72  1  0
 65 66  1  0
 67 61  1  0
 67 66  1  0
 68 61  2  0
 69 70  2  0
 70 71  1  0
 70 89  1  0
 71 74  1  0
 72 69  1  0
 72 73  1  0
 73 71  2  0
 74 75  1  0
 75 76  2  0
 77 80  1  0
 77 76  1  0
 78 77  2  0
 79 78  1  0
 79 74  2  0
 80 81  1  0
 81 86  2  0
 81 82  1  0
 82 83  2  0
 83 84  1  0
 84 88  1  0
 85 84  2  0
 86 85  1  0
 87 86  1  0
 89 90  1  0
 90 93  1  0
 90 92  1  0
 91 89  2  0
 94 95  1  0
 94 69  1  0
 96 94  1  0
M  ISO  4   9 101  10 101  60 100  61 100
M  END
>  <TORSDO>  (6) 
F 26

>  <SCORE>  (6) 
-10.120

>  <name>  (6) 
5

>  <ligand_id>  (6) 
5

>  <original_smiles>  (6) 
[H]C(=C(C(=O)N([H])C([H])([H])C([H])([H])C([H])([H])Oc1c([H])c([H])c2c(c1[H])C([H])([H])N(C(=O)C([H])(N([H])C(=O)C([H])(N([H])C([H])([H])[H])C([H])([H])[H])C(C([H])([H])[H])(C([H])([H])[H])C([H])([H])[H])C([H])(C(=O)N([H])C1([H])c3c([H])c([H])c([H])c([H])c3C([H])([H])C([H])([H])C1([H])[H])C2([H])[H])C([H])([H])C([H])([H])[H])C([H])(C([H])([H])[H])[N+]([H])([H])C([H])([H])C([H])([H])C([H])([H])C(=O)N1C([H])([H])C([H])([H])C([H])([H])C([H])(n2nc(-c3c([H])c([H])c(Oc4c([H])c([H])c(F)c([H])c4F)c([H])c3[H])c(C(=O)N([H])[H])c2N([H])[H])C1([H])[H]

>  <smiles>  (6) 
[H]C(=C(C(=O)N([H])C([H])([H])C([H])([H])C([H])([H])Oc1c([H])c([H])c2c(c1[H])C([H])([H])N(C(=O)C([H])(N([H])C(=O)C([H])(N([H])C([H])([H])[H])C([H])([H])[H])C(C([H])([H])[H])(C([H])([H])[H])C([H])([H])[H])C([H])(C(=O)N([H])C1([H])c3c([H])c([H])c([H])c([H])c3C([H])([H])C([H])([H])C1([H])[H])C2([H])[H])C([H])([H])C([H])([H])[H])C([H])(C([H])([H])[H])[N+]([H])([H])C([H])([H])C([H])([H])C([H])([H])C(=O)N1C([H])([H])C([H])([H])C([H])([H])C([H])(n2nc(-c3c([H])c([H])c(Oc4c([H])c([H])c(F)c([H])c4F)c([H])c3[H])c(C(=O)N([H])[H])c2N([H])[H])C1([H])[H]

$$$$
6:0:0
     RDKit          3D

 91 98  0  0  1  0  0  0  0  0999 V2000
  -27.0680  -22.2560   20.3370 C   0  0  0  0  0  0  0  0  0  0  0  0
  -25.5900  -21.9840   20.1000 C   0  0  0  0  0  1  0  0  0  0  0  0
  -28.0160  -21.4470   20.0480 N   0  0  0  0  0  0  0  0  0  0  0  0
  -27.3610  -23.5550   20.9650 C   0  0  0  0  0  3  0  0  0  0  0  0
  -28.2730  -24.4240   20.4920 C   0  0  0  0  0  3  0  0  0  0  0  0
  -28.5870  -25.7620   21.1350 C   0  0  0  0  0  2  0  0  0  0  0  0
  -28.4990  -26.8350   20.2020 O   0  0  0  0  0  0  0  0  0  0  0  0
  -24.5700  -31.9150   23.2570 C   0  0  0  0  0  0  0  0  0  0  0  0
  -27.3150  -27.5250   20.2250 C   0  0  0  0  0  0  0  0  0  0  0  0
  -23.4050  -30.5040   21.5920 C   0  0  0  0  0  3  0  0  0  0  0  0
  -24.8990  -28.9750   20.1960 C   0  0  0  0  0  0  0  0  0  0  0  0
  -25.9250  -30.8970   21.4300 C   0  0  0  0  0  2  0  0  0  0  0  0
  -26.0380  -29.5240   20.8010 C   0  0  0  0  0  0  0  0  0  0  0  0
  -27.2510  -28.8040   20.8130 C   0  0  0  0  0  3  0  0  0  0  0  0
  -26.1640  -26.9760   19.6230 C   0  0  0  0  0  3  0  0  0  0  0  0
  -24.9550  -27.6990   19.6070 C   0  0  0  0  0  3  0  0  0  0  0  0
  -23.6440  -29.8180   20.2180 C   0  0  0  0  0  2  0  0  0  0  0  0
  -24.6520  -31.1180   22.1530 N   0  0  0  0  0  0  0  0  0  0  0  0
  -23.4770  -32.1760   23.7780 O   0  0  0  0  0  0  0  0  0  0  0  0
  -22.7460  -29.4780   22.5400 C   0  0  0  0  0  0  0  0  0  0  0  0
  -21.4250  -29.2910   22.3870 N   0  0  0  0  0  0  0  0  0  0  0  0
  -23.4190  -28.8520   23.3620 O   0  0  0  0  0  0  0  0  0  0  0  0
  -20.9450  -29.8470   21.6930 H   0  0  0  0  0  0  0  0  0  0  0  0
  -18.0460  -28.0870   22.8230 C   0  0  0  0  0  0  0  0  0  0  0  0
  -20.5990  -28.3460   23.1380 C   0  0  0  0  0  3  0  0  0  0  0  0
  -20.7150  -26.9200   22.5520 C   0  0  0  0  0  2  0  0  0  0  0  0
  -19.6280  -26.6000   21.5210 C   0  0  0  0  0  2  0  0  0  0  0  0
  -18.2340  -26.7410   22.1440 C   0  0  0  0  0  2  0  0  0  0  0  0
  -19.1570  -28.8480   23.2750 C   0  0  0  0  0  0  0  0  0  0  0  0
  -18.9280  -30.1080   23.8700 C   0  0  0  0  0  3  0  0  0  0  0  0
  -17.6200  -30.6090   24.0160 C   0  0  0  0  0  3  0  0  0  0  0  0
  -16.5230  -29.8440   23.5820 C   0  0  0  0  0  3  0  0  0  0  0  0
  -16.7370  -28.5850   22.9920 C   0  0  0  0  0  3  0  0  0  0  0  0
  -25.8400  -32.5540   23.9020 C   0  0  0  0  0  3  0  0  0  0  0  0
  -25.5200  -33.9530   24.2140 N   0  0  0  0  0  0  0  0  0  0  0  0
  -25.8620  -34.9990   23.4500 C   0  0  0  0  0  0  0  0  0  0  0  0
  -26.5530  -34.8870   22.4330 O   0  0  0  0  0  0  0  0  0  0  0  0
  -24.9130  -34.1130   25.0050 H   0  0  0  0  0  0  0  0  0  0  0  0
  -24.1300  -36.7750   23.0480 C   0  0  0  0  0  1  0  0  0  0  0  0
  -25.3610  -36.3890   23.8820 C   0  0  0  0  0  3  0  0  0  0  0  0
  -27.4780  -37.2950   24.7340 C   0  0  0  0  0  1  0  0  0  0  0  0
  -26.3890  -37.4460   23.7730 N   0  0  0  0  0  0  0  0  0  0  0  0
  -25.9750  -38.3660   23.9070 H   0  0  0  0  0  0  0  0  0  0  0  0
  -26.3330  -31.7910   25.1930 C   0  0  1  0  0  0  0  0  0  0  0  0
  -25.2180  -31.5470   26.2350 C   0  0  0  0  0  1  0  0  0  0  0  0
  -26.9370  -30.4190   24.8150 C   0  0  0  0  0  1  0  0  0  0  0  0
  -27.4640  -32.5950   25.8770 C   0  0  0  0  0  1  0  0  0  0  0  0
  -27.7050  -20.1630   19.4330 C   0  0  0  0  0  2  0  0  0  0  0  0
  -28.9780  -19.3140   19.2470 C   0  0  0  0  0  2  0  0  0  0  0  0
  -29.5650  -18.7430   20.5610 C   0  0  0  0  0  2  0  0  0  0  0  0
  -31.9590  -18.5470   19.9620 C   0  0  0  0  0  1  0  0  0  0  0  0
  -30.7190  -17.8230   20.3400 N   0  0  1  0  0  4  0  0  0  0  0  0
  -30.4970  -17.2470   19.5440 H   0  0  0  0  0  0  0  0  0  0  0  0
  -30.9500  -16.8900   21.4830 C   0  0  0  0  0  2  0  0  0  0  0  0
  -30.1510  -15.5620   21.3880 C   0  0  0  0  0  2  0  0  0  0  0  0
  -30.7520  -14.4910   20.4520 C   0  0  0  0  0  0  0  0  0  0  0  0
  -30.4370  -12.3800   19.1950 C   0  0  0  0  0  2  0  0  0  0  0  0
  -29.4930  -12.6210   18.0010 C   0  0  0  0  0  2  0  0  0  0  0  0
  -28.0180  -12.4920   18.4300 C   0  0  0  0  0  2  0  0  0  0  0  0
  -27.6950  -13.3010   19.7140 C   0  0  0  0  0  3  0  0  0  0  0  0
  -28.7460  -13.0280   20.8130 C   0  0  0  0  0  2  0  0  0  0  0  0
  -30.0730  -13.3300   20.2550 N   0  0  0  0  0  0  0  0  0  0  0  0
  -31.8100  -14.7410   19.8660 O   0  0  0  0  0  0  0  0  0  0  0  0
  -25.2870  -13.9190   20.3890 C   0  0  0  0  0  0  0  0  0  0  0  0
  -24.2170  -13.1500   20.7630 C   0  0  0  0  0  0  0  0  0  0  0  0
  -24.6820  -11.8000   20.7610 C   0  0  0  0  0  0  0  0  0  0  0  0
  -26.3360  -13.0350   20.1830 N   0  0  0  0  0  0  0  0  0  0  0  0
  -25.9740  -11.7570   20.4610 N   0  0  0  0  0  0  0  0  0  0  0  0
  -23.9570  -10.5400   20.9700 C   0  0  0  0  0  0  0  0  0  0  0  0
  -24.3810   -9.5920   21.9280 C   0  0  0  0  0  3  0  0  0  0  0  0
  -23.6560   -8.3980   22.1230 C   0  0  0  0  0  3  0  0  0  0  0  0
  -22.4910   -8.1410   21.3620 C   0  0  0  0  0  0  0  0  0  0  0  0
  -22.0860   -9.0780   20.3940 C   0  0  0  0  0  3  0  0  0  0  0  0
  -22.8110  -10.2640   20.1970 C   0  0  0  0  0  3  0  0  0  0  0  0
  -21.7390   -6.9960   21.4640 O   0  0  0  0  0  0  0  0  0  0  0  0
  -21.6780   -6.2780   22.6320 C   0  0  0  0  0  0  0  0  0  0  0  0
  -21.2420   -6.8610   23.8420 C   0  0  0  0  0  3  0  0  0  0  0  0
  -21.1280   -6.0710   25.0030 C   0  0  0  0  0  3  0  0  0  0  0  0
  -21.4380   -4.6980   24.9550 C   0  0  0  0  0  0  0  0  0  0  0  0
  -21.8650   -4.1150   23.7490 C   0  0  0  0  0  3  0  0  0  0  0  0
  -21.9810   -4.9030   22.5900 C   0  0  0  0  0  0  0  0  0  0  0  0
  -22.3730   -4.3310   21.4270 F   0  0  0  0  0  0  0  0  0  0  0  0
  -21.3210   -3.9370   26.0680 F   0  0  0  0  0  0  0  0  0  0  0  0
  -22.8180  -13.6300   21.0190 C   0  0  0  0  0  0  0  0  0  0  0  0
  -22.0860  -12.9490   21.8940 N   0  0  0  0  0  0  0  0  0  0  0  0
  -22.3810  -14.6450   20.4770 O   0  0  0  0  0  0  0  0  0  0  0  0
  -22.4510  -12.1260   22.3490 H   0  0  0  0  0  0  0  0  0  0  0  0
  -21.1470  -13.2560   22.1100 H   0  0  0  0  0  0  0  0  0  0  0  0
  -25.4500  -15.2860   20.1860 N   0  0  0  0  0  0  0  0  0  0  0  0
  -24.6780  -15.9380   20.2670 H   0  0  0  0  0  0  0  0  0  0  0  0
  -26.2970  -15.7180   19.8390 H   0  0  0  0  0  0  0  0  0  0  0  0
  1  4  1  0
  2  1  1  0
  3  1  2  0
  5  4  2  0
  5  6  1  0
  7  9  1  0
  7  6  1  0
  8 19  2  0
  9 14  1  0
 10 18  1  0
 10 20  1  0
 11 17  1  0
 11 13  1  0
 12 18  1  0
 13 14  2  0
 13 12  1  0
 15  9  2  0
 16 15  1  0
 16 11  2  0
 17 10  1  0
 18  8  1  0
 20 22  2  0
 21 20  1  0
 23 21  1  0
 24 33  2  0
 24 29  1  0
 25 21  1  0
 25 29  1  0
 26 25  1  0
 27 28  1  0
 27 26  1  0
 28 24  1  0
 29 30  2  0
 30 31  1  0
 32 31  2  0
 33 32  1  0
 34  8  1  0
 34 35  1  0
 34 44  1  0
 35 38  1  0
 36 40  1  0
 36 35  1  0
 37 36  2  0
 40 39  1  0
 42 40  1  0
 42 43  1  0
 42 41  1  0
 44 47  1  1
 44 45  1  0
 46 44  1  0
 48  3  1  0
 49 48  1  0
 49 50  1  0
 51 52  1  0
 52 50  1  0
 52 54  1  0
 52 53  1  6
 55 54  1  0
 56 55  1  0
 57 62  1  0
 58 59  1  0
 58 57  1  0
 60 59  1  0
 60 67  1  0
 60 61  1  0
 62 56  1  0
 62 61  1  0
 63 56  2  0
 64 65  2  0
 65 84  1  0
 66 65  1  0
 66 69  1  0
 67 64  1  0
 67 68  1  0
 68 66  2  0
 69 70  1  0
 70 71  2  0
 72 75  1  0
 72 71  1  0
 73 72  2  0
 74 73  1  0
 74 69  2  0
 75 76  1  0
 76 77  1  0
 77 78  2  0
 79 78  1  0
 79 83  1  0
 80 79  2  0
 81 76  2  0
 81 80  1  0
 82 81  1  0
 84 85  1  0
 85 88  1  0
 85 87  1  0
 86 84  2  0
 89 90  1  0
 89 64  1  0
 91 89  1  0
M  ISO  4   6 101   7 101  55 100  56 100
M  END
>  <TORSDO>  (7) 
F 24

>  <SCORE>  (7) 
-11.714

>  <name>  (7) 
6

>  <ligand_id>  (7) 
6

>  <original_smiles>  (7) 
[H]C(C(=NC([H])([H])C([H])([H])C([H])([H])[N+]([H])(C([H])([H])[H])C([H])([H])C([H])([H])C(=O)N1C([H])([H])C([H])([H])C([H])([H])C([H])(n2nc(-c3c([H])c([H])c(Oc4c([H])c([H])c(F)c([H])c4F)c([H])c3[H])c(C(=O)N([H])[H])c2N([H])[H])C1([H])[H])C([H])([H])[H])=C([H])C([H])([H])Oc1c([H])c([H])c2c(c1[H])C([H])([H])N(C(=O)C([H])(N([H])C(=O)C([H])(N([H])C([H])([H])[H])C([H])([H])[H])C(C([H])([H])[H])(C([H])([H])[H])C([H])([H])[H])C([H])(C(=O)N([H])C1([H])c3c([H])c([H])c([H])c([H])c3C([H])([H])C([H])([H])C1([H])[H])C2([H])[H]

>  <smiles>  (7) 
[H]C(C(=NC([H])([H])C([H])([H])C([H])([H])[N+]([H])(C([H])([H])[H])C([H])([H])C([H])([H])C(=O)N1C([H])([H])C([H])([H])C([H])([H])C([H])(n2nc(-c3c([H])c([H])c(Oc4c([H])c([H])c(F)c([H])c4F)c([H])c3[H])c(C(=O)N([H])[H])c2N([H])[H])C1([H])[H])C([H])([H])[H])=C([H])C([H])([H])Oc1c([H])c([H])c2c(c1[H])C([H])([H])N(C(=O)C([H])(N([H])C(=O)C([H])(N([H])C([H])([H])[H])C([H])([H])[H])C(C([H])([H])[H])(C([H])([H])[H])C([H])([H])[H])C([H])(C(=O)N([H])C1([H])c3c([H])c([H])c([H])c([H])c3C([H])([H])C([H])([H])C1([H])[H])C2([H])[H]

$$$$
7:0:0
     RDKit          3D

 92100  0  0  1  0  0  0  0  0999 V2000
  -30.0640  -22.8860   21.5830 C   0  0  0  0  0  0  0  0  0  0  0  0
  -29.6880  -24.0160   20.9460 C   0  0  0  0  0  3  0  0  0  0  0  0
  -29.7940  -21.4630   21.1490 C   0  0  0  0  0  2  0  0  0  0  0  0
  -30.9170  -22.8110   22.8200 C   0  0  0  0  0  2  0  0  0  0  0  0
  -30.3710  -20.5930   22.2890 C   0  0  0  0  0  3  0  0  0  0  0  0
  -31.4080  -21.4430   22.8730 N   0  0  0  0  0  0  0  0  0  0  0  0
  -31.6200  -21.1670   23.8300 H   0  0  0  0  0  0  0  0  0  0  0  0
  -30.1370  -25.4310   21.3190 C   0  0  0  0  0  2  0  0  0  0  0  0
  -29.0270  -26.4970   21.3970 C   0  0  0  0  0  2  0  0  0  0  0  0
  -28.4060  -26.7050   20.1280 O   0  0  0  0  0  0  0  0  0  0  0  0
  -24.6190  -31.8880   23.2660 C   0  0  0  0  0  0  0  0  0  0  0  0
  -27.2670  -27.4790   20.1560 C   0  0  0  0  0  0  0  0  0  0  0  0
  -23.4080  -30.4900   21.6200 C   0  0  0  0  0  3  0  0  0  0  0  0
  -24.8620  -28.9640   20.1800 C   0  0  0  0  0  0  0  0  0  0  0  0
  -25.9280  -30.8620   21.4120 C   0  0  0  0  0  2  0  0  0  0  0  0
  -26.0160  -29.4940   20.7690 C   0  0  0  0  0  0  0  0  0  0  0  0
  -27.2210  -28.7570   20.7610 C   0  0  0  0  0  3  0  0  0  0  0  0
  -26.1020  -26.9660   19.5480 C   0  0  0  0  0  3  0  0  0  0  0  0
  -24.8980  -27.6960   19.5710 C   0  0  0  0  0  3  0  0  0  0  0  0
  -23.6130  -29.8150   20.2360 C   0  0  0  0  0  2  0  0  0  0  0  0
  -24.6700  -31.0940   22.1590 N   0  0  0  0  0  0  0  0  0  0  0  0
  -23.5420  -32.1540   23.8150 O   0  0  0  0  0  0  0  0  0  0  0  0
  -22.7620  -29.4660   22.5790 C   0  0  0  0  0  0  0  0  0  0  0  0
  -21.4390  -29.2770   22.4510 N   0  0  0  0  0  0  0  0  0  0  0  0
  -23.4490  -28.8410   23.3920 O   0  0  0  0  0  0  0  0  0  0  0  0
  -20.9480  -29.8360   21.7670 H   0  0  0  0  0  0  0  0  0  0  0  0
  -18.0720  -28.0640   22.9390 C   0  0  0  0  0  0  0  0  0  0  0  0
  -20.6260  -28.3350   23.2200 C   0  0  0  0  0  3  0  0  0  0  0  0
  -20.7370  -26.9040   22.6450 C   0  0  0  0  0  2  0  0  0  0  0  0
  -19.6410  -26.5750   21.6270 C   0  0  0  0  0  2  0  0  0  0  0  0
  -18.2560  -26.7140   22.2660 C   0  0  0  0  0  2  0  0  0  0  0  0
  -19.1850  -28.8310   23.3720 C   0  0  0  0  0  0  0  0  0  0  0  0
  -18.9590  -30.0940   23.9620 C   0  0  0  0  0  3  0  0  0  0  0  0
  -17.6520  -30.5900   24.1210 C   0  0  0  0  0  3  0  0  0  0  0  0
  -16.5520  -29.8200   23.7050 C   0  0  0  0  0  3  0  0  0  0  0  0
  -16.7630  -28.5590   23.1200 C   0  0  0  0  0  3  0  0  0  0  0  0
  -25.9100  -32.5130   23.8810 C   0  0  0  0  0  3  0  0  0  0  0  0
  -25.6030  -33.9090   24.2220 N   0  0  0  0  0  0  0  0  0  0  0  0
  -25.9300  -34.9640   23.4650 C   0  0  0  0  0  0  0  0  0  0  0  0
  -26.5920  -34.8660   22.4280 O   0  0  0  0  0  0  0  0  0  0  0  0
  -25.0120  -34.0600   25.0260 H   0  0  0  0  0  0  0  0  0  0  0  0
  -24.1970  -36.7530   23.1290 C   0  0  0  0  0  1  0  0  0  0  0  0
  -25.4430  -36.3500   23.9310 C   0  0  0  0  0  3  0  0  0  0  0  0
  -27.5840  -37.2330   24.7470 C   0  0  0  0  0  1  0  0  0  0  0  0
  -26.4750  -37.4040   23.8130 N   0  0  0  0  0  0  0  0  0  0  0  0
  -26.0700  -38.3240   23.9650 H   0  0  0  0  0  0  0  0  0  0  0  0
  -26.4380  -31.7340   25.1480 C   0  0  1  0  0  0  0  0  0  0  0  0
  -25.3530  -31.4900   26.2220 C   0  0  0  0  0  1  0  0  0  0  0  0
  -27.0190  -30.3610   24.7400 C   0  0  0  0  0  1  0  0  0  0  0  0
  -27.5930  -32.5250   25.8060 C   0  0  0  0  0  1  0  0  0  0  0  0
  -31.0430  -19.2520   21.8850 C   0  0  0  0  0  2  0  0  0  0  0  0
  -30.1240  -18.1210   21.6190 N   0  0  0  0  0  4  0  0  0  0  0  0
  -29.5420  -18.3670   20.8330 H   0  0  0  0  0  0  0  0  0  0  0  0
  -29.5290  -17.9900   22.4220 H   0  0  0  0  0  0  0  0  0  0  0  0
  -30.8600  -16.8630   21.3160 C   0  0  0  0  0  2  0  0  0  0  0  0
  -29.9720  -15.5950   21.1850 C   0  0  0  0  0  2  0  0  0  0  0  0
  -30.6220  -14.4500   20.3700 C   0  0  0  0  0  0  0  0  0  0  0  0
  -30.2920  -12.3500   19.1080 C   0  0  0  0  0  2  0  0  0  0  0  0
  -29.3180  -12.5980   17.9370 C   0  0  0  0  0  2  0  0  0  0  0  0
  -27.8540  -12.4490   18.3980 C   0  0  0  0  0  2  0  0  0  0  0  0
  -27.5520  -13.2470   19.6930 C   0  0  0  0  0  3  0  0  0  0  0  0
  -28.6290  -12.9750   20.7640 C   0  0  0  0  0  2  0  0  0  0  0  0
  -29.9410  -13.2880   20.1850 N   0  0  0  0  0  0  0  0  0  0  0  0
  -31.7120  -14.6540   19.8260 O   0  0  0  0  0  0  0  0  0  0  0  0
  -25.1640  -13.8480   20.4470 C   0  0  0  0  0  0  0  0  0  0  0  0
  -24.1070  -13.0730   20.8380 C   0  0  0  0  0  0  0  0  0  0  0  0
  -24.5720  -11.7210   20.7970 C   0  0  0  0  0  0  0  0  0  0  0  0
  -26.2090  -12.9700   20.1970 N   0  0  0  0  0  0  0  0  0  0  0  0
  -25.8570  -11.6860   20.4650 N   0  0  0  0  0  0  0  0  0  0  0  0
  -23.8550  -10.4570   21.0030 C   0  0  0  0  0  0  0  0  0  0  0  0
  -24.3170   -9.4850   21.9170 C   0  0  0  0  0  3  0  0  0  0  0  0
  -23.6010   -8.2830   22.1080 C   0  0  0  0  0  3  0  0  0  0  0  0
  -22.4080   -8.0460   21.3860 C   0  0  0  0  0  0  0  0  0  0  0  0
  -21.9660   -9.0060   20.4570 C   0  0  0  0  0  3  0  0  0  0  0  0
  -22.6820  -10.1980   20.2660 C   0  0  0  0  0  3  0  0  0  0  0  0
  -21.6610   -6.8970   21.4860 O   0  0  0  0  0  0  0  0  0  0  0  0
  -21.6540   -6.1420   22.6310 C   0  0  0  0  0  0  0  0  0  0  0  0
  -21.2750   -6.6830   23.8790 C   0  0  0  0  0  3  0  0  0  0  0  0
  -21.2160   -5.8550   25.0180 C   0  0  0  0  0  3  0  0  0  0  0  0
  -21.5250   -4.4860   24.9080 C   0  0  0  0  0  0  0  0  0  0  0  0
  -21.8950   -3.9430   23.6650 C   0  0  0  0  0  3  0  0  0  0  0  0
  -21.9580   -4.7700   22.5300 C   0  0  0  0  0  0  0  0  0  0  0  0
  -22.2960   -4.2380   21.3290 F   0  0  0  0  0  0  0  0  0  0  0  0
  -21.4600   -3.6870   25.9990 F   0  0  0  0  0  0  0  0  0  0  0  0
  -22.7110  -13.5430   21.1350 C   0  0  0  0  0  0  0  0  0  0  0  0
  -22.0030  -12.8470   22.0160 N   0  0  0  0  0  0  0  0  0  0  0  0
  -22.2580  -14.5650   20.6210 O   0  0  0  0  0  0  0  0  0  0  0  0
  -22.3790  -12.0230   22.4610 H   0  0  0  0  0  0  0  0  0  0  0  0
  -21.0670  -13.1460   22.2530 H   0  0  0  0  0  0  0  0  0  0  0  0
  -25.3200  -15.2200   20.2650 N   0  0  0  0  0  0  0  0  0  0  0  0
  -24.5450  -15.8660   20.3730 H   0  0  0  0  0  0  0  0  0  0  0  0
  -26.1550  -15.6620   19.9070 H   0  0  0  0  0  0  0  0  0  0  0  0
  1  4  1  0
  2  8  1  0
  2  1  2  0
  3  1  1  0
  3  5  1  0
  4  6  1  0
  5 51  1  0
  5  6  1  0
  6  7  1  0
  8  9  1  0
 10 12  1  0
 10  9  1  0
 11 22  2  0
 12 17  1  0
 13 21  1  0
 13 23  1  0
 14 20  1  0
 14 16  1  0
 15 21  1  0
 16 15  1  0
 17 16  2  0
 18 19  1  0
 18 12  2  0
 19 14  2  0
 20 13  1  0
 21 11  1  0
 23 25  2  0
 24 23  1  0
 26 24  1  0
 27 36  2  0
 27 32  1  0
 28 24  1  0
 28 32  1  0
 29 28  1  0
 30 31  1  0
 30 29  1  0
 31 27  1  0
 32 33  2  0
 33 34  1  0
 35 34  2  0
 36 35  1  0
 37 11  1  0
 37 38  1  0
 37 47  1  0
 38 41  1  0
 39 43  1  0
 39 38  1  0
 40 39  2  0
 43 42  1  0
 45 43  1  0
 45 46  1  0
 45 44  1  0
 47 50  1  1
 47 48  1  0
 49 47  1  0
 52 51  1  0
 52 54  1  0
 53 52  1  0
 55 52  1  0
 56 55  1  0
 57 56  1  0
 58 63  1  0
 59 60  1  0
 59 58  1  0
 61 60  1  0
 61 68  1  0
 61 62  1  0
 63 57  1  0
 63 62  1  0
 64 57  2  0
 65 66  2  0
 66 85  1  0
 67 66  1  0
 67 70  1  0
 68 65  1  0
 68 69  1  0
 69 67  2  0
 70 71  1  0
 71 72  2  0
 73 76  1  0
 73 72  1  0
 74 73  2  0
 75 74  1  0
 75 70  2  0
 76 77  1  0
 77 78  1  0
 78 79  2  0
 80 79  1  0
 80 84  1  0
 81 80  2  0
 82 77  2  0
 82 81  1  0
 83 82  1  0
 85 86  1  0
 86 89  1  0
 86 88  1  0
 87 85  2  0
 90 91  1  0
 90 65  1  0
 92 90  1  0
M  ISO  4   9 101  10 101  56 100  57 100
M  END
>  <TORSDO>  (8) 
F 22

>  <SCORE>  (8) 
-12.945

>  <name>  (8) 
7

>  <ligand_id>  (8) 
7

>  <original_smiles>  (8) 
[H]C(=C1C([H])([H])N([H])C([H])(C([H])([H])[N+]([H])([H])C([H])([H])C([H])([H])C(=O)N2C([H])([H])C([H])([H])C([H])([H])C([H])(n3nc(-c4c([H])c([H])c(Oc5c([H])c([H])c(F)c([H])c5F)c([H])c4[H])c(C(=O)N([H])[H])c3N([H])[H])C2([H])[H])C1([H])[H])C([H])([H])C([H])([H])Oc1c([H])c([H])c2c(c1[H])C([H])([H])N(C(=O)C([H])(N([H])C(=O)C([H])(N([H])C([H])([H])[H])C([H])([H])[H])C(C([H])([H])[H])(C([H])([H])[H])C([H])([H])[H])C([H])(C(=O)N([H])C1([H])c3c([H])c([H])c([H])c([H])c3C([H])([H])C([H])([H])C1([H])[H])C2([H])[H]

>  <smiles>  (8) 
[H]C(=C1C([H])([H])N([H])C([H])(C([H])([H])[N+]([H])([H])C([H])([H])C([H])([H])C(=O)N2C([H])([H])C([H])([H])C([H])([H])C([H])(n3nc(-c4c([H])c([H])c(Oc5c([H])c([H])c(F)c([H])c5F)c([H])c4[H])c(C(=O)N([H])[H])c3N([H])[H])C2([H])[H])C1([H])[H])C([H])([H])C([H])([H])Oc1c([H])c([H])c2c(c1[H])C([H])([H])N(C(=O)C([H])(N([H])C(=O)C([H])(N([H])C([H])([H])[H])C([H])([H])[H])C(C([H])([H])[H])(C([H])([H])[H])C([H])([H])[H])C([H])(C(=O)N([H])C1([H])c3c([H])c([H])c([H])c([H])c3C([H])([H])C([H])([H])C1([H])[H])C2([H])[H]

$$$$
8:0:0
     RDKit          3D

 86 94  0  0  1  0  0  0  0  0999 V2000
  -28.9790  -22.2910   20.0180 C   0  0  0  0  0  3  0  0  0  0  0  0
  -29.2160  -19.1400   17.6500 C   0  0  0  0  0  2  0  0  0  0  0  0
  -29.2200  -17.6390   18.1730 C   0  0  0  0  0  2  0  0  0  0  0  0
  -28.2980  -20.1940   18.4010 C   0  0  0  0  0  2  0  0  0  0  0  0
  -29.6150  -19.1650   20.2730 C   0  0  0  0  0  2  0  0  0  0  0  0
  -29.4260  -17.3870   19.7310 C   0  0  0  0  0  3  0  0  0  0  0  0
  -28.7280  -20.5590   19.7980 N   0  0  1  0  0  4  0  0  0  0  0  0
  -27.8820  -20.4500   20.3390 H   0  0  0  0  0  0  0  0  0  0  0  0
  -30.2810  -15.7380   19.9820 C   0  0  0  0  0  0  0  0  0  0  0  0
  -30.4380  -13.1770   19.3530 C   0  0  0  0  0  2  0  0  0  0  0  0
  -29.5440  -12.7960   18.1460 C   0  0  0  0  0  2  0  0  0  0  0  0
  -28.0980  -12.4760   18.5800 C   0  0  0  0  0  2  0  0  0  0  0  0
  -27.5870  -13.4480   19.6700 C   0  0  0  0  0  3  0  0  0  0  0  0
  -28.6320  -13.7700   20.7520 C   0  0  0  0  0  2  0  0  0  0  0  0
  -29.8060  -14.3640   20.0670 N   0  0  0  0  0  0  0  0  0  0  0  0
  -31.5190  -15.6800   19.8670 O   0  0  0  0  0  0  0  0  0  0  0  0
  -25.2180  -13.9400   20.4690 C   0  0  0  0  0  0  0  0  0  0  0  0
  -24.1650  -13.1430   20.8330 C   0  0  0  0  0  0  0  0  0  0  0  0
  -24.6500  -11.8000   20.7810 C   0  0  0  0  0  0  0  0  0  0  0  0
  -26.2730  -13.0860   20.2040 N   0  0  0  0  0  0  0  0  0  0  0  0
  -25.9440  -11.7890   20.4620 N   0  0  0  0  0  0  0  0  0  0  0  0
  -23.9330  -10.5280   20.9700 C   0  0  0  0  0  0  0  0  0  0  0  0
  -24.3680   -9.5700   21.9150 C   0  0  0  0  0  3  0  0  0  0  0  0
  -23.6500   -8.3680   22.0980 C   0  0  0  0  0  3  0  0  0  0  0  0
  -22.4860   -8.1090   21.3390 C   0  0  0  0  0  0  0  0  0  0  0  0
  -22.0690   -9.0560   20.3840 C   0  0  0  0  0  3  0  0  0  0  0  0
  -22.7850  -10.2510   20.1990 C   0  0  0  0  0  3  0  0  0  0  0  0
  -21.7480   -6.9520   21.4250 O   0  0  0  0  0  0  0  0  0  0  0  0
  -21.6840   -6.2210   22.5840 C   0  0  0  0  0  0  0  0  0  0  0  0
  -21.1940   -6.7790   23.7840 C   0  0  0  0  0  3  0  0  0  0  0  0
  -21.0790   -5.9770   24.9390 C   0  0  0  0  0  3  0  0  0  0  0  0
  -21.4410   -4.6180   24.8900 C   0  0  0  0  0  0  0  0  0  0  0  0
  -21.9210   -4.0590   23.6950 C   0  0  0  0  0  3  0  0  0  0  0  0
  -22.0410   -4.8590   22.5430 C   0  0  0  0  0  0  0  0  0  0  0  0
  -22.4850   -4.3090   21.3860 F   0  0  0  0  0  0  0  0  0  0  0  0
  -21.3230   -3.8450   25.9970 F   0  0  0  0  0  0  0  0  0  0  0  0
  -22.7670  -13.6030   21.1060 C   0  0  0  0  0  0  0  0  0  0  0  0
  -22.0470  -12.9000   21.9780 N   0  0  0  0  0  0  0  0  0  0  0  0
  -22.3110  -14.6160   20.5750 O   0  0  0  0  0  0  0  0  0  0  0  0
  -22.4330  -12.0910   22.4420 H   0  0  0  0  0  0  0  0  0  0  0  0
  -21.1010  -13.1850   22.1910 H   0  0  0  0  0  0  0  0  0  0  0  0
  -25.3420  -15.3130   20.3060 N   0  0  0  0  0  0  0  0  0  0  0  0
  -24.5480  -15.9270   20.4600 H   0  0  0  0  0  0  0  0  0  0  0  0
  -26.1520  -15.8030   19.9540 H   0  0  0  0  0  0  0  0  0  0  0  0
  -27.9290  -23.9090   20.0710 C   0  0  0  0  0  3  0  0  0  0  0  0
  -28.1150  -25.6480   20.2330 O   0  0  0  0  0  0  0  0  0  0  0  0
  -24.6210  -31.9030   23.2720 C   0  0  0  0  0  0  0  0  0  0  0  0
  -27.1290  -26.8450   20.2410 C   0  0  0  0  0  0  0  0  0  0  0  0
  -23.4280  -30.5130   21.6390 C   0  0  0  0  0  3  0  0  0  0  0  0
  -24.8720  -28.8730   20.2180 C   0  0  0  0  0  0  0  0  0  0  0  0
  -26.0100  -30.6560   21.5140 C   0  0  0  0  0  2  0  0  0  0  0  0
  -26.0740  -29.2280   20.8410 C   0  0  0  0  0  0  0  0  0  0  0  0
  -27.1970  -28.2460   20.8020 C   0  0  0  0  0  3  0  0  0  0  0  0
  -25.8750  -26.6810   19.6030 C   0  0  0  0  0  3  0  0  0  0  0  0
  -24.8100  -27.6320   19.5680 C   0  0  0  0  0  3  0  0  0  0  0  0
  -23.6680  -29.8220   20.2640 C   0  0  0  0  0  2  0  0  0  0  0  0
  -24.7110  -31.0590   22.1900 N   0  0  0  0  0  0  0  0  0  0  0  0
  -23.5310  -32.1970   23.7900 O   0  0  0  0  0  0  0  0  0  0  0  0
  -22.7140  -29.5300   22.6040 C   0  0  0  0  0  0  0  0  0  0  0  0
  -21.3860  -29.3550   22.4640 N   0  0  0  0  0  0  0  0  0  0  0  0
  -23.3700  -28.9200   23.4520 O   0  0  0  0  0  0  0  0  0  0  0  0
  -20.9100  -29.8860   21.7480 H   0  0  0  0  0  0  0  0  0  0  0  0
  -18.0060  -28.1110   22.9330 C   0  0  0  0  0  0  0  0  0  0  0  0
  -20.5590  -28.4220   23.2390 C   0  0  0  0  0  3  0  0  0  0  0  0
  -20.6940  -26.9820   22.6920 C   0  0  0  0  0  2  0  0  0  0  0  0
  -19.6150  -26.6290   21.6620 C   0  0  0  0  0  2  0  0  0  0  0  0
  -18.2180  -26.7580   22.2760 C   0  0  0  0  0  2  0  0  0  0  0  0
  -19.1040  -28.9010   23.3710 C   0  0  0  0  0  0  0  0  0  0  0  0
  -18.8470  -30.1660   23.9460 C   0  0  0  0  0  3  0  0  0  0  0  0
  -17.5290  -30.6410   24.0820 C   0  0  0  0  0  3  0  0  0  0  0  0
  -16.4460  -29.8500   23.6630 C   0  0  0  0  0  3  0  0  0  0  0  0
  -16.6880  -28.5870   23.0950 C   0  0  0  0  0  3  0  0  0  0  0  0
  -25.8880  -32.5520   23.9060 C   0  0  0  0  0  3  0  0  0  0  0  0
  -25.5750  -33.9580   24.2190 N   0  0  0  0  0  0  0  0  0  0  0  0
  -25.8920  -35.0100   23.4550 C   0  0  0  0  0  0  0  0  0  0  0  0
  -26.5410  -34.9030   22.4100 O   0  0  0  0  0  0  0  0  0  0  0  0
  -25.0140  -34.1110   25.0410 H   0  0  0  0  0  0  0  0  0  0  0  0
  -24.1500  -36.8030   23.1440 C   0  0  0  0  0  1  0  0  0  0  0  0
  -25.4170  -36.4040   23.9200 C   0  0  0  0  0  3  0  0  0  0  0  0
  -27.5660  -37.3090   24.6890 C   0  0  0  0  0  1  0  0  0  0  0  0
  -26.4390  -37.4630   23.7720 N   0  0  0  0  0  0  0  0  0  0  0  0
  -26.0310  -38.3790   23.9330 H   0  0  0  0  0  0  0  0  0  0  0  0
  -26.3740  -31.8110   25.2130 C   0  0  1  0  0  0  0  0  0  0  0  0
  -25.2620  -31.6100   26.2660 C   0  0  0  0  0  1  0  0  0  0  0  0
  -26.9540  -30.4180   24.8810 C   0  0  0  0  0  1  0  0  0  0  0  0
  -27.5140  -32.6110   25.8860 C   0  0  0  0  0  1  0  0  0  0  0  0
  1 45  2  0
  2  3  1  0
  2  4  1  0
  3  6  1  0
  4  7  1  0
  6  9  1  0
  6  5  1  0
  7  1  1  0
  7  5  1  0
  7  8  1  1
  9 15  1  0
 10 15  1  0
 11 12  1  0
 11 10  1  0
 13 12  1  0
 13 20  1  0
 13 14  1  0
 15 14  1  0
 16  9  2  0
 17 18  2  0
 18 37  1  0
 19 18  1  0
 19 22  1  0
 20 21  1  0
 20 17  1  0
 21 19  2  0
 22 23  1  0
 23 24  2  0
 25 28  1  0
 25 24  1  0
 26 25  2  0
 27 26  1  0
 27 22  2  0
 28 29  1  0
 29 30  1  0
 30 31  2  0
 32 31  1  0
 32 36  1  0
 33 32  2  0
 34 29  2  0
 34 33  1  0
 35 34  1  0
 37 38  1  0
 38 41  1  0
 38 40  1  0
 39 37  2  0
 42 43  1  0
 42 17  1  0
 44 42  1  0
 45 46  1  0
 46 48  1  0
 47 58  2  0
 48 53  1  0
 49 57  1  0
 49 59  1  0
 50 56  1  0
 50 52  1  0
 51 57  1  0
 52 51  1  0
 53 52  2  0
 54 48  2  0
 55 54  1  0
 55 50  2  0
 56 49  1  0
 57 47  1  0
 59 61  2  0
 60 59  1  0
 62 60  1  0
 63 72  2  0
 63 68  1  0
 64 60  1  0
 64 68  1  0
 65 64  1  0
 66 67  1  0
 66 65  1  0
 67 63  1  0
 68 69  2  0
 69 70  1  0
 71 70  2  0
 72 71  1  0
 73 47  1  0
 73 74  1  0
 73 83  1  0
 74 77  1  0
 75 79  1  0
 75 74  1  0
 76 75  2  0
 79 78  1  0
 81 79  1  0
 81 82  1  0
 81 80  1  0
 83 86  1  1
 83 84  1  0
 85 83  1  0
M  ISO  4   6 100   9 100  45 101  46 101
M  END
>  <TORSDO>  (9) 
F 18

>  <SCORE>  (9) 
-16.390

>  <name>  (9) 
8

>  <ligand_id>  (9) 
8

>  <original_smiles>  (9) 
[H]c1c([H])c([H])c2c(c1[H])C([H])([H])C([H])([H])C([H])([H])C2([H])N([H])C(=O)C1([H])N(C(=O)C([H])(N([H])C(=O)C([H])(N([H])C([H])([H])[H])C([H])([H])[H])C(C([H])([H])[H])(C([H])([H])[H])C([H])([H])[H])C([H])([H])c2c([H])c(OC([H])([H])C([H])([H])[N+]3([H])C([H])([H])C([H])([H])C([H])([H])C([H])(C(=O)N4C([H])([H])C([H])([H])C([H])([H])C([H])(n5nc(-c6c([H])c([H])c(Oc7c([H])c([H])c(F)c([H])c7F)c([H])c6[H])c(C(=O)N([H])[H])c5N([H])[H])C4([H])[H])C3([H])[H])c([H])c([H])c2C1([H])[H]

>  <smiles>  (9) 
[H]c1c([H])c([H])c2c(c1[H])C([H])([H])C([H])([H])C([H])([H])C2([H])N([H])C(=O)C1([H])N(C(=O)C([H])(N([H])C(=O)C([H])(N([H])C([H])([H])[H])C([H])([H])[H])C(C([H])([H])[H])(C([H])([H])[H])C([H])([H])[H])C([H])([H])c2c([H])c(OC([H])([H])C([H])([H])[N+]3([H])C([H])([H])C([H])([H])C([H])([H])C([H])(C(=O)N4C([H])([H])C([H])([H])C([H])([H])C([H])(n5nc(-c6c([H])c([H])c(Oc7c([H])c([H])c(F)c([H])c7F)c([H])c6[H])c(C(=O)N([H])[H])c5N([H])[H])C4([H])[H])C3([H])[H])c([H])c([H])c2C1([H])[H]

$$$$
9:0:0
     RDKit          3D

 97104  0  0  1  0  0  0  0  0999 V2000
  -28.3260  -22.0310   18.8480 C   0  0  0  0  0  0  0  0  0  0  0  0
  -27.5950  -22.1300   17.7260 N   0  0  0  0  0  4  0  0  0  0  0  0
  -28.5590  -23.0880   19.6480 N   0  0  0  0  0  0  0  0  0  0  0  0
  -27.3690  -21.3120   17.1780 H   0  0  0  0  0  0  0  0  0  0  0  0
  -27.1650  -22.9900   17.4290 H   0  0  0  0  0  0  0  0  0  0  0  0
  -29.1200  -22.9590   20.4790 H   0  0  0  0  0  0  0  0  0  0  0  0
  -28.9160  -20.7080   19.1970 C   0  0  0  0  0  2  0  0  0  0  0  0
  -30.1710  -20.5240   18.4400 N   0  0  0  0  0  4  0  0  0  0  0  0
  -30.9020  -21.0570   18.8850 H   0  0  0  0  0  0  0  0  0  0  0  0
  -30.0260  -20.8940   17.5150 H   0  0  0  0  0  0  0  0  0  0  0  0
  -31.7690  -18.9750   17.3140 C   0  0  0  0  0  1  0  0  0  0  0  0
  -30.6300  -19.1220   18.3400 C   0  0  0  0  0  3  0  0  0  0  0  0
  -31.0900  -18.6210   19.7160 C   0  0  0  0  0  0  0  0  0  0  0  0
  -30.6310  -17.4290   20.1010 N   0  0  0  0  0  0  0  0  0  0  0  0
  -31.8220  -19.3180   20.4210 O   0  0  0  0  0  0  0  0  0  0  0  0
  -30.0420  -16.9320   19.4480 H   0  0  0  0  0  0  0  0  0  0  0  0
  -30.9520  -16.7660   21.3650 C   0  0  0  0  0  2  0  0  0  0  0  0
  -30.2710  -15.3850   21.4650 C   0  0  0  0  0  2  0  0  0  0  0  0
  -30.7800  -14.3500   20.4440 C   0  0  0  0  0  0  0  0  0  0  0  0
  -30.3700  -12.3080   19.1170 C   0  0  0  0  0  2  0  0  0  0  0  0
  -29.4010  -12.5910   17.9530 C   0  0  0  0  0  2  0  0  0  0  0  0
  -27.9370  -12.4810   18.4180 C   0  0  0  0  0  2  0  0  0  0  0  0
  -27.6580  -13.2700   19.7240 C   0  0  0  0  0  3  0  0  0  0  0  0
  -28.7280  -12.9440   20.7920 C   0  0  0  0  0  2  0  0  0  0  0  0
  -30.0490  -13.2310   20.2140 N   0  0  0  0  0  0  0  0  0  0  0  0
  -31.8250  -14.5890   19.8290 O   0  0  0  0  0  0  0  0  0  0  0  0
  -25.2700  -13.9140   20.4430 C   0  0  0  0  0  0  0  0  0  0  0  0
  -24.1940  -13.1550   20.8230 C   0  0  0  0  0  0  0  0  0  0  0  0
  -24.6390  -11.7970   20.7930 C   0  0  0  0  0  0  0  0  0  0  0  0
  -26.3040  -13.0180   20.2130 N   0  0  0  0  0  0  0  0  0  0  0  0
  -25.9260  -11.7410   20.4760 N   0  0  0  0  0  0  0  0  0  0  0  0
  -23.8990  -10.5440   20.9930 C   0  0  0  0  0  0  0  0  0  0  0  0
  -24.3410   -9.5650   21.9100 C   0  0  0  0  0  3  0  0  0  0  0  0
  -23.6030   -8.3770   22.0980 C   0  0  0  0  0  3  0  0  0  0  0  0
  -22.4110   -8.1590   21.3690 C   0  0  0  0  0  0  0  0  0  0  0  0
  -21.9880   -9.1250   20.4390 C   0  0  0  0  0  3  0  0  0  0  0  0
  -22.7260  -10.3060   20.2490 C   0  0  0  0  0  3  0  0  0  0  0  0
  -21.6440   -7.0240   21.4680 O   0  0  0  0  0  0  0  0  0  0  0  0
  -21.6210   -6.2670   22.6120 C   0  0  0  0  0  0  0  0  0  0  0  0
  -21.2580   -6.8160   23.8620 C   0  0  0  0  0  3  0  0  0  0  0  0
  -21.1820   -5.9890   24.9990 C   0  0  0  0  0  3  0  0  0  0  0  0
  -21.4600   -4.6130   24.8890 C   0  0  0  0  0  0  0  0  0  0  0  0
  -21.8170   -4.0630   23.6450 C   0  0  0  0  0  3  0  0  0  0  0  0
  -21.8950   -4.8880   22.5100 C   0  0  0  0  0  0  0  0  0  0  0  0
  -22.2190   -4.3500   21.3090 F   0  0  0  0  0  0  0  0  0  0  0  0
  -21.3780   -3.8150   25.9800 F   0  0  0  0  0  0  0  0  0  0  0  0
  -22.8050  -13.6500   21.1080 C   0  0  0  0  0  0  0  0  0  0  0  0
  -22.0820  -12.9620   21.9870 N   0  0  0  0  0  0  0  0  0  0  0  0
  -22.3740  -14.6790   20.5910 O   0  0  0  0  0  0  0  0  0  0  0  0
  -22.4470  -12.1290   22.4250 H   0  0  0  0  0  0  0  0  0  0  0  0
  -21.1510  -13.2730   22.2260 H   0  0  0  0  0  0  0  0  0  0  0  0
  -25.4520  -15.2800   20.2600 N   0  0  0  0  0  0  0  0  0  0  0  0
  -24.6950  -15.9470   20.3730 H   0  0  0  0  0  0  0  0  0  0  0  0
  -26.3120  -15.7030   19.9360 H   0  0  0  0  0  0  0  0  0  0  0  0
  -27.9950  -24.4230   19.4460 C   0  0  0  0  0  2  0  0  0  0  0  0
  -28.3420  -25.4020   20.5800 C   0  0  0  0  0  2  0  0  0  0  0  0
  -28.3890  -26.7580   20.1370 O   0  0  0  0  0  0  0  0  0  0  0  0
  -24.5870  -31.8900   23.2410 C   0  0  0  0  0  0  0  0  0  0  0  0
  -27.2030  -27.4530   20.1550 C   0  0  0  0  0  0  0  0  0  0  0  0
  -23.3670  -30.4840   21.6140 C   0  0  0  0  0  3  0  0  0  0  0  0
  -24.8080  -28.9470   20.1840 C   0  0  0  0  0  0  0  0  0  0  0  0
  -25.8900  -30.8430   21.3980 C   0  0  0  0  0  2  0  0  0  0  0  0
  -25.9690  -29.4720   20.7650 C   0  0  0  0  0  0  0  0  0  0  0  0
  -27.1690  -28.7310   20.7510 C   0  0  0  0  0  3  0  0  0  0  0  0
  -26.0260  -26.9470   19.5590 C   0  0  0  0  0  3  0  0  0  0  0  0
  -24.8300  -27.6820   19.5810 C   0  0  0  0  0  3  0  0  0  0  0  0
  -23.5640  -29.8040   20.2340 C   0  0  0  0  0  2  0  0  0  0  0  0
  -24.6340  -31.0860   22.1420 N   0  0  0  0  0  0  0  0  0  0  0  0
  -23.5100  -32.1670   23.7860 O   0  0  0  0  0  0  0  0  0  0  0  0
  -22.7250  -29.4630   22.5790 C   0  0  0  0  0  0  0  0  0  0  0  0
  -21.4010  -29.2750   22.4520 N   0  0  0  0  0  0  0  0  0  0  0  0
  -23.4120  -28.8440   23.3960 O   0  0  0  0  0  0  0  0  0  0  0  0
  -20.9120  -29.8250   21.7600 H   0  0  0  0  0  0  0  0  0  0  0  0
  -18.0320  -28.0680   22.9380 C   0  0  0  0  0  0  0  0  0  0  0  0
  -20.5850  -28.3420   23.2260 C   0  0  0  0  0  3  0  0  0  0  0  0
  -20.7010  -26.9060   22.6660 C   0  0  0  0  0  2  0  0  0  0  0  0
  -19.6080  -26.5660   21.6480 C   0  0  0  0  0  2  0  0  0  0  0  0
  -18.2210  -26.7110   22.2810 C   0  0  0  0  0  2  0  0  0  0  0  0
  -19.1430  -28.8410   23.3680 C   0  0  0  0  0  0  0  0  0  0  0  0
  -18.9140  -30.1100   23.9410 C   0  0  0  0  0  3  0  0  0  0  0  0
  -17.6060  -30.6090   24.0900 C   0  0  0  0  0  3  0  0  0  0  0  0
  -16.5080  -29.8330   23.6800 C   0  0  0  0  0  3  0  0  0  0  0  0
  -16.7210  -28.5650   23.1110 C   0  0  0  0  0  3  0  0  0  0  0  0
  -25.8800  -32.5170   23.8500 C   0  0  0  0  0  3  0  0  0  0  0  0
  -25.5800  -33.9190   24.1700 N   0  0  0  0  0  0  0  0  0  0  0  0
  -25.9150  -34.9610   23.3990 C   0  0  0  0  0  0  0  0  0  0  0  0
  -26.5820  -34.8450   22.3670 O   0  0  0  0  0  0  0  0  0  0  0  0
  -24.9870  -34.0840   24.9700 H   0  0  0  0  0  0  0  0  0  0  0  0
  -24.1920  -36.7550   23.0330 C   0  0  0  0  0  1  0  0  0  0  0  0
  -25.4330  -36.3540   23.8450 C   0  0  0  0  0  3  0  0  0  0  0  0
  -27.5770  -37.2350   24.6590 C   0  0  0  0  0  1  0  0  0  0  0  0
  -26.4700  -37.4010   23.7190 N   0  0  0  0  0  0  0  0  0  0  0  0
  -26.0690  -38.3240   23.8610 H   0  0  0  0  0  0  0  0  0  0  0  0
  -26.4050  -31.7490   25.1240 C   0  0  1  0  0  0  0  0  0  0  0  0
  -25.3180  -31.5180   26.2000 C   0  0  0  0  0  1  0  0  0  0  0  0
  -26.9800  -30.3680   24.7310 C   0  0  0  0  0  1  0  0  0  0  0  0
  -27.5660  -32.5400   25.7710 C   0  0  0  0  0  1  0  0  0  0  0  0
  1  7  1  0
  1  3  1  0
  2  1  2  0
  3  6  1  0
  4  2  1  0
  5  2  1  0
  8  9  1  0
  8  7  1  0
 10  8  1  0
 12 11  1  0
 12  8  1  0
 12 13  1  0
 13 14  1  0
 13 15  2  0
 14 17  1  0
 16 14  1  0
 17 18  1  0
 19 18  1  0
 20 25  1  0
 21 22  1  0
 21 20  1  0
 23 22  1  0
 23 30  1  0
 23 24  1  0
 25 19  1  0
 25 24  1  0
 26 19  2  0
 27 28  2  0
 28 47  1  0
 29 28  1  0
 29 32  1  0
 30 27  1  0
 30 31  1  0
 31 29  2  0
 32 33  1  0
 33 34  2  0
 35 38  1  0
 35 34  1  0
 36 35  2  0
 37 36  1  0
 37 32  2  0
 38 39  1  0
 39 40  1  0
 40 41  2  0
 42 41  1  0
 42 46  1  0
 43 42  2  0
 44 39  2  0
 44 43  1  0
 45 44  1  0
 47 48  1  0
 48 51  1  0
 48 50  1  0
 49 47  2  0
 52 53  1  0
 52 27  1  0
 54 52  1  0
 55  3  1  0
 55 56  1  0
 57 59  1  0
 57 56  1  0
 58 69  2  0
 59 64  1  0
 60 68  1  0
 60 70  1  0
 61 67  1  0
 61 63  1  0
 62 68  1  0
 63 62  1  0
 64 63  2  0
 65 66  1  0
 65 59  2  0
 66 61  2  0
 67 60  1  0
 68 58  1  0
 70 72  2  0
 71 70  1  0
 73 71  1  0
 74 83  2  0
 74 79  1  0
 75 71  1  0
 75 79  1  0
 76 75  1  0
 77 78  1  0
 77 76  1  0
 78 74  1  0
 79 80  2  0
 80 81  1  0
 82 81  2  0
 83 82  1  0
 84 58  1  0
 84 85  1  0
 84 94  1  0
 85 88  1  0
 86 90  1  0
 86 85  1  0
 87 86  2  0
 90 89  1  0
 92 90  1  0
 92 93  1  0
 92 91  1  0
 94 97  1  1
 94 95  1  0
 96 94  1  0
M  ISO  4  18 100  19 100  56 101  57 101
M  END
>  <TORSDO>  (10) 
F 24

>  <SCORE>  (10) 
-12.444

>  <name>  (10) 
9

>  <ligand_id>  (10) 
9

>  <original_smiles>  (10) 
[H]c1c([H])c([H])c2c(c1[H])C([H])([H])C([H])([H])C([H])([H])C2([H])N([H])C(=O)C1([H])N(C(=O)C([H])(N([H])C(=O)C([H])(N([H])C([H])([H])[H])C([H])([H])[H])C(C([H])([H])[H])(C([H])([H])[H])C([H])([H])[H])C([H])([H])c2c([H])c(OC([H])([H])C([H])([H])[N+]([H])=C(N([H])[H])C([H])([H])[N+]([H])([H])C([H])(C(=O)N([H])C([H])([H])C([H])([H])C(=O)N3C([H])([H])C([H])([H])C([H])([H])C([H])(n4nc(-c5c([H])c([H])c(Oc6c([H])c([H])c(F)c([H])c6F)c([H])c5[H])c(C(=O)N([H])[H])c4N([H])[H])C3([H])[H])C([H])([H])[H])c([H])c([H])c2C1([H])[H]

>  <smiles>  (10) 
[H]c1c([H])c([H])c2c(c1[H])C([H])([H])C([H])([H])C([H])([H])C2([H])N([H])C(=O)C1([H])N(C(=O)C([H])(N([H])C(=O)C([H])(N([H])C([H])([H])[H])C([H])([H])[H])C(C([H])([H])[H])(C([H])([H])[H])C([H])([H])[H])C([H])([H])c2c([H])c(OC([H])([H])C([H])([H])[N+]([H])=C(N([H])[H])C([H])([H])[N+]([H])([H])C([H])(C(=O)N([H])C([H])([H])C([H])([H])C(=O)N3C([H])([H])C([H])([H])C([H])([H])C([H])(n4nc(-c5c([H])c([H])c(Oc6c([H])c([H])c(F)c([H])c6F)c([H])c5[H])c(C(=O)N([H])[H])c4N([H])[H])C3([H])[H])C([H])([H])[H])c([H])c([H])c2C1([H])[H]

$$$$
10:0:0
     RDKit          3D

 80 84  0  0  1  0  0  0  0  0999 V2000
  -24.7480  -31.7400   23.0800 C   0  0  0  0  0  0  0  0  0  0  0  0
  -27.2100  -26.0510   20.1390 C   0  0  0  0  0  0  0  0  0  0  0  0
  -23.5690  -30.3190   21.4690 C   0  0  0  0  0  3  0  0  0  0  0  0
  -25.0040  -28.5230   20.0910 C   0  0  0  0  0  0  0  0  0  0  0  0
  -26.1690  -30.2560   21.4010 C   0  0  0  0  0  2  0  0  0  0  0  0
  -26.2180  -28.7450   20.7470 C   0  0  0  0  0  0  0  0  0  0  0  0
  -27.2650  -27.5660   20.7200 C   0  0  0  0  0  3  0  0  0  0  0  0
  -25.9540  -26.2210   19.4220 C   0  0  0  0  0  3  0  0  0  0  0  0
  -24.9530  -27.2900   19.4000 C   0  0  0  0  0  3  0  0  0  0  0  0
  -23.8280  -29.5580   20.1230 C   0  0  0  0  0  2  0  0  0  0  0  0
  -24.8630  -30.8220   22.0350 N   0  0  0  0  0  0  0  0  0  0  0  0
  -23.6460  -32.0720   23.5630 O   0  0  0  0  0  0  0  0  0  0  0  0
  -22.7940  -29.4120   22.4690 C   0  0  0  0  0  0  0  0  0  0  0  0
  -21.4510  -29.3090   22.3680 N   0  0  0  0  0  0  0  0  0  0  0  0
  -23.4280  -28.7880   23.3230 O   0  0  0  0  0  0  0  0  0  0  0  0
  -20.9800  -29.8600   21.6650 H   0  0  0  0  0  0  0  0  0  0  0  0
  -18.0460  -28.1260   22.9500 C   0  0  0  0  0  0  0  0  0  0  0  0
  -20.6160  -28.3860   23.1560 C   0  0  0  0  0  3  0  0  0  0  0  0
  -20.6930  -26.9490   22.5850 C   0  0  0  0  0  2  0  0  0  0  0  0
  -19.5730  -26.6360   21.5880 C   0  0  0  0  0  2  0  0  0  0  0  0
  -18.2040  -26.7830   22.2560 C   0  0  0  0  0  2  0  0  0  0  0  0
  -19.1760  -28.8870   23.3550 C   0  0  0  0  0  0  0  0  0  0  0  0
  -18.9680  -30.1380   23.9760 C   0  0  0  0  0  3  0  0  0  0  0  0
  -17.6650  -30.6310   24.1850 C   0  0  0  0  0  3  0  0  0  0  0  0
  -16.5530  -29.8700   23.7880 C   0  0  0  0  0  3  0  0  0  0  0  0
  -16.7440  -28.6190   23.1770 C   0  0  0  0  0  3  0  0  0  0  0  0
  -25.9840  -32.4300   23.7380 C   0  0  0  0  0  3  0  0  0  0  0  0
  -25.6400  -33.8350   24.0750 N   0  0  0  0  0  0  0  0  0  0  0  0
  -25.9710  -34.9220   23.3610 C   0  0  0  0  0  0  0  0  0  0  0  0
  -26.6370  -34.8480   22.3270 O   0  0  0  0  0  0  0  0  0  0  0  0
  -25.0400  -33.9640   24.8780 H   0  0  0  0  0  0  0  0  0  0  0  0
  -24.2330  -36.7370   23.1040 C   0  0  0  0  0  1  0  0  0  0  0  0
  -25.4980  -36.3070   23.8640 C   0  0  0  0  0  3  0  0  0  0  0  0
  -27.6540  -37.1970   24.6470 C   0  0  0  0  0  1  0  0  0  0  0  0
  -26.5240  -37.3690   23.7390 N   0  0  0  0  0  0  0  0  0  0  0  0
  -26.1160  -38.2840   23.9110 H   0  0  0  0  0  0  0  0  0  0  0  0
  -26.4690  -31.6980   25.0520 C   0  0  1  0  0  0  0  0  0  0  0  0
  -25.3550  -31.4970   26.1070 C   0  0  0  0  0  1  0  0  0  0  0  0
  -27.0520  -30.3050   24.7340 C   0  0  0  0  0  1  0  0  0  0  0  0
  -27.6130  -32.5040   25.7120 C   0  0  0  0  0  1  0  0  0  0  0  0
  -28.1080  -24.5210   20.1470 O   0  0  0  0  0  1  0  0  0  0  0  0
  -28.0860  -22.3840   20.0340 C   0  0  0  0  0 15  0  0  0  0  0  0
  -29.0280  -18.5880   20.0510 C   0  0  0  0  0  1  0  0  0  0  0  0
  -29.0520  -20.3530   20.0390 C   0  0  0  0  0  1  0  0  0  0  0  0
  -29.8590  -16.7530   20.0000 C   0  0  0  0  0  2  0  0  0  0  0  0
  -30.2630  -13.9400   19.2970 C   0  0  0  0  0  2  0  0  0  0  0  0
  -29.5080  -13.0700   18.2010 C   0  0  0  0  0  2  0  0  0  0  0  0
  -28.1940  -12.4790   18.7170 C   0  0  0  0  0  2  0  0  0  0  0  0
  -27.5340  -13.5200   19.6300 C   0  0  0  0  0  3  0  0  0  0  0  0
  -28.4780  -14.2630   20.6500 C   0  0  0  0  0  2  0  0  0  0  0  0
  -29.4770  -15.1930   19.9450 N   0  0  0  0  0  0  0  0  0  0  0  0
  -31.1040  -16.5070   19.8820 O   0  0  0  0  0  1  0  0  0  0  0  0
  -25.1900  -13.9110   20.4580 C   0  0  0  0  0  0  0  0  0  0  0  0
  -24.1590  -13.1030   20.8340 C   0  0  0  0  0  0  0  0  0  0  0  0
  -24.6610  -11.7640   20.7800 C   0  0  0  0  0  0  0  0  0  0  0  0
  -26.2580  -13.0820   20.1950 N   0  0  0  0  0  0  0  0  0  0  0  0
  -25.9540  -11.7720   20.4400 N   0  0  0  0  0  0  0  0  0  0  0  0
  -23.9490  -10.4870   20.9760 C   0  0  0  0  0  0  0  0  0  0  0  0
  -24.3880   -9.5240   21.9110 C   0  0  0  0  0  3  0  0  0  0  0  0
  -23.6650   -8.3260   22.1030 C   0  0  0  0  0  3  0  0  0  0  0  0
  -22.4850   -8.0780   21.3600 C   0  0  0  0  0  0  0  0  0  0  0  0
  -22.0610   -9.0300   20.4170 C   0  0  0  0  0  3  0  0  0  0  0  0
  -22.7850  -10.2200   20.2240 C   0  0  0  0  0  3  0  0  0  0  0  0
  -21.7350   -6.9300   21.4600 O   0  0  0  0  0  0  0  0  0  0  0  0
  -21.6930   -6.1920   22.6160 C   0  0  0  0  0  0  0  0  0  0  0  0
  -21.2860   -6.7560   23.8460 C   0  0  0  0  0  3  0  0  0  0  0  0
  -21.1910   -5.9460   24.9950 C   0  0  0  0  0  3  0  0  0  0  0  0
  -21.4920   -4.5740   24.9170 C   0  0  0  0  0  0  0  0  0  0  0  0
  -21.8920   -4.0090   23.6930 C   0  0  0  0  0  3  0  0  0  0  0  0
  -21.9880   -4.8150   22.5450 C   0  0  0  0  0  0  0  0  0  0  0  0
  -22.3530   -4.2610   21.3640 F   0  0  0  0  0  0  0  0  0  0  0  0
  -21.3940   -3.7940   26.0190 F   0  0  0  0  0  0  0  0  0  0  0  0
  -22.7580  -13.5540   21.1210 C   0  0  0  0  0  0  0  0  0  0  0  0
  -22.0570  -12.8530   22.0020 N   0  0  0  0  0  0  0  0  0  0  0  0
  -22.2990  -14.5710   20.6020 O   0  0  0  0  0  0  0  0  0  0  0  0
  -22.4430  -12.0330   22.4450 H   0  0  0  0  0  0  0  0  0  0  0  0
  -21.1170  -13.1400   22.2390 H   0  0  0  0  0  0  0  0  0  0  0  0
  -25.3070  -15.2870   20.2780 N   0  0  0  0  0  0  0  0  0  0  0  0
  -24.5180  -15.9150   20.3990 H   0  0  0  0  0  0  0  0  0  0  0  0
  -26.1360  -15.7520   19.9320 H   0  0  0  0  0  0  0  0  0  0  0  0
  1 12  2  0
  2 41  1  0
  2  7  1  0
  3 11  1  0
  3 13  1  0
  4 10  1  0
  4  6  1  0
  5 11  1  0
  6  5  1  0
  7  6  2  0
  8  2  2  0
  9  8  1  0
  9  4  2  0
 10  3  1  0
 11  1  1  0
 13 15  2  0
 14 13  1  0
 16 14  1  0
 17 26  2  0
 17 22  1  0
 18 14  1  0
 18 22  1  0
 19 18  1  0
 20 21  1  0
 20 19  1  0
 21 17  1  0
 22 23  2  0
 23 24  1  0
 25 24  2  0
 26 25  1  0
 27  1  1  0
 27 28  1  0
 27 37  1  0
 28 31  1  0
 29 33  1  0
 29 28  1  0
 30 29  2  0
 33 32  1  0
 35 33  1  0
 35 36  1  0
 35 34  1  0
 37 40  1  1
 37 38  1  0
 39 37  1  0
 44 43  1  0
 46 51  1  0
 47 48  1  0
 47 46  1  0
 49 48  1  0
 49 56  1  0
 49 50  1  0
 51 45  1  0
 51 50  1  0
 52 45  1  0
 53 54  2  0
 54 73  1  0
 55 54  1  0
 55 58  1  0
 56 57  1  0
 56 53  1  0
 57 55  2  0
 58 59  1  0
 59 60  2  0
 61 64  1  0
 61 60  1  0
 62 61  2  0
 63 62  1  0
 63 58  2  0
 64 65  1  0
 65 66  1  0
 66 67  2  0
 68 67  1  0
 68 72  1  0
 69 68  2  0
 70 65  2  0
 70 69  1  0
 71 70  1  0
 73 74  1  0
 74 77  1  0
 74 76  1  0
 75 73  2  0
 78 79  1  0
 78 53  1  0
 80 78  1  0
M  ISO  4  41 101  42 101  43 100  45 100
M  END
>  <TORSDO>  (11) 
F 17

>  <SCORE>  (11) 
-16.039

>  <name>  (11) 
10

>  <ligand_id>  (11) 
10

>  <original_smiles>  (11) 
[H]C(C(=O)N1C([H])([H])C([H])([H])C([H])([H])C([H])(n2nc(-c3c([H])c([H])c(Oc4c([H])c([H])c(F)c([H])c4F)c([H])c3[H])c(C(=O)N([H])[H])c2N([H])[H])C1([H])[H])=C([H])C([H])([H])Oc1c([H])c([H])c2c(c1[H])C([H])([H])N(C(=O)C([H])(N([H])C(=O)C([H])(N([H])C([H])([H])[H])C([H])([H])[H])C(C([H])([H])[H])(C([H])([H])[H])C([H])([H])[H])C([H])(C(=O)N([H])C1([H])c3c([H])c([H])c([H])c([H])c3C([H])([H])C([H])([H])C1([H])[H])C2([H])[H]

>  <smiles>  (11) 
[H]C(C(=O)N1C([H])([H])C([H])([H])C([H])([H])C([H])(n2nc(-c3c([H])c([H])c(Oc4c([H])c([H])c(F)c([H])c4F)c([H])c3[H])c(C(=O)N([H])[H])c2N([H])[H])C1([H])[H])=C([H])C([H])([H])Oc1c([H])c([H])c2c(c1[H])C([H])([H])N(C(=O)C([H])(N([H])C(=O)C([H])(N([H])C([H])([H])[H])C([H])([H])[H])C(C([H])([H])[H])(C([H])([H])[H])C([H])([H])[H])C([H])(C(=O)N([H])C1([H])c3c([H])c([H])c([H])c([H])c3C([H])([H])C([H])([H])C1([H])[H])C2([H])[H]

$$$$
11:0:0
     RDKit          3D

 91 99  0  0  1  0  0  0  0  0999 V2000
  -29.4690  -22.8210   19.9800 C   0  0  0  0  0  0  0  0  0  0  0  0
  -29.6260  -21.7220   20.7660 N   0  0  0  0  0  0  0  0  0  0  0  0
  -29.5890  -22.7480   18.7560 O   0  0  0  0  0  0  0  0  0  0  0  0
  -29.4700  -21.8600   21.7570 H   0  0  0  0  0  0  0  0  0  0  0  0
  -30.5160  -16.8560   21.5780 C   0  0  0  0  0  0  0  0  0  0  0  0
  -31.6370  -20.3200   21.1640 C   0  0  0  0  0  2  0  0  0  0  0  0
  -31.4780  -19.0820   22.0470 C   0  0  0  0  0  2  0  0  0  0  0  0
  -29.5950  -19.0930   20.6090 C   0  0  0  0  0  2  0  0  0  0  0  0
  -30.3280  -20.4610   20.3810 C   0  0  0  0  0  3  0  0  0  0  0  0
  -30.5050  -18.2150   21.3820 N   0  0  0  0  0  0  0  0  0  0  0  0
  -31.2270  -16.3760   22.4690 O   0  0  0  0  0  0  0  0  0  0  0  0
  -29.6460  -15.8770   20.7340 C   0  0  0  0  0  2  0  0  0  0  0  0
  -30.4570  -14.5970   20.2980 C   0  0  0  0  0  0  0  0  0  0  0  0
  -30.2290  -12.3900   19.1930 C   0  0  0  0  0  2  0  0  0  0  0  0
  -29.2540  -12.5500   18.0050 C   0  0  0  0  0  2  0  0  0  0  0  0
  -27.7900  -12.3800   18.4630 C   0  0  0  0  0  2  0  0  0  0  0  0
  -27.4600  -13.2100   19.7330 C   0  0  0  0  0  3  0  0  0  0  0  0
  -28.5490  -13.0180   20.8130 C   0  0  0  0  0  2  0  0  0  0  0  0
  -29.8450  -13.3760   20.2220 N   0  0  0  0  0  0  0  0  0  0  0  0
  -31.5890  -14.7520   19.8280 O   0  0  0  0  0  0  0  0  0  0  0  0
  -25.0720  -13.7640   20.5150 C   0  0  0  0  0  0  0  0  0  0  0  0
  -24.0290  -12.9690   20.9050 C   0  0  0  0  0  0  0  0  0  0  0  0
  -24.5140  -11.6270   20.8520 C   0  0  0  0  0  0  0  0  0  0  0  0
  -26.1270  -12.9040   20.2480 N   0  0  0  0  0  0  0  0  0  0  0  0
  -25.7950  -11.6130   20.5100 N   0  0  0  0  0  0  0  0  0  0  0  0
  -23.8150  -10.3500   21.0520 C   0  0  0  0  0  0  0  0  0  0  0  0
  -24.2800   -9.3910   21.9790 C   0  0  0  0  0  3  0  0  0  0  0  0
  -23.5810   -8.1790   22.1660 C   0  0  0  0  0  3  0  0  0  0  0  0
  -22.4030   -7.9170   21.4270 C   0  0  0  0  0  0  0  0  0  0  0  0
  -21.9570   -8.8650   20.4910 C   0  0  0  0  0  3  0  0  0  0  0  0
  -22.6570  -10.0690   20.3010 C   0  0  0  0  0  3  0  0  0  0  0  0
  -21.6730   -6.7570   21.5240 O   0  0  0  0  0  0  0  0  0  0  0  0
  -21.6530   -6.0130   22.6780 C   0  0  0  0  0  0  0  0  0  0  0  0
  -21.2180   -6.5570   23.9070 C   0  0  0  0  0  3  0  0  0  0  0  0
  -21.1470   -5.7380   25.0520 C   0  0  0  0  0  3  0  0  0  0  0  0
  -21.4990   -4.3770   24.9690 C   0  0  0  0  0  0  0  0  0  0  0  0
  -21.9260   -3.8340   23.7440 C   0  0  0  0  0  3  0  0  0  0  0  0
  -22.0000   -4.6500   22.6010 C   0  0  0  0  0  0  0  0  0  0  0  0
  -22.3910   -4.1160   21.4190 F   0  0  0  0  0  0  0  0  0  0  0  0
  -21.4240   -3.5880   26.0650 F   0  0  0  0  0  0  0  0  0  0  0  0
  -22.6300  -13.4190   21.2150 C   0  0  0  0  0  0  0  0  0  0  0  0
  -21.9380  -12.7080   22.0990 N   0  0  0  0  0  0  0  0  0  0  0  0
  -22.1590  -14.4360   20.7100 O   0  0  0  0  0  0  0  0  0  0  0  0
  -22.3320  -11.8880   22.5350 H   0  0  0  0  0  0  0  0  0  0  0  0
  -21.0010  -12.9920   22.3450 H   0  0  0  0  0  0  0  0  0  0  0  0
  -25.2080  -15.1400   20.3450 N   0  0  0  0  0  0  0  0  0  0  0  0
  -24.4290  -15.7770   20.4770 H   0  0  0  0  0  0  0  0  0  0  0  0
  -26.0410  -15.6010   20.0030 H   0  0  0  0  0  0  0  0  0  0  0  0
  -29.2330  -24.2180   20.6360 C   0  0  0  0  0  2  0  0  0  0  0  0
  -28.2210  -25.1710   19.9070 C   0  0  0  0  0  2  0  0  0  0  0  0
  -28.3360  -26.5980   20.2130 O   0  0  0  0  0  0  0  0  0  0  0  0
  -24.5900  -31.8950   23.2430 C   0  0  0  0  0  0  0  0  0  0  0  0
  -27.1900  -27.3920   20.1510 C   0  0  0  0  0  0  0  0  0  0  0  0
  -23.3720  -30.5010   21.6040 C   0  0  0  0  0  3  0  0  0  0  0  0
  -24.8120  -28.9620   20.1620 C   0  0  0  0  0  0  0  0  0  0  0  0
  -25.9050  -30.8310   21.4050 C   0  0  0  0  0  2  0  0  0  0  0  0
  -25.9790  -29.4600   20.7550 C   0  0  0  0  0  0  0  0  0  0  0  0
  -27.1670  -28.6830   20.7480 C   0  0  0  0  0  3  0  0  0  0  0  0
  -26.0050  -26.9420   19.5210 C   0  0  0  0  0  3  0  0  0  0  0  0
  -24.8250  -27.7070   19.5370 C   0  0  0  0  0  3  0  0  0  0  0  0
  -23.5720  -29.8280   20.2210 C   0  0  0  0  0  2  0  0  0  0  0  0
  -24.6410  -31.0930   22.1400 N   0  0  0  0  0  0  0  0  0  0  0  0
  -23.5110  -32.1710   23.7870 O   0  0  0  0  0  0  0  0  0  0  0  0
  -22.7200  -29.4800   22.5660 C   0  0  0  0  0  0  0  0  0  0  0  0
  -21.3960  -29.2970   22.4390 N   0  0  0  0  0  0  0  0  0  0  0  0
  -23.4040  -28.8560   23.3820 O   0  0  0  0  0  0  0  0  0  0  0  0
  -20.9070  -29.8470   21.7470 H   0  0  0  0  0  0  0  0  0  0  0  0
  -18.0230  -28.0960   22.9410 C   0  0  0  0  0  0  0  0  0  0  0  0
  -20.5810  -28.3590   23.2130 C   0  0  0  0  0  3  0  0  0  0  0  0
  -20.6880  -26.9290   22.6370 C   0  0  0  0  0  2  0  0  0  0  0  0
  -19.5860  -26.6020   21.6230 C   0  0  0  0  0  2  0  0  0  0  0  0
  -18.2040  -26.7460   22.2660 C   0  0  0  0  0  2  0  0  0  0  0  0
  -19.1410  -28.8610   23.3710 C   0  0  0  0  0  0  0  0  0  0  0  0
  -18.9190  -30.1240   23.9600 C   0  0  0  0  0  3  0  0  0  0  0  0
  -17.6140  -30.6240   24.1260 C   0  0  0  0  0  3  0  0  0  0  0  0
  -16.5110  -29.8550   23.7140 C   0  0  0  0  0  3  0  0  0  0  0  0
  -16.7170  -28.5940   23.1270 C   0  0  0  0  0  3  0  0  0  0  0  0
  -25.8800  -32.5210   23.8570 C   0  0  0  0  0  3  0  0  0  0  0  0
  -26.4030  -31.7490   25.1310 C   0  0  1  0  0  0  0  0  0  0  0  0
  -25.3120  -31.5130   26.2010 C   0  0  0  0  0  1  0  0  0  0  0  0
  -26.9820  -30.3700   24.7360 C   0  0  0  0  0  1  0  0  0  0  0  0
  -27.5580  -32.5400   25.7880 C   0  0  0  0  0  1  0  0  0  0  0  0
  -25.5780  -33.9190   24.1910 N   0  0  0  0  0  0  0  0  0  0  0  0
  -25.9010  -34.9710   23.4260 C   0  0  0  0  0  0  0  0  0  0  0  0
  -26.5580  -34.8670   22.3870 O   0  0  0  0  0  0  0  0  0  0  0  0
  -24.9990  -34.0760   25.0020 H   0  0  0  0  0  0  0  0  0  0  0  0
  -24.1680  -36.7620   23.0940 C   0  0  0  0  0  1  0  0  0  0  0  0
  -25.4190  -36.3580   23.8910 C   0  0  0  0  0  3  0  0  0  0  0  0
  -27.5630  -37.2430   24.6980 C   0  0  0  0  0  1  0  0  0  0  0  0
  -26.4510  -37.4120   23.7670 N   0  0  0  0  0  0  0  0  0  0  0  0
  -26.0450  -38.3310   23.9190 H   0  0  0  0  0  0  0  0  0  0  0  0
  1 49  1  0
  1  2  1  0
  2  4  1  0
  3  1  2  0
  5 11  2  0
  6  7  1  0
  8 10  1  0
  9  8  1  0
  9  2  1  0
  9  6  1  0
 10  5  1  0
 10  7  1  0
 12  5  1  0
 13 12  1  0
 14 19  1  0
 15 16  1  0
 15 14  1  0
 17 16  1  0
 17 24  1  0
 17 18  1  0
 19 13  1  0
 19 18  1  0
 20 13  2  0
 21 22  2  0
 22 41  1  0
 23 22  1  0
 23 26  1  0
 24 25  1  0
 24 21  1  0
 25 23  2  0
 26 27  1  0
 27 28  2  0
 29 32  1  0
 29 28  1  0
 30 29  2  0
 31 30  1  0
 31 26  2  0
 32 33  1  0
 33 34  1  0
 34 35  2  0
 36 35  1  0
 36 40  1  0
 37 36  2  0
 38 33  2  0
 38 37  1  0
 39 38  1  0
 41 42  1  0
 42 45  1  0
 42 44  1  0
 43 41  2  0
 46 47  1  0
 46 21  1  0
 48 46  1  0
 50 51  1  0
 50 49  1  0
 52 63  2  0
 53 51  1  0
 53 58  1  0
 54 62  1  0
 54 64  1  0
 55 61  1  0
 55 57  1  0
 56 62  1  0
 57 56  1  0
 58 57  2  0
 59 60  1  0
 59 53  2  0
 60 55  2  0
 61 54  1  0
 62 52  1  0
 64 66  2  0
 65 64  1  0
 67 65  1  0
 68 77  2  0
 68 73  1  0
 69 65  1  0
 69 73  1  0
 70 69  1  0
 71 72  1  0
 71 70  1  0
 72 68  1  0
 73 74  2  0
 74 75  1  0
 76 75  2  0
 77 76  1  0
 78 52  1  0
 78 83  1  0
 78 79  1  0
 79 82  1  1
 79 80  1  0
 81 79  1  0
 83 86  1  0
 84 88  1  0
 84 83  1  0
 85 84  2  0
 88 87  1  0
 90 88  1  0
 90 91  1  0
 90 89  1  0
M  ISO  4  12 100  13 100  50 101  51 101
M  END
>  <TORSDO>  (12) 
F 20

>  <SCORE>  (12) 
-13.862

>  <name>  (12) 
11

>  <ligand_id>  (12) 
11

>  <original_smiles>  (12) 
[H]c1c([H])c([H])c2c(c1[H])C([H])([H])C([H])([H])C([H])([H])C2([H])N([H])C(=O)C1([H])N(C(=O)C([H])(N([H])C(=O)C([H])(N([H])C([H])([H])[H])C([H])([H])[H])C(C([H])([H])[H])(C([H])([H])[H])C([H])([H])[H])C([H])([H])c2c([H])c(OC([H])([H])C([H])([H])C(=O)N([H])C3([H])C([H])([H])N(C(=O)C([H])([H])C(=O)N4C([H])([H])C([H])([H])C([H])([H])C([H])(n5nc(-c6c([H])c([H])c(Oc7c([H])c([H])c(F)c([H])c7F)c([H])c6[H])c(C(=O)N([H])[H])c5N([H])[H])C4([H])[H])C([H])([H])C3([H])[H])c([H])c([H])c2C1([H])[H]

>  <smiles>  (12) 
[H]c1c([H])c([H])c2c(c1[H])C([H])([H])C([H])([H])C([H])([H])C2([H])N([H])C(=O)C1([H])N(C(=O)C([H])(N([H])C(=O)C([H])(N([H])C([H])([H])[H])C([H])([H])[H])C(C([H])([H])[H])(C([H])([H])[H])C([H])([H])[H])C([H])([H])c2c([H])c(OC([H])([H])C([H])([H])C(=O)N([H])C3([H])C([H])([H])N(C(=O)C([H])([H])C(=O)N4C([H])([H])C([H])([H])C([H])([H])C([H])(n5nc(-c6c([H])c([H])c(Oc7c([H])c([H])c(F)c([H])c7F)c([H])c6[H])c(C(=O)N([H])[H])c5N([H])[H])C4([H])[H])C([H])([H])C3([H])[H])c([H])c([H])c2C1([H])[H]

$$$$
12:0:0
     RDKit          3D

 90 97  0  0  1  0  0  0  0  0999 V2000
  -30.5100  -21.5300   19.5160 C   0  0  0  0  0  3  0  0  0  0  0  0
  -30.6360  -22.8870   19.5190 C   0  0  0  0  0  0  0  0  0  0  0  0
  -31.0470  -23.6020   18.2390 C   0  0  0  0  0  1  0  0  0  0  0  0
  -30.1100  -20.6890   20.6410 C   0  0  0  0  0  0  0  0  0  0  0  0
  -30.3690  -19.3800   20.4440 N   0  0  0  0  0  0  0  0  0  0  0  0
  -29.5320  -21.0820   21.6560 O   0  0  0  0  0  0  0  0  0  0  0  0
  -30.8720  -19.1080   19.6080 H   0  0  0  0  0  0  0  0  0  0  0  0
  -29.8680  -18.2970   21.3070 C   0  0  0  0  0  2  0  0  0  0  0  0
  -30.6610  -16.9480   21.1510 C   0  0  0  0  0  2  0  0  0  0  0  0
  -30.1050  -15.4830   21.3230 C   0  0  0  0  0  2  0  0  0  0  0  0
  -30.6820  -14.4250   20.3480 C   0  0  0  0  0  0  0  0  0  0  0  0
  -30.3310  -12.3530   19.0380 C   0  0  0  0  0  2  0  0  0  0  0  0
  -29.3410  -12.6070   17.8860 C   0  0  0  0  0  2  0  0  0  0  0  0
  -27.8810  -12.4570   18.3650 C   0  0  0  0  0  2  0  0  0  0  0  0
  -27.5980  -13.2420   19.6730 C   0  0  0  0  0  3  0  0  0  0  0  0
  -28.6860  -12.9440   20.7290 C   0  0  0  0  0  2  0  0  0  0  0  0
  -29.9910  -13.2720   20.1350 N   0  0  0  0  0  0  0  0  0  0  0  0
  -31.7410  -14.6740   19.7630 O   0  0  0  0  0  0  0  0  0  0  0  0
  -25.2150  -13.8530   20.4410 C   0  0  0  0  0  0  0  0  0  0  0  0
  -24.1560  -13.0790   20.8350 C   0  0  0  0  0  0  0  0  0  0  0  0
  -24.6150  -11.7280   20.7870 C   0  0  0  0  0  0  0  0  0  0  0  0
  -26.2540  -12.9710   20.1820 N   0  0  0  0  0  0  0  0  0  0  0  0
  -25.8960  -11.6870   20.4430 N   0  0  0  0  0  0  0  0  0  0  0  0
  -23.8920  -10.4650   20.9930 C   0  0  0  0  0  0  0  0  0  0  0  0
  -24.3520   -9.4950   21.9110 C   0  0  0  0  0  3  0  0  0  0  0  0
  -23.6320   -8.2960   22.1060 C   0  0  0  0  0  3  0  0  0  0  0  0
  -22.4380   -8.0600   21.3830 C   0  0  0  0  0  0  0  0  0  0  0  0
  -21.9970   -9.0200   20.4530 C   0  0  0  0  0  3  0  0  0  0  0  0
  -22.7170  -10.2110   20.2590 C   0  0  0  0  0  3  0  0  0  0  0  0
  -21.6860   -6.9150   21.4850 O   0  0  0  0  0  0  0  0  0  0  0  0
  -21.6700   -6.1640   22.6340 C   0  0  0  0  0  0  0  0  0  0  0  0
  -21.2840   -6.7110   23.8780 C   0  0  0  0  0  3  0  0  0  0  0  0
  -21.2160   -5.8900   25.0180 C   0  0  0  0  0  3  0  0  0  0  0  0
  -21.5240   -4.5190   24.9200 C   0  0  0  0  0  0  0  0  0  0  0  0
  -21.9050   -3.9710   23.6800 C   0  0  0  0  0  3  0  0  0  0  0  0
  -21.9740   -4.7900   22.5430 C   0  0  0  0  0  0  0  0  0  0  0  0
  -22.3200   -4.2540   21.3470 F   0  0  0  0  0  0  0  0  0  0  0  0
  -21.4520   -3.7260   26.0130 F   0  0  0  0  0  0  0  0  0  0  0  0
  -22.7680  -13.5550   21.1500 C   0  0  0  0  0  0  0  0  0  0  0  0
  -22.0640  -12.8590   22.0340 N   0  0  0  0  0  0  0  0  0  0  0  0
  -22.3140  -14.5830   20.6450 O   0  0  0  0  0  0  0  0  0  0  0  0
  -22.4440  -12.0320   22.4710 H   0  0  0  0  0  0  0  0  0  0  0  0
  -21.1310  -13.1570   22.2790 H   0  0  0  0  0  0  0  0  0  0  0  0
  -25.3750  -15.2240   20.2640 N   0  0  0  0  0  0  0  0  0  0  0  0
  -24.6100  -15.8760   20.4020 H   0  0  0  0  0  0  0  0  0  0  0  0
  -26.2180  -15.6680   19.9220 H   0  0  0  0  0  0  0  0  0  0  0  0
  -30.4890  -23.8370   20.7190 C   0  0  0  0  0  2  0  0  0  0  0  0
  -29.0780  -24.4010   21.0200 C   0  0  0  0  0  2  0  0  0  0  0  0
  -28.3770  -25.2590   19.9390 C   0  0  0  0  0  2  0  0  0  0  0  0
  -28.3960  -26.6640   20.2480 O   0  0  0  0  0  0  0  0  0  0  0  0
  -24.5940  -31.8590   23.2580 C   0  0  0  0  0  0  0  0  0  0  0  0
  -27.2190  -27.3880   20.1920 C   0  0  0  0  0  0  0  0  0  0  0  0
  -23.3870  -30.4620   21.6150 C   0  0  0  0  0  3  0  0  0  0  0  0
  -24.8350  -28.9200   20.1950 C   0  0  0  0  0  0  0  0  0  0  0  0
  -25.9190  -30.7990   21.4310 C   0  0  0  0  0  2  0  0  0  0  0  0
  -25.9940  -29.4280   20.7920 C   0  0  0  0  0  0  0  0  0  0  0  0
  -27.1860  -28.6690   20.7890 C   0  0  0  0  0  3  0  0  0  0  0  0
  -26.0430  -26.9140   19.5590 C   0  0  0  0  0  3  0  0  0  0  0  0
  -24.8550  -27.6620   19.5740 C   0  0  0  0  0  3  0  0  0  0  0  0
  -23.5970  -29.7830   20.2360 C   0  0  0  0  0  2  0  0  0  0  0  0
  -24.6520  -31.0570   22.1580 N   0  0  0  0  0  0  0  0  0  0  0  0
  -23.5120  -32.1400   23.7910 O   0  0  0  0  0  0  0  0  0  0  0  0
  -22.7260  -29.4450   22.5730 C   0  0  0  0  0  0  0  0  0  0  0  0
  -21.4010  -29.2710   22.4410 N   0  0  0  0  0  0  0  0  0  0  0  0
  -23.4030  -28.8150   23.3900 O   0  0  0  0  0  0  0  0  0  0  0  0
  -20.9180  -29.8360   21.7550 H   0  0  0  0  0  0  0  0  0  0  0  0
  -18.0150  -28.1080   22.9370 C   0  0  0  0  0  0  0  0  0  0  0  0
  -20.5750  -28.3390   23.2090 C   0  0  0  0  0  3  0  0  0  0  0  0
  -20.6630  -26.9090   22.6270 C   0  0  0  0  0  2  0  0  0  0  0  0
  -19.5580  -26.6010   21.6110 C   0  0  0  0  0  2  0  0  0  0  0  0
  -18.1790  -26.7580   22.2570 C   0  0  0  0  0  2  0  0  0  0  0  0
  -19.1420  -28.8560   23.3690 C   0  0  0  0  0  0  0  0  0  0  0  0
  -18.9380  -30.1200   23.9640 C   0  0  0  0  0  3  0  0  0  0  0  0
  -17.6400  -30.6360   24.1320 C   0  0  0  0  0  3  0  0  0  0  0  0
  -16.5280  -29.8840   23.7190 C   0  0  0  0  0  3  0  0  0  0  0  0
  -16.7150  -28.6210   23.1260 C   0  0  0  0  0  3  0  0  0  0  0  0
  -25.8820  -32.4840   23.8820 C   0  0  0  0  0  3  0  0  0  0  0  0
  -25.5830  -33.8870   24.2010 N   0  0  0  0  0  0  0  0  0  0  0  0
  -25.9270  -34.9300   23.4350 C   0  0  0  0  0  0  0  0  0  0  0  0
  -26.6020  -34.8140   22.4080 O   0  0  0  0  0  0  0  0  0  0  0  0
  -24.9850  -34.0520   24.9960 H   0  0  0  0  0  0  0  0  0  0  0  0
  -24.2140  -36.7330   23.0570 C   0  0  0  0  0  1  0  0  0  0  0  0
  -25.4470  -36.3260   23.8800 C   0  0  0  0  0  3  0  0  0  0  0  0
  -27.5830  -37.1990   24.7180 C   0  0  0  0  0  1  0  0  0  0  0  0
  -26.4890  -37.3690   23.7650 N   0  0  0  0  0  0  0  0  0  0  0  0
  -26.0890  -38.2950   23.9020 H   0  0  0  0  0  0  0  0  0  0  0  0
  -26.3890  -31.7170   25.1640 C   0  0  1  0  0  0  0  0  0  0  0  0
  -25.2910  -31.4950   26.2300 C   0  0  0  0  0  1  0  0  0  0  0  0
  -26.9620  -30.3330   24.7820 C   0  0  0  0  0  1  0  0  0  0  0  0
  -27.5410  -32.5080   25.8250 C   0  0  0  0  0  1  0  0  0  0  0  0
  1  2  2  0
  1  4  1  0
  2 47  1  0
  3  2  1  0
  4  6  2  0
  5  4  1  0
  5  8  1  0
  7  5  1  0
  9  8  1  0
  9 10  1  0
 11 10  1  0
 12 17  1  0
 13 14  1  0
 13 12  1  0
 15 14  1  0
 15 22  1  0
 15 16  1  0
 17 11  1  0
 17 16  1  0
 18 11  2  0
 19 20  2  0
 20 39  1  0
 21 20  1  0
 21 24  1  0
 22 19  1  0
 22 23  1  0
 23 21  2  0
 24 25  1  0
 25 26  2  0
 27 30  1  0
 27 26  1  0
 28 27  2  0
 29 28  1  0
 29 24  2  0
 30 31  1  0
 31 32  1  0
 32 33  2  0
 34 33  1  0
 34 38  1  0
 35 34  2  0
 36 31  2  0
 36 35  1  0
 37 36  1  0
 39 40  1  0
 40 43  1  0
 40 42  1  0
 41 39  2  0
 44 45  1  0
 44 19  1  0
 46 44  1  0
 47 48  1  0
 49 50  1  0
 49 48  1  0
 51 62  2  0
 52 50  1  0
 52 57  1  0
 53 61  1  0
 53 63  1  0
 54 60  1  0
 54 56  1  0
 55 61  1  0
 56 55  1  0
 57 56  2  0
 58 59  1  0
 58 52  2  0
 59 54  2  0
 60 53  1  0
 61 51  1  0
 63 65  2  0
 64 63  1  0
 66 64  1  0
 67 76  2  0
 67 72  1  0
 68 64  1  0
 68 72  1  0
 69 68  1  0
 70 71  1  0
 70 69  1  0
 71 67  1  0
 72 73  2  0
 73 74  1  0
 75 74  2  0
 76 75  1  0
 77 51  1  0
 77 78  1  0
 77 87  1  0
 78 81  1  0
 79 83  1  0
 79 78  1  0
 80 79  2  0
 83 82  1  0
 85 83  1  0
 85 86  1  0
 85 84  1  0
 87 90  1  1
 87 88  1  0
 89 87  1  0
M  ISO  4  10 100  11 100  49 101  50 101
M  END
>  <TORSDO>  (13) 
F 23

>  <SCORE>  (13) 
-12.630

>  <name>  (13) 
12

>  <ligand_id>  (13) 
12

>  <original_smiles>  (13) 
[H]C(C(=O)N([H])C([H])([H])C([H])([H])C([H])([H])C(=O)N1C([H])([H])C([H])([H])C([H])([H])C([H])(n2nc(-c3c([H])c([H])c(Oc4c([H])c([H])c(F)c([H])c4F)c([H])c3[H])c(C(=O)N([H])[H])c2N([H])[H])C1([H])[H])=C(C([H])([H])[H])C([H])([H])C([H])([H])C([H])([H])Oc1c([H])c([H])c2c(c1[H])C([H])([H])N(C(=O)C([H])(N([H])C(=O)C([H])(N([H])C([H])([H])[H])C([H])([H])[H])C(C([H])([H])[H])(C([H])([H])[H])C([H])([H])[H])C([H])(C(=O)N([H])C1([H])c3c([H])c([H])c([H])c([H])c3C([H])([H])C([H])([H])C1([H])[H])C2([H])[H]

>  <smiles>  (13) 
[H]C(C(=O)N([H])C([H])([H])C([H])([H])C([H])([H])C(=O)N1C([H])([H])C([H])([H])C([H])([H])C([H])(n2nc(-c3c([H])c([H])c(Oc4c([H])c([H])c(F)c([H])c4F)c([H])c3[H])c(C(=O)N([H])[H])c2N([H])[H])C1([H])[H])=C(C([H])([H])[H])C([H])([H])C([H])([H])C([H])([H])Oc1c([H])c([H])c2c(c1[H])C([H])([H])N(C(=O)C([H])(N([H])C(=O)C([H])(N([H])C([H])([H])[H])C([H])([H])[H])C(C([H])([H])[H])(C([H])([H])[H])C([H])([H])[H])C([H])(C(=O)N([H])C1([H])c3c([H])c([H])c([H])c([H])c3C([H])([H])C([H])([H])C1([H])[H])C2([H])[H]

$$$$
13:0:0
     RDKit          3D

 88 95  0  0  1  0  0  0  0  0999 V2000
  -28.6750  -21.9590   20.2940 C   0  0  0  0  0  3  0  0  0  0  0  0
  -28.9140  -23.3670   20.3180 C   0  0  0  0  0  3  0  0  0  0  0  0
  -29.5880  -20.7500   20.4290 C   0  0  0  0  0  0  0  0  0  0  0  0
  -30.8880  -21.0460   20.5440 N   0  0  0  0  0  4  0  0  0  0  0  0
  -29.2790  -19.3450   20.4280 N   0  0  0  0  0  0  0  0  0  0  0  0
  -31.1880  -22.0080   20.5370 H   0  0  0  0  0  0  0  0  0  0  0  0
  -31.6010  -20.3420   20.6430 H   0  0  0  0  0  0  0  0  0  0  0  0
  -28.2920  -19.1470   20.3330 H   0  0  0  0  0  0  0  0  0  0  0  0
  -30.1820  -18.0160   20.4180 C   0  0  0  0  0  3  0  0  0  0  0  0
  -29.6410  -16.4280   20.6650 C   0  0  0  0  0  3  0  0  0  0  0  0
  -30.4850  -15.0180   20.3610 C   0  0  0  0  0  0  0  0  0  0  0  0
  -30.3780  -12.6760   19.3750 C   0  0  0  0  0  2  0  0  0  0  0  0
  -29.4300  -12.6720   18.1510 C   0  0  0  0  0  2  0  0  0  0  0  0
  -27.9680  -12.4540   18.5900 C   0  0  0  0  0  2  0  0  0  0  0  0
  -27.5770  -13.3490   19.7920 C   0  0  0  0  0  3  0  0  0  0  0  0
  -28.6430  -13.3280   20.9070 C   0  0  0  0  0  2  0  0  0  0  0  0
  -29.9190  -13.7430   20.3110 N   0  0  0  0  0  0  0  0  0  0  0  0
  -31.6740  -15.0960   20.0300 O   0  0  0  0  0  0  0  0  0  0  0  0
  -25.1990  -13.9160   20.5540 C   0  0  0  0  0  0  0  0  0  0  0  0
  -24.1400  -13.1350   20.9280 C   0  0  0  0  0  0  0  0  0  0  0  0
  -24.6090  -11.7860   20.8880 C   0  0  0  0  0  0  0  0  0  0  0  0
  -26.2430  -13.0430   20.3000 N   0  0  0  0  0  0  0  0  0  0  0  0
  -25.8990  -11.7570   20.5660 N   0  0  0  0  0  0  0  0  0  0  0  0
  -23.8880  -10.5200   21.0770 C   0  0  0  0  0  0  0  0  0  0  0  0
  -24.3320   -9.5480   21.9990 C   0  0  0  0  0  3  0  0  0  0  0  0
  -23.6090   -8.3480   22.1780 C   0  0  0  0  0  3  0  0  0  0  0  0
  -22.4280   -8.1130   21.4330 C   0  0  0  0  0  0  0  0  0  0  0  0
  -22.0040   -9.0750   20.5000 C   0  0  0  0  0  3  0  0  0  0  0  0
  -22.7270  -10.2660   20.3190 C   0  0  0  0  0  3  0  0  0  0  0  0
  -21.6760   -6.9660   21.5210 O   0  0  0  0  0  0  0  0  0  0  0  0
  -21.6440   -6.2130   22.6670 C   0  0  0  0  0  0  0  0  0  0  0  0
  -21.2190   -6.7520   23.9010 C   0  0  0  0  0  3  0  0  0  0  0  0
  -21.1350   -5.9250   25.0380 C   0  0  0  0  0  3  0  0  0  0  0  0
  -21.4630   -4.5600   24.9430 C   0  0  0  0  0  0  0  0  0  0  0  0
  -21.8800   -4.0200   23.7130 C   0  0  0  0  0  3  0  0  0  0  0  0
  -21.9670   -4.8450   22.5780 C   0  0  0  0  0  0  0  0  0  0  0  0
  -22.3490   -4.3140   21.3910 F   0  0  0  0  0  0  0  0  0  0  0  0
  -21.3750   -3.7630   26.0340 F   0  0  0  0  0  0  0  0  0  0  0  0
  -22.7430  -13.6070   21.2110 C   0  0  0  0  0  0  0  0  0  0  0  0
  -22.0230  -12.9060   22.0790 N   0  0  0  0  0  0  0  0  0  0  0  0
  -22.2990  -14.6330   20.6960 O   0  0  0  0  0  0  0  0  0  0  0  0
  -22.3950  -12.0750   22.5160 H   0  0  0  0  0  0  0  0  0  0  0  0
  -21.0860  -13.2030   22.3100 H   0  0  0  0  0  0  0  0  0  0  0  0
  -25.3570  -15.2890   20.3840 N   0  0  0  0  0  0  0  0  0  0  0  0
  -24.5880  -15.9390   20.5080 H   0  0  0  0  0  0  0  0  0  0  0  0
  -26.2020  -15.7320   20.0500 H   0  0  0  0  0  0  0  0  0  0  0  0
  -27.8940  -24.6500   20.1020 C   0  0  0  0  0  2  0  0  0  0  0  0
  -28.2250  -26.1670   20.2850 O   0  0  0  0  0  0  0  0  0  0  0  0
  -24.6240  -31.9010   23.2500 C   0  0  0  0  0  0  0  0  0  0  0  0
  -27.1830  -27.1710   20.2140 C   0  0  0  0  0  0  0  0  0  0  0  0
  -23.4180  -30.5090   21.6120 C   0  0  0  0  0  3  0  0  0  0  0  0
  -24.8600  -28.9340   20.1840 C   0  0  0  0  0  0  0  0  0  0  0  0
  -25.9740  -30.7650   21.4450 C   0  0  0  0  0  2  0  0  0  0  0  0
  -26.0430  -29.3730   20.7920 C   0  0  0  0  0  0  0  0  0  0  0  0
  -27.2040  -28.5080   20.7890 C   0  0  0  0  0  3  0  0  0  0  0  0
  -25.9710  -26.8420   19.5640 C   0  0  0  0  0  3  0  0  0  0  0  0
  -24.8390  -27.6820   19.5530 C   0  0  0  0  0  3  0  0  0  0  0  0
  -23.6360  -29.8340   20.2320 C   0  0  0  0  0  2  0  0  0  0  0  0
  -24.6920  -31.0800   22.1570 N   0  0  0  0  0  0  0  0  0  0  0  0
  -23.5390  -32.1880   23.7790 O   0  0  0  0  0  0  0  0  0  0  0  0
  -22.7370  -29.5040   22.5740 C   0  0  0  0  0  0  0  0  0  0  0  0
  -21.4080  -29.3350   22.4480 N   0  0  0  0  0  0  0  0  0  0  0  0
  -23.4060  -28.8780   23.3990 O   0  0  0  0  0  0  0  0  0  0  0  0
  -20.9240  -29.8920   21.7570 H   0  0  0  0  0  0  0  0  0  0  0  0
  -18.0250  -28.1410   22.9510 C   0  0  0  0  0  0  0  0  0  0  0  0
  -20.5840  -28.4020   23.2200 C   0  0  0  0  0  3  0  0  0  0  0  0
  -20.6840  -26.9680   22.6480 C   0  0  0  0  0  2  0  0  0  0  0  0
  -19.5820  -26.6450   21.6340 C   0  0  0  0  0  2  0  0  0  0  0  0
  -18.2010  -26.7910   22.2770 C   0  0  0  0  0  2  0  0  0  0  0  0
  -19.1440  -28.9040   23.3800 C   0  0  0  0  0  0  0  0  0  0  0  0
  -18.9240  -30.1670   23.9720 C   0  0  0  0  0  3  0  0  0  0  0  0
  -17.6190  -30.6670   24.1390 C   0  0  0  0  0  3  0  0  0  0  0  0
  -16.5150  -29.9020   23.7250 C   0  0  0  0  0  3  0  0  0  0  0  0
  -16.7180  -28.6410   23.1370 C   0  0  0  0  0  3  0  0  0  0  0  0
  -25.9040  -32.5330   23.8760 C   0  0  0  0  0  3  0  0  0  0  0  0
  -26.4100  -31.7650   25.1590 C   0  0  1  0  0  0  0  0  0  0  0  0
  -25.3110  -31.5400   26.2240 C   0  0  0  0  0  1  0  0  0  0  0  0
  -26.9870  -30.3810   24.7810 C   0  0  0  0  0  1  0  0  0  0  0  0
  -27.5630  -32.5560   25.8210 C   0  0  0  0  0  1  0  0  0  0  0  0
  -25.5970  -33.9330   24.2050 N   0  0  0  0  0  0  0  0  0  0  0  0
  -25.9170  -34.9870   23.4420 C   0  0  0  0  0  0  0  0  0  0  0  0
  -26.5680  -34.8810   22.4000 O   0  0  0  0  0  0  0  0  0  0  0  0
  -25.0170  -34.0890   25.0170 H   0  0  0  0  0  0  0  0  0  0  0  0
  -24.1780  -36.7800   23.1290 C   0  0  0  0  0  1  0  0  0  0  0  0
  -25.4420  -36.3780   23.9070 C   0  0  0  0  0  3  0  0  0  0  0  0
  -27.5940  -37.2720   24.6790 C   0  0  0  0  0  1  0  0  0  0  0  0
  -26.4700  -37.4320   23.7620 N   0  0  0  0  0  0  0  0  0  0  0  0
  -26.0650  -38.3520   23.9120 H   0  0  0  0  0  0  0  0  0  0  0  0
  1  2  2  0
  1  3  1  0
  3  4  2  0
  4  7  1  0
  5  3  1  0
  6  4  1  0
  8  5  1  0
  9  5  1  0
  9 10  2  0
 11 10  1  0
 12 17  1  0
 13 14  1  0
 13 12  1  0
 15 14  1  0
 15 22  1  0
 15 16  1  0
 17 11  1  0
 17 16  1  0
 18 11  2  0
 19 20  2  0
 20 39  1  0
 21 20  1  0
 21 24  1  0
 22 19  1  0
 22 23  1  0
 23 21  2  0
 24 25  1  0
 25 26  2  0
 27 30  1  0
 27 26  1  0
 28 27  2  0
 29 28  1  0
 29 24  2  0
 30 31  1  0
 31 32  1  0
 32 33  2  0
 34 33  1  0
 34 38  1  0
 35 34  2  0
 36 31  2  0
 36 35  1  0
 37 36  1  0
 39 40  1  0
 40 43  1  0
 40 42  1  0
 41 39  2  0
 44 45  1  0
 44 19  1  0
 46 44  1  0
 47 48  1  0
 47  2  1  0
 49 60  2  0
 50 48  1  0
 50 55  1  0
 51 59  1  0
 51 61  1  0
 52 58  1  0
 52 54  1  0
 53 59  1  0
 54 53  1  0
 55 54  2  0
 56 50  2  0
 57 56  1  0
 57 52  2  0
 58 51  1  0
 59 49  1  0
 61 63  2  0
 62 61  1  0
 64 62  1  0
 65 74  2  0
 65 70  1  0
 66 62  1  0
 66 70  1  0
 67 66  1  0
 68 69  1  0
 68 67  1  0
 69 65  1  0
 70 71  2  0
 71 72  1  0
 73 72  2  0
 74 73  1  0
 75 49  1  0
 75 80  1  0
 75 76  1  0
 76 79  1  1
 76 77  1  0
 78 76  1  0
 80 83  1  0
 81 85  1  0
 81 80  1  0
 82 81  2  0
 85 84  1  0
 87 85  1  0
 87 88  1  0
 87 86  1  0
M  ISO  4  10 100  11 100  47 101  48 101
M  END
>  <TORSDO>  (14) 
F 20

>  <SCORE>  (14) 
-14.451

>  <name>  (14) 
13

>  <ligand_id>  (14) 
13

>  <original_smiles>  (14) 
[H]C(=C([H])C([H])([H])Oc1c([H])c([H])c2c(c1[H])C([H])([H])N(C(=O)C([H])(N([H])C(=O)C([H])(N([H])C([H])([H])[H])C([H])([H])[H])C(C([H])([H])[H])(C([H])([H])[H])C([H])([H])[H])C([H])(C(=O)N([H])C1([H])c3c([H])c([H])c([H])c([H])c3C([H])([H])C([H])([H])C1([H])[H])C2([H])[H])C(N([H])[H])=[N+]([H])C([H])([H])C([H])([H])C(=O)N1C([H])([H])C([H])([H])C([H])([H])C([H])(n2nc(-c3c([H])c([H])c(Oc4c([H])c([H])c(F)c([H])c4F)c([H])c3[H])c(C(=O)N([H])[H])c2N([H])[H])C1([H])[H]

>  <smiles>  (14) 
[H]C(=C([H])C([H])([H])Oc1c([H])c([H])c2c(c1[H])C([H])([H])N(C(=O)C([H])(N([H])C(=O)C([H])(N([H])C([H])([H])[H])C([H])([H])[H])C(C([H])([H])[H])(C([H])([H])[H])C([H])([H])[H])C([H])(C(=O)N([H])C1([H])c3c([H])c([H])c([H])c([H])c3C([H])([H])C([H])([H])C1([H])[H])C2([H])[H])C(N([H])[H])=[N+]([H])C([H])([H])C([H])([H])C(=O)N1C([H])([H])C([H])([H])C([H])([H])C([H])(n2nc(-c3c([H])c([H])c(Oc4c([H])c([H])c(F)c([H])c4F)c([H])c3[H])c(C(=O)N([H])[H])c2N([H])[H])C1([H])[H]

$$$$
14:0:0
     RDKit          3D

 84 91  0  0  1  0  0  0  0  0999 V2000
  -28.9600  -23.3670   20.3310 C   0  0  0  0  0  3  0  0  0  0  0  0
  -28.5090  -21.7420   20.2770 C   0  0  0  0  0  2  0  0  0  0  0  0
  -29.5180  -20.3890   20.3440 C   0  0  0  0  0  3  0  0  0  0  0  0
  -29.0060  -18.7880   20.4700 C   0  0  0  0  0  3  0  0  0  0  0  0
  -29.9470  -17.4170   20.3410 C   0  0  0  0  0  3  0  0  0  0  0  0
  -29.6280  -16.1290   20.5940 N   0  0  0  0  0  0  0  0  0  0  0  0
  -30.4980  -14.9640   20.3520 C   0  0  0  0  0  0  0  0  0  0  0  0
  -30.4050  -12.6140   19.4070 C   0  0  0  0  0  2  0  0  0  0  0  0
  -29.4860  -12.6150   18.1610 C   0  0  0  0  0  2  0  0  0  0  0  0
  -28.0120  -12.4120   18.5650 C   0  0  0  0  0  2  0  0  0  0  0  0
  -27.6000  -13.3120   19.7600 C   0  0  0  0  0  3  0  0  0  0  0  0
  -28.6430  -13.2860   20.8950 C   0  0  0  0  0  2  0  0  0  0  0  0
  -29.9320  -13.6920   20.3230 N   0  0  0  0  0  0  0  0  0  0  0  0
  -31.6870  -15.0370   20.0310 O   0  0  0  0  0  0  0  0  0  0  0  0
  -25.2080  -13.8810   20.4730 C   0  0  0  0  0  0  0  0  0  0  0  0
  -24.1430  -13.1020   20.8330 C   0  0  0  0  0  0  0  0  0  0  0  0
  -24.6150  -11.7530   20.8120 C   0  0  0  0  0  0  0  0  0  0  0  0
  -26.2580  -13.0070   20.2440 N   0  0  0  0  0  0  0  0  0  0  0  0
  -25.9090  -11.7210   20.5140 N   0  0  0  0  0  0  0  0  0  0  0  0
  -23.8920  -10.4880   21.0020 C   0  0  0  0  0  0  0  0  0  0  0  0
  -24.3080   -9.5350   21.9570 C   0  0  0  0  0  3  0  0  0  0  0  0
  -23.5860   -8.3360   22.1340 C   0  0  0  0  0  3  0  0  0  0  0  0
  -22.4330   -8.0800   21.3540 C   0  0  0  0  0  0  0  0  0  0  0  0
  -22.0360   -9.0210   20.3890 C   0  0  0  0  0  3  0  0  0  0  0  0
  -22.7580  -10.2130   20.2110 C   0  0  0  0  0  3  0  0  0  0  0  0
  -21.6840   -6.9310   21.4370 O   0  0  0  0  0  0  0  0  0  0  0  0
  -21.5980   -6.2100   22.6000 C   0  0  0  0  0  0  0  0  0  0  0  0
  -21.1140   -6.7830   23.7970 C   0  0  0  0  0  3  0  0  0  0  0  0
  -20.9750   -5.9880   24.9520 C   0  0  0  0  0  3  0  0  0  0  0  0
  -21.3110   -4.6210   24.9120 C   0  0  0  0  0  0  0  0  0  0  0  0
  -21.7880   -4.0480   23.7200 C   0  0  0  0  0  3  0  0  0  0  0  0
  -21.9280   -4.8400   22.5670 C   0  0  0  0  0  0  0  0  0  0  0  0
  -22.3670   -4.2770   21.4160 F   0  0  0  0  0  0  0  0  0  0  0  0
  -21.1720   -3.8560   26.0200 F   0  0  0  0  0  0  0  0  0  0  0  0
  -22.7420  -13.5730   21.0880 C   0  0  0  0  0  0  0  0  0  0  0  0
  -22.0090  -12.8810   21.9540 N   0  0  0  0  0  0  0  0  0  0  0  0
  -22.3030  -14.5920   20.5550 O   0  0  0  0  0  0  0  0  0  0  0  0
  -22.3770  -12.0580   22.4070 H   0  0  0  0  0  0  0  0  0  0  0  0
  -21.0690  -13.1800   22.1680 H   0  0  0  0  0  0  0  0  0  0  0  0
  -25.3680  -15.2520   20.2980 N   0  0  0  0  0  0  0  0  0  0  0  0
  -24.6060  -15.9110   20.4230 H   0  0  0  0  0  0  0  0  0  0  0  0
  -26.2420  -15.6950   20.0380 H   0  0  0  0  0  0  0  0  0  0  0  0
  -27.9320  -24.6810   20.1060 C   0  0  0  0  0  3  0  0  0  0  0  0
  -28.2330  -26.2020   20.2540 O   0  0  0  0  0  0  0  0  0  0  0  0
  -24.6430  -31.8920   23.2650 C   0  0  0  0  0  0  0  0  0  0  0  0
  -27.1820  -27.1880   20.1970 C   0  0  0  0  0  0  0  0  0  0  0  0
  -23.4280  -30.5090   21.6260 C   0  0  0  0  0  3  0  0  0  0  0  0
  -24.8610  -28.9390   20.1850 C   0  0  0  0  0  0  0  0  0  0  0  0
  -25.9820  -30.7660   21.4500 C   0  0  0  0  0  2  0  0  0  0  0  0
  -26.0460  -29.3780   20.7890 C   0  0  0  0  0  0  0  0  0  0  0  0
  -27.2070  -28.5190   20.7780 C   0  0  0  0  0  3  0  0  0  0  0  0
  -25.9700  -26.8510   19.5530 C   0  0  0  0  0  3  0  0  0  0  0  0
  -24.8360  -27.6890   19.5520 C   0  0  0  0  0  3  0  0  0  0  0  0
  -23.6390  -29.8410   20.2430 C   0  0  0  0  0  2  0  0  0  0  0  0
  -24.7050  -31.0770   22.1690 N   0  0  0  0  0  0  0  0  0  0  0  0
  -23.5600  -32.1790   23.8000 O   0  0  0  0  0  0  0  0  0  0  0  0
  -22.7510  -29.4990   22.5850 C   0  0  0  0  0  0  0  0  0  0  0  0
  -21.4220  -29.3300   22.4590 N   0  0  0  0  0  0  0  0  0  0  0  0
  -23.4220  -28.8710   23.4090 O   0  0  0  0  0  0  0  0  0  0  0  0
  -20.9360  -29.8900   21.7740 H   0  0  0  0  0  0  0  0  0  0  0  0
  -18.0430  -28.1240   22.9550 C   0  0  0  0  0  0  0  0  0  0  0  0
  -20.6010  -28.3920   23.2300 C   0  0  0  0  0  3  0  0  0  0  0  0
  -20.7060  -26.9590   22.6590 C   0  0  0  0  0  2  0  0  0  0  0  0
  -19.6080  -26.6310   21.6420 C   0  0  0  0  0  2  0  0  0  0  0  0
  -18.2250  -26.7750   22.2820 C   0  0  0  0  0  2  0  0  0  0  0  0
  -19.1580  -28.8900   23.3870 C   0  0  0  0  0  0  0  0  0  0  0  0
  -18.9340  -30.1520   23.9780 C   0  0  0  0  0  3  0  0  0  0  0  0
  -17.6270  -30.6490   24.1420 C   0  0  0  0  0  3  0  0  0  0  0  0
  -16.5260  -29.8800   23.7260 C   0  0  0  0  0  3  0  0  0  0  0  0
  -16.7340  -28.6200   23.1370 C   0  0  0  0  0  3  0  0  0  0  0  0
  -25.9270  -32.5180   23.8890 C   0  0  0  0  0  3  0  0  0  0  0  0
  -25.6230  -33.9170   24.2290 N   0  0  0  0  0  0  0  0  0  0  0  0
  -25.9290  -34.9730   23.4650 C   0  0  0  0  0  0  0  0  0  0  0  0
  -26.5640  -34.8730   22.4120 O   0  0  0  0  0  0  0  0  0  0  0  0
  -25.0530  -34.0680   25.0490 H   0  0  0  0  0  0  0  0  0  0  0  0
  -24.1740  -36.7570   23.1940 C   0  0  0  0  0  1  0  0  0  0  0  0
  -25.4560  -36.3620   23.9430 C   0  0  0  0  0  3  0  0  0  0  0  0
  -27.6230  -37.2650   24.6650 C   0  0  0  0  0  1  0  0  0  0  0  0
  -26.4750  -37.4200   23.7750 N   0  0  0  0  0  0  0  0  0  0  0  0
  -26.0710  -38.3390   23.9350 H   0  0  0  0  0  0  0  0  0  0  0  0
  -26.4400  -31.7410   25.1650 C   0  0  1  0  0  0  0  0  0  0  0  0
  -25.3470  -31.5100   26.2340 C   0  0  0  0  0  1  0  0  0  0  0  0
  -27.0140  -30.3590   24.7760 C   0  0  0  0  0  1  0  0  0  0  0  0
  -27.5950  -32.5270   25.8270 C   0  0  0  0  0  1  0  0  0  0  0  0
  2  1  1  0
  2  3  1  0
  3  4  2  0
  5  4  1  0
  5  6  2  0
  7  6  1  0
  8 13  1  0
  9 10  1  0
  9  8  1  0
 11 10  1  0
 11 18  1  0
 11 12  1  0
 13  7  1  0
 13 12  1  0
 14  7  2  0
 15 16  2  0
 16 35  1  0
 17 16  1  0
 17 20  1  0
 18 15  1  0
 18 19  1  0
 19 17  2  0
 20 21  1  0
 21 22  2  0
 23 26  1  0
 23 22  1  0
 24 23  2  0
 25 24  1  0
 25 20  2  0
 26 27  1  0
 27 28  1  0
 28 29  2  0
 30 29  1  0
 30 34  1  0
 31 30  2  0
 32 27  2  0
 32 31  1  0
 33 32  1  0
 35 36  1  0
 36 39  1  0
 36 38  1  0
 37 35  2  0
 40 41  1  0
 40 15  1  0
 42 40  1  0
 43 44  1  0
 43  1  2  0
 45 56  2  0
 46 44  1  0
 46 51  1  0
 47 55  1  0
 47 57  1  0
 48 54  1  0
 48 50  1  0
 49 55  1  0
 50 49  1  0
 51 50  2  0
 52 46  2  0
 53 52  1  0
 53 48  2  0
 54 47  1  0
 55 45  1  0
 57 59  2  0
 58 57  1  0
 60 58  1  0
 61 70  2  0
 61 66  1  0
 62 58  1  0
 62 66  1  0
 63 62  1  0
 64 65  1  0
 64 63  1  0
 65 61  1  0
 66 67  2  0
 67 68  1  0
 69 68  2  0
 70 69  1  0
 71 45  1  0
 71 72  1  0
 71 81  1  0
 72 75  1  0
 73 77  1  0
 73 72  1  0
 74 73  2  0
 77 76  1  0
 79 80  1  0
 79 77  1  0
 79 78  1  0
 81 84  1  1
 81 82  1  0
 83 81  1  0
M  ISO  4   6 100   7 100  43 101  44 101
M  END
>  <TORSDO>  (15) 
F 21

>  <SCORE>  (15) 
-13.123

>  <name>  (15) 
14

>  <ligand_id>  (15) 
14

>  <original_smiles>  (15) 
[H]C(=NC(=O)N1C([H])([H])C([H])([H])C([H])([H])C([H])(n2nc(-c3c([H])c([H])c(Oc4c([H])c([H])c(F)c([H])c4F)c([H])c3[H])c(C(=O)N([H])[H])c2N([H])[H])C1([H])[H])C([H])([H])C([H])([H])C([H])([H])C([H])([H])C([H])([H])Oc1c([H])c([H])c2c(c1[H])C([H])([H])N(C(=O)C([H])(N([H])C(=O)C([H])(N([H])C([H])([H])[H])C([H])([H])[H])C(C([H])([H])[H])(C([H])([H])[H])C([H])([H])[H])C([H])(C(=O)N([H])C1([H])c3c([H])c([H])c([H])c([H])c3C([H])([H])C([H])([H])C1([H])[H])C2([H])[H]

>  <smiles>  (15) 
[H]C(=NC(=O)N1C([H])([H])C([H])([H])C([H])([H])C([H])(n2nc(-c3c([H])c([H])c(Oc4c([H])c([H])c(F)c([H])c4F)c([H])c3[H])c(C(=O)N([H])[H])c2N([H])[H])C1([H])[H])C([H])([H])C([H])([H])C([H])([H])C([H])([H])C([H])([H])Oc1c([H])c([H])c2c(c1[H])C([H])([H])N(C(=O)C([H])(N([H])C(=O)C([H])(N([H])C([H])([H])[H])C([H])([H])[H])C(C([H])([H])[H])(C([H])([H])[H])C([H])([H])[H])C([H])(C(=O)N([H])C1([H])c3c([H])c([H])c([H])c([H])c3C([H])([H])C([H])([H])C1([H])[H])C2([H])[H]

$$$$
15:0:0
     RDKit          3D

 86 93  0  0  1  0  0  0  0  0999 V2000
  -29.4180  -21.0340   20.8100 C   0  0  0  0  0  3  0  0  0  0  0  0
  -29.2540  -22.4220   20.9180 C   0  0  0  0  0  3  0  0  0  0  0  0
  -29.2280  -19.9880   19.7060 C   0  0  0  0  0  0  0  0  0  0  0  0
  -28.6470  -20.5880   18.4440 C   0  0  0  0  0  1  0  0  0  0  0  0
  -29.4580  -18.6800   19.6530 N   0  0  0  0  0  0  0  0  0  0  0  0
  -30.1200  -17.6670   20.5740 C   0  0  0  0  0  2  0  0  0  0  0  0
  -29.5850  -16.1270   20.4310 C   0  0  0  0  0  2  0  0  0  0  0  0
  -30.5000  -14.7920   20.3370 C   0  0  0  0  0  0  0  0  0  0  0  0
  -30.3570  -12.4920   19.3650 C   0  0  0  0  0  2  0  0  0  0  0  0
  -29.4120  -12.5690   18.1420 C   0  0  0  0  0  2  0  0  0  0  0  0
  -27.9410  -12.3880   18.5690 C   0  0  0  0  0  2  0  0  0  0  0  0
  -27.5650  -13.2730   19.7870 C   0  0  0  0  0  3  0  0  0  0  0  0
  -28.6280  -13.1770   20.9010 C   0  0  0  0  0  2  0  0  0  0  0  0
  -29.9290  -13.5360   20.3220 N   0  0  0  0  0  0  0  0  0  0  0  0
  -31.6960  -14.9060   20.0470 O   0  0  0  0  0  0  0  0  0  0  0  0
  -25.1810  -13.8690   20.5230 C   0  0  0  0  0  0  0  0  0  0  0  0
  -24.1140  -13.0980   20.8980 C   0  0  0  0  0  0  0  0  0  0  0  0
  -24.5760  -11.7470   20.8710 C   0  0  0  0  0  0  0  0  0  0  0  0
  -26.2230  -12.9870   20.2840 N   0  0  0  0  0  0  0  0  0  0  0  0
  -25.8660  -11.7050   20.5570 N   0  0  0  0  0  0  0  0  0  0  0  0
  -23.8490  -10.4860   21.0690 C   0  0  0  0  0  0  0  0  0  0  0  0
  -24.2960   -9.5110   21.9870 C   0  0  0  0  0  3  0  0  0  0  0  0
  -23.5700   -8.3150   22.1720 C   0  0  0  0  0  3  0  0  0  0  0  0
  -22.3810   -8.0860   21.4380 C   0  0  0  0  0  0  0  0  0  0  0  0
  -21.9530   -9.0490   20.5090 C   0  0  0  0  0  3  0  0  0  0  0  0
  -22.6810  -10.2370   20.3220 C   0  0  0  0  0  3  0  0  0  0  0  0
  -21.6250   -6.9440   21.5340 O   0  0  0  0  0  0  0  0  0  0  0  0
  -21.6120   -6.1820   22.6750 C   0  0  0  0  0  0  0  0  0  0  0  0
  -21.2490   -6.7220   23.9280 C   0  0  0  0  0  3  0  0  0  0  0  0
  -21.1820   -5.8870   25.0610 C   0  0  0  0  0  3  0  0  0  0  0  0
  -21.4690   -4.5130   24.9430 C   0  0  0  0  0  0  0  0  0  0  0  0
  -21.8250   -3.9730   23.6950 C   0  0  0  0  0  3  0  0  0  0  0  0
  -21.8930   -4.8050   22.5640 C   0  0  0  0  0  0  0  0  0  0  0  0
  -22.2160   -4.2750   21.3600 F   0  0  0  0  0  0  0  0  0  0  0  0
  -21.3970   -3.7100   26.0300 F   0  0  0  0  0  0  0  0  0  0  0  0
  -22.7180  -13.5790   21.1700 C   0  0  0  0  0  0  0  0  0  0  0  0
  -21.9920  -12.8870   22.0430 N   0  0  0  0  0  0  0  0  0  0  0  0
  -22.2800  -14.6000   20.6440 O   0  0  0  0  0  0  0  0  0  0  0  0
  -22.3580  -12.0610   22.4910 H   0  0  0  0  0  0  0  0  0  0  0  0
  -21.0540  -13.1890   22.2680 H   0  0  0  0  0  0  0  0  0  0  0  0
  -25.3470  -15.2390   20.3430 N   0  0  0  0  0  0  0  0  0  0  0  0
  -24.5840  -15.8960   20.4620 H   0  0  0  0  0  0  0  0  0  0  0  0
  -26.2020  -15.6800   20.0240 H   0  0  0  0  0  0  0  0  0  0  0  0
  -28.8420  -23.6660   20.0020 C   0  0  0  0  0  2  0  0  0  0  0  0
  -28.2070  -24.9930   20.7150 C   0  0  0  0  0  2  0  0  0  0  0  0
  -28.3460  -26.4020   20.1940 O   0  0  0  0  0  0  0  0  0  0  0  0
  -24.6210  -31.8860   23.2360 C   0  0  0  0  0  0  0  0  0  0  0  0
  -27.2330  -27.2750   20.2080 C   0  0  0  0  0  0  0  0  0  0  0  0
  -23.4170  -30.4760   21.6050 C   0  0  0  0  0  3  0  0  0  0  0  0
  -24.8680  -28.9100   20.1890 C   0  0  0  0  0  0  0  0  0  0  0  0
  -25.9590  -30.7880   21.4170 C   0  0  0  0  0  2  0  0  0  0  0  0
  -26.0410  -29.4000   20.7780 C   0  0  0  0  0  0  0  0  0  0  0  0
  -27.2270  -28.5980   20.7690 C   0  0  0  0  0  3  0  0  0  0  0  0
  -26.0340  -26.8440   19.6020 C   0  0  0  0  0  3  0  0  0  0  0  0
  -24.8680  -27.6390   19.5920 C   0  0  0  0  0  3  0  0  0  0  0  0
  -23.6310  -29.7890   20.2310 C   0  0  0  0  0  2  0  0  0  0  0  0
  -24.6860  -31.0700   22.1420 N   0  0  0  0  0  0  0  0  0  0  0  0
  -23.5370  -32.1660   23.7690 O   0  0  0  0  0  0  0  0  0  0  0  0
  -22.7560  -29.4680   22.5750 C   0  0  0  0  0  0  0  0  0  0  0  0
  -21.4300  -29.2870   22.4500 N   0  0  0  0  0  0  0  0  0  0  0  0
  -23.4350  -28.8510   23.4000 O   0  0  0  0  0  0  0  0  0  0  0  0
  -20.9410  -29.8360   21.7560 H   0  0  0  0  0  0  0  0  0  0  0  0
  -18.0580  -28.0720   22.9490 C   0  0  0  0  0  0  0  0  0  0  0  0
  -20.6130  -28.3530   23.2270 C   0  0  0  0  0  3  0  0  0  0  0  0
  -20.7300  -26.9170   22.6670 C   0  0  0  0  0  2  0  0  0  0  0  0
  -19.6330  -26.5750   21.6510 C   0  0  0  0  0  2  0  0  0  0  0  0
  -18.2470  -26.7180   22.2860 C   0  0  0  0  0  2  0  0  0  0  0  0
  -19.1700  -28.8470   23.3750 C   0  0  0  0  0  0  0  0  0  0  0  0
  -18.9380  -30.1130   23.9550 C   0  0  0  0  0  3  0  0  0  0  0  0
  -17.6290  -30.6050   24.1130 C   0  0  0  0  0  3  0  0  0  0  0  0
  -16.5320  -29.8290   23.7000 C   0  0  0  0  0  3  0  0  0  0  0  0
  -16.7480  -28.5640   23.1240 C   0  0  0  0  0  3  0  0  0  0  0  0
  -25.9020  -32.5250   23.8550 C   0  0  0  0  0  3  0  0  0  0  0  0
  -25.5880  -33.9220   24.1860 N   0  0  0  0  0  0  0  0  0  0  0  0
  -25.9160  -34.9760   23.4280 C   0  0  0  0  0  0  0  0  0  0  0  0
  -26.5820  -34.8760   22.3940 O   0  0  0  0  0  0  0  0  0  0  0  0
  -24.9950  -34.0760   24.9870 H   0  0  0  0  0  0  0  0  0  0  0  0
  -24.1760  -36.7620   23.0920 C   0  0  0  0  0  1  0  0  0  0  0  0
  -25.4280  -36.3630   23.8900 C   0  0  0  0  0  3  0  0  0  0  0  0
  -27.5690  -37.2550   24.6940 C   0  0  0  0  0  1  0  0  0  0  0  0
  -26.4550  -37.4210   23.7640 N   0  0  0  0  0  0  0  0  0  0  0  0
  -26.0470  -38.3390   23.9180 H   0  0  0  0  0  0  0  0  0  0  0  0
  -26.4230  -31.7580   25.1330 C   0  0  1  0  0  0  0  0  0  0  0  0
  -25.3340  -31.5260   26.2060 C   0  0  0  0  0  1  0  0  0  0  0  0
  -27.0030  -30.3780   24.7450 C   0  0  0  0  0  1  0  0  0  0  0  0
  -27.5760  -32.5550   25.7880 C   0  0  0  0  0  1  0  0  0  0  0  0
  1  2  2  0
  3  1  1  0
  4  3  1  0
  5  3  2  0
  5  6  1  0
  7  6  1  0
  8  7  1  0
  9 14  1  0
 10 11  1  0
 10  9  1  0
 12 11  1  0
 12 19  1  0
 12 13  1  0
 14  8  1  0
 14 13  1  0
 15  8  2  0
 16 17  2  0
 17 36  1  0
 18 17  1  0
 18 21  1  0
 19 16  1  0
 19 20  1  0
 20 18  2  0
 21 22  1  0
 22 23  2  0
 24 27  1  0
 24 23  1  0
 25 24  2  0
 26 25  1  0
 26 21  2  0
 27 28  1  0
 28 29  1  0
 29 30  2  0
 31 30  1  0
 31 35  1  0
 32 31  2  0
 33 28  2  0
 33 32  1  0
 34 33  1  0
 36 37  1  0
 37 40  1  0
 37 39  1  0
 38 36  2  0
 41 42  1  0
 41 16  1  0
 43 41  1  0
 44 45  1  0
 44  2  1  0
 46 48  1  0
 46 45  1  0
 47 58  2  0
 48 53  1  0
 49 57  1  0
 49 59  1  0
 50 56  1  0
 50 52  1  0
 51 57  1  0
 52 51  1  0
 53 52  2  0
 54 48  2  0
 55 54  1  0
 55 50  2  0
 56 49  1  0
 57 47  1  0
 59 61  2  0
 60 59  1  0
 62 60  1  0
 63 72  2  0
 63 68  1  0
 64 60  1  0
 64 68  1  0
 65 64  1  0
 66 67  1  0
 66 65  1  0
 67 63  1  0
 68 69  2  0
 69 70  1  0
 71 70  2  0
 72 71  1  0
 73 47  1  0
 73 74  1  0
 73 83  1  0
 74 77  1  0
 75 79  1  0
 75 74  1  0
 76 75  2  0
 79 78  1  0
 81 79  1  0
 81 82  1  0
 81 80  1  0
 83 86  1  1
 83 84  1  0
 85 83  1  0
M  ISO  4   7 100   8 100  45 101  46 101
M  END
>  <TORSDO>  (16) 
F 21

>  <SCORE>  (16) 
-13.290

>  <name>  (16) 
15

>  <ligand_id>  (16) 
15

>  <original_smiles>  (16) 
[H]C(C(=NC([H])([H])C([H])([H])C(=O)N1C([H])([H])C([H])([H])C([H])([H])C([H])(n2nc(-c3c([H])c([H])c(Oc4c([H])c([H])c(F)c([H])c4F)c([H])c3[H])c(C(=O)N([H])[H])c2N([H])[H])C1([H])[H])C([H])([H])[H])=C([H])C([H])([H])C([H])([H])Oc1c([H])c([H])c2c(c1[H])C([H])([H])N(C(=O)C([H])(N([H])C(=O)C([H])(N([H])C([H])([H])[H])C([H])([H])[H])C(C([H])([H])[H])(C([H])([H])[H])C([H])([H])[H])C([H])(C(=O)N([H])C1([H])c3c([H])c([H])c([H])c([H])c3C([H])([H])C([H])([H])C1([H])[H])C2([H])[H]

>  <smiles>  (16) 
[H]C(C(=NC([H])([H])C([H])([H])C(=O)N1C([H])([H])C([H])([H])C([H])([H])C([H])(n2nc(-c3c([H])c([H])c(Oc4c([H])c([H])c(F)c([H])c4F)c([H])c3[H])c(C(=O)N([H])[H])c2N([H])[H])C1([H])[H])C([H])([H])[H])=C([H])C([H])([H])C([H])([H])Oc1c([H])c([H])c2c(c1[H])C([H])([H])N(C(=O)C([H])(N([H])C(=O)C([H])(N([H])C([H])([H])[H])C([H])([H])[H])C(C([H])([H])[H])(C([H])([H])[H])C([H])([H])[H])C([H])(C(=O)N([H])C1([H])c3c([H])c([H])c([H])c([H])c3C([H])([H])C([H])([H])C1([H])[H])C2([H])[H]

$$$$
16:0:0
     RDKit          3D

 86 94  0  0  1  0  0  0  0  0999 V2000
  -29.1870  -21.3180   21.2240 C   0  0  0  0  0  3  0  0  0  0  0  0
  -28.3800  -21.1180   19.1690 C   0  0  0  0  0  3  0  0  0  0  0  0
  -29.5320  -19.8170   21.2250 C   0  0  0  0  0  3  0  0  0  0  0  0
  -28.7130  -19.6270   19.1720 C   0  0  0  0  0  3  0  0  0  0  0  0
  -28.5590  -22.1940   20.1860 C   0  0  0  0  0  0  0  0  0  0  0  0
  -29.3450  -18.7470   20.1930 C   0  0  0  0  0  0  0  0  0  0  0  0
  -30.2600  -15.7190   20.1520 C   0  0  0  0  0  0  0  0  0  0  0  0
  -30.3680  -13.1860   19.3140 C   0  0  0  0  0  2  0  0  0  0  0  0
  -29.4450  -12.7990   18.1230 C   0  0  0  0  0  2  0  0  0  0  0  0
  -28.0320  -12.4420   18.6110 C   0  0  0  0  0  2  0  0  0  0  0  0
  -27.5460  -13.4280   19.6970 C   0  0  0  0  0  3  0  0  0  0  0  0
  -28.6050  -13.7230   20.7850 C   0  0  0  0  0  2  0  0  0  0  0  0
  -29.7610  -14.3480   20.1030 N   0  0  0  0  0  0  0  0  0  0  0  0
  -31.4880  -15.6960   19.9420 O   0  0  0  0  0  0  0  0  0  0  0  0
  -29.4300  -17.0280   20.2420 N   0  0  0  0  0  0  0  0  0  0  0  0
  -28.4830  -16.6860   20.3090 H   0  0  0  0  0  0  0  0  0  0  0  0
  -25.2060  -13.9340   20.5460 C   0  0  0  0  0  0  0  0  0  0  0  0
  -24.1600  -13.1410   20.9260 C   0  0  0  0  0  0  0  0  0  0  0  0
  -24.6350  -11.7950   20.8480 C   0  0  0  0  0  0  0  0  0  0  0  0
  -26.2460  -13.0750   20.2480 N   0  0  0  0  0  0  0  0  0  0  0  0
  -25.9180  -11.7780   20.4970 N   0  0  0  0  0  0  0  0  0  0  0  0
  -23.9180  -10.5250   21.0260 C   0  0  0  0  0  0  0  0  0  0  0  0
  -24.3490   -9.5550   21.9580 C   0  0  0  0  0  3  0  0  0  0  0  0
  -23.6270   -8.3540   22.1270 C   0  0  0  0  0  3  0  0  0  0  0  0
  -22.4590   -8.1140   21.3660 C   0  0  0  0  0  0  0  0  0  0  0  0
  -22.0470   -9.0720   20.4240 C   0  0  0  0  0  3  0  0  0  0  0  0
  -22.7690  -10.2640   20.2520 C   0  0  0  0  0  3  0  0  0  0  0  0
  -21.7100   -6.9650   21.4440 O   0  0  0  0  0  0  0  0  0  0  0  0
  -21.6210   -6.2410   22.6070 C   0  0  0  0  0  0  0  0  0  0  0  0
  -21.1120   -6.8040   23.7970 C   0  0  0  0  0  3  0  0  0  0  0  0
  -20.9720   -6.0060   24.9500 C   0  0  0  0  0  3  0  0  0  0  0  0
  -21.3310   -4.6460   24.9130 C   0  0  0  0  0  0  0  0  0  0  0  0
  -21.8340   -4.0820   23.7270 C   0  0  0  0  0  3  0  0  0  0  0  0
  -21.9740   -4.8770   22.5770 C   0  0  0  0  0  0  0  0  0  0  0  0
  -22.4380   -4.3230   21.4310 F   0  0  0  0  0  0  0  0  0  0  0  0
  -21.1910   -3.8770   26.0190 F   0  0  0  0  0  0  0  0  0  0  0  0
  -22.7690  -13.6060   21.2420 C   0  0  0  0  0  0  0  0  0  0  0  0
  -22.0680  -12.8890   22.1130 N   0  0  0  0  0  0  0  0  0  0  0  0
  -22.3150  -14.6380   20.7530 O   0  0  0  0  0  0  0  0  0  0  0  0
  -22.4500  -12.0540   22.5310 H   0  0  0  0  0  0  0  0  0  0  0  0
  -21.1340  -13.1820   22.3670 H   0  0  0  0  0  0  0  0  0  0  0  0
  -25.3510  -15.3100   20.3950 N   0  0  0  0  0  0  0  0  0  0  0  0
  -24.5750  -15.9490   20.5370 H   0  0  0  0  0  0  0  0  0  0  0  0
  -26.1650  -15.7610   20.0010 H   0  0  0  0  0  0  0  0  0  0  0  0
  -27.7930  -23.9010   20.1770 C   0  0  0  0  0  2  0  0  0  0  0  0
  -28.1150  -25.6130   20.3110 O   0  0  0  0  0  0  0  0  0  0  0  0
  -24.6620  -31.9150   23.2510 C   0  0  0  0  0  0  0  0  0  0  0  0
  -27.1570  -26.8350   20.2600 C   0  0  0  0  0  0  0  0  0  0  0  0
  -23.4600  -30.5190   21.6230 C   0  0  0  0  0  3  0  0  0  0  0  0
  -24.8950  -28.8660   20.2080 C   0  0  0  0  0  0  0  0  0  0  0  0
  -26.0380  -30.6560   21.4870 C   0  0  0  0  0  2  0  0  0  0  0  0
  -26.0950  -29.2230   20.8340 C   0  0  0  0  0  0  0  0  0  0  0  0
  -27.2120  -28.2350   20.8280 C   0  0  0  0  0  3  0  0  0  0  0  0
  -25.9230  -26.6850   19.5790 C   0  0  0  0  0  3  0  0  0  0  0  0
  -24.8460  -27.6220   19.5560 C   0  0  0  0  0  3  0  0  0  0  0  0
  -23.6900  -29.8190   20.2540 C   0  0  0  0  0  2  0  0  0  0  0  0
  -24.7450  -31.0630   22.1720 N   0  0  0  0  0  0  0  0  0  0  0  0
  -23.5730  -32.2210   23.7660 O   0  0  0  0  0  0  0  0  0  0  0  0
  -22.7450  -29.5460   22.5990 C   0  0  0  0  0  0  0  0  0  0  0  0
  -21.4140  -29.3860   22.4710 N   0  0  0  0  0  0  0  0  0  0  0  0
  -23.4000  -28.9330   23.4470 O   0  0  0  0  0  0  0  0  0  0  0  0
  -20.9350  -29.9310   21.7680 H   0  0  0  0  0  0  0  0  0  0  0  0
  -18.0320  -28.1550   22.9720 C   0  0  0  0  0  0  0  0  0  0  0  0
  -20.5870  -28.4540   23.2490 C   0  0  0  0  0  3  0  0  0  0  0  0
  -20.7060  -27.0130   22.6990 C   0  0  0  0  0  2  0  0  0  0  0  0
  -19.6170  -26.6650   21.6810 C   0  0  0  0  0  2  0  0  0  0  0  0
  -18.2280  -26.8010   22.3110 C   0  0  0  0  0  2  0  0  0  0  0  0
  -19.1380  -28.9370   23.3980 C   0  0  0  0  0  0  0  0  0  0  0  0
  -18.8970  -30.2000   23.9820 C   0  0  0  0  0  3  0  0  0  0  0  0
  -17.5830  -30.6820   24.1390 C   0  0  0  0  0  3  0  0  0  0  0  0
  -16.4920  -29.8990   23.7250 C   0  0  0  0  0  3  0  0  0  0  0  0
  -16.7170  -28.6360   23.1490 C   0  0  0  0  0  3  0  0  0  0  0  0
  -25.9320  -32.5610   23.8830 C   0  0  0  0  0  3  0  0  0  0  0  0
  -25.6160  -33.9640   24.2200 N   0  0  0  0  0  0  0  0  0  0  0  0
  -25.9160  -35.0270   23.4620 C   0  0  0  0  0  0  0  0  0  0  0  0
  -26.5470  -34.9310   22.4070 O   0  0  0  0  0  0  0  0  0  0  0  0
  -25.0470  -34.1100   25.0410 H   0  0  0  0  0  0  0  0  0  0  0  0
  -24.1590  -36.8170   23.2140 C   0  0  0  0  0  1  0  0  0  0  0  0
  -25.4490  -36.4160   23.9480 C   0  0  0  0  0  3  0  0  0  0  0  0
  -27.6160  -37.3300   24.6580 C   0  0  0  0  0  1  0  0  0  0  0  0
  -26.4640  -37.4780   23.7730 N   0  0  0  0  0  0  0  0  0  0  0  0
  -26.0580  -38.3960   23.9330 H   0  0  0  0  0  0  0  0  0  0  0  0
  -26.4320  -31.8030   25.1750 C   0  0  1  0  0  0  0  0  0  0  0  0
  -25.3290  -31.5820   26.2370 C   0  0  0  0  0  1  0  0  0  0  0  0
  -27.0120  -30.4160   24.8140 C   0  0  0  0  0  1  0  0  0  0  0  0
  -27.5810  -32.5990   25.8380 C   0  0  0  0  0  1  0  0  0  0  0  0
  1  3  1  0
  2  4  2  0
  2  5  1  0
  4  6  1  0
  5  1  2  0
  6 15  1  0
  6  3  2  0
  7 15  1  0
  8 13  1  0
  9 10  1  0
  9  8  1  0
 11 10  1  0
 11 20  1  0
 11 12  1  0
 13  7  1  0
 13 12  1  0
 14  7  2  0
 15 16  1  0
 17 18  2  0
 18 37  1  0
 19 18  1  0
 19 22  1  0
 20 21  1  0
 20 17  1  0
 21 19  2  0
 22 23  1  0
 23 24  2  0
 25 28  1  0
 25 24  1  0
 26 25  2  0
 27 26  1  0
 27 22  2  0
 28 29  1  0
 29 30  1  0
 30 31  2  0
 32 31  1  0
 32 36  1  0
 33 32  2  0
 34 29  2  0
 34 33  1  0
 35 34  1  0
 37 38  1  0
 38 41  1  0
 38 40  1  0
 39 37  2  0
 42 43  1  0
 42 17  1  0
 44 42  1  0
 45  5  1  0
 45 46  1  0
 47 58  2  0
 48 46  1  0
 48 53  1  0
 49 57  1  0
 49 59  1  0
 50 56  1  0
 50 52  1  0
 51 57  1  0
 52 51  1  0
 53 52  2  0
 54 48  2  0
 55 54  1  0
 55 50  2  0
 56 49  1  0
 57 47  1  0
 59 61  2  0
 60 59  1  0
 62 60  1  0
 63 72  2  0
 63 68  1  0
 64 60  1  0
 64 68  1  0
 65 64  1  0
 66 67  1  0
 66 65  1  0
 67 63  1  0
 68 69  2  0
 69 70  1  0
 71 70  2  0
 72 71  1  0
 73 47  1  0
 73 74  1  0
 73 83  1  0
 74 77  1  0
 75 79  1  0
 75 74  1  0
 76 75  2  0
 79 78  1  0
 81 82  1  0
 81 79  1  0
 81 80  1  0
 83 86  1  1
 83 84  1  0
 85 83  1  0
M  ISO  4   7 100  15 100  45 101  46 101
M  END
>  <TORSDO>  (17) 
F 17

>  <SCORE>  (17) 
-16.448

>  <name>  (17) 
16

>  <ligand_id>  (17) 
16

>  <original_smiles>  (17) 
[H]c1c([H])c([H])c2c(c1[H])C([H])([H])C([H])([H])C([H])([H])C2([H])N([H])C(=O)C1([H])N(C(=O)C([H])(N([H])C(=O)C([H])(N([H])C([H])([H])[H])C([H])([H])[H])C(C([H])([H])[H])(C([H])([H])[H])C([H])([H])[H])C([H])([H])c2c([H])c(OC([H])([H])c3c([H])c([H])c(N([H])C(=O)N4C([H])([H])C([H])([H])C([H])([H])C([H])(n5nc(-c6c([H])c([H])c(Oc7c([H])c([H])c(F)c([H])c7F)c([H])c6[H])c(C(=O)N([H])[H])c5N([H])[H])C4([H])[H])c([H])c3[H])c([H])c([H])c2C1([H])[H]

>  <smiles>  (17) 
[H]c1c([H])c([H])c2c(c1[H])C([H])([H])C([H])([H])C([H])([H])C2([H])N([H])C(=O)C1([H])N(C(=O)C([H])(N([H])C(=O)C([H])(N([H])C([H])([H])[H])C([H])([H])[H])C(C([H])([H])[H])(C([H])([H])[H])C([H])([H])[H])C([H])([H])c2c([H])c(OC([H])([H])c3c([H])c([H])c(N([H])C(=O)N4C([H])([H])C([H])([H])C([H])([H])C([H])(n5nc(-c6c([H])c([H])c(Oc7c([H])c([H])c(F)c([H])c7F)c([H])c6[H])c(C(=O)N([H])[H])c5N([H])[H])C4([H])[H])c([H])c3[H])c([H])c([H])c2C1([H])[H]

$$$$
17:0:0
     RDKit          3D

 92 99  0  0  1  0  0  0  0  0999 V2000
  -30.0390  -18.5610   20.8440 C   0  0  0  0  0  3  0  0  0  0  0  0
  -31.5950  -19.4220   22.6730 C   0  0  0  0  0  1  0  0  0  0  0  0
  -29.4700  -19.7890   20.4910 N   0  0  0  0  0  0  0  0  0  0  0  0
  -30.9850  -18.4160   21.7950 N   0  0  0  0  0  0  0  0  0  0  0  0
  -28.7910  -19.7360   19.7420 H   0  0  0  0  0  0  0  0  0  0  0  0
  -31.3340  -17.4750   21.9270 H   0  0  0  0  0  0  0  0  0  0  0  0
  -29.6990  -21.2290   20.9690 C   0  0  0  0  0  3  0  0  0  0  0  0
  -28.7740  -22.4010   20.3710 C   0  0  0  0  0  3  0  0  0  0  0  0
  -29.0640  -23.9430   20.7570 C   0  0  0  0  0  3  0  0  0  0  0  0
  -28.0360  -25.0730   20.2570 C   0  0  0  0  0  3  0  0  0  0  0  0
  -28.2760  -26.5320   20.4790 O   0  0  0  0  0  0  0  0  0  0  0  0
  -24.5700  -32.0500   23.3420 C   0  0  0  0  0  0  0  0  0  0  0  0
  -27.1790  -27.4160   20.3790 C   0  0  0  0  0  0  0  0  0  0  0  0
  -23.3760  -30.6420   21.7040 C   0  0  0  0  0  3  0  0  0  0  0  0
  -24.8330  -29.0670   20.3120 C   0  0  0  0  0  0  0  0  0  0  0  0
  -25.9220  -30.9350   21.5510 C   0  0  0  0  0  2  0  0  0  0  0  0
  -26.0000  -29.5470   20.9200 C   0  0  0  0  0  0  0  0  0  0  0  0
  -27.1760  -28.7340   20.9430 C   0  0  0  0  0  3  0  0  0  0  0  0
  -25.9890  -27.0040   19.7310 C   0  0  0  0  0  3  0  0  0  0  0  0
  -24.8330  -27.8030   19.7060 C   0  0  0  0  0  3  0  0  0  0  0  0
  -23.6030  -29.9530   20.3330 C   0  0  0  0  0  2  0  0  0  0  0  0
  -24.6410  -31.2270   22.2560 N   0  0  0  0  0  0  0  0  0  0  0  0
  -23.4810  -32.3420   23.8590 O   0  0  0  0  0  0  0  0  0  0  0  0
  -22.6930  -29.6410   22.6660 C   0  0  0  0  0  0  0  0  0  0  0  0
  -21.3700  -29.4580   22.5110 N   0  0  0  0  0  0  0  0  0  0  0  0
  -23.3520  -29.0320   23.5130 O   0  0  0  0  0  0  0  0  0  0  0  0
  -20.8970  -30.0000   21.8020 H   0  0  0  0  0  0  0  0  0  0  0  0
  -17.9840  -28.2590   22.9480 C   0  0  0  0  0  0  0  0  0  0  0  0
  -20.5340  -28.5350   23.2820 C   0  0  0  0  0  3  0  0  0  0  0  0
  -20.6570  -27.0910   22.7420 C   0  0  0  0  0  2  0  0  0  0  0  0
  -19.5840  -26.7400   21.7070 C   0  0  0  0  0  2  0  0  0  0  0  0
  -18.1850  -26.8950   22.3090 C   0  0  0  0  0  2  0  0  0  0  0  0
  -19.0880  -29.0350   23.3910 C   0  0  0  0  0  0  0  0  0  0  0  0
  -18.8470  -30.3100   23.9480 C   0  0  0  0  0  3  0  0  0  0  0  0
  -17.5360  -30.8090   24.0660 C   0  0  0  0  0  3  0  0  0  0  0  0
  -16.4470  -30.0290   23.6390 C   0  0  0  0  0  3  0  0  0  0  0  0
  -16.6720  -28.7560   23.0860 C   0  0  0  0  0  3  0  0  0  0  0  0
  -25.8480  -32.6800   23.9730 C   0  0  0  0  0  3  0  0  0  0  0  0
  -25.5520  -34.0900   24.2660 N   0  0  0  0  0  0  0  0  0  0  0  0
  -25.9050  -35.1210   23.4860 C   0  0  0  0  0  0  0  0  0  0  0  0
  -26.5830  -34.9840   22.4640 O   0  0  0  0  0  0  0  0  0  0  0  0
  -24.9510  -34.2710   25.0570 H   0  0  0  0  0  0  0  0  0  0  0  0
  -24.2000  -36.9240   23.0740 C   0  0  0  0  0  1  0  0  0  0  0  0
  -25.4300  -36.5250   23.9040 C   0  0  0  0  0  3  0  0  0  0  0  0
  -27.5660  -37.4090   24.7310 C   0  0  0  0  0  1  0  0  0  0  0  0
  -26.4760  -37.5640   23.7730 N   0  0  0  0  0  0  0  0  0  0  0  0
  -26.0780  -38.4920   23.8910 H   0  0  0  0  0  0  0  0  0  0  0  0
  -26.3300  -31.9320   25.2770 C   0  0  1  0  0  0  0  0  0  0  0  0
  -25.2100  -31.7230   26.3230 C   0  0  0  0  0  1  0  0  0  0  0  0
  -26.9130  -30.5440   24.9260 C   0  0  0  0  0  1  0  0  0  0  0  0
  -27.4700  -32.7320   25.9480 C   0  0  0  0  0  1  0  0  0  0  0  0
  -29.6680  -17.2450   20.0920 C   0  0  0  0  0  3  0  0  0  0  0  0
  -30.6590  -14.8180   20.4370 C   0  0  0  0  0  0  0  0  0  0  0  0
  -30.4800  -12.5790   19.3710 C   0  0  0  0  0  2  0  0  0  0  0  0
  -29.5490  -12.7170   18.1440 C   0  0  0  0  0  2  0  0  0  0  0  0
  -28.0720  -12.5430   18.5560 C   0  0  0  0  0  2  0  0  0  0  0  0
  -27.6970  -13.3840   19.8060 C   0  0  0  0  0  3  0  0  0  0  0  0
  -28.7460  -13.2280   20.9320 C   0  0  0  0  0  2  0  0  0  0  0  0
  -30.0600  -13.5840   20.3720 N   0  0  0  0  0  0  0  0  0  0  0  0
  -31.8150  -14.9810   20.0340 O   0  0  0  0  0  0  0  0  0  0  0  0
  -29.8470  -15.8840   20.7490 N   0  0  0  0  0  0  0  0  0  0  0  0
  -28.9990  -15.5820   21.2050 H   0  0  0  0  0  0  0  0  0  0  0  0
  -25.2870  -13.9560   20.4920 C   0  0  0  0  0  0  0  0  0  0  0  0
  -24.2260  -13.1710   20.8570 C   0  0  0  0  0  0  0  0  0  0  0  0
  -24.7060  -11.8250   20.8410 C   0  0  0  0  0  0  0  0  0  0  0  0
  -26.3450  -13.0870   20.2740 N   0  0  0  0  0  0  0  0  0  0  0  0
  -26.0000  -11.8020   20.5450 N   0  0  0  0  0  0  0  0  0  0  0  0
  -23.9920  -10.5560   21.0320 C   0  0  0  0  0  0  0  0  0  0  0  0
  -24.4250   -9.6000   21.9770 C   0  0  0  0  0  3  0  0  0  0  0  0
  -23.7100   -8.3960   22.1550 C   0  0  0  0  0  3  0  0  0  0  0  0
  -22.5500   -8.1390   21.3870 C   0  0  0  0  0  0  0  0  0  0  0  0
  -22.1360   -9.0840   20.4310 C   0  0  0  0  0  3  0  0  0  0  0  0
  -22.8510  -10.2790   20.2520 C   0  0  0  0  0  3  0  0  0  0  0  0
  -21.8070   -6.9850   21.4730 O   0  0  0  0  0  0  0  0  0  0  0  0
  -21.7490   -6.2520   22.6310 C   0  0  0  0  0  0  0  0  0  0  0  0
  -21.2850   -6.8100   23.8430 C   0  0  0  0  0  3  0  0  0  0  0  0
  -21.1740   -6.0020   24.9930 C   0  0  0  0  0  3  0  0  0  0  0  0
  -21.5180   -4.6380   24.9320 C   0  0  0  0  0  0  0  0  0  0  0  0
  -21.9770   -4.0800   23.7240 C   0  0  0  0  0  3  0  0  0  0  0  0
  -22.0880   -4.8850   22.5770 C   0  0  0  0  0  0  0  0  0  0  0  0
  -22.5100   -4.3380   21.4120 F   0  0  0  0  0  0  0  0  0  0  0  0
  -21.4050   -3.8600   26.0340 F   0  0  0  0  0  0  0  0  0  0  0  0
  -22.8200  -13.6340   21.1100 C   0  0  0  0  0  0  0  0  0  0  0  0
  -22.0890  -12.9360   21.9720 N   0  0  0  0  0  0  0  0  0  0  0  0
  -22.3770  -14.6510   20.5770 O   0  0  0  0  0  0  0  0  0  0  0  0
  -22.4580  -12.1150   22.4290 H   0  0  0  0  0  0  0  0  0  0  0  0
  -21.1460  -13.2280   22.1820 H   0  0  0  0  0  0  0  0  0  0  0  0
  -25.4330  -15.3280   20.3080 N   0  0  0  0  0  0  0  0  0  0  0  0
  -24.6460  -15.9620   20.4020 H   0  0  0  0  0  0  0  0  0  0  0  0
  -26.2630  -15.7780   19.9450 H   0  0  0  0  0  0  0  0  0  0  0  0
  -29.5320  -17.3240   17.5600 C   0  0  0  0  0  2  0  0  0  0  0  0
  -30.2550  -17.2810   18.6910 C   0  0  0  0  0  3  0  0  0  0  0  0
  1  3  1  0
  1  4  1  0
  3  7  1  0
  4  6  1  0
  4  2  1  0
  5  3  1  0
  8  9  1  0
  8  7  2  0
 10 11  1  0
 10  9  2  0
 12 23  2  0
 13 11  1  0
 13 18  1  0
 14 22  1  0
 14 24  1  0
 15 21  1  0
 15 17  1  0
 16 22  1  0
 17 18  2  0
 17 16  1  0
 19 13  2  0
 20 19  1  0
 20 15  2  0
 21 14  1  0
 22 12  1  0
 24 26  2  0
 25 24  1  0
 27 25  1  0
 28 37  2  0
 28 33  1  0
 29 25  1  0
 29 33  1  0
 30 29  1  0
 31 32  1  0
 31 30  1  0
 32 28  1  0
 33 34  2  0
 34 35  1  0
 36 35  2  0
 37 36  1  0
 38 12  1  0
 38 39  1  0
 38 48  1  0
 39 42  1  0
 40 44  1  0
 40 39  1  0
 41 40  2  0
 44 43  1  0
 46 47  1  0
 46 44  1  0
 46 45  1  0
 48 51  1  1
 48 49  1  0
 50 48  1  0
 52 92  1  0
 52 61  1  0
 52  1  1  0
 53 61  1  0
 54 59  1  0
 55 56  1  0
 55 54  1  0
 57 56  1  0
 57 66  1  0
 57 58  1  0
 59 53  1  0
 59 58  1  0
 60 53  2  0
 61 62  1  0
 63 64  2  0
 64 83  1  0
 65 64  1  0
 65 68  1  0
 66 63  1  0
 66 67  1  0
 67 65  2  0
 68 69  1  0
 69 70  2  0
 71 74  1  0
 71 70  1  0
 72 71  2  0
 73 72  1  0
 73 68  2  0
 74 75  1  0
 75 76  1  0
 76 77  2  0
 78 77  1  0
 78 82  1  0
 79 78  2  0
 80 75  2  0
 80 79  1  0
 81 80  1  0
 83 84  1  0
 84 87  1  0
 84 86  1  0
 85 83  2  0
 88 89  1  0
 88 63  1  0
 90 88  1  0
 91 92  2  0
M  ISO  4  10 101  11 101  53 100  61 100
M  END
>  <TORSDO>  (18) 
F 22

>  <SCORE>  (18) 
-12.585

>  <name>  (18) 
17

>  <ligand_id>  (18) 
17

>  <original_smiles>  (18) 
[H]C([H])=C([H])C([H])(C(N([H])C([H])([H])C([H])([H])C([H])([H])C([H])([H])Oc1c([H])c([H])c2c(c1[H])C([H])([H])N(C(=O)C([H])(N([H])C(=O)C([H])(N([H])C([H])([H])[H])C([H])([H])[H])C(C([H])([H])[H])(C([H])([H])[H])C([H])([H])[H])C([H])(C(=O)N([H])C1([H])c3c([H])c([H])c([H])c([H])c3C([H])([H])C([H])([H])C1([H])[H])C2([H])[H])=[N+]([H])C([H])([H])[H])N([H])C(=O)N1C([H])([H])C([H])([H])C([H])([H])C([H])(n2nc(-c3c([H])c([H])c(Oc4c([H])c([H])c(F)c([H])c4F)c([H])c3[H])c(C(=O)N([H])[H])c2N([H])[H])C1([H])[H]

>  <smiles>  (18) 
[H]C([H])=C([H])C([H])(C(N([H])C([H])([H])C([H])([H])C([H])([H])C([H])([H])Oc1c([H])c([H])c2c(c1[H])C([H])([H])N(C(=O)C([H])(N([H])C(=O)C([H])(N([H])C([H])([H])[H])C([H])([H])[H])C(C([H])([H])[H])(C([H])([H])[H])C([H])([H])[H])C([H])(C(=O)N([H])C1([H])c3c([H])c([H])c([H])c([H])c3C([H])([H])C([H])([H])C1([H])[H])C2([H])[H])=[N+]([H])C([H])([H])[H])N([H])C(=O)N1C([H])([H])C([H])([H])C([H])([H])C([H])(n2nc(-c3c([H])c([H])c(Oc4c([H])c([H])c(F)c([H])c4F)c([H])c3[H])c(C(=O)N([H])[H])c2N([H])[H])C1([H])[H]

$$$$
18:0:0
     RDKit          3D

 89 96  0  0  1  0  0  0  0  0999 V2000
  -29.0220  -21.4940   20.3940 C   0  0  0  0  0  0  0  0  0  0  0  0
  -30.2420  -21.9450   20.7200 N   0  0  0  0  0  4  0  0  0  0  0  0
  -28.8410  -20.1160   20.2120 N   0  0  0  0  0  0  0  0  0  0  0  0
  -30.3690  -22.9120   20.9720 H   0  0  0  0  0  0  0  0  0  0  0  0
  -31.0510  -21.3460   20.7840 H   0  0  0  0  0  0  0  0  0  0  0  0
  -27.9190  -19.8650   19.8760 H   0  0  0  0  0  0  0  0  0  0  0  0
  -27.9160  -22.4570   20.4560 C   0  0  0  0  0  3  0  0  0  0  0  0
  -27.6840  -23.8180   20.2360 C   0  0  0  0  0  3  0  0  0  0  0  0
  -28.4610  -25.0680   19.6670 C   0  0  0  0  0  2  0  0  0  0  0  0
  -28.3170  -26.4320   20.2790 O   0  0  0  0  0  0  0  0  0  0  0  0
  -24.6100  -31.8850   23.2360 C   0  0  0  0  0  0  0  0  0  0  0  0
  -27.1960  -27.2820   20.1720 C   0  0  0  0  0  0  0  0  0  0  0  0
  -23.3990  -30.4850   21.6020 C   0  0  0  0  0  3  0  0  0  0  0  0
  -24.8400  -28.9270   20.1620 C   0  0  0  0  0  0  0  0  0  0  0  0
  -25.9400  -30.7840   21.4190 C   0  0  0  0  0  2  0  0  0  0  0  0
  -26.0090  -29.4020   20.7650 C   0  0  0  0  0  0  0  0  0  0  0  0
  -27.1860  -28.5900   20.7630 C   0  0  0  0  0  3  0  0  0  0  0  0
  -26.0090  -26.8650   19.5370 C   0  0  0  0  0  3  0  0  0  0  0  0
  -24.8460  -27.6680   19.5330 C   0  0  0  0  0  3  0  0  0  0  0  0
  -23.6040  -29.8050   20.2200 C   0  0  0  0  0  2  0  0  0  0  0  0
  -24.6690  -31.0710   22.1390 N   0  0  0  0  0  0  0  0  0  0  0  0
  -23.5300  -32.1670   23.7720 O   0  0  0  0  0  0  0  0  0  0  0  0
  -22.7380  -29.4740   22.5680 C   0  0  0  0  0  0  0  0  0  0  0  0
  -21.4120  -29.2980   22.4470 N   0  0  0  0  0  0  0  0  0  0  0  0
  -23.4200  -28.8480   23.3850 O   0  0  0  0  0  0  0  0  0  0  0  0
  -20.9230  -29.8510   21.7560 H   0  0  0  0  0  0  0  0  0  0  0  0
  -18.0360  -28.1070   22.9580 C   0  0  0  0  0  0  0  0  0  0  0  0
  -20.5930  -28.3650   23.2230 C   0  0  0  0  0  3  0  0  0  0  0  0
  -20.6950  -26.9320   22.6520 C   0  0  0  0  0  2  0  0  0  0  0  0
  -19.5910  -26.6050   21.6400 C   0  0  0  0  0  2  0  0  0  0  0  0
  -18.2110  -26.7530   22.2860 C   0  0  0  0  0  2  0  0  0  0  0  0
  -19.1530  -28.8690   23.3830 C   0  0  0  0  0  0  0  0  0  0  0  0
  -18.9380  -30.1350   23.9710 C   0  0  0  0  0  3  0  0  0  0  0  0
  -17.6340  -30.6350   24.1410 C   0  0  0  0  0  3  0  0  0  0  0  0
  -16.5290  -29.8680   23.7330 C   0  0  0  0  0  3  0  0  0  0  0  0
  -16.7300  -28.6070   23.1460 C   0  0  0  0  0  3  0  0  0  0  0  0
  -25.8960  -32.5190   23.8520 C   0  0  0  0  0  3  0  0  0  0  0  0
  -25.5850  -33.9160   24.1850 N   0  0  0  0  0  0  0  0  0  0  0  0
  -25.9130  -34.9740   23.4290 C   0  0  0  0  0  0  0  0  0  0  0  0
  -26.5770  -34.8720   22.3930 O   0  0  0  0  0  0  0  0  0  0  0  0
  -24.9970  -34.0710   24.9910 H   0  0  0  0  0  0  0  0  0  0  0  0
  -24.1790  -36.7660   23.0940 C   0  0  0  0  0  1  0  0  0  0  0  0
  -25.4290  -36.3610   23.8940 C   0  0  0  0  0  3  0  0  0  0  0  0
  -27.5700  -37.2460   24.7080 C   0  0  0  0  0  1  0  0  0  0  0  0
  -26.4600  -37.4150   23.7730 N   0  0  0  0  0  0  0  0  0  0  0  0
  -26.0560  -38.3350   23.9260 H   0  0  0  0  0  0  0  0  0  0  0  0
  -26.4150  -31.7500   25.1280 C   0  0  1  0  0  0  0  0  0  0  0  0
  -25.3260  -31.5160   26.2010 C   0  0  0  0  0  1  0  0  0  0  0  0
  -26.9960  -30.3710   24.7360 C   0  0  0  0  0  1  0  0  0  0  0  0
  -27.5720  -32.5430   25.7820 C   0  0  0  0  0  1  0  0  0  0  0  0
  -29.5640  -18.9040   20.8420 C   0  0  0  0  0  2  0  0  0  0  0  0
  -29.6380  -17.4620   20.0820 C   0  0  0  0  0  2  0  0  0  0  0  0
  -29.8040  -16.0870   20.9420 C   0  0  0  0  0  2  0  0  0  0  0  0
  -30.5350  -14.7670   20.3650 C   0  0  0  0  0  0  0  0  0  0  0  0
  -30.3590  -12.4940   19.3120 C   0  0  0  0  0  2  0  0  0  0  0  0
  -29.4030  -12.5730   18.1000 C   0  0  0  0  0  2  0  0  0  0  0  0
  -27.9350  -12.4010   18.5300 C   0  0  0  0  0  2  0  0  0  0  0  0
  -27.5830  -13.2750   19.7610 C   0  0  0  0  0  3  0  0  0  0  0  0
  -28.6460  -13.1290   20.8650 C   0  0  0  0  0  2  0  0  0  0  0  0
  -29.9370  -13.5250   20.2890 N   0  0  0  0  0  0  0  0  0  0  0  0
  -31.6870  -14.8980   19.9300 O   0  0  0  0  0  0  0  0  0  0  0  0
  -25.2020  -13.8820   20.4950 C   0  0  0  0  0  0  0  0  0  0  0  0
  -24.1340  -13.1120   20.8710 C   0  0  0  0  0  0  0  0  0  0  0  0
  -24.5900  -11.7610   20.8480 C   0  0  0  0  0  0  0  0  0  0  0  0
  -26.2400  -12.9960   20.2570 N   0  0  0  0  0  0  0  0  0  0  0  0
  -25.8770  -11.7150   20.5300 N   0  0  0  0  0  0  0  0  0  0  0  0
  -23.8600  -10.5030   21.0500 C   0  0  0  0  0  0  0  0  0  0  0  0
  -24.3090   -9.5270   21.9670 C   0  0  0  0  0  3  0  0  0  0  0  0
  -23.5780   -8.3340   22.1530 C   0  0  0  0  0  3  0  0  0  0  0  0
  -22.3860   -8.1100   21.4220 C   0  0  0  0  0  0  0  0  0  0  0  0
  -21.9590   -9.0740   20.4950 C   0  0  0  0  0  3  0  0  0  0  0  0
  -22.6900  -10.2590   20.3050 C   0  0  0  0  0  3  0  0  0  0  0  0
  -21.6230   -6.9700   21.5210 O   0  0  0  0  0  0  0  0  0  0  0  0
  -21.6120   -6.2090   22.6620 C   0  0  0  0  0  0  0  0  0  0  0  0
  -21.2510   -6.7520   23.9140 C   0  0  0  0  0  3  0  0  0  0  0  0
  -21.1810   -5.9200   25.0490 C   0  0  0  0  0  3  0  0  0  0  0  0
  -21.4630   -4.5460   24.9340 C   0  0  0  0  0  0  0  0  0  0  0  0
  -21.8230   -4.0030   23.6870 C   0  0  0  0  0  3  0  0  0  0  0  0
  -21.8920   -4.8310   22.5550 C   0  0  0  0  0  0  0  0  0  0  0  0
  -22.2140   -4.2990   21.3510 F   0  0  0  0  0  0  0  0  0  0  0  0
  -21.3910   -3.7440   26.0220 F   0  0  0  0  0  0  0  0  0  0  0  0
  -22.7430  -13.5990   21.1530 C   0  0  0  0  0  0  0  0  0  0  0  0
  -22.0190  -12.9120   22.0320 N   0  0  0  0  0  0  0  0  0  0  0  0
  -22.3080  -14.6220   20.6300 O   0  0  0  0  0  0  0  0  0  0  0  0
  -22.3890  -12.0810   22.4710 H   0  0  0  0  0  0  0  0  0  0  0  0
  -21.0850  -13.2220   22.2650 H   0  0  0  0  0  0  0  0  0  0  0  0
  -25.3750  -15.2500   20.3130 N   0  0  0  0  0  0  0  0  0  0  0  0
  -24.6160  -15.9090   20.4410 H   0  0  0  0  0  0  0  0  0  0  0  0
  -26.2260  -15.6780   19.9730 H   0  0  0  0  0  0  0  0  0  0  0  0
  1  7  1  0
  1  2  2  0
  2  5  1  0
  2  4  1  0
  3  1  1  0
  3 51  1  0
  6  3  1  0
  8  7  2  0
  9  8  1  0
  9 10  1  0
 11 22  2  0
 12 10  1  0
 12 17  1  0
 13 21  1  0
 13 23  1  0
 14 20  1  0
 14 16  1  0
 15 21  1  0
 16 15  1  0
 17 16  2  0
 18 12  2  0
 19 18  1  0
 19 14  2  0
 20 13  1  0
 21 11  1  0
 23 25  2  0
 24 23  1  0
 26 24  1  0
 27 36  2  0
 27 32  1  0
 28 24  1  0
 28 32  1  0
 29 28  1  0
 30 31  1  0
 30 29  1  0
 31 27  1  0
 32 33  2  0
 33 34  1  0
 35 34  2  0
 36 35  1  0
 37 11  1  0
 37 38  1  0
 37 47  1  0
 38 41  1  0
 39 43  1  0
 39 38  1  0
 40 39  2  0
 43 42  1  0
 45 43  1  0
 45 46  1  0
 45 44  1  0
 47 50  1  1
 47 48  1  0
 49 47  1  0
 52 51  1  0
 52 53  1  0
 54 53  1  0
 55 60  1  0
 56 57  1  0
 56 55  1  0
 58 57  1  0
 58 65  1  0
 58 59  1  0
 60 54  1  0
 60 59  1  0
 61 54  2  0
 62 63  2  0
 63 82  1  0
 64 63  1  0
 64 67  1  0
 65 62  1  0
 65 66  1  0
 66 64  2  0
 67 68  1  0
 68 69  2  0
 70 73  1  0
 70 69  1  0
 71 70  2  0
 72 71  1  0
 72 67  2  0
 73 74  1  0
 74 75  1  0
 75 76  2  0
 77 76  1  0
 77 81  1  0
 78 77  2  0
 79 74  2  0
 79 78  1  0
 80 79  1  0
 82 83  1  0
 83 86  1  0
 83 85  1  0
 84 82  2  0
 87 88  1  0
 87 62  1  0
 89 87  1  0
M  ISO  4   9 101  10 101  53 100  54 100
M  END
>  <TORSDO>  (19) 
F 21

>  <SCORE>  (19) 
-13.294

>  <name>  (19) 
18

>  <ligand_id>  (19) 
18

>  <original_smiles>  (19) 
[H]C(=C([H])C([H])([H])Oc1c([H])c([H])c2c(c1[H])C([H])([H])N(C(=O)C([H])(N([H])C(=O)C([H])(N([H])C([H])([H])[H])C([H])([H])[H])C(C([H])([H])[H])(C([H])([H])[H])C([H])([H])[H])C([H])(C(=O)N([H])C1([H])c3c([H])c([H])c([H])c([H])c3C([H])([H])C([H])([H])C1([H])[H])C2([H])[H])C(N([H])[H])=[N+]([H])C([H])([H])C([H])([H])C([H])([H])C(=O)N1C([H])([H])C([H])([H])C([H])([H])C([H])(n2nc(-c3c([H])c([H])c(Oc4c([H])c([H])c(F)c([H])c4F)c([H])c3[H])c(C(=O)N([H])[H])c2N([H])[H])C1([H])[H]

>  <smiles>  (19) 
[H]C(=C([H])C([H])([H])Oc1c([H])c([H])c2c(c1[H])C([H])([H])N(C(=O)C([H])(N([H])C(=O)C([H])(N([H])C([H])([H])[H])C([H])([H])[H])C(C([H])([H])[H])(C([H])([H])[H])C([H])([H])[H])C([H])(C(=O)N([H])C1([H])c3c([H])c([H])c([H])c([H])c3C([H])([H])C([H])([H])C1([H])[H])C2([H])[H])C(N([H])[H])=[N+]([H])C([H])([H])C([H])([H])C([H])([H])C(=O)N1C([H])([H])C([H])([H])C([H])([H])C([H])(n2nc(-c3c([H])c([H])c(Oc4c([H])c([H])c(F)c([H])c4F)c([H])c3[H])c(C(=O)N([H])[H])c2N([H])[H])C1([H])[H]

$$$$
19:0:0
     RDKit          3D

 93100  0  0  1  0  0  0  0  0999 V2000
  -30.7540  -21.8420   19.1630 C   0  0  0  0  0  1  0  0  0  0  0  0
  -29.2890  -21.7870   19.6430 C   0  0  0  0  0  3  0  0  0  0  0  0
  -29.0600  -20.5180   20.5140 C   0  0  0  0  0  0  0  0  0  0  0  0
  -29.1390  -19.2960   19.9370 N   0  0  0  0  0  0  0  0  0  0  0  0
  -28.8110  -20.6510   21.7140 O   0  0  0  0  0  0  0  0  0  0  0  0
  -29.3730  -19.2670   18.9540 H   0  0  0  0  0  0  0  0  0  0  0  0
  -27.3640  -17.7810   20.7670 C   0  0  0  0  0  1  0  0  0  0  0  0
  -28.8780  -17.9850   20.5850 C   0  0  0  0  0  3  0  0  0  0  0  0
  -29.5010  -16.7560   19.8680 C   0  0  0  0  0  0  0  0  0  0  0  0
  -29.6380  -16.9190   18.3490 C   0  0  0  0  0  1  0  0  0  0  0  0
  -29.8400  -15.7110   20.5550 N   0  0  0  0  0  0  0  0  0  0  0  0
  -30.5430  -14.6670   19.9450 C   0  0  0  0  0  0  0  0  0  0  0  0
  -30.3050  -12.4190   18.9320 C   0  0  0  0  0  2  0  0  0  0  0  0
  -29.2920  -12.4860   17.7700 C   0  0  0  0  0  2  0  0  0  0  0  0
  -27.8560  -12.2830   18.2880 C   0  0  0  0  0  2  0  0  0  0  0  0
  -27.5320  -13.1740   19.5170 C   0  0  0  0  0  3  0  0  0  0  0  0
  -28.6560  -13.1040   20.5740 C   0  0  0  0  0  2  0  0  0  0  0  0
  -29.9240  -13.4510   19.9130 N   0  0  0  0  0  0  0  0  0  0  0  0
  -31.6090  -14.8530   19.3560 O   0  0  0  0  0  0  0  0  0  0  0  0
  -25.1800  -13.6840   20.4200 C   0  0  0  0  0  0  0  0  0  0  0  0
  -24.1660  -12.8710   20.8500 C   0  0  0  0  0  0  0  0  0  0  0  0
  -24.6630  -11.5360   20.7480 C   0  0  0  0  0  0  0  0  0  0  0  0
  -26.2300  -12.8430   20.0900 N   0  0  0  0  0  0  0  0  0  0  0  0
  -25.9270  -11.5430   20.3410 N   0  0  0  0  0  0  0  0  0  0  0  0
  -23.9890  -10.2480   20.9560 C   0  0  0  0  0  0  0  0  0  0  0  0
  -24.4310   -9.3330   21.9370 C   0  0  0  0  0  3  0  0  0  0  0  0
  -23.7550   -8.1090   22.1320 C   0  0  0  0  0  3  0  0  0  0  0  0
  -22.6210   -7.7920   21.3450 C   0  0  0  0  0  0  0  0  0  0  0  0
  -22.2000   -8.6970   20.3550 C   0  0  0  0  0  3  0  0  0  0  0  0
  -22.8780   -9.9120   20.1590 C   0  0  0  0  0  3  0  0  0  0  0  0
  -21.9160   -6.6170   21.4470 O   0  0  0  0  0  0  0  0  0  0  0  0
  -21.7470   -5.9810   22.6510 C   0  0  0  0  0  0  0  0  0  0  0  0
  -21.1060   -6.6080   23.7410 C   0  0  0  0  0  3  0  0  0  0  0  0
  -20.8920   -5.8940   24.9360 C   0  0  0  0  0  3  0  0  0  0  0  0
  -21.3070   -4.5530   25.0410 C   0  0  0  0  0  0  0  0  0  0  0  0
  -21.9400   -3.9260   23.9540 C   0  0  0  0  0  3  0  0  0  0  0  0
  -22.1580   -4.6370   22.7610 C   0  0  0  0  0  0  0  0  0  0  0  0
  -22.7500   -4.0210   21.7100 F   0  0  0  0  0  0  0  0  0  0  0  0
  -21.0950   -3.8630   26.1860 F   0  0  0  0  0  0  0  0  0  0  0  0
  -22.7820  -13.2990   21.2400 C   0  0  0  0  0  0  0  0  0  0  0  0
  -22.1480  -12.5680   22.1510 N   0  0  0  0  0  0  0  0  0  0  0  0
  -22.2700  -14.3160   20.7740 O   0  0  0  0  0  0  0  0  0  0  0  0
  -22.5750  -11.7450   22.5480 H   0  0  0  0  0  0  0  0  0  0  0  0
  -21.2240  -12.8380   22.4570 H   0  0  0  0  0  0  0  0  0  0  0  0
  -25.2870  -15.0610   20.2640 N   0  0  0  0  0  0  0  0  0  0  0  0
  -24.5170  -15.6930   20.4530 H   0  0  0  0  0  0  0  0  0  0  0  0
  -26.1080  -15.5270   19.9010 H   0  0  0  0  0  0  0  0  0  0  0  0
  -28.8930  -23.0320   20.3780 N   0  0  0  0  0  4  0  0  0  0  0  0
  -27.9600  -22.8600   20.7220 H   0  0  0  0  0  0  0  0  0  0  0  0
  -29.4780  -23.0830   21.1970 H   0  0  0  0  0  0  0  0  0  0  0  0
  -28.9200  -24.3380   19.6330 C   0  0  0  0  0  2  0  0  0  0  0  0
  -28.4290  -25.5450   20.4890 C   0  0  0  0  0  2  0  0  0  0  0  0
  -28.4850  -26.8240   19.8120 O   0  0  0  0  0  0  0  0  0  0  0  0
  -24.6410  -31.8840   23.0770 C   0  0  0  0  0  0  0  0  0  0  0  0
  -27.3200  -27.5660   19.8460 C   0  0  0  0  0  0  0  0  0  0  0  0
  -23.4390  -30.5040   21.4140 C   0  0  0  0  0  3  0  0  0  0  0  0
  -24.9000  -29.0340   19.9260 C   0  0  0  0  0  0  0  0  0  0  0  0
  -25.9540  -30.9180   21.1880 C   0  0  0  0  0  2  0  0  0  0  0  0
  -26.0590  -29.5650   20.5090 C   0  0  0  0  0  0  0  0  0  0  0  0
  -27.2750  -28.8400   20.4610 C   0  0  0  0  0  3  0  0  0  0  0  0
  -26.1460  -27.0550   19.2510 C   0  0  0  0  0  3  0  0  0  0  0  0
  -24.9400  -27.7810   19.2920 C   0  0  0  0  0  3  0  0  0  0  0  0
  -23.6410  -29.8670   20.0140 C   0  0  0  0  0  2  0  0  0  0  0  0
  -24.6970  -31.1160   21.9510 N   0  0  0  0  0  0  0  0  0  0  0  0
  -23.5630  -32.1190   23.6410 O   0  0  0  0  0  0  0  0  0  0  0  0
  -22.8220  -29.4440   22.3550 C   0  0  0  0  0  0  0  0  0  0  0  0
  -21.4970  -29.2490   22.2520 N   0  0  0  0  0  0  0  0  0  0  0  0
  -23.5320  -28.8010   23.1340 O   0  0  0  0  0  0  0  0  0  0  0  0
  -20.9840  -29.8210   21.5970 H   0  0  0  0  0  0  0  0  0  0  0  0
  -18.1450  -28.0190   22.8110 C   0  0  0  0  0  0  0  0  0  0  0  0
  -20.7100  -28.2750   23.0080 C   0  0  0  0  0  3  0  0  0  0  0  0
  -20.7960  -26.8700   22.3670 C   0  0  0  0  0  2  0  0  0  0  0  0
  -19.6610  -26.5890   21.3770 C   0  0  0  0  0  2  0  0  0  0  0  0
  -18.3010  -26.7010   22.0730 C   0  0  0  0  0  2  0  0  0  0  0  0
  -19.2760  -28.7660   23.2370 C   0  0  0  0  0  0  0  0  0  0  0  0
  -19.0750  -30.0020   23.8890 C   0  0  0  0  0  3  0  0  0  0  0  0
  -17.7770  -30.4930   24.1180 C   0  0  0  0  0  3  0  0  0  0  0  0
  -16.6600  -29.7430   23.7090 C   0  0  0  0  0  3  0  0  0  0  0  0
  -16.8460  -28.5080   23.0620 C   0  0  0  0  0  3  0  0  0  0  0  0
  -25.9240  -32.5240   23.6960 C   0  0  0  0  0  3  0  0  0  0  0  0
  -25.5890  -33.9010   24.0810 N   0  0  0  0  0  0  0  0  0  0  0  0
  -25.8830  -34.9860   23.3530 C   0  0  0  0  0  0  0  0  0  0  0  0
  -26.5360  -34.9350   22.3060 O   0  0  0  0  0  0  0  0  0  0  0  0
  -25.0070  -34.0140   24.8970 H   0  0  0  0  0  0  0  0  0  0  0  0
  -24.1120  -36.7510   23.0850 C   0  0  0  0  0  1  0  0  0  0  0  0
  -25.3720  -36.3460   23.8660 C   0  0  0  0  0  3  0  0  0  0  0  0
  -27.4940  -37.2510   24.7070 C   0  0  0  0  0  1  0  0  0  0  0  0
  -26.3800  -37.4260   23.7790 N   0  0  0  0  0  0  0  0  0  0  0  0
  -25.9550  -38.3300   23.9600 H   0  0  0  0  0  0  0  0  0  0  0  0
  -26.4850  -31.7190   24.9320 C   0  0  1  0  0  0  0  0  0  0  0  0
  -25.4200  -31.4110   26.0100 C   0  0  0  0  0  1  0  0  0  0  0  0
  -27.0950  -30.3730   24.4730 C   0  0  0  0  0  1  0  0  0  0  0  0
  -27.6280  -32.5180   25.6030 C   0  0  0  0  0  1  0  0  0  0  0  0
  2  1  1  0
  2 48  1  0
  2  3  1  0
  3  5  2  0
  4  3  1  0
  4  8  1  0
  6  4  1  0
  8  7  1  0
  9 11  2  0
  9  8  1  0
 10  9  1  0
 12 11  1  0
 13 18  1  0
 14 15  1  0
 14 13  1  0
 16 15  1  0
 16 23  1  0
 16 17  1  0
 18 12  1  0
 18 17  1  0
 19 12  2  0
 20 21  2  0
 21 40  1  0
 22 21  1  0
 22 25  1  0
 23 24  1  0
 23 20  1  0
 24 22  2  0
 25 26  1  0
 26 27  2  0
 28 31  1  0
 28 27  1  0
 29 28  2  0
 30 29  1  0
 30 25  2  0
 31 32  1  0
 32 37  2  0
 32 33  1  0
 33 34  2  0
 34 35  1  0
 35 39  1  0
 36 35  2  0
 37 36  1  0
 38 37  1  0
 40 41  1  0
 41 44  1  0
 41 43  1  0
 42 40  2  0
 45 20  1  0
 45 46  1  0
 47 45  1  0
 48 49  1  0
 48 50  1  0
 51 48  1  0
 51 52  1  0
 53 55  1  0
 53 52  1  0
 54 65  2  0
 55 60  1  0
 56 64  1  0
 56 66  1  0
 57 63  1  0
 57 59  1  0
 58 64  1  0
 59 58  1  0
 60 59  2  0
 61 62  1  0
 61 55  2  0
 62 57  2  0
 63 56  1  0
 64 54  1  0
 66 68  2  0
 67 66  1  0
 69 67  1  0
 70 79  2  0
 70 75  1  0
 71 67  1  0
 71 75  1  0
 72 71  1  0
 73 74  1  0
 73 72  1  0
 74 70  1  0
 75 76  2  0
 76 77  1  0
 78 77  2  0
 79 78  1  0
 80 54  1  0
 80 81  1  0
 80 90  1  0
 81 84  1  0
 82 86  1  0
 82 81  1  0
 83 82  2  0
 86 85  1  0
 88 86  1  0
 88 89  1  0
 88 87  1  0
 90 93  1  1
 90 91  1  0
 92 90  1  0
M  ISO  4  11 100  12 100  52 101  53 101
M  END
>  <TORSDO>  (20) 
F 22

>  <SCORE>  (20) 
-11.609

>  <name>  (20) 
19

>  <ligand_id>  (20) 
19

>  <original_smiles>  (20) 
[H]c1c([H])c([H])c2c(c1[H])C([H])([H])C([H])([H])C([H])([H])C2([H])N([H])C(=O)C1([H])N(C(=O)C([H])(N([H])C(=O)C([H])(N([H])C([H])([H])[H])C([H])([H])[H])C(C([H])([H])[H])(C([H])([H])[H])C([H])([H])[H])C([H])([H])c2c([H])c(OC([H])([H])C([H])([H])[N+]([H])([H])C([H])(C(=O)N([H])C([H])(C(=NC(=O)N3C([H])([H])C([H])([H])C([H])([H])C([H])(n4nc(-c5c([H])c([H])c(Oc6c([H])c([H])c(F)c([H])c6F)c([H])c5[H])c(C(=O)N([H])[H])c4N([H])[H])C3([H])[H])C([H])([H])[H])C([H])([H])[H])C([H])([H])[H])c([H])c([H])c2C1([H])[H]

>  <smiles>  (20) 
[H]c1c([H])c([H])c2c(c1[H])C([H])([H])C([H])([H])C([H])([H])C2([H])N([H])C(=O)C1([H])N(C(=O)C([H])(N([H])C(=O)C([H])(N([H])C([H])([H])[H])C([H])([H])[H])C(C([H])([H])[H])(C([H])([H])[H])C([H])([H])[H])C([H])([H])c2c([H])c(OC([H])([H])C([H])([H])[N+]([H])([H])C([H])(C(=O)N([H])C([H])(C(=NC(=O)N3C([H])([H])C([H])([H])C([H])([H])C([H])(n4nc(-c5c([H])c([H])c(Oc6c([H])c([H])c(F)c([H])c6F)c([H])c5[H])c(C(=O)N([H])[H])c4N([H])[H])C3([H])[H])C([H])([H])[H])C([H])([H])[H])C([H])([H])[H])c([H])c([H])c2C1([H])[H]

$$$$
20:0:0
     RDKit          3D

 88 95  0  0  1  0  0  0  0  0999 V2000
  -30.1750  -20.4540   19.4370 C   0  0  0  0  0  3  0  0  0  0  0  0
  -29.8250  -21.7710   19.3440 C   0  0  0  0  0  3  0  0  0  0  0  0
  -30.0370  -19.5420   20.5810 C   0  0  0  0  0  0  0  0  0  0  0  0
  -30.3980  -18.2660   20.2790 N   0  0  0  0  0  0  0  0  0  0  0  0
  -29.6830  -19.8750   21.7130 O   0  0  0  0  0  0  0  0  0  0  0  0
  -30.6590  -18.1040   19.3160 H   0  0  0  0  0  0  0  0  0  0  0  0
  -30.7450  -17.1760   21.2370 C   0  0  0  0  0  2  0  0  0  0  0  0
  -29.9730  -15.7980   21.1340 C   0  0  0  0  0  2  0  0  0  0  0  0
  -30.6720  -14.5680   20.4600 C   0  0  0  0  0  0  0  0  0  0  0  0
  -30.3880  -12.3880   19.3010 C   0  0  0  0  0  2  0  0  0  0  0  0
  -29.4420  -12.5630   18.0930 C   0  0  0  0  0  2  0  0  0  0  0  0
  -27.9670  -12.4240   18.5230 C   0  0  0  0  0  2  0  0  0  0  0  0
  -27.6250  -13.2740   19.7750 C   0  0  0  0  0  3  0  0  0  0  0  0
  -28.6840  -13.0760   20.8840 C   0  0  0  0  0  2  0  0  0  0  0  0
  -30.0050  -13.3830   20.3200 N   0  0  0  0  0  0  0  0  0  0  0  0
  -31.7980  -14.7230   19.9800 O   0  0  0  0  0  0  0  0  0  0  0  0
  -25.2270  -13.8810   20.4870 C   0  0  0  0  0  0  0  0  0  0  0  0
  -24.1580  -13.1120   20.8550 C   0  0  0  0  0  0  0  0  0  0  0  0
  -24.6150  -11.7600   20.8340 C   0  0  0  0  0  0  0  0  0  0  0  0
  -26.2720  -12.9990   20.2590 N   0  0  0  0  0  0  0  0  0  0  0  0
  -25.9070  -11.7180   20.5290 N   0  0  0  0  0  0  0  0  0  0  0  0
  -23.8830  -10.5010   21.0290 C   0  0  0  0  0  0  0  0  0  0  0  0
  -24.3210   -9.5270   21.9550 C   0  0  0  0  0  3  0  0  0  0  0  0
  -23.5890   -8.3330   22.1360 C   0  0  0  0  0  3  0  0  0  0  0  0
  -22.4080   -8.1040   21.3930 C   0  0  0  0  0  0  0  0  0  0  0  0
  -21.9890   -9.0660   20.4580 C   0  0  0  0  0  3  0  0  0  0  0  0
  -22.7190  -10.2510   20.2730 C   0  0  0  0  0  3  0  0  0  0  0  0
  -21.6490   -6.9630   21.4860 O   0  0  0  0  0  0  0  0  0  0  0  0
  -21.6220   -6.2060   22.6290 C   0  0  0  0  0  0  0  0  0  0  0  0
  -21.2470   -6.7530   23.8750 C   0  0  0  0  0  3  0  0  0  0  0  0
  -21.1680   -5.9260   25.0140 C   0  0  0  0  0  3  0  0  0  0  0  0
  -21.4530   -4.5510   24.9070 C   0  0  0  0  0  0  0  0  0  0  0  0
  -21.8210   -4.0020   23.6660 C   0  0  0  0  0  3  0  0  0  0  0  0
  -21.9040   -4.8280   22.5290 C   0  0  0  0  0  0  0  0  0  0  0  0
  -22.2410   -4.2910   21.3330 F   0  0  0  0  0  0  0  0  0  0  0  0
  -21.3700   -3.7540   25.9970 F   0  0  0  0  0  0  0  0  0  0  0  0
  -22.7600  -13.5960   21.1210 C   0  0  0  0  0  0  0  0  0  0  0  0
  -22.0270  -12.9100   21.9910 N   0  0  0  0  0  0  0  0  0  0  0  0
  -22.3280  -14.6200   20.5920 O   0  0  0  0  0  0  0  0  0  0  0  0
  -22.3920  -12.0850   22.4440 H   0  0  0  0  0  0  0  0  0  0  0  0
  -21.0910  -13.2180   22.2110 H   0  0  0  0  0  0  0  0  0  0  0  0
  -25.3970  -15.2500   20.3050 N   0  0  0  0  0  0  0  0  0  0  0  0
  -24.6330  -15.9080   20.4130 H   0  0  0  0  0  0  0  0  0  0  0  0
  -26.2530  -15.6830   19.9810 H   0  0  0  0  0  0  0  0  0  0  0  0
  -29.1580  -22.7470   20.3340 C   0  0  0  0  0  2  0  0  0  0  0  0
  -29.2360  -24.2530   19.8860 C   0  0  0  0  0  2  0  0  0  0  0  0
  -28.3200  -25.2650   20.6500 C   0  0  0  0  0  2  0  0  0  0  0  0
  -28.4280  -26.6380   20.1760 O   0  0  0  0  0  0  0  0  0  0  0  0
  -24.6300  -31.8850   23.2260 C   0  0  0  0  0  0  0  0  0  0  0  0
  -27.2690  -27.4020   20.1690 C   0  0  0  0  0  0  0  0  0  0  0  0
  -23.4230  -30.4820   21.5860 C   0  0  0  0  0  3  0  0  0  0  0  0
  -24.8760  -28.9370   20.1620 C   0  0  0  0  0  0  0  0  0  0  0  0
  -25.9510  -30.8290   21.3880 C   0  0  0  0  0  2  0  0  0  0  0  0
  -26.0350  -29.4530   20.7520 C   0  0  0  0  0  0  0  0  0  0  0  0
  -27.2350  -28.6990   20.7460 C   0  0  0  0  0  3  0  0  0  0  0  0
  -26.0930  -26.9170   19.5560 C   0  0  0  0  0  3  0  0  0  0  0  0
  -24.9010  -27.6690   19.5560 C   0  0  0  0  0  3  0  0  0  0  0  0
  -23.6330  -29.7990   20.2070 C   0  0  0  0  0  2  0  0  0  0  0  0
  -24.6860  -31.0830   22.1240 N   0  0  0  0  0  0  0  0  0  0  0  0
  -23.5500  -32.1590   23.7680 O   0  0  0  0  0  0  0  0  0  0  0  0
  -22.7710  -29.4630   22.5500 C   0  0  0  0  0  0  0  0  0  0  0  0
  -21.4460  -29.2790   22.4220 N   0  0  0  0  0  0  0  0  0  0  0  0
  -23.4520  -28.8420   23.3700 O   0  0  0  0  0  0  0  0  0  0  0  0
  -20.9550  -29.8350   21.7360 H   0  0  0  0  0  0  0  0  0  0  0  0
  -18.0780  -28.0700   22.9180 C   0  0  0  0  0  0  0  0  0  0  0  0
  -20.6330  -28.3400   23.1990 C   0  0  0  0  0  3  0  0  0  0  0  0
  -20.7420  -26.9080   22.6290 C   0  0  0  0  0  2  0  0  0  0  0  0
  -19.6450  -26.5750   21.6120 C   0  0  0  0  0  2  0  0  0  0  0  0
  -18.2610  -26.7150   22.2520 C   0  0  0  0  0  2  0  0  0  0  0  0
  -19.1910  -28.8370   23.3500 C   0  0  0  0  0  0  0  0  0  0  0  0
  -18.9650  -30.1030   23.9330 C   0  0  0  0  0  3  0  0  0  0  0  0
  -17.6580  -30.6010   24.0910 C   0  0  0  0  0  3  0  0  0  0  0  0
  -16.5580  -29.8300   23.6750 C   0  0  0  0  0  3  0  0  0  0  0  0
  -16.7680  -28.5660   23.0950 C   0  0  0  0  0  3  0  0  0  0  0  0
  -25.9160  -32.5150   23.8440 C   0  0  0  0  0  3  0  0  0  0  0  0
  -25.6070  -33.9110   24.1830 N   0  0  0  0  0  0  0  0  0  0  0  0
  -25.9310  -34.9690   23.4260 C   0  0  0  0  0  0  0  0  0  0  0  0
  -26.5960  -34.8730   22.3920 O   0  0  0  0  0  0  0  0  0  0  0  0
  -25.0190  -34.0580   24.9900 H   0  0  0  0  0  0  0  0  0  0  0  0
  -24.1940  -36.7530   23.0860 C   0  0  0  0  0  1  0  0  0  0  0  0
  -25.4390  -36.3520   23.8920 C   0  0  0  0  0  3  0  0  0  0  0  0
  -27.5750  -37.2390   24.7130 C   0  0  0  0  0  1  0  0  0  0  0  0
  -26.4670  -37.4100   23.7780 N   0  0  0  0  0  0  0  0  0  0  0  0
  -26.0580  -38.3270   23.9340 H   0  0  0  0  0  0  0  0  0  0  0  0
  -26.4440  -31.7390   25.1130 C   0  0  1  0  0  0  0  0  0  0  0  0
  -25.3620  -31.4940   26.1890 C   0  0  0  0  0  1  0  0  0  0  0  0
  -27.0280  -30.3650   24.7080 C   0  0  0  0  0  1  0  0  0  0  0  0
  -27.5960  -32.5350   25.7720 C   0  0  0  0  0  1  0  0  0  0  0  0
  1  3  1  0
  2  1  2  0
  2 45  1  0
  3  5  2  0
  4  3  1  0
  4  7  1  0
  6  4  1  0
  8  7  1  0
  9  8  1  0
 10 15  1  0
 11 12  1  0
 11 10  1  0
 13 12  1  0
 13 20  1  0
 13 14  1  0
 15  9  1  0
 15 14  1  0
 16  9  2  0
 17 18  2  0
 18 37  1  0
 19 18  1  0
 19 22  1  0
 20 17  1  0
 20 21  1  0
 21 19  2  0
 22 23  1  0
 23 24  2  0
 25 28  1  0
 25 24  1  0
 26 25  2  0
 27 26  1  0
 27 22  2  0
 28 29  1  0
 29 30  1  0
 30 31  2  0
 32 31  1  0
 32 36  1  0
 33 32  2  0
 34 29  2  0
 34 33  1  0
 35 34  1  0
 37 38  1  0
 38 41  1  0
 38 40  1  0
 39 37  2  0
 42 43  1  0
 42 17  1  0
 44 42  1  0
 46 45  1  0
 46 47  1  0
 48 47  1  0
 49 60  2  0
 50 48  1  0
 50 55  1  0
 51 59  1  0
 51 61  1  0
 52 58  1  0
 52 54  1  0
 53 59  1  0
 54 53  1  0
 55 54  2  0
 56 57  1  0
 56 50  2  0
 57 52  2  0
 58 51  1  0
 59 49  1  0
 61 63  2  0
 62 61  1  0
 64 62  1  0
 65 74  2  0
 65 70  1  0
 66 62  1  0
 66 70  1  0
 67 66  1  0
 68 69  1  0
 68 67  1  0
 69 65  1  0
 70 71  2  0
 71 72  1  0
 73 72  2  0
 74 73  1  0
 75 49  1  0
 75 76  1  0
 75 85  1  0
 76 79  1  0
 77 81  1  0
 77 76  1  0
 78 77  2  0
 81 80  1  0
 83 81  1  0
 83 84  1  0
 83 82  1  0
 85 88  1  1
 85 86  1  0
 87 85  1  0
M  ISO  4   8 100   9 100  47 101  48 101
M  END
>  <TORSDO>  (21) 
F 22

>  <SCORE>  (21) 
-12.848

>  <name>  (21) 
20

>  <ligand_id>  (21) 
20

>  <original_smiles>  (21) 
[H]C(C(=O)N([H])C([H])([H])C([H])([H])C(=O)N1C([H])([H])C([H])([H])C([H])([H])C([H])(n2nc(-c3c([H])c([H])c(Oc4c([H])c([H])c(F)c([H])c4F)c([H])c3[H])c(C(=O)N([H])[H])c2N([H])[H])C1([H])[H])=C([H])C([H])([H])C([H])([H])C([H])([H])Oc1c([H])c([H])c2c(c1[H])C([H])([H])N(C(=O)C([H])(N([H])C(=O)C([H])(N([H])C([H])([H])[H])C([H])([H])[H])C(C([H])([H])[H])(C([H])([H])[H])C([H])([H])[H])C([H])(C(=O)N([H])C1([H])c3c([H])c([H])c([H])c([H])c3C([H])([H])C([H])([H])C1([H])[H])C2([H])[H]

>  <smiles>  (21) 
[H]C(C(=O)N([H])C([H])([H])C([H])([H])C(=O)N1C([H])([H])C([H])([H])C([H])([H])C([H])(n2nc(-c3c([H])c([H])c(Oc4c([H])c([H])c(F)c([H])c4F)c([H])c3[H])c(C(=O)N([H])[H])c2N([H])[H])C1([H])[H])=C([H])C([H])([H])C([H])([H])C([H])([H])Oc1c([H])c([H])c2c(c1[H])C([H])([H])N(C(=O)C([H])(N([H])C(=O)C([H])(N([H])C([H])([H])[H])C([H])([H])[H])C(C([H])([H])[H])(C([H])([H])[H])C([H])([H])[H])C([H])(C(=O)N([H])C1([H])c3c([H])c([H])c([H])c([H])c3C([H])([H])C([H])([H])C1([H])[H])C2([H])[H]

$$$$
21:0:0
     RDKit          3D

 92100  0  0  1  0  0  0  0  0999 V2000
  -28.8920  -21.4670   19.7790 C   0  0  0  0  0  3  0  0  0  0  0  0
  -27.3820  -21.4420   20.0950 C   0  0  0  0  0  0  0  0  0  0  0  0
  -24.5130  -23.1590   18.5580 C   0  0  0  0  0  2  0  0  0  0  0  0
  -25.3670  -22.8670   17.3330 C   0  0  0  0  0  2  0  0  0  0  0  0
  -25.0920  -22.2370   19.6320 C   0  0  0  0  0  2  0  0  0  0  0  0
  -26.7450  -22.5330   17.9120 C   0  0  0  0  0  2  0  0  0  0  0  0
  -26.4920  -22.0210   19.2590 N   0  0  0  0  0  0  0  0  0  0  0  0
  -27.0200  -20.9350   21.1630 O   0  0  0  0  0  0  0  0  0  0  0  0
  -29.6880  -18.6720   20.0650 C   0  0  0  0  0  0  0  0  0  0  0  0
  -29.4100  -20.0560   20.5020 N   0  0  0  0  0  0  0  0  0  0  0  0
  -29.9310  -18.5530   18.8640 O   0  0  0  0  0  0  0  0  0  0  0  0
  -29.2470  -20.1020   21.5010 H   0  0  0  0  0  0  0  0  0  0  0  0
  -29.6170  -17.1640   20.9360 C   0  0  0  0  0  2  0  0  0  0  0  0
  -30.4400  -15.6370   20.7080 C   0  0  0  0  0  0  0  0  0  0  0  0
  -30.6550  -13.0890   20.2250 C   0  0  0  0  0  2  0  0  0  0  0  0
  -29.9170  -12.6730   18.9270 C   0  0  0  0  0  2  0  0  0  0  0  0
  -28.4360  -12.3750   19.2110 C   0  0  0  0  0  2  0  0  0  0  0  0
  -27.8000  -13.4570   20.1180 C   0  0  0  0  0  3  0  0  0  0  0  0
  -28.6760  -13.8230   21.3340 C   0  0  0  0  0  2  0  0  0  0  0  0
  -29.9690  -14.2980   20.8190 N   0  0  0  0  0  0  0  0  0  0  0  0
  -31.6590  -15.6650   20.4730 O   0  0  0  0  0  0  0  0  0  0  0  0
  -25.3750  -14.0010   20.6910 C   0  0  0  0  0  0  0  0  0  0  0  0
  -24.2830  -13.2200   20.9390 C   0  0  0  0  0  0  0  0  0  0  0  0
  -24.7460  -11.8680   20.8950 C   0  0  0  0  0  0  0  0  0  0  0  0
  -26.4310  -13.1310   20.4980 N   0  0  0  0  0  0  0  0  0  0  0  0
  -26.0580  -11.8370   20.6900 N   0  0  0  0  0  0  0  0  0  0  0  0
  -24.0000  -10.6040   20.9760 C   0  0  0  0  0  0  0  0  0  0  0  0
  -24.4140   -9.5520   21.8230 C   0  0  0  0  0  3  0  0  0  0  0  0
  -23.6670   -8.3570   21.9000 C   0  0  0  0  0  3  0  0  0  0  0  0
  -22.4920   -8.2030   21.1260 C   0  0  0  0  0  0  0  0  0  0  0  0
  -22.0950   -9.2440   20.2680 C   0  0  0  0  0  3  0  0  0  0  0  0
  -22.8420  -10.4320   20.1890 C   0  0  0  0  0  3  0  0  0  0  0  0
  -21.7190   -7.0670   21.1130 O   0  0  0  0  0  0  0  0  0  0  0  0
  -21.7400   -6.1710   22.1520 C   0  0  0  0  0  0  0  0  0  0  0  0
  -21.4460   -6.5600   23.4770 C   0  0  0  0  0  3  0  0  0  0  0  0
  -21.4110   -5.5940   24.5030 C   0  0  0  0  0  3  0  0  0  0  0  0
  -21.6590   -4.2410   24.2050 C   0  0  0  0  0  0  0  0  0  0  0  0
  -21.9470   -3.8510   22.8860 C   0  0  0  0  0  3  0  0  0  0  0  0
  -21.9830   -4.8130   21.8620 C   0  0  0  0  0  0  0  0  0  0  0  0
  -22.2410   -4.4290   20.5880 F   0  0  0  0  0  0  0  0  0  0  0  0
  -21.6190   -3.3120   25.1880 F   0  0  0  0  0  0  0  0  0  0  0  0
  -22.8690  -13.6970   21.1090 C   0  0  0  0  0  0  0  0  0  0  0  0
  -22.0780  -12.9980   21.9120 N   0  0  0  0  0  0  0  0  0  0  0  0
  -22.4750  -14.7280   20.5660 O   0  0  0  0  0  0  0  0  0  0  0  0
  -22.4070  -12.1620   22.3730 H   0  0  0  0  0  0  0  0  0  0  0  0
  -21.1290  -13.3060   22.0720 H   0  0  0  0  0  0  0  0  0  0  0  0
  -25.5550  -15.3780   20.5810 N   0  0  0  0  0  0  0  0  0  0  0  0
  -24.7830  -16.0300   20.6430 H   0  0  0  0  0  0  0  0  0  0  0  0
  -26.4310  -15.8230   20.3380 H   0  0  0  0  0  0  0  0  0  0  0  0
  -29.2390  -23.1900   20.1430 C   0  0  0  0  0  3  0  0  0  0  0  0
  -28.3240  -24.6970   19.7770 C   0  0  0  0  0  3  0  0  0  0  0  0
  -28.5300  -26.3030   20.0510 O   0  0  0  0  0  0  0  0  0  0  0  0
  -24.7530  -31.9370   23.3210 C   0  0  0  0  0  0  0  0  0  0  0  0
  -27.4840  -27.3600   20.0330 C   0  0  0  0  0  0  0  0  0  0  0  0
  -23.6180  -30.6230   21.5770 C   0  0  0  0  0  3  0  0  0  0  0  0
  -25.1290  -29.1570   20.0720 C   0  0  0  0  0  0  0  0  0  0  0  0
  -26.1770  -30.9200   21.4770 C   0  0  0  0  0  2  0  0  0  0  0  0
  -26.2960  -29.5600   20.7320 C   0  0  0  0  0  0  0  0  0  0  0  0
  -27.4690  -28.6860   20.6860 C   0  0  0  0  0  3  0  0  0  0  0  0
  -26.2840  -27.1050   19.3330 C   0  0  0  0  0  3  0  0  0  0  0  0
  -25.1460  -27.9510   19.3540 C   0  0  0  0  0  3  0  0  0  0  0  0
  -23.8830  -30.0370   20.1620 C   0  0  0  0  0  2  0  0  0  0  0  0
  -24.8700  -31.1820   22.1820 N   0  0  0  0  0  0  0  0  0  0  0  0
  -23.6510  -32.1620   23.8460 O   0  0  0  0  0  0  0  0  0  0  0  0
  -22.9420  -29.5470   22.4650 C   0  0  0  0  0  0  0  0  0  0  0  0
  -21.6150  -29.3710   22.3280 N   0  0  0  0  0  0  0  0  0  0  0  0
  -23.6190  -28.8720   23.2460 O   0  0  0  0  0  0  0  0  0  0  0  0
  -21.1180  -29.9770   21.6890 H   0  0  0  0  0  0  0  0  0  0  0  0
  -18.2520  -28.0800   22.7500 C   0  0  0  0  0  0  0  0  0  0  0  0
  -20.8090  -28.3610   23.0210 C   0  0  0  0  0  3  0  0  0  0  0  0
  -20.9280  -26.9820   22.3280 C   0  0  0  0  0  2  0  0  0  0  0  0
  -19.8210  -26.7240   21.3030 C   0  0  0  0  0  2  0  0  0  0  0  0
  -18.4450  -26.7910   21.9700 C   0  0  0  0  0  2  0  0  0  0  0  0
  -19.3620  -28.8240   23.2310 C   0  0  0  0  0  0  0  0  0  0  0  0
  -19.1260  -30.0280   23.9300 C   0  0  0  0  0  3  0  0  0  0  0  0
  -17.8140  -30.4910   24.1500 C   0  0  0  0  0  3  0  0  0  0  0  0
  -16.7200  -29.7440   23.6800 C   0  0  0  0  0  3  0  0  0  0  0  0
  -16.9400  -28.5390   22.9880 C   0  0  0  0  0  3  0  0  0  0  0  0
  -25.9980  -32.5700   24.0120 C   0  0  0  0  0  3  0  0  0  0  0  0
  -25.6590  -33.9560   24.3780 N   0  0  0  0  0  0  0  0  0  0  0  0
  -26.0020  -35.0430   23.6720 C   0  0  0  0  0  0  0  0  0  0  0  0
  -26.6990  -34.9830   22.6570 O   0  0  0  0  0  0  0  0  0  0  0  0
  -25.0380  -34.0740   25.1650 H   0  0  0  0  0  0  0  0  0  0  0  0
  -24.2560  -36.8310   23.3600 C   0  0  0  0  0  1  0  0  0  0  0  0
  -25.4920  -36.4100   24.1700 C   0  0  0  0  0  3  0  0  0  0  0  0
  -27.6060  -37.2980   25.0560 C   0  0  0  0  0  1  0  0  0  0  0  0
  -26.5120  -37.4800   24.1050 N   0  0  0  0  0  0  0  0  0  0  0  0
  -26.0910  -38.3890   24.2760 H   0  0  0  0  0  0  0  0  0  0  0  0
  -26.4680  -31.7710   25.2920 C   0  0  1  0  0  0  0  0  0  0  0  0
  -25.3370  -31.5090   26.3150 C   0  0  0  0  0  1  0  0  0  0  0  0
  -27.0690  -30.4030   24.8990 C   0  0  0  0  0  1  0  0  0  0  0  0
  -27.5890  -32.5540   26.0150 C   0  0  0  0  0  1  0  0  0  0  0  0
  1  2  1  0
  1 50  1  0
  1 10  1  0
  2  8  2  0
  3  5  1  0
  4  6  1  0
  4  3  1  0
  6  7  1  0
  7  5  1  0
  7  2  1  0
  9 10  1  0
  9 13  1  0
 10 12  1  0
 11  9  2  0
 14 20  1  0
 14 13  1  0
 15 20  1  0
 16 17  1  0
 16 15  1  0
 18 17  1  0
 18 25  1  0
 18 19  1  0
 20 19  1  0
 21 14  2  0
 22 23  2  0
 23 42  1  0
 24 23  1  0
 24 27  1  0
 25 26  1  0
 25 22  1  0
 26 24  2  0
 27 28  1  0
 28 29  2  0
 30 29  1  0
 31 30  2  0
 32 31  1  0
 32 27  2  0
 33 30  1  0
 33 34  1  0
 34 35  1  0
 35 36  2  0
 37 36  1  0
 37 41  1  0
 38 37  2  0
 39 34  2  0
 39 38  1  0
 40 39  1  0
 42 43  1  0
 43 46  1  0
 43 45  1  0
 44 42  2  0
 47 48  1  0
 47 22  1  0
 49 47  1  0
 51 52  1  0
 51 50  2  0
 53 64  2  0
 54 52  1  0
 54 59  1  0
 55 63  1  0
 55 65  1  0
 56 62  1  0
 56 58  1  0
 57 63  1  0
 58 57  1  0
 59 58  2  0
 60 61  1  0
 60 54  2  0
 61 56  2  0
 62 55  1  0
 63 53  1  0
 65 67  2  0
 66 65  1  0
 68 66  1  0
 69 78  2  0
 69 74  1  0
 70 66  1  0
 70 74  1  0
 71 70  1  0
 72 73  1  0
 72 71  1  0
 73 69  1  0
 74 75  2  0
 75 76  1  0
 77 76  2  0
 78 77  1  0
 79 53  1  0
 79 80  1  0
 79 89  1  0
 80 83  1  0
 81 85  1  0
 81 80  1  0
 82 81  2  0
 85 84  1  0
 87 85  1  0
 87 88  1  0
 87 86  1  0
 89 92  1  1
 89 90  1  0
 91 89  1  0
M  ISO  4  13 100  14 100  51 101  52 101
M  END
>  <TORSDO>  (22) 
F 21

>  <SCORE>  (22) 
-12.894

>  <name>  (22) 
21

>  <ligand_id>  (22) 
21

>  <original_smiles>  (22) 
[H]c1c([H])c([H])c2c(c1[H])C([H])([H])C([H])([H])C([H])([H])C2([H])N([H])C(=O)C1([H])N(C(=O)C([H])(N([H])C(=O)C([H])(N([H])C([H])([H])[H])C([H])([H])[H])C(C([H])([H])[H])(C([H])([H])[H])C([H])([H])[H])C([H])([H])c2c([H])c(OC([H])([H])C([H])([H])C([H])(C(=O)N3C([H])([H])C([H])([H])C([H])([H])C3([H])[H])N([H])C(=O)C([H])([H])C(=O)N3C([H])([H])C([H])([H])C([H])([H])C([H])(n4nc(-c5c([H])c([H])c(Oc6c([H])c([H])c(F)c([H])c6F)c([H])c5[H])c(C(=O)N([H])[H])c4N([H])[H])C3([H])[H])c([H])c([H])c2C1([H])[H]

>  <smiles>  (22) 
[H]c1c([H])c([H])c2c(c1[H])C([H])([H])C([H])([H])C([H])([H])C2([H])N([H])C(=O)C1([H])N(C(=O)C([H])(N([H])C(=O)C([H])(N([H])C([H])([H])[H])C([H])([H])[H])C(C([H])([H])[H])(C([H])([H])[H])C([H])([H])[H])C([H])([H])c2c([H])c(OC([H])([H])C([H])([H])C([H])(C(=O)N3C([H])([H])C([H])([H])C([H])([H])C3([H])[H])N([H])C(=O)C([H])([H])C(=O)N3C([H])([H])C([H])([H])C([H])([H])C([H])(n4nc(-c5c([H])c([H])c(Oc6c([H])c([H])c(F)c([H])c6F)c([H])c5[H])c(C(=O)N([H])[H])c4N([H])[H])C3([H])[H])c([H])c([H])c2C1([H])[H]

$$$$
22:0:0
     RDKit          3D

 95102  0  0  1  0  0  0  0  0999 V2000
  -28.3890  -22.1000   19.6140 C   0  0  0  0  0  0  0  0  0  0  0  0
  -27.2040  -21.1720   19.4130 C   0  0  0  0  0  1  0  0  0  0  0  0
  -28.1390  -23.3560   19.6110 N   0  0  0  0  0  0  0  0  0  0  0  0
  -29.5150  -24.9370   18.3680 C   0  0  0  0  0  1  0  0  0  0  0  0
  -29.1150  -24.4240   19.7720 C   0  0  0  0  0  3  0  0  0  0  0  0
  -28.4570  -25.5140   20.6740 C   0  0  0  0  0  0  0  0  0  0  0  0
  -27.9520  -25.2600   21.7720 O   0  0  0  0  0  0  0  0  0  0  0  0
  -28.3990  -26.7320   20.0760 O   0  0  0  0  0  0  0  0  0  0  0  0
  -24.5750  -31.8800   23.2480 C   0  0  0  0  0  0  0  0  0  0  0  0
  -27.2330  -27.4590   20.1600 C   0  0  0  0  0  0  0  0  0  0  0  0
  -23.3710  -30.4780   21.6060 C   0  0  0  0  0  3  0  0  0  0  0  0
  -24.8300  -28.9440   20.1870 C   0  0  0  0  0  0  0  0  0  0  0  0
  -25.8950  -30.8490   21.4050 C   0  0  0  0  0  2  0  0  0  0  0  0
  -25.9890  -29.4760   20.7700 C   0  0  0  0  0  0  0  0  0  0  0  0
  -27.1980  -28.7420   20.7520 C   0  0  0  0  0  3  0  0  0  0  0  0
  -26.0580  -26.9380   19.5750 C   0  0  0  0  0  3  0  0  0  0  0  0
  -24.8580  -27.6710   19.5920 C   0  0  0  0  0  3  0  0  0  0  0  0
  -23.5820  -29.7970   20.2300 C   0  0  0  0  0  2  0  0  0  0  0  0
  -24.6330  -31.0820   22.1460 N   0  0  0  0  0  0  0  0  0  0  0  0
  -23.4940  -32.1470   23.7900 O   0  0  0  0  0  0  0  0  0  0  0  0
  -22.7240  -29.4530   22.5630 C   0  0  0  0  0  0  0  0  0  0  0  0
  -21.4000  -29.2690   22.4350 N   0  0  0  0  0  0  0  0  0  0  0  0
  -23.4090  -28.8260   23.3730 O   0  0  0  0  0  0  0  0  0  0  0  0
  -20.9090  -29.8310   21.7530 H   0  0  0  0  0  0  0  0  0  0  0  0
  -18.0250  -28.0830   22.9300 C   0  0  0  0  0  0  0  0  0  0  0  0
  -20.5820  -28.3310   23.2020 C   0  0  0  0  0  3  0  0  0  0  0  0
  -20.6780  -26.9010   22.6220 C   0  0  0  0  0  2  0  0  0  0  0  0
  -19.5760  -26.5850   21.6080 C   0  0  0  0  0  2  0  0  0  0  0  0
  -18.1950  -26.7330   22.2540 C   0  0  0  0  0  2  0  0  0  0  0  0
  -19.1450  -28.8390   23.3620 C   0  0  0  0  0  0  0  0  0  0  0  0
  -18.9310  -30.1040   23.9530 C   0  0  0  0  0  3  0  0  0  0  0  0
  -17.6280  -30.6080   24.1210 C   0  0  0  0  0  3  0  0  0  0  0  0
  -16.5200  -29.8470   23.7060 C   0  0  0  0  0  3  0  0  0  0  0  0
  -16.7200  -28.5870   23.1160 C   0  0  0  0  0  3  0  0  0  0  0  0
  -25.8590  -32.5130   23.8690 C   0  0  0  0  0  3  0  0  0  0  0  0
  -26.3740  -31.7470   25.1490 C   0  0  1  0  0  0  0  0  0  0  0  0
  -25.2780  -31.5050   26.2140 C   0  0  0  0  0  1  0  0  0  0  0  0
  -26.9630  -30.3710   24.7580 C   0  0  0  0  0  1  0  0  0  0  0  0
  -27.5200  -32.5460   25.8120 C   0  0  0  0  0  1  0  0  0  0  0  0
  -25.5500  -33.9130   24.1890 N   0  0  0  0  0  0  0  0  0  0  0  0
  -25.8940  -34.9590   23.4260 C   0  0  0  0  0  0  0  0  0  0  0  0
  -26.5740  -34.8480   22.4030 O   0  0  0  0  0  0  0  0  0  0  0  0
  -24.9420  -34.0720   24.9780 H   0  0  0  0  0  0  0  0  0  0  0  0
  -24.1780  -36.7570   23.0370 C   0  0  0  0  0  1  0  0  0  0  0  0
  -25.4040  -36.3520   23.8690 C   0  0  0  0  0  3  0  0  0  0  0  0
  -27.5300  -37.2320   24.7280 C   0  0  0  0  0  1  0  0  0  0  0  0
  -26.4420  -37.3990   23.7680 N   0  0  0  0  0  0  0  0  0  0  0  0
  -26.0390  -38.3220   23.9060 H   0  0  0  0  0  0  0  0  0  0  0  0
  -29.7840  -21.4370   19.7330 C   0  0  0  0  0  3  0  0  0  0  0  0
  -30.4810  -21.5190   18.4310 N   0  0  0  0  0  4  0  0  0  0  0  0
  -31.4180  -21.1610   18.4870 H   0  0  0  0  0  0  0  0  0  0  0  0
  -30.5350  -22.4780   18.1390 H   0  0  0  0  0  0  0  0  0  0  0  0
  -29.9850  -21.0080   17.7210 H   0  0  0  0  0  0  0  0  0  0  0  0
  -29.8230  -19.9920   20.3400 C   0  0  0  0  0  3  0  0  0  0  0  0
  -29.5580  -18.8190   19.3550 C   0  0  0  0  0  3  0  0  0  0  0  0
  -29.1740  -17.4530   19.9750 C   0  0  0  0  0  2  0  0  0  0  0  0
  -30.1800  -16.8580   20.9850 C   0  0  0  0  0  2  0  0  0  0  0  0
  -30.6720  -14.4430   20.5650 C   0  0  0  0  0  0  0  0  0  0  0  0
  -30.3840  -12.3320   19.3370 C   0  0  0  0  0  2  0  0  0  0  0  0
  -29.4330  -12.5790   18.1430 C   0  0  0  0  0  2  0  0  0  0  0  0
  -27.9590  -12.4310   18.5680 C   0  0  0  0  0  2  0  0  0  0  0  0
  -27.6280  -13.2300   19.8540 C   0  0  0  0  0  3  0  0  0  0  0  0
  -28.6760  -12.9550   20.9540 C   0  0  0  0  0  2  0  0  0  0  0  0
  -30.0110  -13.2690   20.4090 N   0  0  0  0  0  0  0  0  0  0  0  0
  -31.7790  -14.6700   20.0660 O   0  0  0  0  0  0  0  0  0  0  0  0
  -29.9520  -15.4150   21.1500 N   0  0  0  0  0  0  0  0  0  0  0  0
  -29.0740  -15.1330   21.5590 H   0  0  0  0  0  0  0  0  0  0  0  0
  -25.2170  -13.8230   20.5290 C   0  0  0  0  0  0  0  0  0  0  0  0
  -24.1540  -13.0440   20.8920 C   0  0  0  0  0  0  0  0  0  0  0  0
  -24.6280  -11.6950   20.8740 C   0  0  0  0  0  0  0  0  0  0  0  0
  -26.2720  -12.9500   20.3160 N   0  0  0  0  0  0  0  0  0  0  0  0
  -25.9200  -11.6640   20.5770 N   0  0  0  0  0  0  0  0  0  0  0  0
  -23.9140  -10.4270   21.0630 C   0  0  0  0  0  0  0  0  0  0  0  0
  -24.3510   -9.4640   22.0010 C   0  0  0  0  0  3  0  0  0  0  0  0
  -23.6330   -8.2620   22.1770 C   0  0  0  0  0  3  0  0  0  0  0  0
  -22.4680   -8.0110   21.4150 C   0  0  0  0  0  0  0  0  0  0  0  0
  -22.0520   -8.9610   20.4650 C   0  0  0  0  0  3  0  0  0  0  0  0
  -22.7690  -10.1560   20.2860 C   0  0  0  0  0  3  0  0  0  0  0  0
  -21.7260   -6.8570   21.4980 O   0  0  0  0  0  0  0  0  0  0  0  0
  -21.6810   -6.1130   22.6480 C   0  0  0  0  0  0  0  0  0  0  0  0
  -21.2460   -6.6610   23.8750 C   0  0  0  0  0  3  0  0  0  0  0  0
  -21.1480   -5.8410   25.0170 C   0  0  0  0  0  3  0  0  0  0  0  0
  -21.4800   -4.4760   24.9340 C   0  0  0  0  0  0  0  0  0  0  0  0
  -21.9080   -3.9270   23.7130 C   0  0  0  0  0  3  0  0  0  0  0  0
  -22.0070   -4.7430   22.5730 C   0  0  0  0  0  0  0  0  0  0  0  0
  -22.4020   -4.2060   21.3940 F   0  0  0  0  0  0  0  0  0  0  0  0
  -21.3800   -3.6860   26.0290 F   0  0  0  0  0  0  0  0  0  0  0  0
  -22.7490  -13.5070   21.1550 C   0  0  0  0  0  0  0  0  0  0  0  0
  -22.0240  -12.8040   22.0140 N   0  0  0  0  0  0  0  0  0  0  0  0
  -22.3060  -14.5270   20.6260 O   0  0  0  0  0  0  0  0  0  0  0  0
  -22.4020  -11.9800   22.4580 H   0  0  0  0  0  0  0  0  0  0  0  0
  -21.0790  -13.0900   22.2340 H   0  0  0  0  0  0  0  0  0  0  0  0
  -25.3790  -15.1940   20.3480 N   0  0  0  0  0  0  0  0  0  0  0  0
  -24.6080  -15.8490   20.4350 H   0  0  0  0  0  0  0  0  0  0  0  0
  -26.2380  -15.6240   20.0320 H   0  0  0  0  0  0  0  0  0  0  0  0
  1 49  1  0
  2  1  1  0
  3  1  2  0
  3  5  1  0
  5  4  1  0
  5  6  1  0
  6  7  2  0
  8 10  1  0
  8  6  1  0
  9 20  2  0
 10 15  1  0
 11 19  1  0
 11 21  1  0
 12 18  1  0
 12 14  1  0
 13 19  1  0
 14 13  1  0
 15 14  2  0
 16 17  1  0
 16 10  2  0
 17 12  2  0
 18 11  1  0
 19  9  1  0
 21 23  2  0
 22 21  1  0
 24 22  1  0
 25 34  2  0
 25 30  1  0
 26 22  1  0
 26 30  1  0
 27 26  1  0
 28 29  1  0
 28 27  1  0
 29 25  1  0
 30 31  2  0
 31 32  1  0
 33 32  2  0
 34 33  1  0
 35  9  1  0
 35 40  1  0
 35 36  1  0
 36 39  1  1
 36 37  1  0
 38 36  1  0
 40 43  1  0
 41 45  1  0
 41 40  1  0
 42 41  2  0
 45 44  1  0
 47 45  1  0
 47 48  1  0
 47 46  1  0
 49 54  1  0
 50 51  1  0
 50 49  1  0
 52 50  1  0
 53 50  1  0
 55 56  1  0
 55 54  2  0
 56 57  1  0
 57 66  1  0
 58 66  1  0
 59 64  1  0
 60 61  1  0
 60 59  1  0
 62 61  1  0
 62 71  1  0
 62 63  1  0
 64 58  1  0
 64 63  1  0
 65 58  2  0
 66 67  1  0
 68 69  2  0
 69 88  1  0
 70 69  1  0
 70 73  1  0
 71 68  1  0
 71 72  1  0
 72 70  2  0
 73 74  1  0
 74 75  2  0
 76 79  1  0
 76 75  1  0
 77 76  2  0
 78 77  1  0
 78 73  2  0
 79 80  1  0
 80 81  1  0
 81 82  2  0
 83 82  1  0
 83 87  1  0
 84 83  2  0
 85 80  2  0
 85 84  1  0
 86 85  1  0
 88 89  1  0
 89 92  1  0
 89 91  1  0
 90 88  2  0
 93 94  1  0
 93 68  1  0
 95 93  1  0
M  ISO  4   6 101   8 101  58 100  66 100
M  END
>  <TORSDO>  (23) 
F 24

>  <SCORE>  (23) 
-12.595

>  <name>  (23) 
22

>  <ligand_id>  (23) 
22

>  <original_smiles>  (23) 
[H]c1c([H])c([H])c2c(c1[H])C([H])([H])C([H])([H])C([H])([H])C2([H])N([H])C(=O)C1([H])N(C(=O)C([H])(N([H])C(=O)C([H])(N([H])C([H])([H])[H])C([H])([H])[H])C(C([H])([H])[H])(C([H])([H])[H])C([H])([H])[H])C([H])([H])c2c([H])c(OC(=O)C([H])(N=C(C([H])([H])[H])C([H])(C([H])([H])C([H])([H])C([H])([H])C([H])([H])N([H])C(=O)N3C([H])([H])C([H])([H])C([H])([H])C([H])(n4nc(-c5c([H])c([H])c(Oc6c([H])c([H])c(F)c([H])c6F)c([H])c5[H])c(C(=O)N([H])[H])c4N([H])[H])C3([H])[H])[N+]([H])([H])[H])C([H])([H])[H])c([H])c([H])c2C1([H])[H]

>  <smiles>  (23) 
[H]c1c([H])c([H])c2c(c1[H])C([H])([H])C([H])([H])C([H])([H])C2([H])N([H])C(=O)C1([H])N(C(=O)C([H])(N([H])C(=O)C([H])(N([H])C([H])([H])[H])C([H])([H])[H])C(C([H])([H])[H])(C([H])([H])[H])C([H])([H])[H])C([H])([H])c2c([H])c(OC(=O)C([H])(N=C(C([H])([H])[H])C([H])(C([H])([H])C([H])([H])C([H])([H])C([H])([H])N([H])C(=O)N3C([H])([H])C([H])([H])C([H])([H])C([H])(n4nc(-c5c([H])c([H])c(Oc6c([H])c([H])c(F)c([H])c6F)c([H])c5[H])c(C(=O)N([H])[H])c4N([H])[H])C3([H])[H])[N+]([H])([H])[H])C([H])([H])[H])c([H])c([H])c2C1([H])[H]

$$$$
23:0:0
     RDKit          3D

 89 97  0  0  1  0  0  0  0  0999 V2000
  -31.2390  -22.5290   20.5540 C   0  0  0  0  0  3  0  0  0  0  0  0
  -30.2880  -23.5720   20.4510 C   0  0  0  0  0  3  0  0  0  0  0  0
  -30.8910  -21.1560   20.5500 C   0  0  0  0  0  3  0  0  0  0  0  0
  -28.5860  -21.8420   20.3410 C   0  0  0  0  0  3  0  0  0  0  0  0
  -28.9110  -23.3070   20.3390 C   0  0  0  0  0  0  0  0  0  0  0  0
  -29.5530  -20.7030   20.4420 C   0  0  0  0  0  0  0  0  0  0  0  0
  -30.0920  -17.9880   20.4040 C   0  0  0  0  0  0  0  0  0  0  0  0
  -29.2770  -19.1740   20.4880 N   0  0  0  0  0  0  0  0  0  0  0  0
  -31.2820  -18.1210   20.1160 O   0  0  0  0  0  0  0  0  0  0  0  0
  -28.3010  -18.9510   20.6370 H   0  0  0  0  0  0  0  0  0  0  0  0
  -29.5680  -16.4190   20.6560 C   0  0  0  0  0  2  0  0  0  0  0  0
  -30.4660  -15.0270   20.3580 C   0  0  0  0  0  0  0  0  0  0  0  0
  -30.3850  -12.6740   19.3760 C   0  0  0  0  0  2  0  0  0  0  0  0
  -29.4400  -12.6580   18.1500 C   0  0  0  0  0  2  0  0  0  0  0  0
  -27.9790  -12.4310   18.5840 C   0  0  0  0  0  2  0  0  0  0  0  0
  -27.5780  -13.3280   19.7830 C   0  0  0  0  0  3  0  0  0  0  0  0
  -28.6410  -13.3130   20.9010 C   0  0  0  0  0  2  0  0  0  0  0  0
  -29.9150  -13.7420   20.3090 N   0  0  0  0  0  0  0  0  0  0  0  0
  -31.6610  -15.0980   20.0420 O   0  0  0  0  0  0  0  0  0  0  0  0
  -25.2000  -13.8900   20.5440 C   0  0  0  0  0  0  0  0  0  0  0  0
  -24.1390  -13.1080   20.9100 C   0  0  0  0  0  0  0  0  0  0  0  0
  -24.6080  -11.7590   20.8600 C   0  0  0  0  0  0  0  0  0  0  0  0
  -26.2440  -13.0180   20.2850 N   0  0  0  0  0  0  0  0  0  0  0  0
  -25.8980  -11.7300   20.5430 N   0  0  0  0  0  0  0  0  0  0  0  0
  -23.8850  -10.4920   21.0390 C   0  0  0  0  0  0  0  0  0  0  0  0
  -24.3230   -9.5150   21.9590 C   0  0  0  0  0  3  0  0  0  0  0  0
  -23.5990   -8.3150   22.1260 C   0  0  0  0  0  3  0  0  0  0  0  0
  -22.4230   -8.0830   21.3740 C   0  0  0  0  0  0  0  0  0  0  0  0
  -22.0050   -9.0500   20.4430 C   0  0  0  0  0  3  0  0  0  0  0  0
  -22.7290  -10.2410   20.2730 C   0  0  0  0  0  3  0  0  0  0  0  0
  -21.6700   -6.9360   21.4510 O   0  0  0  0  0  0  0  0  0  0  0  0
  -21.6300   -6.1780   22.5940 C   0  0  0  0  0  0  0  0  0  0  0  0
  -21.2010   -6.7130   23.8280 C   0  0  0  0  0  3  0  0  0  0  0  0
  -21.1080   -5.8810   24.9620 C   0  0  0  0  0  3  0  0  0  0  0  0
  -21.4340   -4.5160   24.8620 C   0  0  0  0  0  0  0  0  0  0  0  0
  -21.8550   -3.9800   23.6320 C   0  0  0  0  0  3  0  0  0  0  0  0
  -21.9500   -4.8090   22.5010 C   0  0  0  0  0  0  0  0  0  0  0  0
  -22.3360   -4.2820   21.3140 F   0  0  0  0  0  0  0  0  0  0  0  0
  -21.3370   -3.7140   25.9490 F   0  0  0  0  0  0  0  0  0  0  0  0
  -22.7420  -13.5780   21.1910 C   0  0  0  0  0  0  0  0  0  0  0  0
  -22.0200  -12.8700   22.0510 N   0  0  0  0  0  0  0  0  0  0  0  0
  -22.3000  -14.6090   20.6830 O   0  0  0  0  0  0  0  0  0  0  0  0
  -22.3900  -12.0360   22.4820 H   0  0  0  0  0  0  0  0  0  0  0  0
  -21.0810  -13.1670   22.2830 H   0  0  0  0  0  0  0  0  0  0  0  0
  -25.3590  -15.2640   20.3840 N   0  0  0  0  0  0  0  0  0  0  0  0
  -24.5900  -15.9140   20.5090 H   0  0  0  0  0  0  0  0  0  0  0  0
  -26.2030  -15.7090   20.0480 H   0  0  0  0  0  0  0  0  0  0  0  0
  -27.8820  -24.5980   20.1730 C   0  0  0  0  0  2  0  0  0  0  0  0
  -28.2140  -26.1280   20.3170 O   0  0  0  0  0  0  0  0  0  0  0  0
  -24.6190  -31.8990   23.2510 C   0  0  0  0  0  0  0  0  0  0  0  0
  -27.1750  -27.1400   20.2440 C   0  0  0  0  0  0  0  0  0  0  0  0
  -23.4150  -30.5050   21.6160 C   0  0  0  0  0  3  0  0  0  0  0  0
  -24.8580  -28.9160   20.1990 C   0  0  0  0  0  0  0  0  0  0  0  0
  -25.9730  -30.7500   21.4570 C   0  0  0  0  0  2  0  0  0  0  0  0
  -26.0410  -29.3520   20.8090 C   0  0  0  0  0  0  0  0  0  0  0  0
  -27.2010  -28.4820   20.8120 C   0  0  0  0  0  3  0  0  0  0  0  0
  -25.9630  -26.8140   19.5940 C   0  0  0  0  0  3  0  0  0  0  0  0
  -24.8340  -27.6610   19.5760 C   0  0  0  0  0  3  0  0  0  0  0  0
  -23.6370  -29.8220   20.2400 C   0  0  0  0  0  2  0  0  0  0  0  0
  -24.6900  -31.0740   22.1630 N   0  0  0  0  0  0  0  0  0  0  0  0
  -23.5330  -32.1920   23.7750 O   0  0  0  0  0  0  0  0  0  0  0  0
  -22.7280  -29.5050   22.5810 C   0  0  0  0  0  0  0  0  0  0  0  0
  -21.3990  -29.3360   22.4490 N   0  0  0  0  0  0  0  0  0  0  0  0
  -23.3930  -28.8840   23.4140 O   0  0  0  0  0  0  0  0  0  0  0  0
  -20.9190  -29.8900   21.7520 H   0  0  0  0  0  0  0  0  0  0  0  0
  -18.0150  -28.1350   22.9320 C   0  0  0  0  0  0  0  0  0  0  0  0
  -20.5720  -28.4070   23.2220 C   0  0  0  0  0  3  0  0  0  0  0  0
  -20.6810  -26.9680   22.6650 C   0  0  0  0  0  2  0  0  0  0  0  0
  -19.5900  -26.6320   21.6430 C   0  0  0  0  0  2  0  0  0  0  0  0
  -18.2020  -26.7800   22.2720 C   0  0  0  0  0  2  0  0  0  0  0  0
  -19.1280  -28.9060   23.3640 C   0  0  0  0  0  0  0  0  0  0  0  0
  -18.8980  -30.1730   23.9430 C   0  0  0  0  0  3  0  0  0  0  0  0
  -17.5900  -30.6710   24.0920 C   0  0  0  0  0  3  0  0  0  0  0  0
  -16.4920  -29.8980   23.6750 C   0  0  0  0  0  3  0  0  0  0  0  0
  -16.7050  -28.6320   23.1010 C   0  0  0  0  0  3  0  0  0  0  0  0
  -25.8970  -32.5320   23.8790 C   0  0  0  0  0  3  0  0  0  0  0  0
  -26.4050  -31.7620   25.1600 C   0  0  1  0  0  0  0  0  0  0  0  0
  -25.3080  -31.5310   26.2250 C   0  0  0  0  0  1  0  0  0  0  0  0
  -26.9840  -30.3810   24.7760 C   0  0  0  0  0  1  0  0  0  0  0  0
  -27.5570  -32.5530   25.8240 C   0  0  0  0  0  1  0  0  0  0  0  0
  -25.5870  -33.9320   24.2150 N   0  0  0  0  0  0  0  0  0  0  0  0
  -25.8970  -34.9880   23.4510 C   0  0  0  0  0  0  0  0  0  0  0  0
  -26.5390  -34.8880   22.4020 O   0  0  0  0  0  0  0  0  0  0  0  0
  -25.0140  -34.0830   25.0310 H   0  0  0  0  0  0  0  0  0  0  0  0
  -24.1420  -36.7700   23.1650 C   0  0  0  0  0  1  0  0  0  0  0  0
  -25.4190  -36.3770   23.9240 C   0  0  0  0  0  3  0  0  0  0  0  0
  -27.5790  -37.2830   24.6610 C   0  0  0  0  0  1  0  0  0  0  0  0
  -26.4380  -37.4360   23.7620 N   0  0  0  0  0  0  0  0  0  0  0  0
  -26.0320  -38.3550   23.9190 H   0  0  0  0  0  0  0  0  0  0  0  0
  2  1  2  0
  3  1  1  0
  4  6  1  0
  5  4  2  0
  5  2  1  0
  6  8  1  0
  6  3  2  0
  7  8  1  0
  7 11  1  0
  8 10  1  0
  9  7  2  0
 12 11  1  0
 13 18  1  0
 14 15  1  0
 14 13  1  0
 16 15  1  0
 16 23  1  0
 16 17  1  0
 18 12  1  0
 18 17  1  0
 19 12  2  0
 20 21  2  0
 21 40  1  0
 22 21  1  0
 22 25  1  0
 23 24  1  0
 23 20  1  0
 24 22  2  0
 25 26  1  0
 26 27  2  0
 28 31  1  0
 28 27  1  0
 29 28  2  0
 30 29  1  0
 30 25  2  0
 31 32  1  0
 32 33  1  0
 33 34  2  0
 35 34  1  0
 35 39  1  0
 36 35  2  0
 37 32  2  0
 37 36  1  0
 38 37  1  0
 40 41  1  0
 41 44  1  0
 41 43  1  0
 42 40  2  0
 45 46  1  0
 45 20  1  0
 47 45  1  0
 48 49  1  0
 48  5  1  0
 50 61  2  0
 51 49  1  0
 51 56  1  0
 52 60  1  0
 52 62  1  0
 53 59  1  0
 53 55  1  0
 54 60  1  0
 55 56  2  0
 55 54  1  0
 57 51  2  0
 58 57  1  0
 58 53  2  0
 59 52  1  0
 60 50  1  0
 62 64  2  0
 63 62  1  0
 65 63  1  0
 66 75  2  0
 66 71  1  0
 67 63  1  0
 67 71  1  0
 68 67  1  0
 69 70  1  0
 69 68  1  0
 70 66  1  0
 71 72  2  0
 72 73  1  0
 74 73  2  0
 75 74  1  0
 76 50  1  0
 76 81  1  0
 76 77  1  0
 77 80  1  1
 77 78  1  0
 79 77  1  0
 81 84  1  0
 82 86  1  0
 82 81  1  0
 83 82  2  0
 86 85  1  0
 88 89  1  0
 88 86  1  0
 88 87  1  0
M  ISO  4  11 100  12 100  48 101  49 101
M  END
>  <TORSDO>  (24) 
F 19

>  <SCORE>  (24) 
-14.310

>  <name>  (24) 
23

>  <ligand_id>  (24) 
23

>  <original_smiles>  (24) 
[H]c1c([H])c(N([H])C(=O)C([H])([H])C(=O)N2C([H])([H])C([H])([H])C([H])([H])C([H])(n3nc(-c4c([H])c([H])c(Oc5c([H])c([H])c(F)c([H])c5F)c([H])c4[H])c(C(=O)N([H])[H])c3N([H])[H])C2([H])[H])c([H])c(C([H])([H])Oc2c([H])c([H])c3c(c2[H])C([H])([H])N(C(=O)C([H])(N([H])C(=O)C([H])(N([H])C([H])([H])[H])C([H])([H])[H])C(C([H])([H])[H])(C([H])([H])[H])C([H])([H])[H])C([H])(C(=O)N([H])C2([H])c4c([H])c([H])c([H])c([H])c4C([H])([H])C([H])([H])C2([H])[H])C3([H])[H])c1[H]

>  <smiles>  (24) 
[H]c1c([H])c(N([H])C(=O)C([H])([H])C(=O)N2C([H])([H])C([H])([H])C([H])([H])C([H])(n3nc(-c4c([H])c([H])c(Oc5c([H])c([H])c(F)c([H])c5F)c([H])c4[H])c(C(=O)N([H])[H])c3N([H])[H])C2([H])[H])c([H])c(C([H])([H])Oc2c([H])c([H])c3c(c2[H])C([H])([H])N(C(=O)C([H])(N([H])C(=O)C([H])(N([H])C([H])([H])[H])C([H])([H])[H])C(C([H])([H])[H])(C([H])([H])[H])C([H])([H])[H])C([H])(C(=O)N([H])C2([H])c4c([H])c([H])c([H])c([H])c4C([H])([H])C([H])([H])C2([H])[H])C3([H])[H])c1[H]

$$$$
24:0:0
     RDKit          3D

 92 99  0  0  1  0  0  0  0  0999 V2000
  -28.9560  -21.9580   20.6200 N   0  0  0  0  0  4  0  0  0  0  0  0
  -28.9900  -21.8840   19.6120 H   0  0  0  0  0  0  0  0  0  0  0  0
  -28.0350  -21.6590   20.8890 H   0  0  0  0  0  0  0  0  0  0  0  0
  -29.1850  -23.3770   21.0200 C   0  0  0  0  0  2  0  0  0  0  0  0
  -28.3250  -24.3930   20.2220 C   0  0  0  0  0  2  0  0  0  0  0  0
  -28.4770  -25.8480   20.7300 C   0  0  0  0  0  2  0  0  0  0  0  0
  -28.2430  -26.8210   19.7060 O   0  0  0  0  0  0  0  0  0  0  0  0
  -24.5760  -31.8840   23.1210 C   0  0  0  0  0  0  0  0  0  0  0  0
  -27.0750  -27.5340   19.8210 C   0  0  0  0  0  0  0  0  0  0  0  0
  -23.2920  -30.5150   21.5060 C   0  0  0  0  0  3  0  0  0  0  0  0
  -24.6760  -29.0130   19.9800 C   0  0  0  0  0  0  0  0  0  0  0  0
  -25.7980  -30.8970   21.1850 C   0  0  0  0  0  2  0  0  0  0  0  0
  -25.8580  -29.5370   20.5200 C   0  0  0  0  0  0  0  0  0  0  0  0
  -27.0630  -28.8050   20.4380 C   0  0  0  0  0  3  0  0  0  0  0  0
  -25.8820  -27.0180   19.2770 C   0  0  0  0  0  3  0  0  0  0  0  0
  -24.6820  -27.7510   19.3580 C   0  0  0  0  0  3  0  0  0  0  0  0
  -23.4330  -29.8640   20.1040 C   0  0  0  0  0  2  0  0  0  0  0  0
  -24.5770  -31.1120   21.9970 N   0  0  0  0  0  0  0  0  0  0  0  0
  -23.5230  -32.1390   23.7220 O   0  0  0  0  0  0  0  0  0  0  0  0
  -22.6920  -29.4710   22.4750 C   0  0  0  0  0  0  0  0  0  0  0  0
  -21.3670  -29.2710   22.3910 N   0  0  0  0  0  0  0  0  0  0  0  0
  -23.4130  -28.8450   23.2560 O   0  0  0  0  0  0  0  0  0  0  0  0
  -20.8450  -29.8310   21.7320 H   0  0  0  0  0  0  0  0  0  0  0  0
  -18.0360  -27.9840   22.9450 C   0  0  0  0  0  0  0  0  0  0  0  0
  -20.5900  -28.3080   23.1730 C   0  0  0  0  0  3  0  0  0  0  0  0
  -20.7200  -26.8820   22.5910 C   0  0  0  0  0  2  0  0  0  0  0  0
  -19.6100  -26.5330   21.5950 C   0  0  0  0  0  2  0  0  0  0  0  0
  -18.2360  -26.6410   22.2640 C   0  0  0  0  0  2  0  0  0  0  0  0
  -19.1420  -28.7750   23.3570 C   0  0  0  0  0  0  0  0  0  0  0  0
  -18.9020  -30.0310   23.9550 C   0  0  0  0  0  3  0  0  0  0  0  0
  -17.5880  -30.4990   24.1440 C   0  0  0  0  0  3  0  0  0  0  0  0
  -16.4960  -29.7070   23.7470 C   0  0  0  0  0  3  0  0  0  0  0  0
  -16.7210  -28.4520   23.1540 C   0  0  0  0  0  3  0  0  0  0  0  0
  -25.8910  -32.5010   23.6900 C   0  0  0  0  0  3  0  0  0  0  0  0
  -25.5960  -33.8860   24.0810 N   0  0  0  0  0  0  0  0  0  0  0  0
  -25.9030  -34.9640   23.3470 C   0  0  0  0  0  0  0  0  0  0  0  0
  -26.5380  -34.8980   22.2900 O   0  0  0  0  0  0  0  0  0  0  0  0
  -25.0260  -34.0110   24.9040 H   0  0  0  0  0  0  0  0  0  0  0  0
  -24.1650  -36.7680   23.1090 C   0  0  0  0  0  1  0  0  0  0  0  0
  -25.4310  -36.3350   23.8670 C   0  0  0  0  0  3  0  0  0  0  0  0
  -27.5930  -37.1870   24.6610 C   0  0  0  0  0  1  0  0  0  0  0  0
  -26.4610  -37.3920   23.7600 N   0  0  0  0  0  0  0  0  0  0  0  0
  -26.0610  -38.3050   23.9590 H   0  0  0  0  0  0  0  0  0  0  0  0
  -26.4820  -31.6910   24.9080 C   0  0  1  0  0  0  0  0  0  0  0  0
  -25.4510  -31.4110   26.0270 C   0  0  0  0  0  1  0  0  0  0  0  0
  -27.0450  -30.3310   24.4350 C   0  0  0  0  0  1  0  0  0  0  0  0
  -27.6630  -32.4680   25.5340 C   0  0  0  0  0  1  0  0  0  0  0  0
  -29.9360  -20.9300   21.0790 C   0  0  0  0  0  3  0  0  0  0  0  0
  -29.6810  -19.6090   20.3040 C   0  0  0  0  0  0  0  0  0  0  0  0
  -30.3430  -18.4900   20.6710 N   0  0  0  0  0  0  0  0  0  0  0  0
  -28.8850  -19.6090   19.3590 O   0  0  0  0  0  0  0  0  0  0  0  0
  -31.0120  -18.5780   21.4240 H   0  0  0  0  0  0  0  0  0  0  0  0
  -30.2110  -17.1620   20.0370 C   0  0  0  0  0  2  0  0  0  0  0  0
  -30.3660  -15.9730   21.0340 C   0  0  0  0  0  2  0  0  0  0  0  0
  -31.0210  -14.7080   20.4060 C   0  0  0  0  0  0  0  0  0  0  0  0
  -30.7640  -12.4820   19.3590 C   0  0  0  0  0  2  0  0  0  0  0  0
  -29.8400  -12.6010   18.1280 C   0  0  0  0  0  2  0  0  0  0  0  0
  -28.3570  -12.4820   18.5330 C   0  0  0  0  0  2  0  0  0  0  0  0
  -27.9940  -13.3860   19.7420 C   0  0  0  0  0  3  0  0  0  0  0  0
  -29.0300  -13.2210   20.8770 C   0  0  0  0  0  2  0  0  0  0  0  0
  -30.3590  -13.5180   20.3240 N   0  0  0  0  0  0  0  0  0  0  0  0
  -32.1420  -14.8490   19.9080 O   0  0  0  0  0  0  0  0  0  0  0  0
  -25.5990  -14.0350   20.4240 C   0  0  0  0  0  0  0  0  0  0  0  0
  -24.5150  -13.2830   20.7850 C   0  0  0  0  0  0  0  0  0  0  0  0
  -24.9530  -11.9210   20.7630 C   0  0  0  0  0  0  0  0  0  0  0  0
  -26.6320  -13.1360   20.2080 N   0  0  0  0  0  0  0  0  0  0  0  0
  -26.2450  -11.8600   20.4670 N   0  0  0  0  0  0  0  0  0  0  0  0
  -24.2030  -10.6730   20.9470 C   0  0  0  0  0  0  0  0  0  0  0  0
  -24.5830   -9.7220   21.9200 C   0  0  0  0  0  3  0  0  0  0  0  0
  -23.8350   -8.5370   22.0910 C   0  0  0  0  0  3  0  0  0  0  0  0
  -22.6940   -8.2960   21.2900 C   0  0  0  0  0  0  0  0  0  0  0  0
  -22.3340   -9.2360   20.3070 C   0  0  0  0  0  3  0  0  0  0  0  0
  -23.0820  -10.4120   20.1340 C   0  0  0  0  0  3  0  0  0  0  0  0
  -21.9200   -7.1640   21.3690 O   0  0  0  0  0  0  0  0  0  0  0  0
  -21.7710   -6.4740   22.5460 C   0  0  0  0  0  0  0  0  0  0  0  0
  -21.2530   -7.0860   23.7090 C   0  0  0  0  0  3  0  0  0  0  0  0
  -21.0520   -6.3240   24.8770 C   0  0  0  0  0  3  0  0  0  0  0  0
  -21.3570   -4.9500   24.8820 C   0  0  0  0  0  0  0  0  0  0  0  0
  -21.8670   -4.3370   23.7240 C   0  0  0  0  0  3  0  0  0  0  0  0
  -22.0700   -5.0980   22.5590 C   0  0  0  0  0  0  0  0  0  0  0  0
  -22.5410   -4.4970   21.4390 F   0  0  0  0  0  0  0  0  0  0  0  0
  -21.1560   -4.2150   26.0010 F   0  0  0  0  0  0  0  0  0  0  0  0
  -23.1220  -13.7840   21.0430 C   0  0  0  0  0  0  0  0  0  0  0  0
  -22.3760  -13.1090   21.9110 N   0  0  0  0  0  0  0  0  0  0  0  0
  -22.7040  -14.8110   20.5090 O   0  0  0  0  0  0  0  0  0  0  0  0
  -22.7250  -12.2810   22.3710 H   0  0  0  0  0  0  0  0  0  0  0  0
  -21.4400  -13.4290   22.1190 H   0  0  0  0  0  0  0  0  0  0  0  0
  -25.7950  -15.4020   20.2430 N   0  0  0  0  0  0  0  0  0  0  0  0
  -25.0460  -16.0810   20.3470 H   0  0  0  0  0  0  0  0  0  0  0  0
  -26.6610  -15.8180   19.9270 H   0  0  0  0  0  0  0  0  0  0  0  0
  -30.5810  -21.7190   23.5020 C   0  0  0  0  0  1  0  0  0  0  0  0
  -29.8630  -20.6850   22.6150 C   0  0  0  0  0  2  0  0  0  0  0  0
  1  3  1  0
  1  4  1  0
  1 48  1  0
  2  1  1  0
  5  6  1  0
  5  4  1  0
  7  9  1  0
  7  6  1  0
  8 19  2  0
  9 14  1  0
 10 18  1  0
 10 20  1  0
 11 17  1  0
 11 13  1  0
 12 18  1  0
 13 12  1  0
 14 13  2  0
 15 16  1  0
 15  9  2  0
 16 11  2  0
 17 10  1  0
 18  8  1  0
 20 22  2  0
 21 20  1  0
 23 21  1  0
 24 33  2  0
 24 29  1  0
 25 21  1  0
 25 29  1  0
 26 25  1  0
 27 28  1  0
 27 26  1  0
 28 24  1  0
 29 30  2  0
 30 31  1  0
 32 31  2  0
 33 32  1  0
 34  8  1  0
 34 35  1  0
 34 44  1  0
 35 38  1  0
 36 40  1  0
 36 35  1  0
 37 36  2  0
 40 39  1  0
 42 40  1  0
 42 43  1  0
 42 41  1  0
 44 47  1  1
 44 45  1  0
 46 44  1  0
 48 92  1  0
 49 50  1  0
 49 48  1  0
 50 52  1  0
 51 49  2  0
 53 50  1  0
 53 54  1  0
 55 54  1  0
 56 61  1  0
 57 58  1  0
 57 56  1  0
 59 58  1  0
 59 66  1  0
 59 60  1  0
 61 55  1  0
 61 60  1  0
 62 55  2  0
 63 64  2  0
 64 83  1  0
 65 64  1  0
 65 68  1  0
 66 63  1  0
 66 67  1  0
 67 65  2  0
 68 69  1  0
 69 70  2  0
 71 74  1  0
 71 70  1  0
 72 71  2  0
 73 72  1  0
 73 68  2  0
 74 75  1  0
 75 80  2  0
 75 76  1  0
 76 77  2  0
 77 78  1  0
 78 82  1  0
 79 78  2  0
 80 79  1  0
 81 80  1  0
 83 84  1  0
 84 87  1  0
 84 86  1  0
 85 83  2  0
 88 89  1  0
 88 63  1  0
 90 88  1  0
 92 91  1  0
M  ISO  4   6 101   7 101  54 100  55 100
M  END
>  <TORSDO>  (25) 
F 24

>  <SCORE>  (25) 
-12.031

>  <name>  (25) 
24

>  <ligand_id>  (25) 
24

>  <original_smiles>  (25) 
[H]c1c([H])c([H])c2c(c1[H])C([H])([H])C([H])([H])C([H])([H])C2([H])N([H])C(=O)C1([H])N(C(=O)C([H])(N([H])C(=O)C([H])(N([H])C([H])([H])[H])C([H])([H])[H])C(C([H])([H])[H])(C([H])([H])[H])C([H])([H])[H])C([H])([H])c2c([H])c(OC([H])([H])C([H])([H])C([H])([H])[N+]([H])([H])C([H])(C(=O)N([H])C([H])([H])C([H])([H])C(=O)N3C([H])([H])C([H])([H])C([H])([H])C([H])(n4nc(-c5c([H])c([H])c(Oc6c([H])c([H])c(F)c([H])c6F)c([H])c5[H])c(C(=O)N([H])[H])c4N([H])[H])C3([H])[H])C([H])([H])C([H])([H])[H])c([H])c([H])c2C1([H])[H]

>  <smiles>  (25) 
[H]c1c([H])c([H])c2c(c1[H])C([H])([H])C([H])([H])C([H])([H])C2([H])N([H])C(=O)C1([H])N(C(=O)C([H])(N([H])C(=O)C([H])(N([H])C([H])([H])[H])C([H])([H])[H])C(C([H])([H])[H])(C([H])([H])[H])C([H])([H])[H])C([H])([H])c2c([H])c(OC([H])([H])C([H])([H])C([H])([H])[N+]([H])([H])C([H])(C(=O)N([H])C([H])([H])C([H])([H])C(=O)N3C([H])([H])C([H])([H])C([H])([H])C([H])(n4nc(-c5c([H])c([H])c(Oc6c([H])c([H])c(F)c([H])c6F)c([H])c5[H])c(C(=O)N([H])[H])c4N([H])[H])C3([H])[H])C([H])([H])C([H])([H])[H])c([H])c([H])c2C1([H])[H]

$$$$
25:0:0
     RDKit          3D

 88 95  0  0  1  0  0  0  0  0999 V2000
  -29.3890  -21.8000   20.2360 C   0  0  0  0  0  0  0  0  0  0  0  0
  -29.1500  -20.4040   19.9900 N   0  0  0  0  0  0  0  0  0  0  0  0
  -30.5330  -22.1080   20.5680 O   0  0  0  0  0  0  0  0  0  0  0  0
  -28.2370  -20.2290   19.5900 H   0  0  0  0  0  0  0  0  0  0  0  0
  -29.0760  -18.7590   21.8850 C   0  0  0  0  0  1  0  0  0  0  0  0
  -29.8170  -19.0630   20.5720 C   0  0  0  0  0  3  0  0  0  0  0  0
  -30.1740  -17.5750   19.8180 C   0  0  0  0  0  3  0  0  0  0  0  0
  -30.7860  -17.8220   18.4520 C   0  0  0  0  0  1  0  0  0  0  0  0
  -30.0780  -16.3020   20.3210 N   0  0  0  0  0  2  0  0  0  0  0  0
  -30.7740  -15.0650   19.8450 C   0  0  0  0  0  0  0  0  0  0  0  0
  -30.5630  -12.6990   18.9130 C   0  0  0  0  0  2  0  0  0  0  0  0
  -29.5590  -12.6740   17.7360 C   0  0  0  0  0  2  0  0  0  0  0  0
  -28.1270  -12.4610   18.2580 C   0  0  0  0  0  2  0  0  0  0  0  0
  -27.8040  -13.3790   19.4660 C   0  0  0  0  0  3  0  0  0  0  0  0
  -28.9280  -13.3930   20.5220 C   0  0  0  0  0  2  0  0  0  0  0  0
  -30.1650  -13.8010   19.8450 N   0  0  0  0  0  0  0  0  0  0  0  0
  -31.9090  -15.0820   19.3630 O   0  0  0  0  0  0  0  0  0  0  0  0
  -25.5000  -13.9680   20.4010 C   0  0  0  0  0  0  0  0  0  0  0  0
  -24.4490  -13.2020   20.8230 C   0  0  0  0  0  0  0  0  0  0  0  0
  -24.8820  -11.8450   20.7130 C   0  0  0  0  0  0  0  0  0  0  0  0
  -26.5020  -13.0810   20.0520 N   0  0  0  0  0  0  0  0  0  0  0  0
  -26.1450  -11.7940   20.3050 N   0  0  0  0  0  0  0  0  0  0  0  0
  -24.1430  -10.5900   20.9170 C   0  0  0  0  0  0  0  0  0  0  0  0
  -24.5580   -9.6320   21.8680 C   0  0  0  0  0  3  0  0  0  0  0  0
  -23.8180   -8.4450   22.0590 C   0  0  0  0  0  3  0  0  0  0  0  0
  -22.6490   -8.2080   21.2990 C   0  0  0  0  0  0  0  0  0  0  0  0
  -22.2530   -9.1540   20.3370 C   0  0  0  0  0  3  0  0  0  0  0  0
  -22.9940  -10.3320   20.1450 C   0  0  0  0  0  3  0  0  0  0  0  0
  -21.8820   -7.0730   21.3980 O   0  0  0  0  0  0  0  0  0  0  0  0
  -21.7380   -6.4010   22.5860 C   0  0  0  0  0  0  0  0  0  0  0  0
  -21.1980   -7.0220   23.7330 C   0  0  0  0  0  3  0  0  0  0  0  0
  -21.0040   -6.2760   24.9130 C   0  0  0  0  0  3  0  0  0  0  0  0
  -21.3410   -4.9110   24.9460 C   0  0  0  0  0  0  0  0  0  0  0  0
  -21.8740   -4.2890   23.8030 C   0  0  0  0  0  3  0  0  0  0  0  0
  -22.0700   -5.0320   22.6260 C   0  0  0  0  0  0  0  0  0  0  0  0
  -22.5650   -4.4220   21.5220 F   0  0  0  0  0  0  0  0  0  0  0  0
  -21.1480   -4.1920   26.0760 F   0  0  0  0  0  0  0  0  0  0  0  0
  -23.0870  -13.6970   21.2110 C   0  0  0  0  0  0  0  0  0  0  0  0
  -22.4070  -12.9860   22.1040 N   0  0  0  0  0  0  0  0  0  0  0  0
  -22.6360  -14.7490   20.7590 O   0  0  0  0  0  0  0  0  0  0  0  0
  -22.7870  -12.1350   22.4910 H   0  0  0  0  0  0  0  0  0  0  0  0
  -21.4960  -13.2990   22.4060 H   0  0  0  0  0  0  0  0  0  0  0  0
  -25.6820  -15.3420   20.2590 N   0  0  0  0  0  0  0  0  0  0  0  0
  -24.9560  -16.0170   20.4730 H   0  0  0  0  0  0  0  0  0  0  0  0
  -26.5400  -15.7680   19.9290 H   0  0  0  0  0  0  0  0  0  0  0  0
  -28.2830  -23.0690   20.2570 C   0  0  0  0  0  2  0  0  0  0  0  0
  -28.4100  -24.6660   19.6370 C   0  0  0  0  0  2  0  0  0  0  0  0
  -28.2680  -26.1160   20.2490 O   0  0  0  0  0  0  0  0  0  0  0  0
  -24.6710  -31.8540   23.1690 C   0  0  0  0  0  0  0  0  0  0  0  0
  -27.2020  -27.0930   20.1260 C   0  0  0  0  0  0  0  0  0  0  0  0
  -23.4490  -30.4530   21.5480 C   0  0  0  0  0  3  0  0  0  0  0  0
  -24.8770  -28.8610   20.1070 C   0  0  0  0  0  0  0  0  0  0  0  0
  -26.0020  -30.7020   21.3550 C   0  0  0  0  0  2  0  0  0  0  0  0
  -26.0630  -29.3040   20.7060 C   0  0  0  0  0  0  0  0  0  0  0  0
  -27.2190  -28.4340   20.7000 C   0  0  0  0  0  3  0  0  0  0  0  0
  -25.9930  -26.7560   19.4830 C   0  0  0  0  0  3  0  0  0  0  0  0
  -24.8580  -27.6030   19.4780 C   0  0  0  0  0  3  0  0  0  0  0  0
  -23.6530  -29.7650   20.1690 C   0  0  0  0  0  2  0  0  0  0  0  0
  -24.7280  -31.0270   22.0780 N   0  0  0  0  0  0  0  0  0  0  0  0
  -23.5920  -32.1440   23.7090 O   0  0  0  0  0  0  0  0  0  0  0  0
  -22.7780  -29.4560   22.5240 C   0  0  0  0  0  0  0  0  0  0  0  0
  -21.4460  -29.2920   22.4170 N   0  0  0  0  0  0  0  0  0  0  0  0
  -23.4560  -28.8300   23.3420 O   0  0  0  0  0  0  0  0  0  0  0  0
  -20.9540  -29.8470   21.7310 H   0  0  0  0  0  0  0  0  0  0  0  0
  -18.0680  -28.1040   22.9680 C   0  0  0  0  0  0  0  0  0  0  0  0
  -20.6310  -28.3600   23.2020 C   0  0  0  0  0  3  0  0  0  0  0  0
  -20.7210  -26.9250   22.6320 C   0  0  0  0  0  2  0  0  0  0  0  0
  -19.6050  -26.6030   21.6320 C   0  0  0  0  0  2  0  0  0  0  0  0
  -18.2320  -26.7530   22.2930 C   0  0  0  0  0  2  0  0  0  0  0  0
  -19.1940  -28.8660   23.3800 C   0  0  0  0  0  0  0  0  0  0  0  0
  -18.9840  -30.1300   23.9750 C   0  0  0  0  0  3  0  0  0  0  0  0
  -17.6810  -30.6310   24.1590 C   0  0  0  0  0  3  0  0  0  0  0  0
  -16.5710  -29.8670   23.7610 C   0  0  0  0  0  3  0  0  0  0  0  0
  -16.7650  -28.6050   23.1710 C   0  0  0  0  0  3  0  0  0  0  0  0
  -25.9570  -32.4900   23.7800 C   0  0  0  0  0  3  0  0  0  0  0  0
  -26.4950  -31.7100   25.0440 C   0  0  1  0  0  0  0  0  0  0  0  0
  -25.4190  -31.4590   26.1260 C   0  0  0  0  0  1  0  0  0  0  0  0
  -27.0810  -30.3400   24.6380 C   0  0  0  0  0  1  0  0  0  0  0  0
  -27.6500  -32.5060   25.6980 C   0  0  0  0  0  1  0  0  0  0  0  0
  -25.6430  -33.8840   24.1360 N   0  0  0  0  0  0  0  0  0  0  0  0
  -25.9710  -34.9540   23.4010 C   0  0  0  0  0  0  0  0  0  0  0  0
  -26.6340  -34.8720   22.3630 O   0  0  0  0  0  0  0  0  0  0  0  0
  -25.0540  -34.0200   24.9450 H   0  0  0  0  0  0  0  0  0  0  0  0
  -24.2510  -36.7650   23.0870 C   0  0  0  0  0  1  0  0  0  0  0  0
  -25.4880  -36.3340   23.8910 C   0  0  0  0  0  3  0  0  0  0  0  0
  -27.6190  -37.1960   24.7560 C   0  0  0  0  0  1  0  0  0  0  0  0
  -26.5250  -37.3860   23.8070 N   0  0  0  0  0  0  0  0  0  0  0  0
  -26.1210  -38.3040   23.9690 H   0  0  0  0  0  0  0  0  0  0  0  0
  1 46  1  0
  1  3  2  0
  2  1  1  0
  2  6  1  0
  4  2  1  0
  6  5  1  0
  7  8  1  0
  7  9  1  0
  7  6  1  0
 10 16  1  0
 10  9  1  0
 11 16  1  0
 12 13  1  0
 12 11  1  0
 14 13  1  0
 14 21  1  0
 14 15  1  0
 16 15  1  0
 17 10  2  0
 18 19  2  0
 19 38  1  0
 20 19  1  0
 20 23  1  0
 21 22  1  0
 21 18  1  0
 22 20  2  0
 23 24  1  0
 24 25  2  0
 26 29  1  0
 26 25  1  0
 27 26  2  0
 28 27  1  0
 28 23  2  0
 29 30  1  0
 30 35  2  0
 30 31  1  0
 31 32  2  0
 32 33  1  0
 33 37  1  0
 34 33  2  0
 35 34  1  0
 36 35  1  0
 38 39  1  0
 39 42  1  0
 39 41  1  0
 40 38  2  0
 43 18  1  0
 43 44  1  0
 45 43  1  0
 47 48  1  0
 47 46  1  0
 49 60  2  0
 50 48  1  0
 50 55  1  0
 51 59  1  0
 51 61  1  0
 52 58  1  0
 52 54  1  0
 53 59  1  0
 54 53  1  0
 55 54  2  0
 56 50  2  0
 57 56  1  0
 57 52  2  0
 58 51  1  0
 59 49  1  0
 61 63  2  0
 62 61  1  0
 64 62  1  0
 65 74  2  0
 65 70  1  0
 66 62  1  0
 66 70  1  0
 67 66  1  0
 68 69  1  0
 68 67  1  0
 69 65  1  0
 70 71  2  0
 71 72  1  0
 73 72  2  0
 74 73  1  0
 75 49  1  0
 75 80  1  0
 75 76  1  0
 76 79  1  1
 76 77  1  0
 78 76  1  0
 80 83  1  0
 81 85  1  0
 81 80  1  0
 82 81  2  0
 85 84  1  0
 87 85  1  0
 87 88  1  0
 87 86  1  0
M  ISO  4   9 100  10 100  47 101  48 101
M  END
>  <TORSDO>  (26) 
F 20

>  <SCORE>  (26) 
-13.086

>  <name>  (26) 
25

>  <ligand_id>  (26) 
25

>  <original_smiles>  (26) 
[H]c1c([H])c([H])c2c(c1[H])C([H])([H])C([H])([H])C([H])([H])C2([H])N([H])C(=O)C1([H])N(C(=O)C([H])(N([H])C(=O)C([H])(N([H])C([H])([H])[H])C([H])([H])[H])C(C([H])([H])[H])(C([H])([H])[H])C([H])([H])[H])C([H])([H])c2c([H])c(OC([H])([H])C([H])([H])C(=O)N([H])C([H])(C(=NC(=O)N3C([H])([H])C([H])([H])C([H])([H])C([H])(n4nc(-c5c([H])c([H])c(Oc6c([H])c([H])c(F)c([H])c6F)c([H])c5[H])c(C(=O)N([H])[H])c4N([H])[H])C3([H])[H])C([H])([H])[H])C([H])([H])[H])c([H])c([H])c2C1([H])[H]

>  <smiles>  (26) 
[H]c1c([H])c([H])c2c(c1[H])C([H])([H])C([H])([H])C([H])([H])C2([H])N([H])C(=O)C1([H])N(C(=O)C([H])(N([H])C(=O)C([H])(N([H])C([H])([H])[H])C([H])([H])[H])C(C([H])([H])[H])(C([H])([H])[H])C([H])([H])[H])C([H])([H])c2c([H])c(OC([H])([H])C([H])([H])C(=O)N([H])C([H])(C(=NC(=O)N3C([H])([H])C([H])([H])C([H])([H])C([H])(n4nc(-c5c([H])c([H])c(Oc6c([H])c([H])c(F)c([H])c6F)c([H])c5[H])c(C(=O)N([H])[H])c4N([H])[H])C3([H])[H])C([H])([H])[H])C([H])([H])[H])c([H])c([H])c2C1([H])[H]

$$$$
26:0:0
     RDKit          3D

 96105  0  0  1  0  0  0  0  0999 V2000
  -30.6420  -21.5800   20.8230 C   0  0  0  0  0  0  0  0  0  0  0  0
  -31.1570  -22.3050   19.7940 C   0  0  0  0  0  0  0  0  0  0  0  0
  -29.1590  -21.3350   21.0120 C   0  0  0  0  0  2  0  0  0  0  0  0
  -31.4790  -20.8540   21.8760 C   0  0  0  0  0  2  0  0  0  0  0  0
  -28.9350  -19.8680   20.6750 C   0  0  0  0  0  2  0  0  0  0  0  0
  -31.8280  -16.9310   22.4480 C   0  0  0  0  0  2  0  0  0  0  0  0
  -32.1330  -18.4380   22.2400 C   0  0  0  0  0  2  0  0  0  0  0  0
  -29.8900  -17.5640   20.9180 C   0  0  0  0  0  2  0  0  0  0  0  0
  -29.6620  -18.9080   21.6360 C   0  0  0  0  0  3  0  0  0  0  0  0
  -30.4510  -16.5200   21.8930 C   0  0  0  0  0  3  0  0  0  0  0  0
  -30.9520  -19.4560   22.3770 C   0  0  2  0  0  0  0  0  0  0  0  0
  -32.6520  -22.4070   19.5460 C   0  0  0  0  0  1  0  0  0  0  0  0
  -30.6060  -19.6200   23.8810 C   0  0  0  0  0  1  0  0  0  0  0  0
  -30.6860  -14.5490   20.2380 C   0  0  0  0  0  0  0  0  0  0  0  0
  -30.2720  -12.5380   18.8470 C   0  0  0  0  0  2  0  0  0  0  0  0
  -29.2500  -12.7930   17.7220 C   0  0  0  0  0  2  0  0  0  0  0  0
  -27.8140  -12.5950   18.2400 C   0  0  0  0  0  2  0  0  0  0  0  0
  -27.5500  -13.3780   19.5490 C   0  0  0  0  0  3  0  0  0  0  0  0
  -28.6590  -13.0970   20.5850 C   0  0  0  0  0  2  0  0  0  0  0  0
  -29.9730  -13.4200   19.9820 N   0  0  0  0  0  0  0  0  0  0  0  0
  -31.5950  -14.9590   19.5040 O   0  0  0  0  0  0  0  0  0  0  0  0
  -30.3260  -15.1390   21.3920 N   0  0  0  0  0  0  0  0  0  0  0  0
  -29.6790  -14.5730   21.9290 H   0  0  0  0  0  0  0  0  0  0  0  0
  -25.2010  -13.9620   20.4310 C   0  0  0  0  0  0  0  0  0  0  0  0
  -24.1590  -13.1730   20.8460 C   0  0  0  0  0  0  0  0  0  0  0  0
  -24.6170  -11.8250   20.7370 C   0  0  0  0  0  0  0  0  0  0  0  0
  -26.2270  -13.0870   20.0980 N   0  0  0  0  0  0  0  0  0  0  0  0
  -25.8820  -11.7970   20.3400 N   0  0  0  0  0  0  0  0  0  0  0  0
  -23.9060  -10.5560   20.9340 C   0  0  0  0  0  0  0  0  0  0  0  0
  -24.3580   -9.5900   21.8600 C   0  0  0  0  0  3  0  0  0  0  0  0
  -23.6480   -8.3830   22.0420 C   0  0  0  0  0  3  0  0  0  0  0  0
  -22.4720   -8.1350   21.2950 C   0  0  0  0  0  0  0  0  0  0  0  0
  -22.0390   -9.0900   20.3580 C   0  0  0  0  0  3  0  0  0  0  0  0
  -22.7510  -10.2880   20.1740 C   0  0  0  0  0  3  0  0  0  0  0  0
  -21.7320   -6.9810   21.3850 O   0  0  0  0  0  0  0  0  0  0  0  0
  -21.6540   -6.2650   22.5540 C   0  0  0  0  0  0  0  0  0  0  0  0
  -21.1700   -6.8400   23.7490 C   0  0  0  0  0  3  0  0  0  0  0  0
  -21.0410   -6.0500   24.9070 C   0  0  0  0  0  3  0  0  0  0  0  0
  -21.3790   -4.6830   24.8720 C   0  0  0  0  0  0  0  0  0  0  0  0
  -21.8620   -4.1100   23.6820 C   0  0  0  0  0  3  0  0  0  0  0  0
  -21.9930   -4.8970   22.5250 C   0  0  0  0  0  0  0  0  0  0  0  0
  -22.4310   -4.3310   21.3740 F   0  0  0  0  0  0  0  0  0  0  0  0
  -21.2550   -3.9230   25.9850 F   0  0  0  0  0  0  0  0  0  0  0  0
  -22.7850  -13.6390   21.2290 C   0  0  0  0  0  0  0  0  0  0  0  0
  -22.1180  -12.9120   22.1220 N   0  0  0  0  0  0  0  0  0  0  0  0
  -22.3100  -14.6790   20.7770 O   0  0  0  0  0  0  0  0  0  0  0  0
  -22.5150  -12.0670   22.5030 H   0  0  0  0  0  0  0  0  0  0  0  0
  -21.1990  -13.2090   22.4190 H   0  0  0  0  0  0  0  0  0  0  0  0
  -25.3520  -15.3380   20.3040 N   0  0  0  0  0  0  0  0  0  0  0  0
  -24.5900  -15.9810   20.4820 H   0  0  0  0  0  0  0  0  0  0  0  0
  -26.1930  -15.8000   19.9780 H   0  0  0  0  0  0  0  0  0  0  0  0
  -30.2780  -23.0310   18.8880 C   0  0  0  0  0  3  0  0  0  0  0  0
  -29.7090  -24.2220   19.1600 C   0  0  0  0  0  3  0  0  0  0  0  0
  -29.8720  -25.0370   20.4340 C   0  0  0  0  0  2  0  0  0  0  0  0
  -28.6000  -25.7980   20.8320 C   0  0  0  0  0  2  0  0  0  0  0  0
  -28.5060  -26.9770   20.0450 O   0  0  0  0  0  0  0  0  0  0  0  0
  -24.5900  -31.9800   23.2480 C   0  0  0  0  0  0  0  0  0  0  0  0
  -27.3070  -27.6370   20.1230 C   0  0  0  0  0  0  0  0  0  0  0  0
  -23.3960  -30.5590   21.6040 C   0  0  0  0  0  3  0  0  0  0  0  0
  -24.8720  -29.0500   20.1700 C   0  0  0  0  0  0  0  0  0  0  0  0
  -25.9090  -30.9810   21.3880 C   0  0  0  0  0  2  0  0  0  0  0  0
  -26.0210  -29.6130   20.7460 C   0  0  0  0  0  0  0  0  0  0  0  0
  -27.2450  -28.9140   20.7150 C   0  0  0  0  0  3  0  0  0  0  0  0
  -26.1460  -27.0700   19.5620 C   0  0  0  0  0  3  0  0  0  0  0  0
  -24.9270  -27.7710   19.5850 C   0  0  0  0  0  3  0  0  0  0  0  0
  -23.6120  -29.8830   20.2250 C   0  0  0  0  0  2  0  0  0  0  0  0
  -24.6500  -31.1900   22.1390 N   0  0  0  0  0  0  0  0  0  0  0  0
  -23.5070  -32.2330   23.7940 O   0  0  0  0  0  0  0  0  0  0  0  0
  -22.7700  -29.5270   22.5690 C   0  0  0  0  0  0  0  0  0  0  0  0
  -21.4470  -29.3200   22.4450 N   0  0  0  0  0  0  0  0  0  0  0  0
  -23.4720  -28.9110   23.3780 O   0  0  0  0  0  0  0  0  0  0  0  0
  -20.9450  -29.8720   21.7630 H   0  0  0  0  0  0  0  0  0  0  0  0
  -18.0990  -28.0680   22.9460 C   0  0  0  0  0  0  0  0  0  0  0  0
  -20.6520  -28.3620   23.2120 C   0  0  0  0  0  3  0  0  0  0  0  0
  -20.7750  -26.9360   22.6240 C   0  0  0  0  0  2  0  0  0  0  0  0
  -19.6750  -26.6040   21.6130 C   0  0  0  0  0  2  0  0  0  0  0  0
  -18.2950  -26.7250   22.2640 C   0  0  0  0  0  2  0  0  0  0  0  0
  -19.2070  -28.8430   23.3780 C   0  0  0  0  0  0  0  0  0  0  0  0
  -18.9750  -30.1000   23.9740 C   0  0  0  0  0  3  0  0  0  0  0  0
  -17.6630  -30.5830   24.1480 C   0  0  0  0  0  3  0  0  0  0  0  0
  -16.5680  -29.8020   23.7370 C   0  0  0  0  0  3  0  0  0  0  0  0
  -16.7870  -28.5470   23.1420 C   0  0  0  0  0  3  0  0  0  0  0  0
  -25.8700  -32.6290   23.8620 C   0  0  0  0  0  3  0  0  0  0  0  0
  -26.3990  -31.8660   25.1390 C   0  0  1  0  0  0  0  0  0  0  0  0
  -25.3100  -31.6080   26.2070 C   0  0  0  0  0  1  0  0  0  0  0  0
  -27.0070  -30.4980   24.7450 C   0  0  0  0  0  1  0  0  0  0  0  0
  -27.5310  -32.6820   25.8030 C   0  0  0  0  0  1  0  0  0  0  0  0
  -25.5490  -34.0250   24.1820 N   0  0  0  0  0  0  0  0  0  0  0  0
  -25.8790  -35.0750   23.4150 C   0  0  0  0  0  0  0  0  0  0  0  0
  -26.5570  -34.9690   22.3900 O   0  0  0  0  0  0  0  0  0  0  0  0
  -24.9460  -34.1800   24.9730 H   0  0  0  0  0  0  0  0  0  0  0  0
  -24.1460  -36.8540   23.0220 C   0  0  0  0  0  1  0  0  0  0  0  0
  -25.3760  -36.4620   23.8570 C   0  0  0  0  0  3  0  0  0  0  0  0
  -27.4900  -37.3660   24.7140 C   0  0  0  0  0  1  0  0  0  0  0  0
  -26.4010  -37.5210   23.7530 N   0  0  0  0  0  0  0  0  0  0  0  0
  -25.9870  -38.4390   23.8800 H   0  0  0  0  0  0  0  0  0  0  0  0
  1  3  1  0
  1  4  1  0
  2  1  2  0
  4 11  1  0
  5  3  1  0
  7 11  1  0
  7  6  1  0
  8  9  1  0
  8 10  1  0
  9  5  1  0
  9 11  1  0
 10 22  1  0
 10  6  1  0
 11 13  1  1
 12  2  1  0
 14 22  1  0
 15 20  1  0
 16 17  1  0
 16 15  1  0
 18 17  1  0
 18 27  1  0
 18 19  1  0
 20 14  1  0
 20 19  1  0
 21 14  2  0
 22 23  1  0
 24 25  2  0
 25 44  1  0
 26 25  1  0
 26 29  1  0
 27 28  1  0
 27 24  1  0
 28 26  2  0
 29 30  1  0
 30 31  2  0
 32 35  1  0
 32 31  1  0
 33 32  2  0
 34 33  1  0
 34 29  2  0
 35 36  1  0
 36 37  1  0
 37 38  2  0
 39 38  1  0
 39 43  1  0
 40 39  2  0
 41 36  2  0
 41 40  1  0
 42 41  1  0
 44 45  1  0
 45 48  1  0
 45 47  1  0
 46 44  2  0
 49 24  1  0
 49 50  1  0
 51 49  1  0
 52 53  2  0
 52  2  1  0
 53 54  1  0
 54 55  1  0
 56 58  1  0
 56 55  1  0
 57 68  2  0
 58 63  1  0
 59 67  1  0
 59 69  1  0
 60 66  1  0
 60 62  1  0
 61 67  1  0
 62 61  1  0
 63 62  2  0
 64 65  1  0
 64 58  2  0
 65 60  2  0
 66 59  1  0
 67 57  1  0
 69 71  2  0
 70 69  1  0
 72 70  1  0
 73 82  2  0
 73 78  1  0
 74 70  1  0
 74 78  1  0
 75 74  1  0
 76 77  1  0
 76 75  1  0
 77 73  1  0
 78 79  2  0
 79 80  1  0
 81 80  2  0
 82 81  1  0
 83 57  1  0
 83 88  1  0
 83 84  1  0
 84 87  1  1
 84 85  1  0
 86 84  1  0
 88 91  1  0
 89 93  1  0
 89 88  1  0
 90 89  2  0
 93 92  1  0
 95 93  1  0
 95 96  1  0
 95 94  1  0
M  ISO  4  14 100  22 100  55 101  56 101
M  END
>  <TORSDO>  (27) 
F 19

>  <SCORE>  (27) 
-11.873

>  <name>  (27) 
26

>  <ligand_id>  (27) 
26

>  <original_smiles>  (27) 
[H]C(C(=C1C([H])([H])C([H])([H])C2([H])C([H])([H])C([H])(N([H])C(=O)N3C([H])([H])C([H])([H])C([H])([H])C([H])(n4nc(-c5c([H])c([H])c(Oc6c([H])c([H])c(F)c([H])c6F)c([H])c5[H])c(C(=O)N([H])[H])c4N([H])[H])C3([H])[H])C([H])([H])C([H])([H])C2(C([H])([H])[H])C1([H])[H])C([H])([H])[H])=C([H])C([H])([H])C([H])([H])Oc1c([H])c([H])c2c(c1[H])C([H])([H])N(C(=O)C([H])(N([H])C(=O)C([H])(N([H])C([H])([H])[H])C([H])([H])[H])C(C([H])([H])[H])(C([H])([H])[H])C([H])([H])[H])C([H])(C(=O)N([H])C1([H])c3c([H])c([H])c([H])c([H])c3C([H])([H])C([H])([H])C1([H])[H])C2([H])[H]

>  <smiles>  (27) 
[H]C(C(=C1C([H])([H])C([H])([H])C2([H])C([H])([H])C([H])(N([H])C(=O)N3C([H])([H])C([H])([H])C([H])([H])C([H])(n4nc(-c5c([H])c([H])c(Oc6c([H])c([H])c(F)c([H])c6F)c([H])c5[H])c(C(=O)N([H])[H])c4N([H])[H])C3([H])[H])C([H])([H])C([H])([H])C2(C([H])([H])[H])C1([H])[H])C([H])([H])[H])=C([H])C([H])([H])C([H])([H])Oc1c([H])c([H])c2c(c1[H])C([H])([H])N(C(=O)C([H])(N([H])C(=O)C([H])(N([H])C([H])([H])[H])C([H])([H])[H])C(C([H])([H])[H])(C([H])([H])[H])C([H])([H])[H])C([H])(C(=O)N([H])C1([H])c3c([H])c([H])c([H])c([H])c3C([H])([H])C([H])([H])C1([H])[H])C2([H])[H]

$$$$
27:0:0
     RDKit          3D

 89 96  0  0  1  0  0  0  0  0999 V2000
  -30.9400  -22.6940   21.3240 C   0  0  0  0  0  2  0  0  0  0  0  0
  -30.1960  -20.2620   20.9780 C   0  0  0  0  0  3  0  0  0  0  0  0
  -31.1500  -21.1960   21.1660 C   0  0  0  0  0  3  0  0  0  0  0  0
  -30.5660  -18.8690   20.7860 C   0  0  0  0  0  0  0  0  0  0  0  0
  -29.5000  -18.0600   20.7310 N   0  0  0  0  0  0  0  0  0  0  0  0
  -31.7150  -18.4530   20.6300 O   0  0  0  0  0  0  0  0  0  0  0  0
  -28.5930  -18.4780   20.8900 H   0  0  0  0  0  0  0  0  0  0  0  0
  -29.5200  -16.6750   20.2490 C   0  0  0  0  0  2  0  0  0  0  0  0
  -30.0900  -15.6450   21.2590 C   0  0  0  0  0  2  0  0  0  0  0  0
  -30.6970  -14.4320   20.5240 C   0  0  0  0  0  0  0  0  0  0  0  0
  -30.3540  -12.3100   19.3190 C   0  0  0  0  0  2  0  0  0  0  0  0
  -29.4190  -12.5640   18.1180 C   0  0  0  0  0  2  0  0  0  0  0  0
  -27.9420  -12.4380   18.5400 C   0  0  0  0  0  2  0  0  0  0  0  0
  -27.6180  -13.2540   19.8180 C   0  0  0  0  0  3  0  0  0  0  0  0
  -28.6650  -12.9860   20.9210 C   0  0  0  0  0  2  0  0  0  0  0  0
  -29.9980  -13.2740   20.3710 N   0  0  0  0  0  0  0  0  0  0  0  0
  -31.7990  -14.6050   19.9950 O   0  0  0  0  0  0  0  0  0  0  0  0
  -25.2240  -13.8890   20.5210 C   0  0  0  0  0  0  0  0  0  0  0  0
  -24.1470  -13.1280   20.8860 C   0  0  0  0  0  0  0  0  0  0  0  0
  -24.5920  -11.7710   20.8530 C   0  0  0  0  0  0  0  0  0  0  0  0
  -26.2600  -12.9960   20.2910 N   0  0  0  0  0  0  0  0  0  0  0  0
  -25.8820  -11.7180   20.5450 N   0  0  0  0  0  0  0  0  0  0  0  0
  -23.8520  -10.5170   21.0400 C   0  0  0  0  0  0  0  0  0  0  0  0
  -24.2930   -9.5280   21.9470 C   0  0  0  0  0  3  0  0  0  0  0  0
  -23.5560   -8.3370   22.1220 C   0  0  0  0  0  3  0  0  0  0  0  0
  -22.3630   -8.1280   21.3910 C   0  0  0  0  0  0  0  0  0  0  0  0
  -21.9400   -9.1060   20.4730 C   0  0  0  0  0  3  0  0  0  0  0  0
  -22.6780  -10.2890   20.2970 C   0  0  0  0  0  3  0  0  0  0  0  0
  -21.5940   -6.9930   21.4760 O   0  0  0  0  0  0  0  0  0  0  0  0
  -21.5840   -6.2150   22.6060 C   0  0  0  0  0  0  0  0  0  0  0  0
  -21.2390   -6.7420   23.8700 C   0  0  0  0  0  3  0  0  0  0  0  0
  -21.1730   -5.8930   24.9920 C   0  0  0  0  0  3  0  0  0  0  0  0
  -21.4400   -4.5180   24.8520 C   0  0  0  0  0  0  0  0  0  0  0  0
  -21.7780   -3.9910   23.5940 C   0  0  0  0  0  3  0  0  0  0  0  0
  -21.8460   -4.8370   22.4730 C   0  0  0  0  0  0  0  0  0  0  0  0
  -22.1530   -4.3190   21.2590 F   0  0  0  0  0  0  0  0  0  0  0  0
  -21.3690   -3.7010   25.9290 F   0  0  0  0  0  0  0  0  0  0  0  0
  -22.7540  -13.6210   21.1600 C   0  0  0  0  0  0  0  0  0  0  0  0
  -22.0190  -12.9310   22.0240 N   0  0  0  0  0  0  0  0  0  0  0  0
  -22.3270  -14.6520   20.6410 O   0  0  0  0  0  0  0  0  0  0  0  0
  -22.3780  -12.0970   22.4640 H   0  0  0  0  0  0  0  0  0  0  0  0
  -21.0840  -13.2430   22.2510 H   0  0  0  0  0  0  0  0  0  0  0  0
  -25.4050  -15.2570   20.3470 N   0  0  0  0  0  0  0  0  0  0  0  0
  -24.6450  -15.9210   20.4520 H   0  0  0  0  0  0  0  0  0  0  0  0
  -26.2620  -15.6850   20.0200 H   0  0  0  0  0  0  0  0  0  0  0  0
  -29.6250  -23.2410   20.7380 C   0  0  0  0  0  2  0  0  0  0  0  0
  -29.6030  -24.7790   20.7170 C   0  0  0  0  0  2  0  0  0  0  0  0
  -28.3280  -25.3580   20.0900 C   0  0  0  0  0  2  0  0  0  0  0  0
  -28.3860  -26.7790   20.1810 O   0  0  0  0  0  0  0  0  0  0  0  0
  -24.5770  -31.9040   23.2610 C   0  0  0  0  0  0  0  0  0  0  0  0
  -27.1940  -27.4690   20.1690 C   0  0  0  0  0  0  0  0  0  0  0  0
  -23.3560  -30.5040   21.6270 C   0  0  0  0  0  3  0  0  0  0  0  0
  -24.7940  -28.9610   20.1960 C   0  0  0  0  0  0  0  0  0  0  0  0
  -25.8770  -30.8620   21.4090 C   0  0  0  0  0  2  0  0  0  0  0  0
  -25.9550  -29.4910   20.7720 C   0  0  0  0  0  0  0  0  0  0  0  0
  -27.1570  -28.7520   20.7530 C   0  0  0  0  0  3  0  0  0  0  0  0
  -26.0150  -26.9470   19.5880 C   0  0  0  0  0  3  0  0  0  0  0  0
  -24.8180  -27.6870   19.6010 C   0  0  0  0  0  3  0  0  0  0  0  0
  -23.5520  -29.8200   20.2470 C   0  0  0  0  0  2  0  0  0  0  0  0
  -24.6230  -31.1040   22.1580 N   0  0  0  0  0  0  0  0  0  0  0  0
  -23.5010  -32.1790   23.8080 O   0  0  0  0  0  0  0  0  0  0  0  0
  -22.7090  -29.4850   22.5930 C   0  0  0  0  0  0  0  0  0  0  0  0
  -21.3840  -29.3030   22.4680 N   0  0  0  0  0  0  0  0  0  0  0  0
  -23.3940  -28.8620   23.4080 O   0  0  0  0  0  0  0  0  0  0  0  0
  -20.8930  -29.8590   21.7830 H   0  0  0  0  0  0  0  0  0  0  0  0
  -18.0120  -28.1080   22.9650 C   0  0  0  0  0  0  0  0  0  0  0  0
  -20.5680  -28.3690   23.2430 C   0  0  0  0  0  3  0  0  0  0  0  0
  -20.6750  -26.9350   22.6750 C   0  0  0  0  0  2  0  0  0  0  0  0
  -19.5760  -26.6050   21.6610 C   0  0  0  0  0  2  0  0  0  0  0  0
  -18.1910  -26.7530   22.2990 C   0  0  0  0  0  2  0  0  0  0  0  0
  -19.1280  -28.8730   23.3930 C   0  0  0  0  0  0  0  0  0  0  0  0
  -18.9080  -30.1420   23.9730 C   0  0  0  0  0  3  0  0  0  0  0  0
  -17.6010  -30.6430   24.1310 C   0  0  0  0  0  3  0  0  0  0  0  0
  -16.5000  -29.8740   23.7200 C   0  0  0  0  0  3  0  0  0  0  0  0
  -16.7060  -28.6090   23.1430 C   0  0  0  0  0  3  0  0  0  0  0  0
  -25.8710  -32.5290   23.8710 C   0  0  0  0  0  3  0  0  0  0  0  0
  -25.5690  -33.9270   24.2070 N   0  0  0  0  0  0  0  0  0  0  0  0
  -25.8940  -34.9780   23.4430 C   0  0  0  0  0  0  0  0  0  0  0  0
  -26.5490  -34.8740   22.4020 O   0  0  0  0  0  0  0  0  0  0  0  0
  -24.9870  -34.0830   25.0170 H   0  0  0  0  0  0  0  0  0  0  0  0
  -24.1560  -36.7660   23.1150 C   0  0  0  0  0  1  0  0  0  0  0  0
  -25.4130  -36.3670   23.9050 C   0  0  0  0  0  3  0  0  0  0  0  0
  -27.5610  -37.2560   24.6930 C   0  0  0  0  0  1  0  0  0  0  0  0
  -26.4420  -37.4200   23.7690 N   0  0  0  0  0  0  0  0  0  0  0  0
  -26.0390  -38.3410   23.9200 H   0  0  0  0  0  0  0  0  0  0  0  0
  -26.4000  -31.7500   25.1390 C   0  0  1  0  0  0  0  0  0  0  0  0
  -25.3190  -31.5130   26.2180 C   0  0  0  0  0  1  0  0  0  0  0  0
  -26.9710  -30.3720   24.7320 C   0  0  0  0  0  1  0  0  0  0  0  0
  -27.5610  -32.5360   25.7910 C   0  0  0  0  0  1  0  0  0  0  0  0
  2  3  2  0
  3  1  1  0
  4  2  1  0
  5  4  1  0
  5  7  1  0
  6  4  2  0
  8  5  1  0
  8  9  1  0
 10  9  1  0
 11 16  1  0
 12 13  1  0
 12 11  1  0
 14 13  1  0
 14 21  1  0
 14 15  1  0
 16 10  1  0
 16 15  1  0
 17 10  2  0
 18 19  2  0
 19 38  1  0
 20 19  1  0
 20 23  1  0
 21 18  1  0
 21 22  1  0
 22 20  2  0
 23 24  1  0
 24 25  2  0
 26 29  1  0
 26 25  1  0
 27 26  2  0
 28 27  1  0
 28 23  2  0
 29 30  1  0
 30 31  1  0
 31 32  2  0
 33 32  1  0
 33 37  1  0
 34 33  2  0
 35 30  2  0
 35 34  1  0
 36 35  1  0
 38 39  1  0
 39 42  1  0
 39 41  1  0
 40 38  2  0
 43 44  1  0
 43 18  1  0
 45 43  1  0
 46  1  1  0
 47 46  1  0
 48 49  1  0
 48 47  1  0
 50 61  2  0
 51 49  1  0
 51 56  1  0
 52 60  1  0
 52 62  1  0
 53 59  1  0
 53 55  1  0
 54 60  1  0
 55 54  1  0
 56 55  2  0
 57 58  1  0
 57 51  2  0
 58 53  2  0
 59 52  1  0
 60 50  1  0
 62 64  2  0
 63 62  1  0
 65 63  1  0
 66 75  2  0
 66 71  1  0
 67 63  1  0
 67 71  1  0
 68 67  1  0
 69 70  1  0
 69 68  1  0
 70 66  1  0
 71 72  2  0
 72 73  1  0
 74 73  2  0
 75 74  1  0
 76 50  1  0
 76 77  1  0
 76 86  1  0
 77 80  1  0
 78 82  1  0
 78 77  1  0
 79 78  2  0
 82 81  1  0
 84 82  1  0
 84 85  1  0
 84 83  1  0
 86 89  1  1
 86 87  1  0
 88 86  1  0
M  ISO  4   9 100  10 100  48 101  49 101
M  END
>  <TORSDO>  (28) 
F 23

>  <SCORE>  (28) 
-12.880

>  <name>  (28) 
27

>  <ligand_id>  (28) 
27

>  <original_smiles>  (28) 
[H]C(C(=O)N([H])C([H])([H])C([H])([H])C(=O)N1C([H])([H])C([H])([H])C([H])([H])C([H])(n2nc(-c3c([H])c([H])c(Oc4c([H])c([H])c(F)c([H])c4F)c([H])c3[H])c(C(=O)N([H])[H])c2N([H])[H])C1([H])[H])=C([H])C([H])([H])C([H])([H])C([H])([H])C([H])([H])Oc1c([H])c([H])c2c(c1[H])C([H])([H])N(C(=O)C([H])(N([H])C(=O)C([H])(N([H])C([H])([H])[H])C([H])([H])[H])C(C([H])([H])[H])(C([H])([H])[H])C([H])([H])[H])C([H])(C(=O)N([H])C1([H])c3c([H])c([H])c([H])c([H])c3C([H])([H])C([H])([H])C1([H])[H])C2([H])[H]

>  <smiles>  (28) 
[H]C(C(=O)N([H])C([H])([H])C([H])([H])C(=O)N1C([H])([H])C([H])([H])C([H])([H])C([H])(n2nc(-c3c([H])c([H])c(Oc4c([H])c([H])c(F)c([H])c4F)c([H])c3[H])c(C(=O)N([H])[H])c2N([H])[H])C1([H])[H])=C([H])C([H])([H])C([H])([H])C([H])([H])C([H])([H])Oc1c([H])c([H])c2c(c1[H])C([H])([H])N(C(=O)C([H])(N([H])C(=O)C([H])(N([H])C([H])([H])[H])C([H])([H])[H])C(C([H])([H])[H])(C([H])([H])[H])C([H])([H])[H])C([H])(C(=O)N([H])C1([H])c3c([H])c([H])c([H])c([H])c3C([H])([H])C([H])([H])C1([H])[H])C2([H])[H]

$$$$
28:0:0
     RDKit          3D

 93101  0  0  1  0  0  0  0  0999 V2000
  -28.5250  -21.5510   20.3880 C   0  0  0  0  0  0  0  0  0  0  0  0
  -27.7170  -21.5880   21.4610 N   0  0  0  0  0  4  0  0  0  0  0  0
  -29.2470  -20.4300   20.0900 N   0  0  0  0  0  0  0  0  0  0  0  0
  -27.1730  -22.4180   21.6620 H   0  0  0  0  0  0  0  0  0  0  0  0
  -27.6180  -20.8220   22.1110 H   0  0  0  0  0  0  0  0  0  0  0  0
  -29.8800  -20.4980   19.3050 H   0  0  0  0  0  0  0  0  0  0  0  0
  -30.5740  -17.4950   22.0590 C   0  0  0  0  0  2  0  0  0  0  0  0
  -30.2370  -18.9920   21.9440 C   0  0  0  0  0  2  0  0  0  0  0  0
  -29.6420  -17.9000   19.8510 C   0  0  0  0  0  2  0  0  0  0  0  0
  -30.6360  -16.9710   20.6150 C   0  0  0  0  0  3  0  0  0  0  0  0
  -29.2490  -19.0970   20.7740 C   0  0  0  0  0  3  0  0  0  0  0  0
  -31.0450  -14.5130   20.0140 C   0  0  0  0  0  0  0  0  0  0  0  0
  -30.7470  -12.2920   18.9590 C   0  0  0  0  0  2  0  0  0  0  0  0
  -29.7660  -12.4380   17.7740 C   0  0  0  0  0  2  0  0  0  0  0  0
  -28.3000  -12.3480   18.2450 C   0  0  0  0  0  2  0  0  0  0  0  0
  -28.0120  -13.2370   19.4850 C   0  0  0  0  0  3  0  0  0  0  0  0
  -29.0910  -13.0280   20.5690 C   0  0  0  0  0  2  0  0  0  0  0  0
  -30.3970  -13.3170   19.9560 N   0  0  0  0  0  0  0  0  0  0  0  0
  -32.1540  -14.6980   19.5040 O   0  0  0  0  0  0  0  0  0  0  0  0
  -30.3150  -15.5240   20.5410 N   0  0  0  0  0  0  0  0  0  0  0  0
  -29.4250  -15.2400   20.9170 H   0  0  0  0  0  0  0  0  0  0  0  0
  -25.6680  -13.9370   20.2780 C   0  0  0  0  0  0  0  0  0  0  0  0
  -24.5860  -13.2070   20.6890 C   0  0  0  0  0  0  0  0  0  0  0  0
  -24.9950  -11.8390   20.6400 C   0  0  0  0  0  0  0  0  0  0  0  0
  -26.6680  -13.0150   20.0100 N   0  0  0  0  0  0  0  0  0  0  0  0
  -26.2700  -11.7480   20.2830 N   0  0  0  0  0  0  0  0  0  0  0  0
  -24.2290  -10.6040   20.8580 C   0  0  0  0  0  0  0  0  0  0  0  0
  -24.6100   -9.6620   21.8380 C   0  0  0  0  0  3  0  0  0  0  0  0
  -23.8480   -8.4930   22.0420 C   0  0  0  0  0  3  0  0  0  0  0  0
  -22.6880   -8.2570   21.2650 C   0  0  0  0  0  0  0  0  0  0  0  0
  -22.3240   -9.1860   20.2750 C   0  0  0  0  0  3  0  0  0  0  0  0
  -23.0880  -10.3490   20.0710 C   0  0  0  0  0  3  0  0  0  0  0  0
  -21.9020   -7.1370   21.3750 O   0  0  0  0  0  0  0  0  0  0  0  0
  -21.7340   -6.4900   22.5730 C   0  0  0  0  0  0  0  0  0  0  0  0
  -21.2120   -7.1470   23.7100 C   0  0  0  0  0  3  0  0  0  0  0  0
  -20.9910   -6.4260   24.8990 C   0  0  0  0  0  3  0  0  0  0  0  0
  -21.2830   -5.0490   24.9560 C   0  0  0  0  0  0  0  0  0  0  0  0
  -21.7960   -4.3930   23.8230 C   0  0  0  0  0  3  0  0  0  0  0  0
  -22.0190   -5.1110   22.6350 C   0  0  0  0  0  0  0  0  0  0  0  0
  -22.4940   -4.4690   21.5410 F   0  0  0  0  0  0  0  0  0  0  0  0
  -21.0620   -4.3570   26.0960 F   0  0  0  0  0  0  0  0  0  0  0  0
  -23.2210  -13.7350   21.0140 C   0  0  0  0  0  0  0  0  0  0  0  0
  -22.5090  -13.0760   21.9210 N   0  0  0  0  0  0  0  0  0  0  0  0
  -22.7940  -14.7680   20.4980 O   0  0  0  0  0  0  0  0  0  0  0  0
  -22.8690  -12.2410   22.3590 H   0  0  0  0  0  0  0  0  0  0  0  0
  -21.5920  -13.4090   22.1810 H   0  0  0  0  0  0  0  0  0  0  0  0
  -25.8760  -15.3010   20.0900 N   0  0  0  0  0  0  0  0  0  0  0  0
  -25.1360  -15.9790   20.2320 H   0  0  0  0  0  0  0  0  0  0  0  0
  -26.7160  -15.7060   19.6920 H   0  0  0  0  0  0  0  0  0  0  0  0
  -28.5990  -22.7770   19.4730 C   0  0  0  0  0  2  0  0  0  0  0  0
  -28.2560  -24.1390   20.1740 C   0  0  0  0  0  2  0  0  0  0  0  0
  -28.4850  -25.4070   19.2950 C   0  0  0  0  0  2  0  0  0  0  0  0
  -28.3620  -26.6760   19.9830 O   0  0  0  0  0  0  0  0  0  0  0  0
  -24.5840  -31.8330   23.1740 C   0  0  0  0  0  0  0  0  0  0  0  0
  -27.1740  -27.3950   19.9870 C   0  0  0  0  0  0  0  0  0  0  0  0
  -23.3570  -30.4680   21.5170 C   0  0  0  0  0  3  0  0  0  0  0  0
  -24.7890  -28.9400   20.0540 C   0  0  0  0  0  0  0  0  0  0  0  0
  -25.8880  -30.8000   21.3120 C   0  0  0  0  0  2  0  0  0  0  0  0
  -25.9550  -29.4390   20.6430 C   0  0  0  0  0  0  0  0  0  0  0  0
  -27.1470  -28.6730   20.6050 C   0  0  0  0  0  3  0  0  0  0  0  0
  -25.9770  -26.9120   19.4100 C   0  0  0  0  0  3  0  0  0  0  0  0
  -24.7960  -27.6780   19.4360 C   0  0  0  0  0  3  0  0  0  0  0  0
  -23.5530  -29.8100   20.1250 C   0  0  0  0  0  2  0  0  0  0  0  0
  -24.6280  -31.0500   22.0580 N   0  0  0  0  0  0  0  0  0  0  0  0
  -23.5090  -32.1030   23.7270 O   0  0  0  0  0  0  0  0  0  0  0  0
  -22.7060  -29.4360   22.4650 C   0  0  0  0  0  0  0  0  0  0  0  0
  -21.3860  -29.2360   22.3220 N   0  0  0  0  0  0  0  0  0  0  0  0
  -23.3860  -28.8170   23.2870 O   0  0  0  0  0  0  0  0  0  0  0  0
  -20.8960  -29.7890   21.6310 H   0  0  0  0  0  0  0  0  0  0  0  0
  -18.0320  -27.9540   22.7390 C   0  0  0  0  0  0  0  0  0  0  0  0
  -20.5730  -28.2830   23.0790 C   0  0  0  0  0  3  0  0  0  0  0  0
  -20.7300  -26.8490   22.5220 C   0  0  0  0  0  2  0  0  0  0  0  0
  -19.6660  -26.4870   21.4810 C   0  0  0  0  0  2  0  0  0  0  0  0
  -18.2630  -26.6010   22.0840 C   0  0  0  0  0  2  0  0  0  0  0  0
  -19.1170  -28.7480   23.1940 C   0  0  0  0  0  0  0  0  0  0  0  0
  -18.8470  -30.0120   23.7640 C   0  0  0  0  0  3  0  0  0  0  0  0
  -17.5270  -30.4800   23.8870 C   0  0  0  0  0  3  0  0  0  0  0  0
  -16.4550  -29.6820   23.4480 C   0  0  0  0  0  3  0  0  0  0  0  0
  -16.7080  -28.4200   22.8810 C   0  0  0  0  0  3  0  0  0  0  0  0
  -25.8760  -32.4480   23.7940 C   0  0  0  0  0  3  0  0  0  0  0  0
  -26.4170  -31.6370   25.0350 C   0  0  1  0  0  0  0  0  0  0  0  0
  -25.3430  -31.3570   26.1130 C   0  0  0  0  0  1  0  0  0  0  0  0
  -27.0010  -30.2770   24.5880 C   0  0  0  0  0  1  0  0  0  0  0  0
  -27.5750  -32.4150   25.7030 C   0  0  0  0  0  1  0  0  0  0  0  0
  -25.5700  -33.8340   24.1740 N   0  0  0  0  0  0  0  0  0  0  0  0
  -25.8830  -34.9110   23.4420 C   0  0  0  0  0  0  0  0  0  0  0  0
  -26.5320  -34.8410   22.3950 O   0  0  0  0  0  0  0  0  0  0  0  0
  -24.9910  -33.9610   24.9920 H   0  0  0  0  0  0  0  0  0  0  0  0
  -24.1350  -36.7010   23.1850 C   0  0  0  0  0  1  0  0  0  0  0  0
  -25.4000  -36.2830   23.9530 C   0  0  0  0  0  3  0  0  0  0  0  0
  -27.5520  -37.1570   24.7490 C   0  0  0  0  0  1  0  0  0  0  0  0
  -26.4240  -37.3440   23.8430 N   0  0  0  0  0  0  0  0  0  0  0  0
  -26.0160  -38.2570   24.0300 H   0  0  0  0  0  0  0  0  0  0  0  0
  1  2  2  0
  2  4  1  0
  2  5  1  0
  3  1  1  0
  6  3  1  0
  8  7  1  0
  9 10  1  0
  9 11  1  0
 10 20  1  0
 10  7  1  0
 11  3  1  0
 11  8  1  0
 12 20  1  0
 13 18  1  0
 14 15  1  0
 14 13  1  0
 16 15  1  0
 16 25  1  0
 16 17  1  0
 18 12  1  0
 18 17  1  0
 19 12  2  0
 20 21  1  0
 22 23  2  0
 23 42  1  0
 24 23  1  0
 24 27  1  0
 25 22  1  0
 25 26  1  0
 26 24  2  0
 27 28  1  0
 28 29  2  0
 30 33  1  0
 30 29  1  0
 31 30  2  0
 32 31  1  0
 32 27  2  0
 33 34  1  0
 34 39  2  0
 34 35  1  0
 35 36  2  0
 36 37  1  0
 37 41  1  0
 38 37  2  0
 39 38  1  0
 40 39  1  0
 42 43  1  0
 43 46  1  0
 43 45  1  0
 44 42  2  0
 47 48  1  0
 47 22  1  0
 49 47  1  0
 50 51  1  0
 50  1  1  0
 52 53  1  0
 52 51  1  0
 53 55  1  0
 54 65  2  0
 55 60  1  0
 56 64  1  0
 56 66  1  0
 57 63  1  0
 57 59  1  0
 58 64  1  0
 59 58  1  0
 60 59  2  0
 61 62  1  0
 61 55  2  0
 62 57  2  0
 63 56  1  0
 64 54  1  0
 66 68  2  0
 67 66  1  0
 69 67  1  0
 70 79  2  0
 70 75  1  0
 71 67  1  0
 71 75  1  0
 72 71  1  0
 73 74  1  0
 73 72  1  0
 74 70  1  0
 75 76  2  0
 76 77  1  0
 78 77  2  0
 79 78  1  0
 80 54  1  0
 80 85  1  0
 80 81  1  0
 81 84  1  1
 81 82  1  0
 83 81  1  0
 85 88  1  0
 86 90  1  0
 86 85  1  0
 87 86  2  0
 90 89  1  0
 92 90  1  0
 92 93  1  0
 92 91  1  0
M  ISO  4  12 100  20 100  52 101  53 101
M  END
>  <TORSDO>  (29) 
F 20

>  <SCORE>  (29) 
-13.131

>  <name>  (29) 
28

>  <ligand_id>  (29) 
28

>  <original_smiles>  (29) 
[H]c1c([H])c([H])c2c(c1[H])C([H])([H])C([H])([H])C([H])([H])C2([H])N([H])C(=O)C1([H])N(C(=O)C([H])(N([H])C(=O)C([H])(N([H])C([H])([H])[H])C([H])([H])[H])C(C([H])([H])[H])(C([H])([H])[H])C([H])([H])[H])C([H])([H])c2c([H])c(OC([H])([H])C([H])([H])C([H])([H])C(N([H])[H])=[N+]([H])C3([H])C([H])([H])C([H])([H])C([H])(N([H])C(=O)N4C([H])([H])C([H])([H])C([H])([H])C([H])(n5nc(-c6c([H])c([H])c(Oc7c([H])c([H])c(F)c([H])c7F)c([H])c6[H])c(C(=O)N([H])[H])c5N([H])[H])C4([H])[H])C3([H])[H])c([H])c([H])c2C1([H])[H]

>  <smiles>  (29) 
[H]c1c([H])c([H])c2c(c1[H])C([H])([H])C([H])([H])C([H])([H])C2([H])N([H])C(=O)C1([H])N(C(=O)C([H])(N([H])C(=O)C([H])(N([H])C([H])([H])[H])C([H])([H])[H])C(C([H])([H])[H])(C([H])([H])[H])C([H])([H])[H])C([H])([H])c2c([H])c(OC([H])([H])C([H])([H])C([H])([H])C(N([H])[H])=[N+]([H])C3([H])C([H])([H])C([H])([H])C([H])(N([H])C(=O)N4C([H])([H])C([H])([H])C([H])([H])C([H])(n5nc(-c6c([H])c([H])c(Oc7c([H])c([H])c(F)c([H])c7F)c([H])c6[H])c(C(=O)N([H])[H])c5N([H])[H])C4([H])[H])C3([H])[H])c([H])c([H])c2C1([H])[H]

$$$$
29:0:0
     RDKit          3D

 96105  0  0  1  0  0  0  0  0999 V2000
  -31.0270  -20.6020   20.5280 C   0  0  0  0  0  3  0  0  0  0  0  0
  -29.5710  -20.7930   20.4490 C   0  0  0  0  0  3  0  0  0  0  0  0
  -29.8810  -19.7480   17.6620 C   0  0  0  0  0  2  0  0  0  0  0  0
  -31.3670  -19.7410   18.1380 C   0  0  0  0  0  2  0  0  0  0  0  0
  -28.7740  -19.1670   18.6060 C   0  0  0  0  0  2  0  0  0  0  0  0
  -31.7380  -20.8120   19.2150 C   0  0  0  0  0  3  0  0  0  0  0  0
  -29.0250  -19.2250   20.1330 C   0  0  0  0  0  3  0  0  0  0  0  0
  -33.1020  -20.2610   21.1440 C   0  0  0  0  0  3  0  0  0  0  0  0
  -33.2010  -20.8880   19.7150 C   0  0  2  0  0  0  0  0  0  0  0  0
  -33.9540  -20.9180   22.2430 C   0  0  0  0  0  1  0  0  0  0  0  0
  -33.6000  -22.3850   19.7350 C   0  0  0  0  0  1  0  0  0  0  0  0
  -34.2210  -20.1180   18.8500 C   0  0  0  0  0  1  0  0  0  0  0  0
  -31.7180  -20.3110   21.5430 N   0  0  0  0  0  2  0  0  0  0  0  0
  -29.2530  -22.1270   20.5000 N   0  0  0  0  0  0  0  0  0  0  0  0
  -29.9170  -17.8050   20.6030 C   0  0  0  0  0  2  0  0  0  0  0  0
  -30.3990  -15.0570   20.2840 C   0  0  0  0  0  0  0  0  0  0  0  0
  -30.3180  -12.7060   19.3070 C   0  0  0  0  0  2  0  0  0  0  0  0
  -29.3650  -12.6470   18.0890 C   0  0  0  0  0  2  0  0  0  0  0  0
  -27.9090  -12.4200   18.5390 C   0  0  0  0  0  2  0  0  0  0  0  0
  -27.5190  -13.3150   19.7440 C   0  0  0  0  0  3  0  0  0  0  0  0
  -28.5930  -13.3180   20.8510 C   0  0  0  0  0  2  0  0  0  0  0  0
  -29.8290  -13.7830   20.2150 N   0  0  0  0  0  0  0  0  0  0  0  0
  -31.6110  -15.1250   20.0440 O   0  0  0  0  0  0  0  0  0  0  0  0
  -29.5930  -16.2430   20.4190 N   0  0  0  0  0  0  0  0  0  0  0  0
  -28.6130  -16.0280   20.5300 H   0  0  0  0  0  0  0  0  0  0  0  0
  -25.1460  -13.8760   20.5010 C   0  0  0  0  0  0  0  0  0  0  0  0
  -24.0940  -13.0930   20.8780 C   0  0  0  0  0  0  0  0  0  0  0  0
  -24.5700  -11.7450   20.8480 C   0  0  0  0  0  0  0  0  0  0  0  0
  -26.1930  -13.0060   20.2560 N   0  0  0  0  0  0  0  0  0  0  0  0
  -25.8590  -11.7180   20.5310 N   0  0  0  0  0  0  0  0  0  0  0  0
  -23.8560  -10.4760   21.0370 C   0  0  0  0  0  0  0  0  0  0  0  0
  -24.3000   -9.5060   21.9640 C   0  0  0  0  0  3  0  0  0  0  0  0
  -23.5820   -8.3060   22.1430 C   0  0  0  0  0  3  0  0  0  0  0  0
  -22.4030   -8.0660   21.3960 C   0  0  0  0  0  0  0  0  0  0  0  0
  -21.9820   -9.0220   20.4550 C   0  0  0  0  0  3  0  0  0  0  0  0
  -22.7030  -10.2140   20.2720 C   0  0  0  0  0  3  0  0  0  0  0  0
  -21.6530   -6.9180   21.4870 O   0  0  0  0  0  0  0  0  0  0  0  0
  -21.6180   -6.1700   22.6380 C   0  0  0  0  0  0  0  0  0  0  0  0
  -21.1990   -6.7170   23.8710 C   0  0  0  0  0  3  0  0  0  0  0  0
  -21.1120   -5.8950   25.0120 C   0  0  0  0  0  3  0  0  0  0  0  0
  -21.4340   -4.5270   24.9230 C   0  0  0  0  0  0  0  0  0  0  0  0
  -21.8460   -3.9800   23.6950 C   0  0  0  0  0  3  0  0  0  0  0  0
  -21.9350   -4.7990   22.5560 C   0  0  0  0  0  0  0  0  0  0  0  0
  -22.3100   -4.2610   21.3700 F   0  0  0  0  0  0  0  0  0  0  0  0
  -21.3450   -3.7360   26.0170 F   0  0  0  0  0  0  0  0  0  0  0  0
  -22.6940  -13.5570   21.1550 C   0  0  0  0  0  0  0  0  0  0  0  0
  -21.9760  -12.8520   22.0210 N   0  0  0  0  0  0  0  0  0  0  0  0
  -22.2470  -14.5820   20.6410 O   0  0  0  0  0  0  0  0  0  0  0  0
  -22.3500  -12.0190   22.4520 H   0  0  0  0  0  0  0  0  0  0  0  0
  -21.0400  -13.1430   22.2550 H   0  0  0  0  0  0  0  0  0  0  0  0
  -25.3000  -15.2490   20.3150 N   0  0  0  0  0  0  0  0  0  0  0  0
  -24.5330  -15.9030   20.4280 H   0  0  0  0  0  0  0  0  0  0  0  0
  -26.1290  -15.6840   19.9330 H   0  0  0  0  0  0  0  0  0  0  0  0
  -28.1320  -23.1610   20.1550 C   0  0  0  0  0  3  0  0  0  0  0  0
  -28.1130  -24.7170   20.8570 C   0  0  0  0  0  2  0  0  0  0  0  0
  -28.3030  -26.1700   20.3130 O   0  0  0  0  0  0  0  0  0  0  0  0
  -24.6470  -31.8940   23.2570 C   0  0  0  0  0  0  0  0  0  0  0  0
  -27.2500  -27.1520   20.3020 C   0  0  0  0  0  0  0  0  0  0  0  0
  -23.4700  -30.4830   21.6160 C   0  0  0  0  0  3  0  0  0  0  0  0
  -24.9320  -28.8960   20.2240 C   0  0  0  0  0  0  0  0  0  0  0  0
  -26.0250  -30.7520   21.4770 C   0  0  0  0  0  2  0  0  0  0  0  0
  -26.1050  -29.3510   20.8410 C   0  0  0  0  0  0  0  0  0  0  0  0
  -27.2700  -28.4940   20.8590 C   0  0  0  0  0  3  0  0  0  0  0  0
  -26.0540  -26.7930   19.6520 C   0  0  0  0  0  3  0  0  0  0  0  0
  -24.9200  -27.6300   19.6130 C   0  0  0  0  0  3  0  0  0  0  0  0
  -23.7070  -29.7940   20.2460 C   0  0  0  0  0  2  0  0  0  0  0  0
  -24.7350  -31.0660   22.1720 N   0  0  0  0  0  0  0  0  0  0  0  0
  -23.5550  -32.1790   23.7710 O   0  0  0  0  0  0  0  0  0  0  0  0
  -22.7860  -29.4810   22.5810 C   0  0  0  0  0  0  0  0  0  0  0  0
  -21.4590  -29.3080   22.4450 N   0  0  0  0  0  0  0  0  0  0  0  0
  -23.4510  -28.8610   23.4130 O   0  0  0  0  0  0  0  0  0  0  0  0
  -20.9790  -29.8600   21.7490 H   0  0  0  0  0  0  0  0  0  0  0  0
  -18.0740  -28.1110   22.9320 C   0  0  0  0  0  0  0  0  0  0  0  0
  -20.6310  -28.3750   23.2150 C   0  0  0  0  0  3  0  0  0  0  0  0
  -20.7360  -26.9390   22.6500 C   0  0  0  0  0  2  0  0  0  0  0  0
  -19.6410  -26.6110   21.6300 C   0  0  0  0  0  2  0  0  0  0  0  0
  -18.2550  -26.7590   22.2630 C   0  0  0  0  0  2  0  0  0  0  0  0
  -19.1900  -28.8770   23.3650 C   0  0  0  0  0  0  0  0  0  0  0  0
  -18.9650  -30.1410   23.9500 C   0  0  0  0  0  3  0  0  0  0  0  0
  -17.6580  -30.6390   24.1090 C   0  0  0  0  0  3  0  0  0  0  0  0
  -16.5570  -29.8720   23.6920 C   0  0  0  0  0  3  0  0  0  0  0  0
  -16.7670  -28.6100   23.1080 C   0  0  0  0  0  3  0  0  0  0  0  0
  -25.9160  -32.5430   23.8930 C   0  0  0  0  0  3  0  0  0  0  0  0
  -26.4130  -31.7890   25.1890 C   0  0  1  0  0  0  0  0  0  0  0  0
  -25.3050  -31.5610   26.2450 C   0  0  0  0  0  1  0  0  0  0  0  0
  -27.0050  -30.4090   24.8280 C   0  0  0  0  0  1  0  0  0  0  0  0
  -27.5520  -32.5940   25.8590 C   0  0  0  0  0  1  0  0  0  0  0  0
  -25.5920  -33.9440   24.2100 N   0  0  0  0  0  0  0  0  0  0  0  0
  -25.9210  -34.9960   23.4470 C   0  0  0  0  0  0  0  0  0  0  0  0
  -26.5920  -34.8890   22.4180 O   0  0  0  0  0  0  0  0  0  0  0  0
  -24.9970  -34.1000   25.0100 H   0  0  0  0  0  0  0  0  0  0  0  0
  -24.1820  -36.7810   23.0860 C   0  0  0  0  0  1  0  0  0  0  0  0
  -25.4270  -36.3860   23.8950 C   0  0  0  0  0  3  0  0  0  0  0  0
  -27.5590  -37.2950   24.7120 C   0  0  0  0  0  1  0  0  0  0  0  0
  -26.4530  -37.4450   23.7680 N   0  0  0  0  0  0  0  0  0  0  0  0
  -26.0420  -38.3630   23.9050 H   0  0  0  0  0  0  0  0  0  0  0  0
  1 13  1  0
  2 14  1  0
  2  1  1  0
  3  4  1  0
  3  5  1  0
  5  7  1  0
  6  4  1  0
  6  9  1  0
  6  1  1  0
  7  2  1  0
  7 15  1  0
  8 13  1  0
  8 10  1  0
  9 11  1  1
  9  8  1  0
 12  9  1  0
 16 24  1  0
 17 22  1  0
 18 19  1  0
 18 17  1  0
 20 19  1  0
 20 29  1  0
 20 21  1  0
 22 16  1  0
 22 21  1  0
 23 16  2  0
 24 25  1  0
 24 15  1  0
 26 27  2  0
 27 46  1  0
 28 27  1  0
 28 31  1  0
 29 26  1  0
 29 30  1  0
 30 28  2  0
 31 32  1  0
 32 33  2  0
 34 37  1  0
 34 33  1  0
 35 34  2  0
 36 35  1  0
 36 31  2  0
 37 38  1  0
 38 39  1  0
 39 40  2  0
 41 40  1  0
 41 45  1  0
 42 41  2  0
 43 38  2  0
 43 42  1  0
 44 43  1  0
 46 47  1  0
 47 50  1  0
 47 49  1  0
 48 46  2  0
 51 52  1  0
 51 26  1  0
 53 51  1  0
 54 14  2  0
 54 55  1  0
 56 55  1  0
 57 68  2  0
 58 56  1  0
 58 63  1  0
 59 67  1  0
 59 69  1  0
 60 66  1  0
 60 62  1  0
 61 67  1  0
 62 63  2  0
 62 61  1  0
 64 58  2  0
 65 64  1  0
 65 60  2  0
 66 59  1  0
 67 57  1  0
 69 71  2  0
 70 69  1  0
 72 70  1  0
 73 82  2  0
 73 78  1  0
 74 70  1  0
 74 78  1  0
 75 74  1  0
 76 77  1  0
 76 75  1  0
 77 73  1  0
 78 79  2  0
 79 80  1  0
 81 80  2  0
 82 81  1  0
 83 57  1  0
 83 88  1  0
 83 84  1  0
 84 87  1  1
 84 85  1  0
 86 84  1  0
 88 91  1  0
 89 93  1  0
 89 88  1  0
 90 89  2  0
 93 92  1  0
 95 93  1  0
 95 96  1  0
 95 94  1  0
M  ISO  4  16 100  24 100  55 101  56 101
M  END
>  <TORSDO>  (30) 
F 19

>  <SCORE>  (30) 
-16.227

>  <name>  (30) 
29

>  <ligand_id>  (30) 
29

>  <original_smiles>  (30) 
[H]c1c([H])c([H])c2c(c1[H])C([H])([H])C([H])([H])C([H])([H])C2([H])N([H])C(=O)C1([H])N(C(=O)C([H])(N([H])C(=O)C([H])(N([H])C([H])([H])[H])C([H])([H])[H])C(C([H])([H])[H])(C([H])([H])[H])C([H])([H])[H])C([H])([H])c2c([H])c(OC([H])([H])C([H])([H])N=C3C4=NC([H])(C([H])([H])[H])C(C([H])([H])[H])(C([H])([H])[H])C4([H])C([H])([H])C([H])([H])C([H])([H])C3([H])C([H])([H])N([H])C(=O)N3C([H])([H])C([H])([H])C([H])([H])C([H])(n4nc(-c5c([H])c([H])c(Oc6c([H])c([H])c(F)c([H])c6F)c([H])c5[H])c(C(=O)N([H])[H])c4N([H])[H])C3([H])[H])c([H])c([H])c2C1([H])[H]

>  <smiles>  (30) 
[H]c1c([H])c([H])c2c(c1[H])C([H])([H])C([H])([H])C([H])([H])C2([H])N([H])C(=O)C1([H])N(C(=O)C([H])(N([H])C(=O)C([H])(N([H])C([H])([H])[H])C([H])([H])[H])C(C([H])([H])[H])(C([H])([H])[H])C([H])([H])[H])C([H])([H])c2c([H])c(OC([H])([H])C([H])([H])N=C3C4=NC([H])(C([H])([H])[H])C(C([H])([H])[H])(C([H])([H])[H])C4([H])C([H])([H])C([H])([H])C([H])([H])C3([H])C([H])([H])N([H])C(=O)N3C([H])([H])C([H])([H])C([H])([H])C([H])(n4nc(-c5c([H])c([H])c(Oc6c([H])c([H])c(F)c([H])c6F)c([H])c5[H])c(C(=O)N([H])[H])c4N([H])[H])C3([H])[H])c([H])c([H])c2C1([H])[H]

$$$$
30:0:0
     RDKit          3D

 90 97  0  0  1  0  0  0  0  0999 V2000
  -30.5100  -21.5300   19.5160 C   0  0  0  0  0  3  0  0  0  0  0  0
  -30.6360  -22.8870   19.5190 C   0  0  0  0  0  0  0  0  0  0  0  0
  -31.0470  -23.6020   18.2390 C   0  0  0  0  0  1  0  0  0  0  0  0
  -30.1100  -20.6890   20.6410 C   0  0  0  0  0  0  0  0  0  0  0  0
  -30.3690  -19.3800   20.4440 N   0  0  0  0  0  0  0  0  0  0  0  0
  -29.5320  -21.0820   21.6560 O   0  0  0  0  0  0  0  0  0  0  0  0
  -30.8720  -19.1080   19.6080 H   0  0  0  0  0  0  0  0  0  0  0  0
  -29.8680  -18.2970   21.3070 C   0  0  0  0  0  2  0  0  0  0  0  0
  -30.6610  -16.9480   21.1510 C   0  0  0  0  0  2  0  0  0  0  0  0
  -30.1050  -15.4830   21.3230 C   0  0  0  0  0  2  0  0  0  0  0  0
  -30.6820  -14.4250   20.3480 C   0  0  0  0  0  0  0  0  0  0  0  0
  -30.3310  -12.3530   19.0380 C   0  0  0  0  0  2  0  0  0  0  0  0
  -29.3410  -12.6070   17.8860 C   0  0  0  0  0  2  0  0  0  0  0  0
  -27.8810  -12.4570   18.3650 C   0  0  0  0  0  2  0  0  0  0  0  0
  -27.5980  -13.2420   19.6730 C   0  0  0  0  0  3  0  0  0  0  0  0
  -28.6860  -12.9440   20.7290 C   0  0  0  0  0  2  0  0  0  0  0  0
  -29.9910  -13.2720   20.1350 N   0  0  0  0  0  0  0  0  0  0  0  0
  -31.7410  -14.6740   19.7630 O   0  0  0  0  0  0  0  0  0  0  0  0
  -25.2150  -13.8530   20.4410 C   0  0  0  0  0  0  0  0  0  0  0  0
  -24.1560  -13.0790   20.8350 C   0  0  0  0  0  0  0  0  0  0  0  0
  -24.6150  -11.7280   20.7870 C   0  0  0  0  0  0  0  0  0  0  0  0
  -26.2540  -12.9710   20.1820 N   0  0  0  0  0  0  0  0  0  0  0  0
  -25.8960  -11.6870   20.4430 N   0  0  0  0  0  0  0  0  0  0  0  0
  -23.8920  -10.4650   20.9930 C   0  0  0  0  0  0  0  0  0  0  0  0
  -24.3520   -9.4950   21.9110 C   0  0  0  0  0  3  0  0  0  0  0  0
  -23.6320   -8.2960   22.1060 C   0  0  0  0  0  3  0  0  0  0  0  0
  -22.4380   -8.0600   21.3830 C   0  0  0  0  0  0  0  0  0  0  0  0
  -21.9970   -9.0200   20.4530 C   0  0  0  0  0  3  0  0  0  0  0  0
  -22.7170  -10.2110   20.2590 C   0  0  0  0  0  3  0  0  0  0  0  0
  -21.6860   -6.9150   21.4850 O   0  0  0  0  0  0  0  0  0  0  0  0
  -21.6700   -6.1640   22.6340 C   0  0  0  0  0  0  0  0  0  0  0  0
  -21.2840   -6.7110   23.8780 C   0  0  0  0  0  3  0  0  0  0  0  0
  -21.2160   -5.8900   25.0180 C   0  0  0  0  0  3  0  0  0  0  0  0
  -21.5240   -4.5190   24.9200 C   0  0  0  0  0  0  0  0  0  0  0  0
  -21.9050   -3.9710   23.6800 C   0  0  0  0  0  3  0  0  0  0  0  0
  -21.9740   -4.7900   22.5430 C   0  0  0  0  0  0  0  0  0  0  0  0
  -22.3200   -4.2540   21.3470 F   0  0  0  0  0  0  0  0  0  0  0  0
  -21.4520   -3.7260   26.0130 F   0  0  0  0  0  0  0  0  0  0  0  0
  -22.7680  -13.5550   21.1500 C   0  0  0  0  0  0  0  0  0  0  0  0
  -22.0640  -12.8590   22.0340 N   0  0  0  0  0  0  0  0  0  0  0  0
  -22.3140  -14.5830   20.6450 O   0  0  0  0  0  0  0  0  0  0  0  0
  -22.4440  -12.0320   22.4710 H   0  0  0  0  0  0  0  0  0  0  0  0
  -21.1310  -13.1570   22.2790 H   0  0  0  0  0  0  0  0  0  0  0  0
  -25.3750  -15.2240   20.2640 N   0  0  0  0  0  0  0  0  0  0  0  0
  -24.6100  -15.8760   20.4020 H   0  0  0  0  0  0  0  0  0  0  0  0
  -26.2180  -15.6680   19.9220 H   0  0  0  0  0  0  0  0  0  0  0  0
  -30.4890  -23.8370   20.7190 C   0  0  0  0  0  2  0  0  0  0  0  0
  -29.0780  -24.4010   21.0200 C   0  0  0  0  0  2  0  0  0  0  0  0
  -28.3770  -25.2590   19.9390 C   0  0  0  0  0  2  0  0  0  0  0  0
  -28.3960  -26.6640   20.2480 O   0  0  0  0  0  0  0  0  0  0  0  0
  -24.5940  -31.8590   23.2580 C   0  0  0  0  0  0  0  0  0  0  0  0
  -27.2190  -27.3880   20.1920 C   0  0  0  0  0  0  0  0  0  0  0  0
  -23.3870  -30.4620   21.6150 C   0  0  0  0  0  3  0  0  0  0  0  0
  -24.8350  -28.9200   20.1950 C   0  0  0  0  0  0  0  0  0  0  0  0
  -25.9190  -30.7990   21.4310 C   0  0  0  0  0  2  0  0  0  0  0  0
  -25.9940  -29.4280   20.7920 C   0  0  0  0  0  0  0  0  0  0  0  0
  -27.1860  -28.6690   20.7890 C   0  0  0  0  0  3  0  0  0  0  0  0
  -26.0430  -26.9140   19.5590 C   0  0  0  0  0  3  0  0  0  0  0  0
  -24.8550  -27.6620   19.5740 C   0  0  0  0  0  3  0  0  0  0  0  0
  -23.5970  -29.7830   20.2360 C   0  0  0  0  0  2  0  0  0  0  0  0
  -24.6520  -31.0570   22.1580 N   0  0  0  0  0  0  0  0  0  0  0  0
  -23.5120  -32.1400   23.7910 O   0  0  0  0  0  0  0  0  0  0  0  0
  -22.7260  -29.4450   22.5730 C   0  0  0  0  0  0  0  0  0  0  0  0
  -21.4010  -29.2710   22.4410 N   0  0  0  0  0  0  0  0  0  0  0  0
  -23.4030  -28.8150   23.3900 O   0  0  0  0  0  0  0  0  0  0  0  0
  -20.9180  -29.8360   21.7550 H   0  0  0  0  0  0  0  0  0  0  0  0
  -18.0150  -28.1080   22.9370 C   0  0  0  0  0  0  0  0  0  0  0  0
  -20.5750  -28.3390   23.2090 C   0  0  0  0  0  3  0  0  0  0  0  0
  -20.6630  -26.9090   22.6270 C   0  0  0  0  0  2  0  0  0  0  0  0
  -19.5580  -26.6010   21.6110 C   0  0  0  0  0  2  0  0  0  0  0  0
  -18.1790  -26.7580   22.2570 C   0  0  0  0  0  2  0  0  0  0  0  0
  -19.1420  -28.8560   23.3690 C   0  0  0  0  0  0  0  0  0  0  0  0
  -18.9380  -30.1200   23.9640 C   0  0  0  0  0  3  0  0  0  0  0  0
  -17.6400  -30.6360   24.1320 C   0  0  0  0  0  3  0  0  0  0  0  0
  -16.5280  -29.8840   23.7190 C   0  0  0  0  0  3  0  0  0  0  0  0
  -16.7150  -28.6210   23.1260 C   0  0  0  0  0  3  0  0  0  0  0  0
  -25.8820  -32.4840   23.8820 C   0  0  0  0  0  3  0  0  0  0  0  0
  -25.5830  -33.8870   24.2010 N   0  0  0  0  0  0  0  0  0  0  0  0
  -25.9270  -34.9300   23.4350 C   0  0  0  0  0  0  0  0  0  0  0  0
  -26.6020  -34.8140   22.4080 O   0  0  0  0  0  0  0  0  0  0  0  0
  -24.9850  -34.0520   24.9960 H   0  0  0  0  0  0  0  0  0  0  0  0
  -24.2140  -36.7330   23.0570 C   0  0  0  0  0  1  0  0  0  0  0  0
  -25.4470  -36.3260   23.8800 C   0  0  0  0  0  3  0  0  0  0  0  0
  -27.5830  -37.1990   24.7180 C   0  0  0  0  0  1  0  0  0  0  0  0
  -26.4890  -37.3690   23.7650 N   0  0  0  0  0  0  0  0  0  0  0  0
  -26.0890  -38.2950   23.9020 H   0  0  0  0  0  0  0  0  0  0  0  0
  -26.3890  -31.7170   25.1640 C   0  0  1  0  0  0  0  0  0  0  0  0
  -25.2910  -31.4950   26.2300 C   0  0  0  0  0  1  0  0  0  0  0  0
  -26.9620  -30.3330   24.7820 C   0  0  0  0  0  1  0  0  0  0  0  0
  -27.5410  -32.5080   25.8250 C   0  0  0  0  0  1  0  0  0  0  0  0
  1  2  2  0
  1  4  1  0
  2 47  1  0
  3  2  1  0
  4  6  2  0
  5  4  1  0
  5  8  1  0
  7  5  1  0
  9  8  1  0
  9 10  1  0
 11 10  1  0
 12 17  1  0
 13 14  1  0
 13 12  1  0
 15 14  1  0
 15 22  1  0
 15 16  1  0
 17 11  1  0
 17 16  1  0
 18 11  2  0
 19 20  2  0
 20 39  1  0
 21 20  1  0
 21 24  1  0
 22 19  1  0
 22 23  1  0
 23 21  2  0
 24 25  1  0
 25 26  2  0
 27 30  1  0
 27 26  1  0
 28 27  2  0
 29 28  1  0
 29 24  2  0
 30 31  1  0
 31 32  1  0
 32 33  2  0
 34 33  1  0
 34 38  1  0
 35 34  2  0
 36 31  2  0
 36 35  1  0
 37 36  1  0
 39 40  1  0
 40 43  1  0
 40 42  1  0
 41 39  2  0
 44 45  1  0
 44 19  1  0
 46 44  1  0
 47 48  1  0
 49 50  1  0
 49 48  1  0
 51 62  2  0
 52 50  1  0
 52 57  1  0
 53 61  1  0
 53 63  1  0
 54 60  1  0
 54 56  1  0
 55 61  1  0
 56 55  1  0
 57 56  2  0
 58 59  1  0
 58 52  2  0
 59 54  2  0
 60 53  1  0
 61 51  1  0
 63 65  2  0
 64 63  1  0
 66 64  1  0
 67 76  2  0
 67 72  1  0
 68 64  1  0
 68 72  1  0
 69 68  1  0
 70 71  1  0
 70 69  1  0
 71 67  1  0
 72 73  2  0
 73 74  1  0
 75 74  2  0
 76 75  1  0
 77 51  1  0
 77 78  1  0
 77 87  1  0
 78 81  1  0
 79 83  1  0
 79 78  1  0
 80 79  2  0
 83 82  1  0
 85 83  1  0
 85 86  1  0
 85 84  1  0
 87 90  1  1
 87 88  1  0
 89 87  1  0
M  ISO  4  10 100  11 100  49 101  50 101
M  END
>  <TORSDO>  (31) 
F 23

>  <SCORE>  (31) 
-12.630

>  <name>  (31) 
30

>  <ligand_id>  (31) 
30

>  <original_smiles>  (31) 
[H]C(C(=O)N([H])C([H])([H])C([H])([H])C([H])([H])C(=O)N1C([H])([H])C([H])([H])C([H])([H])C([H])(n2nc(-c3c([H])c([H])c(Oc4c([H])c([H])c(F)c([H])c4F)c([H])c3[H])c(C(=O)N([H])[H])c2N([H])[H])C1([H])[H])=C(C([H])([H])[H])C([H])([H])C([H])([H])C([H])([H])Oc1c([H])c([H])c2c(c1[H])C([H])([H])N(C(=O)C([H])(N([H])C(=O)C([H])(N([H])C([H])([H])[H])C([H])([H])[H])C(C([H])([H])[H])(C([H])([H])[H])C([H])([H])[H])C([H])(C(=O)N([H])C1([H])c3c([H])c([H])c([H])c([H])c3C([H])([H])C([H])([H])C1([H])[H])C2([H])[H]

>  <smiles>  (31) 
[H]C(C(=O)N([H])C([H])([H])C([H])([H])C([H])([H])C(=O)N1C([H])([H])C([H])([H])C([H])([H])C([H])(n2nc(-c3c([H])c([H])c(Oc4c([H])c([H])c(F)c([H])c4F)c([H])c3[H])c(C(=O)N([H])[H])c2N([H])[H])C1([H])[H])=C(C([H])([H])[H])C([H])([H])C([H])([H])C([H])([H])Oc1c([H])c([H])c2c(c1[H])C([H])([H])N(C(=O)C([H])(N([H])C(=O)C([H])(N([H])C([H])([H])[H])C([H])([H])[H])C(C([H])([H])[H])(C([H])([H])[H])C([H])([H])[H])C([H])(C(=O)N([H])C1([H])c3c([H])c([H])c([H])c([H])c3C([H])([H])C([H])([H])C1([H])[H])C2([H])[H]

$$$$
31:0:0
     RDKit          3D

100107  0  0  1  0  0  0  0  0999 V2000
  -29.0960  -21.9000   19.9650 C   0  0  0  0  0  3  0  0  0  0  0  0
  -29.9640  -19.3300   20.3900 C   0  0  0  0  0  0  0  0  0  0  0  0
  -29.3390  -20.5520   20.7620 N   0  0  0  0  0  0  0  0  0  0  0  0
  -30.5360  -19.2670   19.3030 O   0  0  0  0  0  0  0  0  0  0  0  0
  -28.9400  -20.5470   21.6920 H   0  0  0  0  0  0  0  0  0  0  0  0
  -30.0810  -17.9580   21.2830 C   0  0  0  0  0  2  0  0  0  0  0  0
  -29.6850  -16.4330   20.7210 C   0  0  0  0  0  2  0  0  0  0  0  0
  -30.6250  -15.0810   20.6400 C   0  0  0  0  0  0  0  0  0  0  0  0
  -30.5930  -12.7710   19.6200 C   0  0  0  0  0  2  0  0  0  0  0  0
  -29.6850  -12.8140   18.3670 C   0  0  0  0  0  2  0  0  0  0  0  0
  -28.2090  -12.5730   18.7480 C   0  0  0  0  0  2  0  0  0  0  0  0
  -27.7680  -13.4330   19.9600 C   0  0  0  0  0  3  0  0  0  0  0  0
  -28.7970  -13.3650   21.1080 C   0  0  0  0  0  2  0  0  0  0  0  0
  -30.0940  -13.7980   20.5710 N   0  0  0  0  0  0  0  0  0  0  0  0
  -31.8330  -15.2070   20.4070 O   0  0  0  0  0  0  0  0  0  0  0  0
  -25.3460  -13.9530   20.6190 C   0  0  0  0  0  0  0  0  0  0  0  0
  -24.2890  -13.1490   20.9420 C   0  0  0  0  0  0  0  0  0  0  0  0
  -24.7870  -11.8100   20.9190 C   0  0  0  0  0  0  0  0  0  0  0  0
  -26.4190  -13.1030   20.4070 N   0  0  0  0  0  0  0  0  0  0  0  0
  -26.0890  -11.8090   20.6570 N   0  0  0  0  0  0  0  0  0  0  0  0
  -24.0850  -10.5300   21.0780 C   0  0  0  0  0  0  0  0  0  0  0  0
  -24.4830   -9.5820   22.0470 C   0  0  0  0  0  3  0  0  0  0  0  0
  -23.7780   -8.3670   22.1910 C   0  0  0  0  0  3  0  0  0  0  0  0
  -22.6640   -8.0900   21.3630 C   0  0  0  0  0  0  0  0  0  0  0  0
  -22.2880   -9.0270   20.3840 C   0  0  0  0  0  3  0  0  0  0  0  0
  -22.9920  -10.2330   20.2390 C   0  0  0  0  0  3  0  0  0  0  0  0
  -21.9360   -6.9250   21.4130 O   0  0  0  0  0  0  0  0  0  0  0  0
  -21.7960   -6.2140   22.5770 C   0  0  0  0  0  0  0  0  0  0  0  0
  -21.1450   -6.7570   23.7060 C   0  0  0  0  0  3  0  0  0  0  0  0
  -20.9600   -5.9680   24.8590 C   0  0  0  0  0  3  0  0  0  0  0  0
  -21.4150   -4.6350   24.8800 C   0  0  0  0  0  0  0  0  0  0  0  0
  -22.0580   -4.0910   23.7540 C   0  0  0  0  0  3  0  0  0  0  0  0
  -22.2440   -4.8780   22.6040 C   0  0  0  0  0  0  0  0  0  0  0  0
  -22.8460   -4.3430   21.5150 F   0  0  0  0  0  0  0  0  0  0  0  0
  -21.2290   -3.8730   25.9840 F   0  0  0  0  0  0  0  0  0  0  0  0
  -22.8720  -13.5890   21.1680 C   0  0  0  0  0  0  0  0  0  0  0  0
  -22.1330  -12.8720   22.0070 N   0  0  0  0  0  0  0  0  0  0  0  0
  -22.4280  -14.6070   20.6390 O   0  0  0  0  0  0  0  0  0  0  0  0
  -22.5070  -12.0470   22.4530 H   0  0  0  0  0  0  0  0  0  0  0  0
  -21.1830  -13.1500   22.2050 H   0  0  0  0  0  0  0  0  0  0  0  0
  -25.4790  -15.3300   20.4620 N   0  0  0  0  0  0  0  0  0  0  0  0
  -24.6850  -15.9540   20.5590 H   0  0  0  0  0  0  0  0  0  0  0  0
  -26.3240  -15.8020   20.1670 H   0  0  0  0  0  0  0  0  0  0  0  0
  -27.9560  -21.6600   18.9360 C   0  0  0  0  0  2  0  0  0  0  0  0
  -27.9200  -19.8610   17.1420 C   0  0  0  0  0  3  0  0  0  0  0  0
  -28.4330  -20.9950   17.6560 C   0  0  0  0  0  3  0  0  0  0  0  0
  -28.3910  -19.1420   15.8850 C   0  0  0  0  0  2  0  0  0  0  0  0
  -29.9200  -19.0450   15.7030 C   0  0  0  0  0  2  0  0  0  0  0  0
  -31.7610  -17.6490   16.6920 C   0  0  0  0  0  0  0  0  0  0  0  0
  -32.1700  -16.8910   17.7030 N   0  0  0  0  0  0  0  0  0  0  0  0
  -32.5770  -17.8680   15.6630 N   0  0  0  0  0  4  0  0  0  0  0  0
  -30.5350  -18.1820   16.7240 N   0  0  0  0  0  0  0  0  0  0  0  0
  -33.0940  -16.4870   17.7450 H   0  0  0  0  0  0  0  0  0  0  0  0
  -31.5520  -16.7000   18.4810 H   0  0  0  0  0  0  0  0  0  0  0  0
  -33.5150  -17.5010   15.6300 H   0  0  0  0  0  0  0  0  0  0  0  0
  -32.2730  -18.4260   14.8780 H   0  0  0  0  0  0  0  0  0  0  0  0
  -29.9880  -18.0640   17.5770 H   0  0  0  0  0  0  0  0  0  0  0  0
  -28.9120  -23.4200   20.6810 C   0  0  0  0  0  2  0  0  0  0  0  0
  -28.2750  -24.7830   19.9180 C   0  0  0  0  0  2  0  0  0  0  0  0
  -28.4360  -26.2870   20.2780 O   0  0  0  0  0  0  0  0  0  0  0  0
  -24.5920  -31.8410   23.2000 C   0  0  0  0  0  0  0  0  0  0  0  0
  -27.3600  -27.2420   20.1720 C   0  0  0  0  0  0  0  0  0  0  0  0
  -23.4700  -30.4470   21.5050 C   0  0  0  0  0  3  0  0  0  0  0  0
  -24.9950  -28.9310   20.0940 C   0  0  0  0  0  0  0  0  0  0  0  0
  -26.0190  -30.7700   21.4230 C   0  0  0  0  0  2  0  0  0  0  0  0
  -26.1430  -29.3930   20.7490 C   0  0  0  0  0  0  0  0  0  0  0  0
  -27.3240  -28.5610   20.7800 C   0  0  0  0  0  3  0  0  0  0  0  0
  -26.1900  -26.8890   19.4630 C   0  0  0  0  0  3  0  0  0  0  0  0
  -25.0290  -27.6930   19.4370 C   0  0  0  0  0  3  0  0  0  0  0  0
  -23.7460  -29.7990   20.1220 C   0  0  0  0  0  2  0  0  0  0  0  0
  -24.7110  -31.0390   22.0990 N   0  0  0  0  0  0  0  0  0  0  0  0
  -23.4860  -32.0930   23.7010 O   0  0  0  0  0  0  0  0  0  0  0  0
  -22.7830  -29.4100   22.4290 C   0  0  0  0  0  0  0  0  0  0  0  0
  -21.4620  -29.2230   22.2660 N   0  0  0  0  0  0  0  0  0  0  0  0
  -23.4430  -28.7770   23.2570 O   0  0  0  0  0  0  0  0  0  0  0  0
  -20.9840  -29.7760   21.5680 H   0  0  0  0  0  0  0  0  0  0  0  0
  -18.0800  -28.0110   22.7090 C   0  0  0  0  0  0  0  0  0  0  0  0
  -20.6370  -28.2600   23.0010 C   0  0  0  0  0  3  0  0  0  0  0  0
  -20.7430  -26.8490   22.3750 C   0  0  0  0  0  2  0  0  0  0  0  0
  -19.6480  -26.5640   21.3420 C   0  0  0  0  0  2  0  0  0  0  0  0
  -18.2620  -26.6890   21.9820 C   0  0  0  0  0  2  0  0  0  0  0  0
  -19.1960  -28.7560   23.1730 C   0  0  0  0  0  0  0  0  0  0  0  0
  -18.9760  -29.9950   23.8120 C   0  0  0  0  0  3  0  0  0  0  0  0
  -17.6700  -30.4930   23.9880 C   0  0  0  0  0  3  0  0  0  0  0  0
  -16.5680  -29.7440   23.5440 C   0  0  0  0  0  3  0  0  0  0  0  0
  -16.7730  -28.5030   22.9150 C   0  0  0  0  0  3  0  0  0  0  0  0
  -25.8380  -32.4940   23.8700 C   0  0  0  0  0  3  0  0  0  0  0  0
  -26.3030  -31.7420   25.1790 C   0  0  1  0  0  0  0  0  0  0  0  0
  -25.1610  -31.5000   26.1910 C   0  0  0  0  0  1  0  0  0  0  0  0
  -26.9260  -30.3700   24.8360 C   0  0  0  0  0  1  0  0  0  0  0  0
  -27.4100  -32.5560   25.8910 C   0  0  0  0  0  1  0  0  0  0  0  0
  -25.5000  -33.8920   24.1770 N   0  0  0  0  0  0  0  0  0  0  0  0
  -25.8980  -34.9510   23.4570 C   0  0  0  0  0  0  0  0  0  0  0  0
  -26.6530  -34.8520   22.4860 O   0  0  0  0  0  0  0  0  0  0  0  0
  -24.8440  -34.0390   24.9300 H   0  0  0  0  0  0  0  0  0  0  0  0
  -24.2610  -36.7840   22.9230 C   0  0  0  0  0  1  0  0  0  0  0  0
  -25.3780  -36.3380   23.8800 C   0  0  0  0  0  3  0  0  0  0  0  0
  -27.3820  -37.1820   25.0260 C   0  0  0  0  0  1  0  0  0  0  0  0
  -26.4350  -37.3730   23.9300 N   0  0  0  0  0  0  0  0  0  0  0  0
  -26.0280  -38.3000   24.0250 H   0  0  0  0  0  0  0  0  0  0  0  0
  1 44  1  0
  1 58  1  0
  1  3  1  0
  2  3  1  0
  2  6  1  0
  3  5  1  0
  4  2  2  0
  7  6  1  0
  8  7  1  0
  9 14  1  0
 10 11  1  0
 10  9  1  0
 12 11  1  0
 12 19  1  0
 12 13  1  0
 14  8  1  0
 14 13  1  0
 15  8  2  0
 16 17  2  0
 17 36  1  0
 18 17  1  0
 18 21  1  0
 19 16  1  0
 19 20  1  0
 20 18  2  0
 21 22  1  0
 22 23  2  0
 24 27  1  0
 24 23  1  0
 25 24  2  0
 26 25  1  0
 26 21  2  0
 27 28  1  0
 28 33  2  0
 28 29  1  0
 29 30  2  0
 30 31  1  0
 31 35  1  0
 32 31  2  0
 33 32  1  0
 34 33  1  0
 36 37  1  0
 37 40  1  0
 37 39  1  0
 38 36  2  0
 41 42  1  0
 41 16  1  0
 43 41  1  0
 45 46  2  0
 46 44  1  0
 47 45  1  0
 48 47  1  0
 48 52  1  0
 49 52  1  0
 49 50  1  0
 50 53  1  0
 50 54  1  0
 51 49  2  0
 52 57  1  0
 55 51  1  0
 56 51  1  0
 59 60  1  0
 59 58  1  0
 61 72  2  0
 62 60  1  0
 62 67  1  0
 63 71  1  0
 63 73  1  0
 64 70  1  0
 64 66  1  0
 65 71  1  0
 66 67  2  0
 66 65  1  0
 68 62  2  0
 69 68  1  0
 69 64  2  0
 70 63  1  0
 71 61  1  0
 73 75  2  0
 74 73  1  0
 76 74  1  0
 77 86  2  0
 77 82  1  0
 78 74  1  0
 78 82  1  0
 79 78  1  0
 80 81  1  0
 80 79  1  0
 81 77  1  0
 82 83  2  0
 83 84  1  0
 85 84  2  0
 86 85  1  0
 87 61  1  0
 87 92  1  0
 87 88  1  0
 88 91  1  1
 88 89  1  0
 90 88  1  0
 92 95  1  0
 93 97  1  0
 93 92  1  0
 94 93  2  0
 97 96  1  0
 97 99  1  0
 99100  1  0
 99 98  1  0
M  ISO  4   7 100   8 100  59 101  60 101
M  END
>  <TORSDO>  (32) 
F 26

>  <SCORE>  (32) 
-12.352

>  <name>  (32) 
31

>  <ligand_id>  (32) 
31

>  <original_smiles>  (32) 
[H]C(=C([H])C([H])([H])C([H])(N([H])C(=O)C([H])([H])C([H])([H])C(=O)N1C([H])([H])C([H])([H])C([H])([H])C([H])(n2nc(-c3c([H])c([H])c(Oc4c([H])c([H])c(F)c([H])c4F)c([H])c3[H])c(C(=O)N([H])[H])c2N([H])[H])C1([H])[H])C([H])([H])C([H])([H])Oc1c([H])c([H])c2c(c1[H])C([H])([H])N(C(=O)C([H])(N([H])C(=O)C([H])(N([H])C([H])([H])[H])C([H])([H])[H])C(C([H])([H])[H])(C([H])([H])[H])C([H])([H])[H])C([H])(C(=O)N([H])C1([H])c3c([H])c([H])c([H])c([H])c3C([H])([H])C([H])([H])C1([H])[H])C2([H])[H])C([H])([H])C([H])([H])N([H])C(N([H])[H])=[N+]([H])[H]

>  <smiles>  (32) 
[H]C(=C([H])C([H])([H])C([H])(N([H])C(=O)C([H])([H])C([H])([H])C(=O)N1C([H])([H])C([H])([H])C([H])([H])C([H])(n2nc(-c3c([H])c([H])c(Oc4c([H])c([H])c(F)c([H])c4F)c([H])c3[H])c(C(=O)N([H])[H])c2N([H])[H])C1([H])[H])C([H])([H])C([H])([H])Oc1c([H])c([H])c2c(c1[H])C([H])([H])N(C(=O)C([H])(N([H])C(=O)C([H])(N([H])C([H])([H])[H])C([H])([H])[H])C(C([H])([H])[H])(C([H])([H])[H])C([H])([H])[H])C([H])(C(=O)N([H])C1([H])c3c([H])c([H])c([H])c([H])c3C([H])([H])C([H])([H])C1([H])[H])C2([H])[H])C([H])([H])C([H])([H])N([H])C(N([H])[H])=[N+]([H])[H]

$$$$
32:0:0
     RDKit          3D

 94102  0  0  1  0  0  0  0  0999 V2000
  -27.6560  -21.7790   21.9470 N   0  0  0  0  0  4  0  0  0  0  0  0
  -27.9080  -21.5200   22.8880 H   0  0  0  0  0  0  0  0  0  0  0  0
  -26.6840  -21.5360   21.8380 H   0  0  0  0  0  0  0  0  0  0  0  0
  -28.5910  -18.9230   19.6780 C   0  0  0  0  0  2  0  0  0  0  0  0
  -27.5620  -19.8650   20.3170 C   0  0  0  0  0  2  0  0  0  0  0  0
  -29.5930  -20.1860   21.5280 C   0  0  0  0  0  2  0  0  0  0  0  0
  -29.9180  -19.1470   20.4360 C   0  0  0  0  0  3  0  0  0  0  0  0
  -28.4060  -20.9740   20.9530 C   0  0  0  0  0  3  0  0  0  0  0  0
  -30.8080  -16.8380   20.2230 C   0  0  0  0  0  0  0  0  0  0  0  0
  -30.4630  -17.8970   20.9730 N   0  0  0  0  0  0  0  0  0  0  0  0
  -30.6850  -16.8640   18.9960 O   0  0  0  0  0  0  0  0  0  0  0  0
  -30.5980  -17.8320   21.9750 H   0  0  0  0  0  0  0  0  0  0  0  0
  -31.3480  -15.6050   20.9790 C   0  0  0  0  0  2  0  0  0  0  0  0
  -31.7060  -14.4760   19.9850 C   0  0  0  0  0  0  0  0  0  0  0  0
  -31.2120  -12.3160   18.8760 C   0  0  0  0  0  2  0  0  0  0  0  0
  -30.2360  -12.4930   17.6980 C   0  0  0  0  0  2  0  0  0  0  0  0
  -28.7780  -12.4280   18.1890 C   0  0  0  0  0  2  0  0  0  0  0  0
  -28.5230  -13.3630   19.3990 C   0  0  0  0  0  3  0  0  0  0  0  0
  -29.6050  -13.1720   20.4870 C   0  0  0  0  0  2  0  0  0  0  0  0
  -30.9270  -13.3630   19.8690 N   0  0  0  0  0  0  0  0  0  0  0  0
  -32.7390  -14.6160   19.3190 O   0  0  0  0  0  0  0  0  0  0  0  0
  -26.2370  -14.1550   20.2780 C   0  0  0  0  0  0  0  0  0  0  0  0
  -25.1210  -13.4630   20.6690 C   0  0  0  0  0  0  0  0  0  0  0  0
  -25.4490  -12.0800   20.5400 C   0  0  0  0  0  0  0  0  0  0  0  0
  -27.1790  -13.1930   19.9410 N   0  0  0  0  0  0  0  0  0  0  0  0
  -26.7110  -11.9380   20.1560 N   0  0  0  0  0  0  0  0  0  0  0  0
  -24.6170  -10.8810   20.7040 C   0  0  0  0  0  0  0  0  0  0  0  0
  -24.9750   -9.8540   21.6050 C   0  0  0  0  0  3  0  0  0  0  0  0
  -24.1520   -8.7180   21.7570 C   0  0  0  0  0  3  0  0  0  0  0  0
  -22.9570   -8.6030   21.0110 C   0  0  0  0  0  0  0  0  0  0  0  0
  -22.6170   -9.6170   20.0980 C   0  0  0  0  0  3  0  0  0  0  0  0
  -23.4400  -10.7450   19.9430 C   0  0  0  0  0  3  0  0  0  0  0  0
  -22.1080   -7.5250   21.0740 O   0  0  0  0  0  0  0  0  0  0  0  0
  -21.9080   -6.8350   22.2430 C   0  0  0  0  0  0  0  0  0  0  0  0
  -21.4610   -7.4750   23.4190 C   0  0  0  0  0  3  0  0  0  0  0  0
  -21.2020   -6.7170   24.5790 C   0  0  0  0  0  3  0  0  0  0  0  0
  -21.3790   -5.3200   24.5610 C   0  0  0  0  0  0  0  0  0  0  0  0
  -21.8210   -4.6810   23.3890 C   0  0  0  0  0  3  0  0  0  0  0  0
  -22.0800   -5.4360   22.2330 C   0  0  0  0  0  0  0  0  0  0  0  0
  -22.4840   -4.8110   21.1000 F   0  0  0  0  0  0  0  0  0  0  0  0
  -21.1220   -4.5900   25.6720 F   0  0  0  0  0  0  0  0  0  0  0  0
  -23.7910  -14.0510   21.0460 C   0  0  0  0  0  0  0  0  0  0  0  0
  -23.0670  -13.3970   21.9490 N   0  0  0  0  0  0  0  0  0  0  0  0
  -23.4060  -15.1210   20.5760 O   0  0  0  0  0  0  0  0  0  0  0  0
  -23.3910  -12.5310   22.3510 H   0  0  0  0  0  0  0  0  0  0  0  0
  -22.1750  -13.7700   22.2400 H   0  0  0  0  0  0  0  0  0  0  0  0
  -26.5210  -15.5110   20.1630 N   0  0  0  0  0  0  0  0  0  0  0  0
  -25.8190  -16.2230   20.3310 H   0  0  0  0  0  0  0  0  0  0  0  0
  -27.4010  -15.8850   19.8250 H   0  0  0  0  0  0  0  0  0  0  0  0
  -27.7230  -23.2510   21.7760 C   0  0  0  0  0  2  0  0  0  0  0  0
  -29.1420  -23.8290   21.9610 C   0  0  0  0  0  2  0  0  0  0  0  0
  -29.2600  -25.3350   21.6360 C   0  0  0  0  0  2  0  0  0  0  0  0
  -29.2990  -25.6580   20.1320 C   0  0  0  0  0  2  0  0  0  0  0  0
  -29.2420  -27.0780   19.9420 O   0  0  0  0  0  0  0  0  0  0  0  0
  -24.8900  -31.6080   23.2800 C   0  0  0  0  0  0  0  0  0  0  0  0
  -28.0000  -27.6740   19.9640 C   0  0  0  0  0  0  0  0  0  0  0  0
  -23.8570  -30.2380   21.4990 C   0  0  0  0  0  3  0  0  0  0  0  0
  -25.4790  -28.9520   20.0110 C   0  0  0  0  0  0  0  0  0  0  0  0
  -26.3440  -30.8310   21.4140 C   0  0  0  0  0  2  0  0  0  0  0  0
  -26.5690  -29.5300   20.6740 C   0  0  0  0  0  0  0  0  0  0  0  0
  -27.8320  -28.9000   20.6470 C   0  0  0  0  0  3  0  0  0  0  0  0
  -26.8960  -27.1190   19.2800 C   0  0  0  0  0  3  0  0  0  0  0  0
  -25.6390  -27.7450   19.3090 C   0  0  0  0  0  3  0  0  0  0  0  0
  -24.1620  -29.6880   20.0800 C   0  0  0  0  0  2  0  0  0  0  0  0
  -25.0460  -30.9040   22.1240 N   0  0  0  0  0  0  0  0  0  0  0  0
  -23.7770  -31.7400   23.8060 O   0  0  0  0  0  0  0  0  0  0  0  0
  -23.2790  -29.0890   22.3570 C   0  0  0  0  0  0  0  0  0  0  0  0
  -21.9820  -28.7960   22.1670 N   0  0  0  0  0  0  0  0  0  0  0  0
  -23.9940  -28.4670   23.1470 O   0  0  0  0  0  0  0  0  0  0  0  0
  -21.4610  -29.3570   21.5060 H   0  0  0  0  0  0  0  0  0  0  0  0
  -18.7160  -27.2850   22.4690 C   0  0  0  0  0  0  0  0  0  0  0  0
  -21.2350  -27.7340   22.8360 C   0  0  0  0  0  3  0  0  0  0  0  0
  -21.4730  -26.3680   22.1510 C   0  0  0  0  0  2  0  0  0  0  0  0
  -20.4290  -26.0400   21.0800 C   0  0  0  0  0  2  0  0  0  0  0  0
  -19.0230  -26.0170   21.6890 C   0  0  0  0  0  2  0  0  0  0  0  0
  -19.7550  -28.1000   22.9920 C   0  0  0  0  0  0  0  0  0  0  0  0
  -19.4170  -29.2880   23.6770 C   0  0  0  0  0  3  0  0  0  0  0  0
  -18.0720  -29.6660   23.8410 C   0  0  0  0  0  3  0  0  0  0  0  0
  -17.0470  -28.8470   23.3370 C   0  0  0  0  0  3  0  0  0  0  0  0
  -17.3680  -27.6570   22.6580 C   0  0  0  0  0  3  0  0  0  0  0  0
  -26.0990  -32.3000   23.9840 C   0  0  0  0  0  3  0  0  0  0  0  0
  -25.6920  -33.6720   24.3110 N   0  0  0  0  0  0  0  0  0  0  0  0
  -26.0190  -34.7550   23.5930 C   0  0  0  0  0  0  0  0  0  0  0  0
  -26.7660  -34.7080   22.6120 O   0  0  0  0  0  0  0  0  0  0  0  0
  -25.0390  -33.7800   25.0730 H   0  0  0  0  0  0  0  0  0  0  0  0
  -24.2250  -36.4560   23.1380 C   0  0  0  0  0  1  0  0  0  0  0  0
  -25.4230  -36.1050   24.0350 C   0  0  0  0  0  3  0  0  0  0  0  0
  -27.4450  -37.0780   25.0310 C   0  0  0  0  0  1  0  0  0  0  0  0
  -26.4020  -37.2150   24.0190 N   0  0  0  0  0  0  0  0  0  0  0  0
  -25.9360  -38.1070   24.1630 H   0  0  0  0  0  0  0  0  0  0  0  0
  -26.5850  -31.5390   25.2760 C   0  0  1  0  0  0  0  0  0  0  0  0
  -25.4370  -31.1730   26.2470 C   0  0  0  0  0  1  0  0  0  0  0  0
  -27.3160  -30.2300   24.8970 C   0  0  0  0  0  1  0  0  0  0  0  0
  -27.6030  -32.4100   26.0480 C   0  0  0  0  0  1  0  0  0  0  0  0
  1  2  1  0
  3  1  1  0
  4  5  1  0
  4  7  1  0
  5  8  1  0
  7 10  1  0
  7  6  1  0
  8  6  1  0
  8  1  1  0
  9 10  1  0
  9 13  1  0
 10 12  1  0
 11  9  2  0
 14 13  1  0
 15 20  1  0
 16 17  1  0
 16 15  1  0
 18 17  1  0
 18 25  1  0
 18 19  1  0
 20 14  1  0
 20 19  1  0
 21 14  2  0
 22 23  2  0
 23 42  1  0
 24 23  1  0
 24 27  1  0
 25 26  1  0
 25 22  1  0
 26 24  2  0
 27 28  1  0
 28 29  2  0
 30 33  1  0
 30 29  1  0
 31 30  2  0
 32 31  1  0
 32 27  2  0
 33 34  1  0
 34 35  1  0
 35 36  2  0
 37 36  1  0
 37 41  1  0
 38 37  2  0
 39 34  2  0
 39 38  1  0
 40 39  1  0
 42 43  1  0
 43 46  1  0
 43 45  1  0
 44 42  2  0
 47 22  1  0
 47 48  1  0
 49 47  1  0
 50  1  1  0
 50 51  1  0
 52 51  1  0
 53 52  1  0
 54 56  1  0
 54 53  1  0
 55 66  2  0
 56 61  1  0
 57 65  1  0
 57 67  1  0
 58 64  1  0
 58 60  1  0
 59 65  1  0
 60 59  1  0
 61 60  2  0
 62 63  1  0
 62 56  2  0
 63 58  2  0
 64 57  1  0
 65 55  1  0
 67 69  2  0
 68 67  1  0
 70 68  1  0
 71 80  2  0
 71 76  1  0
 72 68  1  0
 72 76  1  0
 73 72  1  0
 74 75  1  0
 74 73  1  0
 75 71  1  0
 76 77  2  0
 77 78  1  0
 79 78  2  0
 80 79  1  0
 81 55  1  0
 81 82  1  0
 81 91  1  0
 82 85  1  0
 83 87  1  0
 83 82  1  0
 84 83  2  0
 87 86  1  0
 89 87  1  0
 89 90  1  0
 89 88  1  0
 91 94  1  1
 91 92  1  0
 93 91  1  0
M  ISO  4  13 100  14 100  53 101  54 101
M  END
>  <TORSDO>  (33) 
F 23

>  <SCORE>  (33) 
-10.601

>  <name>  (33) 
32

>  <ligand_id>  (33) 
32

>  <original_smiles>  (33) 
[H]c1c([H])c([H])c2c(c1[H])C([H])([H])C([H])([H])C([H])([H])C2([H])N([H])C(=O)C1([H])N(C(=O)C([H])(N([H])C(=O)C([H])(N([H])C([H])([H])[H])C([H])([H])[H])C(C([H])([H])[H])(C([H])([H])[H])C([H])([H])[H])C([H])([H])c2c([H])c(OC([H])([H])C([H])([H])C([H])([H])C([H])([H])[N+]([H])([H])C3([H])C([H])([H])C([H])([H])C([H])(N([H])C(=O)C([H])([H])C(=O)N4C([H])([H])C([H])([H])C([H])([H])C([H])(n5nc(-c6c([H])c([H])c(Oc7c([H])c([H])c(F)c([H])c7F)c([H])c6[H])c(C(=O)N([H])[H])c5N([H])[H])C4([H])[H])C3([H])[H])c([H])c([H])c2C1([H])[H]

>  <smiles>  (33) 
[H]c1c([H])c([H])c2c(c1[H])C([H])([H])C([H])([H])C([H])([H])C2([H])N([H])C(=O)C1([H])N(C(=O)C([H])(N([H])C(=O)C([H])(N([H])C([H])([H])[H])C([H])([H])[H])C(C([H])([H])[H])(C([H])([H])[H])C([H])([H])[H])C([H])([H])c2c([H])c(OC([H])([H])C([H])([H])C([H])([H])C([H])([H])[N+]([H])([H])C3([H])C([H])([H])C([H])([H])C([H])(N([H])C(=O)C([H])([H])C(=O)N4C([H])([H])C([H])([H])C([H])([H])C([H])(n5nc(-c6c([H])c([H])c(Oc7c([H])c([H])c(F)c([H])c7F)c([H])c6[H])c(C(=O)N([H])[H])c5N([H])[H])C4([H])[H])C3([H])[H])c([H])c([H])c2C1([H])[H]

$$$$
33:0:0
     RDKit          3D

 98107  0  0  1  0  0  0  0  0999 V2000
  -29.7020  -18.7070   19.1160 C   0  0  0  0  0  3  0  0  0  0  0  0
  -31.8570  -19.6310   20.0520 C   0  0  0  0  0  2  0  0  0  0  0  0
  -30.5440  -21.0190   18.5320 C   0  0  0  0  0  3  0  0  0  0  0  0
  -32.7030  -20.8220   19.6720 C   0  0  0  0  0  3  0  0  0  0  0  0
  -31.9230  -21.6730   18.7240 C   0  0  0  0  0  3  0  0  0  0  0  0
  -33.2330  -21.0610   18.2670 C   0  0  2  0  0  0  0  0  0  0  0  0
  -28.5630  -18.8650   18.1420 C   0  0  0  0  0  1  0  0  0  0  0  0
  -33.2530  -19.9560   17.2190 C   0  0  0  0  0  1  0  0  0  0  0  0
  -34.4370  -21.9660   18.0840 C   0  0  0  0  0  1  0  0  0  0  0  0
  -30.6180  -19.7150   19.2510 N   0  0  0  0  0  0  0  0  0  0  0  0
  -29.7020  -17.5230   19.7860 N   0  0  0  0  0  0  0  0  0  0  0  0
  -28.9520  -16.8980   19.5280 H   0  0  0  0  0  0  0  0  0  0  0  0
  -29.4360  -21.9470   19.0680 C   0  0  0  0  0  0  0  0  0  0  0  0
  -29.2160  -23.0810   18.3850 N   0  0  0  0  0  0  0  0  0  0  0  0
  -28.7870  -21.6520   20.0750 O   0  0  0  0  0  0  0  0  0  0  0  0
  -29.7910  -23.2550   17.5700 H   0  0  0  0  0  0  0  0  0  0  0  0
  -28.1700  -24.0550   18.6890 C   0  0  0  0  0  2  0  0  0  0  0  0
  -28.4180  -25.4180   18.0080 C   0  0  0  0  0  2  0  0  0  0  0  0
  -29.0470  -26.4970   18.9170 C   0  0  0  0  0  2  0  0  0  0  0  0
  -28.3870  -26.7270   20.1660 O   0  0  0  0  0  0  0  0  0  0  0  0
  -24.5770  -31.8880   23.2450 C   0  0  0  0  0  0  0  0  0  0  0  0
  -27.2240  -27.4600   20.1490 C   0  0  0  0  0  0  0  0  0  0  0  0
  -23.3680  -30.4810   21.6090 C   0  0  0  0  0  3  0  0  0  0  0  0
  -24.8200  -28.9410   20.1890 C   0  0  0  0  0  0  0  0  0  0  0  0
  -25.8920  -30.8450   21.4030 C   0  0  0  0  0  2  0  0  0  0  0  0
  -25.9790  -29.4720   20.7690 C   0  0  0  0  0  0  0  0  0  0  0  0
  -27.1840  -28.7350   20.7550 C   0  0  0  0  0  3  0  0  0  0  0  0
  -26.0390  -26.9210   19.6080 C   0  0  0  0  0  3  0  0  0  0  0  0
  -24.8410  -27.6600   19.6120 C   0  0  0  0  0  3  0  0  0  0  0  0
  -23.5760  -29.7960   20.2320 C   0  0  0  0  0  2  0  0  0  0  0  0
  -24.6310  -31.0850   22.1450 N   0  0  0  0  0  0  0  0  0  0  0  0
  -23.4960  -32.1630   23.7860 O   0  0  0  0  0  0  0  0  0  0  0  0
  -22.7190  -29.4620   22.5740 C   0  0  0  0  0  0  0  0  0  0  0  0
  -21.3970  -29.2710   22.4410 N   0  0  0  0  0  0  0  0  0  0  0  0
  -23.4040  -28.8470   23.3960 O   0  0  0  0  0  0  0  0  0  0  0  0
  -20.9070  -29.8200   21.7480 H   0  0  0  0  0  0  0  0  0  0  0  0
  -18.0280  -28.0570   22.9190 C   0  0  0  0  0  0  0  0  0  0  0  0
  -20.5810  -28.3350   23.2140 C   0  0  0  0  0  3  0  0  0  0  0  0
  -20.6990  -26.8990   22.6510 C   0  0  0  0  0  2  0  0  0  0  0  0
  -19.6090  -26.5590   21.6300 C   0  0  0  0  0  2  0  0  0  0  0  0
  -18.2200  -26.7020   22.2600 C   0  0  0  0  0  2  0  0  0  0  0  0
  -19.1370  -28.8310   23.3520 C   0  0  0  0  0  0  0  0  0  0  0  0
  -18.9050  -30.1010   23.9260 C   0  0  0  0  0  3  0  0  0  0  0  0
  -17.5950  -30.5950   24.0730 C   0  0  0  0  0  3  0  0  0  0  0  0
  -16.5000  -29.8180   23.6580 C   0  0  0  0  0  3  0  0  0  0  0  0
  -16.7180  -28.5510   23.0850 C   0  0  0  0  0  3  0  0  0  0  0  0
  -25.8650  -32.5190   23.8600 C   0  0  0  0  0  3  0  0  0  0  0  0
  -25.5580  -33.9180   24.1870 N   0  0  0  0  0  0  0  0  0  0  0  0
  -25.8970  -34.9670   23.4260 C   0  0  0  0  0  0  0  0  0  0  0  0
  -26.5720  -34.8590   22.3970 O   0  0  0  0  0  0  0  0  0  0  0  0
  -24.9610  -34.0770   24.9860 H   0  0  0  0  0  0  0  0  0  0  0  0
  -24.1780  -36.7630   23.0510 C   0  0  0  0  0  1  0  0  0  0  0  0
  -25.4090  -36.3560   23.8760 C   0  0  0  0  0  3  0  0  0  0  0  0
  -27.5390  -37.2340   24.7250 C   0  0  0  0  0  1  0  0  0  0  0  0
  -26.4460  -37.4060   23.7720 N   0  0  0  0  0  0  0  0  0  0  0  0
  -26.0410  -38.3270   23.9170 H   0  0  0  0  0  0  0  0  0  0  0  0
  -26.3890  -31.7490   25.1350 C   0  0  1  0  0  0  0  0  0  0  0  0
  -25.3010  -31.5100   26.2090 C   0  0  0  0  0  1  0  0  0  0  0  0
  -26.9700  -30.3720   24.7380 C   0  0  0  0  0  1  0  0  0  0  0  0
  -27.5430  -32.5430   25.7910 C   0  0  0  0  0  1  0  0  0  0  0  0
  -30.5520  -16.9840   20.8720 C   0  0  0  0  0  2  0  0  0  0  0  0
  -30.0910  -15.5820   21.3450 C   0  0  0  0  0  2  0  0  0  0  0  0
  -30.6950  -14.4110   20.5410 C   0  0  0  0  0  0  0  0  0  0  0  0
  -30.3450  -12.3000   19.3100 C   0  0  0  0  0  2  0  0  0  0  0  0
  -29.4120  -12.5680   18.1120 C   0  0  0  0  0  2  0  0  0  0  0  0
  -27.9330  -12.4550   18.5320 C   0  0  0  0  0  2  0  0  0  0  0  0
  -27.6140  -13.2540   19.8230 C   0  0  0  0  0  3  0  0  0  0  0  0
  -28.6630  -12.9720   20.9230 C   0  0  0  0  0  2  0  0  0  0  0  0
  -29.9940  -13.2590   20.3670 N   0  0  0  0  0  0  0  0  0  0  0  0
  -31.7940  -14.5890   20.0050 O   0  0  0  0  0  0  0  0  0  0  0  0
  -25.2080  -13.8830   20.5000 C   0  0  0  0  0  0  0  0  0  0  0  0
  -24.1310  -13.1190   20.8650 C   0  0  0  0  0  0  0  0  0  0  0  0
  -24.5840  -11.7660   20.8470 C   0  0  0  0  0  0  0  0  0  0  0  0
  -26.2510  -12.9940   20.2890 N   0  0  0  0  0  0  0  0  0  0  0  0
  -25.8770  -11.7160   20.5520 N   0  0  0  0  0  0  0  0  0  0  0  0
  -23.8490  -10.5090   21.0390 C   0  0  0  0  0  0  0  0  0  0  0  0
  -24.2750   -9.5400   21.9740 C   0  0  0  0  0  3  0  0  0  0  0  0
  -23.5390   -8.3480   22.1530 C   0  0  0  0  0  3  0  0  0  0  0  0
  -22.3650   -8.1180   21.3980 C   0  0  0  0  0  0  0  0  0  0  0  0
  -21.9580   -9.0760   20.4530 C   0  0  0  0  0  3  0  0  0  0  0  0
  -22.6940  -10.2590   20.2710 C   0  0  0  0  0  3  0  0  0  0  0  0
  -21.6020   -6.9790   21.4870 O   0  0  0  0  0  0  0  0  0  0  0  0
  -21.5520   -6.2330   22.6370 C   0  0  0  0  0  0  0  0  0  0  0  0
  -21.1490   -6.7910   23.8700 C   0  0  0  0  0  3  0  0  0  0  0  0
  -21.0450   -5.9740   25.0130 C   0  0  0  0  0  3  0  0  0  0  0  0
  -21.3370   -4.5990   24.9240 C   0  0  0  0  0  0  0  0  0  0  0  0
  -21.7330   -4.0410   23.6960 C   0  0  0  0  0  3  0  0  0  0  0  0
  -21.8380   -4.8550   22.5560 C   0  0  0  0  0  0  0  0  0  0  0  0
  -22.2010   -4.3090   21.3700 F   0  0  0  0  0  0  0  0  0  0  0  0
  -21.2300   -3.8120   26.0190 F   0  0  0  0  0  0  0  0  0  0  0  0
  -22.7350  -13.6090   21.1240 C   0  0  0  0  0  0  0  0  0  0  0  0
  -21.9970  -12.9210   21.9880 N   0  0  0  0  0  0  0  0  0  0  0  0
  -22.3080  -14.6340   20.5950 O   0  0  0  0  0  0  0  0  0  0  0  0
  -22.3560  -12.0890   22.4330 H   0  0  0  0  0  0  0  0  0  0  0  0
  -21.0610  -13.2300   22.2080 H   0  0  0  0  0  0  0  0  0  0  0  0
  -25.3840  -15.2500   20.3150 N   0  0  0  0  0  0  0  0  0  0  0  0
  -24.6220  -15.9120   20.4110 H   0  0  0  0  0  0  0  0  0  0  0  0
  -26.2420  -15.6800   19.9960 H   0  0  0  0  0  0  0  0  0  0  0  0
  1  7  1  0
  1 10  1  0
  1 11  1  0
  3  5  1  0
  3 13  1  0
  3 10  1  0
  4  2  1  0
  5  6  1  0
  5  4  1  0
  6  4  1  0
  6  8  1  6
  9  6  1  0
 10  2  1  0
 11 61  1  0
 12 11  1  0
 13 15  2  0
 14 17  1  0
 14 13  1  0
 16 14  1  0
 18 17  1  0
 18 19  1  0
 19 20  1  0
 21 32  2  0
 22 20  1  0
 22 27  1  0
 23 31  1  0
 23 33  1  0
 24 30  1  0
 24 26  1  0
 25 31  1  0
 26 25  1  0
 27 26  2  0
 28 29  1  0
 28 22  2  0
 29 24  2  0
 30 23  1  0
 31 21  1  0
 33 35  2  0
 34 33  1  0
 36 34  1  0
 37 46  2  0
 37 42  1  0
 38 34  1  0
 38 42  1  0
 39 38  1  0
 40 41  1  0
 40 39  1  0
 41 37  1  0
 42 43  2  0
 43 44  1  0
 45 44  2  0
 46 45  1  0
 47 21  1  0
 47 48  1  0
 47 57  1  0
 48 51  1  0
 49 53  1  0
 49 48  1  0
 50 49  2  0
 53 52  1  0
 55 53  1  0
 55 56  1  0
 55 54  1  0
 57 60  1  1
 57 58  1  0
 59 57  1  0
 61 62  1  0
 63 62  1  0
 64 69  1  0
 65 66  1  0
 65 64  1  0
 67 66  1  0
 67 74  1  0
 67 68  1  0
 69 63  1  0
 69 68  1  0
 70 63  2  0
 71 72  2  0
 72 91  1  0
 73 72  1  0
 73 76  1  0
 74 71  1  0
 74 75  1  0
 75 73  2  0
 76 77  1  0
 77 78  2  0
 79 82  1  0
 79 78  1  0
 80 79  2  0
 81 80  1  0
 81 76  2  0
 82 83  1  0
 83 84  1  0
 84 85  2  0
 86 85  1  0
 86 90  1  0
 87 86  2  0
 88 83  2  0
 88 87  1  0
 89 88  1  0
 91 92  1  0
 92 95  1  0
 92 94  1  0
 93 91  2  0
 96 97  1  0
 96 71  1  0
 98 96  1  0
M  ISO  4  19 101  20 101  62 100  63 100
M  END
>  <TORSDO>  (34) 
F 22

>  <SCORE>  (34) 
-13.269

>  <name>  (34) 
33

>  <ligand_id>  (34) 
33

>  <original_smiles>  (34) 
[H]c1c([H])c([H])c2c(c1[H])C([H])([H])C([H])([H])C([H])([H])C2([H])N([H])C(=O)C1([H])N(C(=O)C([H])(N([H])C(=O)C([H])(N([H])C([H])([H])[H])C([H])([H])[H])C(C([H])([H])[H])(C([H])([H])[H])C([H])([H])[H])C([H])([H])c2c([H])c(OC([H])([H])C([H])([H])C([H])([H])N([H])C(=O)C3([H])N(C(=[N+]([H])C([H])([H])C([H])([H])C(=O)N4C([H])([H])C([H])([H])C([H])([H])C([H])(n5nc(-c6c([H])c([H])c(Oc7c([H])c([H])c(F)c([H])c7F)c([H])c6[H])c(C(=O)N([H])[H])c5N([H])[H])C4([H])[H])C([H])([H])[H])C([H])([H])C4([H])C3([H])C4(C([H])([H])[H])C([H])([H])[H])c([H])c([H])c2C1([H])[H]

>  <smiles>  (34) 
[H]c1c([H])c([H])c2c(c1[H])C([H])([H])C([H])([H])C([H])([H])C2([H])N([H])C(=O)C1([H])N(C(=O)C([H])(N([H])C(=O)C([H])(N([H])C([H])([H])[H])C([H])([H])[H])C(C([H])([H])[H])(C([H])([H])[H])C([H])([H])[H])C([H])([H])c2c([H])c(OC([H])([H])C([H])([H])C([H])([H])N([H])C(=O)C3([H])N(C(=[N+]([H])C([H])([H])C([H])([H])C(=O)N4C([H])([H])C([H])([H])C([H])([H])C([H])(n5nc(-c6c([H])c([H])c(Oc7c([H])c([H])c(F)c([H])c7F)c([H])c6[H])c(C(=O)N([H])[H])c5N([H])[H])C4([H])[H])C([H])([H])[H])C([H])([H])C4([H])C3([H])C4(C([H])([H])[H])C([H])([H])[H])c([H])c([H])c2C1([H])[H]

$$$$
34:0:0
     RDKit          3D

106114  0  0  1  0  0  0  0  0999 V2000
  -29.2760  -20.9640   19.5670 C   0  0  0  0  0  3  0  0  0  0  0  0
  -29.5780  -18.4820   20.1460 C   0  0  0  0  0  0  0  0  0  0  0  0
  -30.0220  -19.7670   20.0640 N   0  0  0  0  0  0  0  0  0  0  0  0
  -28.4160  -18.1830   19.8730 O   0  0  0  0  0  0  0  0  0  0  0  0
  -30.9740  -19.9450   20.3440 H   0  0  0  0  0  0  0  0  0  0  0  0
  -30.5820  -17.3320   20.4520 C   0  0  0  0  0  3  0  0  0  0  0  0
  -31.6040  -17.3410   19.3880 N   0  0  0  0  0  4  0  0  0  0  0  0
  -31.1720  -17.3760   18.4810 H   0  0  0  0  0  0  0  0  0  0  0  0
  -32.1380  -16.4850   19.4750 H   0  0  0  0  0  0  0  0  0  0  0  0
  -32.2270  -18.1200   19.4770 H   0  0  0  0  0  0  0  0  0  0  0  0
  -29.8600  -15.9280   20.6040 C   0  0  0  0  0  2  0  0  0  0  0  0
  -30.6640  -14.6220   20.3350 C   0  0  0  0  0  0  0  0  0  0  0  0
  -30.3810  -12.4280   19.2480 C   0  0  0  0  0  2  0  0  0  0  0  0
  -29.4470  -12.6180   18.0310 C   0  0  0  0  0  2  0  0  0  0  0  0
  -27.9650  -12.4910   18.4440 C   0  0  0  0  0  2  0  0  0  0  0  0
  -27.6150  -13.3460   19.6890 C   0  0  0  0  0  3  0  0  0  0  0  0
  -28.6690  -13.1620   20.8100 C   0  0  0  0  0  2  0  0  0  0  0  0
  -30.0040  -13.4330   20.2560 N   0  0  0  0  0  0  0  0  0  0  0  0
  -31.8360  -14.7370   19.9640 O   0  0  0  0  0  0  0  0  0  0  0  0
  -25.2260  -13.9830   20.4010 C   0  0  0  0  0  0  0  0  0  0  0  0
  -24.1490  -13.2190   20.7580 C   0  0  0  0  0  0  0  0  0  0  0  0
  -24.5930  -11.8630   20.7240 C   0  0  0  0  0  0  0  0  0  0  0  0
  -26.2600  -13.0880   20.1680 N   0  0  0  0  0  0  0  0  0  0  0  0
  -25.8830  -11.8110   20.4240 N   0  0  0  0  0  0  0  0  0  0  0  0
  -23.8510  -10.6070   20.8990 C   0  0  0  0  0  0  0  0  0  0  0  0
  -24.2740   -9.6210   21.8190 C   0  0  0  0  0  3  0  0  0  0  0  0
  -23.5350   -8.4300   21.9820 C   0  0  0  0  0  3  0  0  0  0  0  0
  -22.3560   -8.2160   21.2260 C   0  0  0  0  0  0  0  0  0  0  0  0
  -21.9530   -9.1890   20.2940 C   0  0  0  0  0  3  0  0  0  0  0  0
  -22.6960  -10.3710   20.1290 C   0  0  0  0  0  3  0  0  0  0  0  0
  -21.5880   -7.0790   21.3020 O   0  0  0  0  0  0  0  0  0  0  0  0
  -21.5420   -6.3150   22.4390 C   0  0  0  0  0  0  0  0  0  0  0  0
  -21.1440   -6.8550   23.6820 C   0  0  0  0  0  3  0  0  0  0  0  0
  -21.0460   -6.0210   24.8150 C   0  0  0  0  0  3  0  0  0  0  0  0
  -21.3360   -4.6490   24.7020 C   0  0  0  0  0  0  0  0  0  0  0  0
  -21.7310   -4.1070   23.4650 C   0  0  0  0  0  3  0  0  0  0  0  0
  -21.8290   -4.9380   22.3360 C   0  0  0  0  0  0  0  0  0  0  0  0
  -22.1920   -4.4090   21.1420 F   0  0  0  0  0  0  0  0  0  0  0  0
  -21.2300   -3.8460   25.7860 F   0  0  0  0  0  0  0  0  0  0  0  0
  -22.7550  -13.7090   21.0250 C   0  0  0  0  0  0  0  0  0  0  0  0
  -22.0180  -13.0150   21.8880 N   0  0  0  0  0  0  0  0  0  0  0  0
  -22.3320  -14.7410   20.5030 O   0  0  0  0  0  0  0  0  0  0  0  0
  -22.3820  -12.1830   22.3260 H   0  0  0  0  0  0  0  0  0  0  0  0
  -21.0790  -13.3160   22.1080 H   0  0  0  0  0  0  0  0  0  0  0  0
  -25.4100  -15.3540   20.2410 N   0  0  0  0  0  0  0  0  0  0  0  0
  -24.6520  -16.0140   20.3710 H   0  0  0  0  0  0  0  0  0  0  0  0
  -26.2750  -15.7900   19.9500 H   0  0  0  0  0  0  0  0  0  0  0  0
  -27.7900  -21.0260   19.9810 C   0  0  0  0  0  0  0  0  0  0  0  0
  -26.9080  -21.2530   18.9970 N   0  0  0  0  0  0  0  0  0  0  0  0
  -27.4620  -20.8530   21.1570 O   0  0  0  0  0  0  0  0  0  0  0  0
  -27.2870  -21.3640   18.0670 H   0  0  0  0  0  0  0  0  0  0  0  0
  -24.8640  -21.2370   16.6420 C   0  0  0  0  0  2  0  0  0  0  0  0
  -24.8380  -20.4240   17.9460 C   0  0  0  0  0  2  0  0  0  0  0  0
  -24.1280  -22.5700   16.8310 C   0  0  0  0  0  2  0  0  0  0  0  0
  -24.8510  -22.6210   19.2720 C   0  0  0  0  0  2  0  0  0  0  0  0
  -25.4530  -21.2040   19.1250 C   0  0  0  0  0  3  0  0  0  0  0  0
  -24.7880  -23.4130   17.9420 C   0  0  0  0  0  3  0  0  0  0  0  0
  -24.0810  -24.6960   18.1170 N   0  0  0  0  0  4  0  0  0  0  0  0
  -23.1400  -24.5500   18.4350 H   0  0  0  0  0  0  0  0  0  0  0  0
  -24.0420  -25.1940   17.2440 H   0  0  0  0  0  0  0  0  0  0  0  0
  -24.5550  -25.2790   18.7810 H   0  0  0  0  0  0  0  0  0  0  0  0
  -30.0670  -22.3190   19.7000 C   0  0  0  0  0  2  0  0  0  0  0  0
  -29.4970  -23.4830   20.5810 C   0  0  0  0  0  2  0  0  0  0  0  0
  -28.3880  -24.3700   19.9370 C   0  0  0  0  0  2  0  0  0  0  0  0
  -28.8500  -25.7210   19.3170 C   0  0  0  0  0  2  0  0  0  0  0  0
  -28.6310  -26.8710   20.1610 O   0  0  0  0  0  0  0  0  0  0  0  0
  -24.6630  -31.9410   23.2320 C   0  0  0  0  0  0  0  0  0  0  0  0
  -27.4190  -27.5440   20.1430 C   0  0  0  0  0  0  0  0  0  0  0  0
  -23.4920  -30.5250   21.5740 C   0  0  0  0  0  3  0  0  0  0  0  0
  -24.9820  -29.0120   20.1590 C   0  0  0  0  0  0  0  0  0  0  0  0
  -26.0140  -30.9170   21.4030 C   0  0  0  0  0  2  0  0  0  0  0  0
  -26.1250  -29.5480   20.7630 C   0  0  0  0  0  0  0  0  0  0  0  0
  -27.3370  -28.8180   20.7620 C   0  0  0  0  0  3  0  0  0  0  0  0
  -26.2520  -27.0230   19.5390 C   0  0  0  0  0  3  0  0  0  0  0  0
  -25.0420  -27.7470   19.5480 C   0  0  0  0  0  3  0  0  0  0  0  0
  -23.7210  -29.8460   20.1970 C   0  0  0  0  0  2  0  0  0  0  0  0
  -24.7390  -31.1450   22.1280 N   0  0  0  0  0  0  0  0  0  0  0  0
  -23.5730  -32.1950   23.7630 O   0  0  0  0  0  0  0  0  0  0  0  0
  -22.8450  -29.4940   22.5270 C   0  0  0  0  0  0  0  0  0  0  0  0
  -21.5210  -29.3110   22.4020 N   0  0  0  0  0  0  0  0  0  0  0  0
  -23.5310  -28.8610   23.3330 O   0  0  0  0  0  0  0  0  0  0  0  0
  -21.0270  -29.8720   21.7220 H   0  0  0  0  0  0  0  0  0  0  0  0
  -18.1470  -28.1170   22.9060 C   0  0  0  0  0  0  0  0  0  0  0  0
  -20.7090  -28.3640   23.1630 C   0  0  0  0  0  3  0  0  0  0  0  0
  -20.8040  -26.9410   22.5640 C   0  0  0  0  0  2  0  0  0  0  0  0
  -19.6950  -26.6370   21.5520 C   0  0  0  0  0  2  0  0  0  0  0  0
  -18.3170  -26.7770   22.2090 C   0  0  0  0  0  2  0  0  0  0  0  0
  -19.2720  -28.8680   23.3410 C   0  0  0  0  0  0  0  0  0  0  0  0
  -19.0610  -30.1230   23.9520 C   0  0  0  0  0  3  0  0  0  0  0  0
  -17.7600  -30.6270   24.1310 C   0  0  0  0  0  3  0  0  0  0  0  0
  -16.6500  -29.8710   23.7160 C   0  0  0  0  0  3  0  0  0  0  0  0
  -16.8460  -28.6180   23.1080 C   0  0  0  0  0  3  0  0  0  0  0  0
  -25.9360  -32.5860   23.8650 C   0  0  0  0  0  3  0  0  0  0  0  0
  -26.4520  -31.8160   25.1430 C   0  0  1  0  0  0  0  0  0  0  0  0
  -25.3530  -31.5590   26.1960 C   0  0  0  0  0  1  0  0  0  0  0  0
  -27.0560  -30.4470   24.7480 C   0  0  0  0  0  1  0  0  0  0  0  0
  -27.5870  -32.6200   25.8190 C   0  0  0  0  0  1  0  0  0  0  0  0
  -25.6080  -33.9800   24.1960 N   0  0  0  0  0  0  0  0  0  0  0  0
  -25.9320  -35.0370   23.4390 C   0  0  0  0  0  0  0  0  0  0  0  0
  -26.6100  -34.9450   22.4130 O   0  0  0  0  0  0  0  0  0  0  0  0
  -24.9980  -34.1240   24.9870 H   0  0  0  0  0  0  0  0  0  0  0  0
  -24.1780  -36.8060   23.0800 C   0  0  0  0  0  1  0  0  0  0  0  0
  -25.4220  -36.4180   23.8960 C   0  0  0  0  0  3  0  0  0  0  0  0
  -27.5400  -37.3350   24.7350 C   0  0  0  0  0  1  0  0  0  0  0  0
  -26.4400  -37.4860   23.7850 N   0  0  0  0  0  0  0  0  0  0  0  0
  -26.0180  -38.3990   23.9310 H   0  0  0  0  0  0  0  0  0  0  0  0
  1 62  1  0
  1 48  1  0
  1  3  1  0
  2  6  1  0
  3  2  1  0
  3  5  1  0
  4  2  2  0
  6 11  1  0
  7  9  1  0
  7 10  1  0
  7  6  1  0
  8  7  1  0
 12 11  1  0
 13 18  1  0
 14 15  1  0
 14 13  1  0
 16 15  1  0
 16 23  1  0
 16 17  1  0
 18 12  1  0
 18 17  1  0
 19 12  2  0
 20 21  2  0
 21 40  1  0
 22 21  1  0
 22 25  1  0
 23 20  1  0
 23 24  1  0
 24 22  2  0
 25 26  1  0
 26 27  2  0
 28 31  1  0
 28 27  1  0
 29 28  2  0
 30 29  1  0
 30 25  2  0
 31 32  1  0
 32 33  1  0
 33 34  2  0
 35 34  1  0
 35 39  1  0
 36 35  2  0
 37 32  2  0
 37 36  1  0
 38 37  1  0
 40 41  1  0
 41 44  1  0
 41 43  1  0
 42 40  2  0
 45 46  1  0
 45 20  1  0
 47 45  1  0
 48 50  2  0
 49 48  1  0
 51 49  1  0
 52 54  1  0
 52 53  1  0
 53 56  1  0
 54 57  1  0
 56 49  1  0
 56 55  1  0
 57 58  1  0
 57 55  1  0
 58 59  1  0
 58 61  1  0
 60 58  1  0
 62 63  1  0
 64 63  1  0
 65 64  1  0
 65 66  1  0
 67 78  2  0
 68 66  1  0
 68 73  1  0
 69 77  1  0
 69 79  1  0
 70 76  1  0
 70 72  1  0
 71 77  1  0
 72 71  1  0
 73 72  2  0
 74 75  1  0
 74 68  2  0
 75 70  2  0
 76 69  1  0
 77 67  1  0
 79 81  2  0
 80 79  1  0
 82 80  1  0
 83 92  2  0
 83 88  1  0
 84 80  1  0
 84 88  1  0
 85 84  1  0
 86 87  1  0
 86 85  1  0
 87 83  1  0
 88 89  2  0
 89 90  1  0
 91 90  2  0
 92 91  1  0
 93 67  1  0
 93 98  1  0
 93 94  1  0
 94 97  1  1
 94 95  1  0
 96 94  1  0
 98101  1  0
 99103  1  0
 99 98  1  0
100 99  2  0
103102  1  0
105103  1  0
105106  1  0
105104  1  0
M  ISO  4  11 100  12 100  65 101  66 101
M  END
>  <TORSDO>  (35) 
F 27

>  <SCORE>  (35) 
-11.153

>  <name>  (35) 
34

>  <ligand_id>  (35) 
34

>  <original_smiles>  (35) 
[H]c1c([H])c([H])c2c(c1[H])C([H])([H])C([H])([H])C([H])([H])C2([H])N([H])C(=O)C1([H])N(C(=O)C([H])(N([H])C(=O)C([H])(N([H])C([H])([H])[H])C([H])([H])[H])C(C([H])([H])[H])(C([H])([H])[H])C([H])([H])[H])C([H])([H])c2c([H])c(OC([H])([H])C([H])([H])C([H])([H])C([H])([H])C([H])(C(=O)N([H])C3([H])C([H])([H])C([H])([H])C([H])([H])C([H])([N+]([H])([H])[H])C3([H])[H])N([H])C(=O)C([H])(C([H])([H])C(=O)N3C([H])([H])C([H])([H])C([H])([H])C([H])(n4nc(-c5c([H])c([H])c(Oc6c([H])c([H])c(F)c([H])c6F)c([H])c5[H])c(C(=O)N([H])[H])c4N([H])[H])C3([H])[H])[N+]([H])([H])[H])c([H])c([H])c2C1([H])[H]

>  <smiles>  (35) 
[H]c1c([H])c([H])c2c(c1[H])C([H])([H])C([H])([H])C([H])([H])C2([H])N([H])C(=O)C1([H])N(C(=O)C([H])(N([H])C(=O)C([H])(N([H])C([H])([H])[H])C([H])([H])[H])C(C([H])([H])[H])(C([H])([H])[H])C([H])([H])[H])C([H])([H])c2c([H])c(OC([H])([H])C([H])([H])C([H])([H])C([H])([H])C([H])(C(=O)N([H])C3([H])C([H])([H])C([H])([H])C([H])([H])C([H])([N+]([H])([H])[H])C3([H])[H])N([H])C(=O)C([H])(C([H])([H])C(=O)N3C([H])([H])C([H])([H])C([H])([H])C([H])(n4nc(-c5c([H])c([H])c(Oc6c([H])c([H])c(F)c([H])c6F)c([H])c5[H])c(C(=O)N([H])[H])c4N([H])[H])C3([H])[H])[N+]([H])([H])[H])c([H])c([H])c2C1([H])[H]

$$$$
35:0:0
     RDKit          3D

 91 98  0  0  1  0  0  0  0  0999 V2000
  -29.9140  -18.6870   20.1890 C   0  0  0  0  0  0  0  0  0  0  0  0
  -29.7040  -19.9150   20.7820 N   0  0  0  0  0  0  0  0  0  0  0  0
  -29.8000  -18.5920   18.9650 O   0  0  0  0  0  0  0  0  0  0  0  0
  -29.8100  -19.9950   21.7820 H   0  0  0  0  0  0  0  0  0  0  0  0
  -29.4440  -21.2160   20.0590 C   0  0  0  0  0  3  0  0  0  0  0  0
  -29.0500  -22.5000   20.9220 C   0  0  0  0  0  3  0  0  0  0  0  0
  -29.0150  -23.9270   20.1960 C   0  0  0  0  0  3  0  0  0  0  0  0
  -28.2840  -25.1410   20.9260 C   0  0  0  0  0  3  0  0  0  0  0  0
  -28.4640  -26.5160   20.4120 O   0  0  0  0  0  0  0  0  0  0  0  0
  -24.6000  -31.8810   23.3000 C   0  0  0  0  0  0  0  0  0  0  0  0
  -27.3350  -27.3420   20.3580 C   0  0  0  0  0  0  0  0  0  0  0  0
  -23.4540  -30.4700   21.6270 C   0  0  0  0  0  3  0  0  0  0  0  0
  -24.9550  -28.9160   20.2580 C   0  0  0  0  0  0  0  0  0  0  0  0
  -25.9920  -30.8070   21.5180 C   0  0  0  0  0  2  0  0  0  0  0  0
  -26.1000  -29.4260   20.8850 C   0  0  0  0  0  0  0  0  0  0  0  0
  -27.2940  -28.6510   20.9220 C   0  0  0  0  0  3  0  0  0  0  0  0
  -26.1720  -26.8780   19.7070 C   0  0  0  0  0  3  0  0  0  0  0  0
  -24.9910  -27.6440   19.6630 C   0  0  0  0  0  3  0  0  0  0  0  0
  -23.7130  -29.7860   20.2580 C   0  0  0  0  0  2  0  0  0  0  0  0
  -24.6980  -31.0700   22.2050 N   0  0  0  0  0  0  0  0  0  0  0  0
  -23.5000  -32.1550   23.8010 O   0  0  0  0  0  0  0  0  0  0  0  0
  -22.7670  -29.4560   22.5700 C   0  0  0  0  0  0  0  0  0  0  0  0
  -21.4510  -29.2560   22.3890 N   0  0  0  0  0  0  0  0  0  0  0  0
  -23.4170  -28.8500   23.4260 O   0  0  0  0  0  0  0  0  0  0  0  0
  -20.9840  -29.7950   21.6740 H   0  0  0  0  0  0  0  0  0  0  0  0
  -18.0790  -27.9980   22.7460 C   0  0  0  0  0  0  0  0  0  0  0  0
  -20.6140  -28.3160   23.1390 C   0  0  0  0  0  3  0  0  0  0  0  0
  -20.7740  -26.8770   22.5970 C   0  0  0  0  0  2  0  0  0  0  0  0
  -19.7320  -26.5110   21.5350 C   0  0  0  0  0  2  0  0  0  0  0  0
  -18.3170  -26.6410   22.1070 C   0  0  0  0  0  2  0  0  0  0  0  0
  -19.1590  -28.7920   23.2150 C   0  0  0  0  0  0  0  0  0  0  0  0
  -18.8870  -30.0600   23.7720 C   0  0  0  0  0  3  0  0  0  0  0  0
  -17.5660  -30.5370   23.8630 C   0  0  0  0  0  3  0  0  0  0  0  0
  -16.4990  -29.7420   23.4090 C   0  0  0  0  0  3  0  0  0  0  0  0
  -16.7550  -28.4740   22.8570 C   0  0  0  0  0  3  0  0  0  0  0  0
  -25.8620  -32.5200   23.9560 C   0  0  0  0  0  3  0  0  0  0  0  0
  -25.5500  -33.9300   24.2380 N   0  0  0  0  0  0  0  0  0  0  0  0
  -25.9190  -34.9590   23.4650 C   0  0  0  0  0  0  0  0  0  0  0  0
  -26.6290  -34.8260   22.4650 O   0  0  0  0  0  0  0  0  0  0  0  0
  -24.9240  -34.1080   25.0100 H   0  0  0  0  0  0  0  0  0  0  0  0
  -24.2180  -36.7520   22.9970 C   0  0  0  0  0  1  0  0  0  0  0  0
  -25.4230  -36.3620   23.8680 C   0  0  0  0  0  3  0  0  0  0  0  0
  -27.5260  -37.2570   24.7640 C   0  0  0  0  0  1  0  0  0  0  0  0
  -26.4650  -37.4060   23.7720 N   0  0  0  0  0  0  0  0  0  0  0  0
  -26.0580  -38.3310   23.8820 H   0  0  0  0  0  0  0  0  0  0  0  0
  -26.3210  -31.7810   25.2730 C   0  0  1  0  0  0  0  0  0  0  0  0
  -25.1830  -31.5790   26.3010 C   0  0  0  0  0  1  0  0  0  0  0  0
  -26.9110  -30.3910   24.9430 C   0  0  0  0  0  1  0  0  0  0  0  0
  -27.4480  -32.5850   25.9620 C   0  0  0  0  0  1  0  0  0  0  0  0
  -30.3440  -17.3780   20.9980 C   0  0  0  0  0  3  0  0  0  0  0  0
  -31.2810  -18.1400   23.2040 C   0  0  0  0  0  1  0  0  0  0  0  0
  -30.1500  -17.5420   22.4610 N   0  0  0  0  0  4  0  0  0  0  0  0
  -29.3090  -18.0720   22.6210 H   0  0  0  0  0  0  0  0  0  0  0  0
  -29.9960  -16.6320   22.8630 H   0  0  0  0  0  0  0  0  0  0  0  0
  -29.7040  -15.9850   20.5110 C   0  0  0  0  0  2  0  0  0  0  0  0
  -30.5790  -14.6730   20.2960 C   0  0  0  0  0  0  0  0  0  0  0  0
  -30.3570  -12.4580   19.1920 C   0  0  0  0  0  2  0  0  0  0  0  0
  -29.3920  -12.6360   17.9960 C   0  0  0  0  0  2  0  0  0  0  0  0
  -27.9210  -12.4890   18.4360 C   0  0  0  0  0  2  0  0  0  0  0  0
  -27.5950  -13.3060   19.7140 C   0  0  0  0  0  3  0  0  0  0  0  0
  -28.6710  -13.0910   20.8020 C   0  0  0  0  0  2  0  0  0  0  0  0
  -29.9750  -13.4410   20.2250 N   0  0  0  0  0  0  0  0  0  0  0  0
  -31.7590  -14.8040   19.9520 O   0  0  0  0  0  0  0  0  0  0  0  0
  -25.2160  -13.9180   20.4640 C   0  0  0  0  0  0  0  0  0  0  0  0
  -24.1500  -13.1500   20.8490 C   0  0  0  0  0  0  0  0  0  0  0  0
  -24.6040  -11.7950   20.8110 C   0  0  0  0  0  0  0  0  0  0  0  0
  -26.2510  -13.0310   20.2130 N   0  0  0  0  0  0  0  0  0  0  0  0
  -25.8890  -11.7500   20.4820 N   0  0  0  0  0  0  0  0  0  0  0  0
  -23.8690  -10.5390   21.0100 C   0  0  0  0  0  0  0  0  0  0  0  0
  -24.3040   -9.5740   21.9430 C   0  0  0  0  0  3  0  0  0  0  0  0
  -23.5770   -8.3790   22.1300 C   0  0  0  0  0  3  0  0  0  0  0  0
  -22.3970   -8.1420   21.3830 C   0  0  0  0  0  0  0  0  0  0  0  0
  -21.9800   -9.0970   20.4410 C   0  0  0  0  0  3  0  0  0  0  0  0
  -22.7090  -10.2830   20.2530 C   0  0  0  0  0  3  0  0  0  0  0  0
  -21.6390   -6.9990   21.4780 O   0  0  0  0  0  0  0  0  0  0  0  0
  -21.5920   -6.2620   22.6330 C   0  0  0  0  0  0  0  0  0  0  0  0
  -21.1670   -6.8210   23.8590 C   0  0  0  0  0  3  0  0  0  0  0  0
  -21.0670   -6.0100   25.0060 C   0  0  0  0  0  3  0  0  0  0  0  0
  -21.3820   -4.6400   24.9310 C   0  0  0  0  0  0  0  0  0  0  0  0
  -21.8010   -4.0800   23.7120 C   0  0  0  0  0  3  0  0  0  0  0  0
  -21.9030   -4.8880   22.5660 C   0  0  0  0  0  0  0  0  0  0  0  0
  -22.2870   -4.3390   21.3890 F   0  0  0  0  0  0  0  0  0  0  0  0
  -21.2800   -3.8590   26.0320 F   0  0  0  0  0  0  0  0  0  0  0  0
  -22.7580  -13.6360   21.1370 C   0  0  0  0  0  0  0  0  0  0  0  0
  -22.0370  -12.9450   22.0130 N   0  0  0  0  0  0  0  0  0  0  0  0
  -22.3200  -14.6620   20.6220 O   0  0  0  0  0  0  0  0  0  0  0  0
  -22.4050  -12.1170   22.4580 H   0  0  0  0  0  0  0  0  0  0  0  0
  -21.1010  -13.2470   22.2450 H   0  0  0  0  0  0  0  0  0  0  0  0
  -25.3860  -15.2860   20.2870 N   0  0  0  0  0  0  0  0  0  0  0  0
  -24.6120  -15.9320   20.4010 H   0  0  0  0  0  0  0  0  0  0  0  0
  -26.2110  -15.7210   19.8960 H   0  0  0  0  0  0  0  0  0  0  0  0
  1  2  1  0
  1 50  1  0
  2  4  1  0
  3  1  2  0
  5  2  1  0
  5  6  2  0
  7  6  1  0
  7  8  2  0
  9  8  1  0
 10 21  2  0
 11  9  1  0
 11 16  1  0
 12 20  1  0
 12 22  1  0
 13 19  1  0
 13 15  1  0
 14 20  1  0
 15 16  2  0
 15 14  1  0
 17 11  2  0
 18 17  1  0
 18 13  2  0
 19 12  1  0
 20 10  1  0
 22 24  2  0
 23 22  1  0
 25 23  1  0
 26 35  2  0
 26 31  1  0
 27 23  1  0
 27 31  1  0
 28 27  1  0
 29 30  1  0
 29 28  1  0
 30 26  1  0
 31 32  2  0
 32 33  1  0
 34 33  2  0
 35 34  1  0
 36 10  1  0
 36 37  1  0
 36 46  1  0
 37 40  1  0
 38 42  1  0
 38 37  1  0
 39 38  2  0
 42 41  1  0
 44 42  1  0
 44 45  1  0
 44 43  1  0
 46 49  1  1
 46 47  1  0
 48 46  1  0
 50 55  1  0
 50 52  1  0
 52 53  1  0
 52 54  1  0
 52 51  1  0
 56 55  1  0
 57 62  1  0
 58 59  1  0
 58 57  1  0
 60 59  1  0
 60 67  1  0
 60 61  1  0
 62 56  1  0
 62 61  1  0
 63 56  2  0
 64 65  2  0
 65 84  1  0
 66 65  1  0
 66 69  1  0
 67 64  1  0
 67 68  1  0
 68 66  2  0
 69 70  1  0
 70 71  2  0
 72 75  1  0
 72 71  1  0
 73 72  2  0
 74 73  1  0
 74 69  2  0
 75 76  1  0
 76 77  1  0
 77 78  2  0
 79 78  1  0
 79 83  1  0
 80 79  2  0
 81 76  2  0
 81 80  1  0
 82 81  1  0
 84 85  1  0
 85 88  1  0
 85 87  1  0
 86 84  2  0
 89 90  1  0
 89 64  1  0
 91 89  1  0
M  ISO  4   8 101   9 101  55 100  56 100
M  END
>  <TORSDO>  (36) 
F 23

>  <SCORE>  (36) 
-12.440

>  <name>  (36) 
35

>  <ligand_id>  (36) 
35

>  <original_smiles>  (36) 
[H]c1c([H])c([H])c2c(c1[H])C([H])([H])C([H])([H])C([H])([H])C2([H])N([H])C(=O)C1([H])N(C(=O)C([H])(N([H])C(=O)C([H])(N([H])C([H])([H])[H])C([H])([H])[H])C(C([H])([H])[H])(C([H])([H])[H])C([H])([H])[H])C([H])([H])c2c([H])c(OC([H])([H])C([H])([H])C([H])([H])C([H])([H])N([H])C(=O)C([H])(C([H])([H])C(=O)N3C([H])([H])C([H])([H])C([H])([H])C([H])(n4nc(-c5c([H])c([H])c(Oc6c([H])c([H])c(F)c([H])c6F)c([H])c5[H])c(C(=O)N([H])[H])c4N([H])[H])C3([H])[H])[N+]([H])([H])C([H])([H])[H])c([H])c([H])c2C1([H])[H]

>  <smiles>  (36) 
[H]c1c([H])c([H])c2c(c1[H])C([H])([H])C([H])([H])C([H])([H])C2([H])N([H])C(=O)C1([H])N(C(=O)C([H])(N([H])C(=O)C([H])(N([H])C([H])([H])[H])C([H])([H])[H])C(C([H])([H])[H])(C([H])([H])[H])C([H])([H])[H])C([H])([H])c2c([H])c(OC([H])([H])C([H])([H])C([H])([H])C([H])([H])N([H])C(=O)C([H])(C([H])([H])C(=O)N3C([H])([H])C([H])([H])C([H])([H])C([H])(n4nc(-c5c([H])c([H])c(Oc6c([H])c([H])c(F)c([H])c6F)c([H])c5[H])c(C(=O)N([H])[H])c4N([H])[H])C3([H])[H])[N+]([H])([H])C([H])([H])[H])c([H])c([H])c2C1([H])[H]

$$$$
36:0:0
     RDKit          3D

 87 95  0  0  1  0  0  0  0  0999 V2000
  -30.4960  -15.3580   20.2330 C   0  0  0  0  0  0  0  0  0  0  0  0
  -30.4360  -12.8530   19.4970 C   0  0  0  0  0  2  0  0  0  0  0  0
  -29.5590  -12.5710   18.2510 C   0  0  0  0  0  2  0  0  0  0  0  0
  -28.0990  -12.3290   18.6670 C   0  0  0  0  0  2  0  0  0  0  0  0
  -27.6230  -13.3610   19.7200 C   0  0  0  0  0  3  0  0  0  0  0  0
  -28.6400  -13.5890   20.8620 C   0  0  0  0  0  2  0  0  0  0  0  0
  -29.8830  -14.0610   20.2290 N   0  0  0  0  0  0  0  0  0  0  0  0
  -31.7110  -15.2690   19.9920 O   0  0  0  0  0  0  0  0  0  0  0  0
  -29.4070  -19.5560   20.0330 C   0  0  0  0  0  0  0  0  0  0  0  0
  -28.6210  -18.8390   21.0710 C   0  0  0  0  0  0  0  0  0  0  0  0
  -29.4440  -21.0070   19.6540 C   0  0  0  0  0  0  0  0  0  0  0  0
  -30.1880  -18.1500   19.5430 C   0  0  0  0  0  2  0  0  0  0  0  0
  -28.7780  -17.2450   21.1130 C   0  0  0  0  0  2  0  0  0  0  0  0
  -30.3890  -21.3170   18.5060 C   0  0  0  0  0  1  0  0  0  0  0  0
  -29.8290  -16.7110   20.1910 N   0  0  0  0  0  0  0  0  0  0  0  0
  -27.8650  -19.4040   21.8660 O   0  0  0  0  0  0  0  0  0  0  0  0
  -25.2520  -13.9810   20.4070 C   0  0  0  0  0  0  0  0  0  0  0  0
  -24.1670  -13.2360   20.7710 C   0  0  0  0  0  0  0  0  0  0  0  0
  -24.6060  -11.8760   20.7870 C   0  0  0  0  0  0  0  0  0  0  0  0
  -26.2820  -13.0790   20.2100 N   0  0  0  0  0  0  0  0  0  0  0  0
  -25.9050  -11.8080   20.5090 N   0  0  0  0  0  0  0  0  0  0  0  0
  -23.8470  -10.6360   20.9930 C   0  0  0  0  0  0  0  0  0  0  0  0
  -24.2510   -9.6670   21.9380 C   0  0  0  0  0  3  0  0  0  0  0  0
  -23.4900   -8.4930   22.1320 C   0  0  0  0  0  3  0  0  0  0  0  0
  -22.3100   -8.2810   21.3800 C   0  0  0  0  0  0  0  0  0  0  0  0
  -21.9250   -9.2360   20.4240 C   0  0  0  0  0  3  0  0  0  0  0  0
  -22.6870  -10.4010   20.2280 C   0  0  0  0  0  3  0  0  0  0  0  0
  -21.5230   -7.1580   21.4820 O   0  0  0  0  0  0  0  0  0  0  0  0
  -21.4740   -6.4160   22.6350 C   0  0  0  0  0  0  0  0  0  0  0  0
  -21.1180   -6.9890   23.8750 C   0  0  0  0  0  3  0  0  0  0  0  0
  -21.0120   -6.1760   25.0210 C   0  0  0  0  0  3  0  0  0  0  0  0
  -21.2520   -4.7920   24.9280 C   0  0  0  0  0  0  0  0  0  0  0  0
  -21.6000   -4.2190   23.6940 C   0  0  0  0  0  3  0  0  0  0  0  0
  -21.7070   -5.0290   22.5490 C   0  0  0  0  0  0  0  0  0  0  0  0
  -22.0230   -4.4680   21.3560 F   0  0  0  0  0  0  0  0  0  0  0  0
  -21.1430   -4.0090   26.0270 F   0  0  0  0  0  0  0  0  0  0  0  0
  -22.7750  -13.7510   20.9890 C   0  0  0  0  0  0  0  0  0  0  0  0
  -22.0110  -13.1050   21.8620 N   0  0  0  0  0  0  0  0  0  0  0  0
  -22.3730  -14.7630   20.4180 O   0  0  0  0  0  0  0  0  0  0  0  0
  -22.3500  -12.2880   22.3480 H   0  0  0  0  0  0  0  0  0  0  0  0
  -21.0750  -13.4340   22.0490 H   0  0  0  0  0  0  0  0  0  0  0  0
  -25.4430  -15.3420   20.1940 N   0  0  0  0  0  0  0  0  0  0  0  0
  -24.6800  -16.0070   20.2610 H   0  0  0  0  0  0  0  0  0  0  0  0
  -26.2940  -15.7510   19.8320 H   0  0  0  0  0  0  0  0  0  0  0  0
  -28.8480  -22.5800   20.2070 C   0  0  0  0  0  2  0  0  0  0  0  0
  -28.4170  -24.1780   19.4070 C   0  0  0  0  0  2  0  0  0  0  0  0
  -28.4180  -25.8110   19.7900 O   0  0  0  0  0  0  0  0  0  0  0  0
  -24.6740  -31.6160   22.9070 C   0  0  0  0  0  0  0  0  0  0  0  0
  -27.3700  -26.8870   19.7190 C   0  0  0  0  0  0  0  0  0  0  0  0
  -23.5120  -30.2150   21.2500 C   0  0  0  0  0  3  0  0  0  0  0  0
  -25.0010  -28.7050   19.7570 C   0  0  0  0  0  0  0  0  0  0  0  0
  -26.0680  -30.5200   21.0780 C   0  0  0  0  0  2  0  0  0  0  0  0
  -26.1800  -29.1290   20.3790 C   0  0  0  0  0  0  0  0  0  0  0  0
  -27.3520  -28.2400   20.3400 C   0  0  0  0  0  3  0  0  0  0  0  0
  -26.1550  -26.6300   19.0420 C   0  0  0  0  0  3  0  0  0  0  0  0
  -25.0150  -27.4800   19.0680 C   0  0  0  0  0  3  0  0  0  0  0  0
  -23.7490  -29.5780   19.8510 C   0  0  0  0  0  2  0  0  0  0  0  0
  -24.7720  -30.8120   21.7990 N   0  0  0  0  0  0  0  0  0  0  0  0
  -23.5820  -31.8490   23.4510 O   0  0  0  0  0  0  0  0  0  0  0  0
  -22.8700  -29.1700   22.2010 C   0  0  0  0  0  0  0  0  0  0  0  0
  -21.5400  -28.9810   22.1140 N   0  0  0  0  0  0  0  0  0  0  0  0
  -23.5760  -28.5330   22.9850 O   0  0  0  0  0  0  0  0  0  0  0  0
  -21.0210  -29.5480   21.4590 H   0  0  0  0  0  0  0  0  0  0  0  0
  -18.2030  -27.6770   22.6980 C   0  0  0  0  0  0  0  0  0  0  0  0
  -20.7650  -27.9950   22.8770 C   0  0  0  0  0  3  0  0  0  0  0  0
  -20.8770  -26.5890   22.2420 C   0  0  0  0  0  2  0  0  0  0  0  0
  -19.7450  -26.2810   21.2570 C   0  0  0  0  0  2  0  0  0  0  0  0
  -18.3850  -26.3630   21.9570 C   0  0  0  0  0  2  0  0  0  0  0  0
  -19.3200  -28.4500   23.1160 C   0  0  0  0  0  0  0  0  0  0  0  0
  -19.0910  -29.6780   23.7760 C   0  0  0  0  0  3  0  0  0  0  0  0
  -17.7810  -30.1330   24.0180 C   0  0  0  0  0  3  0  0  0  0  0  0
  -16.6820  -29.3580   23.6120 C   0  0  0  0  0  3  0  0  0  0  0  0
  -16.8930  -28.1310   22.9590 C   0  0  0  0  0  3  0  0  0  0  0  0
  -25.9250  -32.2950   23.5390 C   0  0  0  0  0  3  0  0  0  0  0  0
  -25.5320  -33.6390   24.0000 N   0  0  0  0  0  0  0  0  0  0  0  0
  -25.7720  -34.7790   23.3380 C   0  0  0  0  0  0  0  0  0  0  0  0
  -26.4090  -34.8140   22.2830 O   0  0  0  0  0  0  0  0  0  0  0  0
  -24.9580  -33.6790   24.8280 H   0  0  0  0  0  0  0  0  0  0  0  0
  -23.9230  -36.4870   23.2180 C   0  0  0  0  0  1  0  0  0  0  0  0
  -25.2200  -36.0890   23.9400 C   0  0  0  0  0  3  0  0  0  0  0  0
  -27.3310  -37.0390   24.7650 C   0  0  0  0  0  1  0  0  0  0  0  0
  -26.1790  -37.2150   23.8830 N   0  0  0  0  0  0  0  0  0  0  0  0
  -25.7240  -38.0910   24.1270 H   0  0  0  0  0  0  0  0  0  0  0  0
  -26.5360  -31.4720   24.7420 C   0  0  1  0  0  0  0  0  0  0  0  0
  -25.5020  -31.0980   25.8300 C   0  0  0  0  0  1  0  0  0  0  0  0
  -27.1830  -30.1600   24.2430 C   0  0  0  0  0  1  0  0  0  0  0  0
  -27.6650  -32.2880   25.4150 C   0  0  0  0  0  1  0  0  0  0  0  0
  2  7  1  0
  3  4  1  0
  3  2  1  0
  5  4  1  0
  5 20  1  0
  5  6  1  0
  7  1  1  0
  7  6  1  0
  8  1  2  0
  9 10  1  0
 10 13  1  0
 10 16  2  0
 11  9  2  0
 11 45  1  0
 12  9  1  0
 12 15  1  0
 14 11  1  0
 15  1  1  0
 15 13  1  0
 17 18  2  0
 18 19  1  0
 18 37  1  0
 19 22  1  0
 20 17  1  0
 20 21  1  0
 21 19  2  0
 22 23  1  0
 23 24  2  0
 25 28  1  0
 25 24  1  0
 26 25  2  0
 27 26  1  0
 27 22  2  0
 28 29  1  0
 29 30  1  0
 30 31  2  0
 32 31  1  0
 32 36  1  0
 33 32  2  0
 34 29  2  0
 34 33  1  0
 35 34  1  0
 37 38  1  0
 38 41  1  0
 38 40  1  0
 39 37  2  0
 42 43  1  0
 42 17  1  0
 44 42  1  0
 46 47  1  0
 46 45  1  0
 48 59  2  0
 49 47  1  0
 49 54  1  0
 50 58  1  0
 50 60  1  0
 51 57  1  0
 51 53  1  0
 52 58  1  0
 53 52  1  0
 54 53  2  0
 55 56  1  0
 55 49  2  0
 56 51  2  0
 57 50  1  0
 58 48  1  0
 60 62  2  0
 61 60  1  0
 63 61  1  0
 64 73  2  0
 64 69  1  0
 65 61  1  0
 65 69  1  0
 66 65  1  0
 67 68  1  0
 67 66  1  0
 68 64  1  0
 69 70  2  0
 70 71  1  0
 72 71  2  0
 73 72  1  0
 74 48  1  0
 74 75  1  0
 74 84  1  0
 75 78  1  0
 76 80  1  0
 76 75  1  0
 77 76  2  0
 80 79  1  0
 82 80  1  0
 82 83  1  0
 82 81  1  0
 84 87  1  1
 84 85  1  0
 86 84  1  0
M  ISO  4   1 100  15 100  46 101  47 101
M  END
>  <TORSDO>  (37) 
F 17

>  <SCORE>  (37) 
-12.746

>  <name>  (37) 
36

>  <ligand_id>  (37) 
36

>  <original_smiles>  (37) 
[H]c1c([H])c([H])c2c(c1[H])C([H])([H])C([H])([H])C([H])([H])C2([H])N([H])C(=O)C1([H])N(C(=O)C([H])(N([H])C(=O)C([H])(N([H])C([H])([H])[H])C([H])([H])[H])C(C([H])([H])[H])(C([H])([H])[H])C([H])([H])[H])C([H])([H])c2c([H])c(OC([H])([H])C([H])([H])C(=C3C(=O)C([H])([H])N(C(=O)N4C([H])([H])C([H])([H])C([H])([H])C([H])(n5nc(-c6c([H])c([H])c(Oc7c([H])c([H])c(F)c([H])c7F)c([H])c6[H])c(C(=O)N([H])[H])c5N([H])[H])C4([H])[H])C3([H])[H])C([H])([H])[H])c([H])c([H])c2C1([H])[H]

>  <smiles>  (37) 
[H]c1c([H])c([H])c2c(c1[H])C([H])([H])C([H])([H])C([H])([H])C2([H])N([H])C(=O)C1([H])N(C(=O)C([H])(N([H])C(=O)C([H])(N([H])C([H])([H])[H])C([H])([H])[H])C(C([H])([H])[H])(C([H])([H])[H])C([H])([H])[H])C([H])([H])c2c([H])c(OC([H])([H])C([H])([H])C(=C3C(=O)C([H])([H])N(C(=O)N4C([H])([H])C([H])([H])C([H])([H])C([H])(n5nc(-c6c([H])c([H])c(Oc7c([H])c([H])c(F)c([H])c7F)c([H])c6[H])c(C(=O)N([H])[H])c5N([H])[H])C4([H])[H])C3([H])[H])C([H])([H])[H])c([H])c([H])c2C1([H])[H]

$$$$
37:0:0
     RDKit          3D

 96103  0  0  1  0  0  0  0  0999 V2000
  -31.0670  -21.9040   18.9090 C   0  0  0  0  0  1  0  0  0  0  0  0
  -29.9240  -21.8700   19.9630 C   0  0  0  0  0  3  0  0  0  0  0  0
  -29.8590  -20.4960   20.7120 C   0  0  0  0  0  0  0  0  0  0  0  0
  -29.4440  -19.4520   19.9720 N   0  0  0  0  0  0  0  0  0  0  0  0
  -30.1610  -20.4020   21.9000 O   0  0  0  0  0  0  0  0  0  0  0  0
  -29.2300  -19.7130   19.0270 H   0  0  0  0  0  0  0  0  0  0  0  0
  -28.9480  -18.0740   20.2520 C   0  0  0  0  0  3  0  0  0  0  0  0
  -29.9580  -16.8870   20.0870 C   0  0  0  0  0  3  0  0  0  0  0  0
  -29.7240  -15.6840   20.5200 N   0  0  0  0  0  0  0  0  0  0  0  0
  -30.5550  -14.6090   20.1490 C   0  0  0  0  0  0  0  0  0  0  0  0
  -30.4280  -12.2330   19.4130 C   0  0  0  0  0  2  0  0  0  0  0  0
  -29.4930  -12.1300   18.1890 C   0  0  0  0  0  2  0  0  0  0  0  0
  -28.0290  -11.9530   18.6390 C   0  0  0  0  0  2  0  0  0  0  0  0
  -27.6090  -12.9780   19.7280 C   0  0  0  0  0  3  0  0  0  0  0  0
  -28.6670  -13.0680   20.8490 C   0  0  0  0  0  2  0  0  0  0  0  0
  -29.9720  -13.3700   20.2350 N   0  0  0  0  0  0  0  0  0  0  0  0
  -31.6710  -14.7310   19.6400 O   0  0  0  0  0  0  0  0  0  0  0  0
  -25.2310  -13.5560   20.5320 C   0  0  0  0  0  0  0  0  0  0  0  0
  -24.1800  -12.7740   20.9400 C   0  0  0  0  0  0  0  0  0  0  0  0
  -24.6470  -11.4300   20.8770 C   0  0  0  0  0  0  0  0  0  0  0  0
  -26.2740  -12.6830   20.2560 N   0  0  0  0  0  0  0  0  0  0  0  0
  -25.9280  -11.3970   20.5210 N   0  0  0  0  0  0  0  0  0  0  0  0
  -23.9300  -10.1630   21.0730 C   0  0  0  0  0  0  0  0  0  0  0  0
  -24.3850   -9.1990   21.9960 C   0  0  0  0  0  3  0  0  0  0  0  0
  -23.6710   -7.9950   22.1850 C   0  0  0  0  0  3  0  0  0  0  0  0
  -22.4810   -7.7550   21.4540 C   0  0  0  0  0  0  0  0  0  0  0  0
  -22.0450   -8.7110   20.5170 C   0  0  0  0  0  3  0  0  0  0  0  0
  -22.7630   -9.9030   20.3280 C   0  0  0  0  0  3  0  0  0  0  0  0
  -21.7330   -6.6070   21.5540 O   0  0  0  0  0  0  0  0  0  0  0  0
  -21.6870   -5.8760   22.7140 C   0  0  0  0  0  0  0  0  0  0  0  0
  -21.2280   -6.4320   23.9290 C   0  0  0  0  0  3  0  0  0  0  0  0
  -21.1250   -5.6230   25.0780 C   0  0  0  0  0  3  0  0  0  0  0  0
  -21.4760   -4.2610   25.0150 C   0  0  0  0  0  0  0  0  0  0  0  0
  -21.9270   -3.7040   23.8060 C   0  0  0  0  0  3  0  0  0  0  0  0
  -22.0280   -4.5080   22.6570 C   0  0  0  0  0  0  0  0  0  0  0  0
  -22.4390   -3.9600   21.4890 F   0  0  0  0  0  0  0  0  0  0  0  0
  -21.3750   -3.4840   26.1200 F   0  0  0  0  0  0  0  0  0  0  0  0
  -22.7930  -13.2460   21.2700 C   0  0  0  0  0  0  0  0  0  0  0  0
  -22.1010  -12.5440   22.1650 N   0  0  0  0  0  0  0  0  0  0  0  0
  -22.3300  -14.2670   20.7680 O   0  0  0  0  0  0  0  0  0  0  0  0
  -22.4820  -11.7180   22.5940 H   0  0  0  0  0  0  0  0  0  0  0  0
  -21.1730  -12.8450   22.4260 H   0  0  0  0  0  0  0  0  0  0  0  0
  -25.3730  -14.9200   20.3500 N   0  0  0  0  0  0  0  0  0  0  0  0
  -24.6120  -15.5740   20.5110 H   0  0  0  0  0  0  0  0  0  0  0  0
  -26.2110  -15.3590   19.9920 H   0  0  0  0  0  0  0  0  0  0  0  0
  -26.4430  -18.4380   19.7070 C   0  0  0  0  0  1  0  0  0  0  0  0
  -27.7870  -17.8510   19.2210 C   0  0  0  0  0  3  0  0  0  0  0  0
  -27.2920  -19.1720   16.9830 C   0  0  0  0  0  1  0  0  0  0  0  0
  -28.2100  -18.2110   17.7490 C   0  0  0  0  0  2  0  0  0  0  0  0
  -29.8440  -23.1070   20.8140 N   0  0  0  0  0  4  0  0  0  0  0  0
  -29.0160  -23.0360   21.3850 H   0  0  0  0  0  0  0  0  0  0  0  0
  -30.6240  -23.1360   21.4510 H   0  0  0  0  0  0  0  0  0  0  0  0
  -29.7410  -24.4360   20.1110 C   0  0  0  0  0  2  0  0  0  0  0  0
  -28.5850  -25.3100   20.6750 C   0  0  0  0  0  0  0  0  0  0  0  0
  -27.7560  -24.8060   21.4470 O   0  0  0  0  0  0  0  0  0  0  0  0
  -28.5360  -26.6300   20.2000 O   0  0  0  0  0  0  0  0  0  0  0  0
  -24.6490  -31.8530   23.2740 C   0  0  0  0  0  0  0  0  0  0  0  0
  -27.3660  -27.3910   20.2430 C   0  0  0  0  0  0  0  0  0  0  0  0
  -23.4770  -30.4510   21.6110 C   0  0  0  0  0  3  0  0  0  0  0  0
  -24.9640  -28.9230   20.2040 C   0  0  0  0  0  0  0  0  0  0  0  0
  -26.0060  -30.8160   21.4560 C   0  0  0  0  0  2  0  0  0  0  0  0
  -26.1140  -29.4390   20.8140 C   0  0  0  0  0  0  0  0  0  0  0  0
  -27.3130  -28.6850   20.8260 C   0  0  0  0  0  3  0  0  0  0  0  0
  -26.1950  -26.9000   19.6200 C   0  0  0  0  0  3  0  0  0  0  0  0
  -24.9980  -27.6500   19.6030 C   0  0  0  0  0  3  0  0  0  0  0  0
  -23.7140  -29.7780   20.2290 C   0  0  0  0  0  2  0  0  0  0  0  0
  -24.7270  -31.0560   22.1670 N   0  0  0  0  0  0  0  0  0  0  0  0
  -23.5550  -32.1170   23.7970 O   0  0  0  0  0  0  0  0  0  0  0  0
  -22.8120  -29.4240   22.5560 C   0  0  0  0  0  0  0  0  0  0  0  0
  -21.4910  -29.2340   22.4030 N   0  0  0  0  0  0  0  0  0  0  0  0
  -23.4850  -28.8040   23.3830 O   0  0  0  0  0  0  0  0  0  0  0  0
  -21.0060  -29.7920   21.7130 H   0  0  0  0  0  0  0  0  0  0  0  0
  -18.1160  -28.0080   22.8470 C   0  0  0  0  0  0  0  0  0  0  0  0
  -20.6690  -28.2850   23.1560 C   0  0  0  0  0  3  0  0  0  0  0  0
  -20.7890  -26.8580   22.5750 C   0  0  0  0  0  2  0  0  0  0  0  0
  -19.7060  -26.5340   21.5420 C   0  0  0  0  0  2  0  0  0  0  0  0
  -18.3120  -26.6640   22.1660 C   0  0  0  0  0  2  0  0  0  0  0  0
  -19.2230  -28.7760   23.2980 C   0  0  0  0  0  0  0  0  0  0  0  0
  -18.9870  -30.0350   23.8910 C   0  0  0  0  0  3  0  0  0  0  0  0
  -17.6770  -30.5250   24.0400 C   0  0  0  0  0  3  0  0  0  0  0  0
  -16.5830  -29.7560   23.6050 C   0  0  0  0  0  3  0  0  0  0  0  0
  -16.8050  -28.4990   23.0140 C   0  0  0  0  0  3  0  0  0  0  0  0
  -25.9180  -32.4890   23.9200 C   0  0  0  0  0  3  0  0  0  0  0  0
  -25.6100  -33.8900   24.2270 N   0  0  0  0  0  0  0  0  0  0  0  0
  -25.9480  -34.9350   23.4550 C   0  0  0  0  0  0  0  0  0  0  0  0
  -26.6310  -34.8120   22.4330 O   0  0  0  0  0  0  0  0  0  0  0  0
  -25.0150  -34.0630   25.0250 H   0  0  0  0  0  0  0  0  0  0  0  0
  -24.2220  -36.7130   23.0560 C   0  0  0  0  0  1  0  0  0  0  0  0
  -25.4580  -36.3260   23.8860 C   0  0  0  0  0  3  0  0  0  0  0  0
  -27.5810  -37.2290   24.7210 C   0  0  0  0  0  1  0  0  0  0  0  0
  -26.4880  -37.3800   23.7640 N   0  0  0  0  0  0  0  0  0  0  0  0
  -26.0800  -38.3020   23.8910 H   0  0  0  0  0  0  0  0  0  0  0  0
  -26.4060  -31.7330   25.2190 C   0  0  1  0  0  0  0  0  0  0  0  0
  -25.2880  -31.5120   26.2650 C   0  0  0  0  0  1  0  0  0  0  0  0
  -26.9920  -30.3490   24.8560 C   0  0  0  0  0  1  0  0  0  0  0  0
  -27.5430  -32.5330   25.8970 C   0  0  0  0  0  1  0  0  0  0  0  0
  2  1  1  0
  2  3  1  0
  2 50  1  0
  3  5  2  0
  4  7  1  0
  4  3  1  0
  6  4  1  0
  7  8  1  0
  8  9  2  0
 10 16  1  0
 10  9  1  0
 11 16  1  0
 12 13  1  0
 12 11  1  0
 14 13  1  0
 14 21  1  0
 14 15  1  0
 16 15  1  0
 17 10  2  0
 18 19  2  0
 19 38  1  0
 20 19  1  0
 20 23  1  0
 21 22  1  0
 21 18  1  0
 22 20  2  0
 23 24  1  0
 24 25  2  0
 26 29  1  0
 26 25  1  0
 27 26  2  0
 28 27  1  0
 28 23  2  0
 29 30  1  0
 30 31  1  0
 31 32  2  0
 33 32  1  0
 33 37  1  0
 34 33  2  0
 35 30  2  0
 35 34  1  0
 36 35  1  0
 38 39  1  0
 39 42  1  0
 39 41  1  0
 40 38  2  0
 43 44  1  0
 43 18  1  0
 45 43  1  0
 47 46  1  0
 47  7  1  0
 48 49  1  0
 49 47  1  0
 50 51  1  0
 50 52  1  0
 53 54  1  0
 53 50  1  0
 54 55  2  0
 56 58  1  0
 56 54  1  0
 57 68  2  0
 58 63  1  0
 59 67  1  0
 59 69  1  0
 60 66  1  0
 60 62  1  0
 61 67  1  0
 62 63  2  0
 62 61  1  0
 64 58  2  0
 65 64  1  0
 65 60  2  0
 66 59  1  0
 67 57  1  0
 69 71  2  0
 70 69  1  0
 72 70  1  0
 73 82  2  0
 73 78  1  0
 74 70  1  0
 74 78  1  0
 75 74  1  0
 76 77  1  0
 76 75  1  0
 77 73  1  0
 78 79  2  0
 79 80  1  0
 81 80  2  0
 82 81  1  0
 83 57  1  0
 83 84  1  0
 83 93  1  0
 84 87  1  0
 85 89  1  0
 85 84  1  0
 86 85  2  0
 89 88  1  0
 91 89  1  0
 91 92  1  0
 91 90  1  0
 93 96  1  1
 93 94  1  0
 95 93  1  0
M  ISO  4   9 100  10 100  54 101  56 101
M  END
>  <TORSDO>  (38) 
F 24

>  <SCORE>  (38) 
-12.266

>  <name>  (38) 
37

>  <ligand_id>  (38) 
37

>  <original_smiles>  (38) 
[H]C(=NC(=O)N1C([H])([H])C([H])([H])C([H])([H])C([H])(n2nc(-c3c([H])c([H])c(Oc4c([H])c([H])c(F)c([H])c4F)c([H])c3[H])c(C(=O)N([H])[H])c2N([H])[H])C1([H])[H])C([H])(N([H])C(=O)C([H])(C([H])([H])[H])[N+]([H])([H])C([H])([H])C(=O)Oc1c([H])c([H])c2c(c1[H])C([H])([H])N(C(=O)C([H])(N([H])C(=O)C([H])(N([H])C([H])([H])[H])C([H])([H])[H])C(C([H])([H])[H])(C([H])([H])[H])C([H])([H])[H])C([H])(C(=O)N([H])C1([H])c3c([H])c([H])c([H])c([H])c3C([H])([H])C([H])([H])C1([H])[H])C2([H])[H])C([H])(C([H])([H])[H])C([H])([H])C([H])([H])[H]

>  <smiles>  (38) 
[H]C(=NC(=O)N1C([H])([H])C([H])([H])C([H])([H])C([H])(n2nc(-c3c([H])c([H])c(Oc4c([H])c([H])c(F)c([H])c4F)c([H])c3[H])c(C(=O)N([H])[H])c2N([H])[H])C1([H])[H])C([H])(N([H])C(=O)C([H])(C([H])([H])[H])[N+]([H])([H])C([H])([H])C(=O)Oc1c([H])c([H])c2c(c1[H])C([H])([H])N(C(=O)C([H])(N([H])C(=O)C([H])(N([H])C([H])([H])[H])C([H])([H])[H])C(C([H])([H])[H])(C([H])([H])[H])C([H])([H])[H])C([H])(C(=O)N([H])C1([H])c3c([H])c([H])c([H])c([H])c3C([H])([H])C([H])([H])C1([H])[H])C2([H])[H])C([H])(C([H])([H])[H])C([H])([H])C([H])([H])[H]

$$$$
38:0:0
     RDKit          3D

 91 99  0  0  1  0  0  0  0  0999 V2000
  -29.2460  -19.9660   21.2450 C   0  0  0  0  0  2  0  0  0  0  0  0
  -30.1680  -20.3220   18.9940 C   0  0  0  0  0  2  0  0  0  0  0  0
  -28.3140  -21.1990   21.0890 C   0  0  0  0  0  2  0  0  0  0  0  0
  -29.2480  -21.5410   18.7460 C   0  0  0  0  0  2  0  0  0  0  0  0
  -29.5190  -19.2330   19.9000 C   0  0  0  0  0  3  0  0  0  0  0  0
  -28.7280  -22.2460   20.0210 C   0  0  0  0  0  3  0  0  0  0  0  0
  -29.5640  -24.4730   20.5370 C   0  0  0  0  0  0  0  0  0  0  0  0
  -30.6580  -25.3390   21.1210 C   0  0  0  0  0  1  0  0  0  0  0  0
  -29.7170  -23.1910   20.5520 N   0  0  0  0  0  0  0  0  0  0  0  0
  -28.3650  -25.2850   19.9930 C   0  0  0  0  0  2  0  0  0  0  0  0
  -28.4770  -26.7210   20.1930 O   0  0  0  0  0  0  0  0  0  0  0  0
  -24.6060  -31.8720   23.2730 C   0  0  0  0  0  0  0  0  0  0  0  0
  -27.3130  -27.4730   20.1520 C   0  0  0  0  0  0  0  0  0  0  0  0
  -23.4380  -30.5030   21.5790 C   0  0  0  0  0  3  0  0  0  0  0  0
  -24.9220  -29.0010   20.1470 C   0  0  0  0  0  0  0  0  0  0  0  0
  -25.9700  -30.8640   21.4420 C   0  0  0  0  0  2  0  0  0  0  0  0
  -26.0690  -29.5060   20.7700 C   0  0  0  0  0  0  0  0  0  0  0  0
  -27.2680  -28.7510   20.7660 C   0  0  0  0  0  3  0  0  0  0  0  0
  -26.1430  -26.9970   19.5150 C   0  0  0  0  0  3  0  0  0  0  0  0
  -24.9550  -27.7480   19.5160 C   0  0  0  0  0  3  0  0  0  0  0  0
  -23.6770  -29.8580   20.1890 C   0  0  0  0  0  2  0  0  0  0  0  0
  -24.6890  -31.0940   22.1560 N   0  0  0  0  0  0  0  0  0  0  0  0
  -23.5130  -32.1300   23.7970 O   0  0  0  0  0  0  0  0  0  0  0  0
  -22.7710  -29.4590   22.5050 C   0  0  0  0  0  0  0  0  0  0  0  0
  -21.4480  -29.2810   22.3530 N   0  0  0  0  0  0  0  0  0  0  0  0
  -23.4420  -28.8140   23.3150 O   0  0  0  0  0  0  0  0  0  0  0  0
  -20.9690  -29.8570   21.6760 H   0  0  0  0  0  0  0  0  0  0  0  0
  -18.0610  -28.1000   22.7980 C   0  0  0  0  0  0  0  0  0  0  0  0
  -20.6190  -28.3250   23.0890 C   0  0  0  0  0  3  0  0  0  0  0  0
  -20.7110  -26.9140   22.4660 C   0  0  0  0  0  2  0  0  0  0  0  0
  -19.6130  -26.6360   21.4350 C   0  0  0  0  0  2  0  0  0  0  0  0
  -18.2280  -26.7740   22.0750 C   0  0  0  0  0  2  0  0  0  0  0  0
  -19.1850  -28.8370   23.2580 C   0  0  0  0  0  0  0  0  0  0  0  0
  -18.9760  -30.0810   23.8910 C   0  0  0  0  0  3  0  0  0  0  0  0
  -17.6760  -30.5910   24.0670 C   0  0  0  0  0  3  0  0  0  0  0  0
  -16.5660  -29.8510   23.6240 C   0  0  0  0  0  3  0  0  0  0  0  0
  -16.7590  -28.6070   22.9960 C   0  0  0  0  0  3  0  0  0  0  0  0
  -25.8780  -32.4950   23.9300 C   0  0  0  0  0  3  0  0  0  0  0  0
  -26.3660  -31.7090   25.2090 C   0  0  1  0  0  0  0  0  0  0  0  0
  -25.2500  -31.4520   26.2460 C   0  0  0  0  0  1  0  0  0  0  0  0
  -26.9650  -30.3380   24.8120 C   0  0  0  0  0  1  0  0  0  0  0  0
  -27.4970  -32.4980   25.9100 C   0  0  0  0  0  1  0  0  0  0  0  0
  -25.5610  -33.8890   24.2690 N   0  0  0  0  0  0  0  0  0  0  0  0
  -25.9070  -34.9510   23.5270 C   0  0  0  0  0  0  0  0  0  0  0  0
  -26.5980  -34.8590   22.5080 O   0  0  0  0  0  0  0  0  0  0  0  0
  -24.9540  -34.0360   25.0620 H   0  0  0  0  0  0  0  0  0  0  0  0
  -24.1950  -36.7520   23.1430 C   0  0  0  0  0  1  0  0  0  0  0  0
  -25.4080  -36.3330   23.9890 C   0  0  0  0  0  3  0  0  0  0  0  0
  -27.5130  -37.2060   24.9040 C   0  0  0  0  0  1  0  0  0  0  0  0
  -26.4440  -37.3860   23.9240 N   0  0  0  0  0  0  0  0  0  0  0  0
  -26.0340  -38.3040   24.0660 H   0  0  0  0  0  0  0  0  0  0  0  0
  -30.2380  -17.1260   18.6080 C   0  0  0  0  0  1  0  0  0  0  0  0
  -30.3560  -17.8800   19.9530 C   0  0  0  0  0  3  0  0  0  0  0  0
  -30.1970  -15.6130   21.3930 C   0  0  0  0  0  3  0  0  0  0  0  0
  -30.0290  -16.9470   21.1500 C   0  0  0  0  0  3  0  0  0  0  0  0
  -30.8540  -14.5970   20.5610 C   0  0  0  0  0  0  0  0  0  0  0  0
  -30.5770  -12.4290   19.3880 C   0  0  0  0  0  2  0  0  0  0  0  0
  -29.6620  -12.6200   18.1590 C   0  0  0  0  0  2  0  0  0  0  0  0
  -28.1780  -12.4770   18.5530 C   0  0  0  0  0  2  0  0  0  0  0  0
  -27.8140  -13.3240   19.8000 C   0  0  0  0  0  3  0  0  0  0  0  0
  -28.8390  -13.0980   20.9320 C   0  0  0  0  0  2  0  0  0  0  0  0
  -30.1790  -13.4180   20.4070 N   0  0  0  0  0  0  0  0  0  0  0  0
  -31.9590  -14.7780   20.0410 O   0  0  0  0  0  0  0  0  0  0  0  0
  -25.4040  -13.9480   20.4490 C   0  0  0  0  0  0  0  0  0  0  0  0
  -24.3220  -13.1860   20.8010 C   0  0  0  0  0  0  0  0  0  0  0  0
  -24.7780  -11.8310   20.7950 C   0  0  0  0  0  0  0  0  0  0  0  0
  -26.4500  -13.0600   20.2500 N   0  0  0  0  0  0  0  0  0  0  0  0
  -26.0750  -11.7820   20.5150 N   0  0  0  0  0  0  0  0  0  0  0  0
  -24.0420  -10.5740   20.9830 C   0  0  0  0  0  0  0  0  0  0  0  0
  -24.4380   -9.6210   21.9470 C   0  0  0  0  0  3  0  0  0  0  0  0
  -23.7050   -8.4260   22.1190 C   0  0  0  0  0  3  0  0  0  0  0  0
  -22.5600   -8.1790   21.3240 C   0  0  0  0  0  0  0  0  0  0  0  0
  -22.1820   -9.1200   20.3490 C   0  0  0  0  0  3  0  0  0  0  0  0
  -22.9170  -10.3050   20.1780 C   0  0  0  0  0  3  0  0  0  0  0  0
  -21.7960   -7.0390   21.4060 O   0  0  0  0  0  0  0  0  0  0  0  0
  -21.6900   -6.3270   22.5730 C   0  0  0  0  0  0  0  0  0  0  0  0
  -21.1750   -6.9030   23.7550 C   0  0  0  0  0  3  0  0  0  0  0  0
  -21.0190   -6.1150   24.9120 C   0  0  0  0  0  3  0  0  0  0  0  0
  -21.3650   -4.7500   24.8890 C   0  0  0  0  0  0  0  0  0  0  0  0
  -21.8730   -4.1740   23.7110 C   0  0  0  0  0  3  0  0  0  0  0  0
  -22.0310   -4.9580   22.5560 C   0  0  0  0  0  0  0  0  0  0  0  0
  -22.5010   -4.3930   21.4190 F   0  0  0  0  0  0  0  0  0  0  0  0
  -21.2090   -3.9910   25.9980 F   0  0  0  0  0  0  0  0  0  0  0  0
  -22.9210  -13.6720   21.0390 C   0  0  0  0  0  0  0  0  0  0  0  0
  -22.1730  -12.9930   21.9020 N   0  0  0  0  0  0  0  0  0  0  0  0
  -22.4960  -14.6900   20.4940 O   0  0  0  0  0  0  0  0  0  0  0  0
  -22.5300  -12.1700   22.3640 H   0  0  0  0  0  0  0  0  0  0  0  0
  -21.2310  -13.2990   22.1030 H   0  0  0  0  0  0  0  0  0  0  0  0
  -25.5850  -15.3150   20.2640 N   0  0  0  0  0  0  0  0  0  0  0  0
  -24.8300  -15.9860   20.3570 H   0  0  0  0  0  0  0  0  0  0  0  0
  -26.4660  -15.7420   20.0030 H   0  0  0  0  0  0  0  0  0  0  0  0
  2  5  1  0
  3  1  1  0
  4  2  1  0
  4  6  1  0
  5 53  1  0
  5  1  1  0
  6  9  1  0
  6  3  1  0
  7  9  2  0
  7  8  1  0
 10 11  1  0
 10  7  1  0
 12 23  2  0
 13 11  1  0
 13 18  1  0
 14 22  1  0
 14 24  1  0
 15 21  1  0
 15 17  1  0
 16 22  1  0
 17 16  1  0
 18 17  2  0
 19 20  1  0
 19 13  2  0
 20 15  2  0
 21 14  1  0
 22 12  1  0
 24 26  2  0
 25 24  1  0
 27 25  1  0
 28 37  2  0
 28 33  1  0
 29 25  1  0
 29 33  1  0
 30 29  1  0
 31 32  1  0
 31 30  1  0
 32 28  1  0
 33 34  2  0
 34 35  1  0
 36 35  2  0
 37 36  1  0
 38 12  1  0
 38 43  1  0
 38 39  1  0
 39 42  1  1
 39 40  1  0
 41 39  1  0
 43 46  1  0
 44 48  1  0
 44 43  1  0
 45 44  2  0
 48 47  1  0
 50 48  1  0
 50 51  1  0
 50 49  1  0
 53 52  1  0
 53 55  1  0
 55 54  2  0
 56 54  1  0
 57 62  1  0
 58 59  1  0
 58 57  1  0
 60 59  1  0
 60 67  1  0
 60 61  1  0
 62 56  1  0
 62 61  1  0
 63 56  2  0
 64 65  2  0
 65 84  1  0
 66 65  1  0
 66 69  1  0
 67 64  1  0
 67 68  1  0
 68 66  2  0
 69 70  1  0
 70 71  2  0
 72 75  1  0
 72 71  1  0
 73 72  2  0
 74 73  1  0
 74 69  2  0
 75 76  1  0
 76 77  1  0
 77 78  2  0
 79 78  1  0
 79 83  1  0
 80 79  2  0
 81 76  2  0
 81 80  1  0
 82 81  1  0
 84 85  1  0
 85 88  1  0
 85 87  1  0
 86 84  2  0
 89 90  1  0
 89 64  1  0
 91 89  1  0
M  ISO  4  10 101  11 101  54 100  56 100
M  END
>  <TORSDO>  (39) 
F 20

>  <SCORE>  (39) 
-13.801

>  <name>  (39) 
38

>  <ligand_id>  (39) 
38

>  <original_smiles>  (39) 
[H]C(C(=O)N1C([H])([H])C([H])([H])C([H])([H])C([H])(n2nc(-c3c([H])c([H])c(Oc4c([H])c([H])c(F)c([H])c4F)c([H])c3[H])c(C(=O)N([H])[H])c2N([H])[H])C1([H])[H])=C([H])C([H])(C([H])([H])[H])C1([H])C([H])([H])C([H])([H])C([H])(N=C(C([H])([H])[H])C([H])([H])Oc2c([H])c([H])c3c(c2[H])C([H])([H])N(C(=O)C([H])(N([H])C(=O)C([H])(N([H])C([H])([H])[H])C([H])([H])[H])C(C([H])([H])[H])(C([H])([H])[H])C([H])([H])[H])C([H])(C(=O)N([H])C2([H])c4c([H])c([H])c([H])c([H])c4C([H])([H])C([H])([H])C2([H])[H])C3([H])[H])C([H])([H])C1([H])[H]

>  <smiles>  (39) 
[H]C(C(=O)N1C([H])([H])C([H])([H])C([H])([H])C([H])(n2nc(-c3c([H])c([H])c(Oc4c([H])c([H])c(F)c([H])c4F)c([H])c3[H])c(C(=O)N([H])[H])c2N([H])[H])C1([H])[H])=C([H])C([H])(C([H])([H])[H])C1([H])C([H])([H])C([H])([H])C([H])(N=C(C([H])([H])[H])C([H])([H])Oc2c([H])c([H])c3c(c2[H])C([H])([H])N(C(=O)C([H])(N([H])C(=O)C([H])(N([H])C([H])([H])[H])C([H])([H])[H])C(C([H])([H])[H])(C([H])([H])[H])C([H])([H])[H])C([H])(C(=O)N([H])C2([H])c4c([H])c([H])c([H])c([H])c4C([H])([H])C([H])([H])C2([H])[H])C3([H])[H])C([H])([H])C1([H])[H]

$$$$
39:0:0
     RDKit          3D

 90 97  0  0  1  0  0  0  0  0999 V2000
  -30.2410  -22.3430   19.2880 C   0  0  0  0  0  3  0  0  0  0  0  0
  -29.7090  -23.0460   20.3070 C   0  0  0  0  0  3  0  0  0  0  0  0
  -30.3650  -20.8640   19.2000 C   0  0  0  0  0  0  0  0  0  0  0  0
  -31.2810  -20.3830   18.0770 C   0  0  0  0  0  1  0  0  0  0  0  0
  -29.7670  -20.0650   20.0090 N   0  0  0  0  0  0  0  0  0  0  0  0
  -29.9280  -18.6190   19.8290 C   0  0  0  0  0  2  0  0  0  0  0  0
  -29.2410  -17.7970   20.9440 C   0  0  0  0  0  2  0  0  0  0  0  0
  -30.1670  -17.3180   22.0820 C   0  0  0  0  0  2  0  0  0  0  0  0
  -31.1720  -16.2100   21.6950 C   0  0  0  0  0  2  0  0  0  0  0  0
  -30.8790  -14.2050   20.2220 C   0  0  0  0  0  0  0  0  0  0  0  0
  -30.3820  -12.1700   18.9150 C   0  0  0  0  0  2  0  0  0  0  0  0
  -29.3920  -12.4630   17.7730 C   0  0  0  0  0  2  0  0  0  0  0  0
  -27.9370  -12.3590   18.2680 C   0  0  0  0  0  2  0  0  0  0  0  0
  -27.6980  -13.1710   19.5690 C   0  0  0  0  0  3  0  0  0  0  0  0
  -28.7840  -12.8540   20.6200 C   0  0  0  0  0  2  0  0  0  0  0  0
  -30.1080  -13.1070   20.0180 N   0  0  0  0  0  0  0  0  0  0  0  0
  -31.8730  -14.4710   19.5390 O   0  0  0  0  0  0  0  0  0  0  0  0
  -30.5080  -14.9830   21.2490 N   0  0  0  0  0  0  0  0  0  0  0  0
  -29.7140  -14.6620   21.7830 H   0  0  0  0  0  0  0  0  0  0  0  0
  -25.3420  -13.8600   20.3580 C   0  0  0  0  0  0  0  0  0  0  0  0
  -24.2620  -13.1230   20.7690 C   0  0  0  0  0  0  0  0  0  0  0  0
  -24.6770  -11.7580   20.7230 C   0  0  0  0  0  0  0  0  0  0  0  0
  -26.3500  -12.9450   20.0950 N   0  0  0  0  0  0  0  0  0  0  0  0
  -25.9530  -11.6750   20.3680 N   0  0  0  0  0  0  0  0  0  0  0  0
  -23.9180  -10.5190   20.9450 C   0  0  0  0  0  0  0  0  0  0  0  0
  -24.3600   -9.5340   21.8550 C   0  0  0  0  0  3  0  0  0  0  0  0
  -23.6040   -8.3590   22.0630 C   0  0  0  0  0  3  0  0  0  0  0  0
  -22.3920   -8.1620   21.3610 C   0  0  0  0  0  0  0  0  0  0  0  0
  -21.9660   -9.1370   20.4410 C   0  0  0  0  0  3  0  0  0  0  0  0
  -22.7210  -10.3030   20.2310 C   0  0  0  0  0  3  0  0  0  0  0  0
  -21.6040   -7.0440   21.4800 O   0  0  0  0  0  0  0  0  0  0  0  0
  -21.5890   -6.2950   22.6290 C   0  0  0  0  0  0  0  0  0  0  0  0
  -21.2710   -6.8590   23.8830 C   0  0  0  0  0  3  0  0  0  0  0  0
  -21.2010   -6.0370   25.0260 C   0  0  0  0  0  3  0  0  0  0  0  0
  -21.4370   -4.6550   24.9180 C   0  0  0  0  0  0  0  0  0  0  0  0
  -21.7460   -4.0900   23.6680 C   0  0  0  0  0  3  0  0  0  0  0  0
  -21.8210   -4.9080   22.5260 C   0  0  0  0  0  0  0  0  0  0  0  0
  -22.0990   -4.3570   21.3210 F   0  0  0  0  0  0  0  0  0  0  0  0
  -21.3630   -3.8640   26.0140 F   0  0  0  0  0  0  0  0  0  0  0  0
  -22.8930  -13.6460   21.0930 C   0  0  0  0  0  0  0  0  0  0  0  0
  -22.1760  -12.9810   21.9930 N   0  0  0  0  0  0  0  0  0  0  0  0
  -22.4670  -14.6820   20.5840 O   0  0  0  0  0  0  0  0  0  0  0  0
  -22.5330  -12.1440   22.4290 H   0  0  0  0  0  0  0  0  0  0  0  0
  -21.2560  -13.3130   22.2460 H   0  0  0  0  0  0  0  0  0  0  0  0
  -25.5440  -15.2210   20.1680 N   0  0  0  0  0  0  0  0  0  0  0  0
  -24.8070  -15.9070   20.2970 H   0  0  0  0  0  0  0  0  0  0  0  0
  -26.4060  -15.6260   19.8250 H   0  0  0  0  0  0  0  0  0  0  0  0
  -29.7020  -24.5720   20.3720 C   0  0  0  0  0  2  0  0  0  0  0  0
  -28.3360  -25.2170   20.0710 C   0  0  0  0  0  2  0  0  0  0  0  0
  -28.4100  -26.6410   20.2460 O   0  0  0  0  0  0  0  0  0  0  0  0
  -24.5900  -31.8470   23.2350 C   0  0  0  0  0  0  0  0  0  0  0  0
  -27.2290  -27.3570   20.2110 C   0  0  0  0  0  0  0  0  0  0  0  0
  -23.3830  -30.4330   21.6020 C   0  0  0  0  0  3  0  0  0  0  0  0
  -24.8360  -28.8770   20.1950 C   0  0  0  0  0  0  0  0  0  0  0  0
  -25.9130  -30.7780   21.4100 C   0  0  0  0  0  2  0  0  0  0  0  0
  -25.9940  -29.4010   20.7810 C   0  0  0  0  0  0  0  0  0  0  0  0
  -27.1920  -28.6510   20.7830 C   0  0  0  0  0  3  0  0  0  0  0  0
  -26.0480  -26.8470   19.6210 C   0  0  0  0  0  3  0  0  0  0  0  0
  -24.8600  -27.6000   19.6100 C   0  0  0  0  0  3  0  0  0  0  0  0
  -23.5950  -29.7400   20.2300 C   0  0  0  0  0  2  0  0  0  0  0  0
  -24.6460  -31.0360   22.1400 N   0  0  0  0  0  0  0  0  0  0  0  0
  -23.5080  -32.1300   23.7670 O   0  0  0  0  0  0  0  0  0  0  0  0
  -22.7230  -29.4250   22.5710 C   0  0  0  0  0  0  0  0  0  0  0  0
  -21.3990  -29.2480   22.4380 N   0  0  0  0  0  0  0  0  0  0  0  0
  -23.3990  -28.8040   23.3950 O   0  0  0  0  0  0  0  0  0  0  0  0
  -20.9170  -29.8020   21.7440 H   0  0  0  0  0  0  0  0  0  0  0  0
  -18.0180  -28.0620   22.9110 C   0  0  0  0  0  0  0  0  0  0  0  0
  -20.5720  -28.3240   23.2130 C   0  0  0  0  0  3  0  0  0  0  0  0
  -20.6820  -26.8860   22.6590 C   0  0  0  0  0  2  0  0  0  0  0  0
  -19.5930  -26.5460   21.6370 C   0  0  0  0  0  2  0  0  0  0  0  0
  -18.2020  -26.7020   22.2610 C   0  0  0  0  0  2  0  0  0  0  0  0
  -19.1310  -28.8300   23.3430 C   0  0  0  0  0  0  0  0  0  0  0  0
  -18.9070  -30.1040   23.9120 C   0  0  0  0  0  3  0  0  0  0  0  0
  -17.6010  -30.6100   24.0520 C   0  0  0  0  0  3  0  0  0  0  0  0
  -16.5010  -29.8390   23.6370 C   0  0  0  0  0  3  0  0  0  0  0  0
  -16.7100  -28.5680   23.0740 C   0  0  0  0  0  3  0  0  0  0  0  0
  -25.8770  -32.4760   23.8530 C   0  0  0  0  0  3  0  0  0  0  0  0
  -25.5690  -33.8740   24.1870 N   0  0  0  0  0  0  0  0  0  0  0  0
  -25.9020  -34.9280   23.4290 C   0  0  0  0  0  0  0  0  0  0  0  0
  -26.5730  -34.8260   22.3980 O   0  0  0  0  0  0  0  0  0  0  0  0
  -24.9750  -34.0270   24.9870 H   0  0  0  0  0  0  0  0  0  0  0  0
  -24.1690  -36.7180   23.0790 C   0  0  0  0  0  1  0  0  0  0  0  0
  -25.4130  -36.3150   23.8880 C   0  0  0  0  0  3  0  0  0  0  0  0
  -27.5510  -37.1990   24.7110 C   0  0  0  0  0  1  0  0  0  0  0  0
  -26.4450  -37.3690   23.7730 N   0  0  0  0  0  0  0  0  0  0  0  0
  -26.0400  -38.2890   23.9240 H   0  0  0  0  0  0  0  0  0  0  0  0
  -26.4000  -31.7020   25.1250 C   0  0  1  0  0  0  0  0  0  0  0  0
  -25.3110  -31.4640   26.1970 C   0  0  0  0  0  1  0  0  0  0  0  0
  -26.9820  -30.3250   24.7260 C   0  0  0  0  0  1  0  0  0  0  0  0
  -27.5530  -32.4970   25.7840 C   0  0  0  0  0  1  0  0  0  0  0  0
  1  2  2  0
  2 48  1  0
  3  1  1  0
  3  5  2  0
  4  3  1  0
  6  5  1  0
  6  7  1  0
  7  8  1  0
  9  8  1  0
 10 18  1  0
 11 16  1  0
 12 13  1  0
 12 11  1  0
 14 13  1  0
 14 23  1  0
 14 15  1  0
 16 10  1  0
 16 15  1  0
 17 10  2  0
 18  9  1  0
 18 19  1  0
 20 21  2  0
 21 40  1  0
 22 21  1  0
 22 25  1  0
 23 20  1  0
 23 24  1  0
 24 22  2  0
 25 26  1  0
 26 27  2  0
 28 31  1  0
 28 27  1  0
 29 28  2  0
 30 29  1  0
 30 25  2  0
 31 32  1  0
 32 33  1  0
 33 34  2  0
 35 34  1  0
 35 39  1  0
 36 35  2  0
 37 32  2  0
 37 36  1  0
 38 37  1  0
 40 41  1  0
 41 44  1  0
 41 43  1  0
 42 40  2  0
 45 46  1  0
 45 20  1  0
 47 45  1  0
 49 50  1  0
 49 48  1  0
 51 62  2  0
 52 50  1  0
 52 57  1  0
 53 61  1  0
 53 63  1  0
 54 60  1  0
 54 56  1  0
 55 61  1  0
 56 57  2  0
 56 55  1  0
 58 52  2  0
 59 58  1  0
 59 54  2  0
 60 53  1  0
 61 51  1  0
 63 65  2  0
 64 63  1  0
 66 64  1  0
 67 76  2  0
 67 72  1  0
 68 64  1  0
 68 72  1  0
 69 68  1  0
 70 71  1  0
 70 69  1  0
 71 67  1  0
 72 73  2  0
 73 74  1  0
 75 74  2  0
 76 75  1  0
 77 51  1  0
 77 78  1  0
 77 87  1  0
 78 81  1  0
 79 83  1  0
 79 78  1  0
 80 79  2  0
 83 82  1  0
 85 83  1  0
 85 86  1  0
 85 84  1  0
 87 90  1  1
 87 88  1  0
 89 87  1  0
M  ISO  4  10 100  18 100  49 101  50 101
M  END
>  <TORSDO>  (40) 
F 23

>  <SCORE>  (40) 
-12.527

>  <name>  (40) 
39

>  <ligand_id>  (40) 
39

>  <original_smiles>  (40) 
[H]C(C(=NC([H])([H])C([H])([H])C([H])([H])C([H])([H])N([H])C(=O)N1C([H])([H])C([H])([H])C([H])([H])C([H])(n2nc(-c3c([H])c([H])c(Oc4c([H])c([H])c(F)c([H])c4F)c([H])c3[H])c(C(=O)N([H])[H])c2N([H])[H])C1([H])[H])C([H])([H])[H])=C([H])C([H])([H])C([H])([H])Oc1c([H])c([H])c2c(c1[H])C([H])([H])N(C(=O)C([H])(N([H])C(=O)C([H])(N([H])C([H])([H])[H])C([H])([H])[H])C(C([H])([H])[H])(C([H])([H])[H])C([H])([H])[H])C([H])(C(=O)N([H])C1([H])c3c([H])c([H])c([H])c([H])c3C([H])([H])C([H])([H])C1([H])[H])C2([H])[H]

>  <smiles>  (40) 
[H]C(C(=NC([H])([H])C([H])([H])C([H])([H])C([H])([H])N([H])C(=O)N1C([H])([H])C([H])([H])C([H])([H])C([H])(n2nc(-c3c([H])c([H])c(Oc4c([H])c([H])c(F)c([H])c4F)c([H])c3[H])c(C(=O)N([H])[H])c2N([H])[H])C1([H])[H])C([H])([H])[H])=C([H])C([H])([H])C([H])([H])Oc1c([H])c([H])c2c(c1[H])C([H])([H])N(C(=O)C([H])(N([H])C(=O)C([H])(N([H])C([H])([H])[H])C([H])([H])[H])C(C([H])([H])[H])(C([H])([H])[H])C([H])([H])[H])C([H])(C(=O)N([H])C1([H])c3c([H])c([H])c([H])c([H])c3C([H])([H])C([H])([H])C1([H])[H])C2([H])[H]

$$$$
40:0:0
     RDKit          3D

 96104  0  0  1  0  0  0  0  0999 V2000
  -31.6350  -20.6750   22.6030 C   0  0  0  0  0  2  0  0  0  0  0  0
  -30.8500  -19.3760   22.3890 C   0  0  0  0  0  2  0  0  0  0  0  0
  -30.6950  -21.8830   22.5230 C   0  0  0  0  0  2  0  0  0  0  0  0
  -30.1260  -19.3420   21.0270 C   0  0  0  0  0  3  0  0  0  0  0  0
  -29.2670  -20.6270   20.7900 C   0  0  0  0  0  3  0  0  0  0  0  0
  -29.9890  -21.9730   21.1550 C   0  0  0  0  0  3  0  0  0  0  0  0
  -27.7290  -21.1890   18.8630 C   0  0  0  0  0  0  0  0  0  0  0  0
  -27.4140  -20.8870   17.4030 C   0  0  0  0  0  1  0  0  0  0  0  0
  -28.8160  -20.6120   19.3890 N   0  0  0  0  0  0  0  0  0  0  0  0
  -27.0110  -21.9530   19.5110 O   0  0  0  0  0  0  0  0  0  0  0  0
  -29.3410  -20.0100   18.7660 H   0  0  0  0  0  0  0  0  0  0  0  0
  -28.9910  -23.0720   21.1750 N   0  0  0  0  0  4  0  0  0  0  0  0
  -28.4900  -23.0350   22.0480 H   0  0  0  0  0  0  0  0  0  0  0  0
  -28.3150  -22.8120   20.4550 H   0  0  0  0  0  0  0  0  0  0  0  0
  -29.4180  -24.4710   20.9040 C   0  0  0  0  0  2  0  0  0  0  0  0
  -28.1610  -25.3120   20.5810 C   0  0  0  0  0  2  0  0  0  0  0  0
  -28.3940  -26.6940   20.2590 O   0  0  0  0  0  0  0  0  0  0  0  0
  -24.5460  -31.8790   23.2110 C   0  0  0  0  0  0  0  0  0  0  0  0
  -27.2360  -27.4470   20.1800 C   0  0  0  0  0  0  0  0  0  0  0  0
  -23.3620  -30.4800   21.5510 C   0  0  0  0  0  3  0  0  0  0  0  0
  -24.8370  -28.9540   20.1420 C   0  0  0  0  0  0  0  0  0  0  0  0
  -25.8870  -30.8500   21.3800 C   0  0  0  0  0  2  0  0  0  0  0  0
  -25.9870  -29.4780   20.7460 C   0  0  0  0  0  0  0  0  0  0  0  0
  -27.1900  -28.7350   20.7600 C   0  0  0  0  0  3  0  0  0  0  0  0
  -26.0670  -26.9440   19.5540 C   0  0  0  0  0  3  0  0  0  0  0  0
  -24.8740  -27.6850   19.5410 C   0  0  0  0  0  3  0  0  0  0  0  0
  -23.5910  -29.8080   20.1710 C   0  0  0  0  0  2  0  0  0  0  0  0
  -24.6170  -31.0820   22.1080 N   0  0  0  0  0  0  0  0  0  0  0  0
  -23.4570  -32.1460   23.7380 O   0  0  0  0  0  0  0  0  0  0  0  0
  -22.7010  -29.4550   22.4980 C   0  0  0  0  0  0  0  0  0  0  0  0
  -21.3770  -29.2710   22.3540 N   0  0  0  0  0  0  0  0  0  0  0  0
  -23.3730  -28.8300   23.3220 O   0  0  0  0  0  0  0  0  0  0  0  0
  -20.8950  -29.8290   21.6630 H   0  0  0  0  0  0  0  0  0  0  0  0
  -17.9960  -28.0890   22.8150 C   0  0  0  0  0  0  0  0  0  0  0  0
  -20.5520  -28.3310   23.1120 C   0  0  0  0  0  3  0  0  0  0  0  0
  -20.6550  -26.9040   22.5260 C   0  0  0  0  0  2  0  0  0  0  0  0
  -19.5600  -26.5940   21.5010 C   0  0  0  0  0  2  0  0  0  0  0  0
  -18.1730  -26.7420   22.1330 C   0  0  0  0  0  2  0  0  0  0  0  0
  -19.1140  -28.8420   23.2610 C   0  0  0  0  0  0  0  0  0  0  0  0
  -18.8970  -30.1030   23.8570 C   0  0  0  0  0  3  0  0  0  0  0  0
  -17.5940  -30.6100   24.0130 C   0  0  0  0  0  3  0  0  0  0  0  0
  -16.4900  -29.8550   23.5830 C   0  0  0  0  0  3  0  0  0  0  0  0
  -16.6910  -28.5960   22.9900 C   0  0  0  0  0  3  0  0  0  0  0  0
  -25.8230  -32.5090   23.8490 C   0  0  0  0  0  3  0  0  0  0  0  0
  -25.5100  -33.9080   24.1730 N   0  0  0  0  0  0  0  0  0  0  0  0
  -25.8600  -34.9580   23.4180 C   0  0  0  0  0  0  0  0  0  0  0  0
  -26.5530  -34.8530   22.4030 O   0  0  0  0  0  0  0  0  0  0  0  0
  -24.8950  -34.0640   24.9580 H   0  0  0  0  0  0  0  0  0  0  0  0
  -24.1460  -36.7560   23.0170 C   0  0  0  0  0  1  0  0  0  0  0  0
  -25.3630  -36.3470   23.8630 C   0  0  0  0  0  3  0  0  0  0  0  0
  -27.4780  -37.2230   24.7520 C   0  0  0  0  0  1  0  0  0  0  0  0
  -26.4000  -37.3980   23.7810 N   0  0  0  0  0  0  0  0  0  0  0  0
  -25.9920  -38.3190   23.9250 H   0  0  0  0  0  0  0  0  0  0  0  0
  -26.3210  -31.7350   25.1300 C   0  0  1  0  0  0  0  0  0  0  0  0
  -25.2110  -31.4940   26.1800 C   0  0  0  0  0  1  0  0  0  0  0  0
  -26.9090  -30.3600   24.7400 C   0  0  0  0  0  1  0  0  0  0  0  0
  -27.4600  -32.5260   25.8140 C   0  0  0  0  0  1  0  0  0  0  0  0
  -29.2710  -18.0450   20.9100 C   0  0  0  0  0  2  0  0  0  0  0  0
  -30.0100  -15.5990   21.0840 C   0  0  0  0  0  3  0  0  0  0  0  0
  -30.0420  -16.8060   20.4730 C   0  0  0  0  0  3  0  0  0  0  0  0
  -30.7510  -14.4840   20.4960 C   0  0  0  0  0  0  0  0  0  0  0  0
  -30.4300  -12.3540   19.3040 C   0  0  0  0  0  2  0  0  0  0  0  0
  -29.5050  -12.6210   18.0960 C   0  0  0  0  0  2  0  0  0  0  0  0
  -28.0210  -12.4950   18.4970 C   0  0  0  0  0  2  0  0  0  0  0  0
  -27.6850  -13.2820   19.7920 C   0  0  0  0  0  3  0  0  0  0  0  0
  -28.7260  -13.0070   20.8990 C   0  0  0  0  0  2  0  0  0  0  0  0
  -30.0630  -13.3130   20.3590 N   0  0  0  0  0  0  0  0  0  0  0  0
  -31.8770  -14.6410   20.0190 O   0  0  0  0  0  0  0  0  0  0  0  0
  -25.2660  -13.8830   20.4370 C   0  0  0  0  0  0  0  0  0  0  0  0
  -24.1960  -13.1090   20.7990 C   0  0  0  0  0  0  0  0  0  0  0  0
  -24.6690  -11.7600   20.7970 C   0  0  0  0  0  0  0  0  0  0  0  0
  -26.3240  -13.0060   20.2460 N   0  0  0  0  0  0  0  0  0  0  0  0
  -25.9650  -11.7240   20.5160 N   0  0  0  0  0  0  0  0  0  0  0  0
  -23.9470  -10.4970   20.9950 C   0  0  0  0  0  0  0  0  0  0  0  0
  -24.3720   -9.5420   21.9440 C   0  0  0  0  0  3  0  0  0  0  0  0
  -23.6470   -8.3440   22.1280 C   0  0  0  0  0  3  0  0  0  0  0  0
  -22.4860   -8.0900   21.3620 C   0  0  0  0  0  0  0  0  0  0  0  0
  -22.0800   -9.0340   20.3990 C   0  0  0  0  0  3  0  0  0  0  0  0
  -22.8030  -10.2230   20.2150 C   0  0  0  0  0  3  0  0  0  0  0  0
  -21.7370   -6.9410   21.4540 O   0  0  0  0  0  0  0  0  0  0  0  0
  -21.6790   -6.2110   22.6140 C   0  0  0  0  0  0  0  0  0  0  0  0
  -21.2310   -6.7750   23.8300 C   0  0  0  0  0  3  0  0  0  0  0  0
  -21.1230   -5.9700   24.9810 C   0  0  0  0  0  3  0  0  0  0  0  0
  -21.4500   -4.6030   24.9190 C   0  0  0  0  0  0  0  0  0  0  0  0
  -21.8890   -4.0390   23.7080 C   0  0  0  0  0  3  0  0  0  0  0  0
  -22.0000   -4.8400   22.5580 C   0  0  0  0  0  0  0  0  0  0  0  0
  -22.4030   -4.2870   21.3900 F   0  0  0  0  0  0  0  0  0  0  0  0
  -21.3390   -3.8270   26.0220 F   0  0  0  0  0  0  0  0  0  0  0  0
  -22.7900  -13.5770   21.0400 C   0  0  0  0  0  0  0  0  0  0  0  0
  -22.0540  -12.8900   21.9040 N   0  0  0  0  0  0  0  0  0  0  0  0
  -22.3530  -14.5910   20.4950 O   0  0  0  0  0  0  0  0  0  0  0  0
  -22.4190  -12.0680   22.3620 H   0  0  0  0  0  0  0  0  0  0  0  0
  -21.1110  -13.1870   22.1100 H   0  0  0  0  0  0  0  0  0  0  0  0
  -25.4300  -15.2490   20.2400 N   0  0  0  0  0  0  0  0  0  0  0  0
  -24.6630  -15.9080   20.3210 H   0  0  0  0  0  0  0  0  0  0  0  0
  -26.3000  -15.6830   19.9610 H   0  0  0  0  0  0  0  0  0  0  0  0
  2  1  1  0
  3  1  1  0
  4 58  1  0
  4  2  1  0
  5  9  1  0
  5  4  1  0
  5  6  1  0
  6 12  1  0
  6  3  1  0
  7  9  1  0
  7 10  2  0
  8  7  1  0
 11  9  1  0
 12 13  1  0
 14 12  1  0
 15 12  1  0
 16 15  1  0
 17 16  1  0
 18 29  2  0
 19 17  1  0
 19 24  1  0
 20 28  1  0
 20 30  1  0
 21 27  1  0
 21 23  1  0
 22 28  1  0
 23 24  2  0
 23 22  1  0
 25 19  2  0
 26 25  1  0
 26 21  2  0
 27 20  1  0
 28 18  1  0
 30 32  2  0
 31 30  1  0
 33 31  1  0
 34 43  2  0
 34 39  1  0
 35 31  1  0
 35 39  1  0
 36 35  1  0
 37 38  1  0
 37 36  1  0
 38 34  1  0
 39 40  2  0
 40 41  1  0
 42 41  2  0
 43 42  1  0
 44 18  1  0
 44 45  1  0
 44 54  1  0
 45 48  1  0
 46 50  1  0
 46 45  1  0
 47 46  2  0
 50 49  1  0
 52 50  1  0
 52 53  1  0
 52 51  1  0
 54 57  1  1
 54 55  1  0
 56 54  1  0
 60 58  1  0
 60 59  2  0
 61 59  1  0
 62 67  1  0
 63 64  1  0
 63 62  1  0
 65 64  1  0
 65 72  1  0
 65 66  1  0
 67 61  1  0
 67 66  1  0
 68 61  2  0
 69 70  2  0
 70 89  1  0
 71 70  1  0
 71 74  1  0
 72 69  1  0
 72 73  1  0
 73 71  2  0
 74 75  1  0
 75 76  2  0
 77 80  1  0
 77 76  1  0
 78 77  2  0
 79 78  1  0
 79 74  2  0
 80 81  1  0
 81 82  1  0
 82 83  2  0
 84 83  1  0
 84 88  1  0
 85 84  2  0
 86 81  2  0
 86 85  1  0
 87 86  1  0
 89 90  1  0
 90 93  1  0
 90 92  1  0
 91 89  2  0
 94 95  1  0
 94 69  1  0
 96 94  1  0
M  ISO  4  16 101  17 101  59 100  61 100
M  END
>  <TORSDO>  (41) 
F 22

>  <SCORE>  (41) 
-13.415

>  <name>  (41) 
40

>  <ligand_id>  (41) 
40

>  <original_smiles>  (41) 
[H]C(C(=O)N1C([H])([H])C([H])([H])C([H])([H])C([H])(n2nc(-c3c([H])c([H])c(Oc4c([H])c([H])c(F)c([H])c4F)c([H])c3[H])c(C(=O)N([H])[H])c2N([H])[H])C1([H])[H])=C([H])C([H])([H])C1([H])C([H])([H])C([H])([H])C([H])([H])C([H])([N+]([H])([H])C([H])([H])C([H])([H])Oc2c([H])c([H])c3c(c2[H])C([H])([H])N(C(=O)C([H])(N([H])C(=O)C([H])(N([H])C([H])([H])[H])C([H])([H])[H])C(C([H])([H])[H])(C([H])([H])[H])C([H])([H])[H])C([H])(C(=O)N([H])C2([H])c4c([H])c([H])c([H])c([H])c4C([H])([H])C([H])([H])C2([H])[H])C3([H])[H])C1([H])N([H])C(=O)C([H])([H])[H]

>  <smiles>  (41) 
[H]C(C(=O)N1C([H])([H])C([H])([H])C([H])([H])C([H])(n2nc(-c3c([H])c([H])c(Oc4c([H])c([H])c(F)c([H])c4F)c([H])c3[H])c(C(=O)N([H])[H])c2N([H])[H])C1([H])[H])=C([H])C([H])([H])C1([H])C([H])([H])C([H])([H])C([H])([H])C([H])([N+]([H])([H])C([H])([H])C([H])([H])Oc2c([H])c([H])c3c(c2[H])C([H])([H])N(C(=O)C([H])(N([H])C(=O)C([H])(N([H])C([H])([H])[H])C([H])([H])[H])C(C([H])([H])[H])(C([H])([H])[H])C([H])([H])[H])C([H])(C(=O)N([H])C2([H])c4c([H])c([H])c([H])c([H])c4C([H])([H])C([H])([H])C2([H])[H])C3([H])[H])C1([H])N([H])C(=O)C([H])([H])[H]

$$$$
41:0:0
     RDKit          3D

 93100  0  0  1  0  0  0  0  0999 V2000
  -29.0620  -22.8590   19.6890 C   0  0  0  0  0  0  0  0  0  0  0  0
  -28.8110  -22.8920   18.1740 C   0  0  0  0  0  0  0  0  0  0  0  0
  -29.6730  -23.5530   17.4090 N   0  0  0  0  0  0  0  0  0  0  0  0
  -27.8200  -22.3470   17.6900 O   0  0  0  0  0  0  0  0  0  0  0  0
  -30.4760  -24.0110   17.8180 H   0  0  0  0  0  0  0  0  0  0  0  0
  -29.5340  -23.6040   16.4090 H   0  0  0  0  0  0  0  0  0  0  0  0
  -29.6690  -19.9930   19.6080 C   0  0  0  0  0  0  0  0  0  0  0  0
  -29.2200  -21.2760   20.1980 N   0  0  0  0  0  4  0  0  0  0  0  0
  -29.8430  -19.9900   18.3900 O   0  0  0  0  0  0  0  0  0  0  0  0
  -29.0640  -21.1940   21.1930 H   0  0  0  0  0  0  0  0  0  0  0  0
  -29.2940  -18.3830   21.6410 C   0  0  0  0  0  1  0  0  0  0  0  0
  -30.0980  -18.4580   20.3280 C   0  0  2  0  0  0  0  0  0  0  0  0
  -32.0730  -19.6880   21.6140 C   0  0  0  0  0  1  0  0  0  0  0  0
  -31.6170  -18.5630   20.6620 C   0  0  0  0  0  2  0  0  0  0  0  0
  -29.9620  -16.8160   19.6220 C   0  0  0  0  0  2  0  0  0  0  0  0
  -30.7830  -15.2760   19.7810 C   0  0  0  0  0  0  0  0  0  0  0  0
  -30.6980  -12.8210   18.9710 C   0  0  0  0  0  2  0  0  0  0  0  0
  -29.7220  -12.6460   17.7790 C   0  0  0  0  0  2  0  0  0  0  0  0
  -28.2860  -12.4100   18.2790 C   0  0  0  0  0  2  0  0  0  0  0  0
  -27.9000  -13.3880   19.4170 C   0  0  0  0  0  3  0  0  0  0  0  0
  -28.9950  -13.5200   20.4920 C   0  0  0  0  0  2  0  0  0  0  0  0
  -30.2210  -13.9730   19.8160 N   0  0  0  0  0  0  0  0  0  0  0  0
  -32.0050  -15.2470   19.5690 O   0  0  0  0  0  0  0  0  0  0  0  0
  -25.5840  -13.9880   20.3010 C   0  0  0  0  0  0  0  0  0  0  0  0
  -24.5240  -13.2290   20.7120 C   0  0  0  0  0  0  0  0  0  0  0  0
  -24.9590  -11.8690   20.6410 C   0  0  0  0  0  0  0  0  0  0  0  0
  -26.5920  -13.0930   19.9900 N   0  0  0  0  0  0  0  0  0  0  0  0
  -26.2320  -11.8120   20.2650 N   0  0  0  0  0  0  0  0  0  0  0  0
  -24.2120  -10.6210   20.8520 C   0  0  0  0  0  0  0  0  0  0  0  0
  -24.6110   -9.6750   21.8210 C   0  0  0  0  0  3  0  0  0  0  0  0
  -23.8640   -8.4930   22.0180 C   0  0  0  0  0  3  0  0  0  0  0  0
  -22.7040   -8.2490   21.2440 C   0  0  0  0  0  0  0  0  0  0  0  0
  -22.3250   -9.1830   20.2650 C   0  0  0  0  0  3  0  0  0  0  0  0
  -23.0720  -10.3560   20.0680 C   0  0  0  0  0  3  0  0  0  0  0  0
  -21.9320   -7.1170   21.3500 O   0  0  0  0  0  0  0  0  0  0  0  0
  -21.7860   -6.4510   22.5400 C   0  0  0  0  0  0  0  0  0  0  0  0
  -21.2480   -7.0800   23.6830 C   0  0  0  0  0  3  0  0  0  0  0  0
  -21.0510   -6.3400   24.8670 C   0  0  0  0  0  3  0  0  0  0  0  0
  -21.3830   -4.9730   24.9060 C   0  0  0  0  0  0  0  0  0  0  0  0
  -21.9130   -4.3430   23.7670 C   0  0  0  0  0  3  0  0  0  0  0  0
  -22.1110   -5.0810   22.5850 C   0  0  0  0  0  0  0  0  0  0  0  0
  -22.6030   -4.4640   21.4840 F   0  0  0  0  0  0  0  0  0  0  0  0
  -21.1870   -4.2590   26.0400 F   0  0  0  0  0  0  0  0  0  0  0  0
  -23.1520  -13.7330   21.0530 C   0  0  0  0  0  0  0  0  0  0  0  0
  -22.4500  -13.0420   21.9450 N   0  0  0  0  0  0  0  0  0  0  0  0
  -22.7160  -14.7740   20.5660 O   0  0  0  0  0  0  0  0  0  0  0  0
  -22.8180  -12.2000   22.3620 H   0  0  0  0  0  0  0  0  0  0  0  0
  -21.5310  -13.3620   22.2150 H   0  0  0  0  0  0  0  0  0  0  0  0
  -25.7690  -15.3580   20.1360 N   0  0  0  0  0  0  0  0  0  0  0  0
  -25.0280  -16.0290   20.3020 H   0  0  0  0  0  0  0  0  0  0  0  0
  -26.6130  -15.7840   19.7750 H   0  0  0  0  0  0  0  0  0  0  0  0
  -28.2050  -24.2620   20.3980 C   0  0  0  0  0  2  0  0  0  0  0  0
  -28.3840  -25.8930   20.2960 O   0  0  0  0  0  0  0  0  0  0  0  0
  -24.6260  -31.7770   23.1480 C   0  0  0  0  0  0  0  0  0  0  0  0
  -27.3310  -26.9360   20.2480 C   0  0  0  0  0  0  0  0  0  0  0  0
  -23.4930  -30.3520   21.4890 C   0  0  0  0  0  3  0  0  0  0  0  0
  -24.9990  -28.7570   20.1260 C   0  0  0  0  0  0  0  0  0  0  0  0
  -26.0560  -30.6080   21.4040 C   0  0  0  0  0  2  0  0  0  0  0  0
  -26.1650  -29.1940   20.7670 C   0  0  0  0  0  0  0  0  0  0  0  0
  -27.3280  -28.3070   20.7980 C   0  0  0  0  0  3  0  0  0  0  0  0
  -26.1320  -26.6370   19.5640 C   0  0  0  0  0  3  0  0  0  0  0  0
  -25.0050  -27.4960   19.5050 C   0  0  0  0  0  3  0  0  0  0  0  0
  -23.7670  -29.6580   20.1280 C   0  0  0  0  0  2  0  0  0  0  0  0
  -24.7440  -30.9400   22.0670 N   0  0  0  0  0  0  0  0  0  0  0  0
  -23.5190  -32.0560   23.6380 O   0  0  0  0  0  0  0  0  0  0  0  0
  -22.7870  -29.3560   22.4450 C   0  0  0  0  0  0  0  0  0  0  0  0
  -21.4590  -29.1870   22.2970 N   0  0  0  0  0  0  0  0  0  0  0  0
  -23.4400  -28.7340   23.2860 O   0  0  0  0  0  0  0  0  0  0  0  0
  -20.9850  -29.7410   21.5980 H   0  0  0  0  0  0  0  0  0  0  0  0
  -18.0750  -27.9610   22.7390 C   0  0  0  0  0  0  0  0  0  0  0  0
  -20.6260  -28.2470   23.0560 C   0  0  0  0  0  3  0  0  0  0  0  0
  -20.7510  -26.8130   22.4900 C   0  0  0  0  0  2  0  0  0  0  0  0
  -19.6720  -26.4770   21.4550 C   0  0  0  0  0  2  0  0  0  0  0  0
  -18.2760  -26.6110   22.0690 C   0  0  0  0  0  2  0  0  0  0  0  0
  -19.1780  -28.7350   23.1880 C   0  0  0  0  0  0  0  0  0  0  0  0
  -18.9330  -29.9950   23.7760 C   0  0  0  0  0  3  0  0  0  0  0  0
  -17.6200  -30.4820   23.9180 C   0  0  0  0  0  3  0  0  0  0  0  0
  -16.5310  -29.7040   23.4850 C   0  0  0  0  0  3  0  0  0  0  0  0
  -16.7600  -28.4450   22.9010 C   0  0  0  0  0  3  0  0  0  0  0  0
  -25.8720  -32.4390   23.8100 C   0  0  0  0  0  3  0  0  0  0  0  0
  -25.5250  -33.8330   24.1370 N   0  0  0  0  0  0  0  0  0  0  0  0
  -25.8700  -34.9000   23.4040 C   0  0  0  0  0  0  0  0  0  0  0  0
  -26.5730  -34.8160   22.3930 O   0  0  0  0  0  0  0  0  0  0  0  0
  -24.9050  -33.9720   24.9200 H   0  0  0  0  0  0  0  0  0  0  0  0
  -24.1340  -36.6830   23.0170 C   0  0  0  0  0  1  0  0  0  0  0  0
  -25.3530  -36.2800   23.8610 C   0  0  0  0  0  3  0  0  0  0  0  0
  -27.4440  -37.1860   24.7750 C   0  0  0  0  0  1  0  0  0  0  0  0
  -26.3760  -37.3470   23.7930 N   0  0  0  0  0  0  0  0  0  0  0  0
  -25.9540  -38.2610   23.9320 H   0  0  0  0  0  0  0  0  0  0  0  0
  -26.3590  -31.6820   25.1080 C   0  0  1  0  0  0  0  0  0  0  0  0
  -25.2370  -31.4310   26.1430 C   0  0  0  0  0  1  0  0  0  0  0  0
  -26.9780  -30.3130   24.7490 C   0  0  0  0  0  1  0  0  0  0  0  0
  -27.4760  -32.4970   25.8020 C   0  0  0  0  0  1  0  0  0  0  0  0
  1  8  2  0
  1 52  1  0
  2  1  1  0
  3  5  1  0
  3  2  1  0
  4  2  2  0
  6  3  1  0
  7  8  1  0
  7 12  1  0
  8 10  1  0
  9  7  2  0
 12 14  1  0
 12 11  1  1
 14 13  1  0
 15 16  1  0
 15 12  1  0
 16 22  1  0
 17 22  1  0
 18 19  1  0
 18 17  1  0
 20 19  1  0
 20 27  1  0
 20 21  1  0
 22 21  1  0
 23 16  2  0
 24 25  2  0
 25 44  1  0
 26 25  1  0
 26 29  1  0
 27 28  1  0
 27 24  1  0
 28 26  2  0
 29 30  1  0
 30 31  2  0
 32 35  1  0
 32 31  1  0
 33 32  2  0
 34 33  1  0
 34 29  2  0
 35 36  1  0
 36 41  2  0
 36 37  1  0
 37 38  2  0
 38 39  1  0
 39 43  1  0
 40 39  2  0
 41 40  1  0
 42 41  1  0
 44 45  1  0
 45 48  1  0
 45 47  1  0
 46 44  2  0
 49 24  1  0
 49 50  1  0
 51 49  1  0
 53 52  1  0
 54 65  2  0
 55 53  1  0
 55 60  1  0
 56 64  1  0
 56 66  1  0
 57 63  1  0
 57 59  1  0
 58 64  1  0
 59 60  2  0
 59 58  1  0
 61 55  2  0
 62 61  1  0
 62 57  2  0
 63 56  1  0
 64 54  1  0
 66 68  2  0
 67 66  1  0
 69 67  1  0
 70 79  2  0
 70 75  1  0
 71 67  1  0
 71 75  1  0
 72 71  1  0
 73 74  1  0
 73 72  1  0
 74 70  1  0
 75 76  2  0
 76 77  1  0
 78 77  2  0
 79 78  1  0
 80 54  1  0
 80 81  1  0
 80 90  1  0
 81 84  1  0
 82 86  1  0
 82 81  1  0
 83 82  2  0
 86 85  1  0
 88 86  1  0
 88 89  1  0
 88 87  1  0
 90 93  1  1
 90 91  1  0
 92 90  1  0
M  ISO  4  15 100  16 100  52 101  53 101
M  END
>  <TORSDO>  (42) 
F 22

>  <SCORE>  (42) 
-14.026

>  <name>  (42) 
41

>  <ligand_id>  (42) 
41

>  <original_smiles>  (42) 
[H]c1c([H])c([H])c2c(c1[H])C([H])([H])C([H])([H])C([H])([H])C2([H])N([H])C(=O)C1([H])N(C(=O)C([H])(N([H])C(=O)C([H])(N([H])C([H])([H])[H])C([H])([H])[H])C(C([H])([H])[H])(C([H])([H])[H])C([H])([H])[H])C([H])([H])c2c([H])c(OC([H])([H])C([H])(C(=O)N([H])[H])N([H])C(=O)C(C([H])([H])[H])(C([H])([H])C(=O)N3C([H])([H])C([H])([H])C([H])([H])C([H])(n4nc(-c5c([H])c([H])c(Oc6c([H])c([H])c(F)c([H])c6F)c([H])c5[H])c(C(=O)N([H])[H])c4N([H])[H])C3([H])[H])C([H])([H])C([H])([H])[H])c([H])c([H])c2C1([H])[H]

>  <smiles>  (42) 
[H]c1c([H])c([H])c2c(c1[H])C([H])([H])C([H])([H])C([H])([H])C2([H])N([H])C(=O)C1([H])N(C(=O)C([H])(N([H])C(=O)C([H])(N([H])C([H])([H])[H])C([H])([H])[H])C(C([H])([H])[H])(C([H])([H])[H])C([H])([H])[H])C([H])([H])c2c([H])c(OC([H])([H])C([H])(C(=O)N([H])[H])N([H])C(=O)C(C([H])([H])[H])(C([H])([H])C(=O)N3C([H])([H])C([H])([H])C([H])([H])C([H])(n4nc(-c5c([H])c([H])c(Oc6c([H])c([H])c(F)c([H])c6F)c([H])c5[H])c(C(=O)N([H])[H])c4N([H])[H])C3([H])[H])C([H])([H])C([H])([H])[H])c([H])c([H])c2C1([H])[H]

$$$$
42:0:0
     RDKit          3D

 93100  0  0  1  0  0  0  0  0999 V2000
  -30.0670  -22.0460   20.9570 N   0  0  0  0  0  4  0  0  0  0  0  0
  -30.8110  -22.2190   20.3030 H   0  0  0  0  0  0  0  0  0  0  0  0
  -30.5110  -21.9540   21.8570 H   0  0  0  0  0  0  0  0  0  0  0  0
  -29.0450  -23.7580   22.4500 C   0  0  0  0  0  1  0  0  0  0  0  0
  -29.1190  -23.2020   21.0160 C   0  0  0  0  0  3  0  0  0  0  0  0
  -29.4680  -24.3420   20.0070 C   0  0  0  0  0  2  0  0  0  0  0  0
  -28.2720  -25.2820   19.6760 C   0  0  0  0  0  2  0  0  0  0  0  0
  -28.3840  -26.6590   20.1070 O   0  0  0  0  0  0  0  0  0  0  0  0
  -24.6040  -31.8670   23.2400 C   0  0  0  0  0  0  0  0  0  0  0  0
  -27.2150  -27.4140   20.1020 C   0  0  0  0  0  0  0  0  0  0  0  0
  -23.3870  -30.4830   21.5960 C   0  0  0  0  0  3  0  0  0  0  0  0
  -24.8270  -28.9560   20.1540 C   0  0  0  0  0  0  0  0  0  0  0  0
  -25.9200  -30.8240   21.3920 C   0  0  0  0  0  2  0  0  0  0  0  0
  -25.9960  -29.4570   20.7380 C   0  0  0  0  0  0  0  0  0  0  0  0
  -27.1900  -28.6930   20.7140 C   0  0  0  0  0  3  0  0  0  0  0  0
  -26.0170  -26.9430   19.5070 C   0  0  0  0  0  3  0  0  0  0  0  0
  -24.8300  -27.6940   19.5430 C   0  0  0  0  0  3  0  0  0  0  0  0
  -23.5920  -29.8230   20.2080 C   0  0  0  0  0  2  0  0  0  0  0  0
  -24.6560  -31.0720   22.1340 N   0  0  0  0  0  0  0  0  0  0  0  0
  -23.5250  -32.1380   23.7830 O   0  0  0  0  0  0  0  0  0  0  0  0
  -22.7380  -29.4520   22.5480 C   0  0  0  0  0  0  0  0  0  0  0  0
  -21.4120  -29.2700   22.4230 N   0  0  0  0  0  0  0  0  0  0  0  0
  -23.4220  -28.8180   23.3560 O   0  0  0  0  0  0  0  0  0  0  0  0
  -20.9210  -29.8370   21.7470 H   0  0  0  0  0  0  0  0  0  0  0  0
  -18.0350  -28.0820   22.9310 C   0  0  0  0  0  0  0  0  0  0  0  0
  -20.5940  -28.3290   23.1900 C   0  0  0  0  0  3  0  0  0  0  0  0
  -20.6910  -26.9020   22.6030 C   0  0  0  0  0  2  0  0  0  0  0  0
  -19.5820  -26.5920   21.5930 C   0  0  0  0  0  2  0  0  0  0  0  0
  -18.2030  -26.7370   22.2450 C   0  0  0  0  0  2  0  0  0  0  0  0
  -19.1580  -28.8360   23.3610 C   0  0  0  0  0  0  0  0  0  0  0  0
  -18.9490  -30.0950   23.9630 C   0  0  0  0  0  3  0  0  0  0  0  0
  -17.6480  -30.6010   24.1420 C   0  0  0  0  0  3  0  0  0  0  0  0
  -16.5370  -29.8450   23.7290 C   0  0  0  0  0  3  0  0  0  0  0  0
  -16.7310  -28.5880   23.1280 C   0  0  0  0  0  3  0  0  0  0  0  0
  -25.8930  -32.4930   23.8570 C   0  0  0  0  0  3  0  0  0  0  0  0
  -25.5890  -33.8930   24.1850 N   0  0  0  0  0  0  0  0  0  0  0  0
  -25.9240  -34.9430   23.4230 C   0  0  0  0  0  0  0  0  0  0  0  0
  -26.5940  -34.8350   22.3910 O   0  0  0  0  0  0  0  0  0  0  0  0
  -24.9950  -34.0530   24.9850 H   0  0  0  0  0  0  0  0  0  0  0  0
  -24.2090  -36.7480   23.0540 C   0  0  0  0  0  1  0  0  0  0  0  0
  -25.4390  -36.3350   23.8760 C   0  0  0  0  0  3  0  0  0  0  0  0
  -27.5710  -37.2060   24.7260 C   0  0  0  0  0  1  0  0  0  0  0  0
  -26.4790  -37.3830   23.7730 N   0  0  0  0  0  0  0  0  0  0  0  0
  -26.0770  -38.3040   23.9210 H   0  0  0  0  0  0  0  0  0  0  0  0
  -26.4080  -31.7220   25.1320 C   0  0  1  0  0  0  0  0  0  0  0  0
  -25.3170  -31.4900   26.2030 C   0  0  0  0  0  1  0  0  0  0  0  0
  -26.9830  -30.3390   24.7440 C   0  0  0  0  0  1  0  0  0  0  0  0
  -27.5630  -32.5090   25.7940 C   0  0  0  0  0  1  0  0  0  0  0  0
  -29.4910  -20.7000   20.6600 C   0  0  0  0  0  3  0  0  0  0  0  0
  -30.4580  -19.5570   21.0730 C   0  0  0  0  0  0  0  0  0  0  0  0
  -30.0120  -18.2850   21.0320 N   0  0  0  0  0  0  0  0  0  0  0  0
  -31.6120  -19.8320   21.4100 O   0  0  0  0  0  0  0  0  0  0  0  0
  -29.0500  -18.1440   20.7480 H   0  0  0  0  0  0  0  0  0  0  0  0
  -30.8410  -17.0810   21.2540 C   0  0  0  0  0  2  0  0  0  0  0  0
  -30.0400  -15.7320   21.2650 C   0  0  0  0  0  2  0  0  0  0  0  0
  -30.7000  -14.5240   20.5390 C   0  0  0  0  0  0  0  0  0  0  0  0
  -30.3900  -12.3860   19.3290 C   0  0  0  0  0  2  0  0  0  0  0  0
  -29.4660  -12.6070   18.1170 C   0  0  0  0  0  2  0  0  0  0  0  0
  -27.9850  -12.4660   18.5230 C   0  0  0  0  0  2  0  0  0  0  0  0
  -27.6330  -13.2890   19.7920 C   0  0  0  0  0  3  0  0  0  0  0  0
  -28.6770  -13.0700   20.9110 C   0  0  0  0  0  2  0  0  0  0  0  0
  -30.0120  -13.3600   20.3670 N   0  0  0  0  0  0  0  0  0  0  0  0
  -31.8190  -14.6810   20.0450 O   0  0  0  0  0  0  0  0  0  0  0  0
  -25.2230  -13.8900   20.4660 C   0  0  0  0  0  0  0  0  0  0  0  0
  -24.1530  -13.1180   20.8280 C   0  0  0  0  0  0  0  0  0  0  0  0
  -24.6200  -11.7660   20.8170 C   0  0  0  0  0  0  0  0  0  0  0  0
  -26.2740  -13.0110   20.2550 N   0  0  0  0  0  0  0  0  0  0  0  0
  -25.9140  -11.7290   20.5250 N   0  0  0  0  0  0  0  0  0  0  0  0
  -23.8940  -10.5040   21.0070 C   0  0  0  0  0  0  0  0  0  0  0  0
  -24.3130   -9.5490   21.9590 C   0  0  0  0  0  3  0  0  0  0  0  0
  -23.5900   -8.3510   22.1400 C   0  0  0  0  0  3  0  0  0  0  0  0
  -22.4330   -8.0970   21.3660 C   0  0  0  0  0  0  0  0  0  0  0  0
  -22.0300   -9.0410   20.4040 C   0  0  0  0  0  3  0  0  0  0  0  0
  -22.7550  -10.2320   20.2230 C   0  0  0  0  0  3  0  0  0  0  0  0
  -21.6800   -6.9510   21.4560 O   0  0  0  0  0  0  0  0  0  0  0  0
  -21.6120   -6.2200   22.6150 C   0  0  0  0  0  0  0  0  0  0  0  0
  -21.1470   -6.7820   23.8230 C   0  0  0  0  0  3  0  0  0  0  0  0
  -21.0260   -5.9780   24.9740 C   0  0  0  0  0  3  0  0  0  0  0  0
  -21.3640   -4.6120   24.9160 C   0  0  0  0  0  0  0  0  0  0  0  0
  -21.8220   -4.0490   23.7140 C   0  0  0  0  0  3  0  0  0  0  0  0
  -21.9410   -4.8510   22.5660 C   0  0  0  0  0  0  0  0  0  0  0  0
  -22.3640   -4.2990   21.4030 F   0  0  0  0  0  0  0  0  0  0  0  0
  -21.2400   -3.8370   26.0200 F   0  0  0  0  0  0  0  0  0  0  0  0
  -22.7490  -13.5890   21.0760 C   0  0  0  0  0  0  0  0  0  0  0  0
  -22.0100  -12.8990   21.9360 N   0  0  0  0  0  0  0  0  0  0  0  0
  -22.3160  -14.6100   20.5410 O   0  0  0  0  0  0  0  0  0  0  0  0
  -22.3700  -12.0780   22.4000 H   0  0  0  0  0  0  0  0  0  0  0  0
  -21.0640  -13.1940   22.1360 H   0  0  0  0  0  0  0  0  0  0  0  0
  -25.3850  -15.2610   20.2810 N   0  0  0  0  0  0  0  0  0  0  0  0
  -24.6120  -15.9120   20.3730 H   0  0  0  0  0  0  0  0  0  0  0  0
  -26.2410  -15.6980   19.9650 H   0  0  0  0  0  0  0  0  0  0  0  0
  -30.2180  -20.6910   18.1480 C   0  0  0  0  0  1  0  0  0  0  0  0
  -29.0710  -20.5760   19.1710 C   0  0  0  0  0  2  0  0  0  0  0  0
  1  5  1  0
  1  3  1  0
  2  1  1  0
  5  4  1  0
  6  5  1  0
  7  6  1  0
  7  8  1  0
  9 20  2  0
 10  8  1  0
 10 15  1  0
 11 19  1  0
 11 21  1  0
 12 18  1  0
 12 14  1  0
 13 19  1  0
 14 13  1  0
 15 14  2  0
 16 17  1  0
 16 10  2  0
 17 12  2  0
 18 11  1  0
 19  9  1  0
 21 23  2  0
 22 21  1  0
 24 22  1  0
 25 34  2  0
 25 30  1  0
 26 22  1  0
 26 30  1  0
 27 26  1  0
 28 29  1  0
 28 27  1  0
 29 25  1  0
 30 31  2  0
 31 32  1  0
 33 32  2  0
 34 33  1  0
 35  9  1  0
 35 36  1  0
 35 45  1  0
 36 39  1  0
 37 41  1  0
 37 36  1  0
 38 37  2  0
 41 40  1  0
 43 41  1  0
 43 44  1  0
 43 42  1  0
 45 48  1  1
 45 46  1  0
 47 45  1  0
 49 93  1  0
 49  1  1  0
 49 50  1  0
 50 52  2  0
 51 50  1  0
 51 54  1  0
 53 51  1  0
 54 55  1  0
 56 55  1  0
 57 62  1  0
 58 59  1  0
 58 57  1  0
 60 59  1  0
 60 67  1  0
 60 61  1  0
 62 56  1  0
 62 61  1  0
 63 56  2  0
 64 65  2  0
 65 84  1  0
 66 65  1  0
 66 69  1  0
 67 64  1  0
 67 68  1  0
 68 66  2  0
 69 70  1  0
 70 71  2  0
 72 75  1  0
 72 71  1  0
 73 72  2  0
 74 73  1  0
 74 69  2  0
 75 76  1  0
 76 77  1  0
 77 78  2  0
 79 78  1  0
 79 83  1  0
 80 79  2  0
 81 76  2  0
 81 80  1  0
 82 81  1  0
 84 85  1  0
 85 88  1  0
 85 87  1  0
 86 84  2  0
 89 90  1  0
 89 64  1  0
 91 89  1  0
 92 93  1  0
M  ISO  4   7 101   8 101  55 100  56 100
M  END
>  <TORSDO>  (43) 
F 24

>  <SCORE>  (43) 
-12.630

>  <name>  (43) 
42

>  <ligand_id>  (43) 
42

>  <original_smiles>  (43) 
[H]c1c([H])c([H])c2c(c1[H])C([H])([H])C([H])([H])C([H])([H])C2([H])N([H])C(=O)C1([H])N(C(=O)C([H])(N([H])C(=O)C([H])(N([H])C([H])([H])[H])C([H])([H])[H])C(C([H])([H])[H])(C([H])([H])[H])C([H])([H])[H])C([H])([H])c2c([H])c(OC([H])([H])C([H])([H])C([H])(C([H])([H])[H])[N+]([H])([H])C([H])(C(=O)N([H])C([H])([H])C([H])([H])C(=O)N3C([H])([H])C([H])([H])C([H])([H])C([H])(n4nc(-c5c([H])c([H])c(Oc6c([H])c([H])c(F)c([H])c6F)c([H])c5[H])c(C(=O)N([H])[H])c4N([H])[H])C3([H])[H])C([H])([H])C([H])([H])[H])c([H])c([H])c2C1([H])[H]

>  <smiles>  (43) 
[H]c1c([H])c([H])c2c(c1[H])C([H])([H])C([H])([H])C([H])([H])C2([H])N([H])C(=O)C1([H])N(C(=O)C([H])(N([H])C(=O)C([H])(N([H])C([H])([H])[H])C([H])([H])[H])C(C([H])([H])[H])(C([H])([H])[H])C([H])([H])[H])C([H])([H])c2c([H])c(OC([H])([H])C([H])([H])C([H])(C([H])([H])[H])[N+]([H])([H])C([H])(C(=O)N([H])C([H])([H])C([H])([H])C(=O)N3C([H])([H])C([H])([H])C([H])([H])C([H])(n4nc(-c5c([H])c([H])c(Oc6c([H])c([H])c(F)c([H])c6F)c([H])c5[H])c(C(=O)N([H])[H])c4N([H])[H])C3([H])[H])C([H])([H])C([H])([H])[H])c([H])c([H])c2C1([H])[H]

$$$$
43:0:0
     RDKit          3D

 90 97  0  0  1  0  0  0  0  0999 V2000
  -30.2220  -22.8910   20.5380 C   0  0  0  0  0  2  0  0  0  0  0  0
  -29.5090  -20.5190   20.9640 C   0  0  0  0  0  0  0  0  0  0  0  0
  -30.3150  -21.5700   21.1660 N   0  0  0  0  0  0  0  0  0  0  0  0
  -28.3550  -20.6320   20.5450 O   0  0  0  0  0  0  0  0  0  0  0  0
  -31.2220  -21.3480   21.5590 H   0  0  0  0  0  0  0  0  0  0  0  0
  -29.7010  -18.0610   20.8660 C   0  0  0  0  0  3  0  0  0  0  0  0
  -30.2310  -19.2690   21.1640 C   0  0  0  0  0  3  0  0  0  0  0  0
  -29.8830  -15.6960   20.3670 C   0  0  0  0  0  3  0  0  0  0  0  0
  -30.4660  -16.8100   20.8860 C   0  0  0  0  0  0  0  0  0  0  0  0
  -31.8960  -16.8200   21.4290 C   0  0  0  0  0  1  0  0  0  0  0  0
  -30.6170  -14.4760   20.0090 C   0  0  0  0  0  0  0  0  0  0  0  0
  -30.2000  -12.3060   18.9270 C   0  0  0  0  0  2  0  0  0  0  0  0
  -29.1970  -12.5080   17.7730 C   0  0  0  0  0  2  0  0  0  0  0  0
  -27.7520  -12.3690   18.2910 C   0  0  0  0  0  2  0  0  0  0  0  0
  -27.4850  -13.2240   19.5590 C   0  0  0  0  0  3  0  0  0  0  0  0
  -28.6110  -13.0540   20.6060 C   0  0  0  0  0  2  0  0  0  0  0  0
  -29.8980  -13.3200   19.9500 N   0  0  0  0  0  0  0  0  0  0  0  0
  -31.7470  -14.5480   19.5210 O   0  0  0  0  0  0  0  0  0  0  0  0
  -25.1510  -13.8270   20.4520 C   0  0  0  0  0  0  0  0  0  0  0  0
  -24.1070  -13.0510   20.8780 C   0  0  0  0  0  0  0  0  0  0  0  0
  -24.5580  -11.6990   20.7920 C   0  0  0  0  0  0  0  0  0  0  0  0
  -26.1710  -12.9450   20.1300 N   0  0  0  0  0  0  0  0  0  0  0  0
  -25.8240  -11.6590   20.3960 N   0  0  0  0  0  0  0  0  0  0  0  0
  -23.8400  -10.4360   21.0090 C   0  0  0  0  0  0  0  0  0  0  0  0
  -24.3180   -9.4600   21.9100 C   0  0  0  0  0  3  0  0  0  0  0  0
  -23.6000   -8.2620   22.1150 C   0  0  0  0  0  3  0  0  0  0  0  0
  -22.3910   -8.0310   21.4170 C   0  0  0  0  0  0  0  0  0  0  0  0
  -21.9320   -8.9970   20.5030 C   0  0  0  0  0  3  0  0  0  0  0  0
  -22.6500  -10.1860   20.2980 C   0  0  0  0  0  3  0  0  0  0  0  0
  -21.6410   -6.8870   21.5320 O   0  0  0  0  0  0  0  0  0  0  0  0
  -21.6380   -6.1390   22.6820 C   0  0  0  0  0  0  0  0  0  0  0  0
  -21.2710   -6.6920   23.9290 C   0  0  0  0  0  3  0  0  0  0  0  0
  -21.2150   -5.8720   25.0730 C   0  0  0  0  0  3  0  0  0  0  0  0
  -21.5170   -4.5010   24.9740 C   0  0  0  0  0  0  0  0  0  0  0  0
  -21.8790   -3.9480   23.7330 C   0  0  0  0  0  3  0  0  0  0  0  0
  -21.9360   -4.7650   22.5900 C   0  0  0  0  0  0  0  0  0  0  0  0
  -22.2650   -4.2230   21.3930 F   0  0  0  0  0  0  0  0  0  0  0  0
  -21.4560   -3.7110   26.0710 F   0  0  0  0  0  0  0  0  0  0  0  0
  -22.7340  -13.5290   21.2520 C   0  0  0  0  0  0  0  0  0  0  0  0
  -22.0610  -12.8200   22.1500 N   0  0  0  0  0  0  0  0  0  0  0  0
  -22.2690  -14.5690   20.7830 O   0  0  0  0  0  0  0  0  0  0  0  0
  -22.4500  -11.9780   22.5500 H   0  0  0  0  0  0  0  0  0  0  0  0
  -21.1430  -13.1230   22.4440 H   0  0  0  0  0  0  0  0  0  0  0  0
  -25.3100  -15.2000   20.2900 N   0  0  0  0  0  0  0  0  0  0  0  0
  -24.5560  -15.8540   20.4690 H   0  0  0  0  0  0  0  0  0  0  0  0
  -26.1400  -15.6450   19.9190 H   0  0  0  0  0  0  0  0  0  0  0  0
  -29.5490  -23.9850   21.3940 C   0  0  0  0  0  2  0  0  0  0  0  0
  -30.1410  -25.3870   21.1010 C   0  0  0  0  0  2  0  0  0  0  0  0
  -29.1760  -26.5740   21.2860 C   0  0  0  0  0  2  0  0  0  0  0  0
  -28.3790  -26.6570   20.1130 O   0  0  0  0  0  0  0  0  0  0  0  0
  -24.5410  -31.8650   23.1830 C   0  0  0  0  0  0  0  0  0  0  0  0
  -27.2510  -27.4420   20.1570 C   0  0  0  0  0  0  0  0  0  0  0  0
  -23.3670  -30.4610   21.5160 C   0  0  0  0  0  3  0  0  0  0  0  0
  -24.8520  -28.9280   20.1200 C   0  0  0  0  0  0  0  0  0  0  0  0
  -25.8920  -30.8290   21.3660 C   0  0  0  0  0  2  0  0  0  0  0  0
  -25.9930  -29.4560   20.7380 C   0  0  0  0  0  0  0  0  0  0  0  0
  -27.1960  -28.7150   20.7680 C   0  0  0  0  0  3  0  0  0  0  0  0
  -26.1010  -26.9310   19.5250 C   0  0  0  0  0  3  0  0  0  0  0  0
  -24.8980  -27.6620   19.5130 C   0  0  0  0  0  3  0  0  0  0  0  0
  -23.6030  -29.7830   20.1410 C   0  0  0  0  0  2  0  0  0  0  0  0
  -24.6160  -31.0680   22.0800 N   0  0  0  0  0  0  0  0  0  0  0  0
  -23.4500  -32.1340   23.7040 O   0  0  0  0  0  0  0  0  0  0  0  0
  -22.7020  -29.4370   22.4640 C   0  0  0  0  0  0  0  0  0  0  0  0
  -21.3790  -29.2560   22.3150 N   0  0  0  0  0  0  0  0  0  0  0  0
  -23.3730  -28.8090   23.2860 O   0  0  0  0  0  0  0  0  0  0  0  0
  -20.9000  -29.8160   21.6240 H   0  0  0  0  0  0  0  0  0  0  0  0
  -17.9940  -28.0770   22.7640 C   0  0  0  0  0  0  0  0  0  0  0  0
  -20.5490  -28.3190   23.0700 C   0  0  0  0  0  3  0  0  0  0  0  0
  -20.6520  -26.8910   22.4870 C   0  0  0  0  0  2  0  0  0  0  0  0
  -19.5620  -26.5800   21.4570 C   0  0  0  0  0  2  0  0  0  0  0  0
  -18.1730  -26.7290   22.0840 C   0  0  0  0  0  2  0  0  0  0  0  0
  -19.1120  -28.8300   23.2120 C   0  0  0  0  0  0  0  0  0  0  0  0
  -18.8920  -30.0930   23.8060 C   0  0  0  0  0  3  0  0  0  0  0  0
  -17.5890  -30.6010   23.9560 C   0  0  0  0  0  3  0  0  0  0  0  0
  -16.4850  -29.8440   23.5250 C   0  0  0  0  0  3  0  0  0  0  0  0
  -16.6890  -28.5830   22.9340 C   0  0  0  0  0  3  0  0  0  0  0  0
  -25.8160  -32.4960   23.8250 C   0  0  0  0  0  3  0  0  0  0  0  0
  -25.4990  -33.8910   24.1550 N   0  0  0  0  0  0  0  0  0  0  0  0
  -25.8440  -34.9470   23.4070 C   0  0  0  0  0  0  0  0  0  0  0  0
  -26.5340  -34.8490   22.3880 O   0  0  0  0  0  0  0  0  0  0  0  0
  -24.8910  -34.0420   24.9460 H   0  0  0  0  0  0  0  0  0  0  0  0
  -24.1210  -36.7370   23.0220 C   0  0  0  0  0  1  0  0  0  0  0  0
  -25.3450  -36.3310   23.8580 C   0  0  0  0  0  3  0  0  0  0  0  0
  -27.4620  -37.2140   24.7370 C   0  0  0  0  0  1  0  0  0  0  0  0
  -26.3780  -37.3870   23.7730 N   0  0  0  0  0  0  0  0  0  0  0  0
  -25.9680  -38.3060   23.9190 H   0  0  0  0  0  0  0  0  0  0  0  0
  -26.3200  -31.7170   25.1000 C   0  0  1  0  0  0  0  0  0  0  0  0
  -25.2160  -31.4670   26.1530 C   0  0  0  0  0  1  0  0  0  0  0  0
  -26.9140  -30.3450   24.7030 C   0  0  0  0  0  1  0  0  0  0  0  0
  -27.4600  -32.5120   25.7820 C   0  0  0  0  0  1  0  0  0  0  0  0
  1  3  1  0
  1 47  1  0
  2  7  1  0
  2  3  1  0
  3  5  1  0
  4  2  2  0
  6  9  1  0
  6  7  2  0
  8  9  2  0
  9 10  1  0
 11  8  1  0
 12 17  1  0
 13 14  1  0
 13 12  1  0
 15 14  1  0
 15 22  1  0
 15 16  1  0
 17 11  1  0
 17 16  1  0
 18 11  2  0
 19 20  2  0
 20 39  1  0
 21 20  1  0
 21 24  1  0
 22 23  1  0
 22 19  1  0
 23 21  2  0
 24 25  1  0
 25 26  2  0
 27 30  1  0
 27 26  1  0
 28 27  2  0
 29 28  1  0
 29 24  2  0
 30 31  1  0
 31 32  1  0
 32 33  2  0
 34 33  1  0
 34 38  1  0
 35 34  2  0
 36 31  2  0
 36 35  1  0
 37 36  1  0
 39 40  1  0
 40 43  1  0
 40 42  1  0
 41 39  2  0
 44 19  1  0
 44 45  1  0
 46 44  1  0
 48 49  1  0
 48 47  1  0
 50 52  1  0
 50 49  1  0
 51 62  2  0
 52 57  1  0
 53 61  1  0
 53 63  1  0
 54 60  1  0
 54 56  1  0
 55 61  1  0
 56 57  2  0
 56 55  1  0
 58 52  2  0
 59 58  1  0
 59 54  2  0
 60 53  1  0
 61 51  1  0
 63 65  2  0
 64 63  1  0
 66 64  1  0
 67 76  2  0
 67 72  1  0
 68 64  1  0
 68 72  1  0
 69 68  1  0
 70 71  1  0
 70 69  1  0
 71 67  1  0
 72 73  2  0
 73 74  1  0
 75 74  2  0
 76 75  1  0
 77 51  1  0
 77 78  1  0
 77 87  1  0
 78 81  1  0
 79 83  1  0
 79 78  1  0
 80 79  2  0
 83 82  1  0
 85 83  1  0
 85 86  1  0
 85 84  1  0
 87 90  1  1
 87 88  1  0
 89 87  1  0
M  ISO  4   8 100  11 100  49 101  50 101
M  END
>  <TORSDO>  (44) 
F 22

>  <SCORE>  (44) 
-12.692

>  <name>  (44) 
43

>  <ligand_id>  (44) 
43

>  <original_smiles>  (44) 
[H]C(C(=O)N([H])C([H])([H])C([H])([H])C([H])([H])C([H])([H])Oc1c([H])c([H])c2c(c1[H])C([H])([H])N(C(=O)C([H])(N([H])C(=O)C([H])(N([H])C([H])([H])[H])C([H])([H])[H])C(C([H])([H])[H])(C([H])([H])[H])C([H])([H])[H])C([H])(C(=O)N([H])C1([H])c3c([H])c([H])c([H])c([H])c3C([H])([H])C([H])([H])C1([H])[H])C2([H])[H])=C([H])C(=C([H])C(=O)N1C([H])([H])C([H])([H])C([H])([H])C([H])(n2nc(-c3c([H])c([H])c(Oc4c([H])c([H])c(F)c([H])c4F)c([H])c3[H])c(C(=O)N([H])[H])c2N([H])[H])C1([H])[H])C([H])([H])[H]

>  <smiles>  (44) 
[H]C(C(=O)N([H])C([H])([H])C([H])([H])C([H])([H])C([H])([H])Oc1c([H])c([H])c2c(c1[H])C([H])([H])N(C(=O)C([H])(N([H])C(=O)C([H])(N([H])C([H])([H])[H])C([H])([H])[H])C(C([H])([H])[H])(C([H])([H])[H])C([H])([H])[H])C([H])(C(=O)N([H])C1([H])c3c([H])c([H])c([H])c([H])c3C([H])([H])C([H])([H])C1([H])[H])C2([H])[H])=C([H])C(=C([H])C(=O)N1C([H])([H])C([H])([H])C([H])([H])C([H])(n2nc(-c3c([H])c([H])c(Oc4c([H])c([H])c(F)c([H])c4F)c([H])c3[H])c(C(=O)N([H])[H])c2N([H])[H])C1([H])[H])C([H])([H])[H]

$$$$
44:0:0
     RDKit          3D

 93102  0  0  1  0  0  0  0  0999 V2000
  -28.5070  -19.1700   18.2050 C   0  0  0  0  0  1  0  0  0  0  0  0
  -28.8790  -19.3370   19.6990 C   0  0  0  0  0  3  0  0  0  0  0  0
  -30.5330  -18.6300   23.8170 C   0  0  0  0  0  2  0  0  0  0  0  0
  -28.6950  -18.1750   21.8230 C   0  0  0  0  0  2  0  0  0  0  0  0
  -32.0370  -18.1940   23.6600 C   0  0  0  0  0  2  0  0  0  0  0  0
  -30.1600  -16.6820   20.6560 C   0  0  0  0  0  3  0  0  0  0  0  0
  -30.0900  -18.3500   22.3880 C   0  0  0  0  0  3  0  0  0  0  0  0
  -30.7480  -17.0260   22.0750 C   0  0  0  0  0  3  0  0  0  0  0  0
  -29.0770  -17.9170   20.4000 N   0  0  0  0  0  0  0  0  0  0  0  0
  -32.1440  -17.3700   22.3950 N   0  0  0  0  0  4  0  0  0  0  0  0
  -32.7220  -16.5500   22.5140 H   0  0  0  0  0  0  0  0  0  0  0  0
  -32.5330  -17.9340   21.6540 H   0  0  0  0  0  0  0  0  0  0  0  0
  -30.7200  -15.2190   19.9350 C   0  0  0  0  0  0  0  0  0  0  0  0
  -30.5430  -12.8310   18.9540 C   0  0  0  0  0  2  0  0  0  0  0  0
  -29.5800  -12.7800   17.7320 C   0  0  0  0  0  2  0  0  0  0  0  0
  -28.1230  -12.5530   18.1940 C   0  0  0  0  0  2  0  0  0  0  0  0
  -27.7490  -13.4730   19.3840 C   0  0  0  0  0  3  0  0  0  0  0  0
  -28.8350  -13.5210   20.4850 C   0  0  0  0  0  2  0  0  0  0  0  0
  -30.1010  -13.9440   19.8640 N   0  0  0  0  0  0  0  0  0  0  0  0
  -31.8650  -15.2210   19.4610 O   0  0  0  0  0  0  0  0  0  0  0  0
  -25.4180  -14.0970   20.1990 C   0  0  0  0  0  0  0  0  0  0  0  0
  -24.3570  -13.3530   20.6170 C   0  0  0  0  0  0  0  0  0  0  0  0
  -24.7860  -11.9900   20.5860 C   0  0  0  0  0  0  0  0  0  0  0  0
  -26.4300  -13.1960   19.9250 N   0  0  0  0  0  0  0  0  0  0  0  0
  -26.0600  -11.9230   20.2240 N   0  0  0  0  0  0  0  0  0  0  0  0
  -24.0400  -10.7480   20.8200 C   0  0  0  0  0  0  0  0  0  0  0  0
  -24.4570   -9.8130   21.7930 C   0  0  0  0  0  3  0  0  0  0  0  0
  -23.7120   -8.6400   22.0240 C   0  0  0  0  0  3  0  0  0  0  0  0
  -22.5310   -8.3950   21.2820 C   0  0  0  0  0  0  0  0  0  0  0  0
  -22.1320   -9.3120   20.2940 C   0  0  0  0  0  3  0  0  0  0  0  0
  -22.8800  -10.4770   20.0620 C   0  0  0  0  0  3  0  0  0  0  0  0
  -21.7610   -7.2680   21.4160 O   0  0  0  0  0  0  0  0  0  0  0  0
  -21.6660   -6.6070   22.6150 C   0  0  0  0  0  0  0  0  0  0  0  0
  -21.2350   -7.2480   23.7960 C   0  0  0  0  0  3  0  0  0  0  0  0
  -21.0870   -6.5080   24.9840 C   0  0  0  0  0  3  0  0  0  0  0  0
  -21.3580   -5.1270   24.9960 C   0  0  0  0  0  0  0  0  0  0  0  0
  -21.7920   -4.4860   23.8220 C   0  0  0  0  0  3  0  0  0  0  0  0
  -21.9390   -5.2250   22.6300 C   0  0  0  0  0  0  0  0  0  0  0  0
  -22.3320   -4.5960   21.5000 F   0  0  0  0  0  0  0  0  0  0  0  0
  -21.2080   -4.4150   26.1380 F   0  0  0  0  0  0  0  0  0  0  0  0
  -22.9760  -13.8570   20.9160 C   0  0  0  0  0  0  0  0  0  0  0  0
  -22.2590  -13.2080   21.8250 N   0  0  0  0  0  0  0  0  0  0  0  0
  -22.5280  -14.8660   20.3730 O   0  0  0  0  0  0  0  0  0  0  0  0
  -22.6210  -12.4010   22.3140 H   0  0  0  0  0  0  0  0  0  0  0  0
  -21.3470  -13.5510   22.0880 H   0  0  0  0  0  0  0  0  0  0  0  0
  -25.6150  -15.4650   20.0400 N   0  0  0  0  0  0  0  0  0  0  0  0
  -24.8840  -16.1310   20.2710 H   0  0  0  0  0  0  0  0  0  0  0  0
  -26.5360  -15.8720   19.9510 H   0  0  0  0  0  0  0  0  0  0  0  0
  -29.5040  -22.1510   20.0460 C   0  0  0  0  0  3  0  0  0  0  0  0
  -29.6890  -20.7400   19.8920 C   0  0  0  0  0  3  0  0  0  0  0  0
  -28.3870  -23.3360   20.2540 C   0  0  0  0  0  2  0  0  0  0  0  0
  -28.3950  -24.8110   19.4360 C   0  0  0  0  0  2  0  0  0  0  0  0
  -28.2750  -26.2640   19.9820 O   0  0  0  0  0  0  0  0  0  0  0  0
  -24.5090  -31.7680   23.0300 C   0  0  0  0  0  0  0  0  0  0  0  0
  -27.1640  -27.1770   19.8930 C   0  0  0  0  0  0  0  0  0  0  0  0
  -23.3240  -30.3690   21.3750 C   0  0  0  0  0  3  0  0  0  0  0  0
  -24.7920  -28.8460   19.9120 C   0  0  0  0  0  0  0  0  0  0  0  0
  -25.8640  -30.7150   21.1760 C   0  0  0  0  0  2  0  0  0  0  0  0
  -25.9620  -29.3290   20.5080 C   0  0  0  0  0  0  0  0  0  0  0  0
  -27.1440  -28.5080   20.4850 C   0  0  0  0  0  3  0  0  0  0  0  0
  -25.9700  -26.7940   19.2510 C   0  0  0  0  0  3  0  0  0  0  0  0
  -24.8080  -27.5940   19.2650 C   0  0  0  0  0  3  0  0  0  0  0  0
  -23.5450  -29.7070   19.9870 C   0  0  0  0  0  2  0  0  0  0  0  0
  -24.5890  -30.9790   21.9130 N   0  0  0  0  0  0  0  0  0  0  0  0
  -23.4200  -32.0180   23.5840 O   0  0  0  0  0  0  0  0  0  0  0  0
  -22.6690  -29.3450   22.3400 C   0  0  0  0  0  0  0  0  0  0  0  0
  -21.3320  -29.1730   22.2320 N   0  0  0  0  0  0  0  0  0  0  0  0
  -23.3630  -28.7130   23.1370 O   0  0  0  0  0  0  0  0  0  0  0  0
  -20.8280  -29.7940   21.6170 H   0  0  0  0  0  0  0  0  0  0  0  0
  -17.9650  -27.9010   22.8030 C   0  0  0  0  0  0  0  0  0  0  0  0
  -20.5230  -28.2070   23.0020 C   0  0  0  0  0  3  0  0  0  0  0  0
  -20.6090  -26.7730   22.4160 C   0  0  0  0  0  2  0  0  0  0  0  0
  -19.5010  -26.4780   21.4010 C   0  0  0  0  0  2  0  0  0  0  0  0
  -18.1510  -26.5640   22.1010 C   0  0  0  0  0  2  0  0  0  0  0  0
  -19.0850  -28.6810   23.2160 C   0  0  0  0  0  0  0  0  0  0  0  0
  -18.8620  -29.9180   23.8490 C   0  0  0  0  0  3  0  0  0  0  0  0
  -17.5550  -30.3770   24.0900 C   0  0  0  0  0  3  0  0  0  0  0  0
  -16.4530  -29.6160   23.6650 C   0  0  0  0  0  3  0  0  0  0  0  0
  -16.6630  -28.3770   23.0150 C   0  0  0  0  0  3  0  0  0  0  0  0
  -25.7780  -32.4130   23.6650 C   0  0  0  0  0  3  0  0  0  0  0  0
  -26.3320  -31.6230   24.9100 C   0  0  1  0  0  0  0  0  0  0  0  0
  -25.2700  -31.3270   25.9920 C   0  0  0  0  0  1  0  0  0  0  0  0
  -26.9260  -30.2640   24.4700 C   0  0  0  0  0  1  0  0  0  0  0  0
  -27.4820  -32.4210   25.5690 C   0  0  0  0  0  1  0  0  0  0  0  0
  -25.4330  -33.7910   24.0570 N   0  0  0  0  0  0  0  0  0  0  0  0
  -25.7300  -34.8780   23.3300 C   0  0  0  0  0  0  0  0  0  0  0  0
  -26.3700  -34.8280   22.2830 O   0  0  0  0  0  0  0  0  0  0  0  0
  -24.8350  -33.9090   24.8590 H   0  0  0  0  0  0  0  0  0  0  0  0
  -23.9410  -36.6430   23.0680 C   0  0  0  0  0  1  0  0  0  0  0  0
  -25.2100  -36.2420   23.8390 C   0  0  0  0  0  3  0  0  0  0  0  0
  -27.3400  -37.1430   24.6580 C   0  0  0  0  0  1  0  0  0  0  0  0
  -26.2160  -37.3200   23.7440 N   0  0  0  0  0  0  0  0  0  0  0  0
  -25.7940  -38.2250   23.9310 H   0  0  0  0  0  0  0  0  0  0  0  0
  2  1  1  0
  2 50  1  0
  2  9  1  0
  5  3  1  0
  6 13  1  0
  6  8  1  0
  7  4  1  0
  7  3  1  0
  8  7  1  0
  8 10  1  0
  9  6  1  0
  9  4  1  0
 10 11  1  0
 10  5  1  0
 12 10  1  0
 14 19  1  0
 15 16  1  0
 15 14  1  0
 17 16  1  0
 17 24  1  0
 17 18  1  0
 19 13  1  0
 19 18  1  0
 20 13  2  0
 21 22  2  0
 22 41  1  0
 23 22  1  0
 23 26  1  0
 24 21  1  0
 24 25  1  0
 25 23  2  0
 26 27  1  0
 27 28  2  0
 29 32  1  0
 29 28  1  0
 30 29  2  0
 31 30  1  0
 31 26  2  0
 32 33  1  0
 33 38  2  0
 33 34  1  0
 34 35  2  0
 35 36  1  0
 36 40  1  0
 37 36  2  0
 38 37  1  0
 39 38  1  0
 41 42  1  0
 42 45  1  0
 42 44  1  0
 43 41  2  0
 46 21  1  0
 46 47  1  0
 48 46  1  0
 49 51  1  0
 50 49  2  0
 52 53  1  0
 52 51  1  0
 54 65  2  0
 55 53  1  0
 55 60  1  0
 56 64  1  0
 56 66  1  0
 57 63  1  0
 57 59  1  0
 58 64  1  0
 59 58  1  0
 60 59  2  0
 61 62  1  0
 61 55  2  0
 62 57  2  0
 63 56  1  0
 64 54  1  0
 66 68  2  0
 67 66  1  0
 69 67  1  0
 70 79  2  0
 70 75  1  0
 71 67  1  0
 71 75  1  0
 72 71  1  0
 73 74  1  0
 73 72  1  0
 74 70  1  0
 75 76  2  0
 76 77  1  0
 78 77  2  0
 79 78  1  0
 80 54  1  0
 80 85  1  0
 80 81  1  0
 81 84  1  1
 81 82  1  0
 83 81  1  0
 85 88  1  0
 86 90  1  0
 86 85  1  0
 87 86  2  0
 90 89  1  0
 92 90  1  0
 92 93  1  0
 92 91  1  0
M  ISO  4   6 100  13 100  52 101  53 101
M  END
>  <TORSDO>  (45) 
F 20

>  <SCORE>  (45) 
-7.480

>  <name>  (45) 
44

>  <ligand_id>  (45) 
44

>  <original_smiles>  (45) 
[H]C(=C([H])C([H])(N1C([H])([H])C2([H])C([H])([H])C([H])([H])[N+]([H])([H])C2([H])C1([H])C(=O)N1C([H])([H])C([H])([H])C([H])([H])C([H])(n2nc(-c3c([H])c([H])c(Oc4c([H])c([H])c(F)c([H])c4F)c([H])c3[H])c(C(=O)N([H])[H])c2N([H])[H])C1([H])[H])C([H])([H])[H])C([H])([H])C([H])([H])Oc1c([H])c([H])c2c(c1[H])C([H])([H])N(C(=O)C([H])(N([H])C(=O)C([H])(N([H])C([H])([H])[H])C([H])([H])[H])C(C([H])([H])[H])(C([H])([H])[H])C([H])([H])[H])C([H])(C(=O)N([H])C1([H])c3c([H])c([H])c([H])c([H])c3C([H])([H])C([H])([H])C1([H])[H])C2([H])[H]

>  <smiles>  (45) 
[H]C(=C([H])C([H])(N1C([H])([H])C2([H])C([H])([H])C([H])([H])[N+]([H])([H])C2([H])C1([H])C(=O)N1C([H])([H])C([H])([H])C([H])([H])C([H])(n2nc(-c3c([H])c([H])c(Oc4c([H])c([H])c(F)c([H])c4F)c([H])c3[H])c(C(=O)N([H])[H])c2N([H])[H])C1([H])[H])C([H])([H])[H])C([H])([H])C([H])([H])Oc1c([H])c([H])c2c(c1[H])C([H])([H])N(C(=O)C([H])(N([H])C(=O)C([H])(N([H])C([H])([H])[H])C([H])([H])[H])C(C([H])([H])[H])(C([H])([H])[H])C([H])([H])[H])C([H])(C(=O)N([H])C1([H])c3c([H])c([H])c([H])c([H])c3C([H])([H])C([H])([H])C1([H])[H])C2([H])[H]

$$$$
45:0:0
     RDKit          3D

 90 98  0  0  1  0  0  0  0  0999 V2000
  -29.8450  -23.4620   19.2880 C   0  0  0  0  0  0  0  0  0  0  0  0
  -29.8730  -24.1520   17.9420 C   0  0  0  0  0  1  0  0  0  0  0  0
  -30.1060  -22.2040   19.2940 N   0  0  0  0  0  0  0  0  0  0  0  0
  -31.7840  -21.0670   20.6400 C   0  0  0  0  0  2  0  0  0  0  0  0
  -30.8210  -19.9880   20.1920 C   0  0  0  0  0  3  0  0  0  0  0  0
  -30.3220  -21.4090   20.4930 C   0  0  0  0  0  3  0  0  0  0  0  0
  -30.8290  -17.5030   20.8100 C   0  0  0  0  0  3  0  0  0  0  0  0
  -30.6490  -18.8140   21.1080 C   0  0  0  0  0  3  0  0  0  0  0  0
  -30.7970  -15.0850   21.5000 C   0  0  0  0  0  3  0  0  0  0  0  0
  -30.7290  -16.4130   21.7930 C   0  0  0  0  0  0  0  0  0  0  0  0
  -30.5600  -16.7730   23.2640 C   0  0  0  0  0  1  0  0  0  0  0  0
  -31.0320  -14.4580   20.2020 C   0  0  0  0  0  0  0  0  0  0  0  0
  -30.5070  -12.4640   18.8210 C   0  0  0  0  0  2  0  0  0  0  0  0
  -29.4860  -12.7720   17.7090 C   0  0  0  0  0  2  0  0  0  0  0  0
  -28.0430  -12.6510   18.2370 C   0  0  0  0  0  2  0  0  0  0  0  0
  -27.8340  -13.4130   19.5710 C   0  0  0  0  0  3  0  0  0  0  0  0
  -28.9480  -13.0670   20.5830 C   0  0  0  0  0  2  0  0  0  0  0  0
  -30.2520  -13.3640   19.9570 N   0  0  0  0  0  0  0  0  0  0  0  0
  -31.9550  -14.7870   19.4500 O   0  0  0  0  0  0  0  0  0  0  0  0
  -25.4950  -14.0720   20.4330 C   0  0  0  0  0  0  0  0  0  0  0  0
  -24.4300  -13.3210   20.8540 C   0  0  0  0  0  0  0  0  0  0  0  0
  -24.8470  -11.9600   20.7610 C   0  0  0  0  0  0  0  0  0  0  0  0
  -26.5010  -13.1680   20.1220 N   0  0  0  0  0  0  0  0  0  0  0  0
  -26.1130  -11.8900   20.3700 N   0  0  0  0  0  0  0  0  0  0  0  0
  -24.0950  -10.7150   20.9670 C   0  0  0  0  0  0  0  0  0  0  0  0
  -24.5270   -9.7400   21.8920 C   0  0  0  0  0  3  0  0  0  0  0  0
  -23.7800   -8.5570   22.0860 C   0  0  0  0  0  3  0  0  0  0  0  0
  -22.5880   -8.3430   21.3520 C   0  0  0  0  0  0  0  0  0  0  0  0
  -22.1750   -9.3080   20.4170 C   0  0  0  0  0  3  0  0  0  0  0  0
  -22.9220  -10.4820   20.2220 C   0  0  0  0  0  3  0  0  0  0  0  0
  -21.8090   -7.2160   21.4570 O   0  0  0  0  0  0  0  0  0  0  0  0
  -21.7230   -6.5050   22.6290 C   0  0  0  0  0  0  0  0  0  0  0  0
  -21.2810   -7.1010   23.8310 C   0  0  0  0  0  3  0  0  0  0  0  0
  -21.1410   -6.3180   24.9930 C   0  0  0  0  0  3  0  0  0  0  0  0
  -21.4320   -4.9410   24.9550 C   0  0  0  0  0  0  0  0  0  0  0  0
  -21.8670   -4.3450   23.7580 C   0  0  0  0  0  3  0  0  0  0  0  0
  -22.0090   -5.1260   22.5980 C   0  0  0  0  0  0  0  0  0  0  0  0
  -22.4080   -4.5420   21.4410 F   0  0  0  0  0  0  0  0  0  0  0  0
  -21.2900   -4.1870   26.0700 F   0  0  0  0  0  0  0  0  0  0  0  0
  -23.0680  -13.8310   21.2280 C   0  0  0  0  0  0  0  0  0  0  0  0
  -22.3950  -13.1630   22.1560 N   0  0  0  0  0  0  0  0  0  0  0  0
  -22.6120  -14.8610   20.7340 O   0  0  0  0  0  0  0  0  0  0  0  0
  -22.7790  -12.3330   22.5840 H   0  0  0  0  0  0  0  0  0  0  0  0
  -21.4840  -13.4880   22.4460 H   0  0  0  0  0  0  0  0  0  0  0  0
  -25.6850  -15.4410   20.2700 N   0  0  0  0  0  0  0  0  0  0  0  0
  -24.9420  -16.1120   20.4310 H   0  0  0  0  0  0  0  0  0  0  0  0
  -26.5210  -15.8620   19.8810 H   0  0  0  0  0  0  0  0  0  0  0  0
  -29.5420  -24.4060   20.4730 C   0  0  0  0  0  2  0  0  0  0  0  0
  -28.2330  -25.2430   20.3120 C   0  0  0  0  0  2  0  0  0  0  0  0
  -28.4220  -26.6730   20.1730 O   0  0  0  0  0  0  0  0  0  0  0  0
  -24.5970  -31.8940   23.1980 C   0  0  0  0  0  0  0  0  0  0  0  0
  -27.2630  -27.4340   20.1360 C   0  0  0  0  0  0  0  0  0  0  0  0
  -23.4010  -30.4820   21.5600 C   0  0  0  0  0  3  0  0  0  0  0  0
  -24.8660  -28.9550   20.1380 C   0  0  0  0  0  0  0  0  0  0  0  0
  -25.9340  -30.8410   21.3790 C   0  0  0  0  0  2  0  0  0  0  0  0
  -26.0240  -29.4750   20.7270 C   0  0  0  0  0  0  0  0  0  0  0  0
  -27.2280  -28.7270   20.7160 C   0  0  0  0  0  3  0  0  0  0  0  0
  -26.0820  -26.9440   19.5290 C   0  0  0  0  0  3  0  0  0  0  0  0
  -24.8910  -27.6900   19.5320 C   0  0  0  0  0  3  0  0  0  0  0  0
  -23.6210  -29.8110   20.1800 C   0  0  0  0  0  2  0  0  0  0  0  0
  -24.6600  -31.0900   22.0990 N   0  0  0  0  0  0  0  0  0  0  0  0
  -23.5140  -32.1620   23.7350 O   0  0  0  0  0  0  0  0  0  0  0  0
  -22.7550  -29.4570   22.5200 C   0  0  0  0  0  0  0  0  0  0  0  0
  -21.4350  -29.2520   22.3780 N   0  0  0  0  0  0  0  0  0  0  0  0
  -23.4380  -28.8500   23.3490 O   0  0  0  0  0  0  0  0  0  0  0  0
  -20.9490  -29.7890   21.6750 H   0  0  0  0  0  0  0  0  0  0  0  0
  -18.0670  -28.0260   22.8580 C   0  0  0  0  0  0  0  0  0  0  0  0
  -20.6200  -28.3120   23.1490 C   0  0  0  0  0  3  0  0  0  0  0  0
  -20.7440  -26.8790   22.5820 C   0  0  0  0  0  2  0  0  0  0  0  0
  -19.6520  -26.5390   21.5630 C   0  0  0  0  0  2  0  0  0  0  0  0
  -18.2630  -26.6750   22.1940 C   0  0  0  0  0  2  0  0  0  0  0  0
  -19.1750  -28.8030   23.2920 C   0  0  0  0  0  0  0  0  0  0  0  0
  -18.9370  -30.0690   23.8710 C   0  0  0  0  0  3  0  0  0  0  0  0
  -17.6270  -30.5570   24.0240 C   0  0  0  0  0  3  0  0  0  0  0  0
  -16.5340  -29.7770   23.6090 C   0  0  0  0  0  3  0  0  0  0  0  0
  -16.7540  -28.5140   23.0310 C   0  0  0  0  0  3  0  0  0  0  0  0
  -25.8810  -32.5340   23.8150 C   0  0  0  0  0  3  0  0  0  0  0  0
  -25.5630  -33.9280   24.1450 N   0  0  0  0  0  0  0  0  0  0  0  0
  -25.8870  -34.9840   23.3860 C   0  0  0  0  0  0  0  0  0  0  0  0
  -26.5590  -34.8870   22.3550 O   0  0  0  0  0  0  0  0  0  0  0  0
  -24.9680  -34.0770   24.9450 H   0  0  0  0  0  0  0  0  0  0  0  0
  -24.1550  -36.7710   23.0200 C   0  0  0  0  0  1  0  0  0  0  0  0
  -25.3870  -36.3670   23.8450 C   0  0  0  0  0  3  0  0  0  0  0  0
  -27.5010  -37.2580   24.7160 C   0  0  0  0  0  1  0  0  0  0  0  0
  -26.4140  -37.4260   23.7550 N   0  0  0  0  0  0  0  0  0  0  0  0
  -26.0010  -38.3420   23.9050 H   0  0  0  0  0  0  0  0  0  0  0  0
  -26.4100  -31.7660   25.0890 C   0  0  1  0  0  0  0  0  0  0  0  0
  -25.3210  -31.5160   26.1580 C   0  0  0  0  0  1  0  0  0  0  0  0
  -27.0090  -30.3940   24.6980 C   0  0  0  0  0  1  0  0  0  0  0  0
  -27.5480  -32.5760   25.7520 C   0  0  0  0  0  1  0  0  0  0  0  0
  1  3  2  0
  1 48  1  0
  2  1  1  0
  5  6  1  0
  5  4  1  0
  5  8  1  0
  6  3  1  0
  6  4  1  0
  7  8  2  0
  7 10  1  0
  9 10  2  0
 10 11  1  0
 12  9  1  0
 13 18  1  0
 14 15  1  0
 14 13  1  0
 16 15  1  0
 16 23  1  0
 16 17  1  0
 18 12  1  0
 18 17  1  0
 19 12  2  0
 20 21  2  0
 21 40  1  0
 22 21  1  0
 22 25  1  0
 23 24  1  0
 23 20  1  0
 24 22  2  0
 25 26  1  0
 26 27  2  0
 28 31  1  0
 28 27  1  0
 29 28  2  0
 30 29  1  0
 30 25  2  0
 31 32  1  0
 32 33  1  0
 33 34  2  0
 35 34  1  0
 35 39  1  0
 36 35  2  0
 37 32  2  0
 37 36  1  0
 38 37  1  0
 40 41  1  0
 41 44  1  0
 41 43  1  0
 42 40  2  0
 45 46  1  0
 45 20  1  0
 47 45  1  0
 49 48  1  0
 50 49  1  0
 51 62  2  0
 52 50  1  0
 52 57  1  0
 53 61  1  0
 53 63  1  0
 54 60  1  0
 54 56  1  0
 55 61  1  0
 56 55  1  0
 57 56  2  0
 58 59  1  0
 58 52  2  0
 59 54  2  0
 60 53  1  0
 61 51  1  0
 63 65  2  0
 64 63  1  0
 66 64  1  0
 67 76  2  0
 67 72  1  0
 68 64  1  0
 68 72  1  0
 69 68  1  0
 70 71  1  0
 70 69  1  0
 71 67  1  0
 72 73  2  0
 73 74  1  0
 75 74  2  0
 76 75  1  0
 77 51  1  0
 77 78  1  0
 77 87  1  0
 78 81  1  0
 79 83  1  0
 79 78  1  0
 80 79  2  0
 83 82  1  0
 85 83  1  0
 85 86  1  0
 85 84  1  0
 87 90  1  1
 87 88  1  0
 89 87  1  0
M  ISO  4   9 100  12 100  49 101  50 101
M  END
>  <TORSDO>  (46) 
F 21

>  <SCORE>  (46) 
-12.411

>  <name>  (46) 
45

>  <ligand_id>  (46) 
45

>  <original_smiles>  (46) 
[H]C(C(=O)N1C([H])([H])C([H])([H])C([H])([H])C([H])(n2nc(-c3c([H])c([H])c(Oc4c([H])c([H])c(F)c([H])c4F)c([H])c3[H])c(C(=O)N([H])[H])c2N([H])[H])C1([H])[H])=C(C([H])=C([H])C1([H])C([H])([H])C1([H])N=C(C([H])([H])[H])C([H])([H])C([H])([H])Oc1c([H])c([H])c2c(c1[H])C([H])([H])N(C(=O)C([H])(N([H])C(=O)C([H])(N([H])C([H])([H])[H])C([H])([H])[H])C(C([H])([H])[H])(C([H])([H])[H])C([H])([H])[H])C([H])(C(=O)N([H])C1([H])c3c([H])c([H])c([H])c([H])c3C([H])([H])C([H])([H])C1([H])[H])C2([H])[H])C([H])([H])[H]

>  <smiles>  (46) 
[H]C(C(=O)N1C([H])([H])C([H])([H])C([H])([H])C([H])(n2nc(-c3c([H])c([H])c(Oc4c([H])c([H])c(F)c([H])c4F)c([H])c3[H])c(C(=O)N([H])[H])c2N([H])[H])C1([H])[H])=C(C([H])=C([H])C1([H])C([H])([H])C1([H])N=C(C([H])([H])[H])C([H])([H])C([H])([H])Oc1c([H])c([H])c2c(c1[H])C([H])([H])N(C(=O)C([H])(N([H])C(=O)C([H])(N([H])C([H])([H])[H])C([H])([H])[H])C(C([H])([H])[H])(C([H])([H])[H])C([H])([H])[H])C([H])(C(=O)N([H])C1([H])c3c([H])c([H])c([H])c([H])c3C([H])([H])C([H])([H])C1([H])[H])C2([H])[H])C([H])([H])[H]

$$$$
46:0:0
     RDKit          3D

 90 97  0  0  1  0  0  0  0  0999 V2000
  -28.7730  -20.6150   20.3490 N   0  0  0  0  0  4  0  0  0  0  0  0
  -28.4480  -20.5170   21.2980 H   0  0  0  0  0  0  0  0  0  0  0  0
  -27.9650  -20.4450   19.7730 H   0  0  0  0  0  0  0  0  0  0  0  0
  -30.3170  -22.6840   21.0120 C   0  0  0  0  0  1  0  0  0  0  0  0
  -29.0630  -22.3450   20.1920 C   0  0  0  0  0  3  0  0  0  0  0  0
  -28.0000  -23.9370   20.3100 C   0  0  0  0  0  2  0  0  0  0  0  0
  -28.1810  -25.6730   20.2780 O   0  0  0  0  0  0  0  0  0  0  0  0
  -24.6690  -31.9000   23.2320 C   0  0  0  0  0  0  0  0  0  0  0  0
  -27.1870  -26.8510   20.2470 C   0  0  0  0  0  0  0  0  0  0  0  0
  -23.4690  -30.4930   21.6110 C   0  0  0  0  0  3  0  0  0  0  0  0
  -24.9070  -28.8480   20.1960 C   0  0  0  0  0  0  0  0  0  0  0  0
  -26.0440  -30.6530   21.4630 C   0  0  0  0  0  2  0  0  0  0  0  0
  -26.1060  -29.2210   20.8150 C   0  0  0  0  0  0  0  0  0  0  0  0
  -27.2330  -28.2510   20.8050 C   0  0  0  0  0  3  0  0  0  0  0  0
  -25.9500  -26.6740   19.5760 C   0  0  0  0  0  3  0  0  0  0  0  0
  -24.8650  -27.5990   19.5530 C   0  0  0  0  0  3  0  0  0  0  0  0
  -23.6970  -29.7920   20.2420 C   0  0  0  0  0  2  0  0  0  0  0  0
  -24.7510  -31.0470   22.1540 N   0  0  0  0  0  0  0  0  0  0  0  0
  -23.5800  -32.1990   23.7510 O   0  0  0  0  0  0  0  0  0  0  0  0
  -22.7650  -29.5160   22.5910 C   0  0  0  0  0  0  0  0  0  0  0  0
  -21.4360  -29.3430   22.4640 N   0  0  0  0  0  0  0  0  0  0  0  0
  -23.4270  -28.9110   23.4380 O   0  0  0  0  0  0  0  0  0  0  0  0
  -20.9510  -29.8820   21.7590 H   0  0  0  0  0  0  0  0  0  0  0  0
  -18.0620  -28.0960   22.9760 C   0  0  0  0  0  0  0  0  0  0  0  0
  -20.6170  -28.4080   23.2450 C   0  0  0  0  0  3  0  0  0  0  0  0
  -20.7410  -26.9680   22.6950 C   0  0  0  0  0  2  0  0  0  0  0  0
  -19.6500  -26.6130   21.6800 C   0  0  0  0  0  2  0  0  0  0  0  0
  -18.2630  -26.7430   22.3150 C   0  0  0  0  0  2  0  0  0  0  0  0
  -19.1660  -28.8850   23.3980 C   0  0  0  0  0  0  0  0  0  0  0  0
  -18.9210  -30.1470   23.9810 C   0  0  0  0  0  3  0  0  0  0  0  0
  -17.6060  -30.6230   24.1420 C   0  0  0  0  0  3  0  0  0  0  0  0
  -16.5170  -29.8340   23.7330 C   0  0  0  0  0  3  0  0  0  0  0  0
  -16.7460  -28.5720   23.1570 C   0  0  0  0  0  3  0  0  0  0  0  0
  -25.9370  -32.5520   23.8590 C   0  0  0  0  0  3  0  0  0  0  0  0
  -25.6160  -33.9540   24.1900 N   0  0  0  0  0  0  0  0  0  0  0  0
  -25.9280  -35.0170   23.4350 C   0  0  0  0  0  0  0  0  0  0  0  0
  -26.5750  -34.9200   22.3900 O   0  0  0  0  0  0  0  0  0  0  0  0
  -25.0380  -34.1030   25.0040 H   0  0  0  0  0  0  0  0  0  0  0  0
  -24.1830  -36.8110   23.1460 C   0  0  0  0  0  1  0  0  0  0  0  0
  -25.4520  -36.4060   23.9120 C   0  0  0  0  0  3  0  0  0  0  0  0
  -27.6050  -37.3090   24.6800 C   0  0  0  0  0  1  0  0  0  0  0  0
  -26.4760  -37.4650   23.7660 N   0  0  0  0  0  0  0  0  0  0  0  0
  -26.0690  -38.3830   23.9190 H   0  0  0  0  0  0  0  0  0  0  0  0
  -26.4450  -31.8000   25.1520 C   0  0  1  0  0  0  0  0  0  0  0  0
  -25.3460  -31.5790   26.2180 C   0  0  0  0  0  1  0  0  0  0  0  0
  -27.0300  -30.4150   24.7940 C   0  0  0  0  0  1  0  0  0  0  0  0
  -27.5930  -32.6030   25.8090 C   0  0  0  0  0  1  0  0  0  0  0  0
  -29.7290  -19.1550   20.1570 C   0  0  0  0  0  3  0  0  0  0  0  0
  -30.9080  -19.2840   21.1220 C   0  0  0  0  0  0  0  0  0  0  0  0
  -32.0940  -18.8250   20.7380 N   0  0  0  0  0  0  0  0  0  0  0  0
  -30.7470  -19.7680   22.2420 O   0  0  0  0  0  0  0  0  0  0  0  0
  -32.2100  -18.3880   19.8350 H   0  0  0  0  0  0  0  0  0  0  0  0
  -32.8860  -18.8840   21.3610 H   0  0  0  0  0  0  0  0  0  0  0  0
  -29.3930  -17.2770   20.2510 C   0  0  0  0  0  2  0  0  0  0  0  0
  -30.2750  -15.6580   20.0780 C   0  0  0  0  0  0  0  0  0  0  0  0
  -30.3650  -13.1380   19.2190 C   0  0  0  0  0  2  0  0  0  0  0  0
  -29.4160  -12.8240   18.0250 C   0  0  0  0  0  2  0  0  0  0  0  0
  -27.9990  -12.4790   18.5160 C   0  0  0  0  0  2  0  0  0  0  0  0
  -27.5460  -13.4410   19.6380 C   0  0  0  0  0  3  0  0  0  0  0  0
  -28.6220  -13.6790   20.7190 C   0  0  0  0  0  2  0  0  0  0  0  0
  -29.7980  -14.2820   20.0560 N   0  0  0  0  0  0  0  0  0  0  0  0
  -31.4910  -15.6380   19.8080 O   0  0  0  0  0  0  0  0  0  0  0  0
  -25.2170  -13.9480   20.5220 C   0  0  0  0  0  0  0  0  0  0  0  0
  -24.1760  -13.1550   20.9140 C   0  0  0  0  0  0  0  0  0  0  0  0
  -24.6490  -11.8080   20.8260 C   0  0  0  0  0  0  0  0  0  0  0  0
  -26.2500  -13.0870   20.2040 N   0  0  0  0  0  0  0  0  0  0  0  0
  -25.9270  -11.7910   20.4560 N   0  0  0  0  0  0  0  0  0  0  0  0
  -23.9340  -10.5380   21.0140 C   0  0  0  0  0  0  0  0  0  0  0  0
  -24.3830   -9.5640   21.9330 C   0  0  0  0  0  3  0  0  0  0  0  0
  -23.6640   -8.3620   22.1120 C   0  0  0  0  0  3  0  0  0  0  0  0
  -22.4820   -8.1250   21.3710 C   0  0  0  0  0  0  0  0  0  0  0  0
  -22.0520   -9.0870   20.4390 C   0  0  0  0  0  3  0  0  0  0  0  0
  -22.7710  -10.2800   20.2600 C   0  0  0  0  0  3  0  0  0  0  0  0
  -21.7330   -6.9760   21.4590 O   0  0  0  0  0  0  0  0  0  0  0  0
  -21.6680   -6.2450   22.6180 C   0  0  0  0  0  0  0  0  0  0  0  0
  -21.1830   -6.8000   23.8220 C   0  0  0  0  0  3  0  0  0  0  0  0
  -21.0680   -5.9950   24.9720 C   0  0  0  0  0  3  0  0  0  0  0  0
  -21.4290   -4.6360   24.9200 C   0  0  0  0  0  0  0  0  0  0  0  0
  -21.9070   -4.0790   23.7200 C   0  0  0  0  0  3  0  0  0  0  0  0
  -22.0240   -4.8820   22.5720 C   0  0  0  0  0  0  0  0  0  0  0  0
  -22.4640   -4.3360   21.4140 F   0  0  0  0  0  0  0  0  0  0  0  0
  -21.3110   -3.8600   26.0240 F   0  0  0  0  0  0  0  0  0  0  0  0
  -22.7900  -13.6170   21.2510 C   0  0  0  0  0  0  0  0  0  0  0  0
  -22.1010  -12.9010   22.1330 N   0  0  0  0  0  0  0  0  0  0  0  0
  -22.3280  -14.6510   20.7690 O   0  0  0  0  0  0  0  0  0  0  0  0
  -22.4920  -12.0660   22.5450 H   0  0  0  0  0  0  0  0  0  0  0  0
  -21.1730  -13.1920   22.4020 H   0  0  0  0  0  0  0  0  0  0  0  0
  -25.3650  -15.3240   20.3770 N   0  0  0  0  0  0  0  0  0  0  0  0
  -24.6010  -15.9700   20.5430 H   0  0  0  0  0  0  0  0  0  0  0  0
  -26.1970  -15.7780   20.0220 H   0  0  0  0  0  0  0  0  0  0  0  0
  1  2  1  0
  3  1  1  0
  5  6  1  0
  5  1  1  0
  5  4  1  0
  7  6  1  0
  8 19  2  0
  9  7  1  0
  9 14  1  0
 10 18  1  0
 10 20  1  0
 11 17  1  0
 11 13  1  0
 12 18  1  0
 13 12  1  0
 14 13  2  0
 15  9  2  0
 16 15  1  0
 16 11  2  0
 17 10  1  0
 18  8  1  0
 20 22  2  0
 21 20  1  0
 23 21  1  0
 24 33  2  0
 24 29  1  0
 25 21  1  0
 25 29  1  0
 26 25  1  0
 27 28  1  0
 27 26  1  0
 28 24  1  0
 29 30  2  0
 30 31  1  0
 32 31  2  0
 33 32  1  0
 34  8  1  0
 34 35  1  0
 34 44  1  0
 35 38  1  0
 36 40  1  0
 36 35  1  0
 37 36  2  0
 40 39  1  0
 42 40  1  0
 42 43  1  0
 42 41  1  0
 44 47  1  1
 44 45  1  0
 46 44  1  0
 48 54  1  0
 48  1  1  0
 48 49  1  0
 49 51  2  0
 50 49  1  0
 50 53  1  0
 52 50  1  0
 55 54  1  0
 56 61  1  0
 57 58  1  0
 57 56  1  0
 59 58  1  0
 59 66  1  0
 59 60  1  0
 61 55  1  0
 61 60  1  0
 62 55  2  0
 63 64  2  0
 64 83  1  0
 65 64  1  0
 65 68  1  0
 66 67  1  0
 66 63  1  0
 67 65  2  0
 68 69  1  0
 69 70  2  0
 71 74  1  0
 71 70  1  0
 72 71  2  0
 73 72  1  0
 73 68  2  0
 74 75  1  0
 75 76  1  0
 76 77  2  0
 78 77  1  0
 78 82  1  0
 79 78  2  0
 80 75  2  0
 80 79  1  0
 81 80  1  0
 83 84  1  0
 84 87  1  0
 84 86  1  0
 85 83  2  0
 88 63  1  0
 88 89  1  0
 90 88  1  0
M  ISO  4   6 101   7 101  54 100  55 100
M  END
>  <TORSDO>  (47) 
F 21

>  <SCORE>  (47) 
-16.406

>  <name>  (47) 
46

>  <ligand_id>  (47) 
46

>  <original_smiles>  (47) 
[H]c1c([H])c([H])c2c(c1[H])C([H])([H])C([H])([H])C([H])([H])C2([H])N([H])C(=O)C1([H])N(C(=O)C([H])(N([H])C(=O)C([H])(N([H])C([H])([H])[H])C([H])([H])[H])C(C([H])([H])[H])(C([H])([H])[H])C([H])([H])[H])C([H])([H])c2c([H])c(OC([H])([H])C([H])(C([H])([H])[H])[N+]([H])([H])C([H])(C(=O)N([H])[H])C([H])([H])C(=O)N3C([H])([H])C([H])([H])C([H])([H])C([H])(n4nc(-c5c([H])c([H])c(Oc6c([H])c([H])c(F)c([H])c6F)c([H])c5[H])c(C(=O)N([H])[H])c4N([H])[H])C3([H])[H])c([H])c([H])c2C1([H])[H]

>  <smiles>  (47) 
[H]c1c([H])c([H])c2c(c1[H])C([H])([H])C([H])([H])C([H])([H])C2([H])N([H])C(=O)C1([H])N(C(=O)C([H])(N([H])C(=O)C([H])(N([H])C([H])([H])[H])C([H])([H])[H])C(C([H])([H])[H])(C([H])([H])[H])C([H])([H])[H])C([H])([H])c2c([H])c(OC([H])([H])C([H])(C([H])([H])[H])[N+]([H])([H])C([H])(C(=O)N([H])[H])C([H])([H])C(=O)N3C([H])([H])C([H])([H])C([H])([H])C([H])(n4nc(-c5c([H])c([H])c(Oc6c([H])c([H])c(F)c([H])c6F)c([H])c5[H])c(C(=O)N([H])[H])c4N([H])[H])C3([H])[H])c([H])c([H])c2C1([H])[H]

$$$$
47:0:0
     RDKit          3D

 92 99  0  0  1  0  0  0  0  0999 V2000
  -29.8920  -21.8670   20.9970 N   0  0  0  0  0  4  0  0  0  0  0  0
  -29.5860  -21.7580   21.9520 H   0  0  0  0  0  0  0  0  0  0  0  0
  -30.8370  -22.2130   21.0300 H   0  0  0  0  0  0  0  0  0  0  0  0
  -30.7130  -20.5450   19.0450 C   0  0  0  0  0  1  0  0  0  0  0  0
  -29.9060  -20.5120   20.3620 C   0  0  0  0  0  3  0  0  0  0  0  0
  -30.4240  -19.3910   21.3340 C   0  0  0  0  0  3  0  0  0  0  0  0
  -30.3320  -18.0370   20.7420 N   0  0  0  0  0  0  0  0  0  0  0  0
  -29.3720  -17.8900   20.4430 H   0  0  0  0  0  0  0  0  0  0  0  0
  -30.7350  -16.9650   21.6750 C   0  0  0  0  0  2  0  0  0  0  0  0
  -30.0690  -15.5660   21.4610 C   0  0  0  0  0  2  0  0  0  0  0  0
  -30.6830  -14.5270   20.4780 C   0  0  0  0  0  0  0  0  0  0  0  0
  -30.3780  -12.4220   19.1850 C   0  0  0  0  0  2  0  0  0  0  0  0
  -29.4040  -12.6400   18.0080 C   0  0  0  0  0  2  0  0  0  0  0  0
  -27.9390  -12.4850   18.4580 C   0  0  0  0  0  2  0  0  0  0  0  0
  -27.6290  -13.2930   19.7440 C   0  0  0  0  0  3  0  0  0  0  0  0
  -28.6960  -13.0220   20.8260 C   0  0  0  0  0  2  0  0  0  0  0  0
  -30.0120  -13.3590   20.2570 N   0  0  0  0  0  0  0  0  0  0  0  0
  -31.7510  -14.7780   19.9080 O   0  0  0  0  0  0  0  0  0  0  0  0
  -25.2360  -13.9190   20.4590 C   0  0  0  0  0  0  0  0  0  0  0  0
  -24.1650  -13.1530   20.8370 C   0  0  0  0  0  0  0  0  0  0  0  0
  -24.6210  -11.8000   20.8110 C   0  0  0  0  0  0  0  0  0  0  0  0
  -26.2760  -13.0310   20.2310 N   0  0  0  0  0  0  0  0  0  0  0  0
  -25.9090  -11.7520   20.4980 N   0  0  0  0  0  0  0  0  0  0  0  0
  -23.8920  -10.5420   21.0140 C   0  0  0  0  0  0  0  0  0  0  0  0
  -24.3360   -9.5730   21.9420 C   0  0  0  0  0  3  0  0  0  0  0  0
  -23.6090   -8.3790   22.1320 C   0  0  0  0  0  3  0  0  0  0  0  0
  -22.4250   -8.1460   21.3960 C   0  0  0  0  0  0  0  0  0  0  0  0
  -22.0010   -9.1000   20.4540 C   0  0  0  0  0  3  0  0  0  0  0  0
  -22.7270  -10.2880   20.2640 C   0  0  0  0  0  3  0  0  0  0  0  0
  -21.6680   -7.0020   21.4930 O   0  0  0  0  0  0  0  0  0  0  0  0
  -21.6400   -6.2560   22.6440 C   0  0  0  0  0  0  0  0  0  0  0  0
  -21.2490   -6.8100   23.8810 C   0  0  0  0  0  3  0  0  0  0  0  0
  -21.1670   -5.9920   25.0250 C   0  0  0  0  0  3  0  0  0  0  0  0
  -21.4650   -4.6190   24.9310 C   0  0  0  0  0  0  0  0  0  0  0  0
  -21.8510   -4.0640   23.6980 C   0  0  0  0  0  3  0  0  0  0  0  0
  -21.9340   -4.8800   22.5570 C   0  0  0  0  0  0  0  0  0  0  0  0
  -22.2840   -4.3360   21.3660 F   0  0  0  0  0  0  0  0  0  0  0  0
  -21.3810   -3.8290   26.0270 F   0  0  0  0  0  0  0  0  0  0  0  0
  -22.7710  -13.6370   21.1170 C   0  0  0  0  0  0  0  0  0  0  0  0
  -22.0490  -12.9440   21.9920 N   0  0  0  0  0  0  0  0  0  0  0  0
  -22.3310  -14.6610   20.5950 O   0  0  0  0  0  0  0  0  0  0  0  0
  -22.4190  -12.1150   22.4330 H   0  0  0  0  0  0  0  0  0  0  0  0
  -21.1140  -13.2510   22.2250 H   0  0  0  0  0  0  0  0  0  0  0  0
  -25.4060  -15.2860   20.2730 N   0  0  0  0  0  0  0  0  0  0  0  0
  -24.6400  -15.9440   20.3680 H   0  0  0  0  0  0  0  0  0  0  0  0
  -26.2610  -15.7190   19.9470 H   0  0  0  0  0  0  0  0  0  0  0  0
  -32.0880  -19.9820   23.1470 C   0  0  0  0  0  2  0  0  0  0  0  0
  -31.8200  -19.6840   21.8660 C   0  0  0  0  0  3  0  0  0  0  0  0
  -28.9930  -22.8670   20.3460 C   0  0  0  0  0  2  0  0  0  0  0  0
  -29.2690  -24.3650   20.6740 C   0  0  0  0  0  2  0  0  0  0  0  0
  -28.1910  -25.2680   20.0220 C   0  0  0  0  0  2  0  0  0  0  0  0
  -28.3440  -26.6910   20.2190 O   0  0  0  0  0  0  0  0  0  0  0  0
  -24.5730  -31.9280   23.2370 C   0  0  0  0  0  0  0  0  0  0  0  0
  -27.1850  -27.4530   20.1610 C   0  0  0  0  0  0  0  0  0  0  0  0
  -23.3560  -30.5330   21.5980 C   0  0  0  0  0  3  0  0  0  0  0  0
  -24.7990  -28.9940   20.1620 C   0  0  0  0  0  0  0  0  0  0  0  0
  -25.8860  -30.8720   21.3980 C   0  0  0  0  0  2  0  0  0  0  0  0
  -25.9620  -29.5020   20.7540 C   0  0  0  0  0  0  0  0  0  0  0  0
  -27.1550  -28.7410   20.7510 C   0  0  0  0  0  3  0  0  0  0  0  0
  -26.0030  -26.9770   19.5420 C   0  0  0  0  0  3  0  0  0  0  0  0
  -24.8160  -27.7300   19.5500 C   0  0  0  0  0  3  0  0  0  0  0  0
  -23.5580  -29.8580   20.2150 C   0  0  0  0  0  2  0  0  0  0  0  0
  -24.6230  -31.1260   22.1350 N   0  0  0  0  0  0  0  0  0  0  0  0
  -23.4950  -32.2060   23.7790 O   0  0  0  0  0  0  0  0  0  0  0  0
  -22.7020  -29.5120   22.5570 C   0  0  0  0  0  0  0  0  0  0  0  0
  -21.3760  -29.3390   22.4340 N   0  0  0  0  0  0  0  0  0  0  0  0
  -23.3840  -28.8810   23.3680 O   0  0  0  0  0  0  0  0  0  0  0  0
  -20.8850  -29.9030   21.7540 H   0  0  0  0  0  0  0  0  0  0  0  0
  -17.9970  -28.1680   22.9480 C   0  0  0  0  0  0  0  0  0  0  0  0
  -20.5570  -28.4060   23.2070 C   0  0  0  0  0  3  0  0  0  0  0  0
  -20.6460  -26.9740   22.6280 C   0  0  0  0  0  2  0  0  0  0  0  0
  -19.5370  -26.6600   21.6190 C   0  0  0  0  0  2  0  0  0  0  0  0
  -18.1590  -26.8170   22.2700 C   0  0  0  0  0  2  0  0  0  0  0  0
  -19.1220  -28.9200   23.3730 C   0  0  0  0  0  0  0  0  0  0  0  0
  -18.9170  -30.1840   23.9660 C   0  0  0  0  0  3  0  0  0  0  0  0
  -17.6190  -30.6980   24.1370 C   0  0  0  0  0  3  0  0  0  0  0  0
  -16.5060  -29.9410   23.7270 C   0  0  0  0  0  3  0  0  0  0  0  0
  -16.6960  -28.6780   23.1400 C   0  0  0  0  0  3  0  0  0  0  0  0
  -25.8650  -32.5520   23.8500 C   0  0  0  0  0  3  0  0  0  0  0  0
  -26.3870  -31.7750   25.1210 C   0  0  1  0  0  0  0  0  0  0  0  0
  -25.3000  -31.5340   26.1930 C   0  0  0  0  0  1  0  0  0  0  0  0
  -26.9660  -30.3980   24.7200 C   0  0  0  0  0  1  0  0  0  0  0  0
  -27.5410  -32.5640   25.7820 C   0  0  0  0  0  1  0  0  0  0  0  0
  -25.5650  -33.9500   24.1850 N   0  0  0  0  0  0  0  0  0  0  0  0
  -25.8960  -35.0030   23.4230 C   0  0  0  0  0  0  0  0  0  0  0  0
  -26.5600  -34.8970   22.3890 O   0  0  0  0  0  0  0  0  0  0  0  0
  -24.9840  -34.1070   24.9950 H   0  0  0  0  0  0  0  0  0  0  0  0
  -24.1750  -36.8020   23.0700 C   0  0  0  0  0  1  0  0  0  0  0  0
  -25.4140  -36.3920   23.8830 C   0  0  0  0  0  3  0  0  0  0  0  0
  -27.5520  -37.2670   24.7130 C   0  0  0  0  0  1  0  0  0  0  0  0
  -26.4510  -37.4410   23.7700 N   0  0  0  0  0  0  0  0  0  0  0  0
  -26.0480  -38.3620   23.9210 H   0  0  0  0  0  0  0  0  0  0  0  0
  1  3  1  0
  1  2  1  0
  5  4  1  0
  5  1  1  0
  5  6  1  0
  6 48  1  0
  7  6  1  0
  7  9  1  0
  8  7  1  0
 10  9  1  0
 11 10  1  0
 12 17  1  0
 13 14  1  0
 13 12  1  0
 15 14  1  0
 15 22  1  0
 15 16  1  0
 17 11  1  0
 17 16  1  0
 18 11  2  0
 19 20  2  0
 20 39  1  0
 21 20  1  0
 21 24  1  0
 22 19  1  0
 22 23  1  0
 23 21  2  0
 24 25  1  0
 25 26  2  0
 27 30  1  0
 27 26  1  0
 28 27  2  0
 29 28  1  0
 29 24  2  0
 30 31  1  0
 31 32  1  0
 32 33  2  0
 34 33  1  0
 34 38  1  0
 35 34  2  0
 36 31  2  0
 36 35  1  0
 37 36  1  0
 39 40  1  0
 40 43  1  0
 40 42  1  0
 41 39  2  0
 44 45  1  0
 44 19  1  0
 46 44  1  0
 48 47  2  0
 49 50  1  0
 49  1  1  0
 51 52  1  0
 51 50  1  0
 53 64  2  0
 54 52  1  0
 54 59  1  0
 55 63  1  0
 55 65  1  0
 56 62  1  0
 56 58  1  0
 57 63  1  0
 58 57  1  0
 59 58  2  0
 60 61  1  0
 60 54  2  0
 61 56  2  0
 62 55  1  0
 63 53  1  0
 65 67  2  0
 66 65  1  0
 68 66  1  0
 69 78  2  0
 69 74  1  0
 70 66  1  0
 70 74  1  0
 71 70  1  0
 72 73  1  0
 72 71  1  0
 73 69  1  0
 74 75  2  0
 75 76  1  0
 77 76  2  0
 78 77  1  0
 79 53  1  0
 79 84  1  0
 79 80  1  0
 80 83  1  1
 80 81  1  0
 82 80  1  0
 84 87  1  0
 85 89  1  0
 85 84  1  0
 86 85  2  0
 89 88  1  0
 91 89  1  0
 91 92  1  0
 91 90  1  0
M  ISO  4  10 100  11 100  51 101  52 101
M  END
>  <TORSDO>  (48) 
F 25

>  <SCORE>  (48) 
-12.320

>  <name>  (48) 
47

>  <ligand_id>  (48) 
47

>  <original_smiles>  (48) 
[H]C([H])=C([H])C([H])(N([H])C([H])([H])C([H])([H])C(=O)N1C([H])([H])C([H])([H])C([H])([H])C([H])(n2nc(-c3c([H])c([H])c(Oc4c([H])c([H])c(F)c([H])c4F)c([H])c3[H])c(C(=O)N([H])[H])c2N([H])[H])C1([H])[H])C([H])(C([H])([H])[H])[N+]([H])([H])C([H])([H])C([H])([H])C([H])([H])Oc1c([H])c([H])c2c(c1[H])C([H])([H])N(C(=O)C([H])(N([H])C(=O)C([H])(N([H])C([H])([H])[H])C([H])([H])[H])C(C([H])([H])[H])(C([H])([H])[H])C([H])([H])[H])C([H])(C(=O)N([H])C1([H])c3c([H])c([H])c([H])c([H])c3C([H])([H])C([H])([H])C1([H])[H])C2([H])[H]

>  <smiles>  (48) 
[H]C([H])=C([H])C([H])(N([H])C([H])([H])C([H])([H])C(=O)N1C([H])([H])C([H])([H])C([H])([H])C([H])(n2nc(-c3c([H])c([H])c(Oc4c([H])c([H])c(F)c([H])c4F)c([H])c3[H])c(C(=O)N([H])[H])c2N([H])[H])C1([H])[H])C([H])(C([H])([H])[H])[N+]([H])([H])C([H])([H])C([H])([H])C([H])([H])Oc1c([H])c([H])c2c(c1[H])C([H])([H])N(C(=O)C([H])(N([H])C(=O)C([H])(N([H])C([H])([H])[H])C([H])([H])[H])C(C([H])([H])[H])(C([H])([H])[H])C([H])([H])[H])C([H])(C(=O)N([H])C1([H])c3c([H])c([H])c([H])c([H])c3C([H])([H])C([H])([H])C1([H])[H])C2([H])[H]

$$$$
48:0:0
     RDKit          3D

 95104  0  0  1  0  0  0  0  0999 V2000
  -31.4680  -21.7770   17.7990 C   0  0  0  0  0  2  0  0  0  0  0  0
  -29.6530  -22.5480   16.1950 C   0  0  0  0  0  2  0  0  0  0  0  0
  -31.3940  -23.2720   18.1840 C   0  0  0  0  0  2  0  0  0  0  0  0
  -29.1220  -23.5530   17.2370 C   0  0  0  0  0  2  0  0  0  0  0  0
  -30.3650  -21.3310   16.8140 C   0  0  0  0  0  3  0  0  0  0  0  0
  -29.9950  -23.7040   18.4390 N   0  0  2  0  0  4  0  0  0  0  0  0
  -29.6380  -23.0350   19.1080 H   0  0  0  0  0  0  0  0  0  0  0  0
  -29.9130  -25.0440   19.1030 C   0  0  0  0  0  2  0  0  0  0  0  0
  -28.4690  -25.5180   19.3800 C   0  0  0  0  0  2  0  0  0  0  0  0
  -28.4240  -26.7380   20.1320 O   0  0  0  0  0  0  0  0  0  0  0  0
  -24.5700  -31.8700   23.2610 C   0  0  0  0  0  0  0  0  0  0  0  0
  -27.2190  -27.4210   20.1740 C   0  0  0  0  0  0  0  0  0  0  0  0
  -23.3670  -30.4700   21.6190 C   0  0  0  0  0  3  0  0  0  0  0  0
  -24.8180  -28.9240   20.2110 C   0  0  0  0  0  0  0  0  0  0  0  0
  -25.8950  -30.8200   21.4240 C   0  0  0  0  0  2  0  0  0  0  0  0
  -25.9780  -29.4450   20.7950 C   0  0  0  0  0  0  0  0  0  0  0  0
  -27.1770  -28.6980   20.7820 C   0  0  0  0  0  3  0  0  0  0  0  0
  -26.0220  -26.8990   19.6210 C   0  0  0  0  0  3  0  0  0  0  0  0
  -24.8310  -27.6460   19.6340 C   0  0  0  0  0  3  0  0  0  0  0  0
  -23.5780  -29.7880   20.2430 C   0  0  0  0  0  2  0  0  0  0  0  0
  -24.6310  -31.0670   22.1610 N   0  0  0  0  0  0  0  0  0  0  0  0
  -23.4880  -32.1450   23.7970 O   0  0  0  0  0  0  0  0  0  0  0  0
  -22.7130  -29.4490   22.5790 C   0  0  0  0  0  0  0  0  0  0  0  0
  -21.3880  -29.2700   22.4470 N   0  0  0  0  0  0  0  0  0  0  0  0
  -23.3930  -28.8190   23.3930 O   0  0  0  0  0  0  0  0  0  0  0  0
  -20.9040  -29.8300   21.7590 H   0  0  0  0  0  0  0  0  0  0  0  0
  -18.0050  -28.1020   22.9440 C   0  0  0  0  0  0  0  0  0  0  0  0
  -20.5640  -28.3380   23.2140 C   0  0  0  0  0  3  0  0  0  0  0  0
  -20.6570  -26.9090   22.6310 C   0  0  0  0  0  2  0  0  0  0  0  0
  -19.5510  -26.6000   21.6180 C   0  0  0  0  0  2  0  0  0  0  0  0
  -18.1710  -26.7530   22.2650 C   0  0  0  0  0  2  0  0  0  0  0  0
  -19.1300  -28.8540   23.3740 C   0  0  0  0  0  0  0  0  0  0  0  0
  -18.9240  -30.1200   23.9660 C   0  0  0  0  0  3  0  0  0  0  0  0
  -17.6230  -30.6310   24.1340 C   0  0  0  0  0  3  0  0  0  0  0  0
  -16.5130  -29.8770   23.7180 C   0  0  0  0  0  3  0  0  0  0  0  0
  -16.7040  -28.6150   23.1270 C   0  0  0  0  0  3  0  0  0  0  0  0
  -25.8560  -32.5000   23.8820 C   0  0  0  0  0  3  0  0  0  0  0  0
  -26.3630  -31.7350   25.1650 C   0  0  1  0  0  0  0  0  0  0  0  0
  -25.2630  -31.5040   26.2270 C   0  0  0  0  0  1  0  0  0  0  0  0
  -26.9440  -30.3550   24.7800 C   0  0  0  0  0  1  0  0  0  0  0  0
  -27.5150  -32.5270   25.8260 C   0  0  0  0  0  1  0  0  0  0  0  0
  -25.5500  -33.9020   24.1980 N   0  0  0  0  0  0  0  0  0  0  0  0
  -25.8930  -34.9470   23.4320 C   0  0  0  0  0  0  0  0  0  0  0  0
  -26.5740  -34.8310   22.4090 O   0  0  0  0  0  0  0  0  0  0  0  0
  -24.9510  -34.0650   24.9940 H   0  0  0  0  0  0  0  0  0  0  0  0
  -24.1820  -36.7450   23.0350 C   0  0  0  0  0  1  0  0  0  0  0  0
  -25.4060  -36.3420   23.8700 C   0  0  0  0  0  3  0  0  0  0  0  0
  -27.5310  -37.2170   24.7350 C   0  0  0  0  0  1  0  0  0  0  0  0
  -26.4470  -37.3870   23.7720 N   0  0  0  0  0  0  0  0  0  0  0  0
  -26.0450  -38.3100   23.9050 H   0  0  0  0  0  0  0  0  0  0  0  0
  -29.1870  -20.1620   17.6000 S   0  0  0  0  0  0  0  0  0  0  0  0
  -31.7400  -17.0190   17.2130 C   0  0  0  0  0  3  0  0  0  0  0  0
  -31.4520  -16.2390   18.3410 C   0  0  0  0  0  3  0  0  0  0  0  0
  -31.0240  -18.2000   16.9760 C   0  0  0  0  0  3  0  0  0  0  0  0
  -29.7270  -17.8230   19.0160 C   0  0  0  0  0  3  0  0  0  0  0  0
  -30.4340  -16.6130   19.2630 C   0  0  0  0  0  0  0  0  0  0  0  0
  -30.0400  -18.6280   17.8890 C   0  0  0  0  0  0  0  0  0  0  0  0
  -30.8100  -14.6930   20.7700 C   0  0  0  0  0  0  0  0  0  0  0  0
  -30.5720  -12.4630   19.8340 C   0  0  0  0  0  2  0  0  0  0  0  0
  -29.7370  -12.6180   18.5460 C   0  0  0  0  0  2  0  0  0  0  0  0
  -28.2300  -12.5110   18.8570 C   0  0  0  0  0  2  0  0  0  0  0  0
  -27.7910  -13.3930   20.0580 C   0  0  0  0  0  3  0  0  0  0  0  0
  -28.7720  -13.2880   21.2490 C   0  0  0  0  0  2  0  0  0  0  0  0
  -30.1320  -13.5200   20.7510 N   0  0  0  0  0  0  0  0  0  0  0  0
  -32.0390  -14.7620   20.7550 O   0  0  0  0  0  0  0  0  0  0  0  0
  -30.0890  -15.7640   20.3760 N   0  0  0  0  0  0  0  0  0  0  0  0
  -29.1130  -15.7530   20.6320 H   0  0  0  0  0  0  0  0  0  0  0  0
  -25.3520  -13.9910   20.6050 C   0  0  0  0  0  0  0  0  0  0  0  0
  -24.2640  -13.2170   20.9070 C   0  0  0  0  0  0  0  0  0  0  0  0
  -24.7320  -11.8670   20.9240 C   0  0  0  0  0  0  0  0  0  0  0  0
  -26.4140  -13.1140   20.4570 N   0  0  0  0  0  0  0  0  0  0  0  0
  -26.0410  -11.8320   20.7120 N   0  0  0  0  0  0  0  0  0  0  0  0
  -23.9990  -10.6040   21.0740 C   0  0  0  0  0  0  0  0  0  0  0  0
  -24.3870   -9.6330   22.0250 C   0  0  0  0  0  3  0  0  0  0  0  0
  -23.6550   -8.4340   22.1630 C   0  0  0  0  0  3  0  0  0  0  0  0
  -22.5220   -8.1960   21.3490 C   0  0  0  0  0  0  0  0  0  0  0  0
  -22.1550   -9.1540   20.3870 C   0  0  0  0  0  3  0  0  0  0  0  0
  -22.8890  -10.3450   20.2470 C   0  0  0  0  0  3  0  0  0  0  0  0
  -21.7650   -7.0490   21.3940 O   0  0  0  0  0  0  0  0  0  0  0  0
  -21.6640   -6.2990   22.5370 C   0  0  0  0  0  0  0  0  0  0  0  0
  -21.1790   -6.8430   23.7470 C   0  0  0  0  0  3  0  0  0  0  0  0
  -21.0290   -6.0180   24.8790 C   0  0  0  0  0  3  0  0  0  0  0  0
  -21.3540   -4.6500   24.8030 C   0  0  0  0  0  0  0  0  0  0  0  0
  -21.8300   -4.1050   23.5980 C   0  0  0  0  0  3  0  0  0  0  0  0
  -21.9820   -4.9270   22.4680 C   0  0  0  0  0  0  0  0  0  0  0  0
  -22.4220   -4.3920   21.3020 F   0  0  0  0  0  0  0  0  0  0  0  0
  -21.2020   -3.8550   25.8890 F   0  0  0  0  0  0  0  0  0  0  0  0
  -22.8500  -13.6890   21.0700 C   0  0  0  0  0  0  0  0  0  0  0  0
  -22.0690  -13.0090   21.9040 N   0  0  0  0  0  0  0  0  0  0  0  0
  -22.4390  -14.6970   20.4930 O   0  0  0  0  0  0  0  0  0  0  0  0
  -22.4100  -12.1950   22.3930 H   0  0  0  0  0  0  0  0  0  0  0  0
  -21.1140  -13.3040   22.0530 H   0  0  0  0  0  0  0  0  0  0  0  0
  -25.5250  -15.3610   20.4210 N   0  0  0  0  0  0  0  0  0  0  0  0
  -24.7530  -16.0190   20.4640 H   0  0  0  0  0  0  0  0  0  0  0  0
  -26.3910  -15.7930   20.1280 H   0  0  0  0  0  0  0  0  0  0  0  0
  1  3  1  0
  2  5  1  0
  2  4  1  0
  3  6  1  0
  4  6  1  0
  5 51  1  0
  5  1  1  0
  6  8  1  0
  6  7  1  1
  8  9  1  0
  9 10  1  0
 10 12  1  0
 11 22  2  0
 12 17  1  0
 13 21  1  0
 13 23  1  0
 14 20  1  0
 14 16  1  0
 15 21  1  0
 16 15  1  0
 17 16  2  0
 18 19  1  0
 18 12  2  0
 19 14  2  0
 20 13  1  0
 21 11  1  0
 23 25  2  0
 24 23  1  0
 26 24  1  0
 27 36  2  0
 27 32  1  0
 28 24  1  0
 28 32  1  0
 29 28  1  0
 30 31  1  0
 30 29  1  0
 31 27  1  0
 32 33  2  0
 33 34  1  0
 35 34  2  0
 36 35  1  0
 37 11  1  0
 37 42  1  0
 37 38  1  0
 38 41  1  1
 38 39  1  0
 40 38  1  0
 42 45  1  0
 43 47  1  0
 43 42  1  0
 44 43  2  0
 47 46  1  0
 49 47  1  0
 49 50  1  0
 49 48  1  0
 51 57  1  0
 52 53  1  0
 53 56  2  0
 54 52  2  0
 54 57  1  0
 55 56  1  0
 56 66  1  0
 57 55  2  0
 59 64  1  0
 60 61  1  0
 60 59  1  0
 62 61  1  0
 62 71  1  0
 62 63  1  0
 64 58  1  0
 64 63  1  0
 65 58  2  0
 66 67  1  0
 66 58  1  0
 68 69  2  0
 69 70  1  0
 69 88  1  0
 70 73  1  0
 71 68  1  0
 71 72  1  0
 72 70  2  0
 73 74  1  0
 74 75  2  0
 76 79  1  0
 76 75  1  0
 77 76  2  0
 78 77  1  0
 78 73  2  0
 79 80  1  0
 80 81  1  0
 81 82  2  0
 83 82  1  0
 83 87  1  0
 84 83  2  0
 85 80  2  0
 85 84  1  0
 86 85  1  0
 88 89  1  0
 89 92  1  0
 89 91  1  0
 90 88  2  0
 93 94  1  0
 93 68  1  0
 95 93  1  0
M  ISO  4   9 101  10 101  58 100  66 100
M  END
>  <TORSDO>  (49) 
F 20

>  <SCORE>  (49) 
-13.527

>  <name>  (49) 
48

>  <ligand_id>  (49) 
48

>  <original_smiles>  (49) 
[H]c1c([H])c(SC2([H])C([H])([H])C([H])([H])[N+]([H])(C([H])([H])C([H])([H])Oc3c([H])c([H])c4c(c3[H])C([H])([H])N(C(=O)C([H])(N([H])C(=O)C([H])(N([H])C([H])([H])[H])C([H])([H])[H])C(C([H])([H])[H])(C([H])([H])[H])C([H])([H])[H])C([H])(C(=O)N([H])C3([H])c5c([H])c([H])c([H])c([H])c5C([H])([H])C([H])([H])C3([H])[H])C4([H])[H])C([H])([H])C2([H])[H])c([H])c(N([H])C(=O)N2C([H])([H])C([H])([H])C([H])([H])C([H])(n3nc(-c4c([H])c([H])c(Oc5c([H])c([H])c(F)c([H])c5F)c([H])c4[H])c(C(=O)N([H])[H])c3N([H])[H])C2([H])[H])c1[H]

>  <smiles>  (49) 
[H]c1c([H])c(SC2([H])C([H])([H])C([H])([H])[N+]([H])(C([H])([H])C([H])([H])Oc3c([H])c([H])c4c(c3[H])C([H])([H])N(C(=O)C([H])(N([H])C(=O)C([H])(N([H])C([H])([H])[H])C([H])([H])[H])C(C([H])([H])[H])(C([H])([H])[H])C([H])([H])[H])C([H])(C(=O)N([H])C3([H])c5c([H])c([H])c([H])c([H])c5C([H])([H])C([H])([H])C3([H])[H])C4([H])[H])C([H])([H])C2([H])[H])c([H])c(N([H])C(=O)N2C([H])([H])C([H])([H])C([H])([H])C([H])(n3nc(-c4c([H])c([H])c(Oc5c([H])c([H])c(F)c([H])c5F)c([H])c4[H])c(C(=O)N([H])[H])c3N([H])[H])C2([H])[H])c1[H]

$$$$
49:0:0
     RDKit          3D

 92 99  0  0  1  0  0  0  0  0999 V2000
  -29.0600  -19.8660   19.7060 C   0  0  0  0  0  0  0  0  0  0  0  0
  -28.9810  -21.2510   20.2540 N   0  0  0  0  0  0  0  0  0  0  0  0
  -28.5970  -19.7370   18.5730 O   0  0  0  0  0  0  0  0  0  0  0  0
  -29.3160  -21.2750   21.2100 H   0  0  0  0  0  0  0  0  0  0  0  0
  -28.6990  -22.8160   19.6890 C   0  0  0  0  0  2  0  0  0  0  0  0
  -27.9930  -24.3450   20.3730 C   0  0  0  0  0  2  0  0  0  0  0  0
  -28.1480  -25.9810   20.1090 O   0  0  0  0  0  0  0  0  0  0  0  0
  -24.5820  -31.9230   23.2180 C   0  0  0  0  0  0  0  0  0  0  0  0
  -27.1140  -27.0620   20.1410 C   0  0  0  0  0  0  0  0  0  0  0  0
  -23.3700  -30.5320   21.5880 C   0  0  0  0  0  3  0  0  0  0  0  0
  -24.8050  -28.9380   20.1390 C   0  0  0  0  0  0  0  0  0  0  0  0
  -25.9340  -30.7530   21.4050 C   0  0  0  0  0  2  0  0  0  0  0  0
  -26.0020  -29.3450   20.7420 C   0  0  0  0  0  0  0  0  0  0  0  0
  -27.1520  -28.4320   20.7100 C   0  0  0  0  0  3  0  0  0  0  0  0
  -25.8810  -26.8050   19.5010 C   0  0  0  0  0  3  0  0  0  0  0  0
  -24.7690  -27.6880   19.4980 C   0  0  0  0  0  3  0  0  0  0  0  0
  -23.5840  -29.8560   20.2060 C   0  0  0  0  0  2  0  0  0  0  0  0
  -24.6520  -31.0970   22.1240 N   0  0  0  0  0  0  0  0  0  0  0  0
  -23.4990  -32.2030   23.7570 O   0  0  0  0  0  0  0  0  0  0  0  0
  -22.6940  -29.5280   22.5580 C   0  0  0  0  0  0  0  0  0  0  0  0
  -21.3670  -29.3410   22.4350 N   0  0  0  0  0  0  0  0  0  0  0  0
  -23.3710  -28.9170   23.3890 O   0  0  0  0  0  0  0  0  0  0  0  0
  -20.8730  -29.8850   21.7420 H   0  0  0  0  0  0  0  0  0  0  0  0
  -18.0090  -28.0620   22.9420 C   0  0  0  0  0  0  0  0  0  0  0  0
  -20.5620  -28.3900   23.2100 C   0  0  0  0  0  3  0  0  0  0  0  0
  -20.6980  -26.9570   22.6450 C   0  0  0  0  0  2  0  0  0  0  0  0
  -19.6060  -26.6020   21.6300 C   0  0  0  0  0  2  0  0  0  0  0  0
  -18.2200  -26.7150   22.2700 C   0  0  0  0  0  2  0  0  0  0  0  0
  -19.1070  -28.8550   23.3690 C   0  0  0  0  0  0  0  0  0  0  0  0
  -18.8540  -30.1110   23.9590 C   0  0  0  0  0  3  0  0  0  0  0  0
  -17.5360  -30.5770   24.1260 C   0  0  0  0  0  3  0  0  0  0  0  0
  -16.4520  -29.7830   23.7130 C   0  0  0  0  0  3  0  0  0  0  0  0
  -16.6890  -28.5270   23.1270 C   0  0  0  0  0  3  0  0  0  0  0  0
  -25.8590  -32.5680   23.8380 C   0  0  0  0  0  3  0  0  0  0  0  0
  -25.5480  -33.9720   24.1580 N   0  0  0  0  0  0  0  0  0  0  0  0
  -25.8930  -35.0260   23.4070 C   0  0  0  0  0  0  0  0  0  0  0  0
  -26.5680  -34.9180   22.3800 O   0  0  0  0  0  0  0  0  0  0  0  0
  -24.9490  -34.1300   24.9560 H   0  0  0  0  0  0  0  0  0  0  0  0
  -24.1940  -36.8490   23.0380 C   0  0  0  0  0  1  0  0  0  0  0  0
  -25.4160  -36.4210   23.8650 C   0  0  0  0  0  3  0  0  0  0  0  0
  -27.5430  -37.2840   24.7410 C   0  0  0  0  0  1  0  0  0  0  0  0
  -26.4650  -37.4620   23.7720 N   0  0  0  0  0  0  0  0  0  0  0  0
  -26.0660  -38.3880   23.9080 H   0  0  0  0  0  0  0  0  0  0  0  0
  -26.3660  -31.8170   25.1310 C   0  0  1  0  0  0  0  0  0  0  0  0
  -25.2670  -31.6000   26.1980 C   0  0  0  0  0  1  0  0  0  0  0  0
  -26.9480  -30.4310   24.7730 C   0  0  0  0  0  1  0  0  0  0  0  0
  -27.5150  -32.6200   25.7850 C   0  0  0  0  0  1  0  0  0  0  0  0
  -29.7520  -18.3680   20.3320 C   0  0  0  0  0  0  0  0  0  0  0  0
  -30.3340  -15.4620   19.8720 C   0  0  0  0  0  0  0  0  0  0  0  0
  -30.2880  -13.0240   18.9530 C   0  0  0  0  0  2  0  0  0  0  0  0
  -29.2870  -12.7920   17.7920 C   0  0  0  0  0  2  0  0  0  0  0  0
  -27.8770  -12.4960   18.3320 C   0  0  0  0  0  2  0  0  0  0  0  0
  -27.4880  -13.4500   19.4890 C   0  0  0  0  0  3  0  0  0  0  0  0
  -28.6090  -13.6150   20.5360 C   0  0  0  0  0  2  0  0  0  0  0  0
  -29.7740  -14.1520   19.8130 N   0  0  0  0  0  0  0  0  0  0  0  0
  -31.5510  -15.4650   19.6390 O   0  0  0  0  0  0  0  0  0  0  0  0
  -29.5530  -16.7260   19.9950 N   0  0  0  0  0  4  0  0  0  0  0  0
  -28.5690  -16.5080   19.9690 H   0  0  0  0  0  0  0  0  0  0  0  0
  -25.1830  -13.9770   20.4400 C   0  0  0  0  0  0  0  0  0  0  0  0
  -24.1500  -13.1860   20.8570 C   0  0  0  0  0  0  0  0  0  0  0  0
  -24.6120  -11.8380   20.7420 C   0  0  0  0  0  0  0  0  0  0  0  0
  -26.2030  -13.1130   20.0870 N   0  0  0  0  0  0  0  0  0  0  0  0
  -25.8780  -11.8180   20.3380 N   0  0  0  0  0  0  0  0  0  0  0  0
  -23.8970  -10.5700   20.9350 C   0  0  0  0  0  0  0  0  0  0  0  0
  -24.3690   -9.5830   21.8290 C   0  0  0  0  0  3  0  0  0  0  0  0
  -23.6510   -8.3820   22.0130 C   0  0  0  0  0  3  0  0  0  0  0  0
  -22.4470   -8.1580   21.3040 C   0  0  0  0  0  0  0  0  0  0  0  0
  -21.9950   -9.1330   20.3980 C   0  0  0  0  0  3  0  0  0  0  0  0
  -22.7120  -10.3260   20.2120 C   0  0  0  0  0  3  0  0  0  0  0  0
  -21.6970   -7.0110   21.3990 O   0  0  0  0  0  0  0  0  0  0  0  0
  -21.6690   -6.2640   22.5500 C   0  0  0  0  0  0  0  0  0  0  0  0
  -21.2340   -6.8050   23.7790 C   0  0  0  0  0  3  0  0  0  0  0  0
  -21.1550   -5.9830   24.9210 C   0  0  0  0  0  3  0  0  0  0  0  0
  -21.5000   -4.6220   24.8350 C   0  0  0  0  0  0  0  0  0  0  0  0
  -21.9280   -4.0790   23.6100 C   0  0  0  0  0  3  0  0  0  0  0  0
  -22.0080   -4.8990   22.4700 C   0  0  0  0  0  0  0  0  0  0  0  0
  -22.4010   -4.3660   21.2880 F   0  0  0  0  0  0  0  0  0  0  0  0
  -21.4170   -3.8300   25.9290 F   0  0  0  0  0  0  0  0  0  0  0  0
  -22.7760  -13.6520   21.2380 C   0  0  0  0  0  0  0  0  0  0  0  0
  -22.1050  -12.9220   22.1210 N   0  0  0  0  0  0  0  0  0  0  0  0
  -22.3100  -14.6990   20.7880 O   0  0  0  0  0  0  0  0  0  0  0  0
  -22.4990  -12.0760   22.5050 H   0  0  0  0  0  0  0  0  0  0  0  0
  -21.1860  -13.2160   22.4200 H   0  0  0  0  0  0  0  0  0  0  0  0
  -25.3310  -15.3540   20.2990 N   0  0  0  0  0  0  0  0  0  0  0  0
  -24.5620  -15.9930   20.4730 H   0  0  0  0  0  0  0  0  0  0  0  0
  -26.1280  -15.8050   19.8720 H   0  0  0  0  0  0  0  0  0  0  0  0
  -29.8990  -18.5220   21.8690 C   0  0  0  0  0  2  0  0  0  0  0  0
  -31.2650  -18.1090   22.4220 C   0  0  0  0  0  0  0  0  0  0  0  0
  -31.3240  -17.0340   23.1990 N   0  0  0  0  0  0  0  0  0  0  0  0
  -32.2750  -18.7540   22.1460 O   0  0  0  0  0  0  0  0  0  0  0  0
  -30.4860  -16.5190   23.4340 H   0  0  0  0  0  0  0  0  0  0  0  0
  -32.2080  -16.7300   23.5830 H   0  0  0  0  0  0  0  0  0  0  0  0
  1  2  1  0
  1 48  1  0
  2  4  1  0
  3  1  2  0
  5  2  1  0
  5  6  1  0
  7  9  1  0
  7  6  1  0
  8 19  2  0
  9 14  1  0
 10 18  1  0
 10 20  1  0
 11 17  1  0
 11 13  1  0
 12 18  1  0
 13 12  1  0
 14 13  2  0
 15  9  2  0
 16 15  1  0
 16 11  2  0
 17 10  1  0
 18  8  1  0
 20 22  2  0
 21 20  1  0
 23 21  1  0
 24 33  2  0
 24 29  1  0
 25 21  1  0
 25 29  1  0
 26 25  1  0
 27 28  1  0
 27 26  1  0
 28 24  1  0
 29 30  2  0
 30 31  1  0
 32 31  2  0
 33 32  1  0
 34  8  1  0
 34 35  1  0
 34 44  1  0
 35 38  1  0
 36 40  1  0
 36 35  1  0
 37 36  2  0
 40 39  1  0
 42 40  1  0
 42 43  1  0
 42 41  1  0
 44 47  1  1
 44 45  1  0
 46 44  1  0
 48 87  1  0
 49 57  1  0
 50 55  1  0
 51 52  1  0
 51 50  1  0
 53 52  1  0
 53 62  1  0
 53 54  1  0
 55 49  1  0
 55 54  1  0
 56 49  2  0
 57 48  2  0
 58 57  1  0
 59 60  2  0
 60 79  1  0
 61 60  1  0
 61 64  1  0
 62 63  1  0
 62 59  1  0
 63 61  2  0
 64 65  1  0
 65 66  2  0
 67 70  1  0
 67 66  1  0
 68 67  2  0
 69 68  1  0
 69 64  2  0
 70 71  1  0
 71 72  1  0
 72 73  2  0
 74 73  1  0
 74 78  1  0
 75 74  2  0
 76 71  2  0
 76 75  1  0
 77 76  1  0
 79 80  1  0
 80 83  1  0
 80 82  1  0
 81 79  2  0
 84 59  1  0
 84 85  1  0
 86 84  1  0
 87 88  1  0
 88 89  1  0
 89 91  1  0
 89 92  1  0
 90 88  2  0
M  ISO  4   6 101   7 101  49 100  57 100
M  END
>  <TORSDO>  (50) 
F 21

>  <SCORE>  (50) 
-14.370

>  <name>  (50) 
49

>  <ligand_id>  (50) 
49

>  <original_smiles>  (50) 
[H]c1c([H])c([H])c2c(c1[H])C([H])([H])C([H])([H])C([H])([H])C2([H])N([H])C(=O)C1([H])N(C(=O)C([H])(N([H])C(=O)C([H])(N([H])C([H])([H])[H])C([H])([H])[H])C(C([H])([H])[H])(C([H])([H])[H])C([H])([H])[H])C([H])([H])c2c([H])c(OC([H])([H])C([H])([H])N([H])C(=O)C([H])(N([H])C(=O)N3C([H])([H])C([H])([H])C([H])([H])C([H])(n4nc(-c5c([H])c([H])c(Oc6c([H])c([H])c(F)c([H])c6F)c([H])c5[H])c(C(=O)N([H])[H])c4N([H])[H])C3([H])[H])C([H])([H])C(=O)N([H])[H])c([H])c([H])c2C1([H])[H]

>  <smiles>  (50) 
[H]c1c([H])c([H])c2c(c1[H])C([H])([H])C([H])([H])C([H])([H])C2([H])N([H])C(=O)C1([H])N(C(=O)C([H])(N([H])C(=O)C([H])(N([H])C([H])([H])[H])C([H])([H])[H])C(C([H])([H])[H])(C([H])([H])[H])C([H])([H])[H])C([H])([H])c2c([H])c(OC([H])([H])C([H])([H])N([H])C(=O)C([H])(N([H])C(=O)N3C([H])([H])C([H])([H])C([H])([H])C([H])(n4nc(-c5c([H])c([H])c(Oc6c([H])c([H])c(F)c([H])c6F)c([H])c5[H])c(C(=O)N([H])[H])c4N([H])[H])C3([H])[H])C([H])([H])C(=O)N([H])[H])c([H])c([H])c2C1([H])[H]

$$$$
50:0:0
     RDKit          3D

 88 95  0  0  1  0  0  0  0  0999 V2000
  -28.8130  -21.8000   20.7880 C   0  0  0  0  0  3  0  0  0  0  0  0
  -28.7190  -23.0610   20.2740 C   0  0  0  0  0  3  0  0  0  0  0  0
  -29.4970  -20.6920   20.0990 C   0  0  0  0  0  0  0  0  0  0  0  0
  -29.4140  -19.5070   20.7500 N   0  0  0  0  0  0  0  0  0  0  0  0
  -30.0420  -20.7850   18.9970 O   0  0  0  0  0  0  0  0  0  0  0  0
  -28.9680  -19.5360   21.6570 H   0  0  0  0  0  0  0  0  0  0  0  0
  -29.6700  -18.1470   20.1990 C   0  0  0  0  0  2  0  0  0  0  0  0
  -30.4110  -17.1670   21.1730 C   0  0  0  0  0  2  0  0  0  0  0  0
  -29.8980  -15.6790   21.2450 C   0  0  0  0  0  2  0  0  0  0  0  0
  -30.6060  -14.5470   20.4330 C   0  0  0  0  0  0  0  0  0  0  0  0
  -30.3400  -12.3950   19.2100 C   0  0  0  0  0  2  0  0  0  0  0  0
  -29.3670  -12.5960   18.0290 C   0  0  0  0  0  2  0  0  0  0  0  0
  -27.9000  -12.4440   18.4800 C   0  0  0  0  0  2  0  0  0  0  0  0
  -27.5850  -13.2600   19.7610 C   0  0  0  0  0  3  0  0  0  0  0  0
  -28.6580  -13.0090   20.8440 C   0  0  0  0  0  2  0  0  0  0  0  0
  -29.9680  -13.3500   20.2670 N   0  0  0  0  0  0  0  0  0  0  0  0
  -31.7010  -14.7710   19.9080 O   0  0  0  0  0  0  0  0  0  0  0  0
  -25.1960  -13.8760   20.4950 C   0  0  0  0  0  0  0  0  0  0  0  0
  -24.1300  -13.1070   20.8790 C   0  0  0  0  0  0  0  0  0  0  0  0
  -24.5890  -11.7550   20.8470 C   0  0  0  0  0  0  0  0  0  0  0  0
  -26.2360  -12.9910   20.2560 N   0  0  0  0  0  0  0  0  0  0  0  0
  -25.8740  -11.7110   20.5230 N   0  0  0  0  0  0  0  0  0  0  0  0
  -23.8610  -10.4940   21.0500 C   0  0  0  0  0  0  0  0  0  0  0  0
  -24.3180   -9.5190   21.9640 C   0  0  0  0  0  3  0  0  0  0  0  0
  -23.5930   -8.3230   22.1540 C   0  0  0  0  0  3  0  0  0  0  0  0
  -22.3980   -8.0940   21.4310 C   0  0  0  0  0  0  0  0  0  0  0  0
  -21.9610   -9.0580   20.5060 C   0  0  0  0  0  3  0  0  0  0  0  0
  -22.6850  -10.2460   20.3140 C   0  0  0  0  0  3  0  0  0  0  0  0
  -21.6430   -6.9510   21.5320 O   0  0  0  0  0  0  0  0  0  0  0  0
  -21.6400   -6.1890   22.6730 C   0  0  0  0  0  0  0  0  0  0  0  0
  -21.2850   -6.7270   23.9290 C   0  0  0  0  0  3  0  0  0  0  0  0
  -21.2300   -5.8910   25.0620 C   0  0  0  0  0  3  0  0  0  0  0  0
  -21.5160   -4.5180   24.9410 C   0  0  0  0  0  0  0  0  0  0  0  0
  -21.8650   -3.9790   23.6900 C   0  0  0  0  0  3  0  0  0  0  0  0
  -21.9240   -4.8120   22.5590 C   0  0  0  0  0  0  0  0  0  0  0  0
  -22.2390   -4.2840   21.3520 F   0  0  0  0  0  0  0  0  0  0  0  0
  -21.4550   -3.7140   26.0280 F   0  0  0  0  0  0  0  0  0  0  0  0
  -22.7380  -13.5880   21.1670 C   0  0  0  0  0  0  0  0  0  0  0  0
  -22.0190  -12.8970   22.0460 N   0  0  0  0  0  0  0  0  0  0  0  0
  -22.2940  -14.6110   20.6480 O   0  0  0  0  0  0  0  0  0  0  0  0
  -22.3920  -12.0710   22.4900 H   0  0  0  0  0  0  0  0  0  0  0  0
  -21.0850  -13.2010   22.2800 H   0  0  0  0  0  0  0  0  0  0  0  0
  -25.3630  -15.2460   20.3110 N   0  0  0  0  0  0  0  0  0  0  0  0
  -24.6010  -15.9050   20.4290 H   0  0  0  0  0  0  0  0  0  0  0  0
  -26.2140  -15.6810   19.9790 H   0  0  0  0  0  0  0  0  0  0  0  0
  -27.9000  -24.2180   20.8920 C   0  0  0  0  0  2  0  0  0  0  0  0
  -28.5930  -25.6070   21.1090 C   0  0  0  0  0  2  0  0  0  0  0  0
  -28.3920  -26.6430   20.1170 O   0  0  0  0  0  0  0  0  0  0  0  0
  -24.6080  -31.8850   23.2620 C   0  0  0  0  0  0  0  0  0  0  0  0
  -27.2360  -27.4000   20.1970 C   0  0  0  0  0  0  0  0  0  0  0  0
  -23.3990  -30.4810   21.6260 C   0  0  0  0  0  3  0  0  0  0  0  0
  -24.8490  -28.9330   20.2060 C   0  0  0  0  0  0  0  0  0  0  0  0
  -25.9270  -30.8280   21.4260 C   0  0  0  0  0  2  0  0  0  0  0  0
  -26.0100  -29.4490   20.7940 C   0  0  0  0  0  0  0  0  0  0  0  0
  -27.2090  -28.6900   20.7880 C   0  0  0  0  0  3  0  0  0  0  0  0
  -26.0600  -26.9100   19.5950 C   0  0  0  0  0  3  0  0  0  0  0  0
  -24.8690  -27.6630   19.6030 C   0  0  0  0  0  3  0  0  0  0  0  0
  -23.6070  -29.7960   20.2480 C   0  0  0  0  0  2  0  0  0  0  0  0
  -24.6630  -31.0810   22.1620 N   0  0  0  0  0  0  0  0  0  0  0  0
  -23.5280  -32.1590   23.8040 O   0  0  0  0  0  0  0  0  0  0  0  0
  -22.7460  -29.4640   22.5900 C   0  0  0  0  0  0  0  0  0  0  0  0
  -21.4210  -29.2820   22.4670 N   0  0  0  0  0  0  0  0  0  0  0  0
  -23.4300  -28.8400   23.4060 O   0  0  0  0  0  0  0  0  0  0  0  0
  -20.9290  -29.8370   21.7810 H   0  0  0  0  0  0  0  0  0  0  0  0
  -18.0470  -28.0840   22.9680 C   0  0  0  0  0  0  0  0  0  0  0  0
  -20.6050  -28.3460   23.2400 C   0  0  0  0  0  3  0  0  0  0  0  0
  -20.7100  -26.9130   22.6680 C   0  0  0  0  0  2  0  0  0  0  0  0
  -19.6090  -26.5860   21.6540 C   0  0  0  0  0  2  0  0  0  0  0  0
  -18.2260  -26.7310   22.2970 C   0  0  0  0  0  2  0  0  0  0  0  0
  -19.1650  -28.8480   23.3970 C   0  0  0  0  0  0  0  0  0  0  0  0
  -18.9450  -30.1140   23.9830 C   0  0  0  0  0  3  0  0  0  0  0  0
  -17.6390  -30.6150   24.1460 C   0  0  0  0  0  3  0  0  0  0  0  0
  -16.5360  -29.8460   23.7340 C   0  0  0  0  0  3  0  0  0  0  0  0
  -16.7410  -28.5840   23.1510 C   0  0  0  0  0  3  0  0  0  0  0  0
  -25.8960  -32.5180   23.8780 C   0  0  0  0  0  3  0  0  0  0  0  0
  -25.5880  -33.9160   24.2090 N   0  0  0  0  0  0  0  0  0  0  0  0
  -25.9180  -34.9670   23.4460 C   0  0  0  0  0  0  0  0  0  0  0  0
  -26.5830  -34.8620   22.4130 O   0  0  0  0  0  0  0  0  0  0  0  0
  -24.9960  -34.0710   25.0120 H   0  0  0  0  0  0  0  0  0  0  0  0
  -24.1860  -36.7570   23.1000 C   0  0  0  0  0  1  0  0  0  0  0  0
  -25.4330  -36.3550   23.9040 C   0  0  0  0  0  3  0  0  0  0  0  0
  -27.5740  -37.2420   24.7160 C   0  0  0  0  0  1  0  0  0  0  0  0
  -26.4630  -37.4090   23.7820 N   0  0  0  0  0  0  0  0  0  0  0  0
  -26.0580  -38.3290   23.9320 H   0  0  0  0  0  0  0  0  0  0  0  0
  -26.4180  -31.7450   25.1510 C   0  0  1  0  0  0  0  0  0  0  0  0
  -25.3310  -31.5090   26.2250 C   0  0  0  0  0  1  0  0  0  0  0  0
  -26.9960  -30.3660   24.7550 C   0  0  0  0  0  1  0  0  0  0  0  0
  -27.5730  -32.5370   25.8070 C   0  0  0  0  0  1  0  0  0  0  0  0
  2  1  2  0
  2 46  1  0
  3  4  1  0
  3  1  1  0
  4  6  1  0
  5  3  2  0
  7  4  1  0
  7  8  1  0
  8  9  1  0
 10  9  1  0
 11 16  1  0
 12 13  1  0
 12 11  1  0
 14 13  1  0
 14 21  1  0
 14 15  1  0
 16 10  1  0
 16 15  1  0
 17 10  2  0
 18 19  2  0
 19 38  1  0
 20 19  1  0
 20 23  1  0
 21 18  1  0
 21 22  1  0
 22 20  2  0
 23 24  1  0
 24 25  2  0
 26 29  1  0
 26 25  1  0
 27 26  2  0
 28 27  1  0
 28 23  2  0
 29 30  1  0
 30 31  1  0
 31 32  2  0
 33 32  1  0
 33 37  1  0
 34 33  2  0
 35 30  2  0
 35 34  1  0
 36 35  1  0
 38 39  1  0
 39 42  1  0
 39 41  1  0
 40 38  2  0
 43 44  1  0
 43 18  1  0
 45 43  1  0
 46 47  1  0
 48 50  1  0
 48 47  1  0
 49 60  2  0
 50 55  1  0
 51 59  1  0
 51 61  1  0
 52 58  1  0
 52 54  1  0
 53 59  1  0
 54 53  1  0
 55 54  2  0
 56 57  1  0
 56 50  2  0
 57 52  2  0
 58 51  1  0
 59 49  1  0
 61 63  2  0
 62 61  1  0
 64 62  1  0
 65 74  2  0
 65 70  1  0
 66 62  1  0
 66 70  1  0
 67 66  1  0
 68 69  1  0
 68 67  1  0
 69 65  1  0
 70 71  2  0
 71 72  1  0
 73 72  2  0
 74 73  1  0
 75 49  1  0
 75 76  1  0
 75 85  1  0
 76 79  1  0
 77 81  1  0
 77 76  1  0
 78 77  2  0
 81 80  1  0
 83 81  1  0
 83 84  1  0
 83 82  1  0
 85 88  1  1
 85 86  1  0
 87 85  1  0
M  ISO  4   9 100  10 100  47 101  48 101
M  END
>  <TORSDO>  (51) 
F 22

>  <SCORE>  (51) 
-13.156

>  <name>  (51) 
50

>  <ligand_id>  (51) 
50

>  <original_smiles>  (51) 
[H]C(C(=O)N([H])C([H])([H])C([H])([H])C([H])([H])C(=O)N1C([H])([H])C([H])([H])C([H])([H])C([H])(n2nc(-c3c([H])c([H])c(Oc4c([H])c([H])c(F)c([H])c4F)c([H])c3[H])c(C(=O)N([H])[H])c2N([H])[H])C1([H])[H])=C([H])C([H])([H])C([H])([H])Oc1c([H])c([H])c2c(c1[H])C([H])([H])N(C(=O)C([H])(N([H])C(=O)C([H])(N([H])C([H])([H])[H])C([H])([H])[H])C(C([H])([H])[H])(C([H])([H])[H])C([H])([H])[H])C([H])(C(=O)N([H])C1([H])c3c([H])c([H])c([H])c([H])c3C([H])([H])C([H])([H])C1([H])[H])C2([H])[H]

>  <smiles>  (51) 
[H]C(C(=O)N([H])C([H])([H])C([H])([H])C([H])([H])C(=O)N1C([H])([H])C([H])([H])C([H])([H])C([H])(n2nc(-c3c([H])c([H])c(Oc4c([H])c([H])c(F)c([H])c4F)c([H])c3[H])c(C(=O)N([H])[H])c2N([H])[H])C1([H])[H])=C([H])C([H])([H])C([H])([H])Oc1c([H])c([H])c2c(c1[H])C([H])([H])N(C(=O)C([H])(N([H])C(=O)C([H])(N([H])C([H])([H])[H])C([H])([H])[H])C(C([H])([H])[H])(C([H])([H])[H])C([H])([H])[H])C([H])(C(=O)N([H])C1([H])c3c([H])c([H])c([H])c([H])c3C([H])([H])C([H])([H])C1([H])[H])C2([H])[H]

$$$$
51:0:0
     RDKit          3D

 83 90  0  0  1  0  0  0  0  0999 V2000
  -28.0300  -24.3430   20.4890 C   0  0  0  0  0  3  0  0  0  0  0  0
  -28.2350  -25.9400   20.2140 O   0  0  0  0  0  0  0  0  0  0  0  0
  -24.6090  -31.8440   23.1680 C   0  0  0  0  0  0  0  0  0  0  0  0
  -27.1940  -26.9920   20.1990 C   0  0  0  0  0  0  0  0  0  0  0  0
  -23.4220  -30.4310   21.5380 C   0  0  0  0  0  3  0  0  0  0  0  0
  -24.8780  -28.8260   20.1340 C   0  0  0  0  0  0  0  0  0  0  0  0
  -25.9840  -30.6670   21.3880 C   0  0  0  0  0  2  0  0  0  0  0  0
  -26.0630  -29.2550   20.7470 C   0  0  0  0  0  0  0  0  0  0  0  0
  -27.2190  -28.3600   20.7510 C   0  0  0  0  0  3  0  0  0  0  0  0
  -25.9780  -26.7010   19.5450 C   0  0  0  0  0  3  0  0  0  0  0  0
  -24.8580  -27.5680   19.5130 C   0  0  0  0  0  3  0  0  0  0  0  0
  -23.6550  -29.7380   20.1680 C   0  0  0  0  0  2  0  0  0  0  0  0
  -24.6920  -31.0070   22.0850 N   0  0  0  0  0  0  0  0  0  0  0  0
  -23.5180  -32.1320   23.6870 O   0  0  0  0  0  0  0  0  0  0  0  0
  -22.7330  -29.4380   22.5100 C   0  0  0  0  0  0  0  0  0  0  0  0
  -21.4030  -29.2760   22.3920 N   0  0  0  0  0  0  0  0  0  0  0  0
  -23.4030  -28.8120   23.3360 O   0  0  0  0  0  0  0  0  0  0  0  0
  -20.9160  -29.8290   21.7020 H   0  0  0  0  0  0  0  0  0  0  0  0
  -18.0210  -28.0740   22.9180 C   0  0  0  0  0  0  0  0  0  0  0  0
  -20.5820  -28.3420   23.1710 C   0  0  0  0  0  3  0  0  0  0  0  0
  -20.6820  -26.9060   22.6030 C   0  0  0  0  0  2  0  0  0  0  0  0
  -19.5750  -26.5790   21.5940 C   0  0  0  0  0  2  0  0  0  0  0  0
  -18.1960  -26.7230   22.2440 C   0  0  0  0  0  2  0  0  0  0  0  0
  -19.1410  -28.8410   23.3390 C   0  0  0  0  0  0  0  0  0  0  0  0
  -18.9200  -30.1030   23.9330 C   0  0  0  0  0  3  0  0  0  0  0  0
  -17.6140  -30.5990   24.1070 C   0  0  0  0  0  3  0  0  0  0  0  0
  -16.5100  -29.8310   23.7000 C   0  0  0  0  0  3  0  0  0  0  0  0
  -16.7140  -28.5700   23.1110 C   0  0  0  0  0  3  0  0  0  0  0  0
  -25.8770  -32.4960   23.7970 C   0  0  0  0  0  3  0  0  0  0  0  0
  -26.4000  -31.7260   25.0730 C   0  0  1  0  0  0  0  0  0  0  0  0
  -25.3110  -31.4780   26.1420 C   0  0  0  0  0  1  0  0  0  0  0  0
  -26.9950  -30.3540   24.6840 C   0  0  0  0  0  1  0  0  0  0  0  0
  -27.5460  -32.5280   25.7350 C   0  0  0  0  0  1  0  0  0  0  0  0
  -25.5450  -33.8890   24.1470 N   0  0  0  0  0  0  0  0  0  0  0  0
  -25.8560  -34.9600   23.4060 C   0  0  0  0  0  0  0  0  0  0  0  0
  -26.5180  -34.8830   22.3670 O   0  0  0  0  0  0  0  0  0  0  0  0
  -24.9540  -34.0210   24.9540 H   0  0  0  0  0  0  0  0  0  0  0  0
  -24.0990  -36.7410   23.1110 C   0  0  0  0  0  1  0  0  0  0  0  0
  -25.3600  -36.3370   23.8930 C   0  0  0  0  0  3  0  0  0  0  0  0
  -27.4980  -37.2400   24.6970 C   0  0  0  0  0  1  0  0  0  0  0  0
  -26.3760  -37.4060   23.7780 N   0  0  0  0  0  0  0  0  0  0  0  0
  -25.9600  -38.3190   23.9470 H   0  0  0  0  0  0  0  0  0  0  0  0
  -28.8560  -22.8490   19.9770 C   0  0  0  0  0  3  0  0  0  0  0  0
  -28.8920  -21.1690   20.5880 C   0  0  0  0  0  3  0  0  0  0  0  0
  -29.3590  -19.6470   19.7980 C   0  0  0  0  0  3  0  0  0  0  0  0
  -29.5500  -16.5720   20.2770 C   0  0  0  0  0  2  0  0  0  0  0  0
  -29.8060  -18.0240   20.2420 C   0  0  0  0  0  2  0  0  0  0  0  0
  -30.4440  -15.2280   20.2500 C   0  0  0  0  0  0  0  0  0  0  0  0
  -30.4210  -12.7880   19.3970 C   0  0  0  0  0  2  0  0  0  0  0  0
  -29.4960  -12.6170   18.1650 C   0  0  0  0  0  2  0  0  0  0  0  0
  -28.0420  -12.3580   18.6020 C   0  0  0  0  0  2  0  0  0  0  0  0
  -27.5980  -13.3170   19.7340 C   0  0  0  0  0  3  0  0  0  0  0  0
  -28.6480  -13.4420   20.8560 C   0  0  0  0  0  2  0  0  0  0  0  0
  -29.8940  -13.9190   20.2380 N   0  0  0  0  0  0  0  0  0  0  0  0
  -31.6640  -15.2340   20.0360 O   0  0  0  0  0  0  0  0  0  0  0  0
  -25.2280  -13.8750   20.4970 C   0  0  0  0  0  0  0  0  0  0  0  0
  -24.1700  -13.0950   20.8740 C   0  0  0  0  0  0  0  0  0  0  0  0
  -24.6420  -11.7470   20.8470 C   0  0  0  0  0  0  0  0  0  0  0  0
  -26.2720  -13.0010   20.2500 N   0  0  0  0  0  0  0  0  0  0  0  0
  -25.9320  -11.7160   20.5300 N   0  0  0  0  0  0  0  0  0  0  0  0
  -23.9190  -10.4830   21.0430 C   0  0  0  0  0  0  0  0  0  0  0  0
  -24.3650   -9.5120   21.9660 C   0  0  0  0  0  3  0  0  0  0  0  0
  -23.6390   -8.3150   22.1520 C   0  0  0  0  0  3  0  0  0  0  0  0
  -22.4540   -8.0800   21.4150 C   0  0  0  0  0  0  0  0  0  0  0  0
  -22.0270   -9.0410   20.4800 C   0  0  0  0  0  3  0  0  0  0  0  0
  -22.7530  -10.2280   20.2920 C   0  0  0  0  0  3  0  0  0  0  0  0
  -21.7000   -6.9360   21.5100 O   0  0  0  0  0  0  0  0  0  0  0  0
  -21.6800   -6.1800   22.6550 C   0  0  0  0  0  0  0  0  0  0  0  0
  -21.3060   -6.7260   23.9020 C   0  0  0  0  0  3  0  0  0  0  0  0
  -21.2320   -5.8970   25.0390 C   0  0  0  0  0  3  0  0  0  0  0  0
  -21.5230   -4.5240   24.9320 C   0  0  0  0  0  0  0  0  0  0  0  0
  -21.8910   -3.9780   23.6880 C   0  0  0  0  0  3  0  0  0  0  0  0
  -21.9660   -4.8040   22.5530 C   0  0  0  0  0  0  0  0  0  0  0  0
  -22.3000   -4.2680   21.3550 F   0  0  0  0  0  0  0  0  0  0  0  0
  -21.4450   -3.7260   26.0220 F   0  0  0  0  0  0  0  0  0  0  0  0
  -22.7720  -13.5690   21.1430 C   0  0  0  0  0  0  0  0  0  0  0  0
  -22.0480  -12.8770   22.0160 N   0  0  0  0  0  0  0  0  0  0  0  0
  -22.3310  -14.5900   20.6150 O   0  0  0  0  0  0  0  0  0  0  0  0
  -22.4190  -12.0530   22.4640 H   0  0  0  0  0  0  0  0  0  0  0  0
  -21.1100  -13.1770   22.2380 H   0  0  0  0  0  0  0  0  0  0  0  0
  -25.3840  -15.2450   20.3150 N   0  0  0  0  0  0  0  0  0  0  0  0
  -24.6130  -15.8950   20.4290 H   0  0  0  0  0  0  0  0  0  0  0  0
  -26.2230  -15.6880   19.9630 H   0  0  0  0  0  0  0  0  0  0  0  0
  2  1  1  0
  3 14  2  0
  4  2  1  0
  4  9  1  0
  5 13  1  0
  5 15  1  0
  6 12  1  0
  6  8  1  0
  7 13  1  0
  8  9  2  0
  8  7  1  0
 10  4  2  0
 11 10  1  0
 11  6  2  0
 12  5  1  0
 13  3  1  0
 15 17  2  0
 16 15  1  0
 18 16  1  0
 19 28  2  0
 19 24  1  0
 20 16  1  0
 20 24  1  0
 21 20  1  0
 22 23  1  0
 22 21  1  0
 23 19  1  0
 24 25  2  0
 25 26  1  0
 27 26  2  0
 28 27  1  0
 29  3  1  0
 29 34  1  0
 29 30  1  0
 30 33  1  1
 30 31  1  0
 32 30  1  0
 34 37  1  0
 35 39  1  0
 35 34  1  0
 36 35  2  0
 39 38  1  0
 41 39  1  0
 41 42  1  0
 41 40  1  0
 43  1  2  0
 43 44  1  0
 45 47  1  0
 45 44  2  0
 47 46  1  0
 48 46  1  0
 49 54  1  0
 50 51  1  0
 50 49  1  0
 52 51  1  0
 52 59  1  0
 52 53  1  0
 54 48  1  0
 54 53  1  0
 55 48  2  0
 56 57  2  0
 57 76  1  0
 58 57  1  0
 58 61  1  0
 59 56  1  0
 59 60  1  0
 60 58  2  0
 61 62  1  0
 62 63  2  0
 64 67  1  0
 64 63  1  0
 65 64  2  0
 66 65  1  0
 66 61  2  0
 67 68  1  0
 68 69  1  0
 69 70  2  0
 71 70  1  0
 71 75  1  0
 72 71  2  0
 73 68  2  0
 73 72  1  0
 74 73  1  0
 76 77  1  0
 77 80  1  0
 77 79  1  0
 78 76  2  0
 81 82  1  0
 81 56  1  0
 83 81  1  0
M  ISO  4   1 101   2 101  46 100  48 100
M  END
>  <TORSDO>  (52) 
F 20

>  <SCORE>  (52) 
-15.327

>  <name>  (52) 
51

>  <ligand_id>  (52) 
51

>  <original_smiles>  (52) 
[H]C(C(=O)N1C([H])([H])C([H])([H])C([H])([H])C([H])(n2nc(-c3c([H])c([H])c(Oc4c([H])c([H])c(F)c([H])c4F)c([H])c3[H])c(C(=O)N([H])[H])c2N([H])[H])C1([H])[H])=C([H])C([H])([H])C([H])([H])C([H])([H])C([H])([H])Oc1c([H])c([H])c2c(c1[H])C([H])([H])N(C(=O)C([H])(N([H])C(=O)C([H])(N([H])C([H])([H])[H])C([H])([H])[H])C(C([H])([H])[H])(C([H])([H])[H])C([H])([H])[H])C([H])(C(=O)N([H])C1([H])c3c([H])c([H])c([H])c([H])c3C([H])([H])C([H])([H])C1([H])[H])C2([H])[H]

>  <smiles>  (52) 
[H]C(C(=O)N1C([H])([H])C([H])([H])C([H])([H])C([H])(n2nc(-c3c([H])c([H])c(Oc4c([H])c([H])c(F)c([H])c4F)c([H])c3[H])c(C(=O)N([H])[H])c2N([H])[H])C1([H])[H])=C([H])C([H])([H])C([H])([H])C([H])([H])C([H])([H])Oc1c([H])c([H])c2c(c1[H])C([H])([H])N(C(=O)C([H])(N([H])C(=O)C([H])(N([H])C([H])([H])[H])C([H])([H])[H])C(C([H])([H])[H])(C([H])([H])[H])C([H])([H])[H])C([H])(C(=O)N([H])C1([H])c3c([H])c([H])c([H])c([H])c3C([H])([H])C([H])([H])C1([H])[H])C2([H])[H]

$$$$
52:0:0
     RDKit          3D

 99106  0  0  1  0  0  0  0  0999 V2000
  -30.0650  -19.3360   22.5380 C   0  0  0  0  0  2  0  0  0  0  0  0
  -31.4290  -18.7810   22.0930 C   0  0  0  0  0  0  0  0  0  0  0  0
  -31.6710  -17.4590   22.1030 N   0  0  0  0  0  0  0  0  0  0  0  0
  -32.3340  -19.5690   21.8170 O   0  0  0  0  0  0  0  0  0  0  0  0
  -32.6430  -17.1950   22.0100 H   0  0  0  0  0  0  0  0  0  0  0  0
  -30.7080  -16.3800   21.8230 C   0  0  0  0  0  2  0  0  0  0  0  0
  -30.6400  -16.0540   20.2970 C   0  0  0  0  0  3  0  0  0  0  0  0
  -31.1790  -14.6430   19.8960 C   0  0  0  0  0  0  0  0  0  0  0  0
  -30.7800  -12.3720   19.0290 C   0  0  0  0  0  2  0  0  0  0  0  0
  -29.8210  -12.4500   17.8270 C   0  0  0  0  0  2  0  0  0  0  0  0
  -28.3610  -12.3680   18.3130 C   0  0  0  0  0  2  0  0  0  0  0  0
  -28.0510  -13.3640   19.4650 C   0  0  0  0  0  3  0  0  0  0  0  0
  -29.1390  -13.3040   20.5640 C   0  0  0  0  0  2  0  0  0  0  0  0
  -30.4460  -13.4950   19.9250 N   0  0  0  0  0  0  0  0  0  0  0  0
  -32.3220  -14.6400   19.4190 O   0  0  0  0  0  0  0  0  0  0  0  0
  -25.7220  -14.0700   20.3150 C   0  0  0  0  0  0  0  0  0  0  0  0
  -24.6390  -13.3490   20.7340 C   0  0  0  0  0  0  0  0  0  0  0  0
  -25.0280  -11.9820   20.6360 C   0  0  0  0  0  0  0  0  0  0  0  0
  -26.7120  -13.1490   20.0090 N   0  0  0  0  0  0  0  0  0  0  0  0
  -26.2970  -11.8800   20.2570 N   0  0  0  0  0  0  0  0  0  0  0  0
  -24.2360  -10.7580   20.8070 C   0  0  0  0  0  0  0  0  0  0  0  0
  -24.6240   -9.7580   21.7260 C   0  0  0  0  0  3  0  0  0  0  0  0
  -23.8340   -8.6020   21.8990 C   0  0  0  0  0  3  0  0  0  0  0  0
  -22.6430   -8.4420   21.1520 C   0  0  0  0  0  0  0  0  0  0  0  0
  -22.2770   -9.4270   20.2180 C   0  0  0  0  0  3  0  0  0  0  0  0
  -23.0680  -10.5750   20.0440 C   0  0  0  0  0  3  0  0  0  0  0  0
  -21.8240   -7.3450   21.2380 O   0  0  0  0  0  0  0  0  0  0  0  0
  -21.7000   -6.6300   22.4010 C   0  0  0  0  0  0  0  0  0  0  0  0
  -21.2540   -7.2270   23.6020 C   0  0  0  0  0  3  0  0  0  0  0  0
  -21.0830   -6.4380   24.7570 C   0  0  0  0  0  3  0  0  0  0  0  0
  -21.3370   -5.0540   24.7080 C   0  0  0  0  0  0  0  0  0  0  0  0
  -21.7690   -4.4580   23.5110 C   0  0  0  0  0  3  0  0  0  0  0  0
  -21.9480   -5.2430   22.3610 C   0  0  0  0  0  0  0  0  0  0  0  0
  -22.3480   -4.6600   21.2040 F   0  0  0  0  0  0  0  0  0  0  0  0
  -21.1580   -4.2970   25.8160 F   0  0  0  0  0  0  0  0  0  0  0  0
  -23.2890  -13.9000   21.0960 C   0  0  0  0  0  0  0  0  0  0  0  0
  -22.5740  -13.2200   21.9870 N   0  0  0  0  0  0  0  0  0  0  0  0
  -22.8780  -14.9550   20.6130 O   0  0  0  0  0  0  0  0  0  0  0  0
  -22.9180  -12.3600   22.3910 H   0  0  0  0  0  0  0  0  0  0  0  0
  -21.6590  -13.5520   22.2680 H   0  0  0  0  0  0  0  0  0  0  0  0
  -25.9230  -15.4280   20.1550 N   0  0  0  0  0  0  0  0  0  0  0  0
  -25.2330  -16.1060   20.4520 H   0  0  0  0  0  0  0  0  0  0  0  0
  -26.8330  -15.8150   19.9560 H   0  0  0  0  0  0  0  0  0  0  0  0
  -29.3870  -16.5910   19.6080 C   0  0  0  0  0  0  0  0  0  0  0  0
  -28.2460  -16.7680   20.3000 N   0  0  0  0  0  0  0  0  0  0  0  0
  -29.4480  -17.0360   18.3300 N   0  0  0  0  0  4  0  0  0  0  0  0
  -28.1210  -16.3790   21.2250 H   0  0  0  0  0  0  0  0  0  0  0  0
  -27.5300  -17.4320   20.0380 H   0  0  0  0  0  0  0  0  0  0  0  0
  -30.3160  -17.0440   17.8100 H   0  0  0  0  0  0  0  0  0  0  0  0
  -28.6770  -17.4480   17.8250 H   0  0  0  0  0  0  0  0  0  0  0  0
  -29.0930  -19.7550   21.4060 C   0  0  0  0  0  2  0  0  0  0  0  0
  -29.3420  -21.0930   20.6770 C   0  0  0  0  0  2  0  0  0  0  0  0
  -29.2640  -22.3630   21.5510 C   0  0  0  0  0  2  0  0  0  0  0  0
  -28.9180  -24.7780   20.9910 C   0  0  0  0  0  0  0  0  0  0  0  0
  -29.2950  -23.5330   20.6780 N   0  0  0  0  0  0  0  0  0  0  0  0
  -28.5690  -25.1100   22.1300 O   0  0  0  0  0  0  0  0  0  0  0  0
  -29.5920  -23.3900   19.7230 H   0  0  0  0  0  0  0  0  0  0  0  0
  -28.9360  -25.7640   19.8070 C   0  0  0  0  0  2  0  0  0  0  0  0
  -28.7670  -27.1170   20.2380 O   0  0  0  0  0  0  0  0  0  0  0  0
  -24.6990  -31.9810   23.3850 C   0  0  0  0  0  0  0  0  0  0  0  0
  -27.5290  -27.7270   20.2190 C   0  0  0  0  0  0  0  0  0  0  0  0
  -23.5560  -30.5900   21.6860 C   0  0  0  0  0  3  0  0  0  0  0  0
  -25.0740  -29.1390   20.2470 C   0  0  0  0  0  0  0  0  0  0  0  0
  -26.0690  -31.0340   21.5370 C   0  0  0  0  0  2  0  0  0  0  0  0
  -26.2030  -29.6900   20.8590 C   0  0  0  0  0  0  0  0  0  0  0  0
  -27.4290  -28.9920   20.8380 C   0  0  0  0  0  3  0  0  0  0  0  0
  -26.3710  -27.1800   19.6050 C   0  0  0  0  0  3  0  0  0  0  0  0
  -25.1500  -27.8810   19.6220 C   0  0  0  0  0  3  0  0  0  0  0  0
  -23.8050  -29.9560   20.2940 C   0  0  0  0  0  2  0  0  0  0  0  0
  -24.7900  -31.2150   22.2600 N   0  0  0  0  0  0  0  0  0  0  0  0
  -23.6070  -32.2100   23.9190 O   0  0  0  0  0  0  0  0  0  0  0  0
  -22.9280  -29.5210   22.6080 C   0  0  0  0  0  0  0  0  0  0  0  0
  -21.6120  -29.3060   22.4550 N   0  0  0  0  0  0  0  0  0  0  0  0
  -23.6200  -28.8900   23.4110 O   0  0  0  0  0  0  0  0  0  0  0  0
  -21.1150  -29.8720   21.7800 H   0  0  0  0  0  0  0  0  0  0  0  0
  -18.2650  -28.0240   22.9030 C   0  0  0  0  0  0  0  0  0  0  0  0
  -20.8150  -28.3260   23.1890 C   0  0  0  0  0  3  0  0  0  0  0  0
  -20.9470  -26.9170   22.5680 C   0  0  0  0  0  2  0  0  0  0  0  0
  -19.8560  -26.6040   21.5390 C   0  0  0  0  0  2  0  0  0  0  0  0
  -18.4700  -26.7000   22.1840 C   0  0  0  0  0  2  0  0  0  0  0  0
  -19.3660  -28.7930   23.3630 C   0  0  0  0  0  0  0  0  0  0  0  0
  -19.1230  -30.0280   23.9970 C   0  0  0  0  0  3  0  0  0  0  0  0
  -17.8090  -30.4990   24.1700 C   0  0  0  0  0  3  0  0  0  0  0  0
  -16.7210  -29.7300   23.7250 C   0  0  0  0  0  3  0  0  0  0  0  0
  -16.9490  -28.4940   23.0970 C   0  0  0  0  0  3  0  0  0  0  0  0
  -25.9620  -32.6280   24.0330 C   0  0  0  0  0  3  0  0  0  0  0  0
  -26.4610  -31.8640   25.3220 C   0  0  1  0  0  0  0  0  0  0  0  0
  -25.3430  -31.6020   26.3570 C   0  0  0  0  0  1  0  0  0  0  0  0
  -27.0830  -30.4980   24.9430 C   0  0  0  0  0  1  0  0  0  0  0  0
  -27.5750  -32.6810   26.0170 C   0  0  0  0  0  1  0  0  0  0  0  0
  -25.6260  -34.0210   24.3520 N   0  0  0  0  0  0  0  0  0  0  0  0
  -25.9620  -35.0750   23.5980 C   0  0  0  0  0  0  0  0  0  0  0  0
  -26.6540  -34.9760   22.5800 O   0  0  0  0  0  0  0  0  0  0  0  0
  -25.0080  -34.1690   25.1360 H   0  0  0  0  0  0  0  0  0  0  0  0
  -24.2080  -36.8290   23.1840 C   0  0  0  0  0  1  0  0  0  0  0  0
  -25.4350  -36.4540   24.0310 C   0  0  0  0  0  3  0  0  0  0  0  0
  -27.5290  -37.3790   24.9160 C   0  0  0  0  0  1  0  0  0  0  0  0
  -26.4520  -37.5240   23.9430 N   0  0  0  0  0  0  0  0  0  0  0  0
  -26.0250  -38.4360   24.0790 H   0  0  0  0  0  0  0  0  0  0  0  0
  2  3  1  0
  2  1  1  0
  4  2  2  0
  5  3  1  0
  6  3  1  0
  7  6  1  0
  8 14  1  0
  8  7  1  0
  9 14  1  0
 10 11  1  0
 10  9  1  0
 12 11  1  0
 12 19  1  0
 12 13  1  0
 14 13  1  0
 15  8  2  0
 16 17  2  0
 17 36  1  0
 18 17  1  0
 18 21  1  0
 19 20  1  0
 19 16  1  0
 20 18  2  0
 21 22  1  0
 22 23  2  0
 24 27  1  0
 24 23  1  0
 25 24  2  0
 26 25  1  0
 26 21  2  0
 27 28  1  0
 28 29  1  0
 29 30  2  0
 31 30  1  0
 31 35  1  0
 32 31  2  0
 33 28  2  0
 33 32  1  0
 34 33  1  0
 36 37  1  0
 37 40  1  0
 37 39  1  0
 38 36  2  0
 41 16  1  0
 41 42  1  0
 43 41  1  0
 44  7  1  0
 44 45  1  0
 45 47  1  0
 46 44  2  0
 48 45  1  0
 49 46  1  0
 50 46  1  0
 51  1  1  0
 52 51  1  0
 52 53  1  0
 54 56  2  0
 55 54  1  0
 55 53  1  0
 57 55  1  0
 58 59  1  0
 58 54  1  0
 60 71  2  0
 61 59  1  0
 61 66  1  0
 62 70  1  0
 62 72  1  0
 63 69  1  0
 63 65  1  0
 64 70  1  0
 65 64  1  0
 66 65  2  0
 67 68  1  0
 67 61  2  0
 68 63  2  0
 69 62  1  0
 70 60  1  0
 72 74  2  0
 73 72  1  0
 75 73  1  0
 76 85  2  0
 76 81  1  0
 77 73  1  0
 77 81  1  0
 78 77  1  0
 79 80  1  0
 79 78  1  0
 80 76  1  0
 81 82  2  0
 82 83  1  0
 84 83  2  0
 85 84  1  0
 86 60  1  0
 86 91  1  0
 86 87  1  0
 87 90  1  1
 87 88  1  0
 89 87  1  0
 91 94  1  0
 92 96  1  0
 92 91  1  0
 93 92  2  0
 96 95  1  0
 98 96  1  0
 98 99  1  0
 98 97  1  0
M  ISO  4   7 100   8 100  58 101  59 101
M  END
>  <TORSDO>  (53) 
F 25

>  <SCORE>  (53) 
-10.826

>  <name>  (53) 
52

>  <ligand_id>  (53) 
52

>  <original_smiles>  (53) 
[H]c1c([H])c([H])c2c(c1[H])C([H])([H])C([H])([H])C([H])([H])C2([H])N([H])C(=O)C1([H])N(C(=O)C([H])(N([H])C(=O)C([H])(N([H])C([H])([H])[H])C([H])([H])[H])C(C([H])([H])[H])(C([H])([H])[H])C([H])([H])[H])C([H])([H])c2c([H])c(OC([H])([H])C(=O)N([H])C([H])([H])C([H])([H])C([H])([H])C([H])([H])C(=O)N([H])C([H])([H])C([H])(C(=O)N3C([H])([H])C([H])([H])C([H])([H])C([H])(n4nc(-c5c([H])c([H])c(Oc6c([H])c([H])c(F)c([H])c6F)c([H])c5[H])c(C(=O)N([H])[H])c4N([H])[H])C3([H])[H])C(N([H])[H])=[N+]([H])[H])c([H])c([H])c2C1([H])[H]

>  <smiles>  (53) 
[H]c1c([H])c([H])c2c(c1[H])C([H])([H])C([H])([H])C([H])([H])C2([H])N([H])C(=O)C1([H])N(C(=O)C([H])(N([H])C(=O)C([H])(N([H])C([H])([H])[H])C([H])([H])[H])C(C([H])([H])[H])(C([H])([H])[H])C([H])([H])[H])C([H])([H])c2c([H])c(OC([H])([H])C(=O)N([H])C([H])([H])C([H])([H])C([H])([H])C([H])([H])C(=O)N([H])C([H])([H])C([H])(C(=O)N3C([H])([H])C([H])([H])C([H])([H])C([H])(n4nc(-c5c([H])c([H])c(Oc6c([H])c([H])c(F)c([H])c6F)c([H])c5[H])c(C(=O)N([H])[H])c4N([H])[H])C3([H])[H])C(N([H])[H])=[N+]([H])[H])c([H])c([H])c2C1([H])[H]

$$$$
53:0:0
     RDKit          3D

 87 94  0  0  1  0  0  0  0  0999 V2000
  -28.6430  -21.9270   20.2880 C   0  0  0  0  0  3  0  0  0  0  0  0
  -28.8960  -23.3340   20.2490 C   0  0  0  0  0  3  0  0  0  0  0  0
  -29.6550  -20.7480   20.3530 C   0  0  0  0  0  0  0  0  0  0  0  0
  -29.2720  -19.3700   20.3700 N   0  0  0  0  0  0  0  0  0  0  0  0
  -30.8630  -20.9890   20.3600 O   0  0  0  0  0  0  0  0  0  0  0  0
  -28.2720  -19.2210   20.4070 H   0  0  0  0  0  0  0  0  0  0  0  0
  -30.6040  -18.0060   18.7350 C   0  0  0  0  0  1  0  0  0  0  0  0
  -30.1380  -18.0340   20.2020 C   0  0  0  0  0  3  0  0  0  0  0  0
  -29.6570  -16.4550   20.6290 C   0  0  0  0  0  2  0  0  0  0  0  0
  -30.4830  -15.0200   20.3480 C   0  0  0  0  0  0  0  0  0  0  0  0
  -30.3720  -12.6690   19.3800 C   0  0  0  0  0  2  0  0  0  0  0  0
  -29.4350  -12.6560   18.1480 C   0  0  0  0  0  2  0  0  0  0  0  0
  -27.9710  -12.4420   18.5750 C   0  0  0  0  0  2  0  0  0  0  0  0
  -27.5700  -13.3480   19.7680 C   0  0  0  0  0  3  0  0  0  0  0  0
  -28.6260  -13.3390   20.8910 C   0  0  0  0  0  2  0  0  0  0  0  0
  -29.9060  -13.7480   20.3010 N   0  0  0  0  0  0  0  0  0  0  0  0
  -31.6800  -15.0730   20.0390 O   0  0  0  0  0  0  0  0  0  0  0  0
  -25.1880  -13.9210   20.5090 C   0  0  0  0  0  0  0  0  0  0  0  0
  -24.1250  -13.1440   20.8780 C   0  0  0  0  0  0  0  0  0  0  0  0
  -24.5920  -11.7940   20.8500 C   0  0  0  0  0  0  0  0  0  0  0  0
  -26.2330  -13.0450   20.2680 N   0  0  0  0  0  0  0  0  0  0  0  0
  -25.8840  -11.7610   20.5400 N   0  0  0  0  0  0  0  0  0  0  0  0
  -23.8680  -10.5300   21.0410 C   0  0  0  0  0  0  0  0  0  0  0  0
  -24.3000   -9.5640   21.9740 C   0  0  0  0  0  3  0  0  0  0  0  0
  -23.5730   -8.3670   22.1540 C   0  0  0  0  0  3  0  0  0  0  0  0
  -22.4000   -8.1280   21.4000 C   0  0  0  0  0  0  0  0  0  0  0  0
  -21.9860   -9.0840   20.4550 C   0  0  0  0  0  3  0  0  0  0  0  0
  -22.7130  -10.2720   20.2740 C   0  0  0  0  0  3  0  0  0  0  0  0
  -21.6450   -6.9830   21.4880 O   0  0  0  0  0  0  0  0  0  0  0  0
  -21.5970   -6.2410   22.6410 C   0  0  0  0  0  0  0  0  0  0  0  0
  -21.1650   -6.7940   23.8650 C   0  0  0  0  0  3  0  0  0  0  0  0
  -21.0630   -5.9770   25.0100 C   0  0  0  0  0  3  0  0  0  0  0  0
  -21.3830   -4.6090   24.9300 C   0  0  0  0  0  0  0  0  0  0  0  0
  -21.8090   -4.0550   23.7100 C   0  0  0  0  0  3  0  0  0  0  0  0
  -21.9110   -4.8690   22.5670 C   0  0  0  0  0  0  0  0  0  0  0  0
  -22.3010   -4.3250   21.3890 F   0  0  0  0  0  0  0  0  0  0  0  0
  -21.2790   -3.8230   26.0270 F   0  0  0  0  0  0  0  0  0  0  0  0
  -22.7270  -13.6190   21.1450 C   0  0  0  0  0  0  0  0  0  0  0  0
  -21.9980  -12.9250   22.0130 N   0  0  0  0  0  0  0  0  0  0  0  0
  -22.2880  -14.6410   20.6200 O   0  0  0  0  0  0  0  0  0  0  0  0
  -22.3660  -12.0990   22.4590 H   0  0  0  0  0  0  0  0  0  0  0  0
  -21.0600  -13.2260   22.2350 H   0  0  0  0  0  0  0  0  0  0  0  0
  -25.3490  -15.2920   20.3310 N   0  0  0  0  0  0  0  0  0  0  0  0
  -24.5820  -15.9460   20.4470 H   0  0  0  0  0  0  0  0  0  0  0  0
  -26.2000  -15.7340   20.0080 H   0  0  0  0  0  0  0  0  0  0  0  0
  -27.8760  -24.6270   20.0910 C   0  0  0  0  0  2  0  0  0  0  0  0
  -28.2180  -26.1480   20.2620 O   0  0  0  0  0  0  0  0  0  0  0  0
  -24.6260  -31.8960   23.2340 C   0  0  0  0  0  0  0  0  0  0  0  0
  -27.1780  -27.1590   20.1950 C   0  0  0  0  0  0  0  0  0  0  0  0
  -23.4200  -30.5070   21.5960 C   0  0  0  0  0  3  0  0  0  0  0  0
  -24.8610  -28.9300   20.1660 C   0  0  0  0  0  0  0  0  0  0  0  0
  -25.9770  -30.7570   21.4310 C   0  0  0  0  0  2  0  0  0  0  0  0
  -26.0440  -29.3650   20.7760 C   0  0  0  0  0  0  0  0  0  0  0  0
  -27.2050  -28.4960   20.7720 C   0  0  0  0  0  3  0  0  0  0  0  0
  -25.9660  -26.8350   19.5450 C   0  0  0  0  0  3  0  0  0  0  0  0
  -24.8360  -27.6790   19.5350 C   0  0  0  0  0  3  0  0  0  0  0  0
  -23.6380  -29.8340   20.2160 C   0  0  0  0  0  2  0  0  0  0  0  0
  -24.6940  -31.0760   22.1410 N   0  0  0  0  0  0  0  0  0  0  0  0
  -23.5410  -32.1850   23.7620 O   0  0  0  0  0  0  0  0  0  0  0  0
  -22.7360  -29.5020   22.5560 C   0  0  0  0  0  0  0  0  0  0  0  0
  -21.4090  -29.3300   22.4250 N   0  0  0  0  0  0  0  0  0  0  0  0
  -23.4040  -28.8790   23.3860 O   0  0  0  0  0  0  0  0  0  0  0  0
  -20.9260  -29.8840   21.7310 H   0  0  0  0  0  0  0  0  0  0  0  0
  -18.0270  -28.1250   22.9130 C   0  0  0  0  0  0  0  0  0  0  0  0
  -20.5830  -28.3950   23.1950 C   0  0  0  0  0  3  0  0  0  0  0  0
  -20.6920  -26.9600   22.6280 C   0  0  0  0  0  2  0  0  0  0  0  0
  -19.5970  -26.6290   21.6090 C   0  0  0  0  0  2  0  0  0  0  0  0
  -18.2110  -26.7740   22.2430 C   0  0  0  0  0  2  0  0  0  0  0  0
  -19.1410  -28.8930   23.3450 C   0  0  0  0  0  0  0  0  0  0  0  0
  -18.9130  -30.1560   23.9330 C   0  0  0  0  0  3  0  0  0  0  0  0
  -17.6060  -30.6520   24.0920 C   0  0  0  0  0  3  0  0  0  0  0  0
  -16.5060  -29.8810   23.6740 C   0  0  0  0  0  3  0  0  0  0  0  0
  -16.7170  -28.6190   23.0910 C   0  0  0  0  0  3  0  0  0  0  0  0
  -25.9060  -32.5260   23.8610 C   0  0  0  0  0  3  0  0  0  0  0  0
  -26.4160  -31.7520   25.1380 C   0  0  1  0  0  0  0  0  0  0  0  0
  -25.3210  -31.5180   26.2050 C   0  0  0  0  0  1  0  0  0  0  0  0
  -26.9950  -30.3710   24.7500 C   0  0  0  0  0  1  0  0  0  0  0  0
  -27.5700  -32.5400   25.8020 C   0  0  0  0  0  1  0  0  0  0  0  0
  -25.5960  -33.9250   24.2010 N   0  0  0  0  0  0  0  0  0  0  0  0
  -25.9110  -34.9840   23.4430 C   0  0  0  0  0  0  0  0  0  0  0  0
  -26.5580  -34.8870   22.3970 O   0  0  0  0  0  0  0  0  0  0  0  0
  -25.0190  -34.0730   25.0160 H   0  0  0  0  0  0  0  0  0  0  0  0
  -24.1630  -36.7730   23.1520 C   0  0  0  0  0  1  0  0  0  0  0  0
  -25.4340  -36.3710   23.9190 C   0  0  0  0  0  3  0  0  0  0  0  0
  -27.5900  -37.2670   24.6820 C   0  0  0  0  0  1  0  0  0  0  0  0
  -26.4570  -37.4290   23.7740 N   0  0  0  0  0  0  0  0  0  0  0  0
  -26.0510  -38.3470   23.9330 H   0  0  0  0  0  0  0  0  0  0  0  0
  1  3  1  0
  2  1  2  0
  3  5  2  0
  3  4  1  0
  4  6  1  0
  8  7  1  0
  8  4  1  0
  8  9  1  0
 10  9  1  0
 11 16  1  0
 12 13  1  0
 12 11  1  0
 14 13  1  0
 14 21  1  0
 14 15  1  0
 16 10  1  0
 16 15  1  0
 17 10  2  0
 18 19  2  0
 19 38  1  0
 20 19  1  0
 20 23  1  0
 21 18  1  0
 21 22  1  0
 22 20  2  0
 23 24  1  0
 24 25  2  0
 26 29  1  0
 26 25  1  0
 27 26  2  0
 28 27  1  0
 28 23  2  0
 29 30  1  0
 30 31  1  0
 31 32  2  0
 33 32  1  0
 33 37  1  0
 34 33  2  0
 35 30  2  0
 35 34  1  0
 36 35  1  0
 38 39  1  0
 39 42  1  0
 39 41  1  0
 40 38  2  0
 43 44  1  0
 43 18  1  0
 45 43  1  0
 46  2  1  0
 46 47  1  0
 48 59  2  0
 49 47  1  0
 49 54  1  0
 50 58  1  0
 50 60  1  0
 51 57  1  0
 51 53  1  0
 52 58  1  0
 53 52  1  0
 54 53  2  0
 55 49  2  0
 56 55  1  0
 56 51  2  0
 57 50  1  0
 58 48  1  0
 60 62  2  0
 61 60  1  0
 63 61  1  0
 64 73  2  0
 64 69  1  0
 65 61  1  0
 65 69  1  0
 66 65  1  0
 67 68  1  0
 67 66  1  0
 68 64  1  0
 69 70  2  0
 70 71  1  0
 72 71  2  0
 73 72  1  0
 74 48  1  0
 74 79  1  0
 74 75  1  0
 75 78  1  1
 75 76  1  0
 77 75  1  0
 79 82  1  0
 80 84  1  0
 80 79  1  0
 81 80  2  0
 84 83  1  0
 86 84  1  0
 86 87  1  0
 86 85  1  0
M  ISO  4   9 100  10 100  46 101  47 101
M  END
>  <TORSDO>  (54) 
F 20

>  <SCORE>  (54) 
-14.313

>  <name>  (54) 
53

>  <ligand_id>  (54) 
53

>  <original_smiles>  (54) 
[H]C(C(=O)N([H])C([H])(C([H])([H])[H])C([H])([H])C(=O)N1C([H])([H])C([H])([H])C([H])([H])C([H])(n2nc(-c3c([H])c([H])c(Oc4c([H])c([H])c(F)c([H])c4F)c([H])c3[H])c(C(=O)N([H])[H])c2N([H])[H])C1([H])[H])=C([H])C([H])([H])Oc1c([H])c([H])c2c(c1[H])C([H])([H])N(C(=O)C([H])(N([H])C(=O)C([H])(N([H])C([H])([H])[H])C([H])([H])[H])C(C([H])([H])[H])(C([H])([H])[H])C([H])([H])[H])C([H])(C(=O)N([H])C1([H])c3c([H])c([H])c([H])c([H])c3C([H])([H])C([H])([H])C1([H])[H])C2([H])[H]

>  <smiles>  (54) 
[H]C(C(=O)N([H])C([H])(C([H])([H])[H])C([H])([H])C(=O)N1C([H])([H])C([H])([H])C([H])([H])C([H])(n2nc(-c3c([H])c([H])c(Oc4c([H])c([H])c(F)c([H])c4F)c([H])c3[H])c(C(=O)N([H])[H])c2N([H])[H])C1([H])[H])=C([H])C([H])([H])Oc1c([H])c([H])c2c(c1[H])C([H])([H])N(C(=O)C([H])(N([H])C(=O)C([H])(N([H])C([H])([H])[H])C([H])([H])[H])C(C([H])([H])[H])(C([H])([H])[H])C([H])([H])[H])C([H])(C(=O)N([H])C1([H])c3c([H])c([H])c([H])c([H])c3C([H])([H])C([H])([H])C1([H])[H])C2([H])[H]

$$$$
54:0:0
     RDKit          3D

 92100  0  0  1  0  0  0  0  0999 V2000
  -27.9710  -24.3930   20.9310 C   0  0  0  0  0  3  0  0  0  0  0  0
  -26.7310  -24.3370   23.1290 C   0  0  0  0  0  1  0  0  0  0  0  0
  -28.2170  -23.0510   20.9960 N   0  0  0  0  0  0  0  0  0  0  0  0
  -27.2910  -24.9810   21.9310 N   0  0  0  0  0  0  0  0  0  0  0  0
  -27.8420  -22.5810   21.8060 H   0  0  0  0  0  0  0  0  0  0  0  0
  -27.1670  -25.9830   21.8550 H   0  0  0  0  0  0  0  0  0  0  0  0
  -28.4210  -25.2970   19.7920 C   0  0  0  0  0  2  0  0  0  0  0  0
  -28.3870  -26.7230   20.0990 O   0  0  0  0  0  0  0  0  0  0  0  0
  -24.5840  -31.9140   23.1930 C   0  0  0  0  0  0  0  0  0  0  0  0
  -27.2060  -27.4540   20.0710 C   0  0  0  0  0  0  0  0  0  0  0  0
  -23.3730  -30.5250   21.5460 C   0  0  0  0  0  3  0  0  0  0  0  0
  -24.8160  -28.9940   20.1040 C   0  0  0  0  0  0  0  0  0  0  0  0
  -25.9010  -30.8730   21.3430 C   0  0  0  0  0  2  0  0  0  0  0  0
  -25.9800  -29.5030   20.6910 C   0  0  0  0  0  0  0  0  0  0  0  0
  -27.1750  -28.7430   20.6680 C   0  0  0  0  0  3  0  0  0  0  0  0
  -26.0160  -26.9660   19.4810 C   0  0  0  0  0  3  0  0  0  0  0  0
  -24.8320  -27.7280   19.4960 C   0  0  0  0  0  3  0  0  0  0  0  0
  -23.5780  -29.8580   20.1600 C   0  0  0  0  0  2  0  0  0  0  0  0
  -24.6380  -31.1200   22.0850 N   0  0  0  0  0  0  0  0  0  0  0  0
  -23.5040  -32.1830   23.7390 O   0  0  0  0  0  0  0  0  0  0  0  0
  -22.7220  -29.4980   22.5000 C   0  0  0  0  0  0  0  0  0  0  0  0
  -21.3940  -29.3270   22.3840 N   0  0  0  0  0  0  0  0  0  0  0  0
  -23.4080  -28.8580   23.3010 O   0  0  0  0  0  0  0  0  0  0  0  0
  -20.9010  -29.8970   21.7100 H   0  0  0  0  0  0  0  0  0  0  0  0
  -18.0150  -28.1490   22.8940 C   0  0  0  0  0  0  0  0  0  0  0  0
  -20.5770  -28.3840   23.1480 C   0  0  0  0  0  3  0  0  0  0  0  0
  -20.6660  -26.9600   22.5510 C   0  0  0  0  0  2  0  0  0  0  0  0
  -19.5520  -26.6590   21.5430 C   0  0  0  0  0  2  0  0  0  0  0  0
  -18.1770  -26.8060   22.2010 C   0  0  0  0  0  2  0  0  0  0  0  0
  -19.1430  -28.8970   23.3250 C   0  0  0  0  0  0  0  0  0  0  0  0
  -18.9390  -30.1550   23.9330 C   0  0  0  0  0  3  0  0  0  0  0  0
  -17.6400  -30.6630   24.1160 C   0  0  0  0  0  3  0  0  0  0  0  0
  -16.5260  -29.9110   23.7030 C   0  0  0  0  0  3  0  0  0  0  0  0
  -16.7150  -28.6550   23.0970 C   0  0  0  0  0  3  0  0  0  0  0  0
  -25.8720  -32.5390   23.8150 C   0  0  0  0  0  3  0  0  0  0  0  0
  -25.5640  -33.9340   24.1590 N   0  0  0  0  0  0  0  0  0  0  0  0
  -25.8980  -34.9940   23.4100 C   0  0  0  0  0  0  0  0  0  0  0  0
  -26.5670  -34.9010   22.3770 O   0  0  0  0  0  0  0  0  0  0  0  0
  -24.9670  -34.0800   24.9600 H   0  0  0  0  0  0  0  0  0  0  0  0
  -24.1700  -36.7920   23.0740 C   0  0  0  0  0  1  0  0  0  0  0  0
  -25.4120  -36.3780   23.8800 C   0  0  0  0  0  3  0  0  0  0  0  0
  -27.5510  -37.2520   24.7140 C   0  0  0  0  0  1  0  0  0  0  0  0
  -26.4460  -37.4320   23.7750 N   0  0  0  0  0  0  0  0  0  0  0  0
  -26.0420  -38.3500   23.9350 H   0  0  0  0  0  0  0  0  0  0  0  0
  -26.3940  -31.7550   25.0800 C   0  0  1  0  0  0  0  0  0  0  0  0
  -25.3060  -31.5070   26.1520 C   0  0  0  0  0  1  0  0  0  0  0  0
  -26.9750  -30.3820   24.6690 C   0  0  0  0  0  1  0  0  0  0  0  0
  -27.5470  -32.5430   25.7460 C   0  0  0  0  0  1  0  0  0  0  0  0
  -28.9400  -22.1160   20.0950 C   0  0  0  0  0  2  0  0  0  0  0  0
  -30.1730  -20.3390   21.5910 C   0  0  0  0  0  2  0  0  0  0  0  0
  -29.0090  -20.6870   20.6910 C   0  0  0  0  0  3  0  0  0  0  0  0
  -30.0110  -19.5840   20.2880 C   0  0  0  0  0  3  0  0  0  0  0  0
  -30.3880  -17.2470   20.7790 C   0  0  0  0  0  0  0  0  0  0  0  0
  -31.8810  -17.4990   20.9750 C   0  0  0  0  0  1  0  0  0  0  0  0
  -29.5560  -18.1950   20.4920 N   0  0  0  0  0  0  0  0  0  0  0  0
  -29.9020  -15.7900   21.0610 C   0  0  0  0  0  2  0  0  0  0  0  0
  -30.6310  -14.5940   20.3480 C   0  0  0  0  0  0  0  0  0  0  0  0
  -30.3750  -12.4050   19.2040 C   0  0  0  0  0  2  0  0  0  0  0  0
  -29.4240  -12.5870   18.0010 C   0  0  0  0  0  2  0  0  0  0  0  0
  -27.9530  -12.4370   18.4370 C   0  0  0  0  0  2  0  0  0  0  0  0
  -27.6150  -13.2800   19.6950 C   0  0  0  0  0  3  0  0  0  0  0  0
  -28.6760  -13.0730   20.7990 C   0  0  0  0  0  2  0  0  0  0  0  0
  -29.9920  -13.3940   20.2270 N   0  0  0  0  0  0  0  0  0  0  0  0
  -31.7420  -14.7620   19.8350 O   0  0  0  0  0  0  0  0  0  0  0  0
  -25.2200  -13.8920   20.4070 C   0  0  0  0  0  0  0  0  0  0  0  0
  -24.1530  -13.1230   20.7840 C   0  0  0  0  0  0  0  0  0  0  0  0
  -24.6160  -11.7720   20.7670 C   0  0  0  0  0  0  0  0  0  0  0  0
  -26.2640  -13.0100   20.1810 N   0  0  0  0  0  0  0  0  0  0  0  0
  -25.9050  -11.7300   20.4560 N   0  0  0  0  0  0  0  0  0  0  0  0
  -23.8920  -10.5110   20.9710 C   0  0  0  0  0  0  0  0  0  0  0  0
  -24.3270   -9.5550   21.9140 C   0  0  0  0  0  3  0  0  0  0  0  0
  -23.6040   -8.3580   22.1060 C   0  0  0  0  0  3  0  0  0  0  0  0
  -22.4320   -8.1080   21.3520 C   0  0  0  0  0  0  0  0  0  0  0  0
  -22.0180   -9.0530   20.3970 C   0  0  0  0  0  3  0  0  0  0  0  0
  -22.7410  -10.2420   20.2050 C   0  0  0  0  0  3  0  0  0  0  0  0
  -21.6800   -6.9620   21.4500 O   0  0  0  0  0  0  0  0  0  0  0  0
  -21.6310   -6.2310   22.6100 C   0  0  0  0  0  0  0  0  0  0  0  0
  -21.2110   -6.8000   23.8320 C   0  0  0  0  0  3  0  0  0  0  0  0
  -21.1080   -5.9960   24.9850 C   0  0  0  0  0  3  0  0  0  0  0  0
  -21.4170   -4.6250   24.9170 C   0  0  0  0  0  0  0  0  0  0  0  0
  -21.8320   -4.0550   23.7000 C   0  0  0  0  0  3  0  0  0  0  0  0
  -21.9370   -4.8570   22.5500 C   0  0  0  0  0  0  0  0  0  0  0  0
  -22.3150   -4.2990   21.3750 F   0  0  0  0  0  0  0  0  0  0  0  0
  -21.3130   -3.8500   26.0220 F   0  0  0  0  0  0  0  0  0  0  0  0
  -22.7560  -13.6000   21.0550 C   0  0  0  0  0  0  0  0  0  0  0  0
  -22.0300  -12.9100   21.9270 N   0  0  0  0  0  0  0  0  0  0  0  0
  -22.3150  -14.6200   20.5260 O   0  0  0  0  0  0  0  0  0  0  0  0
  -22.4000  -12.0870   22.3770 H   0  0  0  0  0  0  0  0  0  0  0  0
  -21.0920  -13.2120   22.1510 H   0  0  0  0  0  0  0  0  0  0  0  0
  -25.3820  -15.2610   20.2170 N   0  0  0  0  0  0  0  0  0  0  0  0
  -24.6170  -15.9150   20.3280 H   0  0  0  0  0  0  0  0  0  0  0  0
  -26.2340  -15.7010   19.8900 H   0  0  0  0  0  0  0  0  0  0  0  0
  1  7  1  0
  1  3  1  0
  1  4  1  0
  3  5  1  0
  4  2  1  0
  6  4  1  0
  7  8  1  0
  9 20  2  0
 10  8  1  0
 10 15  1  0
 11 19  1  0
 11 21  1  0
 12 18  1  0
 12 14  1  0
 13 19  1  0
 14 13  1  0
 15 14  2  0
 16 17  1  0
 16 10  2  0
 17 12  2  0
 18 11  1  0
 19  9  1  0
 21 23  2  0
 22 21  1  0
 24 22  1  0
 25 34  2  0
 25 30  1  0
 26 22  1  0
 26 30  1  0
 27 26  1  0
 28 29  1  0
 28 27  1  0
 29 25  1  0
 30 31  2  0
 31 32  1  0
 33 32  2  0
 34 33  1  0
 35  9  1  0
 35 36  1  0
 35 45  1  0
 36 39  1  0
 37 41  1  0
 37 36  1  0
 38 37  2  0
 41 40  1  0
 43 41  1  0
 43 44  1  0
 43 42  1  0
 45 48  1  1
 45 46  1  0
 47 45  1  0
 49  3  1  0
 51 49  1  0
 51 50  1  0
 52 55  1  0
 52 51  1  0
 52 50  1  0
 53 54  1  0
 53 56  1  0
 55 53  2  0
 57 56  1  0
 58 63  1  0
 59 60  1  0
 59 58  1  0
 61 60  1  0
 61 68  1  0
 61 62  1  0
 63 57  1  0
 63 62  1  0
 64 57  2  0
 65 66  2  0
 66 85  1  0
 67 66  1  0
 67 70  1  0
 68 65  1  0
 68 69  1  0
 69 67  2  0
 70 71  1  0
 71 72  2  0
 73 76  1  0
 73 72  1  0
 74 73  2  0
 75 74  1  0
 75 70  2  0
 76 77  1  0
 77 78  1  0
 78 79  2  0
 80 79  1  0
 80 84  1  0
 81 80  2  0
 82 77  2  0
 82 81  1  0
 83 82  1  0
 85 86  1  0
 86 89  1  0
 86 88  1  0
 87 85  2  0
 90 91  1  0
 90 65  1  0
 92 90  1  0
M  ISO  4   7 101   8 101  56 100  57 100
M  END
>  <TORSDO>  (55) 
F 21

>  <SCORE>  (55) 
-12.724

>  <name>  (55) 
54

>  <ligand_id>  (55) 
54

>  <original_smiles>  (55) 
[H]c1c([H])c([H])c2c(c1[H])C([H])([H])C([H])([H])C([H])([H])C2([H])N([H])C(=O)C1([H])N(C(=O)C([H])(N([H])C(=O)C([H])(N([H])C([H])([H])[H])C([H])([H])[H])C(C([H])([H])[H])(C([H])([H])[H])C([H])([H])[H])C([H])([H])c2c([H])c(OC([H])([H])C(N([H])C([H])([H])C3([H])C([H])([H])C3([H])N=C(C([H])([H])[H])C([H])([H])C(=O)N3C([H])([H])C([H])([H])C([H])([H])C([H])(n4nc(-c5c([H])c([H])c(Oc6c([H])c([H])c(F)c([H])c6F)c([H])c5[H])c(C(=O)N([H])[H])c4N([H])[H])C3([H])[H])=[N+]([H])C([H])([H])[H])c([H])c([H])c2C1([H])[H]

>  <smiles>  (55) 
[H]c1c([H])c([H])c2c(c1[H])C([H])([H])C([H])([H])C([H])([H])C2([H])N([H])C(=O)C1([H])N(C(=O)C([H])(N([H])C(=O)C([H])(N([H])C([H])([H])[H])C([H])([H])[H])C(C([H])([H])[H])(C([H])([H])[H])C([H])([H])[H])C([H])([H])c2c([H])c(OC([H])([H])C(N([H])C([H])([H])C3([H])C([H])([H])C3([H])N=C(C([H])([H])[H])C([H])([H])C(=O)N3C([H])([H])C([H])([H])C([H])([H])C([H])(n4nc(-c5c([H])c([H])c(Oc6c([H])c([H])c(F)c([H])c6F)c([H])c5[H])c(C(=O)N([H])[H])c4N([H])[H])C3([H])[H])=[N+]([H])C([H])([H])[H])c([H])c([H])c2C1([H])[H]

$$$$
55:0:0
     RDKit          3D

 90 97  0  0  1  0  0  0  0  0999 V2000
  -29.1450  -21.8160   20.3410 C   0  0  0  0  0  3  0  0  0  0  0  0
  -29.4530  -23.1100   20.5840 C   0  0  0  0  0  3  0  0  0  0  0  0
  -29.7050  -20.7030   21.0370 C   0  0  0  0  0  0  0  0  0  0  0  0
  -30.4810  -20.9000   22.1160 N   0  0  0  0  0  4  0  0  0  0  0  0
  -29.4320  -19.4400   20.6300 N   0  0  0  0  0  0  0  0  0  0  0  0
  -30.6910  -21.8360   22.4300 H   0  0  0  0  0  0  0  0  0  0  0  0
  -30.9230  -20.1440   22.6100 H   0  0  0  0  0  0  0  0  0  0  0  0
  -28.8550  -19.3510   19.8050 H   0  0  0  0  0  0  0  0  0  0  0  0
  -29.6790  -18.1750   21.3650 C   0  0  0  0  0  2  0  0  0  0  0  0
  -30.1910  -17.0130   20.4760 C   0  0  0  0  0  2  0  0  0  0  0  0
  -30.1050  -15.6240   21.1720 C   0  0  0  0  0  2  0  0  0  0  0  0
  -30.6890  -14.4570   20.3370 C   0  0  0  0  0  0  0  0  0  0  0  0
  -30.3370  -12.3450   19.0990 C   0  0  0  0  0  2  0  0  0  0  0  0
  -29.3640  -12.6060   17.9310 C   0  0  0  0  0  2  0  0  0  0  0  0
  -27.8960  -12.4870   18.3910 C   0  0  0  0  0  2  0  0  0  0  0  0
  -27.6120  -13.2690   19.7030 C   0  0  0  0  0  3  0  0  0  0  0  0
  -28.6940  -12.9630   20.7620 C   0  0  0  0  0  2  0  0  0  0  0  0
  -30.0040  -13.2900   20.1760 N   0  0  0  0  0  0  0  0  0  0  0  0
  -31.7700  -14.6550   19.7710 O   0  0  0  0  0  0  0  0  0  0  0  0
  -25.2320  -13.8890   20.4620 C   0  0  0  0  0  0  0  0  0  0  0  0
  -24.1690  -13.1220   20.8530 C   0  0  0  0  0  0  0  0  0  0  0  0
  -24.6200  -11.7670   20.8070 C   0  0  0  0  0  0  0  0  0  0  0  0
  -26.2670  -13.0030   20.2060 N   0  0  0  0  0  0  0  0  0  0  0  0
  -25.9020  -11.7200   20.4660 N   0  0  0  0  0  0  0  0  0  0  0  0
  -23.8910  -10.5080   21.0100 C   0  0  0  0  0  0  0  0  0  0  0  0
  -24.3470   -9.5280   21.9190 C   0  0  0  0  0  3  0  0  0  0  0  0
  -23.6180   -8.3360   22.1110 C   0  0  0  0  0  3  0  0  0  0  0  0
  -22.4190   -8.1130   21.3920 C   0  0  0  0  0  0  0  0  0  0  0  0
  -21.9840   -9.0800   20.4700 C   0  0  0  0  0  3  0  0  0  0  0  0
  -22.7140  -10.2650   20.2780 C   0  0  0  0  0  3  0  0  0  0  0  0
  -21.6620   -6.9700   21.4920 O   0  0  0  0  0  0  0  0  0  0  0  0
  -21.6510   -6.2110   22.6340 C   0  0  0  0  0  0  0  0  0  0  0  0
  -21.2800   -6.7510   23.8840 C   0  0  0  0  0  3  0  0  0  0  0  0
  -21.2170   -5.9190   25.0200 C   0  0  0  0  0  3  0  0  0  0  0  0
  -21.5130   -4.5480   24.9050 C   0  0  0  0  0  0  0  0  0  0  0  0
  -21.8780   -4.0070   23.6600 C   0  0  0  0  0  3  0  0  0  0  0  0
  -21.9440   -4.8370   22.5270 C   0  0  0  0  0  0  0  0  0  0  0  0
  -22.2740   -4.3070   21.3250 F   0  0  0  0  0  0  0  0  0  0  0  0
  -21.4460   -3.7470   25.9930 F   0  0  0  0  0  0  0  0  0  0  0  0
  -22.7800  -13.6050   21.1620 C   0  0  0  0  0  0  0  0  0  0  0  0
  -22.0710  -12.9110   22.0450 N   0  0  0  0  0  0  0  0  0  0  0  0
  -22.3350  -14.6360   20.6570 O   0  0  0  0  0  0  0  0  0  0  0  0
  -22.4460  -12.0770   22.4760 H   0  0  0  0  0  0  0  0  0  0  0  0
  -21.1400  -13.2140   22.2930 H   0  0  0  0  0  0  0  0  0  0  0  0
  -25.4020  -15.2600   20.2850 N   0  0  0  0  0  0  0  0  0  0  0  0
  -24.6440  -15.9180   20.4200 H   0  0  0  0  0  0  0  0  0  0  0  0
  -26.2500  -15.6950   19.9430 H   0  0  0  0  0  0  0  0  0  0  0  0
  -28.9100  -24.3380   19.8510 C   0  0  0  0  0  2  0  0  0  0  0  0
  -28.3650  -25.4280   20.8010 C   0  0  0  0  0  2  0  0  0  0  0  0
  -28.4170  -26.7270   20.1940 O   0  0  0  0  0  0  0  0  0  0  0  0
  -24.5700  -31.8830   23.2440 C   0  0  0  0  0  0  0  0  0  0  0  0
  -27.2440  -27.4470   20.2030 C   0  0  0  0  0  0  0  0  0  0  0  0
  -23.3770  -30.4730   21.5980 C   0  0  0  0  0  3  0  0  0  0  0  0
  -24.8440  -28.9330   20.1910 C   0  0  0  0  0  0  0  0  0  0  0  0
  -25.9020  -30.8440   21.4110 C   0  0  0  0  0  2  0  0  0  0  0  0
  -25.9960  -29.4730   20.7750 C   0  0  0  0  0  0  0  0  0  0  0  0
  -27.2050  -28.7400   20.7690 C   0  0  0  0  0  3  0  0  0  0  0  0
  -26.0760  -26.9140   19.6180 C   0  0  0  0  0  3  0  0  0  0  0  0
  -24.8780  -27.6540   19.6070 C   0  0  0  0  0  3  0  0  0  0  0  0
  -23.5970  -29.7870   20.2230 C   0  0  0  0  0  2  0  0  0  0  0  0
  -24.6340  -31.0810   22.1430 N   0  0  0  0  0  0  0  0  0  0  0  0
  -23.4860  -32.1510   23.7790 O   0  0  0  0  0  0  0  0  0  0  0  0
  -22.7230  -29.4530   22.5580 C   0  0  0  0  0  0  0  0  0  0  0  0
  -21.3980  -29.2720   22.4290 N   0  0  0  0  0  0  0  0  0  0  0  0
  -23.4050  -28.8260   23.3730 O   0  0  0  0  0  0  0  0  0  0  0  0
  -20.9100  -29.8330   21.7450 H   0  0  0  0  0  0  0  0  0  0  0  0
  -18.0220  -28.0890   22.9210 C   0  0  0  0  0  0  0  0  0  0  0  0
  -20.5790  -28.3350   23.1970 C   0  0  0  0  0  3  0  0  0  0  0  0
  -20.6770  -26.9040   22.6210 C   0  0  0  0  0  2  0  0  0  0  0  0
  -19.5750  -26.5870   21.6040 C   0  0  0  0  0  2  0  0  0  0  0  0
  -18.1940  -26.7390   22.2470 C   0  0  0  0  0  2  0  0  0  0  0  0
  -19.1420  -28.8450   23.3550 C   0  0  0  0  0  0  0  0  0  0  0  0
  -18.9280  -30.1110   23.9430 C   0  0  0  0  0  3  0  0  0  0  0  0
  -17.6260  -30.6180   24.1060 C   0  0  0  0  0  3  0  0  0  0  0  0
  -16.5180  -29.8570   23.6920 C   0  0  0  0  0  3  0  0  0  0  0  0
  -16.7190  -28.5940   23.1040 C   0  0  0  0  0  3  0  0  0  0  0  0
  -25.8510  -32.5190   23.8680 C   0  0  0  0  0  3  0  0  0  0  0  0
  -25.5380  -33.9180   24.1910 N   0  0  0  0  0  0  0  0  0  0  0  0
  -25.8760  -34.9680   23.4310 C   0  0  0  0  0  0  0  0  0  0  0  0
  -26.5540  -34.8610   22.4050 O   0  0  0  0  0  0  0  0  0  0  0  0
  -24.9380  -34.0710   24.9880 H   0  0  0  0  0  0  0  0  0  0  0  0
  -24.1490  -36.7560   23.0520 C   0  0  0  0  0  1  0  0  0  0  0  0
  -25.3820  -36.3570   23.8780 C   0  0  0  0  0  3  0  0  0  0  0  0
  -27.5080  -37.2460   24.7280 C   0  0  0  0  0  1  0  0  0  0  0  0
  -26.4140  -37.4110   23.7730 N   0  0  0  0  0  0  0  0  0  0  0  0
  -26.0080  -38.3310   23.9140 H   0  0  0  0  0  0  0  0  0  0  0  0
  -26.3670  -31.7530   25.1480 C   0  0  1  0  0  0  0  0  0  0  0  0
  -25.2720  -31.5140   26.2120 C   0  0  0  0  0  1  0  0  0  0  0  0
  -26.9560  -30.3780   24.7580 C   0  0  0  0  0  1  0  0  0  0  0  0
  -27.5140  -32.5510   25.8120 C   0  0  0  0  0  1  0  0  0  0  0  0
  1  2  2  0
  1  3  1  0
  3  4  2  0
  4  6  1  0
  4  7  1  0
  5  3  1  0
  5  9  1  0
  8  5  1  0
 10 11  1  0
 10  9  1  0
 12 11  1  0
 13 18  1  0
 14 15  1  0
 14 13  1  0
 16 15  1  0
 16 23  1  0
 16 17  1  0
 18 12  1  0
 18 17  1  0
 19 12  2  0
 20 21  2  0
 21 40  1  0
 22 21  1  0
 22 25  1  0
 23 20  1  0
 23 24  1  0
 24 22  2  0
 25 26  1  0
 26 27  2  0
 28 31  1  0
 28 27  1  0
 29 28  2  0
 30 29  1  0
 30 25  2  0
 31 32  1  0
 32 33  1  0
 33 34  2  0
 35 34  1  0
 35 39  1  0
 36 35  2  0
 37 32  2  0
 37 36  1  0
 38 37  1  0
 40 41  1  0
 41 44  1  0
 41 43  1  0
 42 40  2  0
 45 46  1  0
 45 20  1  0
 47 45  1  0
 48  2  1  0
 48 49  1  0
 50 52  1  0
 50 49  1  0
 51 62  2  0
 52 57  1  0
 53 61  1  0
 53 63  1  0
 54 60  1  0
 54 56  1  0
 55 61  1  0
 56 55  1  0
 57 56  2  0
 58 52  2  0
 59 58  1  0
 59 54  2  0
 60 53  1  0
 61 51  1  0
 63 65  2  0
 64 63  1  0
 66 64  1  0
 67 76  2  0
 67 72  1  0
 68 64  1  0
 68 72  1  0
 69 68  1  0
 70 71  1  0
 70 69  1  0
 71 67  1  0
 72 73  2  0
 73 74  1  0
 75 74  2  0
 76 75  1  0
 77 51  1  0
 77 78  1  0
 77 87  1  0
 78 81  1  0
 79 83  1  0
 79 78  1  0
 80 79  2  0
 83 82  1  0
 85 83  1  0
 85 86  1  0
 85 84  1  0
 87 90  1  1
 87 88  1  0
 89 87  1  0
M  ISO  4  11 100  12 100  49 101  50 101
M  END
>  <TORSDO>  (56) 
F 22

>  <SCORE>  (56) 
-12.995

>  <name>  (56) 
55

>  <ligand_id>  (56) 
55

>  <original_smiles>  (56) 
[H]C(=C([H])C([H])([H])C([H])([H])Oc1c([H])c([H])c2c(c1[H])C([H])([H])N(C(=O)C([H])(N([H])C(=O)C([H])(N([H])C([H])([H])[H])C([H])([H])[H])C(C([H])([H])[H])(C([H])([H])[H])C([H])([H])[H])C([H])(C(=O)N([H])C1([H])c3c([H])c([H])c([H])c([H])c3C([H])([H])C([H])([H])C1([H])[H])C2([H])[H])C(N([H])[H])=[N+]([H])C([H])([H])C([H])([H])C([H])([H])C(=O)N1C([H])([H])C([H])([H])C([H])([H])C([H])(n2nc(-c3c([H])c([H])c(Oc4c([H])c([H])c(F)c([H])c4F)c([H])c3[H])c(C(=O)N([H])[H])c2N([H])[H])C1([H])[H]

>  <smiles>  (56) 
[H]C(=C([H])C([H])([H])C([H])([H])Oc1c([H])c([H])c2c(c1[H])C([H])([H])N(C(=O)C([H])(N([H])C(=O)C([H])(N([H])C([H])([H])[H])C([H])([H])[H])C(C([H])([H])[H])(C([H])([H])[H])C([H])([H])[H])C([H])(C(=O)N([H])C1([H])c3c([H])c([H])c([H])c([H])c3C([H])([H])C([H])([H])C1([H])[H])C2([H])[H])C(N([H])[H])=[N+]([H])C([H])([H])C([H])([H])C([H])([H])C(=O)N1C([H])([H])C([H])([H])C([H])([H])C([H])(n2nc(-c3c([H])c([H])c(Oc4c([H])c([H])c(F)c([H])c4F)c([H])c3[H])c(C(=O)N([H])[H])c2N([H])[H])C1([H])[H]

$$$$
56:0:0
     RDKit          3D

 94102  0  0  1  0  0  0  0  0999 V2000
  -31.8200  -22.5950   20.1590 C   0  0  0  0  0  2  0  0  0  0  0  0
  -31.1440  -21.3050   20.6260 C   0  0  0  0  0  2  0  0  0  0  0  0
  -30.8650  -23.1520   19.1040 C   0  0  0  0  0  2  0  0  0  0  0  0
  -29.6600  -21.4280   20.2150 C   0  0  0  0  0  3  0  0  0  0  0  0
  -29.5090  -22.7900   19.5760 N   0  0  1  0  0  4  0  0  0  0  0  0
  -28.9010  -22.6920   18.7730 H   0  0  0  0  0  0  0  0  0  0  0  0
  -29.2440  -20.2560   19.2630 C   0  0  0  0  0  2  0  0  0  0  0  0
  -29.9790  -17.8250   19.6280 C   0  0  0  0  0  0  0  0  0  0  0  0
  -29.1980  -18.9030   19.8720 N   0  0  0  0  0  0  0  0  0  0  0  0
  -31.0260  -17.9230   18.9870 O   0  0  0  0  0  0  0  0  0  0  0  0
  -28.3700  -18.7070   20.4170 H   0  0  0  0  0  0  0  0  0  0  0  0
  -28.3000  -16.5320   21.0850 C   0  0  0  0  0  1  0  0  0  0  0  0
  -29.4620  -16.4090   20.0660 C   0  0  0  0  0  3  0  0  0  0  0  0
  -30.9230  -14.4000   19.8970 C   0  0  0  0  0  0  0  0  0  0  0  0
  -30.5070  -12.1450   18.9600 C   0  0  0  0  0  2  0  0  0  0  0  0
  -29.5390  -12.2360   17.7660 C   0  0  0  0  0  2  0  0  0  0  0  0
  -28.0840  -12.1290   18.2540 C   0  0  0  0  0  2  0  0  0  0  0  0
  -27.7830  -13.0980   19.4270 C   0  0  0  0  0  3  0  0  0  0  0  0
  -28.8750  -13.0250   20.5220 C   0  0  0  0  0  2  0  0  0  0  0  0
  -30.1840  -13.2500   19.8860 N   0  0  0  0  0  0  0  0  0  0  0  0
  -32.0200  -14.4600   19.3310 O   0  0  0  0  0  0  0  0  0  0  0  0
  -31.4640  -16.0620   21.5420 C   0  0  0  0  0  1  0  0  0  0  0  0
  -30.4800  -15.4640   20.6220 N   0  0  0  0  0  0  0  0  0  0  0  0
  -25.4560  -13.8210   20.2410 C   0  0  0  0  0  0  0  0  0  0  0  0
  -24.3690  -13.1040   20.6620 C   0  0  0  0  0  0  0  0  0  0  0  0
  -24.7630  -11.7310   20.6180 C   0  0  0  0  0  0  0  0  0  0  0  0
  -26.4450  -12.8890   19.9720 N   0  0  0  0  0  0  0  0  0  0  0  0
  -26.0360  -11.6270   20.2570 N   0  0  0  0  0  0  0  0  0  0  0  0
  -23.9850  -10.5070   20.8450 C   0  0  0  0  0  0  0  0  0  0  0  0
  -24.3990   -9.5360   21.7820 C   0  0  0  0  0  3  0  0  0  0  0  0
  -23.6250   -8.3740   21.9980 C   0  0  0  0  0  3  0  0  0  0  0  0
  -22.4250   -8.1770   21.2750 C   0  0  0  0  0  0  0  0  0  0  0  0
  -22.0290   -9.1380   20.3270 C   0  0  0  0  0  3  0  0  0  0  0  0
  -22.8020  -10.2910   20.1100 C   0  0  0  0  0  3  0  0  0  0  0  0
  -21.6220   -7.0680   21.4000 O   0  0  0  0  0  0  0  0  0  0  0  0
  -21.5600   -6.3530   22.5680 C   0  0  0  0  0  0  0  0  0  0  0  0
  -21.1830   -6.9520   23.7910 C   0  0  0  0  0  3  0  0  0  0  0  0
  -21.0650   -6.1650   24.9530 C   0  0  0  0  0  3  0  0  0  0  0  0
  -21.3130   -4.7800   24.8940 C   0  0  0  0  0  0  0  0  0  0  0  0
  -21.6830   -4.1820   23.6770 C   0  0  0  0  0  3  0  0  0  0  0  0
  -21.8040   -4.9660   22.5160 C   0  0  0  0  0  0  0  0  0  0  0  0
  -22.1390   -4.3810   21.3420 F   0  0  0  0  0  0  0  0  0  0  0  0
  -21.1920   -4.0220   26.0090 F   0  0  0  0  0  0  0  0  0  0  0  0
  -23.0100  -13.6500   20.9890 C   0  0  0  0  0  0  0  0  0  0  0  0
  -22.2890  -12.9970   21.8950 N   0  0  0  0  0  0  0  0  0  0  0  0
  -22.5980  -14.6900   20.4780 O   0  0  0  0  0  0  0  0  0  0  0  0
  -22.6340  -12.1530   22.3290 H   0  0  0  0  0  0  0  0  0  0  0  0
  -21.3780  -13.3470   22.1580 H   0  0  0  0  0  0  0  0  0  0  0  0
  -25.6760  -15.1810   20.0430 N   0  0  0  0  0  0  0  0  0  0  0  0
  -24.9440  -15.8700   20.1740 H   0  0  0  0  0  0  0  0  0  0  0  0
  -26.5270  -15.5740   19.6680 H   0  0  0  0  0  0  0  0  0  0  0  0
  -28.8980  -23.8430   20.4740 C   0  0  0  0  0  2  0  0  0  0  0  0
  -28.2480  -25.1100   19.7750 C   0  0  0  0  0  2  0  0  0  0  0  0
  -28.3770  -26.5380   20.0560 O   0  0  0  0  0  0  0  0  0  0  0  0
  -24.6590  -31.7740   23.1960 C   0  0  0  0  0  0  0  0  0  0  0  0
  -27.2310  -27.3280   20.0170 C   0  0  0  0  0  0  0  0  0  0  0  0
  -23.4320  -30.4160   21.5350 C   0  0  0  0  0  3  0  0  0  0  0  0
  -24.8590  -28.8910   20.0730 C   0  0  0  0  0  0  0  0  0  0  0  0
  -25.9620  -30.7430   21.3320 C   0  0  0  0  0  2  0  0  0  0  0  0
  -26.0290  -29.3820   20.6620 C   0  0  0  0  0  0  0  0  0  0  0  0
  -27.2180  -28.6080   20.6330 C   0  0  0  0  0  3  0  0  0  0  0  0
  -26.0400  -26.8680   19.4120 C   0  0  0  0  0  3  0  0  0  0  0  0
  -24.8610  -27.6340   19.4450 C   0  0  0  0  0  3  0  0  0  0  0  0
  -23.6270  -29.7640   20.1420 C   0  0  0  0  0  2  0  0  0  0  0  0
  -24.7040  -30.9900   22.0810 N   0  0  0  0  0  0  0  0  0  0  0  0
  -23.5830  -32.0440   23.7470 O   0  0  0  0  0  0  0  0  0  0  0  0
  -22.7740  -29.3840   22.4800 C   0  0  0  0  0  0  0  0  0  0  0  0
  -21.4450  -29.2220   22.3640 N   0  0  0  0  0  0  0  0  0  0  0  0
  -23.4580  -28.7320   23.2740 O   0  0  0  0  0  0  0  0  0  0  0  0
  -20.9550  -29.8020   21.6970 H   0  0  0  0  0  0  0  0  0  0  0  0
  -18.0590  -28.0650   22.8760 C   0  0  0  0  0  0  0  0  0  0  0  0
  -20.6240  -28.2780   23.1240 C   0  0  0  0  0  3  0  0  0  0  0  0
  -20.6990  -26.8580   22.5150 C   0  0  0  0  0  2  0  0  0  0  0  0
  -19.5800  -26.5750   21.5060 C   0  0  0  0  0  2  0  0  0  0  0  0
  -18.2080  -26.7280   22.1690 C   0  0  0  0  0  2  0  0  0  0  0  0
  -19.1950  -28.7990   23.3110 C   0  0  0  0  0  0  0  0  0  0  0  0
  -19.0030  -30.0510   23.9330 C   0  0  0  0  0  3  0  0  0  0  0  0
  -17.7090  -30.5700   24.1250 C   0  0  0  0  0  3  0  0  0  0  0  0
  -16.5880  -29.8310   23.7090 C   0  0  0  0  0  3  0  0  0  0  0  0
  -16.7640  -28.5820   23.0880 C   0  0  0  0  0  3  0  0  0  0  0  0
  -25.9540  -32.3830   23.8180 C   0  0  0  0  0  3  0  0  0  0  0  0
  -25.6580  -33.7770   24.1800 N   0  0  0  0  0  0  0  0  0  0  0  0
  -25.9920  -34.8430   23.4400 C   0  0  0  0  0  0  0  0  0  0  0  0
  -26.6540  -34.7560   22.4020 O   0  0  0  0  0  0  0  0  0  0  0  0
  -25.0750  -33.9180   24.9910 H   0  0  0  0  0  0  0  0  0  0  0  0
  -24.2760  -36.6540   23.1340 C   0  0  0  0  0  1  0  0  0  0  0  0
  -25.5180  -36.2240   23.9300 C   0  0  0  0  0  3  0  0  0  0  0  0
  -27.6640  -37.0760   24.7660 C   0  0  0  0  0  1  0  0  0  0  0  0
  -26.5570  -37.2730   23.8330 N   0  0  0  0  0  0  0  0  0  0  0  0
  -26.1590  -38.1920   24.0020 H   0  0  0  0  0  0  0  0  0  0  0  0
  -26.4760  -31.5800   25.0730 C   0  0  1  0  0  0  0  0  0  0  0  0
  -25.3930  -31.3280   26.1460 C   0  0  0  0  0  1  0  0  0  0  0  0
  -27.0450  -30.2100   24.6400 C   0  0  0  0  0  1  0  0  0  0  0  0
  -27.6390  -32.3510   25.7400 C   0  0  0  0  0  1  0  0  0  0  0  0
  1  2  1  0
  3  5  1  0
  3  1  1  0
  4  7  1  0
  4  2  1  0
  5  4  1  0
  5 52  1  0
  5  6  1  6
  7  9  1  0
  8  9  1  0
  8 13  1  0
  9 11  1  0
 10  8  2  0
 13 23  1  0
 13 12  1  0
 14 23  1  0
 15 20  1  0
 16 17  1  0
 16 15  1  0
 18 17  1  0
 18 27  1  0
 18 19  1  0
 20 14  1  0
 20 19  1  0
 21 14  2  0
 23 22  1  0
 24 25  2  0
 25 44  1  0
 26 25  1  0
 26 29  1  0
 27 24  1  0
 27 28  1  0
 28 26  2  0
 29 30  1  0
 30 31  2  0
 32 35  1  0
 32 31  1  0
 33 32  2  0
 34 33  1  0
 34 29  2  0
 35 36  1  0
 36 37  1  0
 37 38  2  0
 39 38  1  0
 39 43  1  0
 40 39  2  0
 41 36  2  0
 41 40  1  0
 42 41  1  0
 44 45  1  0
 45 48  1  0
 45 47  1  0
 46 44  2  0
 49 50  1  0
 49 24  1  0
 51 49  1  0
 53 54  1  0
 53 52  1  0
 55 66  2  0
 56 54  1  0
 56 61  1  0
 57 65  1  0
 57 67  1  0
 58 64  1  0
 58 60  1  0
 59 65  1  0
 60 59  1  0
 61 60  2  0
 62 63  1  0
 62 56  2  0
 63 58  2  0
 64 57  1  0
 65 55  1  0
 67 69  2  0
 68 67  1  0
 70 68  1  0
 71 80  2  0
 71 76  1  0
 72 68  1  0
 72 76  1  0
 73 72  1  0
 74 75  1  0
 74 73  1  0
 75 71  1  0
 76 77  2  0
 77 78  1  0
 79 78  2  0
 80 79  1  0
 81 55  1  0
 81 82  1  0
 81 91  1  0
 82 85  1  0
 83 87  1  0
 83 82  1  0
 84 83  2  0
 87 86  1  0
 89 87  1  0
 89 90  1  0
 89 88  1  0
 91 94  1  1
 91 92  1  0
 93 91  1  0
M  ISO  4  14 100  23 100  53 101  54 101
M  END
>  <TORSDO>  (57) 
F 21

>  <SCORE>  (57) 
-12.868

>  <name>  (57) 
56

>  <ligand_id>  (57) 
56

>  <original_smiles>  (57) 
[H]c1c([H])c([H])c2c(c1[H])C([H])([H])C([H])([H])C([H])([H])C2([H])N([H])C(=O)C1([H])N(C(=O)C([H])(N([H])C(=O)C([H])(N([H])C([H])([H])[H])C([H])([H])[H])C(C([H])([H])[H])(C([H])([H])[H])C([H])([H])[H])C([H])([H])c2c([H])c(OC([H])([H])C([H])([H])[N+]3([H])C([H])([H])C([H])([H])C([H])([H])C3([H])C([H])([H])N([H])C(=O)C([H])(N(C(=O)N3C([H])([H])C([H])([H])C([H])([H])C([H])(n4nc(-c5c([H])c([H])c(Oc6c([H])c([H])c(F)c([H])c6F)c([H])c5[H])c(C(=O)N([H])[H])c4N([H])[H])C3([H])[H])C([H])([H])[H])C([H])([H])[H])c([H])c([H])c2C1([H])[H]

>  <smiles>  (57) 
[H]c1c([H])c([H])c2c(c1[H])C([H])([H])C([H])([H])C([H])([H])C2([H])N([H])C(=O)C1([H])N(C(=O)C([H])(N([H])C(=O)C([H])(N([H])C([H])([H])[H])C([H])([H])[H])C(C([H])([H])[H])(C([H])([H])[H])C([H])([H])[H])C([H])([H])c2c([H])c(OC([H])([H])C([H])([H])[N+]3([H])C([H])([H])C([H])([H])C([H])([H])C3([H])C([H])([H])N([H])C(=O)C([H])(N(C(=O)N3C([H])([H])C([H])([H])C([H])([H])C([H])(n4nc(-c5c([H])c([H])c(Oc6c([H])c([H])c(F)c([H])c6F)c([H])c5[H])c(C(=O)N([H])[H])c4N([H])[H])C3([H])[H])C([H])([H])[H])C([H])([H])[H])c([H])c([H])c2C1([H])[H]

$$$$
57:0:0
     RDKit          3D

 92 99  0  0  1  0  0  0  0  0999 V2000
  -29.1380  -19.8050   20.5840 N   0  0  0  0  0  4  0  0  0  0  0  0
  -28.1560  -19.5920   20.6410 H   0  0  0  0  0  0  0  0  0  0  0  0
  -29.4400  -19.8930   21.5420 H   0  0  0  0  0  0  0  0  0  0  0  0
  -29.1780  -21.3420   19.9700 C   0  0  0  0  0  2  0  0  0  0  0  0
  -29.3440  -23.1330   21.9620 C   0  0  0  0  0  1  0  0  0  0  0  0
  -28.5680  -22.8680   20.6600 C   0  0  0  0  0  3  0  0  0  0  0  0
  -28.3070  -24.4520   19.8960 C   0  0  0  0  0  2  0  0  0  0  0  0
  -28.2290  -25.9920   20.4170 O   0  0  0  0  0  0  0  0  0  0  0  0
  -24.6140  -31.8990   23.2500 C   0  0  0  0  0  0  0  0  0  0  0  0
  -27.1900  -27.0350   20.2820 C   0  0  0  0  0  0  0  0  0  0  0  0
  -23.4240  -30.4810   21.6240 C   0  0  0  0  0  3  0  0  0  0  0  0
  -24.8780  -28.8730   20.2140 C   0  0  0  0  0  0  0  0  0  0  0  0
  -25.9830  -30.7090   21.4770 C   0  0  0  0  0  2  0  0  0  0  0  0
  -26.0570  -29.2980   20.8350 C   0  0  0  0  0  0  0  0  0  0  0  0
  -27.2050  -28.3970   20.8490 C   0  0  0  0  0  3  0  0  0  0  0  0
  -25.9800  -26.7470   19.6130 C   0  0  0  0  0  3  0  0  0  0  0  0
  -24.8590  -27.6160   19.5830 C   0  0  0  0  0  3  0  0  0  0  0  0
  -23.6540  -29.7880   20.2520 C   0  0  0  0  0  2  0  0  0  0  0  0
  -24.6950  -31.0550   22.1710 N   0  0  0  0  0  0  0  0  0  0  0  0
  -23.5240  -32.1950   23.7660 O   0  0  0  0  0  0  0  0  0  0  0  0
  -22.7290  -29.4930   22.5980 C   0  0  0  0  0  0  0  0  0  0  0  0
  -21.3990  -29.3290   22.4720 N   0  0  0  0  0  0  0  0  0  0  0  0
  -23.3940  -28.8770   23.4350 O   0  0  0  0  0  0  0  0  0  0  0  0
  -20.9150  -29.8770   21.7760 H   0  0  0  0  0  0  0  0  0  0  0  0
  -18.0180  -28.1170   22.9680 C   0  0  0  0  0  0  0  0  0  0  0  0
  -20.5750  -28.3990   23.2490 C   0  0  0  0  0  3  0  0  0  0  0  0
  -20.6880  -26.9580   22.6990 C   0  0  0  0  0  2  0  0  0  0  0  0
  -19.5960  -26.6130   21.6810 C   0  0  0  0  0  2  0  0  0  0  0  0
  -18.2080  -26.7580   22.3120 C   0  0  0  0  0  2  0  0  0  0  0  0
  -19.1290  -28.8930   23.3930 C   0  0  0  0  0  0  0  0  0  0  0  0
  -18.8990  -30.1610   23.9680 C   0  0  0  0  0  3  0  0  0  0  0  0
  -17.5880  -30.6520   24.1290 C   0  0  0  0  0  3  0  0  0  0  0  0
  -16.4930  -29.8730   23.7220 C   0  0  0  0  0  3  0  0  0  0  0  0
  -16.7070  -28.6100   23.1430 C   0  0  0  0  0  3  0  0  0  0  0  0
  -25.8870  -32.5430   23.8760 C   0  0  0  0  0  3  0  0  0  0  0  0
  -25.5740  -33.9490   24.1880 N   0  0  0  0  0  0  0  0  0  0  0  0
  -25.9130  -34.9970   23.4280 C   0  0  0  0  0  0  0  0  0  0  0  0
  -26.5900  -34.8850   22.4030 O   0  0  0  0  0  0  0  0  0  0  0  0
  -24.9750  -34.1110   24.9850 H   0  0  0  0  0  0  0  0  0  0  0  0
  -24.2000  -36.8050   23.0590 C   0  0  0  0  0  1  0  0  0  0  0  0
  -25.4340  -36.3930   23.8770 C   0  0  0  0  0  3  0  0  0  0  0  0
  -27.5690  -37.2750   24.7160 C   0  0  0  0  0  1  0  0  0  0  0  0
  -26.4740  -37.4400   23.7630 N   0  0  0  0  0  0  0  0  0  0  0  0
  -26.0730  -38.3630   23.9040 H   0  0  0  0  0  0  0  0  0  0  0  0
  -26.3860  -31.7980   25.1770 C   0  0  1  0  0  0  0  0  0  0  0  0
  -25.2800  -31.5900   26.2410 C   0  0  0  0  0  1  0  0  0  0  0  0
  -26.9710  -30.4090   24.8320 C   0  0  0  0  0  1  0  0  0  0  0  0
  -27.5340  -32.6020   25.8330 C   0  0  0  0  0  1  0  0  0  0  0  0
  -29.8640  -18.4170   20.0260 C   0  0  0  0  0  3  0  0  0  0  0  0
  -29.6720  -16.7570   20.6530 C   0  0  0  0  0  2  0  0  0  0  0  0
  -30.4620  -15.2430   20.3210 C   0  0  0  0  0  0  0  0  0  0  0  0
  -30.4230  -12.8160   19.4190 C   0  0  0  0  0  2  0  0  0  0  0  0
  -29.5080  -12.6820   18.1760 C   0  0  0  0  0  2  0  0  0  0  0  0
  -28.0490  -12.4280   18.5980 C   0  0  0  0  0  2  0  0  0  0  0  0
  -27.6040  -13.3660   19.7460 C   0  0  0  0  0  3  0  0  0  0  0  0
  -28.6480  -13.4690   20.8780 C   0  0  0  0  0  2  0  0  0  0  0  0
  -29.9080  -13.9380   20.2810 N   0  0  0  0  0  0  0  0  0  0  0  0
  -31.6680  -15.2500   20.0350 O   0  0  0  0  0  0  0  0  0  0  0  0
  -25.2120  -13.9170   20.4570 C   0  0  0  0  0  0  0  0  0  0  0  0
  -24.1510  -13.1380   20.8270 C   0  0  0  0  0  0  0  0  0  0  0  0
  -24.6300  -11.7920   20.8170 C   0  0  0  0  0  0  0  0  0  0  0  0
  -26.2690  -13.0490   20.2400 N   0  0  0  0  0  0  0  0  0  0  0  0
  -25.9270  -11.7650   20.5250 N   0  0  0  0  0  0  0  0  0  0  0  0
  -23.9100  -10.5260   21.0090 C   0  0  0  0  0  0  0  0  0  0  0  0
  -24.3350   -9.5660   21.9560 C   0  0  0  0  0  3  0  0  0  0  0  0
  -23.6090   -8.3690   22.1370 C   0  0  0  0  0  3  0  0  0  0  0  0
  -22.4440   -8.1200   21.3700 C   0  0  0  0  0  0  0  0  0  0  0  0
  -22.0430   -9.0680   20.4100 C   0  0  0  0  0  3  0  0  0  0  0  0
  -22.7700  -10.2550   20.2280 C   0  0  0  0  0  3  0  0  0  0  0  0
  -21.6930   -6.9730   21.4580 O   0  0  0  0  0  0  0  0  0  0  0  0
  -21.6320   -6.2370   22.6150 C   0  0  0  0  0  0  0  0  0  0  0  0
  -21.1880   -6.7990   23.8330 C   0  0  0  0  0  3  0  0  0  0  0  0
  -21.0760   -5.9900   24.9810 C   0  0  0  0  0  3  0  0  0  0  0  0
  -21.4020   -4.6230   24.9130 C   0  0  0  0  0  0  0  0  0  0  0  0
  -21.8390   -4.0600   23.7010 C   0  0  0  0  0  3  0  0  0  0  0  0
  -21.9530   -4.8670   22.5540 C   0  0  0  0  0  0  0  0  0  0  0  0
  -22.3530   -4.3150   21.3830 F   0  0  0  0  0  0  0  0  0  0  0  0
  -21.2880   -3.8430   26.0140 F   0  0  0  0  0  0  0  0  0  0  0  0
  -22.7460  -13.6060   21.0760 C   0  0  0  0  0  0  0  0  0  0  0  0
  -22.0120  -12.9090   21.9360 N   0  0  0  0  0  0  0  0  0  0  0  0
  -22.3100  -14.6260   20.5440 O   0  0  0  0  0  0  0  0  0  0  0  0
  -22.3810  -12.0840   22.3870 H   0  0  0  0  0  0  0  0  0  0  0  0
  -21.0690  -13.2010   22.1500 H   0  0  0  0  0  0  0  0  0  0  0  0
  -25.3670  -15.2880   20.2620 N   0  0  0  0  0  0  0  0  0  0  0  0
  -24.5950  -15.9400   20.3550 H   0  0  0  0  0  0  0  0  0  0  0  0
  -26.2210  -15.7290   19.9460 H   0  0  0  0  0  0  0  0  0  0  0  0
  -29.7280  -18.3550   18.4740 C   0  0  0  0  0  2  0  0  0  0  0  0
  -31.0610  -18.2790   17.7170 C   0  0  0  0  0  0  0  0  0  0  0  0
  -31.5780  -19.4120   17.2520 N   0  0  0  0  0  0  0  0  0  0  0  0
  -31.6150  -17.2020   17.5120 O   0  0  0  0  0  0  0  0  0  0  0  0
  -31.1140  -20.2970   17.3920 H   0  0  0  0  0  0  0  0  0  0  0  0
  -32.4440  -19.4000   16.7290 H   0  0  0  0  0  0  0  0  0  0  0  0
  1  2  1  0
  1  3  1  0
  4  1  1  0
  4  6  1  0
  6  5  1  0
  7  8  1  0
  7  6  1  0
  9 20  2  0
 10  8  1  0
 10 15  1  0
 11 19  1  0
 11 21  1  0
 12 18  1  0
 12 14  1  0
 13 19  1  0
 14 15  2  0
 14 13  1  0
 16 10  2  0
 17 16  1  0
 17 12  2  0
 18 11  1  0
 19  9  1  0
 21 23  2  0
 22 21  1  0
 24 22  1  0
 25 34  2  0
 25 30  1  0
 26 22  1  0
 26 30  1  0
 27 26  1  0
 28 29  1  0
 28 27  1  0
 29 25  1  0
 30 31  2  0
 31 32  1  0
 33 32  2  0
 34 33  1  0
 35  9  1  0
 35 36  1  0
 35 45  1  0
 36 39  1  0
 37 41  1  0
 37 36  1  0
 38 37  2  0
 41 40  1  0
 43 41  1  0
 43 44  1  0
 43 42  1  0
 45 48  1  1
 45 46  1  0
 47 45  1  0
 49 87  1  0
 49  1  1  0
 49 50  1  0
 51 50  1  0
 52 57  1  0
 53 54  1  0
 53 52  1  0
 55 54  1  0
 55 62  1  0
 55 56  1  0
 57 51  1  0
 57 56  1  0
 58 51  2  0
 59 60  2  0
 60 79  1  0
 61 60  1  0
 61 64  1  0
 62 59  1  0
 62 63  1  0
 63 61  2  0
 64 65  1  0
 65 66  2  0
 67 70  1  0
 67 66  1  0
 68 67  2  0
 69 68  1  0
 69 64  2  0
 70 71  1  0
 71 72  1  0
 72 73  2  0
 74 73  1  0
 74 78  1  0
 75 74  2  0
 76 71  2  0
 76 75  1  0
 77 76  1  0
 79 80  1  0
 80 83  1  0
 80 82  1  0
 81 79  2  0
 84 85  1  0
 84 59  1  0
 86 84  1  0
 88 87  1  0
 89 91  1  0
 89 88  1  0
 90 88  2  0
 92 89  1  0
M  ISO  4   7 101   8 101  50 100  51 100
M  END
>  <TORSDO>  (58) 
F 23

>  <SCORE>  (58) 
-14.636

>  <name>  (58) 
57

>  <ligand_id>  (58) 
57

>  <original_smiles>  (58) 
[H]c1c([H])c([H])c2c(c1[H])C([H])([H])C([H])([H])C([H])([H])C2([H])N([H])C(=O)C1([H])N(C(=O)C([H])(N([H])C(=O)C([H])(N([H])C([H])([H])[H])C([H])([H])[H])C(C([H])([H])[H])(C([H])([H])[H])C([H])([H])[H])C([H])([H])c2c([H])c(OC([H])([H])C([H])(C([H])([H])[H])C([H])([H])[N+]([H])([H])C([H])(C([H])([H])C(=O)N([H])[H])C([H])([H])C(=O)N3C([H])([H])C([H])([H])C([H])([H])C([H])(n4nc(-c5c([H])c([H])c(Oc6c([H])c([H])c(F)c([H])c6F)c([H])c5[H])c(C(=O)N([H])[H])c4N([H])[H])C3([H])[H])c([H])c([H])c2C1([H])[H]

>  <smiles>  (58) 
[H]c1c([H])c([H])c2c(c1[H])C([H])([H])C([H])([H])C([H])([H])C2([H])N([H])C(=O)C1([H])N(C(=O)C([H])(N([H])C(=O)C([H])(N([H])C([H])([H])[H])C([H])([H])[H])C(C([H])([H])[H])(C([H])([H])[H])C([H])([H])[H])C([H])([H])c2c([H])c(OC([H])([H])C([H])(C([H])([H])[H])C([H])([H])[N+]([H])([H])C([H])(C([H])([H])C(=O)N([H])[H])C([H])([H])C(=O)N3C([H])([H])C([H])([H])C([H])([H])C([H])(n4nc(-c5c([H])c([H])c(Oc6c([H])c([H])c(F)c([H])c6F)c([H])c5[H])c(C(=O)N([H])[H])c4N([H])[H])C3([H])[H])c([H])c([H])c2C1([H])[H]

$$$$
58:0:0
     RDKit          3D

 89 96  0  0  1  0  0  0  0  0999 V2000
  -29.3560  -21.0500   20.7080 C   0  0  0  0  0  0  0  0  0  0  0  0
  -29.6920  -19.8530   20.1010 N   0  0  0  0  0  0  0  0  0  0  0  0
  -29.2500  -21.1170   21.9330 O   0  0  0  0  0  0  0  0  0  0  0  0
  -29.7470  -19.9040   19.0930 H   0  0  0  0  0  0  0  0  0  0  0  0
  -31.4950  -18.2790   20.8810 C   0  0  0  0  0  1  0  0  0  0  0  0
  -29.9860  -18.4580   20.6720 C   0  0  0  0  0  3  0  0  0  0  0  0
  -29.6080  -15.8730   19.7610 C   0  0  0  0  0  3  0  0  0  0  0  0
  -29.3530  -17.2420   19.8830 C   0  0  0  0  0  0  0  0  0  0  0  0
  -28.1610  -17.7460   19.0660 C   0  0  0  0  0  1  0  0  0  0  0  0
  -30.5440  -14.7980   20.2490 C   0  0  0  0  0  0  0  0  0  0  0  0
  -30.3860  -12.4800   19.3560 C   0  0  0  0  0  2  0  0  0  0  0  0
  -29.4380  -12.5270   18.1340 C   0  0  0  0  0  2  0  0  0  0  0  0
  -27.9680  -12.3330   18.5660 C   0  0  0  0  0  2  0  0  0  0  0  0
  -27.5730  -13.2400   19.7590 C   0  0  0  0  0  3  0  0  0  0  0  0
  -28.6480  -13.2280   20.8730 C   0  0  0  0  0  2  0  0  0  0  0  0
  -29.9620  -13.5470   20.2850 N   0  0  0  0  0  0  0  0  0  0  0  0
  -31.7690  -14.9010   20.1520 O   0  0  0  0  0  0  0  0  0  0  0  0
  -25.2030  -13.8630   20.4980 C   0  0  0  0  0  0  0  0  0  0  0  0
  -24.1310  -13.0990   20.8690 C   0  0  0  0  0  0  0  0  0  0  0  0
  -24.5890  -11.7460   20.8500 C   0  0  0  0  0  0  0  0  0  0  0  0
  -26.2380  -12.9680   20.2660 N   0  0  0  0  0  0  0  0  0  0  0  0
  -25.8780  -11.6930   20.5440 N   0  0  0  0  0  0  0  0  0  0  0  0
  -23.8590  -10.4900   21.0450 C   0  0  0  0  0  0  0  0  0  0  0  0
  -24.3010   -9.5190   21.9710 C   0  0  0  0  0  3  0  0  0  0  0  0
  -23.5740   -8.3240   22.1540 C   0  0  0  0  0  3  0  0  0  0  0  0
  -22.3920   -8.0920   21.4110 C   0  0  0  0  0  0  0  0  0  0  0  0
  -21.9700   -9.0510   20.4740 C   0  0  0  0  0  3  0  0  0  0  0  0
  -22.6970  -10.2390   20.2880 C   0  0  0  0  0  3  0  0  0  0  0  0
  -21.6350   -6.9500   21.5060 O   0  0  0  0  0  0  0  0  0  0  0  0
  -21.6120   -6.1970   22.6530 C   0  0  0  0  0  0  0  0  0  0  0  0
  -21.2340   -6.7460   23.8980 C   0  0  0  0  0  3  0  0  0  0  0  0
  -21.1560   -5.9190   25.0360 C   0  0  0  0  0  3  0  0  0  0  0  0
  -21.4450   -4.5460   24.9310 C   0  0  0  0  0  0  0  0  0  0  0  0
  -21.8190   -3.9970   23.6910 C   0  0  0  0  0  3  0  0  0  0  0  0
  -21.8980   -4.8210   22.5560 C   0  0  0  0  0  0  0  0  0  0  0  0
  -22.2370   -4.2830   21.3590 F   0  0  0  0  0  0  0  0  0  0  0  0
  -21.3630   -3.7510   26.0230 F   0  0  0  0  0  0  0  0  0  0  0  0
  -22.7350  -13.5860   21.1320 C   0  0  0  0  0  0  0  0  0  0  0  0
  -22.0010  -12.9010   22.0020 N   0  0  0  0  0  0  0  0  0  0  0  0
  -22.3030  -14.6090   20.6000 O   0  0  0  0  0  0  0  0  0  0  0  0
  -22.3610  -12.0750   22.4550 H   0  0  0  0  0  0  0  0  0  0  0  0
  -21.0640  -13.2090   22.2200 H   0  0  0  0  0  0  0  0  0  0  0  0
  -25.3780  -15.2320   20.3150 N   0  0  0  0  0  0  0  0  0  0  0  0
  -24.6250  -15.8980   20.4400 H   0  0  0  0  0  0  0  0  0  0  0  0
  -26.2500  -15.6650   20.0390 H   0  0  0  0  0  0  0  0  0  0  0  0
  -29.0900  -22.3750   19.8560 C   0  0  0  0  0  2  0  0  0  0  0  0
  -28.7630  -23.7910   20.5750 C   0  0  0  0  0  3  0  0  0  0  0  0
  -28.4850  -25.0950   19.6640 C   0  0  0  0  0  3  0  0  0  0  0  0
  -28.3740  -26.4730   20.2470 O   0  0  0  0  0  0  0  0  0  0  0  0
  -24.6220  -31.8860   23.2420 C   0  0  0  0  0  0  0  0  0  0  0  0
  -27.2280  -27.2970   20.1780 C   0  0  0  0  0  0  0  0  0  0  0  0
  -23.4110  -30.4850   21.6090 C   0  0  0  0  0  3  0  0  0  0  0  0
  -24.8530  -28.9250   20.1800 C   0  0  0  0  0  0  0  0  0  0  0  0
  -25.9500  -30.7940   21.4160 C   0  0  0  0  0  2  0  0  0  0  0  0
  -26.0250  -29.4110   20.7710 C   0  0  0  0  0  0  0  0  0  0  0  0
  -27.2070  -28.6100   20.7610 C   0  0  0  0  0  3  0  0  0  0  0  0
  -26.0230  -26.8670   19.5730 C   0  0  0  0  0  3  0  0  0  0  0  0
  -24.8560  -27.6570   19.5750 C   0  0  0  0  0  3  0  0  0  0  0  0
  -23.6190  -29.8050   20.2290 C   0  0  0  0  0  2  0  0  0  0  0  0
  -24.6800  -31.0740   22.1450 N   0  0  0  0  0  0  0  0  0  0  0  0
  -23.5410  -32.1650   23.7810 O   0  0  0  0  0  0  0  0  0  0  0  0
  -22.7520  -29.4720   22.5770 C   0  0  0  0  0  0  0  0  0  0  0  0
  -21.4240  -29.2940   22.4560 N   0  0  0  0  0  0  0  0  0  0  0  0
  -23.4330  -28.8500   23.3950 O   0  0  0  0  0  0  0  0  0  0  0  0
  -20.9320  -29.8500   21.7710 H   0  0  0  0  0  0  0  0  0  0  0  0
  -18.0530  -28.0840   22.9610 C   0  0  0  0  0  0  0  0  0  0  0  0
  -20.6100  -28.3580   23.2320 C   0  0  0  0  0  3  0  0  0  0  0  0
  -20.7180  -26.9230   22.6660 C   0  0  0  0  0  2  0  0  0  0  0  0
  -19.6190  -26.5870   21.6530 C   0  0  0  0  0  2  0  0  0  0  0  0
  -18.2360  -26.7310   22.2950 C   0  0  0  0  0  2  0  0  0  0  0  0
  -19.1670  -28.8530   23.3870 C   0  0  0  0  0  0  0  0  0  0  0  0
  -18.9420  -30.1180   23.9720 C   0  0  0  0  0  3  0  0  0  0  0  0
  -17.6360  -30.6140   24.1340 C   0  0  0  0  0  3  0  0  0  0  0  0
  -16.5350  -29.8420   23.7240 C   0  0  0  0  0  3  0  0  0  0  0  0
  -16.7450  -28.5790   23.1430 C   0  0  0  0  0  3  0  0  0  0  0  0
  -25.9080  -32.5200   23.8570 C   0  0  0  0  0  3  0  0  0  0  0  0
  -25.5970  -33.9180   24.1900 N   0  0  0  0  0  0  0  0  0  0  0  0
  -25.9200  -34.9730   23.4310 C   0  0  0  0  0  0  0  0  0  0  0  0
  -26.5800  -34.8740   22.3940 O   0  0  0  0  0  0  0  0  0  0  0  0
  -25.0120  -34.0690   24.9980 H   0  0  0  0  0  0  0  0  0  0  0  0
  -24.1810  -36.7620   23.1010 C   0  0  0  0  0  1  0  0  0  0  0  0
  -25.4340  -36.3610   23.8960 C   0  0  0  0  0  3  0  0  0  0  0  0
  -27.5780  -37.2510   24.6970 C   0  0  0  0  0  1  0  0  0  0  0  0
  -26.4620  -37.4180   23.7710 N   0  0  0  0  0  0  0  0  0  0  0  0
  -26.0540  -38.3350   23.9260 H   0  0  0  0  0  0  0  0  0  0  0  0
  -26.4300  -31.7530   25.1330 C   0  0  1  0  0  0  0  0  0  0  0  0
  -25.3440  -31.5210   26.2100 C   0  0  0  0  0  1  0  0  0  0  0  0
  -27.0100  -30.3730   24.7430 C   0  0  0  0  0  1  0  0  0  0  0  0
  -27.5830  -32.5480   25.7880 C   0  0  0  0  0  1  0  0  0  0  0  0
  1  3  2  0
  2  6  1  0
  2  1  1  0
  4  2  1  0
  6  5  1  0
  7  8  2  0
  7 10  1  0
  8  6  1  0
  9  8  1  0
 10 16  1  0
 11 16  1  0
 12 13  1  0
 12 11  1  0
 14 13  1  0
 14 21  1  0
 14 15  1  0
 16 15  1  0
 17 10  2  0
 18 19  2  0
 19 38  1  0
 20 19  1  0
 20 23  1  0
 21 18  1  0
 21 22  1  0
 22 20  2  0
 23 24  1  0
 24 25  2  0
 26 29  1  0
 26 25  1  0
 27 26  2  0
 28 27  1  0
 28 23  2  0
 29 30  1  0
 30 31  1  0
 31 32  2  0
 33 32  1  0
 33 37  1  0
 34 33  2  0
 35 30  2  0
 35 34  1  0
 36 35  1  0
 38 39  1  0
 39 42  1  0
 39 41  1  0
 40 38  2  0
 43 44  1  0
 43 18  1  0
 45 43  1  0
 46 47  1  0
 46  1  1  0
 48 49  1  0
 48 47  2  0
 50 61  2  0
 51 49  1  0
 51 56  1  0
 52 60  1  0
 52 62  1  0
 53 59  1  0
 53 55  1  0
 54 60  1  0
 55 54  1  0
 56 55  2  0
 57 58  1  0
 57 51  2  0
 58 53  2  0
 59 52  1  0
 60 50  1  0
 62 64  2  0
 63 62  1  0
 65 63  1  0
 66 75  2  0
 66 71  1  0
 67 63  1  0
 67 71  1  0
 68 67  1  0
 69 70  1  0
 69 68  1  0
 70 66  1  0
 71 72  2  0
 72 73  1  0
 74 73  2  0
 75 74  1  0
 76 50  1  0
 76 77  1  0
 76 86  1  0
 77 80  1  0
 78 82  1  0
 78 77  1  0
 79 78  2  0
 82 81  1  0
 84 82  1  0
 84 85  1  0
 84 83  1  0
 86 89  1  1
 86 87  1  0
 88 86  1  0
M  ISO  4   7 100  10 100  48 101  49 101
M  END
>  <TORSDO>  (59) 
F 21

>  <SCORE>  (59) 
-13.578

>  <name>  (59) 
58

>  <ligand_id>  (59) 
58

>  <original_smiles>  (59) 
[H]C(C(=O)N1C([H])([H])C([H])([H])C([H])([H])C([H])(n2nc(-c3c([H])c([H])c(Oc4c([H])c([H])c(F)c([H])c4F)c([H])c3[H])c(C(=O)N([H])[H])c2N([H])[H])C1([H])[H])=C(C([H])([H])[H])C([H])(N([H])C(=O)C([H])([H])C([H])([H])C([H])([H])Oc1c([H])c([H])c2c(c1[H])C([H])([H])N(C(=O)C([H])(N([H])C(=O)C([H])(N([H])C([H])([H])[H])C([H])([H])[H])C(C([H])([H])[H])(C([H])([H])[H])C([H])([H])[H])C([H])(C(=O)N([H])C1([H])c3c([H])c([H])c([H])c([H])c3C([H])([H])C([H])([H])C1([H])[H])C2([H])[H])C([H])([H])[H]

>  <smiles>  (59) 
[H]C(C(=O)N1C([H])([H])C([H])([H])C([H])([H])C([H])(n2nc(-c3c([H])c([H])c(Oc4c([H])c([H])c(F)c([H])c4F)c([H])c3[H])c(C(=O)N([H])[H])c2N([H])[H])C1([H])[H])=C(C([H])([H])[H])C([H])(N([H])C(=O)C([H])([H])C([H])([H])C([H])([H])Oc1c([H])c([H])c2c(c1[H])C([H])([H])N(C(=O)C([H])(N([H])C(=O)C([H])(N([H])C([H])([H])[H])C([H])([H])[H])C(C([H])([H])[H])(C([H])([H])[H])C([H])([H])[H])C([H])(C(=O)N([H])C1([H])c3c([H])c([H])c([H])c([H])c3C([H])([H])C([H])([H])C1([H])[H])C2([H])[H])C([H])([H])[H]

$$$$
59:0:0
     RDKit          3D

 89 96  0  0  1  0  0  0  0  0999 V2000
  -28.4700  -24.1510   20.9600 C   0  0  0  0  0  3  0  0  0  0  0  0
  -29.3470  -23.3390   21.4520 N   0  0  0  0  0  2  0  0  0  0  0  0
  -25.9570  -23.7120   21.0900 C   0  0  0  0  0  1  0  0  0  0  0  0
  -27.2240  -23.6790   20.2210 C   0  0  0  0  0  2  0  0  0  0  0  0
  -28.5770  -25.6980   21.1930 C   0  0  0  0  0  2  0  0  0  0  0  0
  -28.3400  -26.5890   20.0710 O   0  0  0  0  0  0  0  0  0  0  0  0
  -24.5860  -31.8730   23.2190 C   0  0  0  0  0  0  0  0  0  0  0  0
  -27.2100  -27.3910   20.1310 C   0  0  0  0  0  0  0  0  0  0  0  0
  -23.3800  -30.4810   21.5700 C   0  0  0  0  0  3  0  0  0  0  0  0
  -24.8340  -28.9450   20.1410 C   0  0  0  0  0  0  0  0  0  0  0  0
  -25.9120  -30.8190   21.3840 C   0  0  0  0  0  2  0  0  0  0  0  0
  -25.9960  -29.4440   20.7450 C   0  0  0  0  0  0  0  0  0  0  0  0
  -27.1880  -28.6710   20.7480 C   0  0  0  0  0  3  0  0  0  0  0  0
  -26.0370  -26.9380   19.4940 C   0  0  0  0  0  3  0  0  0  0  0  0
  -24.8520  -27.6910   19.5120 C   0  0  0  0  0  3  0  0  0  0  0  0
  -23.5920  -29.8100   20.1880 C   0  0  0  0  0  2  0  0  0  0  0  0
  -24.6460  -31.0730   22.1160 N   0  0  0  0  0  0  0  0  0  0  0  0
  -23.5050  -32.1470   23.7570 O   0  0  0  0  0  0  0  0  0  0  0  0
  -22.7240  -29.4570   22.5250 C   0  0  0  0  0  0  0  0  0  0  0  0
  -21.4000  -29.2730   22.3900 N   0  0  0  0  0  0  0  0  0  0  0  0
  -23.4040  -28.8300   23.3420 O   0  0  0  0  0  0  0  0  0  0  0  0
  -20.9120  -29.8300   21.7040 H   0  0  0  0  0  0  0  0  0  0  0  0
  -18.0290  -28.0540   22.8570 C   0  0  0  0  0  0  0  0  0  0  0  0
  -20.5810  -28.3310   23.1540 C   0  0  0  0  0  3  0  0  0  0  0  0
  -20.7000  -26.8990   22.5830 C   0  0  0  0  0  2  0  0  0  0  0  0
  -19.6120  -26.5660   21.5590 C   0  0  0  0  0  2  0  0  0  0  0  0
  -18.2220  -26.7030   22.1880 C   0  0  0  0  0  2  0  0  0  0  0  0
  -19.1380  -28.8250   23.2960 C   0  0  0  0  0  0  0  0  0  0  0  0
  -18.9040  -30.0880   23.8810 C   0  0  0  0  0  3  0  0  0  0  0  0
  -17.5950  -30.5810   24.0310 C   0  0  0  0  0  3  0  0  0  0  0  0
  -16.5000  -29.8080   23.6090 C   0  0  0  0  0  3  0  0  0  0  0  0
  -16.7180  -28.5460   23.0270 C   0  0  0  0  0  3  0  0  0  0  0  0
  -25.8730  -32.4990   23.8420 C   0  0  0  0  0  3  0  0  0  0  0  0
  -25.5670  -33.8970   24.1740 N   0  0  0  0  0  0  0  0  0  0  0  0
  -25.9050  -34.9500   23.4160 C   0  0  0  0  0  0  0  0  0  0  0  0
  -26.5770  -34.8460   22.3870 O   0  0  0  0  0  0  0  0  0  0  0  0
  -24.9720  -34.0530   24.9740 H   0  0  0  0  0  0  0  0  0  0  0  0
  -24.1840  -36.7480   23.0590 C   0  0  0  0  0  1  0  0  0  0  0  0
  -25.4200  -36.3380   23.8750 C   0  0  0  0  0  3  0  0  0  0  0  0
  -27.5550  -37.2140   24.7140 C   0  0  0  0  0  1  0  0  0  0  0  0
  -26.4560  -37.3890   23.7680 N   0  0  0  0  0  0  0  0  0  0  0  0
  -26.0530  -38.3100   23.9160 H   0  0  0  0  0  0  0  0  0  0  0  0
  -26.3880  -31.7220   25.1150 C   0  0  1  0  0  0  0  0  0  0  0  0
  -25.2940  -31.4860   26.1820 C   0  0  0  0  0  1  0  0  0  0  0  0
  -26.9670  -30.3440   24.7180 C   0  0  0  0  0  1  0  0  0  0  0  0
  -27.5410  -32.5110   25.7780 C   0  0  0  0  0  1  0  0  0  0  0  0
  -29.0650  -21.9120   21.7390 C   0  0  0  0  0  2  0  0  0  0  0  0
  -29.6350  -20.8410   20.7490 C   0  0  0  0  0  2  0  0  0  0  0  0
  -29.9220  -19.4620   21.4450 C   0  0  0  0  0  2  0  0  0  0  0  0
  -29.8940  -18.1490   20.5920 C   0  0  0  0  0  2  0  0  0  0  0  0
  -30.4960  -16.9080   21.3390 C   0  0  0  0  0  2  0  0  0  0  0  0
  -30.6890  -14.5550   20.3570 C   0  0  0  0  0  0  0  0  0  0  0  0
  -30.3680  -12.3910   19.1920 C   0  0  0  0  0  2  0  0  0  0  0  0
  -29.4010  -12.5820   18.0040 C   0  0  0  0  0  2  0  0  0  0  0  0
  -27.9340  -12.4510   18.4620 C   0  0  0  0  0  2  0  0  0  0  0  0
  -27.6240  -13.2960   19.7260 C   0  0  0  0  0  3  0  0  0  0  0  0
  -28.6960  -13.0730   20.8150 C   0  0  0  0  0  2  0  0  0  0  0  0
  -30.0070  -13.3820   20.2210 N   0  0  0  0  0  0  0  0  0  0  0  0
  -31.8230  -14.7210   19.8950 O   0  0  0  0  0  0  0  0  0  0  0  0
  -30.0010  -15.5730   20.9230 N   0  0  0  0  0  0  0  0  0  0  0  0
  -29.0620  -15.3400   21.2110 H   0  0  0  0  0  0  0  0  0  0  0  0
  -25.2450  -13.9330   20.4720 C   0  0  0  0  0  0  0  0  0  0  0  0
  -24.1740  -13.1730   20.8580 C   0  0  0  0  0  0  0  0  0  0  0  0
  -24.6180  -11.8160   20.8230 C   0  0  0  0  0  0  0  0  0  0  0  0
  -26.2760  -13.0370   20.2270 N   0  0  0  0  0  0  0  0  0  0  0  0
  -25.9030  -11.7600   20.4950 N   0  0  0  0  0  0  0  0  0  0  0  0
  -23.8780  -10.5630   21.0250 C   0  0  0  0  0  0  0  0  0  0  0  0
  -24.3210   -9.5840   21.9420 C   0  0  0  0  0  3  0  0  0  0  0  0
  -23.5840   -8.3950   22.1310 C   0  0  0  0  0  3  0  0  0  0  0  0
  -22.3900   -8.1770   21.4030 C   0  0  0  0  0  0  0  0  0  0  0  0
  -21.9670   -9.1440   20.4750 C   0  0  0  0  0  3  0  0  0  0  0  0
  -22.7040  -10.3240   20.2840 C   0  0  0  0  0  3  0  0  0  0  0  0
  -21.6230   -7.0420   21.5030 O   0  0  0  0  0  0  0  0  0  0  0  0
  -21.6000   -6.2870   22.6490 C   0  0  0  0  0  0  0  0  0  0  0  0
  -21.2270   -6.8360   23.8950 C   0  0  0  0  0  3  0  0  0  0  0  0
  -21.1500   -6.0080   25.0340 C   0  0  0  0  0  3  0  0  0  0  0  0
  -21.4360   -4.6340   24.9270 C   0  0  0  0  0  0  0  0  0  0  0  0
  -21.8020   -4.0840   23.6860 C   0  0  0  0  0  3  0  0  0  0  0  0
  -21.8810   -4.9090   22.5490 C   0  0  0  0  0  0  0  0  0  0  0  0
  -22.2140   -4.3710   21.3510 F   0  0  0  0  0  0  0  0  0  0  0  0
  -21.3550   -3.8380   26.0180 F   0  0  0  0  0  0  0  0  0  0  0  0
  -22.7860  -13.6680   21.1510 C   0  0  0  0  0  0  0  0  0  0  0  0
  -22.0620  -12.9810   22.0280 N   0  0  0  0  0  0  0  0  0  0  0  0
  -22.3520  -14.6980   20.6370 O   0  0  0  0  0  0  0  0  0  0  0  0
  -22.4250  -12.1480   22.4670 H   0  0  0  0  0  0  0  0  0  0  0  0
  -21.1320  -13.2940   22.2660 H   0  0  0  0  0  0  0  0  0  0  0  0
  -25.4250  -15.3010   20.2900 N   0  0  0  0  0  0  0  0  0  0  0  0
  -24.6690  -15.9660   20.4090 H   0  0  0  0  0  0  0  0  0  0  0  0
  -26.2730  -15.7270   19.9400 H   0  0  0  0  0  0  0  0  0  0  0  0
  1  4  1  0
  1  5  1  0
  1  2  1  0
  2 47  1  0
  4  3  1  0
  6  8  1  0
  6  5  1  0
  7 18  2  0
  8 13  1  0
  9 17  1  0
  9 19  1  0
 10 16  1  0
 10 12  1  0
 11 17  1  0
 12 13  2  0
 12 11  1  0
 14 15  1  0
 14  8  2  0
 15 10  2  0
 16  9  1  0
 17  7  1  0
 19 21  2  0
 20 19  1  0
 22 20  1  0
 23 32  2  0
 23 28  1  0
 24 20  1  0
 24 28  1  0
 25 24  1  0
 26 27  1  0
 26 25  1  0
 27 23  1  0
 28 29  2  0
 29 30  1  0
 31 30  2  0
 32 31  1  0
 33  7  1  0
 33 34  1  0
 33 43  1  0
 34 37  1  0
 35 39  1  0
 35 34  1  0
 36 35  2  0
 39 38  1  0
 41 39  1  0
 41 42  1  0
 41 40  1  0
 43 46  1  1
 43 44  1  0
 45 43  1  0
 48 49  1  0
 48 47  1  0
 50 51  1  0
 50 49  1  0
 52 60  1  0
 53 58  1  0
 54 55  1  0
 54 53  1  0
 56 55  1  0
 56 65  1  0
 56 57  1  0
 58 52  1  0
 58 57  1  0
 59 52  2  0
 60 61  1  0
 60 51  1  0
 62 63  2  0
 63 82  1  0
 64 63  1  0
 64 67  1  0
 65 62  1  0
 65 66  1  0
 66 64  2  0
 67 68  1  0
 68 69  2  0
 70 73  1  0
 70 69  1  0
 71 70  2  0
 72 71  1  0
 72 67  2  0
 73 74  1  0
 74 75  1  0
 75 76  2  0
 77 76  1  0
 77 81  1  0
 78 77  2  0
 79 74  2  0
 79 78  1  0
 80 79  1  0
 82 83  1  0
 83 86  1  0
 83 85  1  0
 84 82  2  0
 87 88  1  0
 87 62  1  0
 89 87  1  0
M  ISO  4   5 101   6 101  52 100  60 100
M  END
>  <TORSDO>  (60) 
F 23

>  <SCORE>  (60) 
-12.769

>  <name>  (60) 
59

>  <ligand_id>  (60) 
59

>  <original_smiles>  (60) 
[H]c1c([H])c([H])c2c(c1[H])C([H])([H])C([H])([H])C([H])([H])C2([H])N([H])C(=O)C1([H])N(C(=O)C([H])(N([H])C(=O)C([H])(N([H])C([H])([H])[H])C([H])([H])[H])C(C([H])([H])[H])(C([H])([H])[H])C([H])([H])[H])C([H])([H])c2c([H])c(OC([H])([H])C(=NC([H])([H])C([H])([H])C([H])([H])C([H])([H])C([H])([H])N([H])C(=O)N3C([H])([H])C([H])([H])C([H])([H])C([H])(n4nc(-c5c([H])c([H])c(Oc6c([H])c([H])c(F)c([H])c6F)c([H])c5[H])c(C(=O)N([H])[H])c4N([H])[H])C3([H])[H])C([H])([H])C([H])([H])[H])c([H])c([H])c2C1([H])[H]

>  <smiles>  (60) 
[H]c1c([H])c([H])c2c(c1[H])C([H])([H])C([H])([H])C([H])([H])C2([H])N([H])C(=O)C1([H])N(C(=O)C([H])(N([H])C(=O)C([H])(N([H])C([H])([H])[H])C([H])([H])[H])C(C([H])([H])[H])(C([H])([H])[H])C([H])([H])[H])C([H])([H])c2c([H])c(OC([H])([H])C(=NC([H])([H])C([H])([H])C([H])([H])C([H])([H])C([H])([H])N([H])C(=O)N3C([H])([H])C([H])([H])C([H])([H])C([H])(n4nc(-c5c([H])c([H])c(Oc6c([H])c([H])c(F)c([H])c6F)c([H])c5[H])c(C(=O)N([H])[H])c4N([H])[H])C3([H])[H])C([H])([H])C([H])([H])[H])c([H])c([H])c2C1([H])[H]

$$$$
60:0:0
     RDKit          3D

100102  0  0  1  0  0  0  0  0999 V2000
  -26.0510  -15.0290   20.7480 C   0  0  0  0  0  0  0  0  0  0  0  0
  -26.9070  -16.5790   20.4950 N   0  0  0  0  0  0  0  0  0  0  0  0
  -24.6960  -13.8780   20.6300 N   0  0  0  0  0  2  0  0  0  0  0  0
  -26.1560  -16.8600   19.8770 H   0  0  0  0  0  0  0  0  0  0  0  0
  -23.9810  -14.4340   20.1700 H   0  0  0  0  0  0  0  0  0  0  0  0
  -23.7370  -11.9890   20.7820 C   0  0  0  0  0 15  0  0  0  0  0  0
  -21.1760   -7.0950   19.1240 C   0  0  0  0  0  3  0  0  0  0  0  0
  -21.4070   -8.6600   18.3890 C   0  0  0  0  0  1  0  0  0  0  0  0
  -21.2720   -6.9110   20.8420 C   0  0  0  0  0  3  0  0  0  0  0  0
  -21.8990   -9.6610   21.8970 C   0  0  0  0  0  3  0  0  0  0  0  0
  -22.0670  -10.5340   20.4080 C   0  0  0  0  0  1  0  0  0  0  0  0
  -21.5460   -8.0500   22.0180 N   0  0  0  0  0  0  0  0  0  0  0  0
  -27.7730  -18.4390   20.0870 C   0  0  0  0  0 15  0  0  0  0  0  0
  -28.7690  -20.4550   20.6120 C   0  0  0  0  0 15  0  0  0  0  0  0
  -29.4360  -22.4020   20.3390 O   0  0  0  0  0  1  0  0  0  0  0  0
  -26.9860  -28.9580   24.2410 C   0  0  0  0  0  0  0  0  0  0  0  0
  -29.0750  -24.0440   20.4810 C   0  0  0  0  0  0  0  0  0  0  0  0
  -25.9720  -28.0830   22.1920 C   0  0  0  0  0  3  0  0  0  0  0  0
  -27.4750  -26.7190   20.5380 C   0  0  0  0  0  0  0  0  0  0  0  0
  -28.5310  -27.9060   22.4180 C   0  0  0  0  0  2  0  0  0  0  0  0
  -28.5260  -26.6180   21.4470 C   0  0  0  0  0  0  0  0  0  0  0  0
  -29.3370  -25.3170   21.3860 C   0  0  0  0  0  3  0  0  0  0  0  0
  -28.2640  -24.5960   19.4560 C   0  0  0  0  0  3  0  0  0  0  0  0
  -27.4560  -25.7760   19.5020 C   0  0  0  0  0  3  0  0  0  0  0  0
  -26.3710  -27.7820   20.7120 C   0  0  0  0  0  2  0  0  0  0  0  0
  -27.1930  -28.3580   23.0110 N   0  0  0  0  0  0  0  0  0  0  0  0
  -25.8430  -29.1830   24.6810 O   0  0  0  0  0  0  0  0  0  0  0  0
  -25.1450  -26.9110   22.7900 C   0  0  0  0  0  0  0  0  0  0  0  0
  -24.1580  -26.3780   22.0450 N   0  0  0  0  0  0  0  0  0  0  0  0
  -25.4050  -26.4900   23.9200 O   0  0  0  0  0  0  0  0  0  0  0  0
  -23.9740  -26.7790   21.1350 H   0  0  0  0  0  0  0  0  0  0  0  0
  -21.6340  -24.0360   20.8870 C   0  0  0  0  0  0  0  0  0  0  0  0
  -23.3370  -25.2230   22.4310 C   0  0  0  0  0  3  0  0  0  0  0  0
  -24.1530  -23.9110   22.3560 C   0  0  0  0  0  2  0  0  0  0  0  0
  -24.0170  -23.1920   21.0110 C   0  0  0  0  0  2  0  0  0  0  0  0
  -22.5530  -22.8340   20.7400 C   0  0  0  0  0  2  0  0  0  0  0  0
  -22.0080  -25.1620   21.6670 C   0  0  0  0  0  0  0  0  0  0  0  0
  -21.1270  -26.2620   21.7450 C   0  0  0  0  0  3  0  0  0  0  0  0
  -19.8970  -26.2500   21.0610 C   0  0  0  0  0  3  0  0  0  0  0  0
  -19.5270  -25.1290   20.2990 C   0  0  0  0  0  3  0  0  0  0  0  0
  -20.3920  -24.0220   20.2170 C   0  0  0  0  0  3  0  0  0  0  0  0
  -28.1650  -29.4030   25.1590 C   0  0  0  0  0  3  0  0  0  0  0  0
  -28.4210  -28.4090   26.3620 C   0  0  1  0  0  0  0  0  0  0  0  0
  -27.1480  -28.0640   27.1720 C   0  0  0  0  0  1  0  0  0  0  0  0
  -29.0300  -27.0770   25.8780 C   0  0  0  0  0  1  0  0  0  0  0  0
  -29.4540  -29.0210   27.3380 C   0  0  0  0  0  1  0  0  0  0  0  0
  -27.8530  -30.7460   25.7030 N   0  0  0  0  0  0  0  0  0  0  0  0
  -28.3810  -31.9050   25.2850 C   0  0  0  0  0  0  0  0  0  0  0  0
  -29.2390  -31.9550   24.4000 O   0  0  0  0  0  0  0  0  0  0  0  0
  -27.1160  -30.7850   26.3930 H   0  0  0  0  0  0  0  0  0  0  0  0
  -26.8860  -33.9220   25.0200 C   0  0  0  0  0  1  0  0  0  0  0  0
  -27.8880  -33.2130   25.9470 C   0  0  0  0  0  3  0  0  0  0  0  0
  -29.8040  -33.6870   27.4100 C   0  0  0  0  0  1  0  0  0  0  0  0
  -28.9780  -34.1500   26.2980 N   0  0  0  0  0  0  0  0  0  0  0  0
  -28.6040  -35.0630   26.5430 H   0  0  0  0  0  0  0  0  0  0  0  0
  -27.1140  -14.2060   21.4720 C   0  0  0  0  0  3  0  0  0  0  0  0
  -26.9900  -14.4420   22.9160 N   0  0  0  0  0  4  0  0  0  0  0  0
  -27.2500  -15.3880   23.1340 H   0  0  0  0  0  0  0  0  0  0  0  0
  -27.5820  -13.8110   23.4250 H   0  0  0  0  0  0  0  0  0  0  0  0
  -26.0420  -14.2940   23.2080 H   0  0  0  0  0  0  0  0  0  0  0  0
  -29.1670  -13.1620   20.3500 C   0  0  0  0  0  2  0  0  0  0  0  0
  -29.1040  -14.4510   19.5790 C   0  0  0  0  0  3  0  0  0  0  0  0
  -28.5990  -14.3920   21.0310 C   0  0  0  0  0  3  0  0  0  0  0  0
  -30.4530  -14.9300   18.9680 C   0  0  0  0  0  2  0  0  0  0  0  0
  -31.0180  -14.3740   17.5970 C   0  0  0  0  0  0  0  0  0  0  0  0
  -31.9870  -14.8720   15.3640 C   0  0  0  0  0  2  0  0  0  0  0  0
  -33.1310  -15.8920   15.5740 C   0  0  0  0  0  2  0  0  0  0  0  0
  -32.6030  -17.3220   15.7230 C   0  0  0  0  0  2  0  0  0  0  0  0
  -31.4010  -17.3890   16.7150 C   0  0  0  0  0  3  0  0  0  0  0  0
  -30.3420  -16.3650   16.2300 C   0  0  0  0  0  2  0  0  0  0  0  0
  -30.9790  -15.0730   16.4250 N   0  0  0  0  0  0  0  0  0  0  0  0
  -31.6520  -13.3110   17.6510 O   0  0  0  0  0  0  0  0  0  0  0  0
  -31.4350  -20.0010   16.7900 C   0  0  0  0  0  0  0  0  0  0  0  0
  -30.4010  -20.8960   16.6560 C   0  0  0  0  0  0  0  0  0  0  0  0
  -29.3560  -19.9690   16.5050 C   0  0  0  0  0  0  0  0  0  0  0  0
  -30.8890  -18.7210   16.7660 N   0  0  0  0  0  0  0  0  0  0  0  0
  -29.6170  -18.7350   16.5940 N   0  0  0  0  0  0  0  0  0  0  0  0
  -28.0890  -20.0830   16.6310 C   0  0  0  0  0  3  0  0  0  0  0  0
  -27.6200  -19.8050   18.2480 C   0  0  0  0  0  2  0  0  0  0  0  0
  -26.3350  -20.6440   18.8360 C   0  0  0  0  0  1  0  0  0  0  0  0
  -25.3140  -22.0750   17.0290 C   0  0  0  0  0  2  0  0  0  0  0  0
  -26.1410  -21.9810   15.6220 C   0  0  0  0  0  3  0  0  0  0  0  0
  -27.4170  -21.0260   15.4600 C   0  0  0  0  0  3  0  0  0  0  0  0
  -23.9500  -21.9950   16.3570 O   0  0  0  0  0  0  0  0  0  0  0  0
  -22.8310  -22.8800   16.3850 C   0  0  0  0  0  0  0  0  0  0  0  0
  -23.0420  -23.9740   17.2320 C   0  0  0  0  0  3  0  0  0  0  0  0
  -21.9870  -24.7570   17.7090 C   0  0  0  0  0  3  0  0  0  0  0  0
  -20.6930  -24.5810   17.2140 C   0  0  0  0  0  0  0  0  0  0  0  0
  -20.4520  -23.5960   16.2380 C   0  0  0  0  0  3  0  0  0  0  0  0
  -21.4980  -22.7330   15.8160 C   0  0  0  0  0  0  0  0  0  0  0  0
  -21.1550  -21.7860   14.8990 F   0  0  0  0  0  0  0  0  0  0  0  0
  -19.7090  -25.3920   17.6660 F   0  0  0  0  0  0  0  0  0  0  0  0
  -30.3880  -22.4460   16.7770 C   0  0  0  0  0  0  0  0  0  0  0  0
  -29.7560  -23.1030   17.7580 N   0  0  0  0  0  0  0  0  0  0  0  0
  -31.1920  -23.0990   16.1410 O   0  0  0  0  0  0  0  0  0  0  0  0
  -29.1370  -22.5970   18.3950 H   0  0  0  0  0  0  0  0  0  0  0  0
  -29.8100  -24.1100   17.8100 H   0  0  0  0  0  0  0  0  0  0  0  0
  -32.7990  -20.1540   16.9580 N   0  0  0  0  0  0  0  0  0  0  0  0
  -33.1850  -20.9980   16.5510 H   0  0  0  0  0  0  0  0  0  0  0  0
  -33.3860  -19.3570   16.7440 H   0  0  0  0  0  0  0  0  0  0  0  0
  2  1  2  0
  3  1  1  0
  4  2  1  0
  5  3  1  0
  7  9  2  0
  8  7  1  0
  9 12  1  0
 10 12  2  0
 11 10  1  0
 15 17  1  0
 16 27  2  0
 17 22  1  0
 18 28  1  0
 18 26  1  0
 19 25  1  0
 19 21  1  0
 20 26  1  0
 21 20  1  0
 22 21  2  0
 23 24  1  0
 23 17  2  0
 24 19  2  0
 25 18  1  0
 26 16  1  0
 28 30  2  0
 29 28  1  0
 31 29  1  0
 32 37  1  0
 33 29  1  0
 34 33  1  0
 35 34  1  0
 36 32  1  0
 36 35  1  0
 37 38  2  0
 37 33  1  0
 39 38  1  0
 40 39  2  0
 41 40  1  0
 41 32  2  0
 42 16  1  0
 42 47  1  0
 42 43  1  0
 43 44  1  1
 43 46  1  0
 45 43  1  0
 47 50  1  0
 48 47  1  0
 48 52  1  0
 49 48  2  0
 52 51  1  0
 52 54  1  0
 54 55  1  0
 54 53  1  0
 56  1  1  0
 56 57  1  0
 57 58  1  0
 57 60  1  0
 57 59  1  0
 61 63  1  0
 62 64  1  0
 62 61  1  0
 62 63  1  0
 63 56  1  0
 65 72  2  0
 65 64  1  0
 66 67  1  0
 66 71  1  0
 67 68  1  0
 69 68  1  0
 69 76  1  0
 70 71  1  0
 70 69  1  0
 71 65  1  0
 73 98  1  0
 74 93  1  0
 74 73  2  0
 75 77  2  0
 75 78  1  0
 75 74  1  0
 76 73  1  0
 77 76  1  0
 78 83  1  0
 78 79  1  0
 79 80  1  0
 82 81  1  0
 83 82  2  0
 84 85  1  0
 84 81  1  0
 85 86  1  0
 86 87  2  0
 88 92  1  0
 88 87  1  0
 89 88  2  0
 90 89  1  0
 90 85  2  0
 91 90  1  0
 93 94  1  0
 94 97  1  0
 94 96  1  0
 95 93  2  0
 99 98  1  0
100 98  1  0
M  ISO  4  14 101  15 101  64 100  65 100
M  END
>  <TORSDO>  (61) 
F 24

>  <SCORE>  (61) 
15.263

>  <name>  (61) 
60

>  <ligand_id>  (61) 
60

>  <original_smiles>  (61) 
[H]c1nc([H])c(C([H])([H])[N+]([H])=C(N([H])C([H])([H])C([H])([H])Oc2c([H])c([H])c3c(c2[H])C([H])([H])N(C(=O)C([H])(N([H])C(=O)C([H])(N([H])C([H])([H])[H])C([H])([H])[H])C(C([H])([H])[H])(C([H])([H])[H])C([H])([H])[H])C([H])(C(=O)N([H])C2([H])c4c([H])c([H])c([H])c([H])c4C([H])([H])C([H])([H])C2([H])[H])C3([H])[H])C([H])(C2([H])C([H])([H])C2([H])C([H])([H])C(=O)N2C([H])([H])C([H])([H])C([H])([H])C([H])(n3nc(-c4c([H])c([H])c(Oc5c([H])c([H])c(F)c([H])c5F)c([H])c4[H])c(C(=O)N([H])[H])c3N([H])[H])C2([H])[H])[N+]([H])([H])[H])c([H])c1[H]

>  <smiles>  (61) 
[H]c1nc([H])c(C([H])([H])[N+]([H])=C(N([H])C([H])([H])C([H])([H])Oc2c([H])c([H])c3c(c2[H])C([H])([H])N(C(=O)C([H])(N([H])C(=O)C([H])(N([H])C([H])([H])[H])C([H])([H])[H])C(C([H])([H])[H])(C([H])([H])[H])C([H])([H])[H])C([H])(C(=O)N([H])C2([H])c4c([H])c([H])c([H])c([H])c4C([H])([H])C([H])([H])C2([H])[H])C3([H])[H])C([H])(C2([H])C([H])([H])C2([H])C([H])([H])C(=O)N2C([H])([H])C([H])([H])C([H])([H])C([H])(n3nc(-c4c([H])c([H])c(Oc5c([H])c([H])c(F)c([H])c5F)c([H])c4[H])c(C(=O)N([H])[H])c3N([H])[H])C2([H])[H])[N+]([H])([H])[H])c([H])c1[H]

$$$$
61:0:0
     RDKit          3D

101109  0  0  1  0  0  0  0  0999 V2000
  -22.0910  -22.8210   20.5850 C   0  0  0  0  0  2  0  0  0  0  0  0
  -22.2360  -22.7770   19.0630 C   0  0  0  0  0  2  0  0  0  0  0  0
  -23.0160  -23.8730   21.2210 C   0  0  0  0  0  2  0  0  0  0  0  0
  -23.6860  -22.4380   18.6520 C   0  0  0  0  0  2  0  0  0  0  0  0
  -24.1430  -24.3520   20.2770 C   0  0  0  0  0  2  0  0  0  0  0  0
  -24.8050  -23.2150   19.4330 C   0  0  2  0  0  0  0  0  0  0  0  0
  -25.8170  -23.8080   18.4100 C   0  0  0  0  0  0  0  0  0  0  0  0
  -26.5000  -24.9140   18.7250 N   0  0  0  0  0  0  0  0  0  0  0  0
  -26.0160  -23.2140   17.3490 O   0  0  0  0  0  0  0  0  0  0  0  0
  -26.2900  -25.3700   19.6030 H   0  0  0  0  0  0  0  0  0  0  0  0
  -27.5760  -25.4810   17.9170 C   0  0  0  0  0  2  0  0  0  0  0  0
  -28.4030  -26.5070   18.7140 C   0  0  0  0  0  2  0  0  0  0  0  0
  -28.1250  -27.8560   18.3450 O   0  0  0  0  0  0  0  0  0  0  0  0
  -25.1070  -31.0140   23.9590 C   0  0  0  0  0  0  0  0  0  0  0  0
  -26.9980  -28.4160   18.8890 C   0  0  0  0  0  0  0  0  0  0  0  0
  -23.5830  -30.4330   22.0960 C   0  0  0  0  0  3  0  0  0  0  0  0
  -24.7100  -29.6840   19.9380 C   0  0  0  0  0  0  0  0  0  0  0  0
  -26.0560  -30.9020   21.6600 C   0  0  0  0  0  2  0  0  0  0  0  0
  -25.9690  -29.9380   20.4970 C   0  0  0  0  0  0  0  0  0  0  0  0
  -27.1170  -29.3080   19.9740 C   0  0  0  0  0  3  0  0  0  0  0  0
  -25.7280  -28.1760   18.3280 C   0  0  0  0  0  3  0  0  0  0  0  0
  -24.5810  -28.7980   18.8540 C   0  0  0  0  0  3  0  0  0  0  0  0
  -23.5340  -30.4150   20.5450 C   0  0  0  0  0  2  0  0  0  0  0  0
  -24.9440  -30.7710   22.6270 N   0  0  0  0  0  0  0  0  0  0  0  0
  -24.1410  -31.0040   24.7340 O   0  0  0  0  0  0  0  0  0  0  0  0
  -23.0410  -29.0830   22.6190 C   0  0  0  0  0  0  0  0  0  0  0  0
  -21.7490  -28.8210   22.3630 N   0  0  0  0  0  0  0  0  0  0  0  0
  -23.7800  -28.2910   23.2090 O   0  0  0  0  0  0  0  0  0  0  0  0
  -21.2110  -29.5240   21.8730 H   0  0  0  0  0  0  0  0  0  0  0  0
  -18.6850  -26.9840   21.8370 C   0  0  0  0  0  0  0  0  0  0  0  0
  -21.0300  -27.6020   22.7300 C   0  0  0  0  0  3  0  0  0  0  0  0
  -21.5460  -26.3890   21.9230 C   0  0  0  0  0  2  0  0  0  0  0  0
  -20.7510  -26.1370   20.6390 C   0  0  0  0  0  2  0  0  0  0  0  0
  -19.2770  -25.8850   20.9680 C   0  0  0  0  0  2  0  0  0  0  0  0
  -19.5110  -27.8020   22.6520 C   0  0  0  0  0  0  0  0  0  0  0  0
  -18.9160  -28.8330   23.4120 C   0  0  0  0  0  3  0  0  0  0  0  0
  -17.5240  -29.0470   23.3710 C   0  0  0  0  0  3  0  0  0  0  0  0
  -16.7100  -28.2220   22.5760 C   0  0  0  0  0  3  0  0  0  0  0  0
  -17.2910  -27.1920   21.8150 C   0  0  0  0  0  3  0  0  0  0  0  0
  -26.5090  -31.3400   24.5640 C   0  0  0  0  0  3  0  0  0  0  0  0
  -26.9250  -30.3660   25.7340 C   0  0  1  0  0  0  0  0  0  0  0  0
  -25.8590  -30.2430   26.8470 C   0  0  0  0  0  1  0  0  0  0  0  0
  -27.2000  -28.9450   25.1880 C   0  0  0  0  0  1  0  0  0  0  0  0
  -28.2400  -30.8540   26.3830 C   0  0  0  0  0  1  0  0  0  0  0  0
  -26.4770  -32.7320   25.0330 N   0  0  0  0  0  0  0  0  0  0  0  0
  -27.0470  -33.7630   24.3940 C   0  0  0  0  0  0  0  0  0  0  0  0
  -27.7260  -33.6250   23.3730 O   0  0  0  0  0  0  0  0  0  0  0  0
  -25.8930  -32.9250   25.8330 H   0  0  0  0  0  0  0  0  0  0  0  0
  -25.7960  -35.9270   24.1290 C   0  0  0  0  0  1  0  0  0  0  0  0
  -26.8270  -35.1700   24.9800 C   0  0  0  0  0  3  0  0  0  0  0  0
  -29.0080  -35.4500   26.0730 C   0  0  0  0  0  1  0  0  0  0  0  0
  -28.0710  -35.9650   25.0790 N   0  0  0  0  0  0  0  0  0  0  0  0
  -27.8620  -36.9320   25.3120 H   0  0  0  0  0  0  0  0  0  0  0  0
  -25.5640  -22.2380   20.3990 C   0  0  0  0  0  2  0  0  0  0  0  0
  -26.8150  -21.6400   19.8520 N   0  0  0  0  0  4  0  0  0  0  0  0
  -26.7500  -21.6950   18.8440 H   0  0  0  0  0  0  0  0  0  0  0  0
  -26.8640  -20.6660   20.1050 H   0  0  0  0  0  0  0  0  0  0  0  0
  -28.5650  -21.9000   21.6370 C   0  0  0  0  0  1  0  0  0  0  0  0
  -28.0760  -22.3260   20.2380 C   0  0  0  0  0  3  0  0  0  0  0  0
  -29.1500  -22.1870   19.1250 C   0  0  0  0  0  2  0  0  0  0  0  0
  -30.1710  -21.0340   19.2750 C   0  0  0  0  0  2  0  0  0  0  0  0
  -31.4900  -21.4580   19.9670 C   0  0  0  0  0  2  0  0  0  0  0  0
  -32.7340  -21.4140   19.0540 C   0  0  0  0  0  2  0  0  0  0  0  0
  -33.8710  -19.6060   17.7350 C   0  0  0  0  0  0  0  0  0  0  0  0
  -34.6420  -17.5810   16.5490 C   0  0  0  0  0  2  0  0  0  0  0  0
  -33.5080  -17.0220   15.6700 C   0  0  0  0  0  2  0  0  0  0  0  0
  -32.5770  -16.0960   16.4770 C   0  0  0  0  0  2  0  0  0  0  0  0
  -32.1270  -16.7300   17.8210 C   0  0  0  0  0  3  0  0  0  0  0  0
  -33.3450  -17.2930   18.5820 C   0  0  0  0  0  2  0  0  0  0  0  0
  -34.0280  -18.2580   17.6980 N   0  0  0  0  0  0  0  0  0  0  0  0
  -34.3510  -20.3740   16.8950 O   0  0  0  0  0  0  0  0  0  0  0  0
  -33.1170  -20.0380   18.7550 N   0  0  0  0  0  0  0  0  0  0  0  0
  -32.7840  -19.3260   19.3860 H   0  0  0  0  0  0  0  0  0  0  0  0
  -30.1100  -15.9060   19.1950 C   0  0  0  0  0  0  0  0  0  0  0  0
  -29.8520  -14.7100   19.8110 C   0  0  0  0  0  0  0  0  0  0  0  0
  -31.0030  -13.8940   19.5870 C   0  0  0  0  0  0  0  0  0  0  0  0
  -31.3750  -15.7800   18.6390 N   0  0  0  0  0  0  0  0  0  0  0  0
  -31.9280  -14.5730   18.9240 N   0  0  0  0  0  0  0  0  0  0  0  0
  -31.2520  -12.4820   19.9090 C   0  0  0  0  0  0  0  0  0  0  0  0
  -32.4450  -12.0700   20.5410 C   0  0  0  0  0  3  0  0  0  0  0  0
  -32.6560  -10.7110   20.8570 C   0  0  0  0  0  3  0  0  0  0  0  0
  -31.6650   -9.7490   20.5460 C   0  0  0  0  0  0  0  0  0  0  0  0
  -30.4870  -10.1620   19.8980 C   0  0  0  0  0  3  0  0  0  0  0  0
  -30.2830  -11.5150   19.5790 C   0  0  0  0  0  3  0  0  0  0  0  0
  -31.7910   -8.4030   20.7950 O   0  0  0  0  0  0  0  0  0  0  0  0
  -32.6620   -7.9250   21.7400 C   0  0  0  0  0  0  0  0  0  0  0  0
  -32.5760   -8.3110   23.0950 C   0  0  0  0  0  3  0  0  0  0  0  0
  -33.4490   -7.7420   24.0460 C   0  0  0  0  0  3  0  0  0  0  0  0
  -34.3960   -6.7810   23.6450 C   0  0  0  0  0  0  0  0  0  0  0  0
  -34.4780   -6.3890   22.2970 C   0  0  0  0  0  3  0  0  0  0  0  0
  -33.6110   -6.9580   21.3480 C   0  0  0  0  0  0  0  0  0  0  0  0
  -33.6790   -6.5630   20.0540 F   0  0  0  0  0  0  0  0  0  0  0  0
  -35.2260   -6.2270   24.5590 F   0  0  0  0  0  0  0  0  0  0  0  0
  -28.5730  -14.3120   20.4890 C   0  0  0  0  0  0  0  0  0  0  0  0
  -28.6570  -13.4640   21.5090 N   0  0  0  0  0  0  0  0  0  0  0  0
  -27.4920  -14.7890   20.1480 O   0  0  0  0  0  0  0  0  0  0  0  0
  -29.5450  -13.0850   21.8040 H   0  0  0  0  0  0  0  0  0  0  0  0
  -27.8200  -13.1920   22.0050 H   0  0  0  0  0  0  0  0  0  0  0  0
  -29.3710  -17.0750   19.0440 N   0  0  0  0  0  0  0  0  0  0  0  0
  -28.4130  -17.1430   19.3680 H   0  0  0  0  0  0  0  0  0  0  0  0
  -29.6630  -17.8680   18.4890 H   0  0  0  0  0  0  0  0  0  0  0  0
  1  3  1  0
  2  1  1  0
  4  2  1  0
  4  6  1  0
  5  3  1  0
  6  5  1  0
  6 54  1  1
  7  8  1  0
  7  6  1  0
  8 10  1  0
  9  7  2  0
 11 12  1  0
 11  8  1  0
 13 12  1  0
 13 15  1  0
 14 25  2  0
 15 20  1  0
 16 26  1  0
 16 24  1  0
 17 19  1  0
 17 23  1  0
 18 24  1  0
 19 18  1  0
 20 19  2  0
 21 22  1  0
 21 15  2  0
 22 17  2  0
 23 16  1  0
 24 14  1  0
 26 28  2  0
 27 26  1  0
 29 27  1  0
 30 35  1  0
 31 27  1  0
 32 31  1  0
 33 34  1  0
 33 32  1  0
 34 30  1  0
 35 31  1  0
 35 36  2  0
 37 36  1  0
 38 37  2  0
 39 30  2  0
 39 38  1  0
 40 14  1  0
 40 45  1  0
 40 41  1  0
 41 44  1  1
 41 42  1  0
 43 41  1  0
 45 48  1  0
 46 50  1  0
 46 45  1  0
 47 46  2  0
 50 49  1  0
 50 52  1  0
 52 53  1  0
 52 51  1  0
 55 57  1  0
 55 59  1  0
 55 54  1  0
 56 55  1  0
 59 58  1  0
 60 61  1  0
 60 59  1  0
 61 62  1  0
 63 62  1  0
 64 72  1  0
 65 70  1  0
 66 67  1  0
 66 65  1  0
 68 67  1  0
 68 69  1  0
 68 77  1  0
 70 64  1  0
 70 69  1  0
 71 64  2  0
 72 63  1  0
 72 73  1  0
 74 75  2  0
 75 94  1  0
 76 75  1  0
 76 79  1  0
 77 78  1  0
 77 74  1  0
 78 76  2  0
 79 80  1  0
 80 81  2  0
 82 85  1  0
 82 81  1  0
 83 82  2  0
 84 83  1  0
 84 79  2  0
 85 86  1  0
 86 87  1  0
 87 88  2  0
 89 88  1  0
 89 93  1  0
 90 89  2  0
 91 86  2  0
 91 90  1  0
 92 91  1  0
 94 95  1  0
 95 97  1  0
 95 98  1  0
 96 94  2  0
 99 74  1  0
 99100  1  0
101 99  1  0
M  ISO  4  12 101  13 101  64 100  72 100
M  END
>  <TORSDO>  (62) 
F 26

>  <SCORE>  (62) 
-4.318

>  <name>  (62) 
61

>  <ligand_id>  (62) 
61

>  <original_smiles>  (62) 
[H]c1c([H])c([H])c2c(c1[H])C([H])([H])C([H])([H])C([H])([H])C2([H])N([H])C(=O)C1([H])N(C(=O)C([H])(N([H])C(=O)C([H])(N([H])C([H])([H])[H])C([H])([H])[H])C(C([H])([H])[H])(C([H])([H])[H])C([H])([H])[H])C([H])([H])c2c([H])c(OC([H])([H])C([H])([H])N([H])C(=O)C3(C([H])([H])[N+]([H])([H])C([H])(C([H])([H])[H])C([H])([H])C([H])([H])C([H])([H])C([H])([H])N([H])C(=O)N4C([H])([H])C([H])([H])C([H])([H])C([H])(n5nc(-c6c([H])c([H])c(Oc7c([H])c([H])c(F)c([H])c7F)c([H])c6[H])c(C(=O)N([H])[H])c5N([H])[H])C4([H])[H])C([H])([H])C([H])([H])C([H])([H])C([H])([H])C3([H])[H])c([H])c([H])c2C1([H])[H]

>  <smiles>  (62) 
[H]c1c([H])c([H])c2c(c1[H])C([H])([H])C([H])([H])C([H])([H])C2([H])N([H])C(=O)C1([H])N(C(=O)C([H])(N([H])C(=O)C([H])(N([H])C([H])([H])[H])C([H])([H])[H])C(C([H])([H])[H])(C([H])([H])[H])C([H])([H])[H])C([H])([H])c2c([H])c(OC([H])([H])C([H])([H])N([H])C(=O)C3(C([H])([H])[N+]([H])([H])C([H])(C([H])([H])[H])C([H])([H])C([H])([H])C([H])([H])C([H])([H])N([H])C(=O)N4C([H])([H])C([H])([H])C([H])([H])C([H])(n5nc(-c6c([H])c([H])c(Oc7c([H])c([H])c(F)c([H])c7F)c([H])c6[H])c(C(=O)N([H])[H])c5N([H])[H])C4([H])[H])C([H])([H])C([H])([H])C([H])([H])C([H])([H])C3([H])[H])c([H])c([H])c2C1([H])[H]

$$$$
62:0:0
     RDKit          3D

 89 97  0  0  1  0  0  0  0  0999 V2000
  -29.7850  -19.3130   19.8330 C   0  0  0  0  0  0  0  0  0  0  0  0
  -29.1320  -20.3420   20.5570 N   0  0  0  0  0  0  0  0  0  0  0  0
  -30.3440  -19.6580   18.7910 O   0  0  0  0  0  0  0  0  0  0  0  0
  -28.6150  -19.9750   21.3470 H   0  0  0  0  0  0  0  0  0  0  0  0
  -29.9590  -17.8480   20.3430 C   0  0  0  0  0  3  0  0  0  0  0  0
  -29.1460  -17.0650   20.9690 C   0  0  0  0  0  3  0  0  0  0  0  0
  -29.7040  -16.3520   19.7240 C   0  0  0  0  0  3  0  0  0  0  0  0
  -30.5950  -14.9810   19.8030 C   0  0  0  0  0  0  0  0  0  0  0  0
  -30.4210  -12.6090   18.9350 C   0  0  0  0  0  2  0  0  0  0  0  0
  -29.4100  -12.5710   17.7640 C   0  0  0  0  0  2  0  0  0  0  0  0
  -27.9750  -12.3710   18.2890 C   0  0  0  0  0  2  0  0  0  0  0  0
  -27.6460  -13.3120   19.4760 C   0  0  0  0  0  3  0  0  0  0  0  0
  -28.7710  -13.3390   20.5310 C   0  0  0  0  0  2  0  0  0  0  0  0
  -30.0150  -13.7150   19.8480 N   0  0  0  0  0  0  0  0  0  0  0  0
  -31.7980  -15.0180   19.5170 O   0  0  0  0  0  0  0  0  0  0  0  0
  -25.3430  -13.9120   20.4140 C   0  0  0  0  0  0  0  0  0  0  0  0
  -24.2940  -13.1480   20.8430 C   0  0  0  0  0  0  0  0  0  0  0  0
  -24.7290  -11.7900   20.7430 C   0  0  0  0  0  0  0  0  0  0  0  0
  -26.3470  -13.0230   20.0700 N   0  0  0  0  0  0  0  0  0  0  0  0
  -25.9910  -11.7400   20.3350 N   0  0  0  0  0  0  0  0  0  0  0  0
  -23.9940  -10.5370   20.9550 C   0  0  0  0  0  0  0  0  0  0  0  0
  -24.4570   -9.5470   21.8490 C   0  0  0  0  0  3  0  0  0  0  0  0
  -23.7200   -8.3600   22.0480 C   0  0  0  0  0  3  0  0  0  0  0  0
  -22.5040   -8.1540   21.3530 C   0  0  0  0  0  0  0  0  0  0  0  0
  -22.0580   -9.1330   20.4470 C   0  0  0  0  0  3  0  0  0  0  0  0
  -22.7970  -10.3110   20.2460 C   0  0  0  0  0  3  0  0  0  0  0  0
  -21.7350   -7.0210   21.4650 O   0  0  0  0  0  0  0  0  0  0  0  0
  -21.7150   -6.2750   22.6170 C   0  0  0  0  0  0  0  0  0  0  0  0
  -21.3210   -6.8280   23.8560 C   0  0  0  0  0  3  0  0  0  0  0  0
  -21.2450   -6.0080   25.0000 C   0  0  0  0  0  3  0  0  0  0  0  0
  -21.5570   -4.6380   24.9070 C   0  0  0  0  0  0  0  0  0  0  0  0
  -21.9450   -4.0850   23.6740 C   0  0  0  0  0  3  0  0  0  0  0  0
  -22.0210   -4.9020   22.5320 C   0  0  0  0  0  0  0  0  0  0  0  0
  -22.3750   -4.3600   21.3410 F   0  0  0  0  0  0  0  0  0  0  0  0
  -21.4770   -3.8500   26.0040 F   0  0  0  0  0  0  0  0  0  0  0  0
  -22.9310  -13.6440   21.2280 C   0  0  0  0  0  0  0  0  0  0  0  0
  -22.2560  -12.9430   22.1330 N   0  0  0  0  0  0  0  0  0  0  0  0
  -22.4760  -14.6880   20.7630 O   0  0  0  0  0  0  0  0  0  0  0  0
  -22.6390  -12.0980   22.5320 H   0  0  0  0  0  0  0  0  0  0  0  0
  -21.3440  -13.2560   22.4330 H   0  0  0  0  0  0  0  0  0  0  0  0
  -25.5200  -15.2830   20.2600 N   0  0  0  0  0  0  0  0  0  0  0  0
  -24.7900  -15.9530   20.4770 H   0  0  0  0  0  0  0  0  0  0  0  0
  -26.3710  -15.7110   19.9220 H   0  0  0  0  0  0  0  0  0  0  0  0
  -27.8190  -17.2640   20.9860 O   0  0  0  0  0  0  0  0  0  0  0  0
  -27.5590  -17.6070   20.1400 H   0  0  0  0  0  0  0  0  0  0  0  0
  -29.3860  -21.9110   20.6890 C   0  0  0  0  0  2  0  0  0  0  0  0
  -28.4700  -23.2320   20.1610 C   0  0  0  0  0  2  0  0  0  0  0  0
  -28.3840  -24.7450   20.9290 C   0  0  0  0  0  2  0  0  0  0  0  0
  -28.4610  -26.2110   20.4130 O   0  0  0  0  0  0  0  0  0  0  0  0
  -24.7000  -31.9080   23.2740 C   0  0  0  0  0  0  0  0  0  0  0  0
  -27.3700  -27.1490   20.4140 C   0  0  0  0  0  0  0  0  0  0  0  0
  -23.5480  -30.4810   21.6270 C   0  0  0  0  0  3  0  0  0  0  0  0
  -25.0370  -28.8730   20.2830 C   0  0  0  0  0  0  0  0  0  0  0  0
  -26.1030  -30.7500   21.5270 C   0  0  0  0  0  2  0  0  0  0  0  0
  -26.1980  -29.3440   20.9090 C   0  0  0  0  0  0  0  0  0  0  0  0
  -27.3700  -28.4990   20.9490 C   0  0  0  0  0  3  0  0  0  0  0  0
  -26.1810  -26.7660   19.7640 C   0  0  0  0  0  3  0  0  0  0  0  0
  -25.0400  -27.5970   19.6950 C   0  0  0  0  0  3  0  0  0  0  0  0
  -23.8090  -29.7720   20.2700 C   0  0  0  0  0  2  0  0  0  0  0  0
  -24.8020  -31.0700   22.1980 N   0  0  0  0  0  0  0  0  0  0  0  0
  -23.5990  -32.2000   23.7670 O   0  0  0  0  0  0  0  0  0  0  0  0
  -22.8420  -29.4930   22.5880 C   0  0  0  0  0  0  0  0  0  0  0  0
  -21.5130  -29.3360   22.4400 N   0  0  0  0  0  0  0  0  0  0  0  0
  -23.4930  -28.8680   23.4300 O   0  0  0  0  0  0  0  0  0  0  0  0
  -21.0470  -29.8910   21.7370 H   0  0  0  0  0  0  0  0  0  0  0  0
  -18.1080  -28.2010   22.9210 C   0  0  0  0  0  0  0  0  0  0  0  0
  -20.6690  -28.4140   23.2060 C   0  0  0  0  0  3  0  0  0  0  0  0
  -20.7480  -26.9810   22.6320 C   0  0  0  0  0  2  0  0  0  0  0  0
  -19.6470  -26.6780   21.6120 C   0  0  0  0  0  2  0  0  0  0  0  0
  -18.2640  -26.8490   22.2460 C   0  0  0  0  0  2  0  0  0  0  0  0
  -19.2380  -28.9430   23.3570 C   0  0  0  0  0  0  0  0  0  0  0  0
  -19.0380  -30.2080   23.9500 C   0  0  0  0  0  3  0  0  0  0  0  0
  -17.7420  -30.7330   24.1090 C   0  0  0  0  0  3  0  0  0  0  0  0
  -16.6260  -29.9880   23.6870 C   0  0  0  0  0  3  0  0  0  0  0  0
  -16.8100  -28.7230   23.1000 C   0  0  0  0  0  3  0  0  0  0  0  0
  -25.9600  -32.5560   23.9270 C   0  0  0  0  0  3  0  0  0  0  0  0
  -25.6370  -33.9580   24.2300 N   0  0  0  0  0  0  0  0  0  0  0  0
  -25.9750  -35.0040   23.4630 C   0  0  0  0  0  0  0  0  0  0  0  0
  -26.6570  -34.8880   22.4410 O   0  0  0  0  0  0  0  0  0  0  0  0
  -25.0320  -34.1220   25.0220 H   0  0  0  0  0  0  0  0  0  0  0  0
  -24.2380  -36.7830   23.0730 C   0  0  0  0  0  1  0  0  0  0  0  0
  -25.4790  -36.3970   23.8950 C   0  0  0  0  0  3  0  0  0  0  0  0
  -27.6000  -37.3130   24.7270 C   0  0  0  0  0  1  0  0  0  0  0  0
  -26.5060  -37.4550   23.7700 N   0  0  0  0  0  0  0  0  0  0  0  0
  -26.0930  -38.3760   23.8940 H   0  0  0  0  0  0  0  0  0  0  0  0
  -26.4360  -31.8070   25.2330 C   0  0  1  0  0  0  0  0  0  0  0  0
  -25.3090  -31.5840   26.2680 C   0  0  0  0  0  1  0  0  0  0  0  0
  -27.0360  -30.4240   24.8880 C   0  0  0  0  0  1  0  0  0  0  0  0
  -27.5620  -32.6160   25.9190 C   0  0  0  0  0  1  0  0  0  0  0  0
  1  2  1  0
  2 46  1  0
  2  4  1  0
  3  1  2  0
  5  1  1  0
  5  6  1  0
  6 44  1  0
  7  8  1  0
  7  5  1  0
  7  6  1  0
  8 14  1  0
  9 14  1  0
 10 11  1  0
 10  9  1  0
 12 11  1  0
 12 19  1  0
 12 13  1  0
 14 13  1  0
 15  8  2  0
 16 17  2  0
 17 36  1  0
 18 17  1  0
 18 21  1  0
 19 20  1  0
 19 16  1  0
 20 18  2  0
 21 22  1  0
 22 23  2  0
 24 27  1  0
 24 23  1  0
 25 24  2  0
 26 25  1  0
 26 21  2  0
 27 28  1  0
 28 29  1  0
 29 30  2  0
 31 30  1  0
 31 35  1  0
 32 31  2  0
 33 28  2  0
 33 32  1  0
 34 33  1  0
 36 37  1  0
 37 40  1  0
 37 39  1  0
 38 36  2  0
 41 16  1  0
 41 42  1  0
 43 41  1  0
 45 44  1  0
 47 46  1  0
 47 48  1  0
 49 51  1  0
 49 48  1  0
 50 61  2  0
 51 56  1  0
 52 60  1  0
 52 62  1  0
 53 55  1  0
 54 60  1  0
 55 56  2  0
 55 54  1  0
 57 51  2  0
 58 57  1  0
 58 53  2  0
 59 53  1  0
 59 52  1  0
 60 50  1  0
 62 64  2  0
 63 62  1  0
 65 63  1  0
 66 75  2  0
 66 71  1  0
 67 63  1  0
 67 71  1  0
 68 67  1  0
 69 70  1  0
 69 68  1  0
 70 66  1  0
 71 72  2  0
 72 73  1  0
 74 73  2  0
 75 74  1  0
 76 50  1  0
 76 77  1  0
 76 86  1  0
 77 80  1  0
 78 82  1  0
 78 77  1  0
 79 78  2  0
 82 81  1  0
 84 85  1  0
 84 82  1  0
 84 83  1  0
 86 89  1  1
 86 87  1  0
 88 86  1  0
M  ISO  4   7 100   8 100  48 101  49 101
M  END
>  <TORSDO>  (63) 
F 21

>  <SCORE>  (63) 
-14.160

>  <name>  (63) 
62

>  <ligand_id>  (63) 
62

>  <original_smiles>  (63) 
[H]OC1=C(C(=O)N([H])C([H])([H])C([H])([H])C([H])([H])Oc2c([H])c([H])c3c(c2[H])C([H])([H])N(C(=O)C([H])(N([H])C(=O)C([H])(N([H])C([H])([H])[H])C([H])([H])[H])C(C([H])([H])[H])(C([H])([H])[H])C([H])([H])[H])C([H])(C(=O)N([H])C2([H])c4c([H])c([H])c([H])c([H])c4C([H])([H])C([H])([H])C2([H])[H])C3([H])[H])C1([H])C(=O)N1C([H])([H])C([H])([H])C([H])([H])C([H])(n2nc(-c3c([H])c([H])c(Oc4c([H])c([H])c(F)c([H])c4F)c([H])c3[H])c(C(=O)N([H])[H])c2N([H])[H])C1([H])[H]

>  <smiles>  (63) 
[H]OC1=C(C(=O)N([H])C([H])([H])C([H])([H])C([H])([H])Oc2c([H])c([H])c3c(c2[H])C([H])([H])N(C(=O)C([H])(N([H])C(=O)C([H])(N([H])C([H])([H])[H])C([H])([H])[H])C(C([H])([H])[H])(C([H])([H])[H])C([H])([H])[H])C([H])(C(=O)N([H])C2([H])c4c([H])c([H])c([H])c([H])c4C([H])([H])C([H])([H])C2([H])[H])C3([H])[H])C1([H])C(=O)N1C([H])([H])C([H])([H])C([H])([H])C([H])(n2nc(-c3c([H])c([H])c(Oc4c([H])c([H])c(F)c([H])c4F)c([H])c3[H])c(C(=O)N([H])[H])c2N([H])[H])C1([H])[H]

$$$$
63:0:0
     RDKit          3D

 91 99  0  0  1  0  0  0  0  0999 V2000
  -29.5620  -21.6250   17.5910 C   0  0  0  0  0  2  0  0  0  0  0  0
  -29.4120  -20.3350   18.4200 C   0  0  0  0  0  2  0  0  0  0  0  0
  -29.7170  -22.9020   18.4440 C   0  0  0  0  0  2  0  0  0  0  0  0
  -28.9880  -21.7060   20.5190 C   0  0  0  0  0  2  0  0  0  0  0  0
  -29.8470  -20.5660   19.8740 C   0  0  0  0  0  3  0  0  0  0  0  0
  -28.7940  -22.9040   19.6150 N   0  0  1  0  0  4  0  0  0  0  0  0
  -27.8830  -22.7670   19.2020 H   0  0  0  0  0  0  0  0  0  0  0  0
  -29.7360  -18.0100   20.2920 C   0  0  0  0  0  3  0  0  0  0  0  0
  -30.0650  -19.2710   20.6790 C   0  0  0  0  0  2  0  0  0  0  0  0
  -30.2140  -16.7360   20.9150 C   0  0  0  0  0  0  0  0  0  0  0  0
  -31.3540  -16.8700   21.9290 C   0  0  0  0  0  1  0  0  0  0  0  0
  -29.7430  -15.6160   20.4820 N   0  0  0  0  0  2  0  0  0  0  0  0
  -30.5810  -14.4990   20.3480 C   0  0  0  0  0  0  0  0  0  0  0  0
  -30.3350  -12.2700   19.3510 C   0  0  0  0  0  2  0  0  0  0  0  0
  -29.4150  -12.4310   18.1220 C   0  0  0  0  0  2  0  0  0  0  0  0
  -27.9360  -12.2840   18.5340 C   0  0  0  0  0  2  0  0  0  0  0  0
  -27.5660  -13.1610   19.7610 C   0  0  0  0  0  3  0  0  0  0  0  0
  -28.6110  -13.0210   20.8870 C   0  0  0  0  0  2  0  0  0  0  0  0
  -29.9430  -13.2970   20.3290 N   0  0  0  0  0  0  0  0  0  0  0  0
  -31.7700  -14.5840   20.0310 O   0  0  0  0  0  0  0  0  0  0  0  0
  -25.1610  -13.7460   20.4590 C   0  0  0  0  0  0  0  0  0  0  0  0
  -24.0970  -12.9670   20.8300 C   0  0  0  0  0  0  0  0  0  0  0  0
  -24.5730  -11.6210   20.8200 C   0  0  0  0  0  0  0  0  0  0  0  0
  -26.2150  -12.8740   20.2410 N   0  0  0  0  0  0  0  0  0  0  0  0
  -25.8650  -11.5910   20.5180 N   0  0  0  0  0  0  0  0  0  0  0  0
  -23.8590  -10.3540   21.0230 C   0  0  0  0  0  0  0  0  0  0  0  0
  -24.3070   -9.3950   21.9580 C   0  0  0  0  0  3  0  0  0  0  0  0
  -23.5950   -8.1920   22.1490 C   0  0  0  0  0  3  0  0  0  0  0  0
  -22.4190   -7.9380   21.4030 C   0  0  0  0  0  0  0  0  0  0  0  0
  -21.9910   -8.8840   20.4550 C   0  0  0  0  0  3  0  0  0  0  0  0
  -22.7030  -10.0790   20.2630 C   0  0  0  0  0  3  0  0  0  0  0  0
  -21.6780   -6.7850   21.5000 O   0  0  0  0  0  0  0  0  0  0  0  0
  -21.6630   -6.0330   22.6470 C   0  0  0  0  0  0  0  0  0  0  0  0
  -21.2670   -6.5770   23.8900 C   0  0  0  0  0  3  0  0  0  0  0  0
  -21.2020   -5.7520   25.0300 C   0  0  0  0  0  3  0  0  0  0  0  0
  -21.5180   -4.3850   24.9290 C   0  0  0  0  0  0  0  0  0  0  0  0
  -21.9070   -3.8400   23.6930 C   0  0  0  0  0  3  0  0  0  0  0  0
  -21.9760   -4.6620   22.5550 C   0  0  0  0  0  0  0  0  0  0  0  0
  -22.3310   -4.1280   21.3610 F   0  0  0  0  0  0  0  0  0  0  0  0
  -21.4480   -3.5890   26.0230 F   0  0  0  0  0  0  0  0  0  0  0  0
  -22.6930  -13.4330   21.0880 C   0  0  0  0  0  0  0  0  0  0  0  0
  -21.9660  -12.7410   21.9580 N   0  0  0  0  0  0  0  0  0  0  0  0
  -22.2480  -14.4460   20.5500 O   0  0  0  0  0  0  0  0  0  0  0  0
  -22.3380  -11.9240   22.4180 H   0  0  0  0  0  0  0  0  0  0  0  0
  -21.0210  -13.0350   22.1660 H   0  0  0  0  0  0  0  0  0  0  0  0
  -25.3150  -15.1160   20.2680 N   0  0  0  0  0  0  0  0  0  0  0  0
  -24.5530  -15.7750   20.3790 H   0  0  0  0  0  0  0  0  0  0  0  0
  -26.1860  -15.5550   19.9930 H   0  0  0  0  0  0  0  0  0  0  0  0
  -28.7130  -24.2200   20.3440 C   0  0  0  0  0  2  0  0  0  0  0  0
  -28.5790  -25.4900   19.4410 C   0  0  0  0  0  2  0  0  0  0  0  0
  -28.3800  -26.7120   20.1820 O   0  0  0  0  0  0  0  0  0  0  0  0
  -24.5660  -31.8890   23.2330 C   0  0  0  0  0  0  0  0  0  0  0  0
  -27.1800  -27.4040   20.1560 C   0  0  0  0  0  0  0  0  0  0  0  0
  -23.3450  -30.4790   21.6100 C   0  0  0  0  0  3  0  0  0  0  0  0
  -24.7830  -28.9270   20.1840 C   0  0  0  0  0  0  0  0  0  0  0  0
  -25.8720  -30.8240   21.3940 C   0  0  0  0  0  2  0  0  0  0  0  0
  -25.9470  -29.4480   20.7610 C   0  0  0  0  0  0  0  0  0  0  0  0
  -27.1420  -28.6930   20.7440 C   0  0  0  0  0  3  0  0  0  0  0  0
  -25.9860  -26.8940   19.5900 C   0  0  0  0  0  3  0  0  0  0  0  0
  -24.7990  -27.6500   19.5990 C   0  0  0  0  0  3  0  0  0  0  0  0
  -23.5410  -29.7870   20.2350 C   0  0  0  0  0  2  0  0  0  0  0  0
  -24.6140  -31.0810   22.1370 N   0  0  0  0  0  0  0  0  0  0  0  0
  -23.4900  -32.1690   23.7780 O   0  0  0  0  0  0  0  0  0  0  0  0
  -22.6990  -29.4660   22.5830 C   0  0  0  0  0  0  0  0  0  0  0  0
  -21.3740  -29.2850   22.4640 N   0  0  0  0  0  0  0  0  0  0  0  0
  -23.3870  -28.8450   23.3980 O   0  0  0  0  0  0  0  0  0  0  0  0
  -20.8810  -29.8400   21.7780 H   0  0  0  0  0  0  0  0  0  0  0  0
  -18.0010  -28.0980   22.9860 C   0  0  0  0  0  0  0  0  0  0  0  0
  -20.5600  -28.3540   23.2440 C   0  0  0  0  0  3  0  0  0  0  0  0
  -20.6590  -26.9190   22.6770 C   0  0  0  0  0  2  0  0  0  0  0  0
  -19.5520  -26.5910   21.6690 C   0  0  0  0  0  2  0  0  0  0  0  0
  -18.1730  -26.7430   22.3190 C   0  0  0  0  0  2  0  0  0  0  0  0
  -19.1230  -28.8610   23.4050 C   0  0  0  0  0  0  0  0  0  0  0  0
  -18.9090  -30.1290   23.9870 C   0  0  0  0  0  3  0  0  0  0  0  0
  -17.6060  -30.6350   24.1530 C   0  0  0  0  0  3  0  0  0  0  0  0
  -16.4980  -29.8690   23.7510 C   0  0  0  0  0  3  0  0  0  0  0  0
  -16.6970  -28.6020   23.1740 C   0  0  0  0  0  3  0  0  0  0  0  0
  -25.8590  -32.5210   23.8400 C   0  0  0  0  0  3  0  0  0  0  0  0
  -26.3860  -31.7570   25.1170 C   0  0  1  0  0  0  0  0  0  0  0  0
  -25.3010  -31.5280   26.1950 C   0  0  0  0  0  1  0  0  0  0  0  0
  -26.9600  -30.3760   24.7250 C   0  0  0  0  0  1  0  0  0  0  0  0
  -27.5450  -32.5530   25.7630 C   0  0  0  0  0  1  0  0  0  0  0  0
  -25.5570  -33.9220   24.1620 N   0  0  0  0  0  0  0  0  0  0  0  0
  -25.8900  -34.9670   23.3930 C   0  0  0  0  0  0  0  0  0  0  0  0
  -26.5540  -34.8530   22.3580 O   0  0  0  0  0  0  0  0  0  0  0  0
  -24.9660  -34.0860   24.9640 H   0  0  0  0  0  0  0  0  0  0  0  0
  -24.1680  -36.7630   23.0310 C   0  0  0  0  0  1  0  0  0  0  0  0
  -25.4100  -36.3600   23.8420 C   0  0  0  0  0  3  0  0  0  0  0  0
  -27.5510  -37.2420   24.6580 C   0  0  0  0  0  1  0  0  0  0  0  0
  -26.4470  -37.4090   23.7170 N   0  0  0  0  0  0  0  0  0  0  0  0
  -26.0450  -38.3320   23.8610 H   0  0  0  0  0  0  0  0  0  0  0  0
  1  2  1  0
  1  3  1  0
  2  5  1  0
  3  6  1  0
  5  4  1  0
  5  9  1  0
  6 49  1  0
  6  4  1  0
  6  7  1  6
  8  9  1  0
  8 10  2  0
 10 11  1  0
 12 10  1  0
 13 12  1  0
 14 19  1  0
 15 16  1  0
 15 14  1  0
 17 16  1  0
 17 24  1  0
 17 18  1  0
 19 13  1  0
 19 18  1  0
 20 13  2  0
 21 22  2  0
 22 41  1  0
 23 22  1  0
 23 26  1  0
 24 21  1  0
 24 25  1  0
 25 23  2  0
 26 27  1  0
 27 28  2  0
 29 32  1  0
 29 28  1  0
 30 29  2  0
 31 30  1  0
 31 26  2  0
 32 33  1  0
 33 34  1  0
 34 35  2  0
 36 35  1  0
 36 40  1  0
 37 36  2  0
 38 33  2  0
 38 37  1  0
 39 38  1  0
 41 42  1  0
 42 45  1  0
 42 44  1  0
 43 41  2  0
 46 47  1  0
 46 21  1  0
 48 46  1  0
 50 51  1  0
 50 49  1  0
 52 63  2  0
 53 51  1  0
 53 58  1  0
 54 62  1  0
 54 64  1  0
 55 61  1  0
 55 57  1  0
 56 62  1  0
 57 56  1  0
 58 57  2  0
 59 60  1  0
 59 53  2  0
 60 55  2  0
 61 54  1  0
 62 52  1  0
 64 66  2  0
 65 64  1  0
 67 65  1  0
 68 77  2  0
 68 73  1  0
 69 65  1  0
 69 73  1  0
 70 69  1  0
 71 72  1  0
 71 70  1  0
 72 68  1  0
 73 74  2  0
 74 75  1  0
 76 75  2  0
 77 76  1  0
 78 52  1  0
 78 83  1  0
 78 79  1  0
 79 82  1  1
 79 80  1  0
 81 79  1  0
 83 86  1  0
 84 88  1  0
 84 83  1  0
 85 84  2  0
 88 87  1  0
 90 88  1  0
 90 91  1  0
 90 89  1  0
M  ISO  4  12 100  13 100  50 101  51 101
M  END
>  <TORSDO>  (64) 
F 20

>  <SCORE>  (64) 
-13.496

>  <name>  (64) 
63

>  <ligand_id>  (64) 
63

>  <original_smiles>  (64) 
[H]C(C(=NC(=O)N1C([H])([H])C([H])([H])C([H])([H])C([H])(n2nc(-c3c([H])c([H])c(Oc4c([H])c([H])c(F)c([H])c4F)c([H])c3[H])c(C(=O)N([H])[H])c2N([H])[H])C1([H])[H])C([H])([H])[H])=C([H])C1([H])C([H])([H])C([H])([H])C([H])([H])[N+]([H])(C([H])([H])C([H])([H])Oc2c([H])c([H])c3c(c2[H])C([H])([H])N(C(=O)C([H])(N([H])C(=O)C([H])(N([H])C([H])([H])[H])C([H])([H])[H])C(C([H])([H])[H])(C([H])([H])[H])C([H])([H])[H])C([H])(C(=O)N([H])C2([H])c4c([H])c([H])c([H])c([H])c4C([H])([H])C([H])([H])C2([H])[H])C3([H])[H])C1([H])[H]

>  <smiles>  (64) 
[H]C(C(=NC(=O)N1C([H])([H])C([H])([H])C([H])([H])C([H])(n2nc(-c3c([H])c([H])c(Oc4c([H])c([H])c(F)c([H])c4F)c([H])c3[H])c(C(=O)N([H])[H])c2N([H])[H])C1([H])[H])C([H])([H])[H])=C([H])C1([H])C([H])([H])C([H])([H])C([H])([H])[N+]([H])(C([H])([H])C([H])([H])Oc2c([H])c([H])c3c(c2[H])C([H])([H])N(C(=O)C([H])(N([H])C(=O)C([H])(N([H])C([H])([H])[H])C([H])([H])[H])C(C([H])([H])[H])(C([H])([H])[H])C([H])([H])[H])C([H])(C(=O)N([H])C2([H])c4c([H])c([H])c([H])c([H])c4C([H])([H])C([H])([H])C2([H])[H])C3([H])[H])C1([H])[H]

$$$$
64:0:0
     RDKit          3D

 90 97  0  0  1  0  0  0  0  0999 V2000
  -29.0910  -23.0090   21.2280 N   0  0  0  0  0  4  0  0  0  0  0  0
  -28.1190  -22.7930   21.0680 H   0  0  0  0  0  0  0  0  0  0  0  0
  -29.2400  -22.8870   22.2200 H   0  0  0  0  0  0  0  0  0  0  0  0
  -29.6570  -21.8610   19.0660 C   0  0  0  0  0  1  0  0  0  0  0  0
  -29.9710  -21.9970   20.5660 C   0  0  0  0  0  3  0  0  0  0  0  0
  -29.8100  -19.3920   20.8580 C   0  0  0  0  0  3  0  0  0  0  0  0
  -30.0110  -20.6530   21.3310 C   0  0  0  0  0  3  0  0  0  0  0  0
  -30.7070  -18.2320   22.9770 C   0  0  0  0  0  1  0  0  0  0  0  0
  -29.9270  -18.0720   21.6620 C   0  0  0  0  0  3  0  0  0  0  0  0
  -30.2030  -15.6050   20.9850 C   0  0  0  0  0  3  0  0  0  0  0  0
  -30.5350  -16.9160   20.8470 C   0  0  0  0  0  3  0  0  0  0  0  0
  -30.8450  -14.5420   20.1930 C   0  0  0  0  0  0  0  0  0  0  0  0
  -30.4560  -12.4450   18.9320 C   0  0  0  0  0  2  0  0  0  0  0  0
  -29.4620  -12.7390   17.7890 C   0  0  0  0  0  2  0  0  0  0  0  0
  -28.0040  -12.6130   18.2790 C   0  0  0  0  0  2  0  0  0  0  0  0
  -27.7540  -13.3670   19.6160 C   0  0  0  0  0  3  0  0  0  0  0  0
  -28.8550  -13.0200   20.6410 C   0  0  0  0  0  2  0  0  0  0  0  0
  -30.1530  -13.3710   20.0410 N   0  0  0  0  0  0  0  0  0  0  0  0
  -31.9270  -14.7210   19.6200 O   0  0  0  0  0  0  0  0  0  0  0  0
  -25.4020  -13.9960   20.4510 C   0  0  0  0  0  0  0  0  0  0  0  0
  -24.3370  -13.2350   20.8520 C   0  0  0  0  0  0  0  0  0  0  0  0
  -24.7660  -11.8760   20.7560 C   0  0  0  0  0  0  0  0  0  0  0  0
  -26.4170  -13.1030   20.1440 N   0  0  0  0  0  0  0  0  0  0  0  0
  -26.0390  -11.8210   20.3780 N   0  0  0  0  0  0  0  0  0  0  0  0
  -24.0240  -10.6220   20.9510 C   0  0  0  0  0  0  0  0  0  0  0  0
  -24.4690   -9.6330   21.8540 C   0  0  0  0  0  3  0  0  0  0  0  0
  -23.7310   -8.4440   22.0320 C   0  0  0  0  0  3  0  0  0  0  0  0
  -22.5310   -8.2400   21.3090 C   0  0  0  0  0  0  0  0  0  0  0  0
  -22.1060   -9.2190   20.3950 C   0  0  0  0  0  3  0  0  0  0  0  0
  -22.8450  -10.3990   20.2140 C   0  0  0  0  0  3  0  0  0  0  0  0
  -21.7580   -7.1080   21.4010 O   0  0  0  0  0  0  0  0  0  0  0  0
  -21.7040   -6.3640   22.5520 C   0  0  0  0  0  0  0  0  0  0  0  0
  -21.3130   -6.9260   23.7850 C   0  0  0  0  0  3  0  0  0  0  0  0
  -21.2030   -6.1100   24.9290 C   0  0  0  0  0  3  0  0  0  0  0  0
  -21.4760   -4.7320   24.8400 C   0  0  0  0  0  0  0  0  0  0  0  0
  -21.8590   -4.1680   23.6100 C   0  0  0  0  0  3  0  0  0  0  0  0
  -21.9710   -4.9820   22.4690 C   0  0  0  0  0  0  0  0  0  0  0  0
  -22.3220   -4.4300   21.2810 F   0  0  0  0  0  0  0  0  0  0  0  0
  -21.3630   -3.9450   25.9350 F   0  0  0  0  0  0  0  0  0  0  0  0
  -22.9660  -13.7330   21.2110 C   0  0  0  0  0  0  0  0  0  0  0  0
  -22.2710  -13.0320   22.1000 N   0  0  0  0  0  0  0  0  0  0  0  0
  -22.5230  -14.7800   20.7400 O   0  0  0  0  0  0  0  0  0  0  0  0
  -22.6440  -12.1870   22.5100 H   0  0  0  0  0  0  0  0  0  0  0  0
  -21.3530  -13.3460   22.3740 H   0  0  0  0  0  0  0  0  0  0  0  0
  -25.5880  -15.3690   20.3100 N   0  0  0  0  0  0  0  0  0  0  0  0
  -24.8460  -16.0370   20.4870 H   0  0  0  0  0  0  0  0  0  0  0  0
  -26.4460  -15.8030   19.9920 H   0  0  0  0  0  0  0  0  0  0  0  0
  -29.3740  -24.4640   20.9630 C   0  0  0  0  0  2  0  0  0  0  0  0
  -28.3150  -25.2020   20.0890 C   0  0  0  0  0  2  0  0  0  0  0  0
  -28.4060  -26.6480   20.2130 O   0  0  0  0  0  0  0  0  0  0  0  0
  -24.6530  -31.9250   23.2200 C   0  0  0  0  0  0  0  0  0  0  0  0
  -27.2400  -27.4040   20.1680 C   0  0  0  0  0  0  0  0  0  0  0  0
  -23.4260  -30.5230   21.5930 C   0  0  0  0  0  3  0  0  0  0  0  0
  -24.8590  -28.9560   20.1750 C   0  0  0  0  0  0  0  0  0  0  0  0
  -25.9550  -30.8500   21.3800 C   0  0  0  0  0  2  0  0  0  0  0  0
  -26.0250  -29.4670   20.7550 C   0  0  0  0  0  0  0  0  0  0  0  0
  -27.2140  -28.6980   20.7530 C   0  0  0  0  0  3  0  0  0  0  0  0
  -26.0560  -26.9280   19.5590 C   0  0  0  0  0  3  0  0  0  0  0  0
  -24.8690  -27.6850   19.5750 C   0  0  0  0  0  3  0  0  0  0  0  0
  -23.6230  -29.8280   20.2170 C   0  0  0  0  0  2  0  0  0  0  0  0
  -24.6970  -31.1150   22.1240 N   0  0  0  0  0  0  0  0  0  0  0  0
  -23.5760  -32.2100   23.7630 O   0  0  0  0  0  0  0  0  0  0  0  0
  -22.7680  -29.5170   22.5650 C   0  0  0  0  0  0  0  0  0  0  0  0
  -21.4400  -29.3540   22.4520 N   0  0  0  0  0  0  0  0  0  0  0  0
  -23.4480  -28.8870   23.3780 O   0  0  0  0  0  0  0  0  0  0  0  0
  -20.9500  -29.9140   21.7690 H   0  0  0  0  0  0  0  0  0  0  0  0
  -18.0530  -28.2000   22.9650 C   0  0  0  0  0  0  0  0  0  0  0  0
  -20.6150  -28.4280   23.2290 C   0  0  0  0  0  3  0  0  0  0  0  0
  -20.6980  -26.9930   22.6590 C   0  0  0  0  0  2  0  0  0  0  0  0
  -19.5900  -26.6790   21.6480 C   0  0  0  0  0  2  0  0  0  0  0  0
  -18.2120  -26.8450   22.2960 C   0  0  0  0  0  2  0  0  0  0  0  0
  -19.1820  -28.9500   23.3890 C   0  0  0  0  0  0  0  0  0  0  0  0
  -18.9800  -30.2190   23.9720 C   0  0  0  0  0  3  0  0  0  0  0  0
  -17.6810  -30.7380   24.1380 C   0  0  0  0  0  3  0  0  0  0  0  0
  -16.5670  -29.9840   23.7350 C   0  0  0  0  0  3  0  0  0  0  0  0
  -16.7530  -28.7160   23.1530 C   0  0  0  0  0  3  0  0  0  0  0  0
  -25.9480  -32.5450   23.8310 C   0  0  0  0  0  3  0  0  0  0  0  0
  -26.4740  -31.7650   25.0990 C   0  0  1  0  0  0  0  0  0  0  0  0
  -25.3920  -31.5310   26.1780 C   0  0  0  0  0  1  0  0  0  0  0  0
  -27.0410  -30.3850   24.6890 C   0  0  0  0  0  1  0  0  0  0  0  0
  -27.6380  -32.5450   25.7520 C   0  0  0  0  0  1  0  0  0  0  0  0
  -25.6530  -33.9450   24.1680 N   0  0  0  0  0  0  0  0  0  0  0  0
  -25.9890  -34.9960   23.4110 C   0  0  0  0  0  0  0  0  0  0  0  0
  -26.6550  -34.8930   22.3770 O   0  0  0  0  0  0  0  0  0  0  0  0
  -25.0640  -34.1020   24.9730 H   0  0  0  0  0  0  0  0  0  0  0  0
  -24.2760  -36.8040   23.0670 C   0  0  0  0  0  1  0  0  0  0  0  0
  -25.5150  -36.3870   23.8750 C   0  0  0  0  0  3  0  0  0  0  0  0
  -27.6640  -37.2480   24.6950 C   0  0  0  0  0  1  0  0  0  0  0  0
  -26.5540  -37.4330   23.7650 N   0  0  0  0  0  0  0  0  0  0  0  0
  -26.1530  -38.3520   23.9310 H   0  0  0  0  0  0  0  0  0  0  0  0
  1  3  1  0
  2  1  1  0
  5  4  1  0
  5  1  1  0
  5  7  1  0
  6  7  2  0
  6  9  1  0
  9  8  1  0
 11 10  2  0
 11  9  1  0
 12 10  1  0
 13 18  1  0
 14 15  1  0
 14 13  1  0
 16 15  1  0
 16 23  1  0
 16 17  1  0
 18 12  1  0
 18 17  1  0
 19 12  2  0
 20 21  2  0
 21 40  1  0
 22 21  1  0
 22 25  1  0
 23 24  1  0
 23 20  1  0
 24 22  2  0
 25 26  1  0
 26 27  2  0
 28 31  1  0
 28 27  1  0
 29 28  2  0
 30 29  1  0
 30 25  2  0
 31 32  1  0
 32 33  1  0
 33 34  2  0
 35 34  1  0
 35 39  1  0
 36 35  2  0
 37 32  2  0
 37 36  1  0
 38 37  1  0
 40 41  1  0
 41 44  1  0
 41 43  1  0
 42 40  2  0
 45 20  1  0
 45 46  1  0
 47 45  1  0
 48  1  1  0
 49 50  1  0
 49 48  1  0
 51 62  2  0
 52 50  1  0
 52 57  1  0
 53 61  1  0
 53 63  1  0
 54 60  1  0
 54 56  1  0
 55 61  1  0
 56 55  1  0
 57 56  2  0
 58 59  1  0
 58 52  2  0
 59 54  2  0
 60 53  1  0
 61 51  1  0
 63 65  2  0
 64 63  1  0
 66 64  1  0
 67 76  2  0
 67 72  1  0
 68 64  1  0
 68 72  1  0
 69 68  1  0
 70 71  1  0
 70 69  1  0
 71 67  1  0
 72 73  2  0
 73 74  1  0
 75 74  2  0
 76 75  1  0
 77 51  1  0
 77 82  1  0
 77 78  1  0
 78 81  1  1
 78 79  1  0
 80 78  1  0
 82 85  1  0
 83 87  1  0
 83 82  1  0
 84 83  2  0
 87 86  1  0
 89 87  1  0
 89 90  1  0
 89 88  1  0
M  ISO  4  10 100  12 100  49 101  50 101
M  END
>  <TORSDO>  (65) 
F 22

>  <SCORE>  (65) 
-12.358

>  <name>  (65) 
64

>  <ligand_id>  (65) 
64

>  <original_smiles>  (65) 
[H]C(C(=O)N1C([H])([H])C([H])([H])C([H])([H])C([H])(n2nc(-c3c([H])c([H])c(Oc4c([H])c([H])c(F)c([H])c4F)c([H])c3[H])c(C(=O)N([H])[H])c2N([H])[H])C1([H])[H])=C([H])C([H])(C([H])=C([H])C([H])(C([H])([H])[H])[N+]([H])([H])C([H])([H])C([H])([H])Oc1c([H])c([H])c2c(c1[H])C([H])([H])N(C(=O)C([H])(N([H])C(=O)C([H])(N([H])C([H])([H])[H])C([H])([H])[H])C(C([H])([H])[H])(C([H])([H])[H])C([H])([H])[H])C([H])(C(=O)N([H])C1([H])c3c([H])c([H])c([H])c([H])c3C([H])([H])C([H])([H])C1([H])[H])C2([H])[H])C([H])([H])[H]

>  <smiles>  (65) 
[H]C(C(=O)N1C([H])([H])C([H])([H])C([H])([H])C([H])(n2nc(-c3c([H])c([H])c(Oc4c([H])c([H])c(F)c([H])c4F)c([H])c3[H])c(C(=O)N([H])[H])c2N([H])[H])C1([H])[H])=C([H])C([H])(C([H])=C([H])C([H])(C([H])([H])[H])[N+]([H])([H])C([H])([H])C([H])([H])Oc1c([H])c([H])c2c(c1[H])C([H])([H])N(C(=O)C([H])(N([H])C(=O)C([H])(N([H])C([H])([H])[H])C([H])([H])[H])C(C([H])([H])[H])(C([H])([H])[H])C([H])([H])[H])C([H])(C(=O)N([H])C1([H])c3c([H])c([H])c([H])c([H])c3C([H])([H])C([H])([H])C1([H])[H])C2([H])[H])C([H])([H])[H]

$$$$
65:0:0
     RDKit          3D

 97105  0  0  1  0  0  0  0  0999 V2000
  -31.7650  -21.2960   20.4720 C   0  0  0  0  0  1  0  0  0  0  0  0
  -30.4550  -21.2980   21.3090 C   0  0  2  0  0  0  0  0  0  0  0  0
  -31.0000  -21.2640   25.7930 C   0  0  0  0  0  2  0  0  0  0  0  0
  -29.8140  -22.0110   25.1730 C   0  0  0  0  0  2  0  0  0  0  0  0
  -32.2380  -21.3460   24.8910 C   0  0  0  0  0  2  0  0  0  0  0  0
  -29.5100  -21.4960   23.7570 C   0  0  0  0  0  2  0  0  0  0  0  0
  -31.9300  -20.8250   23.4790 C   0  0  0  0  0  2  0  0  0  0  0  0
  -30.7540  -21.6030   22.8310 C   0  0  0  0  0  3  0  0  0  0  0  0
  -29.7660  -19.9150   21.0690 C   0  0  0  0  0  0  0  0  0  0  0  0
  -30.4760  -18.7920   21.2930 N   0  0  0  0  0  0  0  0  0  0  0  0
  -28.6170  -19.8730   20.6200 O   0  0  0  0  0  0  0  0  0  0  0  0
  -31.4110  -18.9200   21.6570 H   0  0  0  0  0  0  0  0  0  0  0  0
  -30.0640  -17.4100   20.9960 C   0  0  0  0  0  2  0  0  0  0  0  0
  -30.7640  -16.3530   21.8980 C   0  0  0  0  0  2  0  0  0  0  0  0
  -31.4270  -15.2140   21.0870 C   0  0  0  0  0  0  0  0  0  0  0  0
  -31.2070  -13.2440   19.6120 C   0  0  0  0  0  2  0  0  0  0  0  0
  -30.3770  -13.6360   18.3710 C   0  0  0  0  0  2  0  0  0  0  0  0
  -28.8710  -13.4600   18.6490 C   0  0  0  0  0  2  0  0  0  0  0  0
  -28.4300  -14.1210   19.9840 C   0  0  0  0  0  3  0  0  0  0  0  0
  -29.3820  -13.7270   21.1330 C   0  0  0  0  0  2  0  0  0  0  0  0
  -30.7520  -14.0830   20.7370 N   0  0  0  0  0  0  0  0  0  0  0  0
  -32.5790  -15.4230   20.6930 O   0  0  0  0  0  0  0  0  0  0  0  0
  -25.9380  -14.6480   20.3440 C   0  0  0  0  0  0  0  0  0  0  0  0
  -24.8640  -13.8470   20.6180 C   0  0  0  0  0  0  0  0  0  0  0  0
  -25.3780  -12.5180   20.7220 C   0  0  0  0  0  0  0  0  0  0  0  0
  -27.0390  -13.8070   20.3010 N   0  0  0  0  0  0  0  0  0  0  0  0
  -26.6980  -12.5230   20.5830 N   0  0  0  0  0  0  0  0  0  0  0  0
  -24.6850  -11.2340   20.8860 C   0  0  0  0  0  0  0  0  0  0  0  0
  -25.0240  -10.3400   21.9250 C   0  0  0  0  0  3  0  0  0  0  0  0
  -24.3300   -9.1200   22.0750 C   0  0  0  0  0  3  0  0  0  0  0  0
  -23.2840   -8.7850   21.1830 C   0  0  0  0  0  0  0  0  0  0  0  0
  -22.9640   -9.6670   20.1350 C   0  0  0  0  0  3  0  0  0  0  0  0
  -23.6610  -10.8800   19.9850 C   0  0  0  0  0  3  0  0  0  0  0  0
  -22.5690   -7.6110   21.2370 O   0  0  0  0  0  0  0  0  0  0  0  0
  -22.3350   -6.9650   22.4240 C   0  0  0  0  0  0  0  0  0  0  0  0
  -21.7030   -7.6070   23.5110 C   0  0  0  0  0  3  0  0  0  0  0  0
  -21.4190   -6.8850   24.6870 C   0  0  0  0  0  3  0  0  0  0  0  0
  -21.7560   -5.5210   24.7750 C   0  0  0  0  0  0  0  0  0  0  0  0
  -22.3810   -4.8780   23.6910 C   0  0  0  0  0  3  0  0  0  0  0  0
  -22.6650   -5.5980   22.5180 C   0  0  0  0  0  0  0  0  0  0  0  0
  -23.2480   -4.9680   21.4690 F   0  0  0  0  0  0  0  0  0  0  0  0
  -21.4770   -4.8250   25.9020 F   0  0  0  0  0  0  0  0  0  0  0  0
  -23.4220  -14.2690   20.6850 C   0  0  0  0  0  0  0  0  0  0  0  0
  -22.6260  -13.6040   21.5140 N   0  0  0  0  0  0  0  0  0  0  0  0
  -23.0040  -15.2260   20.0320 O   0  0  0  0  0  0  0  0  0  0  0  0
  -22.9720  -12.8350   22.0680 H   0  0  0  0  0  0  0  0  0  0  0  0
  -21.6540  -13.8650   21.5980 H   0  0  0  0  0  0  0  0  0  0  0  0
  -26.0690  -16.0140   20.1100 N   0  0  0  0  0  0  0  0  0  0  0  0
  -25.2700  -16.6390   20.0880 H   0  0  0  0  0  0  0  0  0  0  0  0
  -26.9410  -16.4790   19.8930 H   0  0  0  0  0  0  0  0  0  0  0  0
  -29.5230  -22.3530   20.7910 N   0  0  0  0  0  4  0  0  0  0  0  0
  -29.2150  -22.0400   19.8810 H   0  0  0  0  0  0  0  0  0  0  0  0
  -28.7050  -22.3160   21.3790 H   0  0  0  0  0  0  0  0  0  0  0  0
  -30.0480  -23.7520   20.7330 C   0  0  0  0  0  2  0  0  0  0  0  0
  -29.0320  -24.8570   20.3460 C   0  0  0  0  0  2  0  0  0  0  0  0
  -29.4810  -26.2270   20.9130 C   0  0  0  0  0  2  0  0  0  0  0  0
  -29.2560  -27.3270   20.0360 O   0  0  0  0  0  0  0  0  0  0  0  0
  -24.8610  -31.8660   23.3270 C   0  0  0  0  0  0  0  0  0  0  0  0
  -28.0100  -27.8930   20.1050 C   0  0  0  0  0  0  0  0  0  0  0  0
  -23.8370  -30.4240   21.5970 C   0  0  0  0  0  3  0  0  0  0  0  0
  -25.4680  -29.1100   20.1430 C   0  0  0  0  0  0  0  0  0  0  0  0
  -26.3110  -31.0580   21.4710 C   0  0  0  0  0  2  0  0  0  0  0  0
  -26.5510  -29.7350   20.7740 C   0  0  0  0  0  0  0  0  0  0  0  0
  -27.8290  -29.1340   20.7500 C   0  0  0  0  0  3  0  0  0  0  0  0
  -26.9110  -27.2650   19.4850 C   0  0  0  0  0  3  0  0  0  0  0  0
  -25.6420  -27.8720   19.4990 C   0  0  0  0  0  3  0  0  0  0  0  0
  -24.1400  -29.8320   20.1950 C   0  0  0  0  0  2  0  0  0  0  0  0
  -25.0190  -31.1290   22.1920 N   0  0  0  0  0  0  0  0  0  0  0  0
  -23.7480  -31.9990   23.8560 O   0  0  0  0  0  0  0  0  0  0  0  0
  -23.2800  -29.2970   22.4950 C   0  0  0  0  0  0  0  0  0  0  0  0
  -21.9900  -28.9740   22.3180 N   0  0  0  0  0  0  0  0  0  0  0  0
  -24.0080  -28.7150   23.3050 O   0  0  0  0  0  0  0  0  0  0  0  0
  -21.4590  -29.4990   21.6350 H   0  0  0  0  0  0  0  0  0  0  0  0
  -18.7480  -27.4220   22.6720 C   0  0  0  0  0  0  0  0  0  0  0  0
  -21.2590  -27.9210   23.0230 C   0  0  0  0  0  3  0  0  0  0  0  0
  -21.5210  -26.5400   22.3810 C   0  0  0  0  0  2  0  0  0  0  0  0
  -20.4800  -26.1590   21.3250 C   0  0  0  0  0  2  0  0  0  0  0  0
  -19.0770  -26.1320   21.9380 C   0  0  0  0  0  2  0  0  0  0  0  0
  -19.7740  -28.2700   23.1670 C   0  0  0  0  0  0  0  0  0  0  0  0
  -19.4160  -29.4750   23.8080 C   0  0  0  0  0  3  0  0  0  0  0  0
  -18.0640  -29.8340   23.9650 C   0  0  0  0  0  3  0  0  0  0  0  0
  -17.0530  -28.9820   23.4880 C   0  0  0  0  0  3  0  0  0  0  0  0
  -17.3950  -27.7780   22.8470 C   0  0  0  0  0  3  0  0  0  0  0  0
  -26.0650  -32.5940   24.0030 C   0  0  0  0  0  3  0  0  0  0  0  0
  -25.6250  -33.9560   24.3370 N   0  0  0  0  0  0  0  0  0  0  0  0
  -25.8840  -35.0420   23.5960 C   0  0  0  0  0  0  0  0  0  0  0  0
  -26.5930  -35.0100   22.5860 O   0  0  0  0  0  0  0  0  0  0  0  0
  -24.9940  -34.0480   25.1200 H   0  0  0  0  0  0  0  0  0  0  0  0
  -24.0080  -36.6730   23.2060 C   0  0  0  0  0  1  0  0  0  0  0  0
  -25.2600  -36.3770   24.0480 C   0  0  0  0  0  3  0  0  0  0  0  0
  -27.2860  -37.4470   24.9330 C   0  0  0  0  0  1  0  0  0  0  0  0
  -26.1950  -37.5210   23.9650 N   0  0  0  0  0  0  0  0  0  0  0  0
  -25.7020  -38.3990   24.1100 H   0  0  0  0  0  0  0  0  0  0  0  0
  -26.6010  -31.8490   25.2870 C   0  0  1  0  0  0  0  0  0  0  0  0
  -25.4930  -31.4670   26.2950 C   0  0  0  0  0  1  0  0  0  0  0  0
  -27.3520  -30.5550   24.8950 C   0  0  0  0  0  1  0  0  0  0  0  0
  -27.6280  -32.7480   26.0180 C   0  0  0  0  0  1  0  0  0  0  0  0
  2  1  1  6
  2  8  1  0
  4  3  1  0
  5  3  1  0
  6  4  1  0
  7  5  1  0
  8  7  1  0
  8  6  1  0
  9 10  1  0
  9  2  1  0
 10 12  1  0
 11  9  2  0
 13 10  1  0
 13 14  1  0
 15 14  1  0
 16 21  1  0
 17 18  1  0
 17 16  1  0
 19 18  1  0
 19 26  1  0
 19 20  1  0
 21 15  1  0
 21 20  1  0
 22 15  2  0
 23 24  2  0
 24 43  1  0
 24 25  1  0
 25 28  1  0
 26 23  1  0
 26 27  1  0
 27 25  2  0
 28 29  1  0
 29 30  2  0
 31 34  1  0
 31 30  1  0
 32 31  2  0
 33 32  1  0
 33 28  2  0
 34 35  1  0
 35 40  2  0
 35 36  1  0
 36 37  2  0
 37 38  1  0
 38 42  1  0
 39 38  2  0
 40 39  1  0
 41 40  1  0
 43 44  1  0
 44 47  1  0
 44 46  1  0
 45 43  2  0
 48 23  1  0
 49 48  1  0
 50 48  1  0
 51  2  1  0
 51 53  1  0
 52 51  1  0
 54 51  1  0
 55 54  1  0
 55 56  1  0
 57 59  1  0
 57 56  1  0
 58 69  2  0
 59 64  1  0
 60 68  1  0
 60 70  1  0
 61 67  1  0
 61 63  1  0
 62 68  1  0
 63 62  1  0
 64 63  2  0
 65 66  1  0
 65 59  2  0
 66 61  2  0
 67 60  1  0
 68 58  1  0
 70 72  2  0
 71 70  1  0
 73 71  1  0
 74 83  2  0
 74 79  1  0
 75 71  1  0
 75 79  1  0
 76 75  1  0
 77 78  1  0
 77 76  1  0
 78 74  1  0
 79 80  2  0
 80 81  1  0
 82 81  2  0
 83 82  1  0
 84 58  1  0
 84 85  1  0
 84 94  1  0
 85 88  1  0
 86 90  1  0
 86 85  1  0
 87 86  2  0
 90 89  1  0
 92 90  1  0
 92 93  1  0
 92 91  1  0
 94 97  1  1
 94 95  1  0
 96 94  1  0
M  ISO  4  14 100  15 100  56 101  57 101
M  END
>  <TORSDO>  (66) 
F 24

>  <SCORE>  (66) 
-8.303

>  <name>  (66) 
65

>  <ligand_id>  (66) 
65

>  <original_smiles>  (66) 
[H]c1c([H])c([H])c2c(c1[H])C([H])([H])C([H])([H])C([H])([H])C2([H])N([H])C(=O)C1([H])N(C(=O)C([H])(N([H])C(=O)C([H])(N([H])C([H])([H])[H])C([H])([H])[H])C(C([H])([H])[H])(C([H])([H])[H])C([H])([H])[H])C([H])([H])c2c([H])c(OC([H])([H])C([H])([H])C([H])([H])[N+]([H])([H])C(C(=O)N([H])C([H])([H])C([H])([H])C(=O)N3C([H])([H])C([H])([H])C([H])([H])C([H])(n4nc(-c5c([H])c([H])c(Oc6c([H])c([H])c(F)c([H])c6F)c([H])c5[H])c(C(=O)N([H])[H])c4N([H])[H])C3([H])[H])(C([H])([H])[H])C3([H])C([H])([H])C([H])([H])C([H])([H])C([H])([H])C3([H])[H])c([H])c([H])c2C1([H])[H]

>  <smiles>  (66) 
[H]c1c([H])c([H])c2c(c1[H])C([H])([H])C([H])([H])C([H])([H])C2([H])N([H])C(=O)C1([H])N(C(=O)C([H])(N([H])C(=O)C([H])(N([H])C([H])([H])[H])C([H])([H])[H])C(C([H])([H])[H])(C([H])([H])[H])C([H])([H])[H])C([H])([H])c2c([H])c(OC([H])([H])C([H])([H])C([H])([H])[N+]([H])([H])C(C(=O)N([H])C([H])([H])C([H])([H])C(=O)N3C([H])([H])C([H])([H])C([H])([H])C([H])(n4nc(-c5c([H])c([H])c(Oc6c([H])c([H])c(F)c([H])c6F)c([H])c5[H])c(C(=O)N([H])[H])c4N([H])[H])C3([H])[H])(C([H])([H])[H])C3([H])C([H])([H])C([H])([H])C([H])([H])C([H])([H])C3([H])[H])c([H])c([H])c2C1([H])[H]

$$$$
66:0:0
     RDKit          3D

 92 88  0  0  1  0  0  0  0  0999 V2000
  -21.2610  -27.8940   20.4920 C   0  0  0  0  0  0  0  0  0  0  0  0
  -21.0000  -27.5330   22.0620 N   0  0  0  0  0  2  0  0  0  0  0  0
  -20.4830  -28.7230   20.0200 O   0  0  0  0  0  0  0  0  0  0  0  0
  -20.0950  -27.8650   22.3670 H   0  0  0  0  0  0  0  0  0  0  0  0
  -21.8530  -24.2440   19.6230 C   0  0  0  0  0 15  0  0  0  0  0  0
  -22.5960  -27.1950   19.2430 C   0  0  0  0  0  2  0  0  0  0  0  0
  -24.6860  -27.8450   18.3200 N   0  0  0  0  0  2  0  0  0  0  0  0
  -24.5990  -28.8070   18.6030 H   0  0  0  0  0  0  0  0  0  0  0  0
  -25.2600  -27.4420   19.0410 H   0  0  0  0  0  0  0  0  0  0  0  0
  -25.6780  -27.9690   15.4550 C   0  0  0  0  0  1  0  0  0  0  0  0
  -26.4180  -28.2400   16.7770 C   0  0  0  0  0  1  0  0  0  0  0  0
  -30.2580  -29.1020   14.6980 C   0  0  0  0  0  1  0  0  0  0  0  0
  -28.6930  -28.8450   15.8120 C   0  0  0  0  0  1  0  0  0  0  0  0
  -32.2150  -29.6730   13.7640 C   0  0  0  0  0  2  0  0  0  0  0  0
  -34.4260  -30.2530   11.6440 C   0  0  0  0  0  2  0  0  0  0  0  0
  -34.4000  -30.2600   10.0250 C   0  0  0  0  0  2  0  0  0  0  0  0
  -34.2360  -28.8570    9.4420 C   0  0  0  0  0  2  0  0  0  0  0  0
  -33.4470  -28.1030   10.5070 C   0  0  0  0  0  3  0  0  0  0  0  0
  -33.9520  -28.1480   11.9640 C   0  0  0  0  0  2  0  0  0  0  0  0
  -33.3160  -29.3740   12.5480 N   0  0  0  0  0  0  0  0  0  0  0  0
  -33.0590  -30.6620   13.9890 O   0  0  0  0  0  1  0  0  0  0  0  0
  -31.7570  -26.3570   10.3870 C   0  0  0  0  0  0  0  0  0  0  0  0
  -31.7830  -25.0650    9.9920 C   0  0  0  0  0  0  0  0  0  0  0  0
  -33.1390  -24.7850    9.6270 C   0  0  0  0  0  0  0  0  0  0  0  0
  -33.0520  -26.7860   10.2340 N   0  0  0  0  0  0  0  0  0  0  0  0
  -33.9210  -25.8320    9.8490 N   0  0  0  0  0  0  0  0  0  0  0  0
  -33.7130  -23.6050    8.9970 C   0  0  0  0  0  0  0  0  0  0  0  0
  -34.7500  -22.8680    9.6070 C   0  0  0  0  0  3  0  0  0  0  0  0
  -35.2580  -21.7120    8.9800 C   0  0  0  0  0  3  0  0  0  0  0  0
  -34.7250  -21.2900    7.7390 C   0  0  0  0  0  0  0  0  0  0  0  0
  -33.7110  -22.0460    7.1260 C   0  0  0  0  0  3  0  0  0  0  0  0
  -33.2110  -23.1990    7.7470 C   0  0  0  0  0  3  0  0  0  0  0  0
  -35.1690  -20.1910    7.0460 O   0  0  0  0  0  0  0  0  0  0  0  0
  -35.6080  -19.0670    7.6950 C   0  0  0  0  0  0  0  0  0  0  0  0
  -34.7860  -18.3540    8.5950 C   0  0  0  0  0  3  0  0  0  0  0  0
  -35.2570  -17.1650    9.1860 C   0  0  0  0  0  3  0  0  0  0  0  0
  -36.5420  -16.6830    8.8710 C   0  0  0  0  0  0  0  0  0  0  0  0
  -37.3590  -17.3890    7.9700 C   0  0  0  0  0  3  0  0  0  0  0  0
  -36.8910  -18.5770    7.3820 C   0  0  0  0  0  0  0  0  0  0  0  0
  -37.6740  -19.2440    6.5000 F   0  0  0  0  0  0  0  0  0  0  0  0
  -36.9900  -15.5350    9.4290 F   0  0  0  0  0  0  0  0  0  0  0  0
  -30.5770  -24.1990    9.8540 C   0  0  0  0  0  0  0  0  0  0  0  0
  -30.7470  -22.8960   10.0210 N   0  0  0  0  0  0  0  0  0  0  0  0
  -29.4640  -24.6880    9.6560 O   0  0  0  0  0  0  0  0  0  0  0  0
  -31.6600  -22.5100   10.2090 H   0  0  0  0  0  0  0  0  0  0  0  0
  -29.9520  -22.2740    9.9590 H   0  0  0  0  0  0  0  0  0  0  0  0
  -30.7450  -27.2100   10.8340 N   0  0  0  0  0  0  0  0  0  0  0  0
  -29.7740  -26.9170   10.8410 H   0  0  0  0  0  0  0  0  0  0  0  0
  -30.8630  -28.2050   10.9390 H   0  0  0  0  0  0  0  0  0  0  0  0
  -21.9970  -26.7730   23.5620 C   0  0  0  0  0 15  0  0  0  0  0  0
  -24.0000  -25.8040   23.4770 C   0  0  0  0  0 15  0  0  0  0  0  0
  -25.3300  -25.2950   22.1380 O   0  0  0  0  0  1  0  0  0  0  0  0
  -24.7100  -28.5770   23.9980 C   0  0  0  0  0  0  0  0  0  0  0  0
  -25.7860  -25.3860   20.6950 C   0  0  0  0  0  3  0  0  0  0  0  0
  -23.3840  -27.6390   21.6590 C   0  0  0  0  0  3  0  0  0  0  0  0
  -24.5810  -27.4500   19.8010 C   0  0  0  0  0  3  0  0  0  0  0  0
  -25.7940  -28.4110   21.8210 C   0  0  0  0  0  2  0  0  0  0  0  0
  -25.7540  -27.5290   20.6030 C   0  0  0  0  0  3  0  0  0  0  0  0
  -26.6290  -26.4550   20.6010 C   0  0  0  0  0  2  0  0  0  0  0  0
  -25.0780  -25.1880   19.4390 C   0  0  0  0  0  2  0  0  0  0  0  0
  -24.3580  -26.3140   18.9970 C   0  0  0  0  0  2  0  0  0  0  0  0
  -23.4380  -28.2120   20.2860 C   0  0  0  0  0  3  0  0  0  0  0  0
  -24.5870  -28.2200   22.6100 N   0  0  0  0  0  0  0  0  0  0  0  0
  -23.7660  -28.8950   24.7290 O   0  0  0  0  0  0  0  0  0  0  0  0
  -22.7660  -25.8620   21.4440 C   0  0  0  0  0  0  0  0  0  0  0  0
  -21.5120  -25.2090   21.8790 N   0  0  0  0  0  0  0  0  0  0  0  0
  -23.1640  -24.7970   21.6690 O   0  0  0  0  0  0  0  0  0  0  0  0
  -21.8400  -24.3010   22.1690 H   0  0  0  0  0  0  0  0  0  0  0  0
  -17.9730  -25.3600   19.4800 C   0  0  0  0  0  0  0  0  0  0  0  0
  -19.9000  -25.1800   21.8910 C   0  0  0  0  0  1  0  0  0  0  0  0
  -19.8240  -23.1720   22.3050 C   0  0  0  0  0 15  0  0  0  0  0  0
  -18.8750  -22.1970   20.4230 C   0  0  0  0  0 15  0  0  0  0  0  0
  -18.3030  -23.6130   19.1270 C   0  0  0  0  0  1  0  0  0  0  0  0
  -18.6290  -26.0920   20.6800 C   0  0  0  0  0  3  0  0  0  0  0  0
  -18.1090  -27.4650   20.8400 C   0  0  0  0  0  3  0  0  0  0  0  0
  -17.0280  -28.0760   20.1150 C   0  0  0  0  0  3  0  0  0  0  0  0
  -16.3160  -27.3110   19.1830 C   0  0  0  0  0  3  0  0  0  0  0  0
  -16.7860  -25.9950   18.8970 C   0  0  0  0  0  3  0  0  0  0  0  0
  -26.0670  -28.5460   24.8470 C   0  0  0  0  0  3  0  0  0  0  0  0
  -26.0860  -29.7550   25.6900 N   0  0  0  0  0  0  0  0  0  0  0  0
  -26.8640  -30.8180   25.4630 C   0  0  0  0  0  0  0  0  0  0  0  0
  -27.6550  -30.8650   24.5190 O   0  0  0  0  0  0  0  0  0  0  0  0
  -25.3990  -29.8030   26.4280 H   0  0  0  0  0  0  0  0  0  0  0  0
  -25.8570  -33.0920   25.7870 C   0  0  0  0  0  1  0  0  0  0  0  0
  -26.7440  -32.0130   26.4240 C   0  0  0  0  0  3  0  0  0  0  0  0
  -28.8630  -31.7310   27.6360 C   0  0  0  0  0  1  0  0  0  0  0  0
  -28.0510  -32.6000   26.7900 N   0  0  0  0  0  0  0  0  0  0  0  0
  -27.9230  -33.4830   27.2760 H   0  0  0  0  0  0  0  0  0  0  0  0
  -26.3430  -27.2940   25.8170 C   0  0  1  0  0  0  0  0  0  0  0  0
  -25.1970  -26.9690   26.8250 C   0  0  0  0  0  1  0  0  0  0  0  0
  -26.7670  -26.0370   25.0030 C   0  0  0  0  0  1  0  0  0  0  0  0
  -27.5780  -27.5790   26.7110 C   0  0  0  0  0  1  0  0  0  0  0  0
  1  2  1  0
  2  4  1  0
  3  1  2  0
  6  1  1  0
  7  8  1  0
  7  9  1  0
 10 11  1  0
 12 13  1  0
 14 21  1  0
 15 20  1  0
 16 15  1  0
 17 16  1  0
 18 17  1  0
 18 19  1  0
 19 20  1  0
 20 14  1  0
 22 47  1  0
 23 22  2  0
 24 26  2  0
 24 23  1  0
 25 22  1  0
 25 18  1  0
 26 25  1  0
 27 28  1  0
 27 24  1  0
 29 28  2  0
 30 29  1  0
 31 30  2  0
 31 32  1  0
 32 27  2  0
 33 34  1  0
 33 30  1  0
 34 35  1  0
 35 36  2  0
 37 36  1  0
 37 41  1  0
 38 37  2  0
 39 34  2  0
 39 38  1  0
 40 39  1  0
 42 23  1  0
 42 43  1  0
 43 45  1  0
 44 42  2  0
 46 43  1  0
 47 48  1  0
 47 49  1  0
 53 64  2  0
 54 52  1  0
 55 65  1  0
 55 63  1  0
 56 61  1  0
 56 62  1  0
 56 58  1  0
 57 63  1  0
 58 59  1  0
 58 57  1  0
 59 54  1  0
 60 54  1  0
 61 60  1  0
 62  6  1  0
 62 55  1  0
 63 53  1  0
 65 67  2  0
 65 66  1  0
 66 70  1  0
 66 68  1  0
 69 74  1  0
 73 69  1  0
 74 75  2  0
 76 75  1  0
 77 76  2  0
 78 77  1  0
 78 69  2  0
 79 53  1  0
 79 80  1  0
 79 89  1  0
 80 83  1  0
 81 80  1  0
 81 85  1  0
 82 81  2  0
 85 84  1  0
 85 87  1  0
 87 88  1  0
 87 86  1  0
 89 92  1  1
 89 90  1  0
 91 89  1  0
M  ISO  4  12 100  14 100  51 101  52 101
M  END
>  <TORSDO>  (67) 
F 22

>  <SCORE>  (67) 
-3.108

>  <name>  (67) 
66

>  <ligand_id>  (67) 
66

>  <original_smiles>  (67) 
[H]C(C(=O)N1C([H])([H])C([H])([H])C([H])([H])C([H])(n2nc(-c3c([H])c([H])c(Oc4c([H])c([H])c(F)c([H])c4F)c([H])c3[H])c(C(=O)N([H])[H])c2N([H])[H])C1([H])[H])=C([H])C([H])(C([H])([H])[H])[N+]([H])([H])C([H])(C(=O)N([H])C([H])([H])C([H])([H])Oc1c([H])c([H])c2c(c1[H])C([H])([H])N(C(=O)C([H])(N([H])C(=O)C([H])(N([H])C([H])([H])[H])C([H])([H])[H])C(C([H])([H])[H])(C([H])([H])[H])C([H])([H])[H])C([H])(C(=O)N([H])C1([H])c3c([H])c([H])c([H])c([H])c3C([H])([H])C([H])([H])C1([H])[H])C2([H])[H])C([H])([H])[H]

>  <smiles>  (67) 
[H]C(C(=O)N1C([H])([H])C([H])([H])C([H])([H])C([H])(n2nc(-c3c([H])c([H])c(Oc4c([H])c([H])c(F)c([H])c4F)c([H])c3[H])c(C(=O)N([H])[H])c2N([H])[H])C1([H])[H])=C([H])C([H])(C([H])([H])[H])[N+]([H])([H])C([H])(C(=O)N([H])C([H])([H])C([H])([H])Oc1c([H])c([H])c2c(c1[H])C([H])([H])N(C(=O)C([H])(N([H])C(=O)C([H])(N([H])C([H])([H])[H])C([H])([H])[H])C(C([H])([H])[H])(C([H])([H])[H])C([H])([H])[H])C([H])(C(=O)N([H])C1([H])c3c([H])c([H])c([H])c([H])c3C([H])([H])C([H])([H])C1([H])[H])C2([H])[H])C([H])([H])[H]

$$$$
67:0:0
     RDKit          3D

 89 97  0  0  1  0  0  0  0  0999 V2000
  -28.5930  -20.3440   20.5370 C   0  0  0  0  0  2  0  0  0  0  0  0
  -29.6680  -18.8420   20.2580 C   0  0  0  0  0  3  0  0  0  0  0  0
  -30.2510  -19.4010   18.9270 C   0  0  0  0  0  3  0  0  0  0  0  0
  -28.9170  -22.1770   20.2910 C   0  0  0  0  0  3  0  0  0  0  0  0
  -30.6720  -20.9500   18.9870 C   0  0  0  0  0  3  0  0  0  0  0  0
  -31.4730  -21.3590   17.7390 C   0  0  0  0  0  1  0  0  0  0  0  0
  -29.6020  -21.9580   19.0340 O   0  0  0  0  0  0  0  0  0  0  0  0
  -30.2830  -15.7140   20.1730 C   0  0  0  0  0  0  0  0  0  0  0  0
  -30.3690  -13.1920   19.3090 C   0  0  0  0  0  2  0  0  0  0  0  0
  -29.4500  -12.8130   18.1120 C   0  0  0  0  0  2  0  0  0  0  0  0
  -28.0380  -12.4470   18.5970 C   0  0  0  0  0  2  0  0  0  0  0  0
  -27.5490  -13.4250   19.6890 C   0  0  0  0  0  3  0  0  0  0  0  0
  -28.6060  -13.7220   20.7800 C   0  0  0  0  0  2  0  0  0  0  0  0
  -29.7600  -14.3520   20.1000 N   0  0  0  0  0  0  0  0  0  0  0  0
  -31.5120  -15.6650   19.9820 O   0  0  0  0  0  0  0  0  0  0  0  0
  -29.5190  -17.0640   20.2780 N   0  0  0  0  0  0  0  0  0  0  0  0
  -28.5410  -16.8320   20.3790 H   0  0  0  0  0  0  0  0  0  0  0  0
  -25.2040  -13.9210   20.5260 C   0  0  0  0  0  0  0  0  0  0  0  0
  -24.1620  -13.1240   20.9030 C   0  0  0  0  0  0  0  0  0  0  0  0
  -24.6440  -11.7800   20.8320 C   0  0  0  0  0  0  0  0  0  0  0  0
  -26.2490  -13.0660   20.2370 N   0  0  0  0  0  0  0  0  0  0  0  0
  -25.9290  -11.7690   20.4880 N   0  0  0  0  0  0  0  0  0  0  0  0
  -23.9330  -10.5060   21.0110 C   0  0  0  0  0  0  0  0  0  0  0  0
  -24.3750   -9.5350   21.9360 C   0  0  0  0  0  3  0  0  0  0  0  0
  -23.6600   -8.3300   22.1060 C   0  0  0  0  0  3  0  0  0  0  0  0
  -22.4870   -8.0870   21.3510 C   0  0  0  0  0  0  0  0  0  0  0  0
  -22.0650   -9.0460   20.4160 C   0  0  0  0  0  3  0  0  0  0  0  0
  -22.7810  -10.2430   20.2430 C   0  0  0  0  0  3  0  0  0  0  0  0
  -21.7430   -6.9350   21.4310 O   0  0  0  0  0  0  0  0  0  0  0  0
  -21.6750   -6.2010   22.5890 C   0  0  0  0  0  0  0  0  0  0  0  0
  -21.1760   -6.7490   23.7900 C   0  0  0  0  0  3  0  0  0  0  0  0
  -21.0570   -5.9390   24.9380 C   0  0  0  0  0  3  0  0  0  0  0  0
  -21.4290   -4.5830   24.8850 C   0  0  0  0  0  0  0  0  0  0  0  0
  -21.9210   -4.0340   23.6870 C   0  0  0  0  0  3  0  0  0  0  0  0
  -22.0400   -4.8400   22.5420 C   0  0  0  0  0  0  0  0  0  0  0  0
  -22.4950   -4.3000   21.3860 F   0  0  0  0  0  0  0  0  0  0  0  0
  -21.3080   -3.8030   25.9840 F   0  0  0  0  0  0  0  0  0  0  0  0
  -22.7660  -13.5800   21.2070 C   0  0  0  0  0  0  0  0  0  0  0  0
  -22.0640  -12.8660   22.0790 N   0  0  0  0  0  0  0  0  0  0  0  0
  -22.3080  -14.6080   20.7080 O   0  0  0  0  0  0  0  0  0  0  0  0
  -22.4480  -12.0360   22.5040 H   0  0  0  0  0  0  0  0  0  0  0  0
  -21.1280  -13.1550   22.3270 H   0  0  0  0  0  0  0  0  0  0  0  0
  -25.3440  -15.2970   20.3710 N   0  0  0  0  0  0  0  0  0  0  0  0
  -24.5690  -15.9370   20.5090 H   0  0  0  0  0  0  0  0  0  0  0  0
  -26.1690  -15.7490   20.0010 H   0  0  0  0  0  0  0  0  0  0  0  0
  -31.3450  -18.5740   18.5680 O   0  0  0  0  0  0  0  0  0  0  0  0
  -31.8720  -18.4390   19.3500 H   0  0  0  0  0  0  0  0  0  0  0  0
  -27.9490  -23.8680   20.2640 C   0  0  0  0  0  2  0  0  0  0  0  0
  -28.1450  -25.6140   20.3550 O   0  0  0  0  0  0  0  0  0  0  0  0
  -24.6520  -31.9140   23.2510 C   0  0  0  0  0  0  0  0  0  0  0  0
  -27.1680  -26.8180   20.2990 C   0  0  0  0  0  0  0  0  0  0  0  0
  -23.4620  -30.5100   21.6220 C   0  0  0  0  0  3  0  0  0  0  0  0
  -24.9040  -28.8480   20.2240 C   0  0  0  0  0  0  0  0  0  0  0  0
  -26.0400  -30.6470   21.5010 C   0  0  0  0  0  2  0  0  0  0  0  0
  -26.1000  -29.2100   20.8550 C   0  0  0  0  0  0  0  0  0  0  0  0
  -27.2180  -28.2230   20.8590 C   0  0  0  0  0  3  0  0  0  0  0  0
  -25.9370  -26.6620   19.6140 C   0  0  0  0  0  3  0  0  0  0  0  0
  -24.8610  -27.6000   19.5800 C   0  0  0  0  0  3  0  0  0  0  0  0
  -23.7000  -29.8020   20.2570 C   0  0  0  0  0  2  0  0  0  0  0  0
  -24.7420  -31.0570   22.1770 N   0  0  0  0  0  0  0  0  0  0  0  0
  -23.5600  -32.2210   23.7580 O   0  0  0  0  0  0  0  0  0  0  0  0
  -22.7400  -29.5420   22.5980 C   0  0  0  0  0  0  0  0  0  0  0  0
  -21.4090  -29.3860   22.4660 N   0  0  0  0  0  0  0  0  0  0  0  0
  -23.3910  -28.9280   23.4470 O   0  0  0  0  0  0  0  0  0  0  0  0
  -20.9330  -29.9320   21.7600 H   0  0  0  0  0  0  0  0  0  0  0  0
  -18.0190  -28.1760   22.9650 C   0  0  0  0  0  0  0  0  0  0  0  0
  -20.5760  -28.4580   23.2420 C   0  0  0  0  0  3  0  0  0  0  0  0
  -20.6860  -27.0180   22.6890 C   0  0  0  0  0  2  0  0  0  0  0  0
  -19.5940  -26.6780   21.6700 C   0  0  0  0  0  2  0  0  0  0  0  0
  -18.2060  -26.8220   22.3020 C   0  0  0  0  0  2  0  0  0  0  0  0
  -19.1300  -28.9500   23.3930 C   0  0  0  0  0  0  0  0  0  0  0  0
  -18.8980  -30.2140   23.9790 C   0  0  0  0  0  3  0  0  0  0  0  0
  -17.5880  -30.7040   24.1380 C   0  0  0  0  0  3  0  0  0  0  0  0
  -16.4910  -29.9270   23.7240 C   0  0  0  0  0  3  0  0  0  0  0  0
  -16.7080  -28.6650   23.1440 C   0  0  0  0  0  3  0  0  0  0  0  0
  -25.9180  -32.5640   23.8890 C   0  0  0  0  0  3  0  0  0  0  0  0
  -25.6000  -33.9680   24.2130 N   0  0  0  0  0  0  0  0  0  0  0  0
  -25.9190  -35.0270   23.4550 C   0  0  0  0  0  0  0  0  0  0  0  0
  -26.5680  -34.9230   22.4120 O   0  0  0  0  0  0  0  0  0  0  0  0
  -25.0180  -34.1210   25.0240 H   0  0  0  0  0  0  0  0  0  0  0  0
  -24.1780  -36.8260   23.1600 C   0  0  0  0  0  1  0  0  0  0  0  0
  -25.4480  -36.4200   23.9260 C   0  0  0  0  0  3  0  0  0  0  0  0
  -27.6040  -37.3240   24.6840 C   0  0  0  0  0  1  0  0  0  0  0  0
  -26.4730  -37.4760   23.7710 N   0  0  0  0  0  0  0  0  0  0  0  0
  -26.0680  -38.3960   23.9180 H   0  0  0  0  0  0  0  0  0  0  0  0
  -26.4060  -31.8130   25.1910 C   0  0  1  0  0  0  0  0  0  0  0  0
  -25.2960  -31.6090   26.2490 C   0  0  0  0  0  1  0  0  0  0  0  0
  -26.9800  -30.4210   24.8470 C   0  0  0  0  0  1  0  0  0  0  0  0
  -27.5570  -32.6080   25.8530 C   0  0  0  0  0  1  0  0  0  0  0  0
  2 16  1  0
  2  1  1  0
  3 46  1  0
  3  5  1  0
  3  2  1  0
  4 48  1  0
  4  1  1  0
  5  6  1  0
  5  7  1  0
  7  4  1  0
  8 16  1  0
  9 14  1  0
 10 11  1  0
 10  9  1  0
 12 11  1  0
 12 21  1  0
 12 13  1  0
 14  8  1  0
 14 13  1  0
 15  8  2  0
 16 17  1  0
 18 19  2  0
 19 38  1  0
 20 19  1  0
 20 23  1  0
 21 22  1  0
 21 18  1  0
 22 20  2  0
 23 24  1  0
 24 25  2  0
 26 29  1  0
 26 25  1  0
 27 26  2  0
 28 27  1  0
 28 23  2  0
 29 30  1  0
 30 31  1  0
 31 32  2  0
 33 32  1  0
 33 37  1  0
 34 33  2  0
 35 30  2  0
 35 34  1  0
 36 35  1  0
 38 39  1  0
 39 42  1  0
 39 41  1  0
 40 38  2  0
 43 44  1  0
 43 18  1  0
 45 43  1  0
 46 47  1  0
 48 49  1  0
 50 61  2  0
 51 49  1  0
 51 56  1  0
 52 60  1  0
 52 62  1  0
 53 59  1  0
 53 55  1  0
 54 60  1  0
 55 56  2  0
 55 54  1  0
 57 51  2  0
 58 57  1  0
 58 53  2  0
 59 52  1  0
 60 50  1  0
 62 64  2  0
 63 62  1  0
 65 63  1  0
 66 75  2  0
 66 71  1  0
 67 63  1  0
 67 71  1  0
 68 67  1  0
 69 70  1  0
 69 68  1  0
 70 66  1  0
 71 72  2  0
 72 73  1  0
 74 73  2  0
 75 74  1  0
 76 50  1  0
 76 77  1  0
 76 86  1  0
 77 80  1  0
 78 82  1  0
 78 77  1  0
 79 78  2  0
 82 81  1  0
 84 85  1  0
 84 82  1  0
 84 83  1  0
 86 89  1  1
 86 87  1  0
 88 86  1  0
M  ISO  4   8 100  16 100  48 101  49 101
M  END
>  <TORSDO>  (68) 
F 18

>  <SCORE>  (68) 
-16.372

>  <name>  (68) 
67

>  <ligand_id>  (68) 
67

>  <original_smiles>  (68) 
[H]OC1([H])C([H])(C([H])([H])[H])OC([H])(C([H])([H])Oc2c([H])c([H])c3c(c2[H])C([H])([H])N(C(=O)C([H])(N([H])C(=O)C([H])(N([H])C([H])([H])[H])C([H])([H])[H])C(C([H])([H])[H])(C([H])([H])[H])C([H])([H])[H])C([H])(C(=O)N([H])C2([H])c4c([H])c([H])c([H])c([H])c4C([H])([H])C([H])([H])C2([H])[H])C3([H])[H])C([H])([H])C1([H])N([H])C(=O)N1C([H])([H])C([H])([H])C([H])([H])C([H])(n2nc(-c3c([H])c([H])c(Oc4c([H])c([H])c(F)c([H])c4F)c([H])c3[H])c(C(=O)N([H])[H])c2N([H])[H])C1([H])[H]

>  <smiles>  (68) 
[H]OC1([H])C([H])(C([H])([H])[H])OC([H])(C([H])([H])Oc2c([H])c([H])c3c(c2[H])C([H])([H])N(C(=O)C([H])(N([H])C(=O)C([H])(N([H])C([H])([H])[H])C([H])([H])[H])C(C([H])([H])[H])(C([H])([H])[H])C([H])([H])[H])C([H])(C(=O)N([H])C2([H])c4c([H])c([H])c([H])c([H])c4C([H])([H])C([H])([H])C2([H])[H])C3([H])[H])C([H])([H])C1([H])N([H])C(=O)N1C([H])([H])C([H])([H])C([H])([H])C([H])(n2nc(-c3c([H])c([H])c(Oc4c([H])c([H])c(F)c([H])c4F)c([H])c3[H])c(C(=O)N([H])[H])c2N([H])[H])C1([H])[H]

$$$$
68:0:0
     RDKit          3D

 95103  0  0  1  0  0  0  0  0999 V2000
  -29.8940  -18.1690   20.4120 C   0  0  0  0  0  0  0  0  0  0  0  0
  -31.8240  -20.6170   18.3420 C   0  0  0  0  0  2  0  0  0  0  0  0
  -30.3660  -20.8510   17.9930 C   0  0  0  0  0  2  0  0  0  0  0  0
  -31.7700  -19.3390   19.1770 C   0  0  0  0  0  2  0  0  0  0  0  0
  -29.6150  -20.4380   19.2730 C   0  0  0  0  0  3  0  0  0  0  0  0
  -30.4170  -19.2570   19.7520 N   0  0  0  0  0  0  0  0  0  0  0  0
  -28.6670  -18.0980   20.5400 O   0  0  0  0  0  0  0  0  0  0  0  0
  -29.5500  -21.6790   20.2380 C   0  0  0  0  0  0  0  0  0  0  0  0
  -29.0180  -22.8410   19.7700 N   0  0  0  0  0  0  0  0  0  0  0  0
  -30.0160  -21.5970   21.3760 O   0  0  0  0  0  0  0  0  0  0  0  0
  -28.6440  -22.8060   18.8320 H   0  0  0  0  0  0  0  0  0  0  0  0
  -29.0720  -24.2000   20.3890 C   0  0  0  0  0  2  0  0  0  0  0  0
  -27.9640  -25.1920   19.8820 C   0  0  0  0  0  2  0  0  0  0  0  0
  -28.1230  -26.6070   20.2240 O   0  0  0  0  0  0  0  0  0  0  0  0
  -24.5370  -31.9900   23.3250 C   0  0  0  0  0  0  0  0  0  0  0  0
  -26.9960  -27.4330   20.1860 C   0  0  0  0  0  0  0  0  0  0  0  0
  -23.2650  -30.6230   21.7090 C   0  0  0  0  0  3  0  0  0  0  0  0
  -24.6490  -29.0550   20.2420 C   0  0  0  0  0  0  0  0  0  0  0  0
  -25.8010  -30.9030   21.4630 C   0  0  0  0  0  2  0  0  0  0  0  0
  -25.8380  -29.5280   20.8130 C   0  0  0  0  0  0  0  0  0  0  0  0
  -27.0120  -28.7270   20.7800 C   0  0  0  0  0  3  0  0  0  0  0  0
  -25.7880  -27.0090   19.5820 C   0  0  0  0  0  3  0  0  0  0  0  0
  -24.6240  -27.7980   19.6200 C   0  0  0  0  0  3  0  0  0  0  0  0
  -23.4290  -29.9470   20.3220 C   0  0  0  0  0  2  0  0  0  0  0  0
  -24.5540  -31.1870   22.2220 N   0  0  0  0  0  0  0  0  0  0  0  0
  -23.4730  -32.2870   23.8860 O   0  0  0  0  0  0  0  0  0  0  0  0
  -22.6060  -29.6150   22.6800 C   0  0  0  0  0  0  0  0  0  0  0  0
  -21.2890  -29.4040   22.5280 N   0  0  0  0  0  0  0  0  0  0  0  0
  -23.2810  -29.0250   23.5280 O   0  0  0  0  0  0  0  0  0  0  0  0
  -20.8040  -29.9340   21.8180 H   0  0  0  0  0  0  0  0  0  0  0  0
  -17.9390  -28.1080   22.9400 C   0  0  0  0  0  0  0  0  0  0  0  0
  -20.4720  -28.4710   23.3050 C   0  0  0  0  0  3  0  0  0  0  0  0
  -20.6480  -27.0210   22.7980 C   0  0  0  0  0  2  0  0  0  0  0  0
  -19.6030  -26.6150   21.7550 C   0  0  0  0  0  2  0  0  0  0  0  0
  -18.1910  -26.7370   22.3330 C   0  0  0  0  0  2  0  0  0  0  0  0
  -19.0110  -28.9270   23.3820 C   0  0  0  0  0  0  0  0  0  0  0  0
  -18.7240  -30.2060   23.9070 C   0  0  0  0  0  3  0  0  0  0  0  0
  -17.3960  -30.6670   23.9960 C   0  0  0  0  0  3  0  0  0  0  0  0
  -16.3380  -29.8450   23.5700 C   0  0  0  0  0  3  0  0  0  0  0  0
  -16.6100  -28.5680   23.0490 C   0  0  0  0  0  3  0  0  0  0  0  0
  -25.8490  -32.5910   23.9180 C   0  0  0  0  0  3  0  0  0  0  0  0
  -26.3700  -31.8130   25.1890 C   0  0  1  0  0  0  0  0  0  0  0  0
  -25.2820  -31.5800   26.2630 C   0  0  0  0  0  1  0  0  0  0  0  0
  -26.9410  -30.4330   24.7890 C   0  0  0  0  0  1  0  0  0  0  0  0
  -27.5300  -32.5970   25.8440 C   0  0  0  0  0  1  0  0  0  0  0  0
  -25.5830  -33.9980   24.2450 N   0  0  0  0  0  0  0  0  0  0  0  0
  -25.8970  -35.0360   23.4580 C   0  0  0  0  0  0  0  0  0  0  0  0
  -26.5140  -34.9070   22.3960 O   0  0  0  0  0  0  0  0  0  0  0  0
  -25.0320  -34.1740   25.0720 H   0  0  0  0  0  0  0  0  0  0  0  0
  -24.1750  -36.8470   23.1830 C   0  0  0  0  0  1  0  0  0  0  0  0
  -25.4600  -36.4380   23.9210 C   0  0  0  0  0  3  0  0  0  0  0  0
  -27.6490  -37.3130   24.6070 C   0  0  0  0  0  1  0  0  0  0  0  0
  -26.4970  -37.4740   23.7230 N   0  0  0  0  0  0  0  0  0  0  0  0
  -26.1120  -38.4030   23.8710 H   0  0  0  0  0  0  0  0  0  0  0  0
  -30.3450  -16.9910   22.5660 C   0  0  0  0  0  1  0  0  0  0  0  0
  -32.2620  -17.0910   21.0640 C   0  0  0  0  0  1  0  0  0  0  0  0
  -30.7170  -16.9660   21.0610 C   0  0  2  0  0  0  0  0  0  0  0  0
  -30.8840  -14.5870   19.9680 C   0  0  0  0  0  0  0  0  0  0  0  0
  -30.5110  -12.3740   18.9010 C   0  0  0  0  0  2  0  0  0  0  0  0
  -29.4960  -12.5120   17.7480 C   0  0  0  0  0  2  0  0  0  0  0  0
  -28.0510  -12.3960   18.2720 C   0  0  0  0  0  2  0  0  0  0  0  0
  -27.7910  -13.2900   19.5140 C   0  0  0  0  0  3  0  0  0  0  0  0
  -28.9120  -13.1170   20.5640 C   0  0  0  0  0  2  0  0  0  0  0  0
  -30.1930  -13.4100   19.9010 N   0  0  0  0  0  0  0  0  0  0  0  0
  -31.9750  -14.7260   19.4120 O   0  0  0  0  0  0  0  0  0  0  0  0
  -30.2580  -15.6130   20.6020 N   0  0  0  0  0  0  0  0  0  0  0  0
  -29.3170  -15.3920   20.8880 H   0  0  0  0  0  0  0  0  0  0  0  0
  -25.4880  -13.9640   20.4340 C   0  0  0  0  0  0  0  0  0  0  0  0
  -24.4140  -13.2230   20.8500 C   0  0  0  0  0  0  0  0  0  0  0  0
  -24.8080  -11.8540   20.7250 C   0  0  0  0  0  0  0  0  0  0  0  0
  -26.4690  -13.0490   20.0850 N   0  0  0  0  0  0  0  0  0  0  0  0
  -26.0690  -11.7730   20.3180 N   0  0  0  0  0  0  0  0  0  0  0  0
  -24.0380  -10.6180   20.9160 C   0  0  0  0  0  0  0  0  0  0  0  0
  -24.4710   -9.6100   21.8060 C   0  0  0  0  0  3  0  0  0  0  0  0
  -23.7050   -8.4380   21.9870 C   0  0  0  0  0  3  0  0  0  0  0  0
  -22.4920   -8.2660   21.2770 C   0  0  0  0  0  0  0  0  0  0  0  0
  -22.0780   -9.2620   20.3760 C   0  0  0  0  0  3  0  0  0  0  0  0
  -22.8440  -10.4260   20.1930 C   0  0  0  0  0  3  0  0  0  0  0  0
  -21.6960   -7.1490   21.3700 O   0  0  0  0  0  0  0  0  0  0  0  0
  -21.6410   -6.3980   22.5160 C   0  0  0  0  0  0  0  0  0  0  0  0
  -21.2040   -6.9420   23.7430 C   0  0  0  0  0  3  0  0  0  0  0  0
  -21.0950   -6.1160   24.8800 C   0  0  0  0  0  3  0  0  0  0  0  0
  -21.4130   -4.7480   24.7910 C   0  0  0  0  0  0  0  0  0  0  0  0
  -21.8450   -4.2040   23.5680 C   0  0  0  0  0  3  0  0  0  0  0  0
  -21.9540   -5.0260   22.4340 C   0  0  0  0  0  0  0  0  0  0  0  0
  -22.3490   -4.4930   21.2530 F   0  0  0  0  0  0  0  0  0  0  0  0
  -21.3020   -3.9530   25.8800 F   0  0  0  0  0  0  0  0  0  0  0  0
  -23.0650  -13.7470   21.2460 C   0  0  0  0  0  0  0  0  0  0  0  0
  -22.3720  -13.0510   22.1410 N   0  0  0  0  0  0  0  0  0  0  0  0
  -22.6350  -14.8100   20.7990 O   0  0  0  0  0  0  0  0  0  0  0  0
  -22.7340  -12.1910   22.5280 H   0  0  0  0  0  0  0  0  0  0  0  0
  -21.4690  -13.3850   22.4460 H   0  0  0  0  0  0  0  0  0  0  0  0
  -25.7060  -15.3330   20.3070 N   0  0  0  0  0  0  0  0  0  0  0  0
  -24.9870  -16.0180   20.5170 H   0  0  0  0  0  0  0  0  0  0  0  0
  -26.5570  -15.7540   19.9570 H   0  0  0  0  0  0  0  0  0  0  0  0
  1  7  2  0
  1 57  1  0
  2  4  1  0
  3  2  1  0
  3  5  1  0
  4  6  1  0
  5  6  1  0
  5  8  1  0
  6  1  1  0
  8 10  2  0
  9  8  1  0
  9 12  1  0
 11  9  1  0
 13 14  1  0
 13 12  1  0
 15 26  2  0
 16 14  1  0
 16 21  1  0
 17 25  1  0
 17 27  1  0
 18 24  1  0
 18 20  1  0
 19 25  1  0
 20 19  1  0
 21 20  2  0
 22 23  1  0
 22 16  2  0
 23 18  2  0
 24 17  1  0
 25 15  1  0
 27 29  2  0
 28 27  1  0
 30 28  1  0
 31 40  2  0
 31 36  1  0
 32 28  1  0
 32 36  1  0
 33 32  1  0
 34 35  1  0
 34 33  1  0
 35 31  1  0
 36 37  2  0
 37 38  1  0
 39 38  2  0
 40 39  1  0
 41 15  1  0
 41 46  1  0
 41 42  1  0
 42 45  1  1
 42 43  1  0
 44 42  1  0
 46 49  1  0
 47 51  1  0
 47 46  1  0
 48 47  2  0
 51 50  1  0
 53 54  1  0
 53 51  1  0
 53 52  1  0
 57 56  1  1
 57 55  1  0
 58 66  1  0
 59 64  1  0
 60 61  1  0
 60 59  1  0
 62 61  1  0
 62 71  1  0
 62 63  1  0
 64 58  1  0
 64 63  1  0
 65 58  2  0
 66 67  1  0
 66 57  1  0
 68 69  2  0
 69 88  1  0
 70 69  1  0
 70 73  1  0
 71 72  1  0
 71 68  1  0
 72 70  2  0
 73 74  1  0
 74 75  2  0
 76 79  1  0
 76 75  1  0
 77 76  2  0
 78 77  1  0
 78 73  2  0
 79 80  1  0
 80 81  1  0
 81 82  2  0
 83 82  1  0
 83 87  1  0
 84 83  2  0
 85 80  2  0
 85 84  1  0
 86 85  1  0
 88 89  1  0
 89 92  1  0
 89 91  1  0
 90 88  2  0
 93 68  1  0
 93 94  1  0
 95 93  1  0
M  ISO  4  13 101  14 101  58 100  66 100
M  END
>  <TORSDO>  (69) 
F 20

>  <SCORE>  (69) 
-13.311

>  <name>  (69) 
68

>  <ligand_id>  (69) 
68

>  <original_smiles>  (69) 
[H]c1c([H])c([H])c2c(c1[H])C([H])([H])C([H])([H])C([H])([H])C2([H])N([H])C(=O)C1([H])N(C(=O)C([H])(N([H])C(=O)C([H])(N([H])C([H])([H])[H])C([H])([H])[H])C(C([H])([H])[H])(C([H])([H])[H])C([H])([H])[H])C([H])([H])c2c([H])c(OC([H])([H])C([H])([H])N([H])C(=O)C3([H])N(C(=O)C(N([H])C(=O)N4C([H])([H])C([H])([H])C([H])([H])C([H])(n5nc(-c6c([H])c([H])c(Oc7c([H])c([H])c(F)c([H])c7F)c([H])c6[H])c(C(=O)N([H])[H])c5N([H])[H])C4([H])[H])(C([H])([H])[H])C([H])([H])[H])C([H])([H])C([H])([H])C3([H])[H])c([H])c([H])c2C1([H])[H]

>  <smiles>  (69) 
[H]c1c([H])c([H])c2c(c1[H])C([H])([H])C([H])([H])C([H])([H])C2([H])N([H])C(=O)C1([H])N(C(=O)C([H])(N([H])C(=O)C([H])(N([H])C([H])([H])[H])C([H])([H])[H])C(C([H])([H])[H])(C([H])([H])[H])C([H])([H])[H])C([H])([H])c2c([H])c(OC([H])([H])C([H])([H])N([H])C(=O)C3([H])N(C(=O)C(N([H])C(=O)N4C([H])([H])C([H])([H])C([H])([H])C([H])(n5nc(-c6c([H])c([H])c(Oc7c([H])c([H])c(F)c([H])c7F)c([H])c6[H])c(C(=O)N([H])[H])c5N([H])[H])C4([H])[H])(C([H])([H])[H])C([H])([H])[H])C([H])([H])C([H])([H])C3([H])[H])c([H])c([H])c2C1([H])[H]

$$$$
69:0:0
     RDKit          3D

 88 95  0  0  1  0  0  0  0  0999 V2000
  -28.8530  -22.6840   20.8020 C   0  0  0  0  0  3  0  0  0  0  0  0
  -28.2320  -23.8430   20.3770 C   0  0  0  0  0  3  0  0  0  0  0  0
  -29.3940  -25.4120   22.0710 C   0  0  0  0  0  1  0  0  0  0  0  0
  -28.2670  -25.2780   21.0370 C   0  0  0  0  0  3  0  0  0  0  0  0
  -28.3310  -26.4790   20.1770 O   0  0  0  0  0  0  0  0  0  0  0  0
  -24.6140  -31.8820   23.2320 C   0  0  0  0  0  0  0  0  0  0  0  0
  -27.2200  -27.3300   20.1810 C   0  0  0  0  0  0  0  0  0  0  0  0
  -23.4030  -30.4770   21.5990 C   0  0  0  0  0  3  0  0  0  0  0  0
  -24.8510  -28.9230   20.1720 C   0  0  0  0  0  0  0  0  0  0  0  0
  -25.9390  -30.8040   21.4020 C   0  0  0  0  0  2  0  0  0  0  0  0
  -26.0210  -29.4240   20.7600 C   0  0  0  0  0  0  0  0  0  0  0  0
  -27.2120  -28.6400   20.7490 C   0  0  0  0  0  3  0  0  0  0  0  0
  -26.0320  -26.8740   19.5740 C   0  0  0  0  0  3  0  0  0  0  0  0
  -24.8580  -27.6540   19.5680 C   0  0  0  0  0  3  0  0  0  0  0  0
  -23.6130  -29.7970   20.2200 C   0  0  0  0  0  2  0  0  0  0  0  0
  -24.6710  -31.0730   22.1340 N   0  0  0  0  0  0  0  0  0  0  0  0
  -23.5340  -32.1570   23.7740 O   0  0  0  0  0  0  0  0  0  0  0  0
  -22.7500  -29.4610   22.5660 C   0  0  0  0  0  0  0  0  0  0  0  0
  -21.4230  -29.2790   22.4460 N   0  0  0  0  0  0  0  0  0  0  0  0
  -23.4340  -28.8410   23.3830 O   0  0  0  0  0  0  0  0  0  0  0  0
  -20.9300  -29.8310   21.7590 H   0  0  0  0  0  0  0  0  0  0  0  0
  -18.0540  -28.0720   22.9690 C   0  0  0  0  0  0  0  0  0  0  0  0
  -20.6120  -28.3420   23.2270 C   0  0  0  0  0  3  0  0  0  0  0  0
  -20.7170  -26.9080   22.6590 C   0  0  0  0  0  2  0  0  0  0  0  0
  -19.6120  -26.5750   21.6510 C   0  0  0  0  0  2  0  0  0  0  0  0
  -18.2330  -26.7190   22.3000 C   0  0  0  0  0  2  0  0  0  0  0  0
  -19.1710  -28.8400   23.3900 C   0  0  0  0  0  0  0  0  0  0  0  0
  -18.9510  -30.1040   23.9780 C   0  0  0  0  0  3  0  0  0  0  0  0
  -17.6450  -30.6000   24.1500 C   0  0  0  0  0  3  0  0  0  0  0  0
  -16.5420  -29.8290   23.7440 C   0  0  0  0  0  3  0  0  0  0  0  0
  -16.7470  -28.5680   23.1590 C   0  0  0  0  0  3  0  0  0  0  0  0
  -25.8990  -32.5200   23.8440 C   0  0  0  0  0  3  0  0  0  0  0  0
  -26.4260  -31.7570   25.1210 C   0  0  1  0  0  0  0  0  0  0  0  0
  -25.3430  -31.5250   26.2010 C   0  0  0  0  0  1  0  0  0  0  0  0
  -27.0110  -30.3800   24.7340 C   0  0  0  0  0  1  0  0  0  0  0  0
  -27.5790  -32.5610   25.7710 C   0  0  0  0  0  1  0  0  0  0  0  0
  -25.5880  -33.9190   24.1690 N   0  0  0  0  0  0  0  0  0  0  0  0
  -25.9130  -34.9700   23.4050 C   0  0  0  0  0  0  0  0  0  0  0  0
  -26.5770  -34.8640   22.3690 O   0  0  0  0  0  0  0  0  0  0  0  0
  -25.0010  -34.0750   24.9760 H   0  0  0  0  0  0  0  0  0  0  0  0
  -24.1820  -36.7620   23.0550 C   0  0  0  0  0  1  0  0  0  0  0  0
  -25.4260  -36.3590   23.8620 C   0  0  0  0  0  3  0  0  0  0  0  0
  -27.5640  -37.2470   24.6820 C   0  0  0  0  0  1  0  0  0  0  0  0
  -26.4580  -37.4130   23.7430 N   0  0  0  0  0  0  0  0  0  0  0  0
  -26.0510  -38.3330   23.8920 H   0  0  0  0  0  0  0  0  0  0  0  0
  -28.6660  -21.2180   20.2600 C   0  0  0  0  0  3  0  0  0  0  0  0
  -29.7260  -20.0760   20.6510 C   0  0  0  0  0  3  0  0  0  0  0  0
  -29.2840  -18.6300   20.4380 N   0  0  0  0  0  4  0  0  0  0  0  0
  -28.5350  -18.4700   21.0920 H   0  0  0  0  0  0  0  0  0  0  0  0
  -28.8860  -18.5600   19.5140 H   0  0  0  0  0  0  0  0  0  0  0  0
  -30.2950  -17.4900   20.5990 C   0  0  0  0  0  2  0  0  0  0  0  0
  -29.7100  -16.0030   20.7940 C   0  0  0  0  0  2  0  0  0  0  0  0
  -30.5620  -14.7090   20.4040 C   0  0  0  0  0  0  0  0  0  0  0  0
  -30.3770  -12.4570   19.3410 C   0  0  0  0  0  2  0  0  0  0  0  0
  -29.4300  -12.5740   18.1240 C   0  0  0  0  0  2  0  0  0  0  0  0
  -27.9600  -12.3950   18.5510 C   0  0  0  0  0  2  0  0  0  0  0  0
  -27.5940  -13.2580   19.7850 C   0  0  0  0  0  3  0  0  0  0  0  0
  -28.6560  -13.1250   20.9000 C   0  0  0  0  0  2  0  0  0  0  0  0
  -29.9640  -13.4740   20.3290 N   0  0  0  0  0  0  0  0  0  0  0  0
  -31.7270  -14.8550   20.0230 O   0  0  0  0  0  0  0  0  0  0  0  0
  -25.2080  -13.8530   20.5160 C   0  0  0  0  0  0  0  0  0  0  0  0
  -24.1440  -13.0790   20.8900 C   0  0  0  0  0  0  0  0  0  0  0  0
  -24.6120  -11.7280   20.8660 C   0  0  0  0  0  0  0  0  0  0  0  0
  -26.2520  -12.9730   20.2790 N   0  0  0  0  0  0  0  0  0  0  0  0
  -25.9010  -11.6910   20.5540 N   0  0  0  0  0  0  0  0  0  0  0  0
  -23.8940  -10.4640   21.0630 C   0  0  0  0  0  0  0  0  0  0  0  0
  -24.3400   -9.4970   21.9900 C   0  0  0  0  0  3  0  0  0  0  0  0
  -23.6200   -8.2960   22.1720 C   0  0  0  0  0  3  0  0  0  0  0  0
  -22.4420   -8.0560   21.4270 C   0  0  0  0  0  0  0  0  0  0  0  0
  -22.0170   -9.0120   20.4870 C   0  0  0  0  0  3  0  0  0  0  0  0
  -22.7380  -10.2040   20.3030 C   0  0  0  0  0  3  0  0  0  0  0  0
  -21.6910   -6.9090   21.5190 O   0  0  0  0  0  0  0  0  0  0  0  0
  -21.6650   -6.1600   22.6680 C   0  0  0  0  0  0  0  0  0  0  0  0
  -21.2600   -6.7040   23.9060 C   0  0  0  0  0  3  0  0  0  0  0  0
  -21.1810   -5.8770   25.0450 C   0  0  0  0  0  3  0  0  0  0  0  0
  -21.4970   -4.5090   24.9480 C   0  0  0  0  0  0  0  0  0  0  0  0
  -21.8950   -3.9650   23.7140 C   0  0  0  0  0  3  0  0  0  0  0  0
  -21.9760   -4.7870   22.5780 C   0  0  0  0  0  0  0  0  0  0  0  0
  -22.3400   -4.2530   21.3870 F   0  0  0  0  0  0  0  0  0  0  0  0
  -21.4130   -3.7140   26.0410 F   0  0  0  0  0  0  0  0  0  0  0  0
  -22.7450  -13.5520   21.1570 C   0  0  0  0  0  0  0  0  0  0  0  0
  -22.0190  -12.8600   22.0260 N   0  0  0  0  0  0  0  0  0  0  0  0
  -22.3030  -14.5720   20.6280 O   0  0  0  0  0  0  0  0  0  0  0  0
  -22.3900  -12.0380   22.4790 H   0  0  0  0  0  0  0  0  0  0  0  0
  -21.0810  -13.1600   22.2470 H   0  0  0  0  0  0  0  0  0  0  0  0
  -25.3690  -15.2230   20.3310 N   0  0  0  0  0  0  0  0  0  0  0  0
  -24.5980  -15.8740   20.4300 H   0  0  0  0  0  0  0  0  0  0  0  0
  -26.2100  -15.6570   19.9710 H   0  0  0  0  0  0  0  0  0  0  0  0
  2  1  2  0
  2  4  1  0
  4  3  1  0
  5  7  1  0
  5  4  1  0
  6 17  2  0
  7 12  1  0
  8 16  1  0
  8 18  1  0
  9 15  1  0
  9 11  1  0
 10 16  1  0
 11 10  1  0
 12 11  2  0
 13  7  2  0
 14 13  1  0
 14  9  2  0
 15  8  1  0
 16  6  1  0
 18 20  2  0
 19 18  1  0
 21 19  1  0
 22 31  2  0
 22 27  1  0
 23 19  1  0
 23 27  1  0
 24 23  1  0
 25 26  1  0
 25 24  1  0
 26 22  1  0
 27 28  2  0
 28 29  1  0
 30 29  2  0
 31 30  1  0
 32  6  1  0
 32 37  1  0
 32 33  1  0
 33 36  1  1
 33 34  1  0
 35 33  1  0
 37 40  1  0
 38 42  1  0
 38 37  1  0
 39 38  2  0
 42 41  1  0
 44 42  1  0
 44 45  1  0
 44 43  1  0
 46 47  2  0
 46  1  1  0
 48 51  1  0
 48 47  1  0
 48 49  1  0
 50 48  1  0
 51 52  1  0
 53 52  1  0
 54 59  1  0
 55 56  1  0
 55 54  1  0
 57 56  1  0
 57 64  1  0
 57 58  1  0
 59 53  1  0
 59 58  1  0
 60 53  2  0
 61 62  2  0
 62 81  1  0
 63 62  1  0
 63 66  1  0
 64 61  1  0
 64 65  1  0
 65 63  2  0
 66 67  1  0
 67 68  2  0
 69 72  1  0
 69 68  1  0
 70 69  2  0
 71 70  1  0
 71 66  2  0
 72 73  1  0
 73 74  1  0
 74 75  2  0
 76 75  1  0
 76 80  1  0
 77 76  2  0
 78 73  2  0
 78 77  1  0
 79 78  1  0
 81 82  1  0
 82 85  1  0
 82 84  1  0
 83 81  2  0
 86 87  1  0
 86 61  1  0
 88 86  1  0
M  ISO  4   4 101   5 101  52 100  53 100
M  END
>  <TORSDO>  (70) 
F 22

>  <SCORE>  (70) 
-13.013

>  <name>  (70) 
69

>  <ligand_id>  (70) 
69

>  <original_smiles>  (70) 
[H]C(=C([H])C([H])(Oc1c([H])c([H])c2c(c1[H])C([H])([H])N(C(=O)C([H])(N([H])C(=O)C([H])(N([H])C([H])([H])[H])C([H])([H])[H])C(C([H])([H])[H])(C([H])([H])[H])C([H])([H])[H])C([H])(C(=O)N([H])C1([H])c3c([H])c([H])c([H])c([H])c3C([H])([H])C([H])([H])C1([H])[H])C2([H])[H])C([H])([H])[H])C([H])([H])C([H])([H])[N+]([H])([H])C([H])([H])C([H])([H])C(=O)N1C([H])([H])C([H])([H])C([H])([H])C([H])(n2nc(-c3c([H])c([H])c(Oc4c([H])c([H])c(F)c([H])c4F)c([H])c3[H])c(C(=O)N([H])[H])c2N([H])[H])C1([H])[H]

>  <smiles>  (70) 
[H]C(=C([H])C([H])(Oc1c([H])c([H])c2c(c1[H])C([H])([H])N(C(=O)C([H])(N([H])C(=O)C([H])(N([H])C([H])([H])[H])C([H])([H])[H])C(C([H])([H])[H])(C([H])([H])[H])C([H])([H])[H])C([H])(C(=O)N([H])C1([H])c3c([H])c([H])c([H])c([H])c3C([H])([H])C([H])([H])C1([H])[H])C2([H])[H])C([H])([H])[H])C([H])([H])C([H])([H])[N+]([H])([H])C([H])([H])C([H])([H])C(=O)N1C([H])([H])C([H])([H])C([H])([H])C([H])(n2nc(-c3c([H])c([H])c(Oc4c([H])c([H])c(F)c([H])c4F)c([H])c3[H])c(C(=O)N([H])[H])c2N([H])[H])C1([H])[H]

$$$$
70:0:0
     RDKit          3D

 98106  0  0  1  0  0  0  0  0999 V2000
  -28.0020  -22.3730   21.3430 C   0  0  0  0  0  0  0  0  0  0  0  0
  -28.0050  -20.9000   20.9510 C   0  0  0  0  0  2  0  0  0  0  0  0
  -29.3680  -22.2220   19.3520 C   0  0  0  0  0  2  0  0  0  0  0  0
  -28.8370  -23.2420   20.4170 C   0  0  0  0  0  3  0  0  0  0  0  0
  -28.8640  -20.7700   19.6830 C   0  0  0  0  0  3  0  0  0  0  0  0
  -27.3460  -22.7950   22.3000 O   0  0  0  0  0  0  0  0  0  0  0  0
  -29.9120  -18.4060   19.3990 C   0  0  0  0  0  0  0  0  0  0  0  0
  -28.9640  -17.9750   18.5480 N   0  0  0  0  0  4  0  0  0  0  0  0
  -29.9170  -19.7030   19.8460 N   0  0  0  0  0  0  0  0  0  0  0  0
  -29.0690  -17.0750   18.1050 H   0  0  0  0  0  0  0  0  0  0  0  0
  -28.2340  -18.5720   18.1900 H   0  0  0  0  0  0  0  0  0  0  0  0
  -30.6900  -19.9500   20.4520 H   0  0  0  0  0  0  0  0  0  0  0  0
  -30.9910  -17.3890   19.8220 C   0  0  0  0  0  3  0  0  0  0  0  0
  -31.2530  -14.8490   19.6620 C   0  0  0  0  0  0  0  0  0  0  0  0
  -30.9300  -12.5060   18.9270 C   0  0  0  0  0  2  0  0  0  0  0  0
  -29.9430  -12.4840   17.7410 C   0  0  0  0  0  2  0  0  0  0  0  0
  -28.4870  -12.4240   18.2450 C   0  0  0  0  0  2  0  0  0  0  0  0
  -28.1910  -13.4710   19.3510 C   0  0  0  0  0  3  0  0  0  0  0  0
  -29.2890  -13.4640   20.4380 C   0  0  0  0  0  2  0  0  0  0  0  0
  -30.5820  -13.6650   19.7660 N   0  0  0  0  0  0  0  0  0  0  0  0
  -32.4050  -14.9090   19.2260 O   0  0  0  0  0  0  0  0  0  0  0  0
  -30.5230  -15.9730   19.8760 N   0  0  0  0  0  0  0  0  0  0  0  0
  -29.5730  -15.8390   20.1860 H   0  0  0  0  0  0  0  0  0  0  0  0
  -25.9210  -14.2500   20.2730 C   0  0  0  0  0  0  0  0  0  0  0  0
  -24.8150  -13.5580   20.6860 C   0  0  0  0  0  0  0  0  0  0  0  0
  -25.1440  -12.1730   20.5560 C   0  0  0  0  0  0  0  0  0  0  0  0
  -26.8590  -13.2920   19.9230 N   0  0  0  0  0  0  0  0  0  0  0  0
  -26.4000  -12.0350   20.1530 N   0  0  0  0  0  0  0  0  0  0  0  0
  -24.3150  -10.9750   20.7350 C   0  0  0  0  0  0  0  0  0  0  0  0
  -24.6930   -9.9440   21.6250 C   0  0  0  0  0  3  0  0  0  0  0  0
  -23.8700   -8.8090   21.7930 C   0  0  0  0  0  3  0  0  0  0  0  0
  -22.6570   -8.6980   21.0720 C   0  0  0  0  0  0  0  0  0  0  0  0
  -22.2980   -9.7150   20.1710 C   0  0  0  0  0  3  0  0  0  0  0  0
  -23.1210  -10.8410   19.9990 C   0  0  0  0  0  3  0  0  0  0  0  0
  -21.8080   -7.6210   21.1530 O   0  0  0  0  0  0  0  0  0  0  0  0
  -21.6630   -6.9050   22.3150 C   0  0  0  0  0  0  0  0  0  0  0  0
  -21.2350   -7.5130   23.5160 C   0  0  0  0  0  3  0  0  0  0  0  0
  -21.0290   -6.7260   24.6670 C   0  0  0  0  0  3  0  0  0  0  0  0
  -21.2460   -5.3360   24.6190 C   0  0  0  0  0  0  0  0  0  0  0  0
  -21.6700   -4.7310   23.4240 C   0  0  0  0  0  3  0  0  0  0  0  0
  -21.8750   -5.5140   22.2740 C   0  0  0  0  0  0  0  0  0  0  0  0
  -22.2610   -4.9220   21.1170 F   0  0  0  0  0  0  0  0  0  0  0  0
  -21.0420   -4.5780   25.7230 F   0  0  0  0  0  0  0  0  0  0  0  0
  -23.4920  -14.1440   21.0810 C   0  0  0  0  0  0  0  0  0  0  0  0
  -22.7760  -13.4870   21.9850 N   0  0  0  0  0  0  0  0  0  0  0  0
  -23.1040  -15.2180   20.6210 O   0  0  0  0  0  0  0  0  0  0  0  0
  -23.1050  -12.6180   22.3790 H   0  0  0  0  0  0  0  0  0  0  0  0
  -21.8910  -13.8610   22.2960 H   0  0  0  0  0  0  0  0  0  0  0  0
  -26.1860  -15.6120   20.1420 N   0  0  0  0  0  0  0  0  0  0  0  0
  -25.4490  -16.2970   20.2720 H   0  0  0  0  0  0  0  0  0  0  0  0
  -27.0130  -16.0010   19.7100 H   0  0  0  0  0  0  0  0  0  0  0  0
  -30.5570  -17.5920   22.3680 C   0  0  0  0  0  1  0  0  0  0  0  0
  -31.5500  -17.7900   21.2060 C   0  0  0  0  0  2  0  0  0  0  0  0
  -27.9160  -24.3480   19.9900 N   0  0  0  0  0  4  0  0  0  0  0  0
  -27.5150  -24.6760   20.8550 H   0  0  0  0  0  0  0  0  0  0  0  0
  -27.1520  -23.9430   19.4740 H   0  0  0  0  0  0  0  0  0  0  0  0
  -28.5220  -25.6150   19.1740 C   0  0  0  0  0  2  0  0  0  0  0  0
  -28.3990  -26.8190   19.9340 O   0  0  0  0  0  0  0  0  0  0  0  0
  -24.6830  -31.9100   23.2900 C   0  0  0  0  0  0  0  0  0  0  0  0
  -27.2270  -27.5700   19.9300 C   0  0  0  0  0  0  0  0  0  0  0  0
  -23.4340  -30.5950   21.6100 C   0  0  0  0  0  3  0  0  0  0  0  0
  -24.8450  -29.1210   20.0740 C   0  0  0  0  0  0  0  0  0  0  0  0
  -25.9620  -30.9370   21.3790 C   0  0  0  0  0  2  0  0  0  0  0  0
  -26.0200  -29.5960   20.6670 C   0  0  0  0  0  0  0  0  0  0  0  0
  -27.2080  -28.8250   20.5940 C   0  0  0  0  0  3  0  0  0  0  0  0
  -26.0290  -27.1290   19.3210 C   0  0  0  0  0  3  0  0  0  0  0  0
  -24.8460  -27.8900   19.3970 C   0  0  0  0  0  3  0  0  0  0  0  0
  -23.6090  -29.9860   20.1940 C   0  0  0  0  0  2  0  0  0  0  0  0
  -24.7130  -31.1610   22.1500 N   0  0  0  0  0  0  0  0  0  0  0  0
  -23.6150  -32.1590   23.8670 O   0  0  0  0  0  0  0  0  0  0  0  0
  -22.7970  -29.5320   22.5340 C   0  0  0  0  0  0  0  0  0  0  0  0
  -21.4830  -29.3040   22.3720 N   0  0  0  0  0  0  0  0  0  0  0  0
  -23.4820  -28.9150   23.3540 O   0  0  0  0  0  0  0  0  0  0  0  0
  -20.9900  -29.8550   21.6830 H   0  0  0  0  0  0  0  0  0  0  0  0
  -18.1650  -27.9060   22.6890 C   0  0  0  0  0  0  0  0  0  0  0  0
  -20.6820  -28.3220   23.1020 C   0  0  0  0  0  3  0  0  0  0  0  0
  -20.9060  -26.8980   22.5430 C   0  0  0  0  0  2  0  0  0  0  0  0
  -19.8850  -26.5040   21.4710 C   0  0  0  0  0  2  0  0  0  0  0  0
  -18.4630  -26.5670   22.0360 C   0  0  0  0  0  2  0  0  0  0  0  0
  -19.2090  -28.7360   23.1760 C   0  0  0  0  0  0  0  0  0  0  0  0
  -18.8810  -29.9870   23.7440 C   0  0  0  0  0  3  0  0  0  0  0  0
  -17.5410  -30.4090   23.8300 C   0  0  0  0  0  3  0  0  0  0  0  0
  -16.5100  -29.5760   23.3610 C   0  0  0  0  0  3  0  0  0  0  0  0
  -16.8240  -28.3260   22.7980 C   0  0  0  0  0  3  0  0  0  0  0  0
  -25.9860  -32.5020   23.9110 C   0  0  0  0  0  3  0  0  0  0  0  0
  -25.7070  -33.8990   24.2740 N   0  0  0  0  0  0  0  0  0  0  0  0
  -26.0310  -34.9600   23.5220 C   0  0  0  0  0  0  0  0  0  0  0  0
  -26.6670  -34.8640   22.4690 O   0  0  0  0  0  0  0  0  0  0  0  0
  -25.1410  -34.0500   25.0950 H   0  0  0  0  0  0  0  0  0  0  0  0
  -24.2990  -36.7670   23.2660 C   0  0  0  0  0  1  0  0  0  0  0  0
  -25.5750  -36.3460   24.0150 C   0  0  0  0  0  3  0  0  0  0  0  0
  -27.7480  -37.2130   24.7570 C   0  0  0  0  0  1  0  0  0  0  0  0
  -26.6080  -37.3940   23.8630 N   0  0  0  0  0  0  0  0  0  0  0  0
  -26.2130  -38.3160   24.0350 H   0  0  0  0  0  0  0  0  0  0  0  0
  -26.5010  -31.6950   25.1670 C   0  0  1  0  0  0  0  0  0  0  0  0
  -25.4050  -31.4310   26.2270 C   0  0  0  0  0  1  0  0  0  0  0  0
  -27.0790  -30.3270   24.7370 C   0  0  0  0  0  1  0  0  0  0  0  0
  -27.6520  -32.4680   25.8520 C   0  0  0  0  0  1  0  0  0  0  0  0
  1  6  2  0
  2  1  1  0
  3  5  1  0
  3  4  1  0
  4 54  1  0
  4  1  1  0
  5  9  1  0
  5  2  1  0
  7 13  1  0
  7  9  1  0
  8  7  2  0
  9 12  1  0
 10  8  1  0
 11  8  1  0
 13 22  1  0
 13 53  1  0
 14 20  1  0
 14 22  1  0
 15 20  1  0
 16 17  1  0
 16 15  1  0
 18 17  1  0
 18 27  1  0
 18 19  1  0
 20 19  1  0
 21 14  2  0
 22 23  1  0
 24 25  2  0
 25 44  1  0
 26 25  1  0
 26 29  1  0
 27 28  1  0
 27 24  1  0
 28 26  2  0
 29 30  1  0
 30 31  2  0
 32 35  1  0
 32 31  1  0
 33 32  2  0
 34 33  1  0
 34 29  2  0
 35 36  1  0
 36 37  1  0
 37 38  2  0
 39 38  1  0
 39 43  1  0
 40 39  2  0
 41 36  2  0
 41 40  1  0
 42 41  1  0
 44 45  1  0
 45 48  1  0
 45 47  1  0
 46 44  2  0
 49 50  1  0
 49 24  1  0
 51 49  1  0
 53 52  1  0
 54 55  1  0
 56 54  1  0
 57 58  1  0
 57 54  1  0
 59 70  2  0
 60 58  1  0
 60 65  1  0
 61 69  1  0
 61 71  1  0
 62 68  1  0
 62 64  1  0
 63 69  1  0
 64 63  1  0
 65 64  2  0
 66 67  1  0
 66 60  2  0
 67 62  2  0
 68 61  1  0
 69 59  1  0
 71 73  2  0
 72 71  1  0
 74 72  1  0
 75 84  2  0
 75 80  1  0
 76 72  1  0
 76 80  1  0
 77 76  1  0
 78 79  1  0
 78 77  1  0
 79 75  1  0
 80 81  2  0
 81 82  1  0
 83 82  2  0
 84 83  1  0
 85 59  1  0
 85 86  1  0
 85 95  1  0
 86 89  1  0
 87 91  1  0
 87 86  1  0
 88 87  2  0
 91 90  1  0
 93 91  1  0
 93 94  1  0
 93 92  1  0
 95 98  1  1
 95 96  1  0
 97 95  1  0
M  ISO  4  14 100  22 100  57 101  58 101
M  END
>  <TORSDO>  (71) 
F 21

>  <SCORE>  (71) 
-12.471

>  <name>  (71) 
70

>  <ligand_id>  (71) 
70

>  <original_smiles>  (71) 
[H]c1c([H])c([H])c2c(c1[H])C([H])([H])C([H])([H])C([H])([H])C2([H])N([H])C(=O)C1([H])N(C(=O)C([H])(N([H])C(=O)C([H])(N([H])C([H])([H])[H])C([H])([H])[H])C(C([H])([H])[H])(C([H])([H])[H])C([H])([H])[H])C([H])([H])c2c([H])c(OC([H])([H])[N+]([H])([H])C3([H])C(=O)C([H])([H])C([H])([N+]([H])=C(N([H])[H])C([H])(N([H])C(=O)N4C([H])([H])C([H])([H])C([H])([H])C([H])(n5nc(-c6c([H])c([H])c(Oc7c([H])c([H])c(F)c([H])c7F)c([H])c6[H])c(C(=O)N([H])[H])c5N([H])[H])C4([H])[H])C([H])([H])C([H])([H])[H])C3([H])[H])c([H])c([H])c2C1([H])[H]

>  <smiles>  (71) 
[H]c1c([H])c([H])c2c(c1[H])C([H])([H])C([H])([H])C([H])([H])C2([H])N([H])C(=O)C1([H])N(C(=O)C([H])(N([H])C(=O)C([H])(N([H])C([H])([H])[H])C([H])([H])[H])C(C([H])([H])[H])(C([H])([H])[H])C([H])([H])[H])C([H])([H])c2c([H])c(OC([H])([H])[N+]([H])([H])C3([H])C(=O)C([H])([H])C([H])([N+]([H])=C(N([H])[H])C([H])(N([H])C(=O)N4C([H])([H])C([H])([H])C([H])([H])C([H])(n5nc(-c6c([H])c([H])c(Oc7c([H])c([H])c(F)c([H])c7F)c([H])c6[H])c(C(=O)N([H])[H])c5N([H])[H])C4([H])[H])C([H])([H])C([H])([H])[H])C3([H])[H])c([H])c([H])c2C1([H])[H]

$$$$
71:0:0
     RDKit          3D

 88 96  0  0  1  0  0  0  0  0999 V2000
  -30.1050  -20.1330   22.5770 C   0  0  0  0  0  3  0  0  0  0  0  0
  -29.8520  -21.6900   20.2700 C   0  0  0  0  0  0  0  0  0  0  0  0
  -29.4400  -23.1420   20.1690 C   0  0  0  0  0  3  0  0  0  0  0  0
  -31.3480  -20.9410   22.1730 C   0  0  0  0  0  2  0  0  0  0  0  0
  -31.3030  -21.5570   20.7480 C   0  0  0  0  0  2  0  0  0  0  0  0
  -29.3690  -19.9790   20.3510 C   0  0  0  0  0  3  0  0  0  0  0  0
  -29.1670  -19.7670   21.7820 N   0  0  0  0  0  0  0  0  0  0  0  0
  -30.1720  -18.3900   19.8830 C   0  0  0  0  0  0  0  0  0  0  0  0
  -31.3030  -18.6650   18.9070 C   0  0  0  0  0  1  0  0  0  0  0  0
  -29.9500  -17.0140   20.2210 N   0  0  0  0  0  0  0  0  0  0  0  0
  -30.7210  -15.6860   19.8880 C   0  0  0  0  0  0  0  0  0  0  0  0
  -30.7040  -13.2090   19.0350 C   0  0  0  0  0  2  0  0  0  0  0  0
  -29.7380  -12.9740   17.8390 C   0  0  0  0  0  2  0  0  0  0  0  0
  -28.3120  -12.6690   18.3260 C   0  0  0  0  0  2  0  0  0  0  0  0
  -27.8890  -13.6030   19.4890 C   0  0  0  0  0  3  0  0  0  0  0  0
  -28.9890  -13.7960   20.5590 C   0  0  0  0  0  2  0  0  0  0  0  0
  -30.1830  -14.3490   19.8920 N   0  0  0  0  0  0  0  0  0  0  0  0
  -31.8960  -15.6620   19.5000 O   0  0  0  0  0  0  0  0  0  0  0  0
  -25.5750  -14.0830   20.4370 C   0  0  0  0  0  0  0  0  0  0  0  0
  -24.5460  -13.2800   20.8380 C   0  0  0  0  0  0  0  0  0  0  0  0
  -25.0180  -11.9360   20.7110 C   0  0  0  0  0  0  0  0  0  0  0  0
  -26.6050  -13.2330   20.0710 N   0  0  0  0  0  0  0  0  0  0  0  0
  -26.2870  -11.9320   20.3000 N   0  0  0  0  0  0  0  0  0  0  0  0
  -24.3120  -10.6610   20.8950 C   0  0  0  0  0  0  0  0  0  0  0  0
  -24.7220   -9.7220   21.8680 C   0  0  0  0  0  3  0  0  0  0  0  0
  -24.0120   -8.5120   22.0410 C   0  0  0  0  0  3  0  0  0  0  0  0
  -22.8770   -8.2360   21.2450 C   0  0  0  0  0  0  0  0  0  0  0  0
  -22.4840   -9.1660   20.2650 C   0  0  0  0  0  3  0  0  0  0  0  0
  -23.1940  -10.3650   20.0900 C   0  0  0  0  0  3  0  0  0  0  0  0
  -22.1440   -7.0770   21.3210 O   0  0  0  0  0  0  0  0  0  0  0  0
  -21.9350   -6.4350   22.5160 C   0  0  0  0  0  0  0  0  0  0  0  0
  -21.2550   -7.0570   23.5860 C   0  0  0  0  0  3  0  0  0  0  0  0
  -20.9970   -6.3360   24.7700 C   0  0  0  0  0  3  0  0  0  0  0  0
  -21.4140   -4.9970   24.8850 C   0  0  0  0  0  0  0  0  0  0  0  0
  -22.0900   -4.3760   23.8180 C   0  0  0  0  0  3  0  0  0  0  0  0
  -22.3470   -5.0930   22.6370 C   0  0  0  0  0  0  0  0  0  0  0  0
  -22.9800   -4.4840   21.6050 F   0  0  0  0  0  0  0  0  0  0  0  0
  -21.1610   -4.3030   26.0180 F   0  0  0  0  0  0  0  0  0  0  0  0
  -23.1680  -13.7340   21.2240 C   0  0  0  0  0  0  0  0  0  0  0  0
  -22.5060  -13.0070   22.1150 N   0  0  0  0  0  0  0  0  0  0  0  0
  -22.6900  -14.7720   20.7690 O   0  0  0  0  0  0  0  0  0  0  0  0
  -22.9120  -12.1730   22.5130 H   0  0  0  0  0  0  0  0  0  0  0  0
  -21.5860  -13.3010   22.4110 H   0  0  0  0  0  0  0  0  0  0  0  0
  -25.7150  -15.4620   20.3230 N   0  0  0  0  0  0  0  0  0  0  0  0
  -24.9660  -16.1030   20.5630 H   0  0  0  0  0  0  0  0  0  0  0  0
  -26.5550  -15.9340   20.0100 H   0  0  0  0  0  0  0  0  0  0  0  0
  -28.2300  -24.4170   20.0550 C   0  0  0  0  0  2  0  0  0  0  0  0
  -28.4040  -26.0850   20.1210 O   0  0  0  0  0  0  0  0  0  0  0  0
  -24.7290  -31.9370   23.3080 C   0  0  0  0  0  0  0  0  0  0  0  0
  -27.3600  -27.1770   20.1040 C   0  0  0  0  0  0  0  0  0  0  0  0
  -23.5590  -30.5980   21.6060 C   0  0  0  0  0  3  0  0  0  0  0  0
  -25.0310  -29.0610   20.1250 C   0  0  0  0  0  0  0  0  0  0  0  0
  -26.1280  -30.8300   21.4820 C   0  0  0  0  0  2  0  0  0  0  0  0
  -26.2150  -29.4450   20.7650 C   0  0  0  0  0  0  0  0  0  0  0  0
  -27.3730  -28.5340   20.7140 C   0  0  0  0  0  3  0  0  0  0  0  0
  -26.1360  -26.9510   19.4240 C   0  0  0  0  0  3  0  0  0  0  0  0
  -25.0220  -27.8380   19.4310 C   0  0  0  0  0  3  0  0  0  0  0  0
  -23.8030  -29.9730   20.2040 C   0  0  0  0  0  2  0  0  0  0  0  0
  -24.8260  -31.1490   22.1850 N   0  0  0  0  0  0  0  0  0  0  0  0
  -23.6330  -32.1930   23.8320 O   0  0  0  0  0  0  0  0  0  0  0  0
  -22.8630  -29.5600   22.5280 C   0  0  0  0  0  0  0  0  0  0  0  0
  -21.5460  -29.3380   22.3460 N   0  0  0  0  0  0  0  0  0  0  0  0
  -23.5190  -28.9550   23.3790 O   0  0  0  0  0  0  0  0  0  0  0  0
  -21.0670  -29.8790   21.6390 H   0  0  0  0  0  0  0  0  0  0  0  0
  -18.2120  -27.9400   22.6800 C   0  0  0  0  0  0  0  0  0  0  0  0
  -20.7370  -28.3520   23.0720 C   0  0  0  0  0  3  0  0  0  0  0  0
  -20.9470  -26.9300   22.5000 C   0  0  0  0  0  2  0  0  0  0  0  0
  -19.9180  -26.5520   21.4290 C   0  0  0  0  0  2  0  0  0  0  0  0
  -18.5000  -26.6110   22.0030 C   0  0  0  0  0  2  0  0  0  0  0  0
  -19.2610  -28.7640   23.1690 C   0  0  0  0  0  0  0  0  0  0  0  0
  -18.9350  -30.0000   23.7670 C   0  0  0  0  0  3  0  0  0  0  0  0
  -17.5950  -30.4170   23.8760 C   0  0  0  0  0  3  0  0  0  0  0  0
  -16.5610  -29.5930   23.4000 C   0  0  0  0  0  3  0  0  0  0  0  0
  -16.8690  -28.3540   22.8100 C   0  0  0  0  0  3  0  0  0  0  0  0
  -25.9870  -32.5650   23.9770 C   0  0  0  0  0  3  0  0  0  0  0  0
  -25.6790  -33.9750   24.2920 N   0  0  0  0  0  0  0  0  0  0  0  0
  -25.9840  -35.0190   23.5130 C   0  0  0  0  0  0  0  0  0  0  0  0
  -26.6150  -34.9030   22.4610 O   0  0  0  0  0  0  0  0  0  0  0  0
  -25.1130  -34.1390   25.1120 H   0  0  0  0  0  0  0  0  0  0  0  0
  -24.2160  -36.7960   23.2520 C   0  0  0  0  0  1  0  0  0  0  0  0
  -25.5190  -36.4180   23.9740 C   0  0  0  0  0  3  0  0  0  0  0  0
  -27.6880  -37.3630   24.6350 C   0  0  0  0  0  1  0  0  0  0  0  0
  -26.5290  -37.4780   23.7560 N   0  0  0  0  0  0  0  0  0  0  0  0
  -26.1190  -38.4000   23.8880 H   0  0  0  0  0  0  0  0  0  0  0  0
  -26.4410  -31.8070   25.2870 C   0  0  1  0  0  0  0  0  0  0  0  0
  -25.2980  -31.5890   26.3080 C   0  0  0  0  0  1  0  0  0  0  0  0
  -27.0270  -30.4190   24.9480 C   0  0  0  0  0  1  0  0  0  0  0  0
  -27.5680  -32.6030   25.9880 C   0  0  0  0  0  1  0  0  0  0  0  0
  2  6  1  0
  2  5  1  0
  3  2  2  0
  4  1  1  0
  5  4  1  0
  6  8  1  0
  6  7  1  0
  7  1  2  0
  8 10  2  0
  9  8  1  0
 11 17  1  0
 11 10  1  0
 12 17  1  0
 13 14  1  0
 13 12  1  0
 15 14  1  0
 15 22  1  0
 15 16  1  0
 17 16  1  0
 18 11  2  0
 19 20  2  0
 20 39  1  0
 21 20  1  0
 21 24  1  0
 22 23  1  0
 22 19  1  0
 23 21  2  0
 24 25  1  0
 25 26  2  0
 27 30  1  0
 27 26  1  0
 28 27  2  0
 29 28  1  0
 29 24  2  0
 30 31  1  0
 31 36  2  0
 31 32  1  0
 32 33  2  0
 33 34  1  0
 34 38  1  0
 35 34  2  0
 36 35  1  0
 37 36  1  0
 39 40  1  0
 40 43  1  0
 40 42  1  0
 41 39  2  0
 44 19  1  0
 44 45  1  0
 46 44  1  0
 47 48  1  0
 47  3  1  0
 49 60  2  0
 50 48  1  0
 50 55  1  0
 51 59  1  0
 51 61  1  0
 52 58  1  0
 52 54  1  0
 53 59  1  0
 54 53  1  0
 55 54  2  0
 56 57  1  0
 56 50  2  0
 57 52  2  0
 58 51  1  0
 59 49  1  0
 61 63  2  0
 62 61  1  0
 64 62  1  0
 65 74  2  0
 65 70  1  0
 66 62  1  0
 66 70  1  0
 67 66  1  0
 68 69  1  0
 68 67  1  0
 69 65  1  0
 70 71  2  0
 71 72  1  0
 73 72  2  0
 74 73  1  0
 75 49  1  0
 75 76  1  0
 75 85  1  0
 76 79  1  0
 77 81  1  0
 77 76  1  0
 78 77  2  0
 81 80  1  0
 83 84  1  0
 83 81  1  0
 83 82  1  0
 85 88  1  1
 85 86  1  0
 87 85  1  0
M  ISO  4  10 100  11 100  47 101  48 101
M  END
>  <TORSDO>  (72) 
F 18

>  <SCORE>  (72) 
-14.358

>  <name>  (72) 
71

>  <ligand_id>  (72) 
71

>  <original_smiles>  (72) 
[H]C1=NC([H])(C(=NC(=O)N2C([H])([H])C([H])([H])C([H])([H])C([H])(n3nc(-c4c([H])c([H])c(Oc5c([H])c([H])c(F)c([H])c5F)c([H])c4[H])c(C(=O)N([H])[H])c3N([H])[H])C2([H])[H])C([H])([H])[H])C(=C([H])C([H])([H])Oc2c([H])c([H])c3c(c2[H])C([H])([H])N(C(=O)C([H])(N([H])C(=O)C([H])(N([H])C([H])([H])[H])C([H])([H])[H])C(C([H])([H])[H])(C([H])([H])[H])C([H])([H])[H])C([H])(C(=O)N([H])C2([H])c4c([H])c([H])c([H])c([H])c4C([H])([H])C([H])([H])C2([H])[H])C3([H])[H])C([H])([H])C1([H])[H]

>  <smiles>  (72) 
[H]C1=NC([H])(C(=NC(=O)N2C([H])([H])C([H])([H])C([H])([H])C([H])(n3nc(-c4c([H])c([H])c(Oc5c([H])c([H])c(F)c([H])c5F)c([H])c4[H])c(C(=O)N([H])[H])c3N([H])[H])C2([H])[H])C([H])([H])[H])C(=C([H])C([H])([H])Oc2c([H])c([H])c3c(c2[H])C([H])([H])N(C(=O)C([H])(N([H])C(=O)C([H])(N([H])C([H])([H])[H])C([H])([H])[H])C(C([H])([H])[H])(C([H])([H])[H])C([H])([H])[H])C([H])(C(=O)N([H])C2([H])c4c([H])c([H])c([H])c([H])c4C([H])([H])C([H])([H])C2([H])[H])C3([H])[H])C([H])([H])C1([H])[H]

$$$$
72:0:0
     RDKit          3D

 86 93  0  0  1  0  0  0  0  0999 V2000
  -28.9550  -22.7710   18.5490 C   0  0  0  0  0  3  0  0  0  0  0  0
  -28.6820  -22.6790   19.8690 C   0  0  0  0  0  0  0  0  0  0  0  0
  -28.7580  -23.9660   17.6340 C   0  0  0  0  0  1  0  0  0  0  0  0
  -29.0210  -21.1190   20.3690 C   0  0  0  0  0  2  0  0  0  0  0  0
  -28.8600  -19.6470   20.1270 C   0  0  0  0  0  3  0  0  0  0  0  0
  -27.5180  -19.2400   19.5260 C   0  0  0  0  0  1  0  0  0  0  0  0
  -29.5070  -16.9320   20.2810 C   0  0  0  0  0  3  0  0  0  0  0  0
  -29.7580  -18.3480   20.3000 N   0  0  0  0  0  0  0  0  0  0  0  0
  -30.3950  -15.3570   20.2290 C   0  0  0  0  0  0  0  0  0  0  0  0
  -30.3960  -12.8850   19.3860 C   0  0  0  0  0  2  0  0  0  0  0  0
  -29.4870  -12.6450   18.1520 C   0  0  0  0  0  2  0  0  0  0  0  0
  -28.0400  -12.3560   18.5880 C   0  0  0  0  0  2  0  0  0  0  0  0
  -27.5710  -13.3290   19.6970 C   0  0  0  0  0  3  0  0  0  0  0  0
  -28.6090  -13.5170   20.8200 C   0  0  0  0  0  2  0  0  0  0  0  0
  -29.8380  -14.0360   20.1970 N   0  0  0  0  0  0  0  0  0  0  0  0
  -31.6220  -15.3360   20.0310 O   0  0  0  0  0  0  0  0  0  0  0  0
  -25.2010  -13.8690   20.4570 C   0  0  0  0  0  0  0  0  0  0  0  0
  -24.1460  -13.0860   20.8280 C   0  0  0  0  0  0  0  0  0  0  0  0
  -24.6220  -11.7390   20.8040 C   0  0  0  0  0  0  0  0  0  0  0  0
  -26.2480  -13.0010   20.2120 N   0  0  0  0  0  0  0  0  0  0  0  0
  -25.9140  -11.7140   20.4910 N   0  0  0  0  0  0  0  0  0  0  0  0
  -23.9020  -10.4730   20.9980 C   0  0  0  0  0  0  0  0  0  0  0  0
  -24.3340   -9.5120   21.9390 C   0  0  0  0  0  3  0  0  0  0  0  0
  -23.6110   -8.3140   22.1220 C   0  0  0  0  0  3  0  0  0  0  0  0
  -22.4420   -8.0670   21.3640 C   0  0  0  0  0  0  0  0  0  0  0  0
  -22.0290   -9.0160   20.4120 C   0  0  0  0  0  3  0  0  0  0  0  0
  -22.7530  -10.2050   20.2270 C   0  0  0  0  0  3  0  0  0  0  0  0
  -21.6910   -6.9200   21.4570 O   0  0  0  0  0  0  0  0  0  0  0  0
  -21.6360   -6.1860   22.6140 C   0  0  0  0  0  0  0  0  0  0  0  0
  -21.1830   -6.7440   23.8290 C   0  0  0  0  0  3  0  0  0  0  0  0
  -21.0760   -5.9360   24.9790 C   0  0  0  0  0  3  0  0  0  0  0  0
  -21.4130   -4.5710   24.9140 C   0  0  0  0  0  0  0  0  0  0  0  0
  -21.8600   -4.0120   23.7040 C   0  0  0  0  0  3  0  0  0  0  0  0
  -21.9670   -4.8180   22.5560 C   0  0  0  0  0  0  0  0  0  0  0  0
  -22.3780   -4.2690   21.3870 F   0  0  0  0  0  0  0  0  0  0  0  0
  -21.3050   -3.7920   26.0160 F   0  0  0  0  0  0  0  0  0  0  0  0
  -22.7450  -13.5550   21.0900 C   0  0  0  0  0  0  0  0  0  0  0  0
  -22.0180  -12.8620   21.9580 N   0  0  0  0  0  0  0  0  0  0  0  0
  -22.3040  -14.5750   20.5600 O   0  0  0  0  0  0  0  0  0  0  0  0
  -22.3880  -12.0380   22.4090 H   0  0  0  0  0  0  0  0  0  0  0  0
  -21.0770  -13.1600   22.1780 H   0  0  0  0  0  0  0  0  0  0  0  0
  -25.3540  -15.2420   20.2740 N   0  0  0  0  0  0  0  0  0  0  0  0
  -24.5770  -15.8840   20.3730 H   0  0  0  0  0  0  0  0  0  0  0  0
  -26.1880  -15.6850   19.9140 H   0  0  0  0  0  0  0  0  0  0  0  0
  -28.0380  -24.1700   20.5710 C   0  0  0  0  0  2  0  0  0  0  0  0
  -28.2430  -25.7970   20.2360 O   0  0  0  0  0  0  0  0  0  0  0  0
  -24.6480  -31.8310   23.1940 C   0  0  0  0  0  0  0  0  0  0  0  0
  -27.2260  -26.9050   20.2320 C   0  0  0  0  0  0  0  0  0  0  0  0
  -23.4670  -30.4220   21.5570 C   0  0  0  0  0  3  0  0  0  0  0  0
  -24.9280  -28.8050   20.1560 C   0  0  0  0  0  0  0  0  0  0  0  0
  -26.0350  -30.6300   21.4240 C   0  0  0  0  0  2  0  0  0  0  0  0
  -26.1140  -29.2110   20.7810 C   0  0  0  0  0  0  0  0  0  0  0  0
  -27.2590  -28.2860   20.7860 C   0  0  0  0  0  3  0  0  0  0  0  0
  -26.0060  -26.6590   19.5630 C   0  0  0  0  0  3  0  0  0  0  0  0
  -24.9010  -27.5510   19.5250 C   0  0  0  0  0  3  0  0  0  0  0  0
  -23.7090  -29.7280   20.1880 C   0  0  0  0  0  2  0  0  0  0  0  0
  -24.7380  -30.9890   22.1120 N   0  0  0  0  0  0  0  0  0  0  0  0
  -23.5540  -32.1210   23.7060 O   0  0  0  0  0  0  0  0  0  0  0  0
  -22.7660  -29.4320   22.5250 C   0  0  0  0  0  0  0  0  0  0  0  0
  -21.4350  -29.2770   22.4030 N   0  0  0  0  0  0  0  0  0  0  0  0
  -23.4290  -28.8050   23.3550 O   0  0  0  0  0  0  0  0  0  0  0  0
  -20.9540  -29.8320   21.7090 H   0  0  0  0  0  0  0  0  0  0  0  0
  -18.0450  -28.0880   22.9220 C   0  0  0  0  0  0  0  0  0  0  0  0
  -20.6080  -28.3430   23.1740 C   0  0  0  0  0  3  0  0  0  0  0  0
  -20.7000  -26.9110   22.5950 C   0  0  0  0  0  2  0  0  0  0  0  0
  -19.5910  -26.5970   21.5860 C   0  0  0  0  0  2  0  0  0  0  0  0
  -18.2130  -26.7420   22.2370 C   0  0  0  0  0  2  0  0  0  0  0  0
  -19.1690  -28.8460   23.3480 C   0  0  0  0  0  0  0  0  0  0  0  0
  -18.9550  -30.1030   23.9520 C   0  0  0  0  0  3  0  0  0  0  0  0
  -17.6520  -30.6040   24.1330 C   0  0  0  0  0  3  0  0  0  0  0  0
  -16.5440  -29.8450   23.7210 C   0  0  0  0  0  3  0  0  0  0  0  0
  -16.7410  -28.5880   23.1210 C   0  0  0  0  0  3  0  0  0  0  0  0
  -25.9100  -32.4810   23.8320 C   0  0  0  0  0  3  0  0  0  0  0  0
  -26.4100  -31.7220   25.1240 C   0  0  1  0  0  0  0  0  0  0  0  0
  -25.3030  -31.4940   26.1800 C   0  0  0  0  0  1  0  0  0  0  0  0
  -26.9990  -30.3400   24.7600 C   0  0  0  0  0  1  0  0  0  0  0  0
  -27.5500  -32.5230   25.7930 C   0  0  0  0  0  1  0  0  0  0  0  0
  -25.5840  -33.8810   24.1630 N   0  0  0  0  0  0  0  0  0  0  0  0
  -25.9200  -34.9440   23.4210 C   0  0  0  0  0  0  0  0  0  0  0  0
  -26.5980  -34.8510   22.3960 O   0  0  0  0  0  0  0  0  0  0  0  0
  -24.9790  -34.0230   24.9580 H   0  0  0  0  0  0  0  0  0  0  0  0
  -24.1940  -36.7470   23.0750 C   0  0  0  0  0  1  0  0  0  0  0  0
  -25.4290  -36.3310   23.8900 C   0  0  0  0  0  3  0  0  0  0  0  0
  -27.5560  -37.2160   24.7460 C   0  0  0  0  0  1  0  0  0  0  0  0
  -26.4620  -37.3860   23.7930 N   0  0  0  0  0  0  0  0  0  0  0  0
  -26.0530  -38.3050   23.9400 H   0  0  0  0  0  0  0  0  0  0  0  0
  1  2  2  0
  2  4  1  0
  2 45  1  0
  3  1  1  0
  5  6  1  0
  5  8  1  0
  5  4  1  0
  7  8  2  0
  9  7  1  0
 10 15  1  0
 11 12  1  0
 11 10  1  0
 13 12  1  0
 13 20  1  0
 13 14  1  0
 15  9  1  0
 15 14  1  0
 16  9  2  0
 17 18  2  0
 18 37  1  0
 19 18  1  0
 19 22  1  0
 20 17  1  0
 20 21  1  0
 21 19  2  0
 22 23  1  0
 23 24  2  0
 25 28  1  0
 25 24  1  0
 26 25  2  0
 27 26  1  0
 27 22  2  0
 28 29  1  0
 29 30  1  0
 30 31  2  0
 32 31  1  0
 32 36  1  0
 33 32  2  0
 34 29  2  0
 34 33  1  0
 35 34  1  0
 37 38  1  0
 38 41  1  0
 38 40  1  0
 39 37  2  0
 42 43  1  0
 42 17  1  0
 44 42  1  0
 46 45  1  0
 47 58  2  0
 48 46  1  0
 48 53  1  0
 49 57  1  0
 49 59  1  0
 50 56  1  0
 50 52  1  0
 51 57  1  0
 52 53  2  0
 52 51  1  0
 54 48  2  0
 55 54  1  0
 55 50  2  0
 56 49  1  0
 57 47  1  0
 59 61  2  0
 60 59  1  0
 62 60  1  0
 63 72  2  0
 63 68  1  0
 64 60  1  0
 64 68  1  0
 65 64  1  0
 66 67  1  0
 66 65  1  0
 67 63  1  0
 68 69  2  0
 69 70  1  0
 71 70  2  0
 72 71  1  0
 73 47  1  0
 73 78  1  0
 73 74  1  0
 74 77  1  1
 74 75  1  0
 76 74  1  0
 78 81  1  0
 79 83  1  0
 79 78  1  0
 80 79  2  0
 83 82  1  0
 85 83  1  0
 85 86  1  0
 85 84  1  0
M  ISO  4   7 100   9 100  45 101  46 101
M  END
>  <TORSDO>  (73) 
F 19

>  <SCORE>  (73) 
-15.497

>  <name>  (73) 
72

>  <ligand_id>  (73) 
72

>  <original_smiles>  (73) 
[H]C(=NC(=C([H])C(=C([H])C([H])([H])[H])C([H])([H])Oc1c([H])c([H])c2c(c1[H])C([H])([H])N(C(=O)C([H])(N([H])C(=O)C([H])(N([H])C([H])([H])[H])C([H])([H])[H])C(C([H])([H])[H])(C([H])([H])[H])C([H])([H])[H])C([H])(C(=O)N([H])C1([H])c3c([H])c([H])c([H])c([H])c3C([H])([H])C([H])([H])C1([H])[H])C2([H])[H])C([H])([H])[H])C(=O)N1C([H])([H])C([H])([H])C([H])([H])C([H])(n2nc(-c3c([H])c([H])c(Oc4c([H])c([H])c(F)c([H])c4F)c([H])c3[H])c(C(=O)N([H])[H])c2N([H])[H])C1([H])[H]

>  <smiles>  (73) 
[H]C(=NC(=C([H])C(=C([H])C([H])([H])[H])C([H])([H])Oc1c([H])c([H])c2c(c1[H])C([H])([H])N(C(=O)C([H])(N([H])C(=O)C([H])(N([H])C([H])([H])[H])C([H])([H])[H])C(C([H])([H])[H])(C([H])([H])[H])C([H])([H])[H])C([H])(C(=O)N([H])C1([H])c3c([H])c([H])c([H])c([H])c3C([H])([H])C([H])([H])C1([H])[H])C2([H])[H])C([H])([H])[H])C(=O)N1C([H])([H])C([H])([H])C([H])([H])C([H])(n2nc(-c3c([H])c([H])c(Oc4c([H])c([H])c(F)c([H])c4F)c([H])c3[H])c(C(=O)N([H])[H])c2N([H])[H])C1([H])[H]

$$$$
73:0:0
     RDKit          3D

 91 98  0  0  1  0  0  0  0  0999 V2000
  -29.0230  -21.8370   20.3360 N   0  0  0  0  0  4  0  0  0  0  0  0
  -29.9000  -21.8740   19.8390 H   0  0  0  0  0  0  0  0  0  0  0  0
  -28.3120  -21.6960   19.6370 H   0  0  0  0  0  0  0  0  0  0  0  0
  -27.7240  -20.2090   21.7450 C   0  0  0  0  0  1  0  0  0  0  0  0
  -29.1010  -20.6000   21.1590 C   0  0  0  0  0  3  0  0  0  0  0  0
  -29.6950  -19.4480   20.3180 C   0  0  0  0  0  0  0  0  0  0  0  0
  -29.8920  -18.2550   20.9070 N   0  0  0  0  0  0  0  0  0  0  0  0
  -29.9900  -19.6470   19.1360 O   0  0  0  0  0  0  0  0  0  0  0  0
  -29.6490  -18.1670   21.8860 H   0  0  0  0  0  0  0  0  0  0  0  0
  -30.5070  -17.0930   20.2490 C   0  0  0  0  0  2  0  0  0  0  0  0
  -30.1210  -15.7360   20.8950 C   0  0  0  0  0  2  0  0  0  0  0  0
  -30.7420  -14.5320   20.1450 C   0  0  0  0  0  0  0  0  0  0  0  0
  -30.3590  -12.4240   18.9230 C   0  0  0  0  0  2  0  0  0  0  0  0
  -29.3670  -12.6970   17.7730 C   0  0  0  0  0  2  0  0  0  0  0  0
  -27.9120  -12.5720   18.2630 C   0  0  0  0  0  2  0  0  0  0  0  0
  -27.6500  -13.3600   19.5750 C   0  0  0  0  0  3  0  0  0  0  0  0
  -28.7500  -13.0700   20.6200 C   0  0  0  0  0  2  0  0  0  0  0  0
  -30.0510  -13.3700   20.0050 N   0  0  0  0  0  0  0  0  0  0  0  0
  -31.8350  -14.7050   19.5970 O   0  0  0  0  0  0  0  0  0  0  0  0
  -25.2830  -13.9750   20.3790 C   0  0  0  0  0  0  0  0  0  0  0  0
  -24.2280  -13.2050   20.7850 C   0  0  0  0  0  0  0  0  0  0  0  0
  -24.6810  -11.8510   20.7270 C   0  0  0  0  0  0  0  0  0  0  0  0
  -26.3150  -13.0910   20.1030 N   0  0  0  0  0  0  0  0  0  0  0  0
  -25.9570  -11.8080   20.3680 N   0  0  0  0  0  0  0  0  0  0  0  0
  -23.9580  -10.5900   20.9360 C   0  0  0  0  0  0  0  0  0  0  0  0
  -24.4170   -9.6190   21.8540 C   0  0  0  0  0  3  0  0  0  0  0  0
  -23.6940   -8.4220   22.0500 C   0  0  0  0  0  3  0  0  0  0  0  0
  -22.4980   -8.1900   21.3300 C   0  0  0  0  0  0  0  0  0  0  0  0
  -22.0580   -9.1480   20.4010 C   0  0  0  0  0  3  0  0  0  0  0  0
  -22.7810  -10.3370   20.2030 C   0  0  0  0  0  3  0  0  0  0  0  0
  -21.7420   -7.0460   21.4390 O   0  0  0  0  0  0  0  0  0  0  0  0
  -21.7170   -6.3080   22.5940 C   0  0  0  0  0  0  0  0  0  0  0  0
  -21.3260   -6.8700   23.8300 C   0  0  0  0  0  3  0  0  0  0  0  0
  -21.2480   -6.0580   24.9790 C   0  0  0  0  0  3  0  0  0  0  0  0
  -21.5490   -4.6850   24.8930 C   0  0  0  0  0  0  0  0  0  0  0  0
  -21.9350   -4.1230   23.6640 C   0  0  0  0  0  3  0  0  0  0  0  0
  -22.0140   -4.9320   22.5170 C   0  0  0  0  0  0  0  0  0  0  0  0
  -22.3660   -4.3820   21.3290 F   0  0  0  0  0  0  0  0  0  0  0  0
  -21.4650   -3.9020   25.9950 F   0  0  0  0  0  0  0  0  0  0  0  0
  -22.8450  -13.6850   21.1190 C   0  0  0  0  0  0  0  0  0  0  0  0
  -22.1520  -12.9850   22.0100 N   0  0  0  0  0  0  0  0  0  0  0  0
  -22.3890  -14.7140   20.6230 O   0  0  0  0  0  0  0  0  0  0  0  0
  -22.5360  -12.1520   22.4320 H   0  0  0  0  0  0  0  0  0  0  0  0
  -21.2240  -13.2860   22.2740 H   0  0  0  0  0  0  0  0  0  0  0  0
  -25.4480  -15.3470   20.2040 N   0  0  0  0  0  0  0  0  0  0  0  0
  -24.6940  -16.0090   20.3470 H   0  0  0  0  0  0  0  0  0  0  0  0
  -26.2930  -15.7800   19.8510 H   0  0  0  0  0  0  0  0  0  0  0  0
  -28.8060  -23.1130   21.0660 C   0  0  0  0  0  2  0  0  0  0  0  0
  -28.7820  -24.3570   20.1420 C   0  0  0  0  0  2  0  0  0  0  0  0
  -28.5070  -25.6630   20.9190 C   0  0  0  0  0  2  0  0  0  0  0  0
  -28.5130  -26.8210   20.0770 O   0  0  0  0  0  0  0  0  0  0  0  0
  -24.6080  -31.9050   23.1830 C   0  0  0  0  0  0  0  0  0  0  0  0
  -27.3400  -27.5390   20.0850 C   0  0  0  0  0  0  0  0  0  0  0  0
  -23.4360  -30.5040   21.5130 C   0  0  0  0  0  3  0  0  0  0  0  0
  -24.9230  -28.9960   20.0920 C   0  0  0  0  0  0  0  0  0  0  0  0
  -25.9560  -30.8990   21.3460 C   0  0  0  0  0  2  0  0  0  0  0  0
  -26.0680  -29.5370   20.6930 C   0  0  0  0  0  0  0  0  0  0  0  0
  -27.2820  -28.8160   20.6850 C   0  0  0  0  0  3  0  0  0  0  0  0
  -26.1830  -27.0030   19.4850 C   0  0  0  0  0  3  0  0  0  0  0  0
  -24.9750  -27.7270   19.4860 C   0  0  0  0  0  3  0  0  0  0  0  0
  -23.6680  -29.8370   20.1320 C   0  0  0  0  0  2  0  0  0  0  0  0
  -24.6830  -31.1170   22.0730 N   0  0  0  0  0  0  0  0  0  0  0  0
  -23.5180  -32.1600   23.7140 O   0  0  0  0  0  0  0  0  0  0  0  0
  -22.7850  -29.4670   22.4580 C   0  0  0  0  0  0  0  0  0  0  0  0
  -21.4680  -29.2640   22.3040 N   0  0  0  0  0  0  0  0  0  0  0  0
  -23.4650  -28.8470   23.2810 O   0  0  0  0  0  0  0  0  0  0  0  0
  -20.9800  -29.8180   21.6140 H   0  0  0  0  0  0  0  0  0  0  0  0
  -18.1070  -27.9990   22.7190 C   0  0  0  0  0  0  0  0  0  0  0  0
  -20.6520  -28.3070   23.0530 C   0  0  0  0  0  3  0  0  0  0  0  0
  -20.7960  -26.8810   22.4740 C   0  0  0  0  0  2  0  0  0  0  0  0
  -19.7240  -26.5390   21.4340 C   0  0  0  0  0  2  0  0  0  0  0  0
  -18.3250  -26.6560   22.0470 C   0  0  0  0  0  2  0  0  0  0  0  0
  -19.2000  -28.7830   23.1770 C   0  0  0  0  0  0  0  0  0  0  0  0
  -18.9420  -30.0400   23.7650 C   0  0  0  0  0  3  0  0  0  0  0  0
  -17.6250  -30.5160   23.9000 C   0  0  0  0  0  3  0  0  0  0  0  0
  -16.5460  -29.7300   23.4600 C   0  0  0  0  0  3  0  0  0  0  0  0
  -16.7880  -28.4730   22.8750 C   0  0  0  0  0  3  0  0  0  0  0  0
  -25.8800  -32.5410   23.8250 C   0  0  0  0  0  3  0  0  0  0  0  0
  -25.5600  -33.9350   24.1570 N   0  0  0  0  0  0  0  0  0  0  0  0
  -25.8920  -34.9910   23.4050 C   0  0  0  0  0  0  0  0  0  0  0  0
  -26.5740  -34.8970   22.3810 O   0  0  0  0  0  0  0  0  0  0  0  0
  -24.9560  -34.0830   24.9520 H   0  0  0  0  0  0  0  0  0  0  0  0
  -24.1500  -36.7670   23.0410 C   0  0  0  0  0  1  0  0  0  0  0  0
  -25.3880  -36.3730   23.8620 C   0  0  0  0  0  3  0  0  0  0  0  0
  -27.5080  -37.2750   24.7110 C   0  0  0  0  0  1  0  0  0  0  0  0
  -26.4120  -37.4360   23.7610 N   0  0  0  0  0  0  0  0  0  0  0  0
  -25.9960  -38.3520   23.9090 H   0  0  0  0  0  0  0  0  0  0  0  0
  -26.3920  -31.7660   25.1020 C   0  0  1  0  0  0  0  0  0  0  0  0
  -25.2890  -31.5080   26.1550 C   0  0  0  0  0  1  0  0  0  0  0  0
  -26.9940  -30.3980   24.7040 C   0  0  0  0  0  1  0  0  0  0  0  0
  -27.5280  -32.5660   25.7810 C   0  0  0  0  0  1  0  0  0  0  0  0
  1 48  1  0
  1  5  1  0
  2  1  1  0
  3  1  1  0
  5  4  1  0
  6  7  1  0
  6  5  1  0
  7  9  1  0
  8  6  2  0
 10 11  1  0
 10  7  1  0
 12 11  1  0
 13 18  1  0
 14 15  1  0
 14 13  1  0
 16 15  1  0
 16 23  1  0
 16 17  1  0
 18 12  1  0
 18 17  1  0
 19 12  2  0
 20 21  2  0
 21 40  1  0
 22 21  1  0
 22 25  1  0
 23 24  1  0
 23 20  1  0
 24 22  2  0
 25 26  1  0
 26 27  2  0
 28 31  1  0
 28 27  1  0
 29 28  2  0
 30 29  1  0
 30 25  2  0
 31 32  1  0
 32 33  1  0
 33 34  2  0
 35 34  1  0
 35 39  1  0
 36 35  2  0
 37 32  2  0
 37 36  1  0
 38 37  1  0
 40 41  1  0
 41 44  1  0
 41 43  1  0
 42 40  2  0
 45 46  1  0
 45 20  1  0
 47 45  1  0
 49 50  1  0
 49 48  1  0
 51 53  1  0
 51 50  1  0
 52 63  2  0
 53 58  1  0
 54 62  1  0
 54 64  1  0
 55 61  1  0
 55 57  1  0
 56 62  1  0
 57 56  1  0
 58 57  2  0
 59 60  1  0
 59 53  2  0
 60 55  2  0
 61 54  1  0
 62 52  1  0
 64 66  2  0
 65 64  1  0
 67 65  1  0
 68 77  2  0
 68 73  1  0
 69 65  1  0
 69 73  1  0
 70 69  1  0
 71 72  1  0
 71 70  1  0
 72 68  1  0
 73 74  2  0
 74 75  1  0
 76 75  2  0
 77 76  1  0
 78 52  1  0
 78 79  1  0
 78 88  1  0
 79 82  1  0
 80 84  1  0
 80 79  1  0
 81 80  2  0
 84 83  1  0
 86 84  1  0
 86 87  1  0
 86 85  1  0
 88 91  1  1
 88 89  1  0
 90 88  1  0
M  ISO  4  11 100  12 100  50 101  51 101
M  END
>  <TORSDO>  (74) 
F 23

>  <SCORE>  (74) 
-10.659

>  <name>  (74) 
73

>  <ligand_id>  (74) 
73

>  <original_smiles>  (74) 
[H]c1c([H])c([H])c2c(c1[H])C([H])([H])C([H])([H])C([H])([H])C2([H])N([H])C(=O)C1([H])N(C(=O)C([H])(N([H])C(=O)C([H])(N([H])C([H])([H])[H])C([H])([H])[H])C(C([H])([H])[H])(C([H])([H])[H])C([H])([H])[H])C([H])([H])c2c([H])c(OC([H])([H])C([H])([H])C([H])([H])[N+]([H])([H])C([H])(C(=O)N([H])C([H])([H])C([H])([H])C(=O)N3C([H])([H])C([H])([H])C([H])([H])C([H])(n4nc(-c5c([H])c([H])c(Oc6c([H])c([H])c(F)c([H])c6F)c([H])c5[H])c(C(=O)N([H])[H])c4N([H])[H])C3([H])[H])C([H])([H])[H])c([H])c([H])c2C1([H])[H]

>  <smiles>  (74) 
[H]c1c([H])c([H])c2c(c1[H])C([H])([H])C([H])([H])C([H])([H])C2([H])N([H])C(=O)C1([H])N(C(=O)C([H])(N([H])C(=O)C([H])(N([H])C([H])([H])[H])C([H])([H])[H])C(C([H])([H])[H])(C([H])([H])[H])C([H])([H])[H])C([H])([H])c2c([H])c(OC([H])([H])C([H])([H])C([H])([H])[N+]([H])([H])C([H])(C(=O)N([H])C([H])([H])C([H])([H])C(=O)N3C([H])([H])C([H])([H])C([H])([H])C([H])(n4nc(-c5c([H])c([H])c(Oc6c([H])c([H])c(F)c([H])c6F)c([H])c5[H])c(C(=O)N([H])[H])c4N([H])[H])C3([H])[H])C([H])([H])[H])c([H])c([H])c2C1([H])[H]

$$$$
74:0:0
     RDKit          3D

 84 91  0  0  1  0  0  0  0  0999 V2000
  -28.9100  -20.6430   20.2550 C   0  0  0  0  0  3  0  0  0  0  0  0
  -28.9530  -22.2200   20.3250 C   0  0  0  0  0  0  0  0  0  0  0  0
  -30.3150  -22.8920   20.5620 C   0  0  0  0  0  1  0  0  0  0  0  0
  -29.7410  -18.9290   20.3020 C   0  0  0  0  0  2  0  0  0  0  0  0
  -30.2410  -15.7670   20.2180 C   0  0  0  0  0  0  0  0  0  0  0  0
  -30.3550  -13.2230   19.3790 C   0  0  0  0  0  2  0  0  0  0  0  0
  -29.4550  -12.7970   18.1830 C   0  0  0  0  0  2  0  0  0  0  0  0
  -28.0440  -12.4210   18.6600 C   0  0  0  0  0  2  0  0  0  0  0  0
  -27.5360  -13.4120   19.7310 C   0  0  0  0  0  3  0  0  0  0  0  0
  -28.5790  -13.7440   20.8260 C   0  0  0  0  0  2  0  0  0  0  0  0
  -29.7220  -14.3950   20.1440 N   0  0  0  0  0  0  0  0  0  0  0  0
  -31.4740  -15.7000   20.0470 O   0  0  0  0  0  0  0  0  0  0  0  0
  -29.4890  -17.1480   20.2920 N   0  0  0  0  0  0  0  0  0  0  0  0
  -28.5000  -16.9500   20.3590 H   0  0  0  0  0  0  0  0  0  0  0  0
  -25.1860  -13.9060   20.5540 C   0  0  0  0  0  0  0  0  0  0  0  0
  -24.1400  -13.1090   20.9230 C   0  0  0  0  0  0  0  0  0  0  0  0
  -24.6230  -11.7660   20.8570 C   0  0  0  0  0  0  0  0  0  0  0  0
  -26.2340  -13.0500   20.2730 N   0  0  0  0  0  0  0  0  0  0  0  0
  -25.9110  -11.7530   20.5230 N   0  0  0  0  0  0  0  0  0  0  0  0
  -23.9090  -10.4930   21.0330 C   0  0  0  0  0  0  0  0  0  0  0  0
  -24.3370   -9.5270   21.9700 C   0  0  0  0  0  3  0  0  0  0  0  0
  -23.6180   -8.3230   22.1380 C   0  0  0  0  0  3  0  0  0  0  0  0
  -22.4570   -8.0770   21.3680 C   0  0  0  0  0  0  0  0  0  0  0  0
  -22.0470   -9.0310   20.4200 C   0  0  0  0  0  3  0  0  0  0  0  0
  -22.7670  -10.2270   20.2510 C   0  0  0  0  0  3  0  0  0  0  0  0
  -21.7110   -6.9250   21.4440 O   0  0  0  0  0  0  0  0  0  0  0  0
  -21.6190   -6.2020   22.6060 C   0  0  0  0  0  0  0  0  0  0  0  0
  -21.1020   -6.7630   23.7940 C   0  0  0  0  0  3  0  0  0  0  0  0
  -20.9610   -5.9650   24.9470 C   0  0  0  0  0  3  0  0  0  0  0  0
  -21.3270   -4.6060   24.9120 C   0  0  0  0  0  0  0  0  0  0  0  0
  -21.8380   -4.0440   23.7280 C   0  0  0  0  0  3  0  0  0  0  0  0
  -21.9800   -4.8400   22.5780 C   0  0  0  0  0  0  0  0  0  0  0  0
  -22.4520   -4.2870   21.4340 F   0  0  0  0  0  0  0  0  0  0  0  0
  -21.1850   -3.8360   26.0160 F   0  0  0  0  0  0  0  0  0  0  0  0
  -22.7440  -13.5690   21.2170 C   0  0  0  0  0  0  0  0  0  0  0  0
  -22.0340  -12.8590   22.0860 N   0  0  0  0  0  0  0  0  0  0  0  0
  -22.2900  -14.5960   20.7120 O   0  0  0  0  0  0  0  0  0  0  0  0
  -22.4140  -12.0280   22.5160 H   0  0  0  0  0  0  0  0  0  0  0  0
  -21.0970  -13.1500   22.3270 H   0  0  0  0  0  0  0  0  0  0  0  0
  -25.3270  -15.2810   20.3970 N   0  0  0  0  0  0  0  0  0  0  0  0
  -24.5480  -15.9190   20.5250 H   0  0  0  0  0  0  0  0  0  0  0  0
  -26.1540  -15.7360   20.0320 H   0  0  0  0  0  0  0  0  0  0  0  0
  -27.8860  -23.7590   20.2070 C   0  0  0  0  0  2  0  0  0  0  0  0
  -28.1070  -25.5200   20.3480 O   0  0  0  0  0  0  0  0  0  0  0  0
  -24.6200  -31.8780   23.2420 C   0  0  0  0  0  0  0  0  0  0  0  0
  -27.1480  -26.7550   20.2870 C   0  0  0  0  0  0  0  0  0  0  0  0
  -23.4410  -30.4800   21.6010 C   0  0  0  0  0  3  0  0  0  0  0  0
  -24.8920  -28.8160   20.2070 C   0  0  0  0  0  0  0  0  0  0  0  0
  -26.0220  -30.6040   21.5010 C   0  0  0  0  0  2  0  0  0  0  0  0
  -26.0860  -29.1640   20.8490 C   0  0  0  0  0  0  0  0  0  0  0  0
  -27.1980  -28.1650   20.8530 C   0  0  0  0  0  3  0  0  0  0  0  0
  -25.9190  -26.6250   19.5890 C   0  0  0  0  0  3  0  0  0  0  0  0
  -24.8490  -27.5740   19.5520 C   0  0  0  0  0  3  0  0  0  0  0  0
  -23.6900  -29.7760   20.2360 C   0  0  0  0  0  2  0  0  0  0  0  0
  -24.7190  -31.0210   22.1680 N   0  0  0  0  0  0  0  0  0  0  0  0
  -23.5240  -32.1850   23.7420 O   0  0  0  0  0  0  0  0  0  0  0  0
  -22.7090  -29.5100   22.5700 C   0  0  0  0  0  0  0  0  0  0  0  0
  -21.3770  -29.3650   22.4360 N   0  0  0  0  0  0  0  0  0  0  0  0
  -23.3550  -28.8850   23.4150 O   0  0  0  0  0  0  0  0  0  0  0  0
  -20.9060  -29.9210   21.7350 H   0  0  0  0  0  0  0  0  0  0  0  0
  -17.9760  -28.1820   22.9380 C   0  0  0  0  0  0  0  0  0  0  0  0
  -20.5380  -28.4360   23.2040 C   0  0  0  0  0  3  0  0  0  0  0  0
  -20.6290  -27.0010   22.6310 C   0  0  0  0  0  2  0  0  0  0  0  0
  -19.5280  -26.6870   21.6130 C   0  0  0  0  0  2  0  0  0  0  0  0
  -18.1470  -26.8360   22.2540 C   0  0  0  0  0  2  0  0  0  0  0  0
  -19.0980  -28.9400   23.3690 C   0  0  0  0  0  0  0  0  0  0  0  0
  -18.8810  -30.1960   23.9750 C   0  0  0  0  0  3  0  0  0  0  0  0
  -17.5760  -30.6980   24.1480 C   0  0  0  0  0  3  0  0  0  0  0  0
  -16.4700  -29.9380   23.7280 C   0  0  0  0  0  3  0  0  0  0  0  0
  -16.6710  -28.6820   23.1300 C   0  0  0  0  0  3  0  0  0  0  0  0
  -25.8780  -32.5270   23.8940 C   0  0  0  0  0  3  0  0  0  0  0  0
  -25.5630  -33.9360   24.2050 N   0  0  0  0  0  0  0  0  0  0  0  0
  -25.8920  -34.9890   23.4460 C   0  0  0  0  0  0  0  0  0  0  0  0
  -26.5520  -34.8770   22.4090 O   0  0  0  0  0  0  0  0  0  0  0  0
  -24.9740  -34.0960   25.0100 H   0  0  0  0  0  0  0  0  0  0  0  0
  -24.1610  -36.7930   23.1230 C   0  0  0  0  0  1  0  0  0  0  0  0
  -25.4230  -36.3870   23.9030 C   0  0  0  0  0  3  0  0  0  0  0  0
  -27.5770  -37.2860   24.6740 C   0  0  0  0  0  1  0  0  0  0  0  0
  -26.4540  -37.4380   23.7510 N   0  0  0  0  0  0  0  0  0  0  0  0
  -26.0530  -38.3620   23.8890 H   0  0  0  0  0  0  0  0  0  0  0  0
  -26.3450  -31.7840   25.2080 C   0  0  1  0  0  0  0  0  0  0  0  0
  -25.2180  -31.5840   26.2480 C   0  0  0  0  0  1  0  0  0  0  0  0
  -26.9260  -30.3910   24.8790 C   0  0  0  0  0  1  0  0  0  0  0  0
  -27.4840  -32.5840   25.8840 C   0  0  0  0  0  1  0  0  0  0  0  0
  1  4  1  0
  1  2  2  0
  2  3  1  0
  5 13  1  0
  6 11  1  0
  7  8  1  0
  7  6  1  0
  9  8  1  0
  9 18  1  0
  9 10  1  0
 11  5  1  0
 11 10  1  0
 12  5  2  0
 13  4  1  0
 13 14  1  0
 15 16  2  0
 16 35  1  0
 17 16  1  0
 17 20  1  0
 18 19  1  0
 18 15  1  0
 19 17  2  0
 20 21  1  0
 21 22  2  0
 23 26  1  0
 23 22  1  0
 24 23  2  0
 25 24  1  0
 25 20  2  0
 26 27  1  0
 27 28  1  0
 28 29  2  0
 30 29  1  0
 30 34  1  0
 31 30  2  0
 32 27  2  0
 32 31  1  0
 33 32  1  0
 35 36  1  0
 36 39  1  0
 36 38  1  0
 37 35  2  0
 40 41  1  0
 40 15  1  0
 42 40  1  0
 43  2  1  0
 43 44  1  0
 45 56  2  0
 46 44  1  0
 46 51  1  0
 47 55  1  0
 47 57  1  0
 48 54  1  0
 48 50  1  0
 49 55  1  0
 50 51  2  0
 50 49  1  0
 52 46  2  0
 53 52  1  0
 53 48  2  0
 54 47  1  0
 55 45  1  0
 57 59  2  0
 58 57  1  0
 60 58  1  0
 61 70  2  0
 61 66  1  0
 62 58  1  0
 62 66  1  0
 63 62  1  0
 64 65  1  0
 64 63  1  0
 65 61  1  0
 66 67  2  0
 67 68  1  0
 69 68  2  0
 70 69  1  0
 71 45  1  0
 71 72  1  0
 71 81  1  0
 72 75  1  0
 73 77  1  0
 73 72  1  0
 74 73  2  0
 77 76  1  0
 79 80  1  0
 79 77  1  0
 79 78  1  0
 81 84  1  1
 81 82  1  0
 83 81  1  0
M  ISO  4   5 100  13 100  43 101  44 101
M  END
>  <TORSDO>  (75) 
F 18

>  <SCORE>  (75) 
-16.263

>  <name>  (75) 
74

>  <ligand_id>  (75) 
74

>  <original_smiles>  (75) 
[H]C(=C(C([H])([H])[H])C([H])([H])Oc1c([H])c([H])c2c(c1[H])C([H])([H])N(C(=O)C([H])(N([H])C(=O)C([H])(N([H])C([H])([H])[H])C([H])([H])[H])C(C([H])([H])[H])(C([H])([H])[H])C([H])([H])[H])C([H])(C(=O)N([H])C1([H])c3c([H])c([H])c([H])c([H])c3C([H])([H])C([H])([H])C1([H])[H])C2([H])[H])C([H])([H])N([H])C(=O)N1C([H])([H])C([H])([H])C([H])([H])C([H])(n2nc(-c3c([H])c([H])c(Oc4c([H])c([H])c(F)c([H])c4F)c([H])c3[H])c(C(=O)N([H])[H])c2N([H])[H])C1([H])[H]

>  <smiles>  (75) 
[H]C(=C(C([H])([H])[H])C([H])([H])Oc1c([H])c([H])c2c(c1[H])C([H])([H])N(C(=O)C([H])(N([H])C(=O)C([H])(N([H])C([H])([H])[H])C([H])([H])[H])C(C([H])([H])[H])(C([H])([H])[H])C([H])([H])[H])C([H])(C(=O)N([H])C1([H])c3c([H])c([H])c([H])c([H])c3C([H])([H])C([H])([H])C1([H])[H])C2([H])[H])C([H])([H])N([H])C(=O)N1C([H])([H])C([H])([H])C([H])([H])C([H])(n2nc(-c3c([H])c([H])c(Oc4c([H])c([H])c(F)c([H])c4F)c([H])c3[H])c(C(=O)N([H])[H])c2N([H])[H])C1([H])[H]

$$$$
75:0:0
     RDKit          3D

 94103  0  0  1  0  0  0  0  0999 V2000
  -29.8390  -20.0550   18.2630 C   0  0  0  0  0  2  0  0  0  0  0  0
  -32.5910  -20.0990   19.6670 C   0  0  0  0  0  2  0  0  0  0  0  0
  -29.6520  -21.4840   17.7280 C   0  0  0  0  0  2  0  0  0  0  0  0
  -32.0180  -22.1160   18.0200 C   0  0  0  0  0  2  0  0  0  0  0  0
  -31.2780  -19.5750   18.0740 C   0  0  0  0  0  3  0  0  0  0  0  0
  -32.3720  -20.6460   18.2500 C   0  0  0  0  0  3  0  0  0  0  0  0
  -32.0160  -18.7690   19.1620 C   0  0  0  0  0  3  0  0  0  0  0  0
  -30.6030  -22.4230   18.3770 N   0  0  1  0  0  4  0  0  0  0  0  0
  -30.4980  -22.2700   19.3670 H   0  0  0  0  0  0  0  0  0  0  0  0
  -31.7520  -17.3350   20.9330 C   0  0  0  0  0  2  0  0  0  0  0  0
  -31.1540  -18.1190   20.1310 N   0  0  0  0  0  2  0  0  0  0  0  0
  -31.0610  -16.5020   21.9940 C   0  0  0  0  0  2  0  0  0  0  0  0
  -30.0670  -15.4380   21.4690 C   0  0  0  0  0  2  0  0  0  0  0  0
  -30.6300  -14.3740   20.4960 C   0  0  0  0  0  0  0  0  0  0  0  0
  -30.2880  -12.2870   19.2160 C   0  0  0  0  0  2  0  0  0  0  0  0
  -29.3340  -12.5250   18.0290 C   0  0  0  0  0  2  0  0  0  0  0  0
  -27.8660  -12.3700   18.4750 C   0  0  0  0  0  2  0  0  0  0  0  0
  -27.5440  -13.1900   19.7540 C   0  0  0  0  0  3  0  0  0  0  0  0
  -28.6030  -12.9220   20.8450 C   0  0  0  0  0  2  0  0  0  0  0  0
  -29.9290  -13.2310   20.2840 N   0  0  0  0  0  0  0  0  0  0  0  0
  -31.6870  -14.6030   19.8980 O   0  0  0  0  0  0  0  0  0  0  0  0
  -25.1460  -13.7930   20.4780 C   0  0  0  0  0  0  0  0  0  0  0  0
  -24.0830  -13.0170   20.8610 C   0  0  0  0  0  0  0  0  0  0  0  0
  -24.5520  -11.6680   20.8340 C   0  0  0  0  0  0  0  0  0  0  0  0
  -26.1930  -12.9160   20.2430 N   0  0  0  0  0  0  0  0  0  0  0  0
  -25.8390  -11.6340   20.5120 N   0  0  0  0  0  0  0  0  0  0  0  0
  -23.8380  -10.4020   21.0390 C   0  0  0  0  0  0  0  0  0  0  0  0
  -24.2940   -9.4410   21.9680 C   0  0  0  0  0  3  0  0  0  0  0  0
  -23.5810   -8.2390   22.1610 C   0  0  0  0  0  3  0  0  0  0  0  0
  -22.4000   -7.9870   21.4230 C   0  0  0  0  0  0  0  0  0  0  0  0
  -21.9640   -8.9370   20.4810 C   0  0  0  0  0  3  0  0  0  0  0  0
  -22.6770  -10.1310   20.2890 C   0  0  0  0  0  3  0  0  0  0  0  0
  -21.6570   -6.8350   21.5230 O   0  0  0  0  0  0  0  0  0  0  0  0
  -21.6410   -6.0860   22.6720 C   0  0  0  0  0  0  0  0  0  0  0  0
  -21.2560   -6.6350   23.9150 C   0  0  0  0  0  3  0  0  0  0  0  0
  -21.1900   -5.8120   25.0570 C   0  0  0  0  0  3  0  0  0  0  0  0
  -21.5000   -4.4410   24.9570 C   0  0  0  0  0  0  0  0  0  0  0  0
  -21.8820   -3.8920   23.7200 C   0  0  0  0  0  3  0  0  0  0  0  0
  -21.9500   -4.7120   22.5800 C   0  0  0  0  0  0  0  0  0  0  0  0
  -22.2980   -4.1750   21.3850 F   0  0  0  0  0  0  0  0  0  0  0  0
  -21.4290   -3.6500   26.0530 F   0  0  0  0  0  0  0  0  0  0  0  0
  -22.6840  -13.4850   21.1420 C   0  0  0  0  0  0  0  0  0  0  0  0
  -21.9710  -12.7870   22.0180 N   0  0  0  0  0  0  0  0  0  0  0  0
  -22.2370  -14.5060   20.6190 O   0  0  0  0  0  0  0  0  0  0  0  0
  -22.3520  -11.9650   22.4620 H   0  0  0  0  0  0  0  0  0  0  0  0
  -21.0290  -13.0760   22.2420 H   0  0  0  0  0  0  0  0  0  0  0  0
  -25.3020  -15.1620   20.2920 N   0  0  0  0  0  0  0  0  0  0  0  0
  -24.5370  -15.8160   20.4100 H   0  0  0  0  0  0  0  0  0  0  0  0
  -26.1520  -15.5990   19.9580 H   0  0  0  0  0  0  0  0  0  0  0  0
  -30.2510  -23.8470   18.1360 C   0  0  0  0  0  2  0  0  0  0  0  0
  -30.6540  -24.7560   19.3150 C   0  0  0  0  0  2  0  0  0  0  0  0
  -30.4960  -26.2550   19.0060 C   0  0  0  0  0  2  0  0  0  0  0  0
  -29.0440  -26.7420   18.8650 C   0  0  0  0  0  2  0  0  0  0  0  0
  -28.4360  -26.7980   20.1490 O   0  0  0  0  0  0  0  0  0  0  0  0
  -24.5760  -31.8980   23.2380 C   0  0  0  0  0  0  0  0  0  0  0  0
  -27.2550  -27.4910   20.1680 C   0  0  0  0  0  0  0  0  0  0  0  0
  -23.3740  -30.4770   21.6020 C   0  0  0  0  0  3  0  0  0  0  0  0
  -24.8410  -28.9430   20.1840 C   0  0  0  0  0  0  0  0  0  0  0  0
  -25.8930  -30.8590   21.4010 C   0  0  0  0  0  2  0  0  0  0  0  0
  -25.9880  -29.4850   20.7780 C   0  0  0  0  0  0  0  0  0  0  0  0
  -27.1960  -28.7570   20.7820 C   0  0  0  0  0  3  0  0  0  0  0  0
  -26.0960  -26.9490   19.5770 C   0  0  0  0  0  3  0  0  0  0  0  0
  -24.8860  -27.6690   19.5870 C   0  0  0  0  0  3  0  0  0  0  0  0
  -23.5860  -29.7870   20.2270 C   0  0  0  0  0  2  0  0  0  0  0  0
  -24.6320  -31.0950   22.1390 N   0  0  0  0  0  0  0  0  0  0  0  0
  -23.4940  -32.1690   23.7780 O   0  0  0  0  0  0  0  0  0  0  0  0
  -22.7320  -29.4590   22.5700 C   0  0  0  0  0  0  0  0  0  0  0  0
  -21.4070  -29.2720   22.4440 N   0  0  0  0  0  0  0  0  0  0  0  0
  -23.4200  -28.8420   23.3860 O   0  0  0  0  0  0  0  0  0  0  0  0
  -20.9150  -29.8210   21.7520 H   0  0  0  0  0  0  0  0  0  0  0  0
  -18.0360  -28.0870   22.9560 C   0  0  0  0  0  0  0  0  0  0  0  0
  -20.5950  -28.3380   23.2200 C   0  0  0  0  0  3  0  0  0  0  0  0
  -20.6920  -26.9080   22.6390 C   0  0  0  0  0  2  0  0  0  0  0  0
  -19.5850  -26.5890   21.6290 C   0  0  0  0  0  2  0  0  0  0  0  0
  -18.2070  -26.7380   22.2800 C   0  0  0  0  0  2  0  0  0  0  0  0
  -19.1590  -28.8470   23.3820 C   0  0  0  0  0  0  0  0  0  0  0  0
  -18.9450  -30.1120   23.9700 C   0  0  0  0  0  3  0  0  0  0  0  0
  -17.6420  -30.6160   24.1390 C   0  0  0  0  0  3  0  0  0  0  0  0
  -16.5340  -29.8530   23.7320 C   0  0  0  0  0  3  0  0  0  0  0  0
  -16.7320  -28.5910   23.1450 C   0  0  0  0  0  3  0  0  0  0  0  0
  -25.8630  -32.5340   23.8550 C   0  0  0  0  0  3  0  0  0  0  0  0
  -25.5460  -33.9310   24.1840 N   0  0  0  0  0  0  0  0  0  0  0  0
  -25.8800  -34.9830   23.4250 C   0  0  0  0  0  0  0  0  0  0  0  0
  -26.5550  -34.8810   22.3960 O   0  0  0  0  0  0  0  0  0  0  0  0
  -24.9450  -34.0840   24.9800 H   0  0  0  0  0  0  0  0  0  0  0  0
  -24.1460  -36.7650   23.0600 C   0  0  0  0  0  1  0  0  0  0  0  0
  -25.3850  -36.3680   23.8790 C   0  0  0  0  0  3  0  0  0  0  0  0
  -27.5120  -37.2570   24.7220 C   0  0  0  0  0  1  0  0  0  0  0  0
  -26.4140  -37.4240   23.7740 N   0  0  0  0  0  0  0  0  0  0  0  0
  -26.0020  -38.3430   23.9220 H   0  0  0  0  0  0  0  0  0  0  0  0
  -26.3910  -31.7640   25.1250 C   0  0  1  0  0  0  0  0  0  0  0  0
  -25.3050  -31.5130   26.1950 C   0  0  0  0  0  1  0  0  0  0  0  0
  -26.9850  -30.3930   24.7250 C   0  0  0  0  0  1  0  0  0  0  0  0
  -27.5390  -32.5660   25.7830 C   0  0  0  0  0  1  0  0  0  0  0  0
  3  1  1  0
  3  8  1  0
  4  8  1  0
  5  6  1  0
  5  1  1  0
  5  7  1  0
  6  4  1  0
  6  2  1  0
  7  2  1  0
  7 11  1  0
  8  9  1  1
 10 12  1  0
 11 10  1  0
 13 12  1  0
 14 13  1  0
 15 20  1  0
 16 17  1  0
 16 15  1  0
 18 17  1  0
 18 25  1  0
 18 19  1  0
 20 14  1  0
 20 19  1  0
 21 14  2  0
 22 23  2  0
 23 42  1  0
 24 23  1  0
 24 27  1  0
 25 22  1  0
 25 26  1  0
 26 24  2  0
 27 28  1  0
 28 29  2  0
 30 33  1  0
 30 29  1  0
 31 30  2  0
 32 31  1  0
 32 27  2  0
 33 34  1  0
 34 35  1  0
 35 36  2  0
 37 36  1  0
 37 41  1  0
 38 37  2  0
 39 34  2  0
 39 38  1  0
 40 39  1  0
 42 43  1  0
 43 46  1  0
 43 45  1  0
 44 42  2  0
 47 48  1  0
 47 22  1  0
 49 47  1  0
 50  8  1  0
 50 51  1  0
 52 51  1  0
 53 52  1  0
 53 54  1  0
 54 56  1  0
 55 66  2  0
 56 61  1  0
 57 65  1  0
 57 67  1  0
 58 64  1  0
 58 60  1  0
 59 65  1  0
 60 61  2  0
 60 59  1  0
 62 63  1  0
 62 56  2  0
 63 58  2  0
 64 57  1  0
 65 55  1  0
 67 69  2  0
 68 67  1  0
 70 68  1  0
 71 80  2  0
 71 76  1  0
 72 68  1  0
 72 76  1  0
 73 72  1  0
 74 75  1  0
 74 73  1  0
 75 71  1  0
 76 77  2  0
 77 78  1  0
 79 78  2  0
 80 79  1  0
 81 55  1  0
 81 82  1  0
 81 91  1  0
 82 85  1  0
 83 87  1  0
 83 82  1  0
 84 83  2  0
 87 86  1  0
 89 87  1  0
 89 90  1  0
 89 88  1  0
 91 94  1  1
 91 92  1  0
 93 91  1  0
M  ISO  4  13 100  14 100  53 101  54 101
M  END
>  <TORSDO>  (76) 
F 23

>  <SCORE>  (76) 
-12.667

>  <name>  (76) 
75

>  <ligand_id>  (76) 
75

>  <original_smiles>  (76) 
[H]C(=NC1([H])C([H])([H])C2([H])C1([H])C([H])([H])C([H])([H])[N+]([H])(C([H])([H])C([H])([H])C([H])([H])C([H])([H])Oc1c([H])c([H])c3c(c1[H])C([H])([H])N(C(=O)C([H])(N([H])C(=O)C([H])(N([H])C([H])([H])[H])C([H])([H])[H])C(C([H])([H])[H])(C([H])([H])[H])C([H])([H])[H])C([H])(C(=O)N([H])C1([H])c4c([H])c([H])c([H])c([H])c4C([H])([H])C([H])([H])C1([H])[H])C3([H])[H])C2([H])[H])C([H])([H])C([H])([H])C(=O)N1C([H])([H])C([H])([H])C([H])([H])C([H])(n2nc(-c3c([H])c([H])c(Oc4c([H])c([H])c(F)c([H])c4F)c([H])c3[H])c(C(=O)N([H])[H])c2N([H])[H])C1([H])[H]

>  <smiles>  (76) 
[H]C(=NC1([H])C([H])([H])C2([H])C1([H])C([H])([H])C([H])([H])[N+]([H])(C([H])([H])C([H])([H])C([H])([H])C([H])([H])Oc1c([H])c([H])c3c(c1[H])C([H])([H])N(C(=O)C([H])(N([H])C(=O)C([H])(N([H])C([H])([H])[H])C([H])([H])[H])C(C([H])([H])[H])(C([H])([H])[H])C([H])([H])[H])C([H])(C(=O)N([H])C1([H])c4c([H])c([H])c([H])c([H])c4C([H])([H])C([H])([H])C1([H])[H])C3([H])[H])C2([H])[H])C([H])([H])C([H])([H])C(=O)N1C([H])([H])C([H])([H])C([H])([H])C([H])(n2nc(-c3c([H])c([H])c(Oc4c([H])c([H])c(F)c([H])c4F)c([H])c3[H])c(C(=O)N([H])[H])c2N([H])[H])C1([H])[H]

$$$$
76:0:0
     RDKit          3D

 87 94  0  0  1  0  0  0  0  0999 V2000
  -29.1770  -19.7480   20.0010 C   0  0  0  0  0  0  0  0  0  0  0  0
  -29.0550  -21.1280   20.5480 N   0  0  0  0  0  0  0  0  0  0  0  0
  -28.8260  -19.6230   18.8280 O   0  0  0  0  0  0  0  0  0  0  0  0
  -29.2990  -21.1410   21.5310 H   0  0  0  0  0  0  0  0  0  0  0  0
  -31.3310  -18.4880   20.7550 C   0  0  0  0  0  1  0  0  0  0  0  0
  -29.8120  -18.2540   20.6910 C   0  0  0  0  0  3  0  0  0  0  0  0
  -30.3810  -15.3300   20.2710 C   0  0  0  0  0  0  0  0  0  0  0  0
  -30.3620  -12.8880   19.3580 C   0  0  0  0  0  2  0  0  0  0  0  0
  -29.4350  -12.6640   18.1370 C   0  0  0  0  0  2  0  0  0  0  0  0
  -27.9910  -12.3830   18.5890 C   0  0  0  0  0  2  0  0  0  0  0  0
  -27.5400  -13.3440   19.7160 C   0  0  0  0  0  3  0  0  0  0  0  0
  -28.5940  -13.5020   20.8320 C   0  0  0  0  0  2  0  0  0  0  0  0
  -29.8090  -14.0260   20.1830 N   0  0  0  0  0  0  0  0  0  0  0  0
  -31.6100  -15.3100   20.1030 O   0  0  0  0  0  0  0  0  0  0  0  0
  -29.6170  -16.6090   20.3670 N   0  0  0  0  0  0  0  0  0  0  0  0
  -28.6310  -16.3970   20.3270 H   0  0  0  0  0  0  0  0  0  0  0  0
  -25.1710  -13.8920   20.4800 C   0  0  0  0  0  0  0  0  0  0  0  0
  -24.1140  -13.1110   20.8520 C   0  0  0  0  0  0  0  0  0  0  0  0
  -24.5880  -11.7630   20.8230 C   0  0  0  0  0  0  0  0  0  0  0  0
  -26.2170  -13.0210   20.2340 N   0  0  0  0  0  0  0  0  0  0  0  0
  -25.8790  -11.7340   20.5100 N   0  0  0  0  0  0  0  0  0  0  0  0
  -23.8660  -10.4970   21.0130 C   0  0  0  0  0  0  0  0  0  0  0  0
  -24.2950   -9.5360   21.9550 C   0  0  0  0  0  3  0  0  0  0  0  0
  -23.5690   -8.3380   22.1350 C   0  0  0  0  0  3  0  0  0  0  0  0
  -22.4020   -8.0930   21.3740 C   0  0  0  0  0  0  0  0  0  0  0  0
  -21.9940   -9.0430   20.4210 C   0  0  0  0  0  3  0  0  0  0  0  0
  -22.7190  -10.2320   20.2380 C   0  0  0  0  0  3  0  0  0  0  0  0
  -21.6490   -6.9460   21.4620 O   0  0  0  0  0  0  0  0  0  0  0  0
  -21.5880   -6.2150   22.6210 C   0  0  0  0  0  0  0  0  0  0  0  0
  -21.1350   -6.7770   23.8340 C   0  0  0  0  0  3  0  0  0  0  0  0
  -21.0210   -5.9710   24.9840 C   0  0  0  0  0  3  0  0  0  0  0  0
  -21.3480   -4.6040   24.9230 C   0  0  0  0  0  0  0  0  0  0  0  0
  -21.7950   -4.0410   23.7150 C   0  0  0  0  0  3  0  0  0  0  0  0
  -21.9100   -4.8440   22.5660 C   0  0  0  0  0  0  0  0  0  0  0  0
  -22.3200   -4.2910   21.3990 F   0  0  0  0  0  0  0  0  0  0  0  0
  -21.2320   -3.8280   26.0260 F   0  0  0  0  0  0  0  0  0  0  0  0
  -22.7150  -13.5820   21.1160 C   0  0  0  0  0  0  0  0  0  0  0  0
  -21.9850  -12.8830   21.9780 N   0  0  0  0  0  0  0  0  0  0  0  0
  -22.2770  -14.6070   20.5940 O   0  0  0  0  0  0  0  0  0  0  0  0
  -22.3540  -12.0560   22.4230 H   0  0  0  0  0  0  0  0  0  0  0  0
  -21.0450  -13.1810   22.1990 H   0  0  0  0  0  0  0  0  0  0  0  0
  -25.3230  -15.2640   20.2980 N   0  0  0  0  0  0  0  0  0  0  0  0
  -24.5460  -15.9070   20.4030 H   0  0  0  0  0  0  0  0  0  0  0  0
  -26.1520  -15.7050   19.9220 H   0  0  0  0  0  0  0  0  0  0  0  0
  -28.8450  -22.6990   19.9660 C   0  0  0  0  0  2  0  0  0  0  0  0
  -28.0870  -24.2320   20.5820 C   0  0  0  0  0  2  0  0  0  0  0  0
  -28.2550  -25.8650   20.3110 O   0  0  0  0  0  0  0  0  0  0  0  0
  -24.6380  -31.8680   23.2360 C   0  0  0  0  0  0  0  0  0  0  0  0
  -27.2220  -26.9480   20.3000 C   0  0  0  0  0  0  0  0  0  0  0  0
  -23.4570  -30.4490   21.6080 C   0  0  0  0  0  3  0  0  0  0  0  0
  -24.9170  -28.8260   20.2180 C   0  0  0  0  0  0  0  0  0  0  0  0
  -26.0250  -30.6630   21.4710 C   0  0  0  0  0  2  0  0  0  0  0  0
  -26.1030  -29.2430   20.8360 C   0  0  0  0  0  0  0  0  0  0  0  0
  -27.2520  -28.3280   20.8450 C   0  0  0  0  0  3  0  0  0  0  0  0
  -26.0020  -26.6820   19.6400 C   0  0  0  0  0  3  0  0  0  0  0  0
  -24.8920  -27.5660   19.5990 C   0  0  0  0  0  3  0  0  0  0  0  0
  -23.6970  -29.7470   20.2430 C   0  0  0  0  0  2  0  0  0  0  0  0
  -24.7280  -31.0220   22.1590 N   0  0  0  0  0  0  0  0  0  0  0  0
  -23.5440  -32.1600   23.7480 O   0  0  0  0  0  0  0  0  0  0  0  0
  -22.7590  -29.4640   22.5820 C   0  0  0  0  0  0  0  0  0  0  0  0
  -21.4290  -29.3000   22.4570 N   0  0  0  0  0  0  0  0  0  0  0  0
  -23.4230  -28.8460   23.4190 O   0  0  0  0  0  0  0  0  0  0  0  0
  -20.9470  -29.8490   21.7580 H   0  0  0  0  0  0  0  0  0  0  0  0
  -18.0450  -28.0940   22.9700 C   0  0  0  0  0  0  0  0  0  0  0  0
  -20.6050  -28.3690   23.2350 C   0  0  0  0  0  3  0  0  0  0  0  0
  -20.7100  -26.9320   22.6750 C   0  0  0  0  0  2  0  0  0  0  0  0
  -19.6100  -26.5970   21.6620 C   0  0  0  0  0  2  0  0  0  0  0  0
  -18.2270  -26.7410   22.3020 C   0  0  0  0  0  2  0  0  0  0  0  0
  -19.1610  -28.8650   23.3930 C   0  0  0  0  0  0  0  0  0  0  0  0
  -18.9340  -30.1290   23.9800 C   0  0  0  0  0  3  0  0  0  0  0  0
  -17.6270  -30.6230   24.1460 C   0  0  0  0  0  3  0  0  0  0  0  0
  -16.5270  -29.8510   23.7360 C   0  0  0  0  0  3  0  0  0  0  0  0
  -16.7360  -28.5880   23.1540 C   0  0  0  0  0  3  0  0  0  0  0  0
  -25.9030  -32.5220   23.8700 C   0  0  0  0  0  3  0  0  0  0  0  0
  -26.3990  -31.7780   25.1700 C   0  0  1  0  0  0  0  0  0  0  0  0
  -25.2910  -31.5630   26.2280 C   0  0  0  0  0  1  0  0  0  0  0  0
  -26.9880  -30.3920   24.8250 C   0  0  0  0  0  1  0  0  0  0  0  0
  -27.5400  -32.5860   25.8330 C   0  0  0  0  0  1  0  0  0  0  0  0
  -25.5790  -33.9250   24.1820 N   0  0  0  0  0  0  0  0  0  0  0  0
  -25.9180  -34.9790   23.4280 C   0  0  0  0  0  0  0  0  0  0  0  0
  -26.5980  -34.8730   22.4040 O   0  0  0  0  0  0  0  0  0  0  0  0
  -24.9750  -34.0820   24.9760 H   0  0  0  0  0  0  0  0  0  0  0  0
  -24.1960  -36.7800   23.0550 C   0  0  0  0  0  1  0  0  0  0  0  0
  -25.4290  -36.3720   23.8780 C   0  0  0  0  0  3  0  0  0  0  0  0
  -27.5550  -37.2630   24.7290 C   0  0  0  0  0  1  0  0  0  0  0  0
  -26.4640  -37.4250   23.7710 N   0  0  0  0  0  0  0  0  0  0  0  0
  -26.0560  -38.3460   23.9080 H   0  0  0  0  0  0  0  0  0  0  0  0
  1  2  1  0
  1  6  1  0
  2  4  1  0
  3  1  2  0
  6  5  1  0
  7 15  1  0
  8 13  1  0
  9 10  1  0
  9  8  1  0
 11 10  1  0
 11 20  1  0
 11 12  1  0
 13  7  1  0
 13 12  1  0
 14  7  2  0
 15  6  1  0
 16 15  1  0
 17 18  2  0
 18 37  1  0
 19 18  1  0
 19 22  1  0
 20 17  1  0
 20 21  1  0
 21 19  2  0
 22 23  1  0
 23 24  2  0
 25 28  1  0
 25 24  1  0
 26 25  2  0
 27 26  1  0
 27 22  2  0
 28 29  1  0
 29 30  1  0
 30 31  2  0
 32 31  1  0
 32 36  1  0
 33 32  2  0
 34 29  2  0
 34 33  1  0
 35 34  1  0
 37 38  1  0
 38 41  1  0
 38 40  1  0
 39 37  2  0
 42 43  1  0
 42 17  1  0
 44 42  1  0
 45  2  1  0
 45 46  1  0
 47 46  1  0
 48 59  2  0
 49 47  1  0
 49 54  1  0
 50 58  1  0
 50 60  1  0
 51 57  1  0
 51 53  1  0
 52 58  1  0
 53 54  2  0
 53 52  1  0
 55 49  2  0
 56 55  1  0
 56 51  2  0
 57 50  1  0
 58 48  1  0
 60 62  2  0
 61 60  1  0
 63 61  1  0
 64 73  2  0
 64 69  1  0
 65 61  1  0
 65 69  1  0
 66 65  1  0
 67 68  1  0
 67 66  1  0
 68 64  1  0
 69 70  2  0
 70 71  1  0
 72 71  2  0
 73 72  1  0
 74 48  1  0
 74 79  1  0
 74 75  1  0
 75 78  1  1
 75 76  1  0
 77 75  1  0
 79 82  1  0
 80 84  1  0
 80 79  1  0
 81 80  2  0
 84 83  1  0
 86 84  1  0
 86 87  1  0
 86 85  1  0
M  ISO  4   7 100  15 100  46 101  47 101
M  END
>  <TORSDO>  (77) 
F 19

>  <SCORE>  (77) 
-16.531

>  <name>  (77) 
76

>  <ligand_id>  (77) 
76

>  <original_smiles>  (77) 
[H]c1c([H])c([H])c2c(c1[H])C([H])([H])C([H])([H])C([H])([H])C2([H])N([H])C(=O)C1([H])N(C(=O)C([H])(N([H])C(=O)C([H])(N([H])C([H])([H])[H])C([H])([H])[H])C(C([H])([H])[H])(C([H])([H])[H])C([H])([H])[H])C([H])([H])c2c([H])c(OC([H])([H])C([H])([H])N([H])C(=O)C([H])(N([H])C(=O)N3C([H])([H])C([H])([H])C([H])([H])C([H])(n4nc(-c5c([H])c([H])c(Oc6c([H])c([H])c(F)c([H])c6F)c([H])c5[H])c(C(=O)N([H])[H])c4N([H])[H])C3([H])[H])C([H])([H])[H])c([H])c([H])c2C1([H])[H]

>  <smiles>  (77) 
[H]c1c([H])c([H])c2c(c1[H])C([H])([H])C([H])([H])C([H])([H])C2([H])N([H])C(=O)C1([H])N(C(=O)C([H])(N([H])C(=O)C([H])(N([H])C([H])([H])[H])C([H])([H])[H])C(C([H])([H])[H])(C([H])([H])[H])C([H])([H])[H])C([H])([H])c2c([H])c(OC([H])([H])C([H])([H])N([H])C(=O)C([H])(N([H])C(=O)N3C([H])([H])C([H])([H])C([H])([H])C([H])(n4nc(-c5c([H])c([H])c(Oc6c([H])c([H])c(F)c([H])c6F)c([H])c5[H])c(C(=O)N([H])[H])c4N([H])[H])C3([H])[H])C([H])([H])[H])c([H])c([H])c2C1([H])[H]

$$$$
77:0:0
     RDKit          3D

 93102  0  0  1  0  0  0  0  0999 V2000
  -30.6240  -23.1630   20.2440 C   0  0  0  0  0  0  0  0  0  0  0  0
  -30.0900  -24.2110   20.9020 N   0  0  0  0  0  0  0  0  0  0  0  0
  -31.4330  -23.3150   19.3270 O   0  0  0  0  0  0  0  0  0  0  0  0
  -29.4280  -24.0010   21.6360 H   0  0  0  0  0  0  0  0  0  0  0  0
  -31.4630  -21.0010   21.3830 C   0  0  0  0  0  2  0  0  0  0  0  0
  -29.0410  -21.6170   21.6450 C   0  0  0  0  0  2  0  0  0  0  0  0
  -31.1010  -19.5030   21.2690 C   0  0  0  0  0  2  0  0  0  0  0  0
  -28.6930  -20.1190   21.5680 C   0  0  0  0  0  2  0  0  0  0  0  0
  -29.9000  -20.7170   19.6140 C   0  0  0  0  0  2  0  0  0  0  0  0
  -30.2670  -21.7270   20.7180 C   0  0  1  0  0  0  0  0  0  0  0  0
  -29.7270  -19.5310   20.5750 C   0  0  1  0  0  0  0  0  0  0  0  0
  -29.2130  -18.1780   20.0040 C   0  0  0  0  0  2  0  0  0  0  0  0
  -30.2720  -15.8860   20.2330 C   0  0  0  0  0  3  0  0  0  0  0  0
  -30.2140  -17.0880   19.6090 C   0  0  0  0  0  3  0  0  0  0  0  0
  -31.1010  -14.7740   19.7560 C   0  0  0  0  0  0  0  0  0  0  0  0
  -30.8950  -12.4430   18.9490 C   0  0  0  0  0  2  0  0  0  0  0  0
  -29.8980  -12.4330   17.7670 C   0  0  0  0  0  2  0  0  0  0  0  0
  -28.4390  -12.3240   18.2590 C   0  0  0  0  0  2  0  0  0  0  0  0
  -28.1210  -13.3220   19.4020 C   0  0  0  0  0  3  0  0  0  0  0  0
  -29.2160  -13.2450   20.4870 C   0  0  0  0  0  2  0  0  0  0  0  0
  -30.5110  -13.5460   19.8480 N   0  0  0  0  0  0  0  0  0  0  0  0
  -32.1900  -14.9360   19.1930 O   0  0  0  0  0  0  0  0  0  0  0  0
  -25.8030  -14.0200   20.2800 C   0  0  0  0  0  0  0  0  0  0  0  0
  -24.7270  -13.2870   20.7030 C   0  0  0  0  0  0  0  0  0  0  0  0
  -25.1230  -11.9170   20.6120 C   0  0  0  0  0  0  0  0  0  0  0  0
  -26.7900  -13.0990   19.9600 N   0  0  0  0  0  0  0  0  0  0  0  0
  -26.3860  -11.8280   20.2120 N   0  0  0  0  0  0  0  0  0  0  0  0
  -24.3570  -10.6840   20.8250 C   0  0  0  0  0  0  0  0  0  0  0  0
  -24.7470   -9.7300   21.7910 C   0  0  0  0  0  3  0  0  0  0  0  0
  -23.9860   -8.5580   21.9890 C   0  0  0  0  0  3  0  0  0  0  0  0
  -22.8200   -8.3320   21.2210 C   0  0  0  0  0  0  0  0  0  0  0  0
  -22.4480   -9.2740   20.2450 C   0  0  0  0  0  3  0  0  0  0  0  0
  -23.2090  -10.4370   20.0460 C   0  0  0  0  0  3  0  0  0  0  0  0
  -22.0310   -7.2120   21.3260 O   0  0  0  0  0  0  0  0  0  0  0  0
  -21.8540   -6.5680   22.5250 C   0  0  0  0  0  0  0  0  0  0  0  0
  -21.2900   -7.2170   23.6440 C   0  0  0  0  0  3  0  0  0  0  0  0
  -21.0620   -6.4970   24.8340 C   0  0  0  0  0  3  0  0  0  0  0  0
  -21.3890   -5.1280   24.9030 C   0  0  0  0  0  0  0  0  0  0  0  0
  -21.9450   -4.4800   23.7870 C   0  0  0  0  0  3  0  0  0  0  0  0
  -22.1750   -5.1980   22.6000 C   0  0  0  0  0  0  0  0  0  0  0  0
  -22.6930   -4.5620   21.5210 F   0  0  0  0  0  0  0  0  0  0  0  0
  -21.1620   -4.4350   26.0430 F   0  0  0  0  0  0  0  0  0  0  0  0
  -23.3750  -13.8180   21.0830 C   0  0  0  0  0  0  0  0  0  0  0  0
  -22.6810  -13.1380   21.9900 N   0  0  0  0  0  0  0  0  0  0  0  0
  -22.9440  -14.8690   20.6100 O   0  0  0  0  0  0  0  0  0  0  0  0
  -23.0430  -12.2870   22.3940 H   0  0  0  0  0  0  0  0  0  0  0  0
  -21.7780  -13.4780   22.2860 H   0  0  0  0  0  0  0  0  0  0  0  0
  -26.0190  -15.3860   20.1220 N   0  0  0  0  0  0  0  0  0  0  0  0
  -25.3000  -16.0770   20.3060 H   0  0  0  0  0  0  0  0  0  0  0  0
  -26.8790  -15.7910   19.7760 H   0  0  0  0  0  0  0  0  0  0  0  0
  -30.5720  -25.5990   20.8090 C   0  0  0  0  0  2  0  0  0  0  0  0
  -29.4940  -26.6780   21.0820 C   0  0  0  0  0  2  0  0  0  0  0  0
  -28.7690  -26.9420   19.8830 O   0  0  0  0  0  0  0  0  0  0  0  0
  -24.6780  -31.8190   23.2040 C   0  0  0  0  0  0  0  0  0  0  0  0
  -27.6010  -27.6620   19.9840 C   0  0  0  0  0  0  0  0  0  0  0  0
  -23.5720  -30.4310   21.4810 C   0  0  0  0  0  3  0  0  0  0  0  0
  -25.1290  -29.0350   20.0190 C   0  0  0  0  0  0  0  0  0  0  0  0
  -26.0770  -30.9280   21.3460 C   0  0  0  0  0  2  0  0  0  0  0  0
  -26.2470  -29.5880   20.6590 C   0  0  0  0  0  0  0  0  0  0  0  0
  -27.4860  -28.9060   20.6520 C   0  0  0  0  0  3  0  0  0  0  0  0
  -26.4710  -27.1300   19.3320 C   0  0  0  0  0  3  0  0  0  0  0  0
  -25.2350  -27.8010   19.3560 C   0  0  0  0  0  3  0  0  0  0  0  0
  -23.8400  -29.8250   20.0780 C   0  0  0  0  0  2  0  0  0  0  0  0
  -24.7920  -31.0720   22.0690 N   0  0  0  0  0  0  0  0  0  0  0  0
  -23.5770  -32.0100   23.7380 O   0  0  0  0  0  0  0  0  0  0  0  0
  -22.9610  -29.3350   22.3840 C   0  0  0  0  0  0  0  0  0  0  0  0
  -21.6510  -29.0880   22.2250 N   0  0  0  0  0  0  0  0  0  0  0  0
  -23.6640  -28.7120   23.1830 O   0  0  0  0  0  0  0  0  0  0  0  0
  -21.1420  -29.6480   21.5560 H   0  0  0  0  0  0  0  0  0  0  0  0
  -18.3330  -27.7180   22.6310 C   0  0  0  0  0  0  0  0  0  0  0  0
  -20.8740  -28.0750   22.9400 C   0  0  0  0  0  3  0  0  0  0  0  0
  -21.0450  -26.6820   22.2920 C   0  0  0  0  0  2  0  0  0  0  0  0
  -19.9660  -26.3630   21.2510 C   0  0  0  0  0  2  0  0  0  0  0  0
  -18.5750  -26.4150   21.8880 C   0  0  0  0  0  2  0  0  0  0  0  0
  -19.4130  -28.5060   23.1110 C   0  0  0  0  0  0  0  0  0  0  0  0
  -19.1340  -29.7260   23.7630 C   0  0  0  0  0  3  0  0  0  0  0  0
  -17.8060  -30.1610   23.9400 C   0  0  0  0  0  3  0  0  0  0  0  0
  -16.7410  -29.3690   23.4780 C   0  0  0  0  0  3  0  0  0  0  0  0
  -17.0050  -28.1500   22.8300 C   0  0  0  0  0  3  0  0  0  0  0  0
  -25.9220  -32.4860   23.8710 C   0  0  0  0  0  3  0  0  0  0  0  0
  -25.5630  -33.8750   24.1840 N   0  0  0  0  0  0  0  0  0  0  0  0
  -25.8910  -34.9330   23.4300 C   0  0  0  0  0  0  0  0  0  0  0  0
  -26.6000  -34.8450   22.4240 O   0  0  0  0  0  0  0  0  0  0  0  0
  -24.9360  -34.0150   24.9620 H   0  0  0  0  0  0  0  0  0  0  0  0
  -24.1210  -36.6700   23.0130 C   0  0  0  0  0  1  0  0  0  0  0  0
  -25.3490  -36.3070   23.8640 C   0  0  0  0  0  3  0  0  0  0  0  0
  -27.4240  -37.2690   24.7600 C   0  0  0  0  0  1  0  0  0  0  0  0
  -26.3520  -37.3920   23.7760 N   0  0  0  0  0  0  0  0  0  0  0  0
  -25.9120  -38.3000   23.8970 H   0  0  0  0  0  0  0  0  0  0  0  0
  -26.4160  -31.7300   25.1650 C   0  0  1  0  0  0  0  0  0  0  0  0
  -25.2910  -31.4550   26.1910 C   0  0  0  0  0  1  0  0  0  0  0  0
  -27.0600  -30.3730   24.7940 C   0  0  0  0  0  1  0  0  0  0  0  0
  -27.5130  -32.5620   25.8710 C   0  0  0  0  0  1  0  0  0  0  0  0
  1  2  1  0
  2  4  1  0
  3  1  2  0
  7  5  1  0
  8  6  1  0
  9 11  1  0
  9 10  1  0
 10  1  1  6
 10  5  1  0
 10  6  1  0
 11 12  1  6
 11  7  1  0
 11  8  1  0
 14 12  1  0
 14 13  2  0
 15 21  1  0
 15 13  1  0
 16 21  1  0
 17 18  1  0
 17 16  1  0
 19 18  1  0
 19 26  1  0
 19 20  1  0
 21 20  1  0
 22 15  2  0
 23 24  2  0
 24 43  1  0
 25 24  1  0
 25 28  1  0
 26 27  1  0
 26 23  1  0
 27 25  2  0
 28 29  1  0
 29 30  2  0
 31 34  1  0
 31 30  1  0
 32 31  2  0
 33 32  1  0
 33 28  2  0
 34 35  1  0
 35 40  2  0
 35 36  1  0
 36 37  2  0
 37 38  1  0
 38 42  1  0
 39 38  2  0
 40 39  1  0
 41 40  1  0
 43 44  1  0
 44 47  1  0
 44 46  1  0
 45 43  2  0
 48 23  1  0
 48 49  1  0
 50 48  1  0
 51  2  1  0
 51 52  1  0
 53 55  1  0
 53 52  1  0
 54 65  2  0
 55 60  1  0
 56 64  1  0
 56 66  1  0
 57 63  1  0
 57 59  1  0
 58 64  1  0
 59 58  1  0
 60 59  2  0
 61 62  1  0
 61 55  2  0
 62 57  2  0
 63 56  1  0
 64 54  1  0
 66 68  2  0
 67 66  1  0
 69 67  1  0
 70 79  2  0
 70 75  1  0
 71 67  1  0
 71 75  1  0
 72 71  1  0
 73 74  1  0
 73 72  1  0
 74 70  1  0
 75 76  2  0
 76 77  1  0
 78 77  2  0
 79 78  1  0
 80 54  1  0
 80 81  1  0
 80 90  1  0
 81 84  1  0
 82 86  1  0
 82 81  1  0
 83 82  2  0
 86 85  1  0
 88 86  1  0
 88 89  1  0
 88 87  1  0
 90 93  1  1
 90 91  1  0
 92 90  1  0
M  ISO  4  13 100  15 100  52 101  53 101
M  END
>  <TORSDO>  (78) 
F 21

>  <SCORE>  (78) 
-12.397

>  <name>  (78) 
77

>  <ligand_id>  (78) 
77

>  <original_smiles>  (78) 
[H]C(C(=O)N1C([H])([H])C([H])([H])C([H])([H])C([H])(n2nc(-c3c([H])c([H])c(Oc4c([H])c([H])c(F)c([H])c4F)c([H])c3[H])c(C(=O)N([H])[H])c2N([H])[H])C1([H])[H])=C([H])C([H])([H])C12C([H])([H])C([H])([H])C(C(=O)N([H])C([H])([H])C([H])([H])Oc3c([H])c([H])c4c(c3[H])C([H])([H])N(C(=O)C([H])(N([H])C(=O)C([H])(N([H])C([H])([H])[H])C([H])([H])[H])C(C([H])([H])[H])(C([H])([H])[H])C([H])([H])[H])C([H])(C(=O)N([H])C3([H])c5c([H])c([H])c([H])c([H])c5C([H])([H])C([H])([H])C3([H])[H])C4([H])[H])(C([H])([H])C1([H])[H])C2([H])[H]

>  <smiles>  (78) 
[H]C(C(=O)N1C([H])([H])C([H])([H])C([H])([H])C([H])(n2nc(-c3c([H])c([H])c(Oc4c([H])c([H])c(F)c([H])c4F)c([H])c3[H])c(C(=O)N([H])[H])c2N([H])[H])C1([H])[H])=C([H])C([H])([H])C12C([H])([H])C([H])([H])C(C(=O)N([H])C([H])([H])C([H])([H])Oc3c([H])c([H])c4c(c3[H])C([H])([H])N(C(=O)C([H])(N([H])C(=O)C([H])(N([H])C([H])([H])[H])C([H])([H])[H])C(C([H])([H])[H])(C([H])([H])[H])C([H])([H])[H])C([H])(C(=O)N([H])C3([H])c5c([H])c([H])c([H])c([H])c5C([H])([H])C([H])([H])C3([H])[H])C4([H])[H])(C([H])([H])C1([H])[H])C2([H])[H]

$$$$
78:0:0
     RDKit          3D

 99108  0  0  1  0  0  0  0  0999 V2000
  -29.3700  -21.7350   17.9360 C   0  0  0  0  0  3  0  0  0  0  0  0
  -28.5640  -22.8090   17.5220 C   0  0  0  0  0  3  0  0  0  0  0  0
  -29.7850  -22.8750   20.0350 C   0  0  0  0  0  3  0  0  0  0  0  0
  -28.9500  -23.9830   19.6330 C   0  0  0  0  0  0  0  0  0  0  0  0
  -30.0120  -21.7380   19.1860 C   0  0  0  0  0  0  0  0  0  0  0  0
  -28.3520  -23.9400   18.3480 C   0  0  0  0  0  0  0  0  0  0  0  0
  -27.1460  -25.0820   16.5970 C   0  0  0  0  0  1  0  0  0  0  0  0
  -27.5680  -25.0020   17.9540 O   0  0  0  0  0  0  0  0  0  0  0  0
  -30.9160  -20.6530   19.4000 N   0  0  0  0  0  0  0  0  0  0  0  0
  -31.2780  -20.3250   18.5090 H   0  0  0  0  0  0  0  0  0  0  0  0
  -30.8430  -19.8730   21.7140 C   0  0  0  0  0  3  0  0  0  0  0  0
  -30.8610  -18.8350   22.6630 C   0  0  0  0  0  3  0  0  0  0  0  0
  -30.9810  -18.2060   19.9290 C   0  0  0  0  0  3  0  0  0  0  0  0
  -30.8950  -19.5860   20.3370 C   0  0  0  0  0  0  0  0  0  0  0  0
  -30.9220  -17.4860   22.2570 C   0  0  0  0  0  0  0  0  0  0  0  0
  -30.9770  -17.1390   20.8860 C   0  0  0  0  0  0  0  0  0  0  0  0
  -31.5360  -14.7260   20.0740 C   0  0  0  0  0  0  0  0  0  0  0  0
  -31.1810  -12.5300   18.9540 C   0  0  0  0  0  2  0  0  0  0  0  0
  -30.2130  -12.7250   17.7650 C   0  0  0  0  0  2  0  0  0  0  0  0
  -28.7390  -12.6840   18.2190 C   0  0  0  0  0  2  0  0  0  0  0  0
  -28.4720  -13.5550   19.4750 C   0  0  0  0  0  3  0  0  0  0  0  0
  -29.5310  -13.2700   20.5640 C   0  0  0  0  0  2  0  0  0  0  0  0
  -30.8570  -13.5410   19.9790 N   0  0  0  0  0  0  0  0  0  0  0  0
  -32.6630  -14.8860   19.5950 O   0  0  0  0  0  0  0  0  0  0  0  0
  -30.7990  -15.7240   20.6240 N   0  0  0  0  0  0  0  0  0  0  0  0
  -29.9630  -15.3690   21.0640 H   0  0  0  0  0  0  0  0  0  0  0  0
  -26.1430  -14.3330   20.2390 C   0  0  0  0  0  0  0  0  0  0  0  0
  -25.0240  -13.6430   20.6190 C   0  0  0  0  0  0  0  0  0  0  0  0
  -25.3750  -12.2610   20.5550 C   0  0  0  0  0  0  0  0  0  0  0  0
  -27.1110  -13.3770   19.9760 N   0  0  0  0  0  0  0  0  0  0  0  0
  -26.6520  -12.1230   20.2230 N   0  0  0  0  0  0  0  0  0  0  0  0
  -24.5540  -11.0560   20.7400 C   0  0  0  0  0  0  0  0  0  0  0  0
  -24.9140  -10.0520   21.6670 C   0  0  0  0  0  3  0  0  0  0  0  0
  -24.0980   -8.9130   21.8390 C   0  0  0  0  0  3  0  0  0  0  0  0
  -22.9100   -8.7700   21.0840 C   0  0  0  0  0  0  0  0  0  0  0  0
  -22.5690   -9.7610   20.1460 C   0  0  0  0  0  3  0  0  0  0  0  0
  -23.3840  -10.8930   19.9720 C   0  0  0  0  0  3  0  0  0  0  0  0
  -22.0710   -7.6850   21.1650 O   0  0  0  0  0  0  0  0  0  0  0  0
  -21.9230   -6.9750   22.3300 C   0  0  0  0  0  0  0  0  0  0  0  0
  -21.5250   -7.5940   23.5350 C   0  0  0  0  0  3  0  0  0  0  0  0
  -21.3180   -6.8140   24.6900 C   0  0  0  0  0  3  0  0  0  0  0  0
  -21.5020   -5.4200   24.6420 C   0  0  0  0  0  0  0  0  0  0  0  0
  -21.8940   -4.8020   23.4430 C   0  0  0  0  0  3  0  0  0  0  0  0
  -22.1030   -5.5770   22.2890 C   0  0  0  0  0  0  0  0  0  0  0  0
  -22.4610   -4.9750   21.1290 F   0  0  0  0  0  0  0  0  0  0  0  0
  -21.2950   -4.6700   25.7510 F   0  0  0  0  0  0  0  0  0  0  0  0
  -23.6740  -14.2240   20.9290 C   0  0  0  0  0  0  0  0  0  0  0  0
  -22.9250  -13.5900   21.8250 N   0  0  0  0  0  0  0  0  0  0  0  0
  -23.2960  -15.2750   20.4120 O   0  0  0  0  0  0  0  0  0  0  0  0
  -23.2450  -12.7380   22.2610 H   0  0  0  0  0  0  0  0  0  0  0  0
  -22.0210  -13.9610   22.0780 H   0  0  0  0  0  0  0  0  0  0  0  0
  -26.4130  -15.6880   20.0780 N   0  0  0  0  0  0  0  0  0  0  0  0
  -25.7030  -16.4020   20.2080 H   0  0  0  0  0  0  0  0  0  0  0  0
  -27.3020  -16.0650   19.7720 H   0  0  0  0  0  0  0  0  0  0  0  0
  -30.9130  -16.4840   23.2270 N   0  0  0  0  0  0  0  0  0  0  0  0
  -31.0700  -16.7770   24.1850 H   0  0  0  0  0  0  0  0  0  0  0  0
  -31.4580  -15.6580   23.0050 H   0  0  0  0  0  0  0  0  0  0  0  0
  -28.6200  -25.1600   20.6170 C   0  0  0  0  0  2  0  0  0  0  0  0
  -28.6800  -26.5590   20.1520 O   0  0  0  0  0  0  0  0  0  0  0  0
  -24.6650  -31.7350   23.1750 C   0  0  0  0  0  0  0  0  0  0  0  0
  -27.5020  -27.3140   20.1580 C   0  0  0  0  0  0  0  0  0  0  0  0
  -23.5400  -30.3070   21.5020 C   0  0  0  0  0  3  0  0  0  0  0  0
  -25.0720  -28.8080   20.1100 C   0  0  0  0  0  0  0  0  0  0  0  0
  -26.0670  -30.7230   21.3660 C   0  0  0  0  0  2  0  0  0  0  0  0
  -26.2100  -29.3520   20.7190 C   0  0  0  0  0  0  0  0  0  0  0  0
  -27.4320  -28.6200   20.7230 C   0  0  0  0  0  3  0  0  0  0  0  0
  -26.3300  -26.7970   19.5620 C   0  0  0  0  0  3  0  0  0  0  0  0
  -25.1320  -27.5330   19.5230 C   0  0  0  0  0  3  0  0  0  0  0  0
  -23.8050  -29.6400   20.1270 C   0  0  0  0  0  2  0  0  0  0  0  0
  -24.7750  -30.9360   22.0730 N   0  0  0  0  0  0  0  0  0  0  0  0
  -23.5620  -31.9720   23.6880 O   0  0  0  0  0  0  0  0  0  0  0  0
  -22.8890  -29.2640   22.4420 C   0  0  0  0  0  0  0  0  0  0  0  0
  -21.5690  -29.0590   22.2960 N   0  0  0  0  0  0  0  0  0  0  0  0
  -23.5720  -28.6440   23.2620 O   0  0  0  0  0  0  0  0  0  0  0  0
  -21.0770  -29.6150   21.6090 H   0  0  0  0  0  0  0  0  0  0  0  0
  -18.2160  -27.7790   22.7270 C   0  0  0  0  0  0  0  0  0  0  0  0
  -20.7620  -28.0970   23.0450 C   0  0  0  0  0  3  0  0  0  0  0  0
  -20.9090  -26.6720   22.4610 C   0  0  0  0  0  2  0  0  0  0  0  0
  -19.8340  -26.3320   21.4260 C   0  0  0  0  0  2  0  0  0  0  0  0
  -18.4380  -26.4390   22.0450 C   0  0  0  0  0  2  0  0  0  0  0  0
  -19.3080  -28.5650   23.1830 C   0  0  0  0  0  0  0  0  0  0  0  0
  -19.0480  -29.8180   23.7790 C   0  0  0  0  0  3  0  0  0  0  0  0
  -17.7290  -30.2850   23.9280 C   0  0  0  0  0  3  0  0  0  0  0  0
  -16.6510  -29.4970   23.4890 C   0  0  0  0  0  3  0  0  0  0  0  0
  -16.8950  -28.2470   22.8930 C   0  0  0  0  0  3  0  0  0  0  0  0
  -25.9140  -32.4020   23.8280 C   0  0  0  0  0  3  0  0  0  0  0  0
  -25.5520  -33.7890   24.1610 N   0  0  0  0  0  0  0  0  0  0  0  0
  -25.8660  -34.8570   23.4170 C   0  0  0  0  0  0  0  0  0  0  0  0
  -26.5560  -34.7820   22.3950 O   0  0  0  0  0  0  0  0  0  0  0  0
  -24.9420  -33.9200   24.9540 H   0  0  0  0  0  0  0  0  0  0  0  0
  -24.0840  -36.5960   23.0500 C   0  0  0  0  0  1  0  0  0  0  0  0
  -25.3280  -36.2270   23.8740 C   0  0  0  0  0  3  0  0  0  0  0  0
  -27.4220  -37.1780   24.7350 C   0  0  0  0  0  1  0  0  0  0  0  0
  -26.3270  -37.3130   23.7790 N   0  0  0  0  0  0  0  0  0  0  0  0
  -25.8890  -38.2190   23.9210 H   0  0  0  0  0  0  0  0  0  0  0  0
  -26.4270  -31.6380   25.1090 C   0  0  1  0  0  0  0  0  0  0  0  0
  -25.3200  -31.3630   26.1540 C   0  0  0  0  0  1  0  0  0  0  0  0
  -27.0560  -30.2790   24.7200 C   0  0  0  0  0  1  0  0  0  0  0  0
  -27.5400  -32.4600   25.8010 C   0  0  0  0  0  1  0  0  0  0  0  0
  1  5  1  0
  2  1  2  0
  2  6  1  0
  4  3  1  0
  4 58  1  0
  5  9  1  0
  5  3  2  0
  6  4  2  0
  7  8  1  0
  8  6  1  0
  9 14  1  0
 10  9  1  0
 11 12  1  0
 13 14  1  0
 13 16  2  0
 14 11  2  0
 15 12  2  0
 15 55  1  0
 16 15  1  0
 17 25  1  0
 18 23  1  0
 19 20  1  0
 19 18  1  0
 21 20  1  0
 21 30  1  0
 21 22  1  0
 23 17  1  0
 23 22  1  0
 24 17  2  0
 25 16  1  0
 25 26  1  0
 27 28  2  0
 28 47  1  0
 29 28  1  0
 29 32  1  0
 30 31  1  0
 30 27  1  0
 31 29  2  0
 32 33  1  0
 33 34  2  0
 35 38  1  0
 35 34  1  0
 36 35  2  0
 37 36  1  0
 37 32  2  0
 38 39  1  0
 39 40  1  0
 40 41  2  0
 42 41  1  0
 42 46  1  0
 43 42  2  0
 44 39  2  0
 44 43  1  0
 45 44  1  0
 47 48  1  0
 48 51  1  0
 48 50  1  0
 49 47  2  0
 52 53  1  0
 52 27  1  0
 54 52  1  0
 55 56  1  0
 57 55  1  0
 59 61  1  0
 59 58  1  0
 60 71  2  0
 61 66  1  0
 62 70  1  0
 62 72  1  0
 63 69  1  0
 63 65  1  0
 64 70  1  0
 65 66  2  0
 65 64  1  0
 67 61  2  0
 68 67  1  0
 68 63  2  0
 69 62  1  0
 70 60  1  0
 72 74  2  0
 73 72  1  0
 75 73  1  0
 76 85  2  0
 76 81  1  0
 77 73  1  0
 77 81  1  0
 78 77  1  0
 79 80  1  0
 79 78  1  0
 80 76  1  0
 81 82  2  0
 82 83  1  0
 84 83  2  0
 85 84  1  0
 86 60  1  0
 86 87  1  0
 86 96  1  0
 87 90  1  0
 88 92  1  0
 88 87  1  0
 89 88  2  0
 92 91  1  0
 94 92  1  0
 94 95  1  0
 94 93  1  0
 96 99  1  1
 96 97  1  0
 98 96  1  0
M  ISO  4  17 100  25 100  58 101  59 101
M  END
>  <TORSDO>  (79) 
F 21

>  <SCORE>  (79) 
-12.094

>  <name>  (79) 
78

>  <ligand_id>  (79) 
78

>  <original_smiles>  (79) 
[H]c1c([H])c([H])c2c(c1[H])C([H])([H])C([H])([H])C([H])([H])C2([H])N([H])C(=O)C1([H])N(C(=O)C([H])(N([H])C(=O)C([H])(N([H])C([H])([H])[H])C([H])([H])[H])C(C([H])([H])[H])(C([H])([H])[H])C([H])([H])[H])C([H])([H])c2c([H])c(OC([H])([H])c3c([H])c(N([H])c4c([H])c([H])c(N([H])[H])c(N([H])C(=O)N5C([H])([H])C([H])([H])C([H])([H])C([H])(n6nc(-c7c([H])c([H])c(Oc8c([H])c([H])c(F)c([H])c8F)c([H])c7[H])c(C(=O)N([H])[H])c6N([H])[H])C5([H])[H])c4[H])c([H])c([H])c3OC([H])([H])[H])c([H])c([H])c2C1([H])[H]

>  <smiles>  (79) 
[H]c1c([H])c([H])c2c(c1[H])C([H])([H])C([H])([H])C([H])([H])C2([H])N([H])C(=O)C1([H])N(C(=O)C([H])(N([H])C(=O)C([H])(N([H])C([H])([H])[H])C([H])([H])[H])C(C([H])([H])[H])(C([H])([H])[H])C([H])([H])[H])C([H])([H])c2c([H])c(OC([H])([H])c3c([H])c(N([H])c4c([H])c([H])c(N([H])[H])c(N([H])C(=O)N5C([H])([H])C([H])([H])C([H])([H])C([H])(n6nc(-c7c([H])c([H])c(Oc8c([H])c([H])c(F)c([H])c8F)c([H])c7[H])c(C(=O)N([H])[H])c6N([H])[H])C5([H])[H])c4[H])c([H])c([H])c3OC([H])([H])[H])c([H])c([H])c2C1([H])[H]

$$$$
79:0:0
     RDKit          3D

 92 99  0  0  1  0  0  0  0  0999 V2000
  -28.3630  -23.5450   18.6320 C   0  0  0  0  0  0  0  0  0  0  0  0
  -28.5220  -22.2920   18.8640 N   0  0  0  0  0  0  0  0  0  0  0  0
  -26.4400  -23.0150   17.1570 C   0  0  0  0  0  2  0  0  0  0  0  0
  -27.3420  -23.9230   17.5910 C   0  0  0  0  0  0  0  0  0  0  0  0
  -27.3150  -25.3260   16.9960 C   0  0  0  0  0  1  0  0  0  0  0  0
  -30.9070  -21.7370   18.8980 C   0  0  0  0  0  1  0  0  0  0  0  0
  -29.5730  -21.6920   19.6770 C   0  0  0  0  0  3  0  0  0  0  0  0
  -29.1280  -20.2270   19.9410 C   0  0  0  0  0  2  0  0  0  0  0  0
  -30.1440  -19.2600   20.5980 C   0  0  0  0  0  2  0  0  0  0  0  0
  -29.6640  -17.7890   20.5550 C   0  0  0  0  0  2  0  0  0  0  0  0
  -30.5070  -16.8110   21.4040 C   0  0  0  0  0  2  0  0  0  0  0  0
  -30.7050  -14.4770   20.4980 C   0  0  0  0  0  0  0  0  0  0  0  0
  -30.3650  -12.3870   19.2410 C   0  0  0  0  0  2  0  0  0  0  0  0
  -29.4150  -12.6540   18.0550 C   0  0  0  0  0  2  0  0  0  0  0  0
  -27.9390  -12.5390   18.4840 C   0  0  0  0  0  2  0  0  0  0  0  0
  -27.6280  -13.3060   19.7970 C   0  0  0  0  0  3  0  0  0  0  0  0
  -28.6890  -13.0060   20.8780 C   0  0  0  0  0  2  0  0  0  0  0  0
  -30.0150  -13.3230   20.3180 N   0  0  0  0  0  0  0  0  0  0  0  0
  -31.7930  -14.7040   19.9590 O   0  0  0  0  0  0  0  0  0  0  0  0
  -30.0740  -15.4200   21.2210 N   0  0  0  0  0  0  0  0  0  0  0  0
  -29.1910  -15.1490   21.6300 H   0  0  0  0  0  0  0  0  0  0  0  0
  -25.2290  -13.9180   20.5070 C   0  0  0  0  0  0  0  0  0  0  0  0
  -24.1570  -13.1500   20.8700 C   0  0  0  0  0  0  0  0  0  0  0  0
  -24.6060  -11.7940   20.8190 C   0  0  0  0  0  0  0  0  0  0  0  0
  -26.2700  -13.0330   20.2680 N   0  0  0  0  0  0  0  0  0  0  0  0
  -25.8960  -11.7490   20.5090 N   0  0  0  0  0  0  0  0  0  0  0  0
  -23.8700  -10.5350   20.9940 C   0  0  0  0  0  0  0  0  0  0  0  0
  -24.2850   -9.5620   21.9300 C   0  0  0  0  0  3  0  0  0  0  0  0
  -23.5510   -8.3670   22.0950 C   0  0  0  0  0  3  0  0  0  0  0  0
  -22.3880   -8.1350   21.3210 C   0  0  0  0  0  0  0  0  0  0  0  0
  -21.9940   -9.0960   20.3740 C   0  0  0  0  0  3  0  0  0  0  0  0
  -22.7270  -10.2820   20.2080 C   0  0  0  0  0  3  0  0  0  0  0  0
  -21.6290   -6.9910   21.3940 O   0  0  0  0  0  0  0  0  0  0  0  0
  -21.5480   -6.2510   22.5460 C   0  0  0  0  0  0  0  0  0  0  0  0
  -21.0510   -6.8010   23.7490 C   0  0  0  0  0  3  0  0  0  0  0  0
  -20.9180   -5.9870   24.8910 C   0  0  0  0  0  3  0  0  0  0  0  0
  -21.2740   -4.6260   24.8330 C   0  0  0  0  0  0  0  0  0  0  0  0
  -21.7640   -4.0760   23.6360 C   0  0  0  0  0  3  0  0  0  0  0  0
  -21.8970   -4.8870   22.4950 C   0  0  0  0  0  0  0  0  0  0  0  0
  -22.3500   -4.3480   21.3370 F   0  0  0  0  0  0  0  0  0  0  0  0
  -21.1380   -3.8440   25.9290 F   0  0  0  0  0  0  0  0  0  0  0  0
  -22.7640  -13.6320   21.1530 C   0  0  0  0  0  0  0  0  0  0  0  0
  -22.0340  -12.9270   22.0120 N   0  0  0  0  0  0  0  0  0  0  0  0
  -22.3310  -14.6670   20.6480 O   0  0  0  0  0  0  0  0  0  0  0  0
  -22.3970  -12.0900   22.4390 H   0  0  0  0  0  0  0  0  0  0  0  0
  -21.0970  -13.2310   22.2410 H   0  0  0  0  0  0  0  0  0  0  0  0
  -25.4130  -15.2870   20.3380 N   0  0  0  0  0  0  0  0  0  0  0  0
  -24.6580  -15.9610   20.4170 H   0  0  0  0  0  0  0  0  0  0  0  0
  -26.2670  -15.6970   19.9840 H   0  0  0  0  0  0  0  0  0  0  0  0
  -29.1940  -24.6680   19.2920 C   0  0  0  0  0  2  0  0  0  0  0  0
  -28.5170  -25.3900   20.4750 C   0  0  0  0  0  2  0  0  0  0  0  0
  -28.5800  -26.8150   20.3160 O   0  0  0  0  0  0  0  0  0  0  0  0
  -24.6040  -31.9020   23.2880 C   0  0  0  0  0  0  0  0  0  0  0  0
  -27.3880  -27.5030   20.2830 C   0  0  0  0  0  0  0  0  0  0  0  0
  -23.4570  -30.4670   21.6320 C   0  0  0  0  0  3  0  0  0  0  0  0
  -24.9660  -28.9580   20.2420 C   0  0  0  0  0  0  0  0  0  0  0  0
  -25.9790  -30.8810   21.4780 C   0  0  0  0  0  2  0  0  0  0  0  0
  -26.1020  -29.5070   20.8510 C   0  0  0  0  0  0  0  0  0  0  0  0
  -27.3170  -28.7880   20.8690 C   0  0  0  0  0  3  0  0  0  0  0  0
  -26.2320  -26.9730   19.6650 C   0  0  0  0  0  3  0  0  0  0  0  0
  -25.0260  -27.6890   19.6470 C   0  0  0  0  0  3  0  0  0  0  0  0
  -23.7060  -29.7910   20.2580 C   0  0  0  0  0  2  0  0  0  0  0  0
  -24.6980  -31.0970   22.1920 N   0  0  0  0  0  0  0  0  0  0  0  0
  -23.5060  -32.1540   23.8040 O   0  0  0  0  0  0  0  0  0  0  0  0
  -22.8110  -29.4320   22.5820 C   0  0  0  0  0  0  0  0  0  0  0  0
  -21.5040  -29.1880   22.4010 N   0  0  0  0  0  0  0  0  0  0  0  0
  -23.4870  -28.8510   23.4350 O   0  0  0  0  0  0  0  0  0  0  0  0
  -21.0100  -29.7190   21.6970 H   0  0  0  0  0  0  0  0  0  0  0  0
  -18.1730  -27.8380   22.7650 C   0  0  0  0  0  0  0  0  0  0  0  0
  -20.6970  -28.2320   23.1600 C   0  0  0  0  0  3  0  0  0  0  0  0
  -20.8980  -26.7910   22.6360 C   0  0  0  0  0  2  0  0  0  0  0  0
  -19.8660  -26.3830   21.5780 C   0  0  0  0  0  2  0  0  0  0  0  0
  -18.4470  -26.4800   22.1430 C   0  0  0  0  0  2  0  0  0  0  0  0
  -19.2290  -28.6690   23.2280 C   0  0  0  0  0  0  0  0  0  0  0  0
  -18.9180  -29.9400   23.7590 C   0  0  0  0  0  3  0  0  0  0  0  0
  -17.5830  -30.3770   23.8440 C   0  0  0  0  0  3  0  0  0  0  0  0
  -16.5420  -29.5450   23.3960 C   0  0  0  0  0  3  0  0  0  0  0  0
  -16.8380  -28.2800   22.8590 C   0  0  0  0  0  3  0  0  0  0  0  0
  -25.8620  -32.5650   23.9270 C   0  0  0  0  0  3  0  0  0  0  0  0
  -25.5230  -33.9620   24.2300 N   0  0  0  0  0  0  0  0  0  0  0  0
  -25.8410  -35.0060   23.4520 C   0  0  0  0  0  0  0  0  0  0  0  0
  -26.5240  -34.8990   22.4290 O   0  0  0  0  0  0  0  0  0  0  0  0
  -24.9340  -34.1270   25.0340 H   0  0  0  0  0  0  0  0  0  0  0  0
  -24.0810  -36.7520   23.0430 C   0  0  0  0  0  1  0  0  0  0  0  0
  -25.3180  -36.3900   23.8800 C   0  0  0  0  0  3  0  0  0  0  0  0
  -27.4170  -37.3360   24.7320 C   0  0  0  0  0  1  0  0  0  0  0  0
  -26.3280  -37.4630   23.7650 N   0  0  0  0  0  0  0  0  0  0  0  0
  -25.9020  -38.3750   23.8910 H   0  0  0  0  0  0  0  0  0  0  0  0
  -26.3710  -31.8180   25.2200 C   0  0  1  0  0  0  0  0  0  0  0  0
  -25.2680  -31.5670   26.2730 C   0  0  0  0  0  1  0  0  0  0  0  0
  -26.9940  -30.4530   24.8470 C   0  0  0  0  0  1  0  0  0  0  0  0
  -27.4850  -32.6490   25.8990 C   0  0  0  0  0  1  0  0  0  0  0  0
  1  2  2  0
  1 50  1  0
  2  7  1  0
  3  4  2  0
  4  1  1  0
  5  4  1  0
  7  6  1  0
  7  8  1  0
  8  9  1  0
 10  9  1  0
 10 11  1  0
 12 20  1  0
 13 18  1  0
 14 15  1  0
 14 13  1  0
 16 15  1  0
 16 25  1  0
 16 17  1  0
 18 12  1  0
 18 17  1  0
 19 12  2  0
 20 11  1  0
 20 21  1  0
 22 23  2  0
 23 42  1  0
 24 23  1  0
 24 27  1  0
 25 22  1  0
 25 26  1  0
 26 24  2  0
 27 28  1  0
 28 29  2  0
 30 33  1  0
 30 29  1  0
 31 30  2  0
 32 31  1  0
 32 27  2  0
 33 34  1  0
 34 35  1  0
 35 36  2  0
 37 36  1  0
 37 41  1  0
 38 37  2  0
 39 34  2  0
 39 38  1  0
 40 39  1  0
 42 43  1  0
 43 46  1  0
 43 45  1  0
 44 42  2  0
 47 48  1  0
 47 22  1  0
 49 47  1  0
 50 51  1  0
 52 51  1  0
 53 64  2  0
 54 52  1  0
 54 59  1  0
 55 63  1  0
 55 65  1  0
 56 62  1  0
 56 58  1  0
 57 63  1  0
 58 59  2  0
 58 57  1  0
 60 54  2  0
 61 60  1  0
 61 56  2  0
 62 55  1  0
 63 53  1  0
 65 67  2  0
 66 65  1  0
 68 66  1  0
 69 78  2  0
 69 74  1  0
 70 66  1  0
 70 74  1  0
 71 70  1  0
 72 73  1  0
 72 71  1  0
 73 69  1  0
 74 75  2  0
 75 76  1  0
 77 76  2  0
 78 77  1  0
 79 53  1  0
 79 80  1  0
 79 89  1  0
 80 83  1  0
 81 85  1  0
 81 80  1  0
 82 81  2  0
 85 84  1  0
 87 85  1  0
 87 88  1  0
 87 86  1  0
 89 92  1  1
 89 90  1  0
 91 89  1  0
M  ISO  4  12 100  20 100  51 101  52 101
M  END
>  <TORSDO>  (80) 
F 24

>  <SCORE>  (80) 
-12.055

>  <name>  (80) 
79

>  <ligand_id>  (80) 
79

>  <original_smiles>  (80) 
[H]C([H])=C(C(=NC([H])(C([H])([H])[H])C([H])([H])C([H])([H])C([H])([H])C([H])([H])N([H])C(=O)N1C([H])([H])C([H])([H])C([H])([H])C([H])(n2nc(-c3c([H])c([H])c(Oc4c([H])c([H])c(F)c([H])c4F)c([H])c3[H])c(C(=O)N([H])[H])c2N([H])[H])C1([H])[H])C([H])([H])C([H])([H])Oc1c([H])c([H])c2c(c1[H])C([H])([H])N(C(=O)C([H])(N([H])C(=O)C([H])(N([H])C([H])([H])[H])C([H])([H])[H])C(C([H])([H])[H])(C([H])([H])[H])C([H])([H])[H])C([H])(C(=O)N([H])C1([H])c3c([H])c([H])c([H])c([H])c3C([H])([H])C([H])([H])C1([H])[H])C2([H])[H])C([H])([H])[H]

>  <smiles>  (80) 
[H]C([H])=C(C(=NC([H])(C([H])([H])[H])C([H])([H])C([H])([H])C([H])([H])C([H])([H])N([H])C(=O)N1C([H])([H])C([H])([H])C([H])([H])C([H])(n2nc(-c3c([H])c([H])c(Oc4c([H])c([H])c(F)c([H])c4F)c([H])c3[H])c(C(=O)N([H])[H])c2N([H])[H])C1([H])[H])C([H])([H])C([H])([H])Oc1c([H])c([H])c2c(c1[H])C([H])([H])N(C(=O)C([H])(N([H])C(=O)C([H])(N([H])C([H])([H])[H])C([H])([H])[H])C(C([H])([H])[H])(C([H])([H])[H])C([H])([H])[H])C([H])(C(=O)N([H])C1([H])c3c([H])c([H])c([H])c([H])c3C([H])([H])C([H])([H])C1([H])[H])C2([H])[H])C([H])([H])[H]

$$$$
80:0:0
     RDKit          3D

101108  0  0  1  0  0  0  0  0999 V2000
  -29.3270  -22.0720   17.8620 N   0  0  0  0  0  4  0  0  0  0  0  0
  -29.6990  -21.5210   17.1080 H   0  0  0  0  0  0  0  0  0  0  0  0
  -29.1630  -22.9930   17.4700 H   0  0  0  0  0  0  0  0  0  0  0  0
  -31.6660  -21.5690   18.5410 C   0  0  0  0  0  1  0  0  0  0  0  0
  -30.3870  -22.3710   18.8490 C   0  0  0  0  0  3  0  0  0  0  0  0
  -30.6830  -23.8750   18.7520 C   0  0  0  0  0  0  0  0  0  0  0  0
  -31.2230  -24.4780   19.8200 N   0  0  0  0  0  0  0  0  0  0  0  0
  -30.4300  -24.4700   17.7020 O   0  0  0  0  0  0  0  0  0  0  0  0
  -31.3900  -23.9020   20.6360 H   0  0  0  0  0  0  0  0  0  0  0  0
  -31.7300  -25.8520   19.8820 C   0  0  0  0  0  2  0  0  0  0  0  0
  -30.6620  -26.9590   19.7390 C   0  0  0  0  0  2  0  0  0  0  0  0
  -29.5510  -26.9480   20.8060 C   0  0  0  0  0  2  0  0  0  0  0  0
  -28.3200  -26.6120   20.1670 O   0  0  0  0  0  0  0  0  0  0  0  0
  -24.5510  -31.9000   23.2210 C   0  0  0  0  0  0  0  0  0  0  0  0
  -27.2100  -27.4300   20.2250 C   0  0  0  0  0  0  0  0  0  0  0  0
  -23.3430  -30.4820   21.5900 C   0  0  0  0  0  3  0  0  0  0  0  0
  -24.7990  -28.9170   20.2000 C   0  0  0  0  0  0  0  0  0  0  0  0
  -25.8660  -30.8360   21.3950 C   0  0  0  0  0  2  0  0  0  0  0  0
  -25.9510  -29.4550   20.7850 C   0  0  0  0  0  0  0  0  0  0  0  0
  -27.1560  -28.7230   20.8000 C   0  0  0  0  0  3  0  0  0  0  0  0
  -26.0380  -26.9020   19.6430 C   0  0  0  0  0  3  0  0  0  0  0  0
  -24.8350  -27.6340   19.6280 C   0  0  0  0  0  3  0  0  0  0  0  0
  -23.5550  -29.7770   20.2240 C   0  0  0  0  0  2  0  0  0  0  0  0
  -24.6050  -31.0880   22.1280 N   0  0  0  0  0  0  0  0  0  0  0  0
  -23.4710  -32.1860   23.7540 O   0  0  0  0  0  0  0  0  0  0  0  0
  -22.6820  -29.4790   22.5620 C   0  0  0  0  0  0  0  0  0  0  0  0
  -21.3560  -29.3150   22.4390 N   0  0  0  0  0  0  0  0  0  0  0  0
  -23.3600  -28.8510   23.3810 O   0  0  0  0  0  0  0  0  0  0  0  0
  -20.8730  -29.8730   21.7500 H   0  0  0  0  0  0  0  0  0  0  0  0
  -17.9630  -28.1940   22.9650 C   0  0  0  0  0  0  0  0  0  0  0  0
  -20.5270  -28.3970   23.2190 C   0  0  0  0  0  3  0  0  0  0  0  0
  -20.5960  -26.9620   22.6460 C   0  0  0  0  0  2  0  0  0  0  0  0
  -19.4800  -26.6610   21.6410 C   0  0  0  0  0  2  0  0  0  0  0  0
  -18.1060  -26.8380   22.2940 C   0  0  0  0  0  2  0  0  0  0  0  0
  -19.1000  -28.9330   23.3850 C   0  0  0  0  0  0  0  0  0  0  0  0
  -18.9140  -30.2030   23.9710 C   0  0  0  0  0  3  0  0  0  0  0  0
  -17.6220  -30.7350   24.1420 C   0  0  0  0  0  3  0  0  0  0  0  0
  -16.4980  -29.9930   23.7390 C   0  0  0  0  0  3  0  0  0  0  0  0
  -16.6700  -28.7240   23.1550 C   0  0  0  0  0  3  0  0  0  0  0  0
  -25.8410  -32.5280   23.8390 C   0  0  0  0  0  3  0  0  0  0  0  0
  -26.3650  -31.7520   25.1090 C   0  0  1  0  0  0  0  0  0  0  0  0
  -25.2740  -31.5030   26.1780 C   0  0  0  0  0  1  0  0  0  0  0  0
  -26.9530  -30.3800   24.7050 C   0  0  0  0  0  1  0  0  0  0  0  0
  -27.5130  -32.5480   25.7740 C   0  0  0  0  0  1  0  0  0  0  0  0
  -25.5370  -33.9260   24.1700 N   0  0  0  0  0  0  0  0  0  0  0  0
  -25.8760  -34.9770   23.4120 C   0  0  0  0  0  0  0  0  0  0  0  0
  -26.5500  -34.8710   22.3820 O   0  0  0  0  0  0  0  0  0  0  0  0
  -24.9400  -34.0820   24.9690 H   0  0  0  0  0  0  0  0  0  0  0  0
  -24.1570  -36.7740   23.0440 C   0  0  0  0  0  1  0  0  0  0  0  0
  -25.3900  -36.3650   23.8650 C   0  0  0  0  0  3  0  0  0  0  0  0
  -27.5230  -37.2400   24.7110 C   0  0  0  0  0  1  0  0  0  0  0  0
  -26.4270  -37.4150   23.7610 N   0  0  0  0  0  0  0  0  0  0  0  0
  -26.0250  -38.3360   23.9080 H   0  0  0  0  0  0  0  0  0  0  0  0
  -27.5040  -22.1170   19.6420 C   0  0  0  0  0  1  0  0  0  0  0  0
  -28.0170  -21.5260   18.3120 C   0  0  0  0  0  3  0  0  0  0  0  0
  -28.0050  -19.4220   16.8330 C   0  0  0  0  0  1  0  0  0  0  0  0
  -27.9450  -19.9730   18.2680 C   0  0  0  0  0  3  0  0  0  0  0  0
  -28.7250  -18.6090   20.2040 C   0  0  0  0  0  0  0  0  0  0  0  0
  -28.9660  -19.2970   19.0770 N   0  0  0  0  0  0  0  0  0  0  0  0
  -27.6640  -18.7050   20.8260 O   0  0  0  0  0  0  0  0  0  0  0  0
  -29.8670  -19.1430   18.6460 H   0  0  0  0  0  0  0  0  0  0  0  0
  -29.8040  -17.6290   20.6870 C   0  0  0  0  0  2  0  0  0  0  0  0
  -29.2780  -16.1730   20.7100 C   0  0  0  0  0  2  0  0  0  0  0  0
  -30.7740  -14.2720   20.3180 C   0  0  0  0  0  0  0  0  0  0  0  0
  -30.3750  -12.1490   19.1280 C   0  0  0  0  0  2  0  0  0  0  0  0
  -29.4270  -12.3620   17.9330 C   0  0  0  0  0  2  0  0  0  0  0  0
  -27.9580  -12.2380   18.3770 C   0  0  0  0  0  2  0  0  0  0  0  0
  -27.6430  -13.0990   19.6290 C   0  0  0  0  0  3  0  0  0  0  0  0
  -28.7020  -12.8830   20.7340 C   0  0  0  0  0  2  0  0  0  0  0  0
  -30.0330  -13.1430   20.1560 N   0  0  0  0  0  0  0  0  0  0  0  0
  -31.8590  -14.4550   19.7650 O   0  0  0  0  0  0  0  0  0  0  0  0
  -30.2920  -15.2040   21.1490 N   0  0  0  0  0  0  0  0  0  0  0  0
  -31.0410  -15.6670   21.6440 H   0  0  0  0  0  0  0  0  0  0  0  0
  -25.2610  -13.7650   20.3380 C   0  0  0  0  0  0  0  0  0  0  0  0
  -24.1810  -13.0170   20.7250 C   0  0  0  0  0  0  0  0  0  0  0  0
  -24.6200  -11.6590   20.7190 C   0  0  0  0  0  0  0  0  0  0  0  0
  -26.2890  -12.8610   20.1200 N   0  0  0  0  0  0  0  0  0  0  0  0
  -25.9070  -11.5900   20.4060 N   0  0  0  0  0  0  0  0  0  0  0  0
  -23.8750  -10.4120   20.9340 C   0  0  0  0  0  0  0  0  0  0  0  0
  -24.2970   -9.4560   21.8820 C   0  0  0  0  0  3  0  0  0  0  0  0
  -23.5550   -8.2720   22.0830 C   0  0  0  0  0  3  0  0  0  0  0  0
  -22.3770   -8.0370   21.3350 C   0  0  0  0  0  0  0  0  0  0  0  0
  -21.9740   -8.9820   20.3750 C   0  0  0  0  0  3  0  0  0  0  0  0
  -22.7160  -10.1580   20.1730 C   0  0  0  0  0  3  0  0  0  0  0  0
  -21.6060   -6.9040   21.4450 O   0  0  0  0  0  0  0  0  0  0  0  0
  -21.5530   -6.1820   22.6100 C   0  0  0  0  0  0  0  0  0  0  0  0
  -21.1490   -6.7640   23.8320 C   0  0  0  0  0  3  0  0  0  0  0  0
  -21.0410   -5.9670   24.9890 C   0  0  0  0  0  3  0  0  0  0  0  0
  -21.3260   -4.5890   24.9250 C   0  0  0  0  0  0  0  0  0  0  0  0
  -21.7220   -4.0070   23.7090 C   0  0  0  0  0  3  0  0  0  0  0  0
  -21.8320   -4.8000   22.5540 C   0  0  0  0  0  0  0  0  0  0  0  0
  -22.1940   -4.2300   21.3790 F   0  0  0  0  0  0  0  0  0  0  0  0
  -21.2140   -3.8220   26.0350 F   0  0  0  0  0  0  0  0  0  0  0  0
  -22.7940  -13.5220   20.9960 C   0  0  0  0  0  0  0  0  0  0  0  0
  -22.0600  -12.8580   21.8820 N   0  0  0  0  0  0  0  0  0  0  0  0
  -22.3680  -14.5420   20.4550 O   0  0  0  0  0  0  0  0  0  0  0  0
  -22.4130  -12.0340   22.3450 H   0  0  0  0  0  0  0  0  0  0  0  0
  -21.1290  -13.1820   22.1050 H   0  0  0  0  0  0  0  0  0  0  0  0
  -25.4460  -15.1290   20.1330 N   0  0  0  0  0  0  0  0  0  0  0  0
  -24.6930  -15.7980   20.2420 H   0  0  0  0  0  0  0  0  0  0  0  0
  -26.3100  -15.5520   19.8170 H   0  0  0  0  0  0  0  0  0  0  0  0
  1 55  1  0
  1  5  1  0
  2  1  1  0
  3  1  1  0
  5  4  1  0
  6  5  1  0
  6  7  1  0
  7 10  1  0
  7  9  1  0
  8  6  2  0
 11 10  1  0
 11 12  1  0
 13 15  1  0
 13 12  1  0
 14 25  2  0
 15 20  1  0
 16 24  1  0
 16 26  1  0
 17 23  1  0
 17 19  1  0
 18 24  1  0
 19 20  2  0
 19 18  1  0
 21 15  2  0
 22 21  1  0
 22 17  2  0
 23 16  1  0
 24 14  1  0
 26 28  2  0
 27 26  1  0
 29 27  1  0
 30 39  2  0
 30 35  1  0
 31 27  1  0
 31 35  1  0
 32 31  1  0
 33 34  1  0
 33 32  1  0
 34 30  1  0
 35 36  2  0
 36 37  1  0
 38 37  2  0
 39 38  1  0
 40 14  1  0
 40 45  1  0
 40 41  1  0
 41 44  1  1
 41 42  1  0
 43 41  1  0
 45 48  1  0
 46 50  1  0
 46 45  1  0
 47 46  2  0
 50 49  1  0
 52 50  1  0
 52 53  1  0
 52 51  1  0
 55 54  1  0
 57 56  1  0
 57 55  1  0
 57 59  1  0
 58 62  1  0
 58 60  2  0
 59 58  1  0
 61 59  1  0
 62 63  1  0
 63 72  1  0
 64 72  1  0
 65 70  1  0
 66 67  1  0
 66 65  1  0
 68 67  1  0
 68 77  1  0
 68 69  1  0
 70 64  1  0
 70 69  1  0
 71 64  2  0
 72 73  1  0
 74 75  2  0
 75 94  1  0
 76 75  1  0
 76 79  1  0
 77 74  1  0
 77 78  1  0
 78 76  2  0
 79 80  1  0
 80 81  2  0
 82 85  1  0
 82 81  1  0
 83 82  2  0
 84 83  1  0
 84 79  2  0
 85 86  1  0
 86 87  1  0
 87 88  2  0
 89 88  1  0
 89 93  1  0
 90 89  2  0
 91 86  2  0
 91 90  1  0
 92 91  1  0
 94 95  1  0
 95 98  1  0
 95 97  1  0
 96 94  2  0
 99100  1  0
 99 74  1  0
101 99  1  0
M  ISO  4  12 101  13 101  64 100  72 100
M  END
>  <TORSDO>  (81) 
F 26

>  <SCORE>  (81) 
-12.079

>  <name>  (81) 
80

>  <ligand_id>  (81) 
80

>  <original_smiles>  (81) 
[H]c1c([H])c([H])c2c(c1[H])C([H])([H])C([H])([H])C([H])([H])C2([H])N([H])C(=O)C1([H])N(C(=O)C([H])(N([H])C(=O)C([H])(N([H])C([H])([H])[H])C([H])([H])[H])C(C([H])([H])[H])(C([H])([H])[H])C([H])([H])[H])C([H])([H])c2c([H])c(OC([H])([H])C([H])([H])C([H])([H])N([H])C(=O)C([H])(C([H])([H])[H])[N+]([H])([H])C([H])(C([H])([H])[H])C([H])(N([H])C(=O)C([H])([H])C([H])([H])N([H])C(=O)N3C([H])([H])C([H])([H])C([H])([H])C([H])(n4nc(-c5c([H])c([H])c(Oc6c([H])c([H])c(F)c([H])c6F)c([H])c5[H])c(C(=O)N([H])[H])c4N([H])[H])C3([H])[H])C([H])([H])[H])c([H])c([H])c2C1([H])[H]

>  <smiles>  (81) 
[H]c1c([H])c([H])c2c(c1[H])C([H])([H])C([H])([H])C([H])([H])C2([H])N([H])C(=O)C1([H])N(C(=O)C([H])(N([H])C(=O)C([H])(N([H])C([H])([H])[H])C([H])([H])[H])C(C([H])([H])[H])(C([H])([H])[H])C([H])([H])[H])C([H])([H])c2c([H])c(OC([H])([H])C([H])([H])C([H])([H])N([H])C(=O)C([H])(C([H])([H])[H])[N+]([H])([H])C([H])(C([H])([H])[H])C([H])(N([H])C(=O)C([H])([H])C([H])([H])N([H])C(=O)N3C([H])([H])C([H])([H])C([H])([H])C([H])(n4nc(-c5c([H])c([H])c(Oc6c([H])c([H])c(F)c([H])c6F)c([H])c5[H])c(C(=O)N([H])[H])c4N([H])[H])C3([H])[H])C([H])([H])[H])c([H])c([H])c2C1([H])[H]

$$$$
81:0:0
     RDKit          3D

 93100  0  0  1  0  0  0  0  0999 V2000
  -28.4720  -21.2510   21.1470 C   0  0  0  0  0  0  0  0  0  0  0  0
  -28.4310  -20.3820   20.1330 N   0  0  0  0  0  0  0  0  0  0  0  0
  -28.1440  -20.9700   22.3000 O   0  0  0  0  0  0  0  0  0  0  0  0
  -28.7000  -20.7370   19.2260 H   0  0  0  0  0  0  0  0  0  0  0  0
  -27.0000  -18.7350   19.0780 C   0  0  0  0  0  1  0  0  0  0  0  0
  -28.0300  -18.9820   20.1890 C   0  0  0  0  0  3  0  0  0  0  0  0
  -29.2630  -18.0630   20.0630 C   0  0  0  0  0  2  0  0  0  0  0  0
  -30.4040  -18.4650   21.0250 C   0  0  0  0  0  2  0  0  0  0  0  0
  -31.2660  -17.2990   21.5100 C   0  0  0  0  0  2  0  0  0  0  0  0
  -31.9430  -16.5190   20.3740 C   0  0  0  0  0  2  0  0  0  0  0  0
  -32.4270  -14.0870   20.0480 C   0  0  0  0  0  0  0  0  0  0  0  0
  -31.9360  -11.7780   19.3440 C   0  0  0  0  0  2  0  0  0  0  0  0
  -30.9530  -11.8080   18.1550 C   0  0  0  0  0  2  0  0  0  0  0  0
  -29.4880  -11.9340   18.6290 C   0  0  0  0  0  2  0  0  0  0  0  0
  -29.2930  -13.0570   19.6830 C   0  0  0  0  0  3  0  0  0  0  0  0
  -30.3480  -12.8960   20.7980 C   0  0  0  0  0  2  0  0  0  0  0  0
  -31.6880  -12.9590   20.1750 N   0  0  0  0  0  0  0  0  0  0  0  0
  -33.4500  -14.1860   19.3600 O   0  0  0  0  0  0  0  0  0  0  0  0
  -31.8800  -15.1120   20.6980 N   0  0  0  0  0  0  0  0  0  0  0  0
  -31.0940  -14.8420   21.2710 H   0  0  0  0  0  0  0  0  0  0  0  0
  -27.1310  -14.1270   20.6030 C   0  0  0  0  0  0  0  0  0  0  0  0
  -25.9270  -13.5830   20.9640 C   0  0  0  0  0  0  0  0  0  0  0  0
  -26.0540  -12.1750   20.7570 C   0  0  0  0  0  0  0  0  0  0  0  0
  -27.9310  -13.0610   20.2160 N   0  0  0  0  0  0  0  0  0  0  0  0
  -27.2830  -11.8770   20.3570 N   0  0  0  0  0  0  0  0  0  0  0  0
  -25.0610  -11.1000   20.8640 C   0  0  0  0  0  0  0  0  0  0  0  0
  -25.3100   -9.9410   21.6310 C   0  0  0  0  0  3  0  0  0  0  0  0
  -24.3340   -8.9240   21.7310 C   0  0  0  0  0  3  0  0  0  0  0  0
  -23.0940   -9.0660   21.0650 C   0  0  0  0  0  0  0  0  0  0  0  0
  -22.8570  -10.2120   20.2850 C   0  0  0  0  0  3  0  0  0  0  0  0
  -23.8320  -11.2180   20.1840 C   0  0  0  0  0  3  0  0  0  0  0  0
  -22.0990   -8.1210   21.0860 O   0  0  0  0  0  0  0  0  0  0  0  0
  -21.9370   -7.2690   22.1490 C   0  0  0  0  0  0  0  0  0  0  0  0
  -21.7260   -7.7470   23.4610 C   0  0  0  0  0  3  0  0  0  0  0  0
  -21.4920   -6.8380   24.5110 C   0  0  0  0  0  3  0  0  0  0  0  0
  -21.4610   -5.4550   24.2540 C   0  0  0  0  0  0  0  0  0  0  0  0
  -21.6670   -4.9780   22.9470 C   0  0  0  0  0  3  0  0  0  0  0  0
  -21.9010   -5.8840   21.8970 C   0  0  0  0  0  0  0  0  0  0  0  0
  -22.0760   -5.4180   20.6370 F   0  0  0  0  0  0  0  0  0  0  0  0
  -21.2270   -4.5830   25.2620 F   0  0  0  0  0  0  0  0  0  0  0  0
  -24.6950  -14.3300   21.3860 C   0  0  0  0  0  0  0  0  0  0  0  0
  -23.8790  -13.7290   22.2450 N   0  0  0  0  0  0  0  0  0  0  0  0
  -24.4740  -15.4750   20.9930 O   0  0  0  0  0  0  0  0  0  0  0  0
  -24.0730  -12.8010   22.5910 H   0  0  0  0  0  0  0  0  0  0  0  0
  -23.0570  -14.2170   22.5740 H   0  0  0  0  0  0  0  0  0  0  0  0
  -27.6000  -15.4350   20.5510 N   0  0  0  0  0  0  0  0  0  0  0  0
  -26.9930  -16.2220   20.7460 H   0  0  0  0  0  0  0  0  0  0  0  0
  -28.4970  -15.7040   20.1660 H   0  0  0  0  0  0  0  0  0  0  0  0
  -28.9480  -22.5360   20.6870 C   0  0  0  0  0  3  0  0  0  0  0  0
  -29.3940  -23.4670   21.5450 C   0  0  0  0  0  3  0  0  0  0  0  0
  -29.8550  -24.8330   21.0950 C   0  0  0  0  0  2  0  0  0  0  0  0
  -28.8570  -25.9080   21.5300 C   0  0  0  0  0  2  0  0  0  0  0  0
  -28.8840  -26.9680   20.5820 O   0  0  0  0  0  0  0  0  0  0  0  0
  -24.8010  -31.9910   23.4660 C   0  0  0  0  0  0  0  0  0  0  0  0
  -27.6960  -27.6430   20.5360 C   0  0  0  0  0  0  0  0  0  0  0  0
  -23.6860  -30.5030   21.8330 C   0  0  0  0  0  3  0  0  0  0  0  0
  -25.2320  -28.9990   20.4720 C   0  0  0  0  0  0  0  0  0  0  0  0
  -26.1920  -30.9770   21.6700 C   0  0  0  0  0  2  0  0  0  0  0  0
  -26.3490  -29.6000   21.0680 C   0  0  0  0  0  0  0  0  0  0  0  0
  -27.5870  -28.9280   21.0990 C   0  0  0  0  0  3  0  0  0  0  0  0
  -26.5690  -27.0370   19.9440 C   0  0  0  0  0  3  0  0  0  0  0  0
  -25.3350  -27.7130   19.9080 C   0  0  0  0  0  3  0  0  0  0  0  0
  -23.9460  -29.7960   20.4760 C   0  0  0  0  0  2  0  0  0  0  0  0
  -24.9100  -31.1710   22.3830 N   0  0  0  0  0  0  0  0  0  0  0  0
  -23.6990  -32.2280   23.9820 O   0  0  0  0  0  0  0  0  0  0  0  0
  -23.0600  -29.4770   22.8040 C   0  0  0  0  0  0  0  0  0  0  0  0
  -21.7760  -29.1480   22.5780 N   0  0  0  0  0  0  0  0  0  0  0  0
  -23.7280  -28.9780   23.7130 O   0  0  0  0  0  0  0  0  0  0  0  0
  -21.2940  -29.6050   21.8160 H   0  0  0  0  0  0  0  0  0  0  0  0
  -18.5250  -27.6000   22.8340 C   0  0  0  0  0  0  0  0  0  0  0  0
  -20.9930  -28.1760   23.3390 C   0  0  0  0  0  3  0  0  0  0  0  0
  -21.3150  -26.7300   22.8940 C   0  0  0  0  0  2  0  0  0  0  0  0
  -20.3710  -26.2100   21.8060 C   0  0  0  0  0  2  0  0  0  0  0  0
  -18.9200  -26.2370   22.2940 C   0  0  0  0  0  2  0  0  0  0  0  0
  -19.4990  -28.5180   23.3110 C   0  0  0  0  0  0  0  0  0  0  0  0
  -19.0810  -29.7870   23.7660 C   0  0  0  0  0  3  0  0  0  0  0  0
  -17.7180  -30.1410   23.7580 C   0  0  0  0  0  3  0  0  0  0  0  0
  -16.7570  -29.2240   23.3010 C   0  0  0  0  0  3  0  0  0  0  0  0
  -17.1600  -27.9560   22.8450 C   0  0  0  0  0  3  0  0  0  0  0  0
  -26.0470  -32.6860   24.0990 C   0  0  0  0  0  3  0  0  0  0  0  0
  -25.6920  -34.0900   24.3450 N   0  0  0  0  0  0  0  0  0  0  0  0
  -26.0230  -35.1090   23.5400 C   0  0  0  0  0  0  0  0  0  0  0  0
  -26.7310  -34.9700   22.5380 O   0  0  0  0  0  0  0  0  0  0  0  0
  -25.0710  -34.2730   25.1200 H   0  0  0  0  0  0  0  0  0  0  0  0
  -24.2490  -36.8190   23.0430 C   0  0  0  0  0  1  0  0  0  0  0  0
  -25.4840  -36.5070   23.9030 C   0  0  0  0  0  3  0  0  0  0  0  0
  -27.5860  -37.4900   24.7060 C   0  0  0  0  0  1  0  0  0  0  0  0
  -26.4870  -37.5830   23.7470 N   0  0  0  0  0  0  0  0  0  0  0  0
  -26.0550  -38.4970   23.8460 H   0  0  0  0  0  0  0  0  0  0  0  0
  -26.5400  -31.9930   25.4290 C   0  0  1  0  0  0  0  0  0  0  0  0
  -25.4020  -31.6960   26.4330 C   0  0  0  0  0  1  0  0  0  0  0  0
  -27.2530  -30.6570   25.1140 C   0  0  0  0  0  1  0  0  0  0  0  0
  -27.5810  -32.8940   26.1330 C   0  0  0  0  0  1  0  0  0  0  0  0
  1  3  2  0
  2  6  1  0
  2  1  1  0
  4  2  1  0
  6  5  1  0
  7  6  1  0
  7  8  1  0
  8  9  1  0
 10 19  1  0
 10  9  1  0
 11 17  1  0
 11 19  1  0
 12 17  1  0
 13 14  1  0
 13 12  1  0
 15 14  1  0
 15 24  1  0
 15 16  1  0
 17 16  1  0
 18 11  2  0
 19 20  1  0
 21 22  2  0
 22 41  1  0
 23 26  1  0
 23 22  1  0
 24 25  1  0
 24 21  1  0
 25 23  2  0
 26 27  1  0
 27 28  2  0
 29 32  1  0
 29 28  1  0
 30 29  2  0
 31 30  1  0
 31 26  2  0
 32 33  1  0
 33 34  1  0
 34 35  2  0
 36 35  1  0
 36 40  1  0
 37 36  2  0
 38 33  2  0
 38 37  1  0
 39 38  1  0
 41 42  1  0
 42 45  1  0
 42 44  1  0
 43 41  2  0
 46 21  1  0
 46 47  1  0
 48 46  1  0
 49  1  1  0
 49 50  2  0
 51 52  1  0
 51 50  1  0
 53 52  1  0
 54 65  2  0
 55 53  1  0
 55 60  1  0
 56 64  1  0
 56 66  1  0
 57 63  1  0
 57 59  1  0
 58 64  1  0
 59 60  2  0
 59 58  1  0
 61 55  2  0
 62 61  1  0
 62 57  2  0
 63 56  1  0
 64 54  1  0
 66 68  2  0
 67 66  1  0
 69 67  1  0
 70 79  2  0
 70 75  1  0
 71 67  1  0
 72 71  1  0
 73 74  1  0
 73 72  1  0
 74 70  1  0
 75 71  1  0
 75 76  2  0
 77 76  1  0
 78 77  2  0
 79 78  1  0
 80 54  1  0
 80 81  1  0
 80 90  1  0
 81 84  1  0
 82 86  1  0
 82 81  1  0
 83 82  2  0
 86 85  1  0
 88 89  1  0
 88 86  1  0
 88 87  1  0
 90 93  1  1
 90 91  1  0
 92 90  1  0
M  ISO  4  11 100  19 100  52 101  53 101
M  END
>  <TORSDO>  (82) 
F 24

>  <SCORE>  (82) 
-10.175

>  <name>  (82) 
81

>  <ligand_id>  (82) 
81

>  <original_smiles>  (82) 
[H]C(C(=O)N([H])C([H])(C([H])([H])[H])C([H])([H])C([H])([H])C([H])([H])C([H])([H])N([H])C(=O)N1C([H])([H])C([H])([H])C([H])([H])C([H])(n2nc(-c3c([H])c([H])c(Oc4c([H])c([H])c(F)c([H])c4F)c([H])c3[H])c(C(=O)N([H])[H])c2N([H])[H])C1([H])[H])=C([H])C([H])([H])C([H])([H])Oc1c([H])c([H])c2c(c1[H])C([H])([H])N(C(=O)C([H])(N([H])C(=O)C([H])(N([H])C([H])([H])[H])C([H])([H])[H])C(C([H])([H])[H])(C([H])([H])[H])C([H])([H])[H])C([H])(C(=O)N([H])C1([H])c3c([H])c([H])c([H])c([H])c3C([H])([H])C([H])([H])C1([H])[H])C2([H])[H]

>  <smiles>  (82) 
[H]C(C(=O)N([H])C([H])(C([H])([H])[H])C([H])([H])C([H])([H])C([H])([H])C([H])([H])N([H])C(=O)N1C([H])([H])C([H])([H])C([H])([H])C([H])(n2nc(-c3c([H])c([H])c(Oc4c([H])c([H])c(F)c([H])c4F)c([H])c3[H])c(C(=O)N([H])[H])c2N([H])[H])C1([H])[H])=C([H])C([H])([H])C([H])([H])Oc1c([H])c([H])c2c(c1[H])C([H])([H])N(C(=O)C([H])(N([H])C(=O)C([H])(N([H])C([H])([H])[H])C([H])([H])[H])C(C([H])([H])[H])(C([H])([H])[H])C([H])([H])[H])C([H])(C(=O)N([H])C1([H])c3c([H])c([H])c([H])c([H])c3C([H])([H])C([H])([H])C1([H])[H])C2([H])[H]

$$$$
82:0:0
     RDKit          3D

 92101  0  0  1  0  0  0  0  0999 V2000
  -30.4920  -17.3760   20.5270 C   0  0  0  0  0  0  0  0  0  0  0  0
  -30.7150  -15.9950   20.6800 C   0  0  0  0  0  0  0  0  0  0  0  0
  -30.0130  -18.2560   21.6780 C   0  0  0  0  0  2  0  0  0  0  0  0
  -30.6330  -18.4450   19.3910 C   0  0  0  0  0  2  0  0  0  0  0  0
  -29.1350  -20.6690   21.9310 C   0  0  0  0  0  2  0  0  0  0  0  0
  -30.3520  -21.4620   21.4640 C   0  0  0  0  0  2  0  0  0  0  0  0
  -29.1530  -19.3970   21.0820 C   0  0  0  0  0  3  0  0  0  0  0  0
  -29.7640  -19.7830   19.7220 C   0  0  0  0  0  3  0  0  0  0  0  0
  -30.3670  -21.3020   19.9280 C   0  0  0  0  0  3  0  0  0  0  0  0
  -30.7040  -15.4740   22.1250 C   0  0  0  0  0  1  0  0  0  0  0  0
  -31.2200  -14.9430   19.7070 C   0  0  0  0  0  0  0  0  0  0  0  0
  -30.9370  -12.6260   18.7300 C   0  0  0  0  0  2  0  0  0  0  0  0
  -29.9270  -12.6180   17.5590 C   0  0  0  0  0  2  0  0  0  0  0  0
  -28.4870  -12.4680   18.0850 C   0  0  0  0  0  2  0  0  0  0  0  0
  -28.1920  -13.4440   19.2530 C   0  0  0  0  0  3  0  0  0  0  0  0
  -29.2940  -13.3840   20.3220 C   0  0  0  0  0  2  0  0  0  0  0  0
  -30.5710  -13.7200   19.6700 N   0  0  0  0  0  0  0  0  0  0  0  0
  -32.2490  -15.0850   19.0380 O   0  0  0  0  0  0  0  0  0  0  0  0
  -25.9320  -14.1590   20.2340 C   0  0  0  0  0  0  0  0  0  0  0  0
  -24.8450  -13.4440   20.6580 C   0  0  0  0  0  0  0  0  0  0  0  0
  -25.1960  -12.0670   20.5000 C   0  0  0  0  0  0  0  0  0  0  0  0
  -26.8750  -13.2240   19.8410 N   0  0  0  0  0  0  0  0  0  0  0  0
  -26.4470  -11.9560   20.0690 N   0  0  0  0  0  0  0  0  0  0  0  0
  -24.3960  -10.8500   20.6890 C   0  0  0  0  0  0  0  0  0  0  0  0
  -24.8460   -9.7870   21.5040 C   0  0  0  0  0  3  0  0  0  0  0  0
  -24.0500   -8.6360   21.6830 C   0  0  0  0  0  3  0  0  0  0  0  0
  -22.7920   -8.5370   21.0440 C   0  0  0  0  0  0  0  0  0  0  0  0
  -22.3580   -9.5880   20.2180 C   0  0  0  0  0  3  0  0  0  0  0  0
  -23.1530  -10.7300   20.0370 C   0  0  0  0  0  3  0  0  0  0  0  0
  -21.9620   -7.4440   21.1380 O   0  0  0  0  0  0  0  0  0  0  0  0
  -22.0020   -6.6000   22.2170 C   0  0  0  0  0  0  0  0  0  0  0  0
  -21.7770   -7.0630   23.5320 C   0  0  0  0  0  3  0  0  0  0  0  0
  -21.7610   -6.1510   24.6050 C   0  0  0  0  0  3  0  0  0  0  0  0
  -21.9560   -4.7780   24.3670 C   0  0  0  0  0  0  0  0  0  0  0  0
  -22.1730   -4.3140   23.0570 C   0  0  0  0  0  3  0  0  0  0  0  0
  -22.1940   -5.2230   21.9850 C   0  0  0  0  0  0  0  0  0  0  0  0
  -22.3840   -4.7700   20.7230 F   0  0  0  0  0  0  0  0  0  0  0  0
  -21.9300   -3.9010   25.3970 F   0  0  0  0  0  0  0  0  0  0  0  0
  -23.5220  -14.0030   21.0940 C   0  0  0  0  0  0  0  0  0  0  0  0
  -22.8240  -13.3090   21.9860 N   0  0  0  0  0  0  0  0  0  0  0  0
  -23.1190  -15.0890   20.6770 O   0  0  0  0  0  0  0  0  0  0  0  0
  -23.1650  -12.4290   22.3430 H   0  0  0  0  0  0  0  0  0  0  0  0
  -21.9330  -13.6550   22.3130 H   0  0  0  0  0  0  0  0  0  0  0  0
  -26.1910  -15.5220   20.1260 N   0  0  0  0  0  0  0  0  0  0  0  0
  -25.5080  -16.2280   20.3720 H   0  0  0  0  0  0  0  0  0  0  0  0
  -27.0600  -15.9070   19.7830 H   0  0  0  0  0  0  0  0  0  0  0  0
  -29.6600  -22.5060   19.2550 N   0  0  0  0  0  4  0  0  0  0  0  0
  -28.6860  -22.2650   19.1560 H   0  0  0  0  0  0  0  0  0  0  0  0
  -30.0220  -22.5540   18.3160 H   0  0  0  0  0  0  0  0  0  0  0  0
  -29.6870  -23.9370   19.8680 C   0  0  0  0  0  3  0  0  0  0  0  0
  -29.2770  -25.2010   18.9230 C   0  0  0  0  0  3  0  0  0  0  0  0
  -29.1670  -26.6440   19.3920 O   0  0  0  0  0  0  0  0  0  0  0  0
  -24.8020  -31.1760   22.9800 C   0  0  0  0  0  0  0  0  0  0  0  0
  -27.9680  -27.4080   19.3680 C   0  0  0  0  0  0  0  0  0  0  0  0
  -23.7940  -29.9070   21.1230 C   0  0  0  0  0  3  0  0  0  0  0  0
  -25.4350  -28.7770   19.5140 C   0  0  0  0  0  0  0  0  0  0  0  0
  -26.2820  -30.5390   21.0560 C   0  0  0  0  0  2  0  0  0  0  0  0
  -26.5340  -29.2880   20.2110 C   0  0  0  0  0  0  0  0  0  0  0  0
  -27.7990  -28.6150   20.1320 C   0  0  0  0  0  3  0  0  0  0  0  0
  -26.8380  -26.9860   18.6260 C   0  0  0  0  0  3  0  0  0  0  0  0
  -25.5940  -27.6380   18.7120 C   0  0  0  0  0  3  0  0  0  0  0  0
  -24.0980  -29.4800   19.6610 C   0  0  0  0  0  2  0  0  0  0  0  0
  -24.9750  -30.5550   21.7750 N   0  0  0  0  0  0  0  0  0  0  0  0
  -23.6880  -31.2360   23.5230 O   0  0  0  0  0  0  0  0  0  0  0  0
  -23.2570  -28.6810   21.9020 C   0  0  0  0  0  0  0  0  0  0  0  0
  -21.9700  -28.3480   21.6990 N   0  0  0  0  0  0  0  0  0  0  0  0
  -24.0010  -28.0410   22.6530 O   0  0  0  0  0  0  0  0  0  0  0  0
  -21.4210  -28.9290   21.0810 H   0  0  0  0  0  0  0  0  0  0  0  0
  -18.7980  -26.6200   21.8610 C   0  0  0  0  0  0  0  0  0  0  0  0
  -21.2750  -27.2070   22.2970 C   0  0  0  0  0  3  0  0  0  0  0  0
  -21.6120  -25.8960   21.5470 C   0  0  0  0  0  2  0  0  0  0  0  0
  -20.6060  -25.5550   20.4430 C   0  0  0  0  0  2  0  0  0  0  0  0
  -19.1990  -25.4140   21.0240 C   0  0  0  0  0  2  0  0  0  0  0  0
  -19.7730  -27.4700   22.4440 C   0  0  0  0  0  0  0  0  0  0  0  0
  -19.3450  -28.5920   23.1850 C   0  0  0  0  0  3  0  0  0  0  0  0
  -17.9760  -28.8710   23.3500 C   0  0  0  0  0  3  0  0  0  0  0  0
  -17.0150  -28.0190   22.7800 C   0  0  0  0  0  3  0  0  0  0  0  0
  -17.4270  -26.8920   22.0440 C   0  0  0  0  0  3  0  0  0  0  0  0
  -25.9900  -31.8620   23.7210 C   0  0  0  0  0  3  0  0  0  0  0  0
  -26.5390  -31.0130   24.9330 C   0  0  1  0  0  0  0  0  0  0  0  0
  -25.4410  -30.5650   25.9260 C   0  0  0  0  0  1  0  0  0  0  0  0
  -27.2660  -29.7450   24.4290 C   0  0  0  0  0  1  0  0  0  0  0  0
  -27.5850  -31.8380   25.7200 C   0  0  0  0  0  1  0  0  0  0  0  0
  -25.5220  -33.1770   24.1850 N   0  0  0  0  0  0  0  0  0  0  0  0
  -25.7900  -34.3410   23.5770 C   0  0  0  0  0  0  0  0  0  0  0  0
  -26.5200  -34.4260   22.5870 O   0  0  0  0  0  0  0  0  0  0  0  0
  -24.8720  -33.1820   24.9570 H   0  0  0  0  0  0  0  0  0  0  0  0
  -23.9010  -35.9880   23.3290 C   0  0  0  0  0  1  0  0  0  0  0  0
  -25.1390  -35.6120   24.1590 C   0  0  0  0  0  3  0  0  0  0  0  0
  -27.1280  -36.6010   25.2060 C   0  0  0  0  0  1  0  0  0  0  0  0
  -26.0610  -36.7670   24.2230 N   0  0  0  0  0  0  0  0  0  0  0  0
  -25.5550  -37.6210   24.4410 H   0  0  0  0  0  0  0  0  0  0  0  0
  1  2  2  0
  1  3  1  0
  2 10  1  0
  4  1  1  0
  6  5  1  0
  7  3  1  0
  7  5  1  0
  8  4  1  0
  8  9  1  0
  8  7  1  0
  9 47  1  0
  9  6  1  0
 11  2  1  0
 12 17  1  0
 13 14  1  0
 13 12  1  0
 15 14  1  0
 15 22  1  0
 15 16  1  0
 17 11  1  0
 17 16  1  0
 18 11  2  0
 19 20  2  0
 20 39  1  0
 21 20  1  0
 21 24  1  0
 22 23  1  0
 22 19  1  0
 23 21  2  0
 24 25  1  0
 25 26  2  0
 27 30  1  0
 27 26  1  0
 28 27  2  0
 29 28  1  0
 29 24  2  0
 30 31  1  0
 31 32  1  0
 32 33  2  0
 34 33  1  0
 34 38  1  0
 35 34  2  0
 36 31  2  0
 36 35  1  0
 37 36  1  0
 39 40  1  0
 40 43  1  0
 40 42  1  0
 41 39  2  0
 44 19  1  0
 44 45  1  0
 46 44  1  0
 47 50  1  0
 48 47  1  0
 49 47  1  0
 51 52  1  0
 51 50  2  0
 53 64  2  0
 54 52  1  0
 54 59  1  0
 55 63  1  0
 55 65  1  0
 56 62  1  0
 56 58  1  0
 57 63  1  0
 58 57  1  0
 59 58  2  0
 60 61  1  0
 60 54  2  0
 61 56  2  0
 62 55  1  0
 63 53  1  0
 65 67  2  0
 66 65  1  0
 68 66  1  0
 69 78  2  0
 69 74  1  0
 70 66  1  0
 70 74  1  0
 71 70  1  0
 72 73  1  0
 72 71  1  0
 73 69  1  0
 74 75  2  0
 75 76  1  0
 77 76  2  0
 78 77  1  0
 79 53  1  0
 79 84  1  0
 79 80  1  0
 80 83  1  1
 80 81  1  0
 82 80  1  0
 84 87  1  0
 85 89  1  0
 85 84  1  0
 86 85  2  0
 89 88  1  0
 89 91  1  0
 91 92  1  0
 91 90  1  0
M  ISO  4   2 100  11 100  51 101  52 101
M  END
>  <TORSDO>  (83) 
F 19

>  <SCORE>  (83) 
-9.548

>  <name>  (83) 
82

>  <ligand_id>  (83) 
82

>  <original_smiles>  (83) 
[H]c1c([H])c([H])c2c(c1[H])C([H])([H])C([H])([H])C([H])([H])C2([H])N([H])C(=O)C1([H])N(C(=O)C([H])(N([H])C(=O)C([H])(N([H])C([H])([H])[H])C([H])([H])[H])C(C([H])([H])[H])(C([H])([H])[H])C([H])([H])[H])C([H])([H])c2c([H])c(OC([H])([H])C([H])([H])[N+]([H])([H])C3([H])C([H])([H])C([H])([H])C4([H])C([H])([H])C(=C(C(=O)N5C([H])([H])C([H])([H])C([H])([H])C([H])(n6nc(-c7c([H])c([H])c(Oc8c([H])c([H])c(F)c([H])c8F)c([H])c7[H])c(C(=O)N([H])[H])c6N([H])[H])C5([H])[H])C([H])([H])[H])C([H])([H])C43[H])c([H])c([H])c2C1([H])[H]

>  <smiles>  (83) 
[H]c1c([H])c([H])c2c(c1[H])C([H])([H])C([H])([H])C([H])([H])C2([H])N([H])C(=O)C1([H])N(C(=O)C([H])(N([H])C(=O)C([H])(N([H])C([H])([H])[H])C([H])([H])[H])C(C([H])([H])[H])(C([H])([H])[H])C([H])([H])[H])C([H])([H])c2c([H])c(OC([H])([H])C([H])([H])[N+]([H])([H])C3([H])C([H])([H])C([H])([H])C4([H])C([H])([H])C(=C(C(=O)N5C([H])([H])C([H])([H])C([H])([H])C([H])(n6nc(-c7c([H])c([H])c(Oc8c([H])c([H])c(F)c([H])c8F)c([H])c7[H])c(C(=O)N([H])[H])c6N([H])[H])C5([H])[H])C([H])([H])[H])C([H])([H])C43[H])c([H])c([H])c2C1([H])[H]

$$$$
83:0:0
     RDKit          3D

 92 99  0  0  1  0  0  0  0  0999 V2000
  -29.6680  -20.7120   20.3590 C   0  0  0  0  0  2  0  0  0  0  0  0
  -28.8170  -23.3730   20.3640 C   0  0  0  0  0  3  0  0  0  0  0  0
  -28.7430  -22.0140   19.9420 C   0  0  0  0  0  0  0  0  0  0  0  0
  -27.7180  -21.6200   18.8880 C   0  0  0  0  0  1  0  0  0  0  0  0
  -27.9350  -24.6920   19.9220 C   0  0  0  0  0  2  0  0  0  0  0  0
  -28.2350  -26.1820   20.2580 O   0  0  0  0  0  0  0  0  0  0  0  0
  -24.6270  -31.8900   23.2420 C   0  0  0  0  0  0  0  0  0  0  0  0
  -27.1910  -27.1790   20.1840 C   0  0  0  0  0  0  0  0  0  0  0  0
  -23.4210  -30.5000   21.6030 C   0  0  0  0  0  3  0  0  0  0  0  0
  -24.8630  -28.9290   20.1690 C   0  0  0  0  0  0  0  0  0  0  0  0
  -25.9760  -30.7550   21.4380 C   0  0  0  0  0  2  0  0  0  0  0  0
  -26.0440  -29.3650   20.7830 C   0  0  0  0  0  0  0  0  0  0  0  0
  -27.2070  -28.5060   20.7770 C   0  0  0  0  0  3  0  0  0  0  0  0
  -25.9840  -26.8520   19.5210 C   0  0  0  0  0  3  0  0  0  0  0  0
  -24.8460  -27.6850   19.5240 C   0  0  0  0  0  3  0  0  0  0  0  0
  -23.6370  -29.8280   20.2220 C   0  0  0  0  0  2  0  0  0  0  0  0
  -24.6950  -31.0690   22.1500 N   0  0  0  0  0  0  0  0  0  0  0  0
  -23.5420  -32.1780   23.7710 O   0  0  0  0  0  0  0  0  0  0  0  0
  -22.7420  -29.4920   22.5650 C   0  0  0  0  0  0  0  0  0  0  0  0
  -21.4140  -29.3220   22.4370 N   0  0  0  0  0  0  0  0  0  0  0  0
  -23.4120  -28.8640   23.3900 O   0  0  0  0  0  0  0  0  0  0  0  0
  -20.9280  -29.8780   21.7480 H   0  0  0  0  0  0  0  0  0  0  0  0
  -18.0310  -28.1240   22.9410 C   0  0  0  0  0  0  0  0  0  0  0  0
  -20.5900  -28.3860   23.2100 C   0  0  0  0  0  3  0  0  0  0  0  0
  -20.6920  -26.9540   22.6380 C   0  0  0  0  0  2  0  0  0  0  0  0
  -19.5920  -26.6280   21.6230 C   0  0  0  0  0  2  0  0  0  0  0  0
  -18.2090  -26.7740   22.2660 C   0  0  0  0  0  2  0  0  0  0  0  0
  -19.1490  -28.8880   23.3700 C   0  0  0  0  0  0  0  0  0  0  0  0
  -18.9300  -30.1490   23.9630 C   0  0  0  0  0  3  0  0  0  0  0  0
  -17.6250  -30.6490   24.1310 C   0  0  0  0  0  3  0  0  0  0  0  0
  -16.5210  -29.8830   23.7190 C   0  0  0  0  0  3  0  0  0  0  0  0
  -16.7260  -28.6230   23.1300 C   0  0  0  0  0  3  0  0  0  0  0  0
  -25.9070  -32.5240   23.8660 C   0  0  0  0  0  3  0  0  0  0  0  0
  -25.5980  -33.9230   24.2030 N   0  0  0  0  0  0  0  0  0  0  0  0
  -25.9190  -34.9800   23.4440 C   0  0  0  0  0  0  0  0  0  0  0  0
  -26.5740  -34.8790   22.4030 O   0  0  0  0  0  0  0  0  0  0  0  0
  -25.0160  -34.0750   25.0120 H   0  0  0  0  0  0  0  0  0  0  0  0
  -24.1850  -36.7760   23.1260 C   0  0  0  0  0  1  0  0  0  0  0  0
  -25.4400  -36.3680   23.9140 C   0  0  0  0  0  3  0  0  0  0  0  0
  -27.5860  -37.2570   24.7110 C   0  0  0  0  0  1  0  0  0  0  0  0
  -26.4710  -37.4230   23.7840 N   0  0  0  0  0  0  0  0  0  0  0  0
  -26.0640  -38.3420   23.9350 H   0  0  0  0  0  0  0  0  0  0  0  0
  -26.4200  -31.7530   25.1450 C   0  0  1  0  0  0  0  0  0  0  0  0
  -25.3250  -31.5150   26.2120 C   0  0  0  0  0  1  0  0  0  0  0  0
  -27.0010  -30.3730   24.7600 C   0  0  0  0  0  1  0  0  0  0  0  0
  -27.5720  -32.5440   25.8080 C   0  0  0  0  0  1  0  0  0  0  0  0
  -29.1700  -19.2060   20.3960 N   0  0  0  0  0  4  0  0  0  0  0  0
  -28.5900  -19.0880   19.5800 H   0  0  0  0  0  0  0  0  0  0  0  0
  -28.5790  -19.1040   21.2030 H   0  0  0  0  0  0  0  0  0  0  0  0
  -30.1480  -17.9580   20.3380 C   0  0  0  0  0  3  0  0  0  0  0  0
  -30.8000  -17.9850   18.9530 C   0  0  0  0  0  0  0  0  0  0  0  0
  -32.1170  -17.8470   18.8680 N   0  0  0  0  0  0  0  0  0  0  0  0
  -30.1100  -18.1640   17.9500 O   0  0  0  0  0  0  0  0  0  0  0  0
  -32.5770  -17.8670   17.9700 H   0  0  0  0  0  0  0  0  0  0  0  0
  -32.6690  -17.6610   19.6950 H   0  0  0  0  0  0  0  0  0  0  0  0
  -29.6420  -16.3770   20.6570 C   0  0  0  0  0  2  0  0  0  0  0  0
  -30.4780  -14.9700   20.3680 C   0  0  0  0  0  0  0  0  0  0  0  0
  -30.3620  -12.6350   19.3830 C   0  0  0  0  0  2  0  0  0  0  0  0
  -29.4270  -12.6490   18.1480 C   0  0  0  0  0  2  0  0  0  0  0  0
  -27.9610  -12.4360   18.5710 C   0  0  0  0  0  2  0  0  0  0  0  0
  -27.5600  -13.3340   19.7700 C   0  0  0  0  0  3  0  0  0  0  0  0
  -28.6140  -13.3000   20.8960 C   0  0  0  0  0  2  0  0  0  0  0  0
  -29.9000  -13.7030   20.3150 N   0  0  0  0  0  0  0  0  0  0  0  0
  -31.6720  -15.0350   20.0600 O   0  0  0  0  0  0  0  0  0  0  0  0
  -25.1740  -13.9130   20.4950 C   0  0  0  0  0  0  0  0  0  0  0  0
  -24.1100  -13.1360   20.8650 C   0  0  0  0  0  0  0  0  0  0  0  0
  -24.5770  -11.7860   20.8390 C   0  0  0  0  0  0  0  0  0  0  0  0
  -26.2190  -13.0340   20.2600 N   0  0  0  0  0  0  0  0  0  0  0  0
  -25.8690  -11.7510   20.5340 N   0  0  0  0  0  0  0  0  0  0  0  0
  -23.8520  -10.5240   21.0310 C   0  0  0  0  0  0  0  0  0  0  0  0
  -24.2830   -9.5560   21.9660 C   0  0  0  0  0  3  0  0  0  0  0  0
  -23.5560   -8.3580   22.1430 C   0  0  0  0  0  3  0  0  0  0  0  0
  -22.3860   -8.1180   21.3840 C   0  0  0  0  0  0  0  0  0  0  0  0
  -21.9750   -9.0750   20.4380 C   0  0  0  0  0  3  0  0  0  0  0  0
  -22.7020  -10.2630   20.2580 C   0  0  0  0  0  3  0  0  0  0  0  0
  -21.6300   -6.9730   21.4720 O   0  0  0  0  0  0  0  0  0  0  0  0
  -21.5790   -6.2310   22.6250 C   0  0  0  0  0  0  0  0  0  0  0  0
  -21.1410   -6.7850   23.8480 C   0  0  0  0  0  3  0  0  0  0  0  0
  -21.0380   -5.9690   24.9930 C   0  0  0  0  0  3  0  0  0  0  0  0
  -21.3620   -4.6010   24.9150 C   0  0  0  0  0  0  0  0  0  0  0  0
  -21.7940   -4.0480   23.6970 C   0  0  0  0  0  3  0  0  0  0  0  0
  -21.9000   -4.8600   22.5540 C   0  0  0  0  0  0  0  0  0  0  0  0
  -22.2960   -4.3190   21.3780 F   0  0  0  0  0  0  0  0  0  0  0  0
  -21.2570   -3.8150   26.0120 F   0  0  0  0  0  0  0  0  0  0  0  0
  -22.7110  -13.6120   21.1280 C   0  0  0  0  0  0  0  0  0  0  0  0
  -21.9780  -12.9150   21.9900 N   0  0  0  0  0  0  0  0  0  0  0  0
  -22.2740  -14.6340   20.6030 O   0  0  0  0  0  0  0  0  0  0  0  0
  -22.3470  -12.0890   22.4400 H   0  0  0  0  0  0  0  0  0  0  0  0
  -21.0390  -13.2150   22.2100 H   0  0  0  0  0  0  0  0  0  0  0  0
  -25.3380  -15.2830   20.3160 N   0  0  0  0  0  0  0  0  0  0  0  0
  -24.5700  -15.9380   20.4240 H   0  0  0  0  0  0  0  0  0  0  0  0
  -26.1850  -15.7170   19.9770 H   0  0  0  0  0  0  0  0  0  0  0  0
  1 47  1  0
  3  1  1  0
  3  2  2  0
  4  3  1  0
  5  6  1  0
  5  2  1  0
  7 18  2  0
  8  6  1  0
  8 13  1  0
  9 17  1  0
  9 19  1  0
 10 16  1  0
 10 12  1  0
 11 17  1  0
 12 11  1  0
 13 12  2  0
 14 15  1  0
 14  8  2  0
 15 10  2  0
 16  9  1  0
 17  7  1  0
 19 21  2  0
 20 19  1  0
 22 20  1  0
 23 32  2  0
 23 28  1  0
 24 20  1  0
 24 28  1  0
 25 24  1  0
 26 27  1  0
 26 25  1  0
 27 23  1  0
 28 29  2  0
 29 30  1  0
 31 30  2  0
 32 31  1  0
 33  7  1  0
 33 34  1  0
 33 43  1  0
 34 37  1  0
 35 39  1  0
 35 34  1  0
 36 35  2  0
 39 38  1  0
 41 39  1  0
 41 42  1  0
 41 40  1  0
 43 46  1  1
 43 44  1  0
 45 43  1  0
 47 49  1  0
 48 47  1  0
 50 47  1  0
 50 56  1  0
 51 50  1  0
 52 51  1  0
 52 55  1  0
 53 51  2  0
 54 52  1  0
 57 56  1  0
 58 63  1  0
 59 60  1  0
 59 58  1  0
 61 60  1  0
 61 68  1  0
 61 62  1  0
 63 57  1  0
 63 62  1  0
 64 57  2  0
 65 66  2  0
 66 85  1  0
 67 66  1  0
 67 70  1  0
 68 65  1  0
 68 69  1  0
 69 67  2  0
 70 71  1  0
 71 72  2  0
 73 76  1  0
 73 72  1  0
 74 73  2  0
 75 74  1  0
 75 70  2  0
 76 77  1  0
 77 78  1  0
 78 79  2  0
 80 79  1  0
 80 84  1  0
 81 80  2  0
 82 77  2  0
 82 81  1  0
 83 82  1  0
 85 86  1  0
 86 89  1  0
 86 88  1  0
 87 85  2  0
 90 91  1  0
 90 65  1  0
 92 90  1  0
M  ISO  4   5 101   6 101  56 100  57 100
M  END
>  <TORSDO>  (84) 
F 22

>  <SCORE>  (84) 
-13.137

>  <name>  (84) 
83

>  <ligand_id>  (84) 
83

>  <original_smiles>  (84) 
[H]C(=C(C([H])([H])[H])C([H])([H])[N+]([H])([H])C([H])(C(=O)N([H])[H])C([H])([H])C(=O)N1C([H])([H])C([H])([H])C([H])([H])C([H])(n2nc(-c3c([H])c([H])c(Oc4c([H])c([H])c(F)c([H])c4F)c([H])c3[H])c(C(=O)N([H])[H])c2N([H])[H])C1([H])[H])C([H])([H])Oc1c([H])c([H])c2c(c1[H])C([H])([H])N(C(=O)C([H])(N([H])C(=O)C([H])(N([H])C([H])([H])[H])C([H])([H])[H])C(C([H])([H])[H])(C([H])([H])[H])C([H])([H])[H])C([H])(C(=O)N([H])C1([H])c3c([H])c([H])c([H])c([H])c3C([H])([H])C([H])([H])C1([H])[H])C2([H])[H]

>  <smiles>  (84) 
[H]C(=C(C([H])([H])[H])C([H])([H])[N+]([H])([H])C([H])(C(=O)N([H])[H])C([H])([H])C(=O)N1C([H])([H])C([H])([H])C([H])([H])C([H])(n2nc(-c3c([H])c([H])c(Oc4c([H])c([H])c(F)c([H])c4F)c([H])c3[H])c(C(=O)N([H])[H])c2N([H])[H])C1([H])[H])C([H])([H])Oc1c([H])c([H])c2c(c1[H])C([H])([H])N(C(=O)C([H])(N([H])C(=O)C([H])(N([H])C([H])([H])[H])C([H])([H])[H])C(C([H])([H])[H])(C([H])([H])[H])C([H])([H])[H])C([H])(C(=O)N([H])C1([H])c3c([H])c([H])c([H])c([H])c3C([H])([H])C([H])([H])C1([H])[H])C2([H])[H]

$$$$
84:0:0
     RDKit          3D

 86 94  0  0  1  0  0  0  0  0999 V2000
  -29.6400  -18.0240   20.2910 C   0  0  0  0  0  0  0  0  0  0  0  0
  -30.6220  -18.8960   19.4960 C   0  0  0  0  0  0  0  0  0  0  0  0
  -28.7080  -19.3810   20.7540 C   0  0  0  0  0  2  0  0  0  0  0  0
  -30.4040  -20.4780   19.5870 C   0  0  0  0  0  2  0  0  0  0  0  0
  -28.9560  -20.9270   20.0190 C   0  0  0  0  0  3  0  0  0  0  0  0
  -29.5260  -16.6290   20.5660 N   0  0  0  0  0  0  0  0  0  0  0  0
  -31.5550  -18.4300   18.8330 O   0  0  0  0  0  0  0  0  0  0  0  0
  -30.3800  -15.3610   20.2970 C   0  0  0  0  0  0  0  0  0  0  0  0
  -30.4140  -12.8850   19.4700 C   0  0  0  0  0  2  0  0  0  0  0  0
  -29.5170  -12.6720   18.2200 C   0  0  0  0  0  2  0  0  0  0  0  0
  -28.0610  -12.3930   18.6320 C   0  0  0  0  0  2  0  0  0  0  0  0
  -27.5830  -13.3630   19.7430 C   0  0  0  0  0  3  0  0  0  0  0  0
  -28.6080  -13.5390   20.8830 C   0  0  0  0  0  2  0  0  0  0  0  0
  -29.8600  -14.0320   20.2870 N   0  0  0  0  0  0  0  0  0  0  0  0
  -31.5810  -15.3720   19.9950 O   0  0  0  0  0  0  0  0  0  0  0  0
  -25.2000  -13.9150   20.4560 C   0  0  0  0  0  0  0  0  0  0  0  0
  -24.1350  -13.1360   20.8140 C   0  0  0  0  0  0  0  0  0  0  0  0
  -24.6090  -11.7860   20.8000 C   0  0  0  0  0  0  0  0  0  0  0  0
  -26.2500  -13.0420   20.2340 N   0  0  0  0  0  0  0  0  0  0  0  0
  -25.9070  -11.7560   20.5100 N   0  0  0  0  0  0  0  0  0  0  0  0
  -23.8830  -10.5220   20.9850 C   0  0  0  0  0  0  0  0  0  0  0  0
  -24.3010   -9.5610   21.9310 C   0  0  0  0  0  3  0  0  0  0  0  0
  -23.5720   -8.3640   22.1060 C   0  0  0  0  0  3  0  0  0  0  0  0
  -22.4110   -8.1200   21.3340 C   0  0  0  0  0  0  0  0  0  0  0  0
  -22.0100   -9.0720   20.3780 C   0  0  0  0  0  3  0  0  0  0  0  0
  -22.7410  -10.2590   20.2030 C   0  0  0  0  0  3  0  0  0  0  0  0
  -21.6540   -6.9760   21.4210 O   0  0  0  0  0  0  0  0  0  0  0  0
  -21.5880   -6.2370   22.5760 C   0  0  0  0  0  0  0  0  0  0  0  0
  -21.1370   -6.7970   23.7920 C   0  0  0  0  0  3  0  0  0  0  0  0
  -21.0180   -5.9860   24.9380 C   0  0  0  0  0  3  0  0  0  0  0  0
  -21.3400   -4.6170   24.8700 C   0  0  0  0  0  0  0  0  0  0  0  0
  -21.7850   -4.0580   23.6600 C   0  0  0  0  0  3  0  0  0  0  0  0
  -21.9040   -4.8660   22.5160 C   0  0  0  0  0  0  0  0  0  0  0  0
  -22.3110   -4.3150   21.3450 F   0  0  0  0  0  0  0  0  0  0  0  0
  -21.2190   -3.8360   25.9700 F   0  0  0  0  0  0  0  0  0  0  0  0
  -22.7330  -13.6070   21.0530 C   0  0  0  0  0  0  0  0  0  0  0  0
  -21.9900  -12.9130   21.9070 N   0  0  0  0  0  0  0  0  0  0  0  0
  -22.3030  -14.6300   20.5190 O   0  0  0  0  0  0  0  0  0  0  0  0
  -22.3490  -12.0890   22.3630 H   0  0  0  0  0  0  0  0  0  0  0  0
  -21.0480  -13.2130   22.1090 H   0  0  0  0  0  0  0  0  0  0  0  0
  -25.3650  -15.2850   20.2760 N   0  0  0  0  0  0  0  0  0  0  0  0
  -24.6080  -15.9510   20.3970 H   0  0  0  0  0  0  0  0  0  0  0  0
  -26.2420  -15.7230   20.0230 H   0  0  0  0  0  0  0  0  0  0  0  0
  -28.6970  -22.6490   20.5940 C   0  0  0  0  0  3  0  0  0  0  0  0
  -28.1310  -24.2400   19.8920 C   0  0  0  0  0  3  0  0  0  0  0  0
  -28.1910  -25.8510   20.3150 O   0  0  0  0  0  0  0  0  0  0  0  0
  -24.5990  -31.8520   23.1940 C   0  0  0  0  0  0  0  0  0  0  0  0
  -27.1840  -26.9550   20.1940 C   0  0  0  0  0  0  0  0  0  0  0  0
  -23.4190  -30.4440   21.5550 C   0  0  0  0  0  3  0  0  0  0  0  0
  -24.8800  -28.8370   20.1380 C   0  0  0  0  0  0  0  0  0  0  0  0
  -25.9860  -30.6570   21.4220 C   0  0  0  0  0  2  0  0  0  0  0  0
  -26.0610  -29.2430   20.7680 C   0  0  0  0  0  0  0  0  0  0  0  0
  -27.2040  -28.3200   20.7770 C   0  0  0  0  0  3  0  0  0  0  0  0
  -25.9760  -26.7140   19.5020 C   0  0  0  0  0  3  0  0  0  0  0  0
  -24.8640  -27.5950   19.4820 C   0  0  0  0  0  3  0  0  0  0  0  0
  -23.6620  -29.7610   20.1800 C   0  0  0  0  0  2  0  0  0  0  0  0
  -24.6900  -31.0110   22.1120 N   0  0  0  0  0  0  0  0  0  0  0  0
  -23.5060  -32.1390   23.7100 O   0  0  0  0  0  0  0  0  0  0  0  0
  -22.7230  -29.4490   22.5200 C   0  0  0  0  0  0  0  0  0  0  0  0
  -21.3920  -29.2920   22.4010 N   0  0  0  0  0  0  0  0  0  0  0  0
  -23.3910  -28.8150   23.3420 O   0  0  0  0  0  0  0  0  0  0  0  0
  -20.9080  -29.8560   21.7160 H   0  0  0  0  0  0  0  0  0  0  0  0
  -18.0080  -28.0980   22.9280 C   0  0  0  0  0  0  0  0  0  0  0  0
  -20.5690  -28.3560   23.1750 C   0  0  0  0  0  3  0  0  0  0  0  0
  -20.6630  -26.9250   22.5920 C   0  0  0  0  0  2  0  0  0  0  0  0
  -19.5530  -26.6100   21.5840 C   0  0  0  0  0  2  0  0  0  0  0  0
  -18.1760  -26.7530   22.2390 C   0  0  0  0  0  2  0  0  0  0  0  0
  -19.1310  -28.8560   23.3520 C   0  0  0  0  0  0  0  0  0  0  0  0
  -18.9160  -30.1130   23.9600 C   0  0  0  0  0  3  0  0  0  0  0  0
  -17.6130  -30.6110   24.1430 C   0  0  0  0  0  3  0  0  0  0  0  0
  -16.5050  -29.8510   23.7310 C   0  0  0  0  0  3  0  0  0  0  0  0
  -16.7040  -28.5940   23.1310 C   0  0  0  0  0  3  0  0  0  0  0  0
  -25.8660  -32.5050   23.8260 C   0  0  0  0  0  3  0  0  0  0  0  0
  -25.5430  -33.9060   24.1530 N   0  0  0  0  0  0  0  0  0  0  0  0
  -25.8750  -34.9650   23.4040 C   0  0  0  0  0  0  0  0  0  0  0  0
  -26.5490  -34.8680   22.3750 O   0  0  0  0  0  0  0  0  0  0  0  0
  -24.9440  -34.0550   24.9520 H   0  0  0  0  0  0  0  0  0  0  0  0
  -24.1480  -36.7640   23.0550 C   0  0  0  0  0  1  0  0  0  0  0  0
  -25.3860  -36.3530   23.8660 C   0  0  0  0  0  3  0  0  0  0  0  0
  -27.5140  -37.2440   24.7120 C   0  0  0  0  0  1  0  0  0  0  0  0
  -26.4180  -37.4090   23.7610 N   0  0  0  0  0  0  0  0  0  0  0  0
  -26.0090  -38.3280   23.9090 H   0  0  0  0  0  0  0  0  0  0  0  0
  -26.3680  -31.7510   25.1190 C   0  0  1  0  0  0  0  0  0  0  0  0
  -25.2630  -31.5250   26.1780 C   0  0  0  0  0  1  0  0  0  0  0  0
  -26.9550  -30.3670   24.7580 C   0  0  0  0  0  1  0  0  0  0  0  0
  -27.5110  -32.5530   25.7850 C   0  0  0  0  0  1  0  0  0  0  0  0
  1  6  2  0
  1  3  1  0
  2  4  1  0
  2  1  1  0
  4  5  1  0
  5 44  1  0
  5  3  1  0
  7  2  2  0
  8  6  1  0
  9 14  1  0
 10 11  1  0
 10  9  1  0
 12 11  1  0
 12 19  1  0
 12 13  1  0
 14  8  1  0
 14 13  1  0
 15  8  2  0
 16 17  2  0
 17 36  1  0
 18 17  1  0
 18 21  1  0
 19 16  1  0
 19 20  1  0
 20 18  2  0
 21 22  1  0
 22 23  2  0
 24 27  1  0
 24 23  1  0
 25 24  2  0
 26 25  1  0
 26 21  2  0
 27 28  1  0
 28 29  1  0
 29 30  2  0
 31 30  1  0
 31 35  1  0
 32 31  2  0
 33 28  2  0
 33 32  1  0
 34 33  1  0
 36 37  1  0
 37 40  1  0
 37 39  1  0
 38 36  2  0
 41 42  1  0
 41 16  1  0
 43 41  1  0
 45 46  1  0
 45 44  2  0
 47 58  2  0
 48 46  1  0
 48 53  1  0
 49 57  1  0
 49 59  1  0
 50 56  1  0
 50 52  1  0
 51 57  1  0
 52 53  2  0
 52 51  1  0
 54 48  2  0
 55 54  1  0
 55 50  2  0
 56 49  1  0
 57 47  1  0
 59 61  2  0
 60 59  1  0
 62 60  1  0
 63 72  2  0
 63 68  1  0
 64 60  1  0
 64 68  1  0
 65 64  1  0
 66 67  1  0
 66 65  1  0
 67 63  1  0
 68 69  2  0
 69 70  1  0
 71 70  2  0
 72 71  1  0
 73 47  1  0
 73 74  1  0
 73 83  1  0
 74 77  1  0
 75 79  1  0
 75 74  1  0
 76 75  2  0
 79 78  1  0
 81 79  1  0
 81 82  1  0
 81 80  1  0
 83 86  1  1
 83 84  1  0
 85 83  1  0
M  ISO  4   6 100   8 100  45 101  46 101
M  END
>  <TORSDO>  (85) 
F 18

>  <SCORE>  (85) 
-15.892

>  <name>  (85) 
84

>  <ligand_id>  (85) 
84

>  <original_smiles>  (85) 
[H]c1c([H])c([H])c2c(c1[H])C([H])([H])C([H])([H])C([H])([H])C2([H])N([H])C(=O)C1([H])N(C(=O)C([H])(N([H])C(=O)C([H])(N([H])C([H])([H])[H])C([H])([H])[H])C(C([H])([H])[H])(C([H])([H])[H])C([H])([H])[H])C([H])([H])c2c([H])c(OC([H])([H])C([H])([H])C3([H])C([H])([H])C(=O)C(=NC(=O)N4C([H])([H])C([H])([H])C([H])([H])C([H])(n5nc(-c6c([H])c([H])c(Oc7c([H])c([H])c(F)c([H])c7F)c([H])c6[H])c(C(=O)N([H])[H])c5N([H])[H])C4([H])[H])C3([H])[H])c([H])c([H])c2C1([H])[H]

>  <smiles>  (85) 
[H]c1c([H])c([H])c2c(c1[H])C([H])([H])C([H])([H])C([H])([H])C2([H])N([H])C(=O)C1([H])N(C(=O)C([H])(N([H])C(=O)C([H])(N([H])C([H])([H])[H])C([H])([H])[H])C(C([H])([H])[H])(C([H])([H])[H])C([H])([H])[H])C([H])([H])c2c([H])c(OC([H])([H])C([H])([H])C3([H])C([H])([H])C(=O)C(=NC(=O)N4C([H])([H])C([H])([H])C([H])([H])C([H])(n5nc(-c6c([H])c([H])c(Oc7c([H])c([H])c(F)c([H])c7F)c([H])c6[H])c(C(=O)N([H])[H])c5N([H])[H])C4([H])[H])C3([H])[H])c([H])c([H])c2C1([H])[H]

$$$$
85:0:0
     RDKit          3D

 99106  0  0  1  0  0  0  0  0999 V2000
  -29.5940  -20.6220   20.0760 C   0  0  0  0  0  3  0  0  0  0  0  0
  -29.6950  -19.1930   22.0240 C   0  0  0  0  0  0  0  0  0  0  0  0
  -29.4720  -20.3580   21.5060 N   0  0  0  0  0  2  0  0  0  0  0  0
  -29.4570  -19.0530   23.3670 N   0  0  0  0  0  4  0  0  0  0  0  0
  -30.1420  -18.0430   21.3700 N   0  0  0  0  0  4  0  0  0  0  0  0
  -29.1270  -19.8020   23.9640 H   0  0  0  0  0  0  0  0  0  0  0  0
  -29.5730  -18.1940   23.8870 H   0  0  0  0  0  0  0  0  0  0  0  0
  -30.3880  -18.1140   20.3870 H   0  0  0  0  0  0  0  0  0  0  0  0
  -30.7540  -16.8540   22.0100 C   0  0  0  0  0  0  0  0  0  0  0  0
  -32.9760  -17.5570   20.8560 C   0  0  0  0  0  1  0  0  0  0  0  0
  -32.7650  -17.6800   23.3570 C   0  0  0  0  0  1  0  0  0  0  0  0
  -32.3070  -16.9300   22.0940 C   0  0  0  0  0  3  0  0  0  0  0  0
  -30.0840  -15.4780   21.6460 C   0  0  0  0  0  2  0  0  0  0  0  0
  -30.7060  -14.4480   20.6590 C   0  0  0  0  0  0  0  0  0  0  0  0
  -30.4320  -12.3230   19.3990 C   0  0  0  0  0  2  0  0  0  0  0  0
  -29.4890  -12.5170   18.1940 C   0  0  0  0  0  2  0  0  0  0  0  0
  -28.0120  -12.3690   18.6130 C   0  0  0  0  0  2  0  0  0  0  0  0
  -27.6660  -13.1990   19.8760 C   0  0  0  0  0  3  0  0  0  0  0  0
  -28.7080  -12.9490   20.9870 C   0  0  0  0  0  2  0  0  0  0  0  0
  -30.0390  -13.2780   20.4450 N   0  0  0  0  0  0  0  0  0  0  0  0
  -31.7650  -14.6990   20.0770 O   0  0  0  0  0  0  0  0  0  0  0  0
  -25.2620  -13.8140   20.5670 C   0  0  0  0  0  0  0  0  0  0  0  0
  -24.1860  -13.0430   20.9150 C   0  0  0  0  0  0  0  0  0  0  0  0
  -24.6410  -11.6890   20.8730 C   0  0  0  0  0  0  0  0  0  0  0  0
  -26.3050  -12.9300   20.3370 N   0  0  0  0  0  0  0  0  0  0  0  0
  -25.9330  -11.6460   20.5760 N   0  0  0  0  0  0  0  0  0  0  0  0
  -23.9070  -10.4280   21.0400 C   0  0  0  0  0  0  0  0  0  0  0  0
  -24.3620   -9.4200   21.9180 C   0  0  0  0  0  3  0  0  0  0  0  0
  -23.6290   -8.2240   22.0760 C   0  0  0  0  0  3  0  0  0  0  0  0
  -22.4270   -8.0280   21.3540 C   0  0  0  0  0  0  0  0  0  0  0  0
  -21.9910   -9.0260   20.4650 C   0  0  0  0  0  3  0  0  0  0  0  0
  -22.7240  -10.2130   20.3050 C   0  0  0  0  0  3  0  0  0  0  0  0
  -21.6640   -6.8880   21.4240 O   0  0  0  0  0  0  0  0  0  0  0  0
  -21.6850   -6.0730   22.5270 C   0  0  0  0  0  0  0  0  0  0  0  0
  -21.4020   -6.5630   23.8200 C   0  0  0  0  0  3  0  0  0  0  0  0
  -21.3670   -5.6790   24.9170 C   0  0  0  0  0  3  0  0  0  0  0  0
  -21.6050   -4.3050   24.7220 C   0  0  0  0  0  0  0  0  0  0  0  0
  -21.8820   -3.8140   23.4340 C   0  0  0  0  0  3  0  0  0  0  0  0
  -21.9190   -4.6960   22.3390 C   0  0  0  0  0  0  0  0  0  0  0  0
  -22.1660   -4.2140   21.0970 F   0  0  0  0  0  0  0  0  0  0  0  0
  -21.5630   -3.4540   25.7730 F   0  0  0  0  0  0  0  0  0  0  0  0
  -22.7880  -13.5230   21.1820 C   0  0  0  0  0  0  0  0  0  0  0  0
  -22.0530  -12.8230   22.0380 N   0  0  0  0  0  0  0  0  0  0  0  0
  -22.3560  -14.5540   20.6660 O   0  0  0  0  0  0  0  0  0  0  0  0
  -22.4160  -11.9900   22.4760 H   0  0  0  0  0  0  0  0  0  0  0  0
  -21.1150  -13.1260   22.2600 H   0  0  0  0  0  0  0  0  0  0  0  0
  -25.4340  -15.1860   20.4100 N   0  0  0  0  0  0  0  0  0  0  0  0
  -24.6720  -15.8440   20.5340 H   0  0  0  0  0  0  0  0  0  0  0  0
  -26.2960  -15.6300   20.1180 H   0  0  0  0  0  0  0  0  0  0  0  0
  -31.5350  -19.9000   18.6240 C   0  0  0  0  0  2  0  0  0  0  0  0
  -31.0540  -20.6260   19.6450 C   0  0  0  0  0  3  0  0  0  0  0  0
  -27.3830  -21.9340   19.9270 C   0  0  0  0  0  1  0  0  0  0  0  0
  -28.9100  -21.9820   19.7290 C   0  0  0  0  0  3  0  0  0  0  0  0
  -29.5320  -23.1060   20.4790 N   0  0  0  0  0  4  0  0  0  0  0  0
  -29.2430  -23.0680   21.4450 H   0  0  0  0  0  0  0  0  0  0  0  0
  -30.5170  -22.8920   20.4820 H   0  0  0  0  0  0  0  0  0  0  0  0
  -29.3990  -24.4770   19.9020 C   0  0  0  0  0  2  0  0  0  0  0  0
  -28.2990  -25.3400   20.5550 C   0  0  0  0  0  2  0  0  0  0  0  0
  -28.3950  -26.6990   20.0880 O   0  0  0  0  0  0  0  0  0  0  0  0
  -24.6150  -31.8700   23.2110 C   0  0  0  0  0  0  0  0  0  0  0  0
  -27.2300  -27.4340   20.1000 C   0  0  0  0  0  0  0  0  0  0  0  0
  -23.4020  -30.4950   21.5520 C   0  0  0  0  0  3  0  0  0  0  0  0
  -24.8480  -28.9600   20.1170 C   0  0  0  0  0  0  0  0  0  0  0  0
  -25.9310  -30.8350   21.3650 C   0  0  0  0  0  2  0  0  0  0  0  0
  -26.0090  -29.4690   20.7140 C   0  0  0  0  0  0  0  0  0  0  0  0
  -27.2040  -28.7140   20.7010 C   0  0  0  0  0  3  0  0  0  0  0  0
  -26.0560  -26.9480   19.4820 C   0  0  0  0  0  3  0  0  0  0  0  0
  -24.8670  -27.6990   19.4970 C   0  0  0  0  0  3  0  0  0  0  0  0
  -23.6110  -29.8280   20.1660 C   0  0  0  0  0  2  0  0  0  0  0  0
  -24.6680  -31.0810   22.1020 N   0  0  0  0  0  0  0  0  0  0  0  0
  -23.5340  -32.1460   23.7500 O   0  0  0  0  0  0  0  0  0  0  0  0
  -22.7420  -29.4670   22.4990 C   0  0  0  0  0  0  0  0  0  0  0  0
  -21.4140  -29.3040   22.3730 N   0  0  0  0  0  0  0  0  0  0  0  0
  -23.4200  -28.8200   23.3020 O   0  0  0  0  0  0  0  0  0  0  0  0
  -20.9300  -29.8790   21.6990 H   0  0  0  0  0  0  0  0  0  0  0  0
  -18.0280  -28.1370   22.8500 C   0  0  0  0  0  0  0  0  0  0  0  0
  -20.5870  -28.3660   23.1320 C   0  0  0  0  0  3  0  0  0  0  0  0
  -20.6770  -26.9400   22.5420 C   0  0  0  0  0  2  0  0  0  0  0  0
  -19.5740  -26.6380   21.5220 C   0  0  0  0  0  2  0  0  0  0  0  0
  -18.1920  -26.7920   22.1620 C   0  0  0  0  0  2  0  0  0  0  0  0
  -19.1530  -28.8830   23.2910 C   0  0  0  0  0  0  0  0  0  0  0  0
  -18.9450  -30.1440   23.8920 C   0  0  0  0  0  3  0  0  0  0  0  0
  -17.6460  -30.6580   24.0570 C   0  0  0  0  0  3  0  0  0  0  0  0
  -16.5350  -29.9090   23.6320 C   0  0  0  0  0  3  0  0  0  0  0  0
  -16.7270  -28.6500   23.0350 C   0  0  0  0  0  3  0  0  0  0  0  0
  -25.9040  -32.4840   23.8410 C   0  0  0  0  0  3  0  0  0  0  0  0
  -26.4460  -31.6620   25.0740 C   0  0  1  0  0  0  0  0  0  0  0  0
  -25.3720  -31.3720   26.1480 C   0  0  0  0  0  1  0  0  0  0  0  0
  -27.0290  -30.3070   24.6100 C   0  0  0  0  0  1  0  0  0  0  0  0
  -27.6070  -32.4330   25.7470 C   0  0  0  0  0  1  0  0  0  0  0  0
  -25.5900  -33.8640   24.2340 N   0  0  0  0  0  0  0  0  0  0  0  0
  -25.9030  -34.9490   23.5130 C   0  0  0  0  0  0  0  0  0  0  0  0
  -26.5590  -34.8930   22.4700 O   0  0  0  0  0  0  0  0  0  0  0  0
  -25.0070  -33.9810   25.0500 H   0  0  0  0  0  0  0  0  0  0  0  0
  -24.1490  -36.7330   23.2640 C   0  0  0  0  0  1  0  0  0  0  0  0
  -25.4110  -36.3130   24.0340 C   0  0  0  0  0  3  0  0  0  0  0  0
  -27.5590  -37.1820   24.8460 C   0  0  0  0  0  1  0  0  0  0  0  0
  -26.4300  -37.3800   23.9400 N   0  0  0  0  0  0  0  0  0  0  0  0
  -26.0200  -38.2890   24.1380 H   0  0  0  0  0  0  0  0  0  0  0  0
  1 51  1  0
  1  3  1  0
  2  4  2  0
  3  2  1  0
  4  7  1  0
  4  6  1  0
  5  9  2  3
  5  2  1  0
  8  5  1  0
  9 12  1  0
 10 12  1  0
 12 11  1  0
 13  9  1  0
 14 13  1  0
 15 20  1  0
 16 17  1  0
 16 15  1  0
 18 17  1  0
 18 25  1  0
 18 19  1  0
 20 14  1  0
 20 19  1  0
 21 14  2  0
 22 23  2  0
 23 42  1  0
 24 23  1  0
 24 27  1  0
 25 22  1  0
 25 26  1  0
 26 24  2  0
 27 28  1  0
 28 29  2  0
 30 33  1  0
 30 29  1  0
 31 30  2  0
 32 31  1  0
 32 27  2  0
 33 34  1  0
 34 35  1  0
 35 36  2  0
 37 36  1  0
 37 41  1  0
 38 37  2  0
 39 34  2  0
 39 38  1  0
 40 39  1  0
 42 43  1  0
 43 46  1  0
 43 45  1  0
 44 42  2  0
 47 48  1  0
 47 22  1  0
 49 47  1  0
 50 51  2  0
 53 52  1  0
 53  1  1  0
 53 54  1  0
 54 56  1  0
 54 55  1  0
 57 54  1  0
 57 58  1  0
 59 61  1  0
 59 58  1  0
 60 71  2  0
 61 66  1  0
 62 70  1  0
 62 72  1  0
 63 69  1  0
 63 65  1  0
 64 70  1  0
 65 64  1  0
 66 65  2  0
 67 68  1  0
 67 61  2  0
 68 63  2  0
 69 62  1  0
 70 60  1  0
 72 74  2  0
 73 72  1  0
 75 73  1  0
 76 85  2  0
 76 81  1  0
 77 73  1  0
 77 81  1  0
 78 77  1  0
 79 80  1  0
 79 78  1  0
 80 76  1  0
 81 82  2  0
 82 83  1  0
 84 83  2  0
 85 84  1  0
 86 60  1  0
 86 91  1  0
 86 87  1  0
 87 90  1  1
 87 88  1  0
 89 87  1  0
 91 94  1  0
 92 96  1  0
 92 91  1  0
 93 92  2  0
 96 95  1  0
 98 96  1  0
 98 99  1  0
 98 97  1  0
M  ISO  4  13 100  14 100  58 101  59 101
M  END
>  <TORSDO>  (86) 
F 25

>  <SCORE>  (86) 
-3.377

>  <name>  (86) 
85

>  <ligand_id>  (86) 
85

>  <original_smiles>  (86) 
[H]C([H])=C([H])C([H])(N=C(N([H])[H])N([H])C([H])(C([H])([H])C(=O)N1C([H])([H])C([H])([H])C([H])([H])C([H])(n2nc(-c3c([H])c([H])c(Oc4c([H])c([H])c(F)c([H])c4F)c([H])c3[H])c(C(=O)N([H])[H])c2N([H])[H])C1([H])[H])C([H])(C([H])([H])[H])C([H])([H])[H])C([H])(C([H])([H])[H])[N+]([H])([H])C([H])([H])C([H])([H])Oc1c([H])c([H])c2c(c1[H])C([H])([H])N(C(=O)C([H])(N([H])C(=O)C([H])(N([H])C([H])([H])[H])C([H])([H])[H])C(C([H])([H])[H])(C([H])([H])[H])C([H])([H])[H])C([H])(C(=O)N([H])C1([H])c3c([H])c([H])c([H])c([H])c3C([H])([H])C([H])([H])C1([H])[H])C2([H])[H]

>  <smiles>  (86) 
[H]C([H])=C([H])C([H])(N=C(N([H])[H])N([H])C([H])(C([H])([H])C(=O)N1C([H])([H])C([H])([H])C([H])([H])C([H])(n2nc(-c3c([H])c([H])c(Oc4c([H])c([H])c(F)c([H])c4F)c([H])c3[H])c(C(=O)N([H])[H])c2N([H])[H])C1([H])[H])C([H])(C([H])([H])[H])C([H])([H])[H])C([H])(C([H])([H])[H])[N+]([H])([H])C([H])([H])C([H])([H])Oc1c([H])c([H])c2c(c1[H])C([H])([H])N(C(=O)C([H])(N([H])C(=O)C([H])(N([H])C([H])([H])[H])C([H])([H])[H])C(C([H])([H])[H])(C([H])([H])[H])C([H])([H])[H])C([H])(C(=O)N([H])C1([H])c3c([H])c([H])c([H])c([H])c3C([H])([H])C([H])([H])C1([H])[H])C2([H])[H]

$$$$
86:0:0
     RDKit          3D

 93101  0  0  1  0  0  0  0  0999 V2000
  -26.8900  -20.7510   19.5900 C   0  0  0  0  0  3  0  0  0  0  0  0
  -27.6670  -19.6940   19.8630 C   0  0  0  0  0  3  0  0  0  0  0  0
  -27.2660  -22.1660   20.0030 C   0  0  0  0  0  2  0  0  0  0  0  0
  -29.6590  -21.3110   20.2370 C   0  0  0  0  0  2  0  0  0  0  0  0
  -28.9780  -19.8940   20.5900 C   0  0  0  0  0  3  0  0  0  0  0  0
  -28.7180  -22.4630   19.8190 N   0  0  2  0  0  4  0  0  0  0  0  0
  -28.8130  -22.4480   18.8130 H   0  0  0  0  0  0  0  0  0  0  0  0
  -29.8630  -17.4900   20.2260 C   0  0  0  0  0  3  0  0  0  0  0  0
  -29.7850  -18.6350   20.8820 N   0  0  0  0  0  2  0  0  0  0  0  0
  -29.5610  -17.2690   18.7450 C   0  0  0  0  0  0  0  0  0  0  0  0
  -30.0120  -18.3450   17.7630 C   0  0  0  0  0  1  0  0  0  0  0  0
  -28.9660  -16.2790   18.3150 O   0  0  0  0  0  0  0  0  0  0  0  0
  -30.9160  -16.4520   22.3730 C   0  0  0  0  0  1  0  0  0  0  0  0
  -30.1700  -16.1410   21.0530 C   0  0  0  0  0  3  0  0  0  0  0  0
  -30.8720  -14.8690   20.3630 C   0  0  0  0  0  0  0  0  0  0  0  0
  -30.6830  -12.6300   19.2540 C   0  0  0  0  0  2  0  0  0  0  0  0
  -29.7430  -12.7440   18.0310 C   0  0  0  0  0  2  0  0  0  0  0  0
  -28.2660  -12.5910   18.4440 C   0  0  0  0  0  2  0  0  0  0  0  0
  -27.9030  -13.4380   19.6910 C   0  0  0  0  0  3  0  0  0  0  0  0
  -28.9530  -13.2600   20.8080 C   0  0  0  0  0  2  0  0  0  0  0  0
  -30.2570  -13.6420   20.2470 N   0  0  0  0  0  0  0  0  0  0  0  0
  -32.0110  -15.0120   19.9060 O   0  0  0  0  0  0  0  0  0  0  0  0
  -25.5000  -14.0480   20.3570 C   0  0  0  0  0  0  0  0  0  0  0  0
  -24.4270  -13.2820   20.7250 C   0  0  0  0  0  0  0  0  0  0  0  0
  -24.8900  -11.9300   20.7260 C   0  0  0  0  0  0  0  0  0  0  0  0
  -26.5480  -13.1630   20.1590 N   0  0  0  0  0  0  0  0  0  0  0  0
  -26.1850  -11.8850   20.4360 N   0  0  0  0  0  0  0  0  0  0  0  0
  -24.1610  -10.6720   20.9260 C   0  0  0  0  0  0  0  0  0  0  0  0
  -24.5640   -9.7320   21.9010 C   0  0  0  0  0  3  0  0  0  0  0  0
  -23.8360   -8.5350   22.0850 C   0  0  0  0  0  3  0  0  0  0  0  0
  -22.6910   -8.2720   21.2960 C   0  0  0  0  0  0  0  0  0  0  0  0
  -22.3090   -9.2000   20.3100 C   0  0  0  0  0  3  0  0  0  0  0  0
  -23.0370  -10.3860   20.1250 C   0  0  0  0  0  3  0  0  0  0  0  0
  -21.9370   -7.1280   21.3880 O   0  0  0  0  0  0  0  0  0  0  0  0
  -21.8150   -6.4400   22.5690 C   0  0  0  0  0  0  0  0  0  0  0  0
  -21.3010   -7.0480   23.7360 C   0  0  0  0  0  3  0  0  0  0  0  0
  -21.1280   -6.2860   24.9090 C   0  0  0  0  0  3  0  0  0  0  0  0
  -21.4610   -4.9170   24.9150 C   0  0  0  0  0  0  0  0  0  0  0  0
  -21.9690   -4.3100   23.7530 C   0  0  0  0  0  3  0  0  0  0  0  0
  -22.1420   -5.0700   22.5830 C   0  0  0  0  0  0  0  0  0  0  0  0
  -22.6120   -4.4750   21.4590 F   0  0  0  0  0  0  0  0  0  0  0  0
  -21.2880   -4.1820   26.0390 F   0  0  0  0  0  0  0  0  0  0  0  0
  -23.0260  -13.7620   20.9710 C   0  0  0  0  0  0  0  0  0  0  0  0
  -22.2930  -13.0850   21.8480 N   0  0  0  0  0  0  0  0  0  0  0  0
  -22.5900  -14.7720   20.4200 O   0  0  0  0  0  0  0  0  0  0  0  0
  -22.6610  -12.2670   22.3130 H   0  0  0  0  0  0  0  0  0  0  0  0
  -21.3520  -13.3870   22.0570 H   0  0  0  0  0  0  0  0  0  0  0  0
  -25.6680  -15.4150   20.1540 N   0  0  0  0  0  0  0  0  0  0  0  0
  -24.8920  -16.0660   20.2100 H   0  0  0  0  0  0  0  0  0  0  0  0
  -26.5120  -15.8300   19.7830 H   0  0  0  0  0  0  0  0  0  0  0  0
  -29.0950  -23.9100   20.2060 C   0  0  0  0  0  3  0  0  0  0  0  0
  -28.1090  -25.0890   19.7250 C   0  0  0  0  0  3  0  0  0  0  0  0
  -28.3540  -26.5430   19.9640 O   0  0  0  0  0  0  0  0  0  0  0  0
  -24.6080  -31.8780   23.1220 C   0  0  0  0  0  0  0  0  0  0  0  0
  -27.2420  -27.4130   19.9220 C   0  0  0  0  0  0  0  0  0  0  0  0
  -23.4060  -30.5050   21.4620 C   0  0  0  0  0  3  0  0  0  0  0  0
  -24.8600  -29.0150   19.9780 C   0  0  0  0  0  0  0  0  0  0  0  0
  -25.9430  -30.8510   21.2670 C   0  0  0  0  0  2  0  0  0  0  0  0
  -26.0310  -29.4910   20.5810 C   0  0  0  0  0  0  0  0  0  0  0  0
  -27.2230  -28.7020   20.5500 C   0  0  0  0  0  3  0  0  0  0  0  0
  -26.0480  -27.0110   19.2740 C   0  0  0  0  0  3  0  0  0  0  0  0
  -24.8730  -27.7820   19.3150 C   0  0  0  0  0  3  0  0  0  0  0  0
  -23.6150  -29.8740   20.0610 C   0  0  0  0  0  2  0  0  0  0  0  0
  -24.6720  -31.0950   22.0060 N   0  0  0  0  0  0  0  0  0  0  0  0
  -23.5260  -32.1280   23.6720 O   0  0  0  0  0  0  0  0  0  0  0  0
  -22.7700  -29.4520   22.3990 C   0  0  0  0  0  0  0  0  0  0  0  0
  -21.4480  -29.2500   22.2720 N   0  0  0  0  0  0  0  0  0  0  0  0
  -23.4640  -28.8260   23.2060 O   0  0  0  0  0  0  0  0  0  0  0  0
  -20.9470  -29.8090   21.5970 H   0  0  0  0  0  0  0  0  0  0  0  0
  -18.1000  -27.9530   22.7340 C   0  0  0  0  0  0  0  0  0  0  0  0
  -20.6490  -28.2810   23.0260 C   0  0  0  0  0  3  0  0  0  0  0  0
  -20.7950  -26.8600   22.4360 C   0  0  0  0  0  2  0  0  0  0  0  0
  -19.7100  -26.5160   21.4120 C   0  0  0  0  0  2  0  0  0  0  0  0
  -18.3190  -26.6160   22.0450 C   0  0  0  0  0  2  0  0  0  0  0  0
  -19.1940  -28.7410   23.1800 C   0  0  0  0  0  0  0  0  0  0  0  0
  -18.9350  -29.9910   23.7850 C   0  0  0  0  0  3  0  0  0  0  0  0
  -17.6160  -30.4550   23.9450 C   0  0  0  0  0  3  0  0  0  0  0  0
  -16.5370  -29.6640   23.5140 C   0  0  0  0  0  3  0  0  0  0  0  0
  -16.7790  -28.4150   22.9140 C   0  0  0  0  0  3  0  0  0  0  0  0
  -25.8890  -32.5110   23.7450 C   0  0  0  0  0  3  0  0  0  0  0  0
  -25.5680  -33.9010   24.1040 N   0  0  0  0  0  0  0  0  0  0  0  0
  -25.8990  -34.9730   23.3710 C   0  0  0  0  0  0  0  0  0  0  0  0
  -26.5800  -34.8980   22.3450 O   0  0  0  0  0  0  0  0  0  0  0  0
  -24.9710  -34.0320   24.9080 H   0  0  0  0  0  0  0  0  0  0  0  0
  -24.1780  -36.7730   23.0240 C   0  0  0  0  0  1  0  0  0  0  0  0
  -25.3980  -36.3470   23.8550 C   0  0  0  0  0  3  0  0  0  0  0  0
  -27.5080  -37.2120   24.7680 C   0  0  0  0  0  1  0  0  0  0  0  0
  -26.4310  -37.4040   23.7980 N   0  0  0  0  0  0  0  0  0  0  0  0
  -26.0200  -38.3180   23.9610 H   0  0  0  0  0  0  0  0  0  0  0  0
  -26.4220  -31.7220   25.0040 C   0  0  1  0  0  0  0  0  0  0  0  0
  -25.3390  -31.4530   26.0740 C   0  0  0  0  0  1  0  0  0  0  0  0
  -27.0190  -30.3590   24.5840 C   0  0  0  0  0  1  0  0  0  0  0  0
  -27.5690  -32.5170   25.6730 C   0  0  0  0  0  1  0  0  0  0  0  0
  1  2  2  0
  1  3  1  0
  2  5  1  0
  4  5  1  0
  5  9  1  0
  6  3  1  0
  6 51  1  0
  6  4  1  0
  6  7  1  6
  8 10  1  0
  8  9  1  0
  8 14  1  0
 11 10  1  0
 12 10  2  0
 14 13  1  0
 15 14  1  0
 16 21  1  0
 17 18  1  0
 17 16  1  0
 19 18  1  0
 19 26  1  0
 19 20  1  0
 21 15  1  0
 21 20  1  0
 22 15  2  0
 23 24  2  0
 24 25  1  0
 24 43  1  0
 25 28  1  0
 26 23  1  0
 26 27  1  0
 27 25  2  0
 28 29  1  0
 29 30  2  0
 31 34  1  0
 31 30  1  0
 32 31  2  0
 33 32  1  0
 33 28  2  0
 34 35  1  0
 35 40  2  0
 35 36  1  0
 36 37  2  0
 37 38  1  0
 38 42  1  0
 39 38  2  0
 40 39  1  0
 41 40  1  0
 43 44  1  0
 44 47  1  0
 44 46  1  0
 45 43  2  0
 48 49  1  0
 48 23  1  0
 50 48  1  0
 52 53  1  0
 52 51  2  0
 54 65  2  0
 55 53  1  0
 55 60  1  0
 56 64  1  0
 56 66  1  0
 57 63  1  0
 57 59  1  0
 58 64  1  0
 59 58  1  0
 60 59  2  0
 61 62  1  0
 61 55  2  0
 62 57  2  0
 63 56  1  0
 64 54  1  0
 66 68  2  0
 67 66  1  0
 69 67  1  0
 70 79  2  0
 70 75  1  0
 71 67  1  0
 71 75  1  0
 72 71  1  0
 73 74  1  0
 73 72  1  0
 74 70  1  0
 75 76  2  0
 76 77  1  0
 78 77  2  0
 79 78  1  0
 80 54  1  0
 80 81  1  0
 80 90  1  0
 81 84  1  0
 82 86  1  0
 82 81  1  0
 83 82  2  0
 86 85  1  0
 88 86  1  0
 88 89  1  0
 88 87  1  0
 90 93  1  1
 90 91  1  0
 92 90  1  0
M  ISO  4  14 100  15 100  52 101  53 101
M  END
>  <TORSDO>  (87) 
F 21

>  <SCORE>  (87) 
-12.452

>  <name>  (87) 
86

>  <ligand_id>  (87) 
86

>  <original_smiles>  (87) 
[H]C1=C([H])C([H])([H])[N+]([H])(C([H])([H])C([H])([H])Oc2c([H])c([H])c3c(c2[H])C([H])([H])N(C(=O)C([H])(N([H])C(=O)C([H])(N([H])C([H])([H])[H])C([H])([H])[H])C(C([H])([H])[H])(C([H])([H])[H])C([H])([H])[H])C([H])(C(=O)N([H])C2([H])c4c([H])c([H])c([H])c([H])c4C([H])([H])C([H])([H])C2([H])[H])C3([H])[H])C([H])([H])C1([H])N=C(C(=O)C([H])([H])[H])C([H])(C(=O)N1C([H])([H])C([H])([H])C([H])([H])C([H])(n2nc(-c3c([H])c([H])c(Oc4c([H])c([H])c(F)c([H])c4F)c([H])c3[H])c(C(=O)N([H])[H])c2N([H])[H])C1([H])[H])C([H])([H])[H]

>  <smiles>  (87) 
[H]C1=C([H])C([H])([H])[N+]([H])(C([H])([H])C([H])([H])Oc2c([H])c([H])c3c(c2[H])C([H])([H])N(C(=O)C([H])(N([H])C(=O)C([H])(N([H])C([H])([H])[H])C([H])([H])[H])C(C([H])([H])[H])(C([H])([H])[H])C([H])([H])[H])C([H])(C(=O)N([H])C2([H])c4c([H])c([H])c([H])c([H])c4C([H])([H])C([H])([H])C2([H])[H])C3([H])[H])C([H])([H])C1([H])N=C(C(=O)C([H])([H])[H])C([H])(C(=O)N1C([H])([H])C([H])([H])C([H])([H])C([H])(n2nc(-c3c([H])c([H])c(Oc4c([H])c([H])c(F)c([H])c4F)c([H])c3[H])c(C(=O)N([H])[H])c2N([H])[H])C1([H])[H])C([H])([H])[H]

$$$$
87:0:0
     RDKit          3D

 90 99  0  0  1  0  0  0  0  0999 V2000
  -28.7370  -20.6140   19.9740 C   0  0  0  0  0  0  0  0  0  0  0  0
  -28.7680  -22.1060   20.4250 C   0  0  0  0  0  3  0  0  0  0  0  0
  -27.8100  -20.4440   18.7810 C   0  0  0  0  0  2  0  0  0  0  0  0
  -28.8660  -18.3730   17.6800 C   0  0  0  0  0  2  0  0  0  0  0  0
  -29.6900  -18.9610   20.0410 C   0  0  0  0  0  3  0  0  0  0  0  0
  -28.6060  -19.8820   17.5840 C   0  0  0  0  0  3  0  0  0  0  0  0
  -30.0730  -18.8030   18.5390 C   0  0  0  0  0  3  0  0  0  0  0  0
  -30.1690  -20.0040   17.5430 C   0  0  2  0  0  0  0  0  0  0  0  0
  -30.8670  -21.2850   18.0410 C   0  0  0  0  0  1  0  0  0  0  0  0
  -30.8340  -19.7280   16.1680 C   0  0  0  0  0  1  0  0  0  0  0  0
  -30.2300  -15.7970   20.1900 C   0  0  0  0  0  0  0  0  0  0  0  0
  -30.3280  -13.2440   19.3590 C   0  0  0  0  0  2  0  0  0  0  0  0
  -29.4240  -12.8240   18.1650 C   0  0  0  0  0  2  0  0  0  0  0  0
  -28.0160  -12.4460   18.6460 C   0  0  0  0  0  2  0  0  0  0  0  0
  -27.5130  -13.4380   19.7180 C   0  0  0  0  0  3  0  0  0  0  0  0
  -28.5590  -13.7720   20.8110 C   0  0  0  0  0  2  0  0  0  0  0  0
  -29.7090  -14.4200   20.1340 N   0  0  0  0  0  0  0  0  0  0  0  0
  -31.4550  -15.7170   19.9680 O   0  0  0  0  0  0  0  0  0  0  0  0
  -29.4910  -17.1860   20.3010 N   0  0  0  0  0  0  0  0  0  0  0  0
  -28.5210  -16.9990   20.5080 H   0  0  0  0  0  0  0  0  0  0  0  0
  -25.1700  -13.9370   20.5520 C   0  0  0  0  0  0  0  0  0  0  0  0
  -24.1240  -13.1430   20.9300 C   0  0  0  0  0  0  0  0  0  0  0  0
  -24.6020  -11.7980   20.8620 C   0  0  0  0  0  0  0  0  0  0  0  0
  -26.2130  -13.0780   20.2660 N   0  0  0  0  0  0  0  0  0  0  0  0
  -25.8880  -11.7820   20.5200 N   0  0  0  0  0  0  0  0  0  0  0  0
  -23.8850  -10.5270   21.0440 C   0  0  0  0  0  0  0  0  0  0  0  0
  -24.3240   -9.5550   21.9690 C   0  0  0  0  0  3  0  0  0  0  0  0
  -23.6020   -8.3540   22.1420 C   0  0  0  0  0  3  0  0  0  0  0  0
  -22.4270   -8.1160   21.3910 C   0  0  0  0  0  0  0  0  0  0  0  0
  -22.0060   -9.0790   20.4550 C   0  0  0  0  0  3  0  0  0  0  0  0
  -22.7280  -10.2710   20.2810 C   0  0  0  0  0  3  0  0  0  0  0  0
  -21.6760   -6.9690   21.4740 O   0  0  0  0  0  0  0  0  0  0  0  0
  -21.6140   -6.2310   22.6290 C   0  0  0  0  0  0  0  0  0  0  0  0
  -21.1280   -6.7770   23.8370 C   0  0  0  0  0  3  0  0  0  0  0  0
  -21.0160   -5.9630   24.9830 C   0  0  0  0  0  3  0  0  0  0  0  0
  -21.3810   -4.6050   24.9200 C   0  0  0  0  0  0  0  0  0  0  0  0
  -21.8590   -4.0580   23.7170 C   0  0  0  0  0  3  0  0  0  0  0  0
  -21.9720   -4.8690   22.5740 C   0  0  0  0  0  0  0  0  0  0  0  0
  -22.4140   -4.3310   21.4110 F   0  0  0  0  0  0  0  0  0  0  0  0
  -21.2670   -3.8220   26.0180 F   0  0  0  0  0  0  0  0  0  0  0  0
  -22.7300  -13.6070   21.2300 C   0  0  0  0  0  0  0  0  0  0  0  0
  -22.0220  -12.8970   22.1010 N   0  0  0  0  0  0  0  0  0  0  0  0
  -22.2780  -14.6360   20.7290 O   0  0  0  0  0  0  0  0  0  0  0  0
  -22.4020  -12.0650   22.5300 H   0  0  0  0  0  0  0  0  0  0  0  0
  -21.0870  -13.1900   22.3450 H   0  0  0  0  0  0  0  0  0  0  0  0
  -25.3170  -15.3120   20.3940 N   0  0  0  0  0  0  0  0  0  0  0  0
  -24.5450  -15.9560   20.5290 H   0  0  0  0  0  0  0  0  0  0  0  0
  -26.1440  -15.7560   20.0230 H   0  0  0  0  0  0  0  0  0  0  0  0
  -27.8840  -23.7540   20.1350 C   0  0  0  0  0  2  0  0  0  0  0  0
  -28.0990  -25.5050   20.3890 O   0  0  0  0  0  0  0  0  0  0  0  0
  -24.6250  -31.8890   23.2670 C   0  0  0  0  0  0  0  0  0  0  0  0
  -27.1440  -26.7490   20.3160 C   0  0  0  0  0  0  0  0  0  0  0  0
  -23.4370  -30.4830   21.6390 C   0  0  0  0  0  3  0  0  0  0  0  0
  -24.8850  -28.8140   20.2410 C   0  0  0  0  0  0  0  0  0  0  0  0
  -26.0190  -30.6040   21.5270 C   0  0  0  0  0  2  0  0  0  0  0  0
  -26.0800  -29.1620   20.8790 C   0  0  0  0  0  0  0  0  0  0  0  0
  -27.1920  -28.1590   20.8850 C   0  0  0  0  0  3  0  0  0  0  0  0
  -25.9140  -26.6210   19.6200 C   0  0  0  0  0  3  0  0  0  0  0  0
  -24.8420  -27.5690   19.5890 C   0  0  0  0  0  3  0  0  0  0  0  0
  -23.6810  -29.7730   20.2750 C   0  0  0  0  0  2  0  0  0  0  0  0
  -24.7180  -31.0270   22.1950 N   0  0  0  0  0  0  0  0  0  0  0  0
  -23.5310  -32.1980   23.7700 O   0  0  0  0  0  0  0  0  0  0  0  0
  -22.7120  -29.5180   22.6160 C   0  0  0  0  0  0  0  0  0  0  0  0
  -21.3820  -29.3580   22.4810 N   0  0  0  0  0  0  0  0  0  0  0  0
  -23.3610  -28.9100   23.4710 O   0  0  0  0  0  0  0  0  0  0  0  0
  -20.9070  -29.8980   21.7710 H   0  0  0  0  0  0  0  0  0  0  0  0
  -17.9970  -28.1250   22.9670 C   0  0  0  0  0  0  0  0  0  0  0  0
  -20.5510  -28.4270   23.2570 C   0  0  0  0  0  3  0  0  0  0  0  0
  -20.6750  -26.9860   22.7110 C   0  0  0  0  0  2  0  0  0  0  0  0
  -19.5900  -26.6340   21.6870 C   0  0  0  0  0  2  0  0  0  0  0  0
  -18.1990  -26.7700   22.3100 C   0  0  0  0  0  2  0  0  0  0  0  0
  -19.1010  -28.9100   23.3980 C   0  0  0  0  0  0  0  0  0  0  0  0
  -18.8550  -30.1740   23.9770 C   0  0  0  0  0  3  0  0  0  0  0  0
  -17.5400  -30.6540   24.1270 C   0  0  0  0  0  3  0  0  0  0  0  0
  -16.4520  -29.8680   23.7100 C   0  0  0  0  0  3  0  0  0  0  0  0
  -16.6810  -28.6060   23.1370 C   0  0  0  0  0  3  0  0  0  0  0  0
  -25.8870  -32.5420   23.9080 C   0  0  0  0  0  3  0  0  0  0  0  0
  -25.5700  -33.9510   24.2230 N   0  0  0  0  0  0  0  0  0  0  0  0
  -25.8970  -35.0040   23.4620 C   0  0  0  0  0  0  0  0  0  0  0  0
  -26.5520  -34.8940   22.4230 O   0  0  0  0  0  0  0  0  0  0  0  0
  -24.9840  -34.1100   25.0290 H   0  0  0  0  0  0  0  0  0  0  0  0
  -24.1650  -36.8080   23.1450 C   0  0  0  0  0  1  0  0  0  0  0  0
  -25.4270  -36.4020   23.9230 C   0  0  0  0  0  3  0  0  0  0  0  0
  -27.5790  -37.3020   24.6940 C   0  0  0  0  0  1  0  0  0  0  0  0
  -26.4570  -37.4520   23.7720 N   0  0  0  0  0  0  0  0  0  0  0  0
  -26.0540  -38.3750   23.9110 H   0  0  0  0  0  0  0  0  0  0  0  0
  -26.3670  -31.8010   25.2170 C   0  0  1  0  0  0  0  0  0  0  0  0
  -25.2490  -31.6000   26.2680 C   0  0  0  0  0  1  0  0  0  0  0  0
  -26.9490  -30.4080   24.8890 C   0  0  0  0  0  1  0  0  0  0  0  0
  -27.5100  -32.6030   25.8850 C   0  0  0  0  0  1  0  0  0  0  0  0
  1  5  1  0
  1  2  2  0
  3  1  1  0
  5 19  1  0
  6  4  1  0
  6  3  1  0
  7  4  1  0
  7  5  1  0
  8  6  1  0
  8  9  1  1
  8  7  1  0
 10  8  1  0
 11 19  1  0
 12 17  1  0
 13 14  1  0
 13 12  1  0
 15 14  1  0
 15 24  1  0
 15 16  1  0
 17 11  1  0
 17 16  1  0
 18 11  2  0
 19 20  1  0
 21 22  2  0
 22 41  1  0
 23 22  1  0
 23 26  1  0
 24 25  1  0
 24 21  1  0
 25 23  2  0
 26 27  1  0
 27 28  2  0
 29 32  1  0
 29 28  1  0
 30 29  2  0
 31 30  1  0
 31 26  2  0
 32 33  1  0
 33 34  1  0
 34 35  2  0
 36 35  1  0
 36 40  1  0
 37 36  2  0
 38 33  2  0
 38 37  1  0
 39 38  1  0
 41 42  1  0
 42 45  1  0
 42 44  1  0
 43 41  2  0
 46 47  1  0
 46 21  1  0
 48 46  1  0
 49 50  1  0
 49  2  1  0
 51 62  2  0
 52 50  1  0
 52 57  1  0
 53 61  1  0
 53 63  1  0
 54 60  1  0
 54 56  1  0
 55 61  1  0
 56 57  2  0
 56 55  1  0
 58 52  2  0
 59 58  1  0
 59 54  2  0
 60 53  1  0
 61 51  1  0
 63 65  2  0
 64 63  1  0
 66 64  1  0
 67 76  2  0
 67 72  1  0
 68 64  1  0
 68 72  1  0
 69 68  1  0
 70 71  1  0
 70 69  1  0
 71 67  1  0
 72 73  2  0
 73 74  1  0
 75 74  2  0
 76 75  1  0
 77 51  1  0
 77 78  1  0
 77 87  1  0
 78 81  1  0
 79 83  1  0
 79 78  1  0
 80 79  2  0
 83 82  1  0
 85 86  1  0
 85 83  1  0
 85 84  1  0
 87 90  1  1
 87 88  1  0
 89 87  1  0
M  ISO  4  11 100  19 100  49 101  50 101
M  END
>  <TORSDO>  (88) 
F 17

>  <SCORE>  (88) 
-16.758

>  <name>  (88) 
87

>  <ligand_id>  (88) 
87

>  <original_smiles>  (88) 
[H]C(=C1C([H])([H])C2([H])C([H])([H])C([H])(C1([H])N([H])C(=O)N1C([H])([H])C([H])([H])C([H])([H])C([H])(n3nc(-c4c([H])c([H])c(Oc5c([H])c([H])c(F)c([H])c5F)c([H])c4[H])c(C(=O)N([H])[H])c3N([H])[H])C1([H])[H])C2(C([H])([H])[H])C([H])([H])[H])C([H])([H])Oc1c([H])c([H])c2c(c1[H])C([H])([H])N(C(=O)C([H])(N([H])C(=O)C([H])(N([H])C([H])([H])[H])C([H])([H])[H])C(C([H])([H])[H])(C([H])([H])[H])C([H])([H])[H])C([H])(C(=O)N([H])C1([H])c3c([H])c([H])c([H])c([H])c3C([H])([H])C([H])([H])C1([H])[H])C2([H])[H]

>  <smiles>  (88) 
[H]C(=C1C([H])([H])C2([H])C([H])([H])C([H])(C1([H])N([H])C(=O)N1C([H])([H])C([H])([H])C([H])([H])C([H])(n3nc(-c4c([H])c([H])c(Oc5c([H])c([H])c(F)c([H])c5F)c([H])c4[H])c(C(=O)N([H])[H])c3N([H])[H])C1([H])[H])C2(C([H])([H])[H])C([H])([H])[H])C([H])([H])Oc1c([H])c([H])c2c(c1[H])C([H])([H])N(C(=O)C([H])(N([H])C(=O)C([H])(N([H])C([H])([H])[H])C([H])([H])[H])C(C([H])([H])[H])(C([H])([H])[H])C([H])([H])[H])C([H])(C(=O)N([H])C1([H])c3c([H])c([H])c([H])c([H])c3C([H])([H])C([H])([H])C1([H])[H])C2([H])[H]

$$$$
88:0:0
     RDKit          3D

 81 85  0  0  1  0  0  0  0  0999 V2000
  -28.1740  -25.1450   20.2320 O   0  0  0  0  0  1  0  0  0  0  0  0
  -24.6970  -31.8130   23.1330 C   0  0  0  0  0  0  0  0  0  0  0  0
  -27.2130  -26.4670   20.2440 C   0  0  0  0  0  0  0  0  0  0  0  0
  -23.5210  -30.3870   21.5200 C   0  0  0  0  0  3  0  0  0  0  0  0
  -24.9700  -28.6680   20.1510 C   0  0  0  0  0  0  0  0  0  0  0  0
  -26.1110  -30.4550   21.4240 C   0  0  0  0  0  2  0  0  0  0  0  0
  -26.1730  -28.9830   20.7910 C   0  0  0  0  0  0  0  0  0  0  0  0
  -27.2680  -27.9220   20.7910 C   0  0  0  0  0  3  0  0  0  0  0  0
  -25.9680  -26.4300   19.5450 C   0  0  0  0  0  3  0  0  0  0  0  0
  -24.9210  -27.4200   19.5010 C   0  0  0  0  0  3  0  0  0  0  0  0
  -23.7740  -29.6520   20.1690 C   0  0  0  0  0  2  0  0  0  0  0  0
  -24.8040  -30.9250   22.0770 N   0  0  0  0  0  0  0  0  0  0  0  0
  -23.5990  -32.1290   23.6260 O   0  0  0  0  0  0  0  0  0  0  0  0
  -22.7810  -29.4440   22.5110 C   0  0  0  0  0  0  0  0  0  0  0  0
  -21.4440  -29.3110   22.3990 N   0  0  0  0  0  0  0  0  0  0  0  0
  -23.4290  -28.8240   23.3580 O   0  0  0  0  0  0  0  0  0  0  0  0
  -20.9680  -29.8600   21.6960 H   0  0  0  0  0  0  0  0  0  0  0  0
  -18.0480  -28.1220   22.9530 C   0  0  0  0  0  0  0  0  0  0  0  0
  -20.6120  -28.3890   23.1860 C   0  0  0  0  0  3  0  0  0  0  0  0
  -20.7020  -26.9480   22.6270 C   0  0  0  0  0  2  0  0  0  0  0  0
  -19.5910  -26.6210   21.6240 C   0  0  0  0  0  2  0  0  0  0  0  0
  -18.2150  -26.7710   22.2790 C   0  0  0  0  0  2  0  0  0  0  0  0
  -19.1720  -28.8880   23.3640 C   0  0  0  0  0  0  0  0  0  0  0  0
  -18.9550  -30.1490   23.9630 C   0  0  0  0  0  3  0  0  0  0  0  0
  -17.6500  -30.6440   24.1490 C   0  0  0  0  0  3  0  0  0  0  0  0
  -16.5430  -29.8770   23.7490 C   0  0  0  0  0  3  0  0  0  0  0  0
  -16.7420  -28.6170   23.1570 C   0  0  0  0  0  3  0  0  0  0  0  0
  -25.9470  -32.4880   23.7760 C   0  0  0  0  0  3  0  0  0  0  0  0
  -25.6010  -33.8830   24.1260 N   0  0  0  0  0  0  0  0  0  0  0  0
  -25.9080  -34.9670   23.3990 C   0  0  0  0  0  0  0  0  0  0  0  0
  -26.5620  -34.8980   22.3570 O   0  0  0  0  0  0  0  0  0  0  0  0
  -25.0130  -34.0070   24.9370 H   0  0  0  0  0  0  0  0  0  0  0  0
  -24.1430  -36.7520   23.1480 C   0  0  0  0  0  1  0  0  0  0  0  0
  -25.4180  -36.3430   23.9040 C   0  0  0  0  0  3  0  0  0  0  0  0
  -27.5660  -37.2560   24.6760 C   0  0  0  0  0  1  0  0  0  0  0  0
  -26.4290  -37.4170   23.7750 N   0  0  0  0  0  0  0  0  0  0  0  0
  -26.0120  -38.3280   23.9510 H   0  0  0  0  0  0  0  0  0  0  0  0
  -26.4570  -31.7340   25.0680 C   0  0  1  0  0  0  0  0  0  0  0  0
  -25.3570  -31.5020   26.1320 C   0  0  0  0  0  1  0  0  0  0  0  0
  -27.0530  -30.3550   24.7120 C   0  0  0  0  0  1  0  0  0  0  0  0
  -27.5980  -32.5430   25.7310 C   0  0  0  0  0  1  0  0  0  0  0  0
  -28.1520  -23.2440   20.4220 C   0  0  0  0  0 15  0  0  0  0  0  0
  -28.9100  -21.3420   19.8830 C   0  0  0  0  0 15  0  0  0  0  0  0
  -29.3940  -17.7720   20.0630 C   0  0  0  0  0  2  0  0  0  0  0  0
  -29.3510  -19.3980   20.2290 C   0  0  0  0  0  1  0  0  0  0  0  0
  -30.1130  -16.0810   20.1090 C   0  0  0  0  0  0  0  0  0  0  0  0
  -30.2850  -13.4330   19.3220 C   0  0  0  0  0  2  0  0  0  0  0  0
  -29.4280  -12.8410   18.1520 C   0  0  0  0  0  2  0  0  0  0  0  0
  -28.0410  -12.4030   18.6370 C   0  0  0  0  0  2  0  0  0  0  0  0
  -27.4820  -13.4320   19.6380 C   0  0  0  0  0  3  0  0  0  0  0  0
  -28.4930  -13.9220   20.7100 C   0  0  0  0  0  2  0  0  0  0  0  0
  -29.6050  -14.6550   20.0230 N   0  0  0  0  0  0  0  0  0  0  0  0
  -31.3500  -15.8770   20.0150 O   0  0  0  0  0  0  0  0  0  0  0  0
  -25.1370  -13.9190   20.4450 C   0  0  0  0  0  0  0  0  0  0  0  0
  -24.0890  -13.1320   20.8210 C   0  0  0  0  0  0  0  0  0  0  0  0
  -24.5700  -11.7860   20.7890 C   0  0  0  0  0  0  0  0  0  0  0  0
  -26.1860  -13.0600   20.1900 N   0  0  0  0  0  0  0  0  0  0  0  0
  -25.8630  -11.7670   20.4620 N   0  0  0  0  0  0  0  0  0  0  0  0
  -23.8490  -10.5180   20.9890 C   0  0  0  0  0  0  0  0  0  0  0  0
  -24.2910   -9.5510   21.9190 C   0  0  0  0  0  3  0  0  0  0  0  0
  -23.5640   -8.3570   22.1120 C   0  0  0  0  0  3  0  0  0  0  0  0
  -22.3790   -8.1190   21.3740 C   0  0  0  0  0  0  0  0  0  0  0  0
  -21.9560   -9.0750   20.4340 C   0  0  0  0  0  3  0  0  0  0  0  0
  -22.6840  -10.2600   20.2400 C   0  0  0  0  0  3  0  0  0  0  0  0
  -21.6230   -6.9760   21.4750 O   0  0  0  0  0  0  0  0  0  0  0  0
  -21.5950   -6.2300   22.6270 C   0  0  0  0  0  0  0  0  0  0  0  0
  -21.2010   -6.7860   23.8640 C   0  0  0  0  0  3  0  0  0  0  0  0
  -21.1190   -5.9680   25.0090 C   0  0  0  0  0  3  0  0  0  0  0  0
  -21.4190   -4.5960   24.9180 C   0  0  0  0  0  0  0  0  0  0  0  0
  -21.8050   -4.0400   23.6860 C   0  0  0  0  0  3  0  0  0  0  0  0
  -21.8900   -4.8540   22.5430 C   0  0  0  0  0  0  0  0  0  0  0  0
  -22.2410   -4.3090   21.3540 F   0  0  0  0  0  0  0  0  0  0  0  0
  -21.3340   -3.8080   26.0150 F   0  0  0  0  0  0  0  0  0  0  0  0
  -22.6900  -13.6000   21.0940 C   0  0  0  0  0  0  0  0  0  0  0  0
  -21.9710  -12.9090   21.9700 N   0  0  0  0  0  0  0  0  0  0  0  0
  -22.2460  -14.6180   20.5640 O   0  0  0  0  0  0  0  0  0  0  0  0
  -22.3470  -12.0860   22.4190 H   0  0  0  0  0  0  0  0  0  0  0  0
  -21.0330  -13.2070   22.1960 H   0  0  0  0  0  0  0  0  0  0  0  0
  -25.2830  -15.2920   20.2610 N   0  0  0  0  0  0  0  0  0  0  0  0
  -24.5120  -15.9400   20.3840 H   0  0  0  0  0  0  0  0  0  0  0  0
  -26.1300  -15.7410   19.9350 H   0  0  0  0  0  0  0  0  0  0  0  0
  1  3  1  0
  2 13  2  0
  3  8  1  0
  4 12  1  0
  4 14  1  0
  5 11  1  0
  5  7  1  0
  6 12  1  0
  7  6  1  0
  8  7  2  0
  9  3  2  0
 10  9  1  0
 10  5  2  0
 11  4  1  0
 12  2  1  0
 14 16  2  0
 15 14  1  0
 17 15  1  0
 18 27  2  0
 18 23  1  0
 19 15  1  0
 19 23  1  0
 20 19  1  0
 21 22  1  0
 21 20  1  0
 22 18  1  0
 23 24  2  0
 24 25  1  0
 26 25  2  0
 27 26  1  0
 28  2  1  0
 28 29  1  0
 28 38  1  0
 29 32  1  0
 30 34  1  0
 30 29  1  0
 31 30  2  0
 34 33  1  0
 36 34  1  0
 36 37  1  0
 36 35  1  0
 38 41  1  1
 38 39  1  0
 40 38  1  0
 44 46  1  0
 44 45  1  0
 47 52  1  0
 48 49  1  0
 48 47  1  0
 50 49  1  0
 50 57  1  0
 50 51  1  0
 52 46  1  0
 52 51  1  0
 53 46  2  0
 54 55  2  0
 55 74  1  0
 56 55  1  0
 56 59  1  0
 57 54  1  0
 57 58  1  0
 58 56  2  0
 59 60  1  0
 60 61  2  0
 62 65  1  0
 62 61  1  0
 63 62  2  0
 64 63  1  0
 64 59  2  0
 65 66  1  0
 66 67  1  0
 67 68  2  0
 69 68  1  0
 69 73  1  0
 70 69  2  0
 71 66  2  0
 71 70  1  0
 72 71  1  0
 74 75  1  0
 75 78  1  0
 75 77  1  0
 76 74  2  0
 79 80  1  0
 79 54  1  0
 81 79  1  0
M  ISO  4   1 101  42 101  44 100  46 100
M  END
>  <TORSDO>  (89) 
F 18

>  <SCORE>  (89) 
-16.037

>  <name>  (89) 
88

>  <ligand_id>  (89) 
88

>  <original_smiles>  (89) 
[H]C(C(=O)N1C([H])([H])C([H])([H])C([H])([H])C([H])(n2nc(-c3c([H])c([H])c(Oc4c([H])c([H])c(F)c([H])c4F)c([H])c3[H])c(C(=O)N([H])[H])c2N([H])[H])C1([H])[H])=C([H])C([H])([H])C([H])([H])Oc1c([H])c([H])c2c(c1[H])C([H])([H])N(C(=O)C([H])(N([H])C(=O)C([H])(N([H])C([H])([H])[H])C([H])([H])[H])C(C([H])([H])[H])(C([H])([H])[H])C([H])([H])[H])C([H])(C(=O)N([H])C1([H])c3c([H])c([H])c([H])c([H])c3C([H])([H])C([H])([H])C1([H])[H])C2([H])[H]

>  <smiles>  (89) 
[H]C(C(=O)N1C([H])([H])C([H])([H])C([H])([H])C([H])(n2nc(-c3c([H])c([H])c(Oc4c([H])c([H])c(F)c([H])c4F)c([H])c3[H])c(C(=O)N([H])[H])c2N([H])[H])C1([H])[H])=C([H])C([H])([H])C([H])([H])Oc1c([H])c([H])c2c(c1[H])C([H])([H])N(C(=O)C([H])(N([H])C(=O)C([H])(N([H])C([H])([H])[H])C([H])([H])[H])C(C([H])([H])[H])(C([H])([H])[H])C([H])([H])[H])C([H])(C(=O)N([H])C1([H])c3c([H])c([H])c([H])c([H])c3C([H])([H])C([H])([H])C1([H])[H])C2([H])[H]

$$$$
89:0:0
     RDKit          3D

 95102  0  0  1  0  0  0  0  0999 V2000
  -29.2670  -22.0180   20.6920 C   0  0  0  0  0  0  0  0  0  0  0  0
  -28.8900  -23.1840   21.2600 N   0  0  0  0  0  0  0  0  0  0  0  0
  -29.2990  -21.8560   19.4710 O   0  0  0  0  0  0  0  0  0  0  0  0
  -28.9470  -23.2170   22.2690 H   0  0  0  0  0  0  0  0  0  0  0  0
  -30.6960  -21.2120   22.6930 C   0  0  0  0  0  1  0  0  0  0  0  0
  -29.6370  -20.8420   21.6370 C   0  0  0  0  0  3  0  0  0  0  0  0
  -30.0110  -18.3470   21.4240 C   0  0  0  0  0  0  0  0  0  0  0  0
  -30.0250  -19.6030   20.9270 N   0  0  0  0  0  0  0  0  0  0  0  0
  -29.6090  -18.1070   22.5630 O   0  0  0  0  0  0  0  0  0  0  0  0
  -30.3140  -19.7330   19.9650 H   0  0  0  0  0  0  0  0  0  0  0  0
  -30.5450  -17.1950   20.5410 C   0  0  0  0  0  2  0  0  0  0  0  0
  -30.1400  -15.7560   21.0100 C   0  0  0  0  0  2  0  0  0  0  0  0
  -30.7330  -14.5970   20.1590 C   0  0  0  0  0  0  0  0  0  0  0  0
  -30.3570  -12.4920   18.9040 C   0  0  0  0  0  2  0  0  0  0  0  0
  -29.3430  -12.7580   17.7710 C   0  0  0  0  0  2  0  0  0  0  0  0
  -27.8960  -12.6060   18.2810 C   0  0  0  0  0  2  0  0  0  0  0  0
  -27.6470  -13.3780   19.6050 C   0  0  0  0  0  3  0  0  0  0  0  0
  -28.7680  -13.0920   20.6320 C   0  0  0  0  0  2  0  0  0  0  0  0
  -30.0530  -13.4260   20.0020 N   0  0  0  0  0  0  0  0  0  0  0  0
  -31.8010  -14.8030   19.5740 O   0  0  0  0  0  0  0  0  0  0  0  0
  -25.2910  -13.9690   20.4520 C   0  0  0  0  0  0  0  0  0  0  0  0
  -24.2420  -13.1890   20.8630 C   0  0  0  0  0  0  0  0  0  0  0  0
  -24.7000  -11.8390   20.7780 C   0  0  0  0  0  0  0  0  0  0  0  0
  -26.3220  -13.0930   20.1510 N   0  0  0  0  0  0  0  0  0  0  0  0
  -25.9720  -11.8050   20.4020 N   0  0  0  0  0  0  0  0  0  0  0  0
  -23.9820  -10.5730   20.9820 C   0  0  0  0  0  0  0  0  0  0  0  0
  -24.4410   -9.6040   21.9010 C   0  0  0  0  0  3  0  0  0  0  0  0
  -23.7250   -8.4030   22.0950 C   0  0  0  0  0  3  0  0  0  0  0  0
  -22.5340   -8.1630   21.3680 C   0  0  0  0  0  0  0  0  0  0  0  0
  -22.0930   -9.1190   20.4380 C   0  0  0  0  0  3  0  0  0  0  0  0
  -22.8100  -10.3130   20.2440 C   0  0  0  0  0  3  0  0  0  0  0  0
  -21.7870   -7.0130   21.4710 O   0  0  0  0  0  0  0  0  0  0  0  0
  -21.7450   -6.2840   22.6320 C   0  0  0  0  0  0  0  0  0  0  0  0
  -21.3210   -6.8530   23.8540 C   0  0  0  0  0  3  0  0  0  0  0  0
  -21.2250   -6.0490   25.0070 C   0  0  0  0  0  3  0  0  0  0  0  0
  -21.5440   -4.6790   24.9410 C   0  0  0  0  0  0  0  0  0  0  0  0
  -21.9620   -4.1110   23.7250 C   0  0  0  0  0  3  0  0  0  0  0  0
  -22.0590   -4.9120   22.5740 C   0  0  0  0  0  0  0  0  0  0  0  0
  -22.4410   -4.3550   21.3990 F   0  0  0  0  0  0  0  0  0  0  0  0
  -21.4440   -3.9060   26.0480 F   0  0  0  0  0  0  0  0  0  0  0  0
  -22.8630  -13.6610   21.2220 C   0  0  0  0  0  0  0  0  0  0  0  0
  -22.1860  -12.9500   22.1170 N   0  0  0  0  0  0  0  0  0  0  0  0
  -22.3960  -14.6940   20.7440 O   0  0  0  0  0  0  0  0  0  0  0  0
  -22.5770  -12.1130   22.5230 H   0  0  0  0  0  0  0  0  0  0  0  0
  -21.2630  -13.2480   22.4000 H   0  0  0  0  0  0  0  0  0  0  0  0
  -25.4460  -15.3430   20.2910 N   0  0  0  0  0  0  0  0  0  0  0  0
  -24.6850  -15.9950   20.4460 H   0  0  0  0  0  0  0  0  0  0  0  0
  -26.2750  -15.7880   19.9170 H   0  0  0  0  0  0  0  0  0  0  0  0
  -28.2370  -24.3480   20.6120 C   0  0  0  0  0  3  0  0  0  0  0  0
  -26.7110  -24.2030   20.8630 C   0  0  0  0  0  2  0  0  0  0  0  0
  -26.0580  -23.7810   18.4220 C   0  0  0  0  0  1  0  0  0  0  0  0
  -24.4680  -23.1750   20.2750 C   0  0  0  0  0  1  0  0  0  0  0  0
  -25.9460  -23.2920   19.8750 C   0  0  0  0  0  3  0  0  0  0  0  0
  -28.7930  -25.7180   21.1430 C   0  0  0  0  0  2  0  0  0  0  0  0
  -28.7330  -26.8430   20.2320 O   0  0  0  0  0  0  0  0  0  0  0  0
  -24.7200  -31.9230   23.2680 C   0  0  0  0  0  0  0  0  0  0  0  0
  -27.5670  -27.5820   20.2240 C   0  0  0  0  0  0  0  0  0  0  0  0
  -23.6020  -30.5110   21.5720 C   0  0  0  0  0  3  0  0  0  0  0  0
  -25.1410  -29.0390   20.1660 C   0  0  0  0  0  0  0  0  0  0  0  0
  -26.1210  -30.9380   21.4550 C   0  0  0  0  0  2  0  0  0  0  0  0
  -26.2650  -29.5750   20.8090 C   0  0  0  0  0  0  0  0  0  0  0  0
  -27.4790  -28.8490   20.8460 C   0  0  0  0  0  3  0  0  0  0  0  0
  -26.4470  -27.0920   19.5240 C   0  0  0  0  0  3  0  0  0  0  0  0
  -25.2280  -27.7960   19.5180 C   0  0  0  0  0  3  0  0  0  0  0  0
  -23.8710  -29.8610   20.1900 C   0  0  0  0  0  2  0  0  0  0  0  0
  -24.8300  -31.1400   22.1580 N   0  0  0  0  0  0  0  0  0  0  0  0
  -23.6160  -32.1570   23.7800 O   0  0  0  0  0  0  0  0  0  0  0  0
  -22.9530  -29.4590   22.4990 C   0  0  0  0  0  0  0  0  0  0  0  0
  -21.6360  -29.2470   22.3360 N   0  0  0  0  0  0  0  0  0  0  0  0
  -23.6310  -28.8340   23.3200 O   0  0  0  0  0  0  0  0  0  0  0  0
  -21.1490  -29.8000   21.6430 H   0  0  0  0  0  0  0  0  0  0  0  0
  -18.2750  -27.9830   22.7520 C   0  0  0  0  0  0  0  0  0  0  0  0
  -20.8240  -28.2760   23.0710 C   0  0  0  0  0  3  0  0  0  0  0  0
  -20.9590  -26.8620   22.4600 C   0  0  0  0  0  2  0  0  0  0  0  0
  -19.8800  -26.5480   21.4220 C   0  0  0  0  0  2  0  0  0  0  0  0
  -18.4850  -26.6540   22.0470 C   0  0  0  0  0  2  0  0  0  0  0  0
  -19.3740  -28.7530   23.2190 C   0  0  0  0  0  0  0  0  0  0  0  0
  -19.1250  -29.9970   23.8370 C   0  0  0  0  0  3  0  0  0  0  0  0
  -17.8090  -30.4740   23.9920 C   0  0  0  0  0  3  0  0  0  0  0  0
  -16.7250  -29.7010   23.5440 C   0  0  0  0  0  3  0  0  0  0  0  0
  -16.9570  -28.4580   22.9300 C   0  0  0  0  0  3  0  0  0  0  0  0
  -25.9690  -32.5810   23.9340 C   0  0  0  0  0  3  0  0  0  0  0  0
  -26.4430  -31.8350   25.2400 C   0  0  1  0  0  0  0  0  0  0  0  0
  -25.3090  -31.5890   26.2620 C   0  0  0  0  0  1  0  0  0  0  0  0
  -27.0670  -30.4640   24.8890 C   0  0  0  0  0  1  0  0  0  0  0  0
  -27.5540  -32.6560   25.9370 C   0  0  0  0  0  1  0  0  0  0  0  0
  -25.6290  -33.9800   24.2240 N   0  0  0  0  0  0  0  0  0  0  0  0
  -25.9710  -35.0210   23.4540 C   0  0  0  0  0  0  0  0  0  0  0  0
  -26.6740  -34.9070   22.4460 O   0  0  0  0  0  0  0  0  0  0  0  0
  -25.0110  -34.1440   25.0060 H   0  0  0  0  0  0  0  0  0  0  0  0
  -24.2230  -36.7720   23.0110 C   0  0  0  0  0  1  0  0  0  0  0  0
  -25.4480  -36.4100   23.8660 C   0  0  0  0  0  3  0  0  0  0  0  0
  -27.5430  -37.3500   24.7340 C   0  0  0  0  0  1  0  0  0  0  0  0
  -26.4650  -37.4780   23.7560 N   0  0  0  0  0  0  0  0  0  0  0  0
  -26.0390  -38.3940   23.8720 H   0  0  0  0  0  0  0  0  0  0  0  0
  1  2  1  0
  1  6  1  0
  2  4  1  0
  3  1  2  0
  6  5  1  0
  7  9  2  0
  8  7  1  0
  8  6  1  0
 10  8  1  0
 11 12  1  0
 11  7  1  0
 13 12  1  0
 14 19  1  0
 15 16  1  0
 15 14  1  0
 17 16  1  0
 17 24  1  0
 17 18  1  0
 19 13  1  0
 19 18  1  0
 20 13  2  0
 21 22  2  0
 22 41  1  0
 23 22  1  0
 23 26  1  0
 24 25  1  0
 24 21  1  0
 25 23  2  0
 26 27  1  0
 27 28  2  0
 29 32  1  0
 29 28  1  0
 30 29  2  0
 31 30  1  0
 31 26  2  0
 32 33  1  0
 33 34  1  0
 34 35  2  0
 36 35  1  0
 36 40  1  0
 37 36  2  0
 38 33  2  0
 38 37  1  0
 39 38  1  0
 41 42  1  0
 42 45  1  0
 42 44  1  0
 43 41  2  0
 46 47  1  0
 46 21  1  0
 48 46  1  0
 49 50  1  0
 49 54  1  0
 49  2  1  0
 51 53  1  0
 53 52  1  0
 53 50  1  0
 55 54  1  0
 56 67  2  0
 57 55  1  0
 57 62  1  0
 58 66  1  0
 58 68  1  0
 59 65  1  0
 59 61  1  0
 60 66  1  0
 61 62  2  0
 61 60  1  0
 63 57  2  0
 64 63  1  0
 64 59  2  0
 65 58  1  0
 66 56  1  0
 68 70  2  0
 69 68  1  0
 71 69  1  0
 72 81  2  0
 72 77  1  0
 73 69  1  0
 73 77  1  0
 74 73  1  0
 75 76  1  0
 75 74  1  0
 76 72  1  0
 77 78  2  0
 78 79  1  0
 80 79  2  0
 81 80  1  0
 82 56  1  0
 82 87  1  0
 82 83  1  0
 83 86  1  1
 83 84  1  0
 85 83  1  0
 87 90  1  0
 88 92  1  0
 88 87  1  0
 89 88  2  0
 92 91  1  0
 94 92  1  0
 94 95  1  0
 94 93  1  0
M  ISO  4  12 100  13 100  54 101  55 101
M  END
>  <TORSDO>  (90) 
F 24

>  <SCORE>  (90) 
-11.648

>  <name>  (90) 
89

>  <ligand_id>  (90) 
89

>  <original_smiles>  (90) 
[H]c1c([H])c([H])c2c(c1[H])C([H])([H])C([H])([H])C([H])([H])C2([H])N([H])C(=O)C1([H])N(C(=O)C([H])(N([H])C(=O)C([H])(N([H])C([H])([H])[H])C([H])([H])[H])C(C([H])([H])[H])(C([H])([H])[H])C([H])([H])[H])C([H])([H])c2c([H])c(OC([H])([H])C([H])(N([H])C(=O)C([H])(N([H])C(=O)C([H])([H])C([H])([H])C(=O)N3C([H])([H])C([H])([H])C([H])([H])C([H])(n4nc(-c5c([H])c([H])c(Oc6c([H])c([H])c(F)c([H])c6F)c([H])c5[H])c(C(=O)N([H])[H])c4N([H])[H])C3([H])[H])C([H])([H])[H])C([H])([H])C([H])(C([H])([H])[H])C([H])([H])[H])c([H])c([H])c2C1([H])[H]

>  <smiles>  (90) 
[H]c1c([H])c([H])c2c(c1[H])C([H])([H])C([H])([H])C([H])([H])C2([H])N([H])C(=O)C1([H])N(C(=O)C([H])(N([H])C(=O)C([H])(N([H])C([H])([H])[H])C([H])([H])[H])C(C([H])([H])[H])(C([H])([H])[H])C([H])([H])[H])C([H])([H])c2c([H])c(OC([H])([H])C([H])(N([H])C(=O)C([H])(N([H])C(=O)C([H])([H])C([H])([H])C(=O)N3C([H])([H])C([H])([H])C([H])([H])C([H])(n4nc(-c5c([H])c([H])c(Oc6c([H])c([H])c(F)c([H])c6F)c([H])c5[H])c(C(=O)N([H])[H])c4N([H])[H])C3([H])[H])C([H])([H])[H])C([H])([H])C([H])(C([H])([H])[H])C([H])([H])[H])c([H])c([H])c2C1([H])[H]

$$$$
90:0:0
     RDKit          3D

 91 98  0  0  1  0  0  0  0  0999 V2000
  -29.2730  -20.8410   22.1870 C   0  0  0  0  0  3  0  0  0  0  0  0
  -28.8800  -22.1300   22.0970 C   0  0  0  0  0  3  0  0  0  0  0  0
  -29.3670  -19.8880   21.0920 C   0  0  0  0  0  0  0  0  0  0  0  0
  -29.5410  -18.6470   21.5560 N   0  0  0  0  0  0  0  0  0  0  0  0
  -29.3270  -20.1330   19.8860 O   0  0  0  0  0  0  0  0  0  0  0  0
  -29.5950  -18.5310   22.5560 H   0  0  0  0  0  0  0  0  0  0  0  0
  -29.6390  -17.4410   20.7480 C   0  0  0  0  0  2  0  0  0  0  0  0
  -31.0600  -16.8480   20.7780 C   0  0  0  0  0  2  0  0  0  0  0  0
  -31.5080  -14.5230   19.9590 C   0  0  0  0  0  0  0  0  0  0  0  0
  -31.1600  -12.3280   18.8900 C   0  0  0  0  0  2  0  0  0  0  0  0
  -30.1510  -12.4370   17.7270 C   0  0  0  0  0  2  0  0  0  0  0  0
  -28.6900  -12.3950   18.2230 C   0  0  0  0  0  2  0  0  0  0  0  0
  -28.4320  -13.3410   19.4220 C   0  0  0  0  0  3  0  0  0  0  0  0
  -29.5060  -13.1030   20.5000 C   0  0  0  0  0  2  0  0  0  0  0  0
  -30.8340  -13.3510   19.8950 N   0  0  0  0  0  0  0  0  0  0  0  0
  -32.5090  -14.7860   19.2810 O   0  0  0  0  0  0  0  0  0  0  0  0
  -30.9470  -15.4020   20.7940 N   0  0  0  0  0  0  0  0  0  0  0  0
  -30.2020  -15.0290   21.3630 H   0  0  0  0  0  0  0  0  0  0  0  0
  -26.1150  -14.1180   20.2450 C   0  0  0  0  0  0  0  0  0  0  0  0
  -25.0070  -13.4230   20.6550 C   0  0  0  0  0  0  0  0  0  0  0  0
  -25.3620  -12.0420   20.5820 C   0  0  0  0  0  0  0  0  0  0  0  0
  -27.0810  -13.1660   19.9580 N   0  0  0  0  0  0  0  0  0  0  0  0
  -26.6280  -11.9090   20.2060 N   0  0  0  0  0  0  0  0  0  0  0  0
  -24.5560  -10.8320   20.7920 C   0  0  0  0  0  0  0  0  0  0  0  0
  -24.9190   -9.8610   21.7500 C   0  0  0  0  0  3  0  0  0  0  0  0
  -24.1150   -8.7170   21.9470 C   0  0  0  0  0  3  0  0  0  0  0  0
  -22.9350   -8.5400   21.1880 C   0  0  0  0  0  0  0  0  0  0  0  0
  -22.5910   -9.4990   20.2200 C   0  0  0  0  0  3  0  0  0  0  0  0
  -23.3950  -10.6330   20.0220 C   0  0  0  0  0  3  0  0  0  0  0  0
  -22.1090   -7.4460   21.2900 O   0  0  0  0  0  0  0  0  0  0  0  0
  -21.9230   -6.7920   22.4810 C   0  0  0  0  0  0  0  0  0  0  0  0
  -21.4330   -7.4560   23.6260 C   0  0  0  0  0  3  0  0  0  0  0  0
  -21.1990   -6.7320   24.8130 C   0  0  0  0  0  3  0  0  0  0  0  0
  -21.4400   -5.3460   24.8510 C   0  0  0  0  0  0  0  0  0  0  0  0
  -21.9240   -4.6830   23.7080 C   0  0  0  0  0  3  0  0  0  0  0  0
  -22.1630   -5.4040   22.5270 C   0  0  0  0  0  0  0  0  0  0  0  0
  -22.6100   -4.7560   21.4240 F   0  0  0  0  0  0  0  0  0  0  0  0
  -21.2040   -4.6490   25.9870 F   0  0  0  0  0  0  0  0  0  0  0  0
  -23.6660  -14.0000   21.0070 C   0  0  0  0  0  0  0  0  0  0  0  0
  -22.9450  -13.3580   21.9180 N   0  0  0  0  0  0  0  0  0  0  0  0
  -23.2730  -15.0550   20.5110 O   0  0  0  0  0  0  0  0  0  0  0  0
  -23.2760  -12.5040   22.3420 H   0  0  0  0  0  0  0  0  0  0  0  0
  -22.0470  -13.7280   22.1960 H   0  0  0  0  0  0  0  0  0  0  0  0
  -26.3750  -15.4750   20.0660 N   0  0  0  0  0  0  0  0  0  0  0  0
  -25.6640  -16.1870   20.1860 H   0  0  0  0  0  0  0  0  0  0  0  0
  -27.2320  -15.8350   19.6670 H   0  0  0  0  0  0  0  0  0  0  0  0
  -28.3990  -22.9360   20.8980 C   0  0  0  0  0  2  0  0  0  0  0  0
  -29.3170  -24.1380   20.6180 C   0  0  0  0  0  2  0  0  0  0  0  0
  -28.9400  -24.8440   19.3080 C   0  0  0  0  0  2  0  0  0  0  0  0
  -29.6170  -26.2200   19.1030 C   0  0  0  0  0  2  0  0  0  0  0  0
  -29.2830  -27.2040   20.0910 O   0  0  0  0  0  0  0  0  0  0  0  0
  -24.8740  -31.7590   23.3280 C   0  0  0  0  0  0  0  0  0  0  0  0
  -28.0340  -27.7940   20.0670 C   0  0  0  0  0  0  0  0  0  0  0  0
  -23.8650  -30.3630   21.5530 C   0  0  0  0  0  3  0  0  0  0  0  0
  -25.5010  -29.0650   20.0980 C   0  0  0  0  0  0  0  0  0  0  0  0
  -26.3540  -30.9560   21.4940 C   0  0  0  0  0  2  0  0  0  0  0  0
  -26.5840  -29.6450   20.7720 C   0  0  0  0  0  0  0  0  0  0  0  0
  -27.8450  -29.0060   20.7750 C   0  0  0  0  0  3  0  0  0  0  0  0
  -26.9310  -27.2480   19.3690 C   0  0  0  0  0  3  0  0  0  0  0  0
  -25.6700  -27.8610   19.3970 C   0  0  0  0  0  3  0  0  0  0  0  0
  -24.1850  -29.8020   20.1430 C   0  0  0  0  0  2  0  0  0  0  0  0
  -25.0450  -31.0400   22.1830 N   0  0  0  0  0  0  0  0  0  0  0  0
  -23.7510  -31.8960   23.8340 O   0  0  0  0  0  0  0  0  0  0  0  0
  -23.2790  -29.2250   22.4210 C   0  0  0  0  0  0  0  0  0  0  0  0
  -21.9850  -28.9280   22.2180 N   0  0  0  0  0  0  0  0  0  0  0  0
  -23.9850  -28.6200   23.2340 O   0  0  0  0  0  0  0  0  0  0  0  0
  -21.4740  -29.4800   21.5430 H   0  0  0  0  0  0  0  0  0  0  0  0
  -18.7190  -27.4050   22.5030 C   0  0  0  0  0  0  0  0  0  0  0  0
  -21.2310  -27.8720   22.8920 C   0  0  0  0  0  3  0  0  0  0  0  0
  -21.4870  -26.4970   22.2330 C   0  0  0  0  0  2  0  0  0  0  0  0
  -20.4510  -26.1380   21.1620 C   0  0  0  0  0  2  0  0  0  0  0  0
  -19.0410  -26.1180   21.7620 C   0  0  0  0  0  2  0  0  0  0  0  0
  -19.7480  -28.2340   23.0240 C   0  0  0  0  0  0  0  0  0  0  0  0
  -19.3950  -29.4300   23.6800 C   0  0  0  0  0  3  0  0  0  0  0  0
  -18.0470  -29.8030   23.8220 C   0  0  0  0  0  3  0  0  0  0  0  0
  -17.0320  -28.9700   23.3200 C   0  0  0  0  0  3  0  0  0  0  0  0
  -17.3690  -27.7730   22.6650 C   0  0  0  0  0  3  0  0  0  0  0  0
  -26.0730  -32.4600   24.0330 C   0  0  0  0  0  3  0  0  0  0  0  0
  -25.6630  -33.8400   24.3240 N   0  0  0  0  0  0  0  0  0  0  0  0
  -25.9910  -34.9040   23.5810 C   0  0  0  0  0  0  0  0  0  0  0  0
  -26.7410  -34.8330   22.6040 O   0  0  0  0  0  0  0  0  0  0  0  0
  -24.9990  -33.9650   25.0740 H   0  0  0  0  0  0  0  0  0  0  0  0
  -24.1980  -36.5920   23.0740 C   0  0  0  0  0  1  0  0  0  0  0  0
  -25.3950  -36.2680   23.9810 C   0  0  0  0  0  3  0  0  0  0  0  0
  -27.4070  -37.2770   24.9580 C   0  0  0  0  0  1  0  0  0  0  0  0
  -26.3720  -37.3760   23.9320 N   0  0  0  0  0  0  0  0  0  0  0  0
  -25.9060  -38.2740   24.0330 H   0  0  0  0  0  0  0  0  0  0  0  0
  -26.5320  -31.7240   25.3520 C   0  0  1  0  0  0  0  0  0  0  0  0
  -25.3710  -31.4120   26.3260 C   0  0  0  0  0  1  0  0  0  0  0  0
  -27.2400  -30.3910   25.0140 C   0  0  0  0  0  1  0  0  0  0  0  0
  -27.5690  -32.5960   26.1000 C   0  0  0  0  0  1  0  0  0  0  0  0
  2  1  2  0
  3  4  1  0
  3  1  1  0
  4  6  1  0
  5  3  2  0
  7  8  1  0
  7  4  1  0
  8 17  1  0
  9 17  1  0
 10 15  1  0
 11 12  1  0
 11 10  1  0
 13 12  1  0
 13 22  1  0
 13 14  1  0
 15  9  1  0
 15 14  1  0
 16  9  2  0
 17 18  1  0
 19 20  2  0
 20 39  1  0
 21 20  1  0
 21 24  1  0
 22 23  1  0
 22 19  1  0
 23 21  2  0
 24 25  1  0
 25 26  2  0
 27 30  1  0
 27 26  1  0
 28 27  2  0
 29 28  1  0
 29 24  2  0
 30 31  1  0
 31 36  2  0
 31 32  1  0
 32 33  2  0
 33 34  1  0
 34 38  1  0
 35 34  2  0
 36 35  1  0
 37 36  1  0
 39 40  1  0
 40 43  1  0
 40 42  1  0
 41 39  2  0
 44 45  1  0
 44 19  1  0
 46 44  1  0
 47  2  1  0
 48 47  1  0
 49 48  1  0
 50 49  1  0
 50 51  1  0
 52 63  2  0
 53 51  1  0
 53 58  1  0
 54 62  1  0
 54 64  1  0
 55 61  1  0
 55 57  1  0
 56 62  1  0
 57 58  2  0
 57 56  1  0
 59 60  1  0
 59 53  2  0
 60 55  2  0
 61 54  1  0
 62 52  1  0
 64 66  2  0
 65 64  1  0
 67 65  1  0
 68 77  2  0
 68 73  1  0
 69 65  1  0
 69 73  1  0
 70 69  1  0
 71 72  1  0
 71 70  1  0
 72 68  1  0
 73 74  2  0
 74 75  1  0
 76 75  2  0
 77 76  1  0
 78 52  1  0
 78 79  1  0
 78 88  1  0
 79 82  1  0
 80 84  1  0
 80 79  1  0
 81 80  2  0
 84 83  1  0
 86 84  1  0
 86 87  1  0
 86 85  1  0
 88 91  1  1
 88 89  1  0
 90 88  1  0
M  ISO  4   9 100  17 100  50 101  51 101
M  END
>  <TORSDO>  (91) 
F 23

>  <SCORE>  (91) 
-10.709

>  <name>  (91) 
90

>  <ligand_id>  (91) 
90

>  <original_smiles>  (91) 
[H]C(C(=O)N([H])C([H])([H])C([H])([H])N([H])C(=O)N1C([H])([H])C([H])([H])C([H])([H])C([H])(n2nc(-c3c([H])c([H])c(Oc4c([H])c([H])c(F)c([H])c4F)c([H])c3[H])c(C(=O)N([H])[H])c2N([H])[H])C1([H])[H])=C([H])C([H])([H])C([H])([H])C([H])([H])C([H])([H])Oc1c([H])c([H])c2c(c1[H])C([H])([H])N(C(=O)C([H])(N([H])C(=O)C([H])(N([H])C([H])([H])[H])C([H])([H])[H])C(C([H])([H])[H])(C([H])([H])[H])C([H])([H])[H])C([H])(C(=O)N([H])C1([H])c3c([H])c([H])c([H])c([H])c3C([H])([H])C([H])([H])C1([H])[H])C2([H])[H]

>  <smiles>  (91) 
[H]C(C(=O)N([H])C([H])([H])C([H])([H])N([H])C(=O)N1C([H])([H])C([H])([H])C([H])([H])C([H])(n2nc(-c3c([H])c([H])c(Oc4c([H])c([H])c(F)c([H])c4F)c([H])c3[H])c(C(=O)N([H])[H])c2N([H])[H])C1([H])[H])=C([H])C([H])([H])C([H])([H])C([H])([H])C([H])([H])Oc1c([H])c([H])c2c(c1[H])C([H])([H])N(C(=O)C([H])(N([H])C(=O)C([H])(N([H])C([H])([H])[H])C([H])([H])[H])C(C([H])([H])[H])(C([H])([H])[H])C([H])([H])[H])C([H])(C(=O)N([H])C1([H])c3c([H])c([H])c([H])c([H])c3C([H])([H])C([H])([H])C1([H])[H])C2([H])[H]

$$$$
91:0:0
     RDKit          3D

 92 99  0  0  1  0  0  0  0  0999 V2000
  -29.4700  -21.1110   20.7120 C   0  0  0  0  0  3  0  0  0  0  0  0
  -29.1500  -20.9710   22.1440 N   0  0  0  0  0  4  0  0  0  0  0  0
  -28.1870  -20.7120   22.2730 H   0  0  0  0  0  0  0  0  0  0  0  0
  -29.3190  -21.8310   22.6350 H   0  0  0  0  0  0  0  0  0  0  0  0
  -29.7200  -20.2640   22.5680 H   0  0  0  0  0  0  0  0  0  0  0  0
  -29.9060  -19.7330   18.5600 C   0  0  0  0  0  1  0  0  0  0  0  0
  -29.3070  -19.6790   19.9820 C   0  0  0  0  0  3  0  0  0  0  0  0
  -29.5580  -17.1190   20.4130 C   0  0  0  0  0  0  0  0  0  0  0  0
  -29.8400  -18.4430   20.6900 N   0  0  0  0  0  0  0  0  0  0  0  0
  -28.7750  -16.8300   19.5080 O   0  0  0  0  0  0  0  0  0  0  0  0
  -30.5320  -18.5950   21.4110 H   0  0  0  0  0  0  0  0  0  0  0  0
  -30.1440  -15.9500   21.3050 C   0  0  0  0  0  2  0  0  0  0  0  0
  -30.6930  -14.6920   20.5050 C   0  0  0  0  0  0  0  0  0  0  0  0
  -30.4260  -12.4770   19.3770 C   0  0  0  0  0  2  0  0  0  0  0  0
  -29.5020  -12.6220   18.1500 C   0  0  0  0  0  2  0  0  0  0  0  0
  -28.0260  -12.4650   18.5600 C   0  0  0  0  0  2  0  0  0  0  0  0
  -27.6620  -13.3210   19.8010 C   0  0  0  0  0  3  0  0  0  0  0  0
  -28.7050  -13.1600   20.9290 C   0  0  0  0  0  2  0  0  0  0  0  0
  -30.0240  -13.4970   20.3740 N   0  0  0  0  0  0  0  0  0  0  0  0
  -31.8100  -14.8130   19.9890 O   0  0  0  0  0  0  0  0  0  0  0  0
  -25.2630  -13.9270   20.4790 C   0  0  0  0  0  0  0  0  0  0  0  0
  -24.1900  -13.1610   20.8420 C   0  0  0  0  0  0  0  0  0  0  0  0
  -24.6490  -11.8070   20.8350 C   0  0  0  0  0  0  0  0  0  0  0  0
  -26.3080  -13.0430   20.2700 N   0  0  0  0  0  0  0  0  0  0  0  0
  -25.9430  -11.7630   20.5420 N   0  0  0  0  0  0  0  0  0  0  0  0
  -23.9180  -10.5480   21.0330 C   0  0  0  0  0  0  0  0  0  0  0  0
  -24.3490   -9.5820   21.9680 C   0  0  0  0  0  3  0  0  0  0  0  0
  -23.6190   -8.3880   22.1530 C   0  0  0  0  0  3  0  0  0  0  0  0
  -22.4430   -8.1520   21.4010 C   0  0  0  0  0  0  0  0  0  0  0  0
  -22.0320   -9.1060   20.4550 C   0  0  0  0  0  3  0  0  0  0  0  0
  -22.7630  -10.2920   20.2680 C   0  0  0  0  0  3  0  0  0  0  0  0
  -21.6850   -7.0090   21.4940 O   0  0  0  0  0  0  0  0  0  0  0  0
  -21.6470   -6.2620   22.6440 C   0  0  0  0  0  0  0  0  0  0  0  0
  -21.2490   -6.8170   23.8800 C   0  0  0  0  0  3  0  0  0  0  0  0
  -21.1570   -5.9970   25.0220 C   0  0  0  0  0  3  0  0  0  0  0  0
  -21.4520   -4.6240   24.9300 C   0  0  0  0  0  0  0  0  0  0  0  0
  -21.8440   -4.0680   23.6990 C   0  0  0  0  0  3  0  0  0  0  0  0
  -21.9370   -4.8850   22.5580 C   0  0  0  0  0  0  0  0  0  0  0  0
  -22.2940   -4.3400   21.3700 F   0  0  0  0  0  0  0  0  0  0  0  0
  -21.3560   -3.8340   26.0250 F   0  0  0  0  0  0  0  0  0  0  0  0
  -22.7890  -13.6420   21.0910 C   0  0  0  0  0  0  0  0  0  0  0  0
  -22.0510  -12.9590   21.9570 N   0  0  0  0  0  0  0  0  0  0  0  0
  -22.3580  -14.6610   20.5500 O   0  0  0  0  0  0  0  0  0  0  0  0
  -22.4140  -12.1360   22.4150 H   0  0  0  0  0  0  0  0  0  0  0  0
  -21.1090  -13.2610   22.1650 H   0  0  0  0  0  0  0  0  0  0  0  0
  -25.4380  -15.2950   20.2900 N   0  0  0  0  0  0  0  0  0  0  0  0
  -24.6780  -15.9620   20.3770 H   0  0  0  0  0  0  0  0  0  0  0  0
  -26.3030  -15.7170   19.9680 H   0  0  0  0  0  0  0  0  0  0  0  0
  -28.6690  -22.3660   20.0920 C   0  0  0  0  0  2  0  0  0  0  0  0
  -29.0250  -23.8800   20.4990 C   0  0  0  0  0  3  0  0  0  0  0  0
  -28.0460  -25.0210   19.9620 C   0  0  0  0  0  3  0  0  0  0  0  0
  -28.2810  -26.4670   20.2310 O   0  0  0  0  0  0  0  0  0  0  0  0
  -24.5970  -31.9090   23.2420 C   0  0  0  0  0  0  0  0  0  0  0  0
  -27.1780  -27.3420   20.1620 C   0  0  0  0  0  0  0  0  0  0  0  0
  -23.3820  -30.5160   21.6080 C   0  0  0  0  0  3  0  0  0  0  0  0
  -24.8220  -28.9720   20.1670 C   0  0  0  0  0  0  0  0  0  0  0  0
  -25.9230  -30.8260   21.4140 C   0  0  0  0  0  2  0  0  0  0  0  0
  -25.9950  -29.4490   20.7630 C   0  0  0  0  0  0  0  0  0  0  0  0
  -27.1750  -28.6440   20.7550 C   0  0  0  0  0  3  0  0  0  0  0  0
  -25.9830  -26.9340   19.5230 C   0  0  0  0  0  3  0  0  0  0  0  0
  -24.8180  -27.7200   19.5380 C   0  0  0  0  0  3  0  0  0  0  0  0
  -23.5870  -29.8460   20.2250 C   0  0  0  0  0  2  0  0  0  0  0  0
  -24.6530  -31.1010   22.1440 N   0  0  0  0  0  0  0  0  0  0  0  0
  -23.5160  -32.1900   23.7820 O   0  0  0  0  0  0  0  0  0  0  0  0
  -22.7240  -29.4970   22.5690 C   0  0  0  0  0  0  0  0  0  0  0  0
  -21.3980  -29.3150   22.4430 N   0  0  0  0  0  0  0  0  0  0  0  0
  -23.4040  -28.8730   23.3880 O   0  0  0  0  0  0  0  0  0  0  0  0
  -20.9080  -29.8690   21.7540 H   0  0  0  0  0  0  0  0  0  0  0  0
  -18.0260  -28.1040   22.9350 C   0  0  0  0  0  0  0  0  0  0  0  0
  -20.5800  -28.3780   23.2160 C   0  0  0  0  0  3  0  0  0  0  0  0
  -20.6940  -26.9440   22.6500 C   0  0  0  0  0  2  0  0  0  0  0  0
  -19.5970  -26.6090   21.6330 C   0  0  0  0  0  2  0  0  0  0  0  0
  -18.2120  -26.7500   22.2700 C   0  0  0  0  0  2  0  0  0  0  0  0
  -19.1380  -28.8750   23.3650 C   0  0  0  0  0  0  0  0  0  0  0  0
  -18.9090  -30.1410   23.9470 C   0  0  0  0  0  3  0  0  0  0  0  0
  -17.6010  -30.6360   24.1040 C   0  0  0  0  0  3  0  0  0  0  0  0
  -16.5030  -29.8620   23.6920 C   0  0  0  0  0  3  0  0  0  0  0  0
  -16.7150  -28.5980   23.1140 C   0  0  0  0  0  3  0  0  0  0  0  0
  -25.8830  -32.5400   23.8580 C   0  0  0  0  0  3  0  0  0  0  0  0
  -26.4050  -31.7670   25.1300 C   0  0  1  0  0  0  0  0  0  0  0  0
  -25.3170  -31.5310   26.2040 C   0  0  0  0  0  1  0  0  0  0  0  0
  -26.9830  -30.3880   24.7360 C   0  0  0  0  0  1  0  0  0  0  0  0
  -27.5610  -32.5570   25.7860 C   0  0  0  0  0  1  0  0  0  0  0  0
  -25.5770  -33.9390   24.1900 N   0  0  0  0  0  0  0  0  0  0  0  0
  -25.9030  -34.9910   23.4300 C   0  0  0  0  0  0  0  0  0  0  0  0
  -26.5630  -34.8880   22.3920 O   0  0  0  0  0  0  0  0  0  0  0  0
  -24.9890  -34.0930   24.9960 H   0  0  0  0  0  0  0  0  0  0  0  0
  -24.1690  -36.7840   23.0980 C   0  0  0  0  0  1  0  0  0  0  0  0
  -25.4220  -36.3800   23.8930 C   0  0  0  0  0  3  0  0  0  0  0  0
  -27.5670  -37.2640   24.6940 C   0  0  0  0  0  1  0  0  0  0  0  0
  -26.4530  -37.4330   23.7660 N   0  0  0  0  0  0  0  0  0  0  0  0
  -26.0490  -38.3540   23.9200 H   0  0  0  0  0  0  0  0  0  0  0  0
  1 49  1  0
  1  2  1  0
  2  3  1  0
  2  5  1  0
  2  4  1  0
  7  6  1  0
  7  9  1  0
  7  1  1  0
  8  9  1  0
  8 12  1  0
  9 11  1  0
 10  8  2  0
 13 12  1  0
 14 19  1  0
 15 16  1  0
 15 14  1  0
 17 16  1  0
 17 24  1  0
 17 18  1  0
 19 13  1  0
 19 18  1  0
 20 13  2  0
 21 22  2  0
 22 41  1  0
 23 22  1  0
 23 26  1  0
 24 21  1  0
 24 25  1  0
 25 23  2  0
 26 27  1  0
 27 28  2  0
 29 32  1  0
 29 28  1  0
 30 29  2  0
 31 30  1  0
 31 26  2  0
 32 33  1  0
 33 34  1  0
 34 35  2  0
 36 35  1  0
 36 40  1  0
 37 36  2  0
 38 33  2  0
 38 37  1  0
 39 38  1  0
 41 42  1  0
 42 45  1  0
 42 44  1  0
 43 41  2  0
 46 47  1  0
 46 21  1  0
 48 46  1  0
 49 50  1  0
 51 52  1  0
 51 50  2  0
 53 64  2  0
 54 52  1  0
 54 59  1  0
 55 63  1  0
 55 65  1  0
 56 62  1  0
 56 58  1  0
 57 63  1  0
 58 57  1  0
 59 58  2  0
 60 61  1  0
 60 54  2  0
 61 56  2  0
 62 55  1  0
 63 53  1  0
 65 67  2  0
 66 65  1  0
 68 66  1  0
 69 78  2  0
 69 74  1  0
 70 66  1  0
 70 74  1  0
 71 70  1  0
 72 73  1  0
 72 71  1  0
 73 69  1  0
 74 75  2  0
 75 76  1  0
 77 76  2  0
 78 77  1  0
 79 53  1  0
 79 84  1  0
 79 80  1  0
 80 83  1  1
 80 81  1  0
 82 80  1  0
 84 87  1  0
 85 89  1  0
 85 84  1  0
 86 85  2  0
 89 88  1  0
 91 89  1  0
 91 92  1  0
 91 90  1  0
M  ISO  4  12 100  13 100  51 101  52 101
M  END
>  <TORSDO>  (92) 
F 23

>  <SCORE>  (92) 
-13.127

>  <name>  (92) 
91

>  <ligand_id>  (92) 
91

>  <original_smiles>  (92) 
[H]c1c([H])c([H])c2c(c1[H])C([H])([H])C([H])([H])C([H])([H])C2([H])N([H])C(=O)C1([H])N(C(=O)C([H])(N([H])C(=O)C([H])(N([H])C([H])([H])[H])C([H])([H])[H])C(C([H])([H])[H])(C([H])([H])[H])C([H])([H])[H])C([H])([H])c2c([H])c(OC([H])([H])C([H])([H])C([H])([H])C([H])(C([H])(N([H])C(=O)C([H])([H])C(=O)N3C([H])([H])C([H])([H])C([H])([H])C([H])(n4nc(-c5c([H])c([H])c(Oc6c([H])c([H])c(F)c([H])c6F)c([H])c5[H])c(C(=O)N([H])[H])c4N([H])[H])C3([H])[H])C([H])([H])[H])[N+]([H])([H])[H])c([H])c([H])c2C1([H])[H]

>  <smiles>  (92) 
[H]c1c([H])c([H])c2c(c1[H])C([H])([H])C([H])([H])C([H])([H])C2([H])N([H])C(=O)C1([H])N(C(=O)C([H])(N([H])C(=O)C([H])(N([H])C([H])([H])[H])C([H])([H])[H])C(C([H])([H])[H])(C([H])([H])[H])C([H])([H])[H])C([H])([H])c2c([H])c(OC([H])([H])C([H])([H])C([H])([H])C([H])(C([H])(N([H])C(=O)C([H])([H])C(=O)N3C([H])([H])C([H])([H])C([H])([H])C([H])(n4nc(-c5c([H])c([H])c(Oc6c([H])c([H])c(F)c([H])c6F)c([H])c5[H])c(C(=O)N([H])[H])c4N([H])[H])C3([H])[H])C([H])([H])[H])[N+]([H])([H])[H])c([H])c([H])c2C1([H])[H]

$$$$
92:0:0
     RDKit          3D

 94102  0  0  1  0  0  0  0  0999 V2000
  -30.6120  -23.3010   21.3990 C   0  0  0  0  0  0  0  0  0  0  0  0
  -28.8800  -20.7940   19.8470 C   0  0  0  0  0  0  0  0  0  0  0  0
  -30.2710  -23.9870   20.0900 C   0  0  0  0  0  2  0  0  0  0  0  0
  -29.5500  -22.2780   21.7570 C   0  0  0  0  0  2  0  0  0  0  0  0
  -28.8220  -23.5370   19.8600 C   0  0  0  0  0  3  0  0  0  0  0  0
  -28.8730  -22.0770   20.4750 N   0  0  0  0  0  0  0  0  0  0  0  0
  -31.6300  -23.5180   22.0590 O   0  0  0  0  0  0  0  0  0  0  0  0
  -28.4640  -20.7200   18.6880 O   0  0  0  0  0  0  0  0  0  0  0  0
  -27.8430  -24.7790   20.4160 C   0  0  0  0  0  2  0  0  0  0  0  0
  -28.0680  -26.2950   20.1550 O   0  0  0  0  0  0  0  0  0  0  0  0
  -24.5210  -31.9760   23.2310 C   0  0  0  0  0  0  0  0  0  0  0  0
  -26.9970  -27.2540   20.1620 C   0  0  0  0  0  0  0  0  0  0  0  0
  -23.2750  -30.5870   21.6190 C   0  0  0  0  0  3  0  0  0  0  0  0
  -24.6790  -28.9990   20.1690 C   0  0  0  0  0  0  0  0  0  0  0  0
  -25.8210  -30.8410   21.3930 C   0  0  0  0  0  2  0  0  0  0  0  0
  -25.8720  -29.4450   20.7520 C   0  0  0  0  0  0  0  0  0  0  0  0
  -27.0330  -28.5880   20.7300 C   0  0  0  0  0  3  0  0  0  0  0  0
  -25.7800  -26.9020   19.5410 C   0  0  0  0  0  3  0  0  0  0  0  0
  -24.6440  -27.7400   19.5470 C   0  0  0  0  0  3  0  0  0  0  0  0
  -23.4610  -29.9050   20.2370 C   0  0  0  0  0  2  0  0  0  0  0  0
  -24.5610  -31.1550   22.1380 N   0  0  0  0  0  0  0  0  0  0  0  0
  -23.4490  -32.2710   23.7810 O   0  0  0  0  0  0  0  0  0  0  0  0
  -22.6090  -29.5850   22.5970 C   0  0  0  0  0  0  0  0  0  0  0  0
  -21.2850  -29.3900   22.4660 N   0  0  0  0  0  0  0  0  0  0  0  0
  -23.2860  -28.9880   23.4380 O   0  0  0  0  0  0  0  0  0  0  0  0
  -20.7920  -29.9300   21.7700 H   0  0  0  0  0  0  0  0  0  0  0  0
  -17.9280  -28.1140   22.9440 C   0  0  0  0  0  0  0  0  0  0  0  0
  -20.4740  -28.4520   23.2500 C   0  0  0  0  0  3  0  0  0  0  0  0
  -20.6230  -27.0070   22.7210 C   0  0  0  0  0  2  0  0  0  0  0  0
  -19.5500  -26.6250   21.6980 C   0  0  0  0  0  2  0  0  0  0  0  0
  -18.1530  -26.7500   22.3120 C   0  0  0  0  0  2  0  0  0  0  0  0
  -19.0180  -28.9200   23.3700 C   0  0  0  0  0  0  0  0  0  0  0  0
  -18.7540  -30.1910   23.9240 C   0  0  0  0  0  3  0  0  0  0  0  0
  -17.4340  -30.6610   24.0540 C   0  0  0  0  0  3  0  0  0  0  0  0
  -16.3580  -29.8540   23.6440 C   0  0  0  0  0  3  0  0  0  0  0  0
  -16.6060  -28.5830   23.0950 C   0  0  0  0  0  3  0  0  0  0  0  0
  -25.8190  -32.6000   23.8290 C   0  0  0  0  0  3  0  0  0  0  0  0
  -25.5360  -34.0090   24.1460 N   0  0  0  0  0  0  0  0  0  0  0  0
  -25.8800  -35.0500   23.3760 C   0  0  0  0  0  0  0  0  0  0  0  0
  -26.5400  -34.9250   22.3400 O   0  0  0  0  0  0  0  0  0  0  0  0
  -24.9570  -34.1820   24.9550 H   0  0  0  0  0  0  0  0  0  0  0  0
  -24.1990  -36.8830   22.9990 C   0  0  0  0  0  1  0  0  0  0  0  0
  -25.4240  -36.4530   23.8230 C   0  0  0  0  0  3  0  0  0  0  0  0
  -27.5660  -37.2970   24.6740 C   0  0  0  0  0  1  0  0  0  0  0  0
  -26.4810  -37.4830   23.7140 N   0  0  0  0  0  0  0  0  0  0  0  0
  -26.0940  -38.4110   23.8510 H   0  0  0  0  0  0  0  0  0  0  0  0
  -26.3370  -31.8390   25.1120 C   0  0  1  0  0  0  0  0  0  0  0  0
  -25.2520  -31.6280   26.1950 C   0  0  0  0  0  1  0  0  0  0  0  0
  -26.9010  -30.4510   24.7330 C   0  0  0  0  0  1  0  0  0  0  0  0
  -27.5040  -32.6270   25.7540 C   0  0  0  0  0  1  0  0  0  0  0  0
  -29.4940  -19.3770   20.4680 C   0  0  0  0  0  3  0  0  0  0  0  0
  -31.7150  -19.3400   21.6400 C   0  0  0  0  0  0  0  0  0  0  0  0
  -33.2170  -19.5260   21.4530 C   0  0  0  0  0  1  0  0  0  0  0  0
  -30.9430  -19.5700   20.5740 N   0  0  0  0  0  0  0  0  0  0  0  0
  -31.2640  -19.0100   22.7370 O   0  0  0  0  0  0  0  0  0  0  0  0
  -31.4080  -19.8490   19.7200 H   0  0  0  0  0  0  0  0  0  0  0  0
  -29.3070  -17.8350   19.8140 C   0  0  0  0  0  2  0  0  0  0  0  0
  -29.5890  -16.3680   20.5870 C   0  0  0  0  0  2  0  0  0  0  0  0
  -30.3210  -15.0140   19.9810 C   0  0  0  0  0  0  0  0  0  0  0  0
  -30.2000  -12.6980   18.9570 C   0  0  0  0  0  2  0  0  0  0  0  0
  -29.1680  -12.7020   17.8060 C   0  0  0  0  0  2  0  0  0  0  0  0
  -27.7480  -12.4400   18.3360 C   0  0  0  0  0  2  0  0  0  0  0  0
  -27.4240  -13.2940   19.5890 C   0  0  0  0  0  3  0  0  0  0  0  0
  -28.5640  -13.2610   20.6280 C   0  0  0  0  0  2  0  0  0  0  0  0
  -29.7830  -13.7280   19.9520 N   0  0  0  0  0  0  0  0  0  0  0  0
  -31.4430  -15.1530   19.4870 O   0  0  0  0  0  0  0  0  0  0  0  0
  -25.0950  -13.7840   20.5340 C   0  0  0  0  0  0  0  0  0  0  0  0
  -24.0820  -12.9660   20.9560 C   0  0  0  0  0  0  0  0  0  0  0  0
  -24.5720  -11.6300   20.8260 C   0  0  0  0  0  0  0  0  0  0  0  0
  -26.1360  -12.9420   20.1770 N   0  0  0  0  0  0  0  0  0  0  0  0
  -25.8340  -11.6390   20.4110 N   0  0  0  0  0  0  0  0  0  0  0  0
  -23.8930  -10.3420   21.0190 C   0  0  0  0  0  0  0  0  0  0  0  0
  -24.3790   -9.3730   21.9240 C   0  0  0  0  0  3  0  0  0  0  0  0
  -23.6920   -8.1510   22.1040 C   0  0  0  0  0  3  0  0  0  0  0  0
  -22.5060   -7.8910   21.3770 C   0  0  0  0  0  0  0  0  0  0  0  0
  -22.0390   -8.8500   20.4590 C   0  0  0  0  0  3  0  0  0  0  0  0
  -22.7260  -10.0620   20.2790 C   0  0  0  0  0  3  0  0  0  0  0  0
  -21.7840   -6.7260   21.4680 O   0  0  0  0  0  0  0  0  0  0  0  0
  -21.7550   -5.9860   22.6240 C   0  0  0  0  0  0  0  0  0  0  0  0
  -21.2570   -6.5140   23.8350 C   0  0  0  0  0  3  0  0  0  0  0  0
  -21.1840   -5.6980   24.9810 C   0  0  0  0  0  3  0  0  0  0  0  0
  -21.5940   -4.3530   24.9160 C   0  0  0  0  0  0  0  0  0  0  0  0
  -22.0830   -3.8230   23.7080 C   0  0  0  0  0  3  0  0  0  0  0  0
  -22.1600   -4.6370   22.5640 C   0  0  0  0  0  0  0  0  0  0  0  0
  -22.6120   -4.1150   21.3970 F   0  0  0  0  0  0  0  0  0  0  0  0
  -21.5160   -3.5650   26.0130 F   0  0  0  0  0  0  0  0  0  0  0  0
  -22.7010  -13.3950   21.3590 C   0  0  0  0  0  0  0  0  0  0  0  0
  -22.0550  -12.6350   22.2360 N   0  0  0  0  0  0  0  0  0  0  0  0
  -22.2010  -14.4350   20.9290 O   0  0  0  0  0  0  0  0  0  0  0  0
  -22.4750  -11.7950   22.6050 H   0  0  0  0  0  0  0  0  0  0  0  0
  -21.1310  -12.9010   22.5440 H   0  0  0  0  0  0  0  0  0  0  0  0
  -25.2150  -15.1630   20.4000 N   0  0  0  0  0  0  0  0  0  0  0  0
  -24.4500  -15.8020   20.5830 H   0  0  0  0  0  0  0  0  0  0  0  0
  -26.0330  -15.6290   20.0230 H   0  0  0  0  0  0  0  0  0  0  0  0
  1  4  1  0
  1  7  2  0
  2 51  1  0
  2  6  1  0
  3  1  1  0
  5  3  1  0
  5  9  1  0
  5  6  1  0
  6  4  1  0
  8  2  2  0
 10 12  1  0
 10  9  1  0
 11 22  2  0
 12 17  1  0
 13 21  1  0
 13 23  1  0
 14 20  1  0
 14 16  1  0
 15 21  1  0
 16 15  1  0
 17 16  2  0
 18 19  1  0
 18 12  2  0
 19 14  2  0
 20 13  1  0
 21 11  1  0
 23 25  2  0
 24 23  1  0
 26 24  1  0
 27 36  2  0
 27 32  1  0
 28 24  1  0
 28 32  1  0
 29 28  1  0
 30 31  1  0
 30 29  1  0
 31 27  1  0
 32 33  2  0
 33 34  1  0
 35 34  2  0
 36 35  1  0
 37 11  1  0
 37 38  1  0
 37 47  1  0
 38 41  1  0
 39 43  1  0
 39 38  1  0
 40 39  2  0
 43 42  1  0
 45 43  1  0
 45 46  1  0
 45 44  1  0
 47 50  1  1
 47 48  1  0
 49 47  1  0
 51 57  1  0
 51 54  1  0
 52 55  2  0
 53 52  1  0
 54 52  1  0
 56 54  1  0
 57 58  1  0
 59 58  1  0
 60 65  1  0
 61 62  1  0
 61 60  1  0
 63 62  1  0
 63 70  1  0
 63 64  1  0
 65 59  1  0
 65 64  1  0
 66 59  2  0
 67 68  2  0
 68 87  1  0
 69 68  1  0
 69 72  1  0
 70 71  1  0
 70 67  1  0
 71 69  2  0
 72 73  1  0
 73 74  2  0
 75 78  1  0
 75 74  1  0
 76 75  2  0
 77 76  1  0
 77 72  2  0
 78 79  1  0
 79 80  1  0
 80 81  2  0
 82 81  1  0
 82 86  1  0
 83 82  2  0
 84 79  2  0
 84 83  1  0
 85 84  1  0
 87 88  1  0
 88 91  1  0
 88 90  1  0
 89 87  2  0
 92 67  1  0
 92 93  1  0
 94 92  1  0
M  ISO  4   9 101  10 101  58 100  59 100
M  END
>  <TORSDO>  (93) 
F 21

>  <SCORE>  (93) 
-12.787

>  <name>  (93) 
92

>  <ligand_id>  (93) 
92

>  <original_smiles>  (93) 
[H]c1c([H])c([H])c2c(c1[H])C([H])([H])C([H])([H])C([H])([H])C2([H])N([H])C(=O)C1([H])N(C(=O)C([H])(N([H])C(=O)C([H])(N([H])C([H])([H])[H])C([H])([H])[H])C(C([H])([H])[H])(C([H])([H])[H])C([H])([H])[H])C([H])([H])c2c([H])c(OC([H])([H])C3([H])N(C(=O)C([H])(N([H])C(=O)C([H])([H])[H])C([H])([H])C([H])([H])C(=O)N4C([H])([H])C([H])([H])C([H])([H])C([H])(n5nc(-c6c([H])c([H])c(Oc7c([H])c([H])c(F)c([H])c7F)c([H])c6[H])c(C(=O)N([H])[H])c5N([H])[H])C4([H])[H])C([H])([H])C(=O)C3([H])[H])c([H])c([H])c2C1([H])[H]

>  <smiles>  (93) 
[H]c1c([H])c([H])c2c(c1[H])C([H])([H])C([H])([H])C([H])([H])C2([H])N([H])C(=O)C1([H])N(C(=O)C([H])(N([H])C(=O)C([H])(N([H])C([H])([H])[H])C([H])([H])[H])C(C([H])([H])[H])(C([H])([H])[H])C([H])([H])[H])C([H])([H])c2c([H])c(OC([H])([H])C3([H])N(C(=O)C([H])(N([H])C(=O)C([H])([H])[H])C([H])([H])C([H])([H])C(=O)N4C([H])([H])C([H])([H])C([H])([H])C([H])(n5nc(-c6c([H])c([H])c(Oc7c([H])c([H])c(F)c([H])c7F)c([H])c6[H])c(C(=O)N([H])[H])c5N([H])[H])C4([H])[H])C([H])([H])C(=O)C3([H])[H])c([H])c([H])c2C1([H])[H]

$$$$
93:0:0
     RDKit          3D

 93102  0  0  1  0  0  0  0  0999 V2000
  -29.5100  -22.9210   19.9870 C   0  0  0  0  0  3  0  0  0  0  0  0
  -29.7070  -23.2590   24.3150 C   0  0  0  0  0  3  0  0  0  0  0  0
  -30.8930  -23.2690   23.5560 C   0  0  0  0  0  3  0  0  0  0  0  0
  -28.4600  -23.1280   23.6720 C   0  0  0  0  0  3  0  0  0  0  0  0
  -30.8320  -23.1510   22.1540 C   0  0  0  0  0  3  0  0  0  0  0  0
  -28.3980  -23.0170   22.2690 C   0  0  0  0  0  3  0  0  0  0  0  0
  -29.5840  -23.0160   21.5030 C   0  0  0  0  0  0  0  0  0  0  0  0
  -30.0370  -20.0510   20.0480 C   0  0  0  0  0  3  0  0  0  0  0  0
  -29.9700  -19.9200   21.5530 C   0  0  0  0  0  1  0  0  0  0  0  0
  -29.6820  -21.3060   19.4600 N   0  0  0  0  0  2  0  0  0  0  0  0
  -30.9440  -15.5300   19.5360 C   0  0  0  0  0  0  0  0  0  0  0  0
  -30.7450  -13.0730   18.6970 C   0  0  0  0  0  2  0  0  0  0  0  0
  -29.7030  -12.8490   17.5690 C   0  0  0  0  0  2  0  0  0  0  0  0
  -28.2940  -12.6290   18.1470 C   0  0  0  0  0  2  0  0  0  0  0  0
  -27.9770  -13.6010   19.3070 C   0  0  0  0  0  3  0  0  0  0  0  0
  -29.1440  -13.7670   20.3090 C   0  0  0  0  0  2  0  0  0  0  0  0
  -30.3050  -14.2470   19.5370 N   0  0  0  0  0  0  0  0  0  0  0  0
  -32.1650  -15.4310   19.3440 O   0  0  0  0  0  0  0  0  0  0  0  0
  -29.6100  -18.0230   17.4360 C   0  0  0  0  0  2  0  0  0  0  0  0
  -30.9030  -18.6370   17.9480 C   0  0  0  0  0  2  0  0  0  0  0  0
  -29.2180  -16.9320   18.4610 C   0  0  0  0  0  2  0  0  0  0  0  0
  -30.7240  -18.4910   19.4490 C   0  0  0  0  0  3  0  0  0  0  0  0
  -30.2600  -16.8750   19.5070 N   0  0  0  0  0  0  0  0  0  0  0  0
  -25.7480  -14.2350   20.3610 C   0  0  0  0  0  0  0  0  0  0  0  0
  -24.6840  -13.4970   20.7890 C   0  0  0  0  0  0  0  0  0  0  0  0
  -25.0570  -12.1270   20.6200 C   0  0  0  0  0  0  0  0  0  0  0  0
  -26.7020  -13.3200   19.9490 N   0  0  0  0  0  0  0  0  0  0  0  0
  -26.3050  -12.0400   20.1710 N   0  0  0  0  0  0  0  0  0  0  0  0
  -24.2710  -10.9000   20.8010 C   0  0  0  0  0  0  0  0  0  0  0  0
  -24.6940   -9.8740   21.6740 C   0  0  0  0  0  3  0  0  0  0  0  0
  -23.9090   -8.7140   21.8470 C   0  0  0  0  0  3  0  0  0  0  0  0
  -22.6880   -8.5710   21.1470 C   0  0  0  0  0  0  0  0  0  0  0  0
  -22.2830   -9.5850   20.2600 C   0  0  0  0  0  3  0  0  0  0  0  0
  -23.0680  -10.7370   20.0850 C   0  0  0  0  0  3  0  0  0  0  0  0
  -21.8750   -7.4670   21.2330 O   0  0  0  0  0  0  0  0  0  0  0  0
  -21.7920   -6.7230   22.3830 C   0  0  0  0  0  0  0  0  0  0  0  0
  -21.3910   -7.2940   23.6100 C   0  0  0  0  0  3  0  0  0  0  0  0
  -21.2500   -6.4810   24.7530 C   0  0  0  0  0  3  0  0  0  0  0  0
  -21.5000   -5.0990   24.6680 C   0  0  0  0  0  0  0  0  0  0  0  0
  -21.8920   -4.5270   23.4460 C   0  0  0  0  0  3  0  0  0  0  0  0
  -22.0360   -5.3370   22.3060 C   0  0  0  0  0  0  0  0  0  0  0  0
  -22.3960   -4.7780   21.1250 F   0  0  0  0  0  0  0  0  0  0  0  0
  -21.3560   -4.3160   25.7630 F   0  0  0  0  0  0  0  0  0  0  0  0
  -23.3560  -14.0340   21.2360 C   0  0  0  0  0  0  0  0  0  0  0  0
  -22.6880  -13.3370   22.1460 N   0  0  0  0  0  0  0  0  0  0  0  0
  -22.9290  -15.1100   20.8150 O   0  0  0  0  0  0  0  0  0  0  0  0
  -23.0470  -12.4640   22.5050 H   0  0  0  0  0  0  0  0  0  0  0  0
  -21.8030  -13.6820   22.4900 H   0  0  0  0  0  0  0  0  0  0  0  0
  -25.9750  -15.6050   20.2570 N   0  0  0  0  0  0  0  0  0  0  0  0
  -25.2600  -16.2850   20.4940 H   0  0  0  0  0  0  0  0  0  0  0  0
  -26.8150  -16.0300   19.8910 H   0  0  0  0  0  0  0  0  0  0  0  0
  -28.4450  -24.2950   19.4540 C   0  0  0  0  0  2  0  0  0  0  0  0
  -28.4500  -25.9420   19.6970 O   0  0  0  0  0  0  0  0  0  0  0  0
  -24.5630  -31.5490   22.9380 C   0  0  0  0  0  0  0  0  0  0  0  0
  -27.3540  -26.9630   19.6630 C   0  0  0  0  0  0  0  0  0  0  0  0
  -23.4200  -30.1450   21.2690 C   0  0  0  0  0  3  0  0  0  0  0  0
  -24.9310  -28.6890   19.7530 C   0  0  0  0  0  0  0  0  0  0  0  0
  -25.9620  -30.5260   21.0760 C   0  0  0  0  0  2  0  0  0  0  0  0
  -26.1050  -29.1470   20.3620 C   0  0  0  0  0  0  0  0  0  0  0  0
  -27.3060  -28.3020   20.2950 C   0  0  0  0  0  3  0  0  0  0  0  0
  -26.1390  -26.6590   19.0080 C   0  0  0  0  0  3  0  0  0  0  0  0
  -24.9720  -27.4690   19.0560 C   0  0  0  0  0  3  0  0  0  0  0  0
  -23.6580  -29.5260   19.8640 C   0  0  0  0  0  2  0  0  0  0  0  0
  -24.6700  -30.7670   21.8160 N   0  0  0  0  0  0  0  0  0  0  0  0
  -23.4700  -31.7480   23.4940 O   0  0  0  0  0  0  0  0  0  0  0  0
  -22.8130  -29.0750   22.2120 C   0  0  0  0  0  0  0  0  0  0  0  0
  -21.4950  -28.8200   22.1020 N   0  0  0  0  0  0  0  0  0  0  0  0
  -23.5340  -28.4720   23.0110 O   0  0  0  0  0  0  0  0  0  0  0  0
  -20.9590  -29.3620   21.4380 H   0  0  0  0  0  0  0  0  0  0  0  0
  -18.2260  -27.3160   22.5810 C   0  0  0  0  0  0  0  0  0  0  0  0
  -20.7530  -27.8000   22.8520 C   0  0  0  0  0  3  0  0  0  0  0  0
  -20.9790  -26.3930   22.2500 C   0  0  0  0  0  2  0  0  0  0  0  0
  -19.9100  -25.9960   21.2280 C   0  0  0  0  0  2  0  0  0  0  0  0
  -18.5210  -26.0040   21.8720 C   0  0  0  0  0  2  0  0  0  0  0  0
  -19.2730  -28.1670   23.0260 C   0  0  0  0  0  0  0  0  0  0  0  0
  -18.9400  -29.3870   23.6500 C   0  0  0  0  0  3  0  0  0  0  0  0
  -17.5950  -29.7630   23.8320 C   0  0  0  0  0  3  0  0  0  0  0  0
  -16.5650  -28.9110   23.3990 C   0  0  0  0  0  3  0  0  0  0  0  0
  -16.8800  -27.6880   22.7800 C   0  0  0  0  0  3  0  0  0  0  0  0
  -25.8040  -32.2510   23.5680 C   0  0  0  0  0  3  0  0  0  0  0  0
  -26.3940  -31.4680   24.8060 C   0  0  1  0  0  0  0  0  0  0  0  0
  -25.3430  -31.1290   25.8910 C   0  0  0  0  0  1  0  0  0  0  0  0
  -27.0470  -30.1400   24.3590 C   0  0  0  0  0  1  0  0  0  0  0  0
  -27.5110  -32.3070   25.4710 C   0  0  0  0  0  1  0  0  0  0  0  0
  -25.4010  -33.6090   23.9720 N   0  0  0  0  0  0  0  0  0  0  0  0
  -25.6910  -34.7310   23.2980 C   0  0  0  0  0  0  0  0  0  0  0  0
  -26.3850  -34.7320   22.2780 O   0  0  0  0  0  0  0  0  0  0  0  0
  -24.7800  -33.6730   24.7660 H   0  0  0  0  0  0  0  0  0  0  0  0
  -23.8770  -36.4620   23.0390 C   0  0  0  0  0  1  0  0  0  0  0  0
  -25.1270  -36.0620   23.8390 C   0  0  0  0  0  3  0  0  0  0  0  0
  -27.1990  -37.0070   24.7650 C   0  0  0  0  0  1  0  0  0  0  0  0
  -26.1040  -37.1730   23.8120 N   0  0  0  0  0  0  0  0  0  0  0  0
  -25.6470  -38.0570   24.0120 H   0  0  0  0  0  0  0  0  0  0  0  0
  1 52  1  0
  1  7  1  0
  3  2  2  0
  4  2  1  0
  5  3  1  0
  6  4  2  0
  7  5  2  0
  7  6  1  0
  8  9  1  0
 10  1  1  0
 10  8  1  0
 11 17  1  0
 12 17  1  0
 13 14  1  0
 13 12  1  0
 15 14  1  0
 15 27  1  0
 15 16  1  0
 17 16  1  0
 18 11  2  0
 19 20  1  0
 19 21  1  0
 20 22  1  0
 21 23  1  0
 22 23  1  0
 22  8  1  0
 23 11  1  0
 24 25  2  0
 25 44  1  0
 26 25  1  0
 26 29  1  0
 27 28  1  0
 27 24  1  0
 28 26  2  0
 29 30  1  0
 30 31  2  0
 32 35  1  0
 32 31  1  0
 33 32  2  0
 34 33  1  0
 34 29  2  0
 35 36  1  0
 36 37  1  0
 37 38  2  0
 39 38  1  0
 39 43  1  0
 40 39  2  0
 41 36  2  0
 41 40  1  0
 42 41  1  0
 44 45  1  0
 45 48  1  0
 45 47  1  0
 46 44  2  0
 49 24  1  0
 49 50  1  0
 51 49  1  0
 52 53  1  0
 54 65  2  0
 55 53  1  0
 55 60  1  0
 56 64  1  0
 56 66  1  0
 57 63  1  0
 57 59  1  0
 58 64  1  0
 59 58  1  0
 60 59  2  0
 61 62  1  0
 61 55  2  0
 62 57  2  0
 63 56  1  0
 64 54  1  0
 66 68  2  0
 67 66  1  0
 69 67  1  0
 70 79  2  0
 70 75  1  0
 71 67  1  0
 71 75  1  0
 72 71  1  0
 73 74  1  0
 73 72  1  0
 74 70  1  0
 75 76  2  0
 76 77  1  0
 78 77  2  0
 79 78  1  0
 80 54  1  0
 80 85  1  0
 80 81  1  0
 81 84  1  1
 81 82  1  0
 83 81  1  0
 85 88  1  0
 86 90  1  0
 86 85  1  0
 87 86  2  0
 90 89  1  0
 92 90  1  0
 92 93  1  0
 92 91  1  0
M  ISO  4  11 100  23 100  52 101  53 101
M  END
>  <TORSDO>  (94) 
F 19

>  <SCORE>  (94) 
-10.439

>  <name>  (94) 
93

>  <ligand_id>  (94) 
93

>  <original_smiles>  (94) 
[H]c1c([H])c([H])c(C([H])(N=C(C([H])([H])[H])C2([H])N(C(=O)N3C([H])([H])C([H])([H])C([H])([H])C([H])(n4nc(-c5c([H])c([H])c(Oc6c([H])c([H])c(F)c([H])c6F)c([H])c5[H])c(C(=O)N([H])[H])c4N([H])[H])C3([H])[H])C([H])([H])C([H])([H])C2([H])[H])C([H])([H])Oc2c([H])c([H])c3c(c2[H])C([H])([H])N(C(=O)C([H])(N([H])C(=O)C([H])(N([H])C([H])([H])[H])C([H])([H])[H])C(C([H])([H])[H])(C([H])([H])[H])C([H])([H])[H])C([H])(C(=O)N([H])C2([H])c4c([H])c([H])c([H])c([H])c4C([H])([H])C([H])([H])C2([H])[H])C3([H])[H])c([H])c1[H]

>  <smiles>  (94) 
[H]c1c([H])c([H])c(C([H])(N=C(C([H])([H])[H])C2([H])N(C(=O)N3C([H])([H])C([H])([H])C([H])([H])C([H])(n4nc(-c5c([H])c([H])c(Oc6c([H])c([H])c(F)c([H])c6F)c([H])c5[H])c(C(=O)N([H])[H])c4N([H])[H])C3([H])[H])C([H])([H])C([H])([H])C2([H])[H])C([H])([H])Oc2c([H])c([H])c3c(c2[H])C([H])([H])N(C(=O)C([H])(N([H])C(=O)C([H])(N([H])C([H])([H])[H])C([H])([H])[H])C(C([H])([H])[H])(C([H])([H])[H])C([H])([H])[H])C([H])(C(=O)N([H])C2([H])c4c([H])c([H])c([H])c([H])c4C([H])([H])C([H])([H])C2([H])[H])C3([H])[H])c([H])c1[H]

$$$$
94:0:0
     RDKit          3D

 90 98  0  0  1  0  0  0  0  0999 V2000
  -28.8600  -21.8540   19.9380 C   0  0  0  0  0  0  0  0  0  0  0  0
  -28.4080  -21.7260   18.8020 O   0  0  0  0  0  0  0  0  0  0  0  0
  -30.6100  -14.8820   19.9140 C   0  0  0  0  0  0  0  0  0  0  0  0
  -30.3300  -12.5780   18.9190 C   0  0  0  0  0  2  0  0  0  0  0  0
  -29.3070  -12.5980   17.7630 C   0  0  0  0  0  2  0  0  0  0  0  0
  -27.8800  -12.3990   18.3060 C   0  0  0  0  0  2  0  0  0  0  0  0
  -27.5850  -13.2910   19.5410 C   0  0  0  0  0  3  0  0  0  0  0  0
  -28.7270  -13.2630   20.5790 C   0  0  0  0  0  2  0  0  0  0  0  0
  -29.9510  -13.6580   19.8740 N   0  0  0  0  0  0  0  0  0  0  0  0
  -31.7750  -14.8990   19.5010 O   0  0  0  0  0  0  0  0  0  0  0  0
  -29.4100  -19.4090   20.4710 C   0  0  0  0  0  0  0  0  0  0  0  0
  -29.7660  -18.3000   21.5150 C   0  0  0  0  0  0  0  0  0  0  0  0
  -29.2430  -18.6130   19.1370 C   0  0  0  0  0  2  0  0  0  0  0  0
  -29.4260  -16.7590   21.2650 C   0  0  0  0  0  2  0  0  0  0  0  0
  -30.0710  -17.2220   18.9730 C   0  0  0  0  0  2  0  0  0  0  0  0
  -29.3170  -20.7330   20.7510 N   0  0  0  0  0  0  0  0  0  0  0  0
  -29.9020  -16.1150   19.9950 N   0  0  0  0  0  0  0  0  0  0  0  0
  -30.2800  -18.6060   22.5970 O   0  0  0  0  0  0  0  0  0  0  0  0
  -25.2830  -13.8600   20.5000 C   0  0  0  0  0  0  0  0  0  0  0  0
  -24.2430  -13.0800   20.9250 C   0  0  0  0  0  0  0  0  0  0  0  0
  -24.6860  -11.7280   20.8000 C   0  0  0  0  0  0  0  0  0  0  0  0
  -26.2910  -12.9840   20.1380 N   0  0  0  0  0  0  0  0  0  0  0  0
  -25.9470  -11.6920   20.3840 N   0  0  0  0  0  0  0  0  0  0  0  0
  -23.9610  -10.4650   20.9970 C   0  0  0  0  0  0  0  0  0  0  0  0
  -24.4270   -9.4760   21.8910 C   0  0  0  0  0  3  0  0  0  0  0  0
  -23.7000   -8.2810   22.0790 C   0  0  0  0  0  3  0  0  0  0  0  0
  -22.4930   -8.0640   21.3710 C   0  0  0  0  0  0  0  0  0  0  0  0
  -22.0460   -9.0420   20.4650 C   0  0  0  0  0  3  0  0  0  0  0  0
  -22.7730  -10.2290   20.2760 C   0  0  0  0  0  3  0  0  0  0  0  0
  -21.7350   -6.9230   21.4700 O   0  0  0  0  0  0  0  0  0  0  0  0
  -21.6890   -6.1880   22.6280 C   0  0  0  0  0  0  0  0  0  0  0  0
  -21.2820   -6.7540   23.8550 C   0  0  0  0  0  3  0  0  0  0  0  0
  -21.1820   -5.9450   25.0050 C   0  0  0  0  0  3  0  0  0  0  0  0
  -21.4780   -4.5720   24.9280 C   0  0  0  0  0  0  0  0  0  0  0  0
  -21.8780   -4.0050   23.7050 C   0  0  0  0  0  3  0  0  0  0  0  0
  -21.9800   -4.8100   22.5580 C   0  0  0  0  0  0  0  0  0  0  0  0
  -22.3450   -4.2540   21.3770 F   0  0  0  0  0  0  0  0  0  0  0  0
  -21.3760   -3.7930   26.0310 F   0  0  0  0  0  0  0  0  0  0  0  0
  -22.8790  -13.5590   21.3270 C   0  0  0  0  0  0  0  0  0  0  0  0
  -22.2240  -12.8470   22.2370 N   0  0  0  0  0  0  0  0  0  0  0  0
  -22.4060  -14.5990   20.8700 O   0  0  0  0  0  0  0  0  0  0  0  0
  -22.6210  -12.0060   22.6290 H   0  0  0  0  0  0  0  0  0  0  0  0
  -21.3120  -13.1500   22.5500 H   0  0  0  0  0  0  0  0  0  0  0  0
  -25.4500  -15.2360   20.3660 N   0  0  0  0  0  0  0  0  0  0  0  0
  -24.7020  -15.8920   20.5610 H   0  0  0  0  0  0  0  0  0  0  0  0
  -26.2690  -15.6750   19.9670 H   0  0  0  0  0  0  0  0  0  0  0  0
  -30.4440  -23.8010   20.4920 C   0  0  0  0  0  1  0  0  0  0  0  0
  -28.9630  -23.3910   20.5380 C   0  0  0  0  0  3  0  0  0  0  0  0
  -28.0480  -24.6810   19.9890 C   0  0  0  0  0  2  0  0  0  0  0  0
  -28.2430  -26.1770   20.3480 O   0  0  0  0  0  0  0  0  0  0  0  0
  -24.5970  -31.8530   23.2390 C   0  0  0  0  0  0  0  0  0  0  0  0
  -27.1830  -27.1420   20.2450 C   0  0  0  0  0  0  0  0  0  0  0  0
  -23.4010  -30.4460   21.6060 C   0  0  0  0  0  3  0  0  0  0  0  0
  -24.8520  -28.8680   20.1930 C   0  0  0  0  0  0  0  0  0  0  0  0
  -25.9520  -30.7180   21.4450 C   0  0  0  0  0  2  0  0  0  0  0  0
  -26.0270  -29.3240   20.8030 C   0  0  0  0  0  0  0  0  0  0  0  0
  -27.1920  -28.4740   20.8160 C   0  0  0  0  0  3  0  0  0  0  0  0
  -25.9860  -26.7870   19.5820 C   0  0  0  0  0  3  0  0  0  0  0  0
  -24.8430  -27.6120   19.5670 C   0  0  0  0  0  3  0  0  0  0  0  0
  -23.6230  -29.7600   20.2320 C   0  0  0  0  0  2  0  0  0  0  0  0
  -24.6700  -31.0270   22.1520 N   0  0  0  0  0  0  0  0  0  0  0  0
  -23.5100  -32.1410   23.7630 O   0  0  0  0  0  0  0  0  0  0  0  0
  -22.7220  -29.4440   22.5740 C   0  0  0  0  0  0  0  0  0  0  0  0
  -21.3950  -29.2730   22.4450 N   0  0  0  0  0  0  0  0  0  0  0  0
  -23.3930  -28.8220   23.4020 O   0  0  0  0  0  0  0  0  0  0  0  0
  -20.9100  -29.8250   21.7520 H   0  0  0  0  0  0  0  0  0  0  0  0
  -18.0110  -28.0830   22.9520 C   0  0  0  0  0  0  0  0  0  0  0  0
  -20.5700  -28.3430   23.2220 C   0  0  0  0  0  3  0  0  0  0  0  0
  -20.6700  -26.9060   22.6590 C   0  0  0  0  0  2  0  0  0  0  0  0
  -19.5690  -26.5780   21.6450 C   0  0  0  0  0  2  0  0  0  0  0  0
  -18.1870  -26.7290   22.2840 C   0  0  0  0  0  2  0  0  0  0  0  0
  -19.1300  -28.8470   23.3770 C   0  0  0  0  0  0  0  0  0  0  0  0
  -18.9110  -30.1140   23.9620 C   0  0  0  0  0  3  0  0  0  0  0  0
  -17.6050  -30.6160   24.1240 C   0  0  0  0  0  3  0  0  0  0  0  0
  -16.5010  -29.8500   23.7140 C   0  0  0  0  0  3  0  0  0  0  0  0
  -16.7050  -28.5850   23.1330 C   0  0  0  0  0  3  0  0  0  0  0  0
  -25.8750  -32.4930   23.8630 C   0  0  0  0  0  3  0  0  0  0  0  0
  -25.5670  -33.8980   24.1710 N   0  0  0  0  0  0  0  0  0  0  0  0
  -25.8950  -34.9390   23.3950 C   0  0  0  0  0  0  0  0  0  0  0  0
  -26.5560  -34.8190   22.3610 O   0  0  0  0  0  0  0  0  0  0  0  0
  -24.9790  -34.0650   24.9740 H   0  0  0  0  0  0  0  0  0  0  0  0
  -24.1610  -36.7290   23.0380 C   0  0  0  0  0  1  0  0  0  0  0  0
  -25.4150  -36.3370   23.8360 C   0  0  0  0  0  3  0  0  0  0  0  0
  -27.5640  -37.2370   24.6170 C   0  0  0  0  0  1  0  0  0  0  0  0
  -26.4460  -37.3880   23.6880 N   0  0  0  0  0  0  0  0  0  0  0  0
  -26.0430  -38.3110   23.8240 H   0  0  0  0  0  0  0  0  0  0  0  0
  -26.3730  -31.7420   25.1600 C   0  0  1  0  0  0  0  0  0  0  0  0
  -25.2670  -31.5300   26.2210 C   0  0  0  0  0  1  0  0  0  0  0  0
  -26.9530  -30.3540   24.8040 C   0  0  0  0  0  1  0  0  0  0  0  0
  -27.5200  -32.5420   25.8190 C   0  0  0  0  0  1  0  0  0  0  0  0
  1 48  1  0
  1 16  1  0
  2  1  2  0
  3 17  1  0
  4  9  1  0
  5  6  1  0
  5  4  1  0
  7  6  1  0
  7 22  1  0
  7  8  1  0
  9  3  1  0
  9  8  1  0
 10  3  2  0
 11 16  2  0
 11 12  1  0
 12 18  2  0
 13 11  1  0
 14 12  1  0
 15 13  1  0
 15 17  1  0
 17 14  1  0
 19 20  2  0
 20 39  1  0
 21 20  1  0
 21 24  1  0
 22 23  1  0
 22 19  1  0
 23 21  2  0
 24 25  1  0
 25 26  2  0
 27 30  1  0
 27 26  1  0
 28 27  2  0
 29 28  1  0
 29 24  2  0
 30 31  1  0
 31 32  1  0
 32 33  2  0
 34 33  1  0
 34 38  1  0
 35 34  2  0
 36 31  2  0
 36 35  1  0
 37 36  1  0
 39 40  1  0
 40 43  1  0
 40 42  1  0
 41 39  2  0
 44 19  1  0
 44 45  1  0
 46 44  1  0
 48 47  1  0
 49 50  1  0
 49 48  1  0
 51 62  2  0
 52 50  1  0
 52 57  1  0
 53 61  1  0
 53 63  1  0
 54 60  1  0
 54 56  1  0
 55 61  1  0
 56 57  2  0
 56 55  1  0
 58 52  2  0
 59 58  1  0
 59 54  2  0
 60 53  1  0
 61 51  1  0
 63 65  2  0
 64 63  1  0
 66 64  1  0
 67 76  2  0
 67 72  1  0
 68 64  1  0
 68 72  1  0
 69 68  1  0
 70 71  1  0
 70 69  1  0
 71 67  1  0
 72 73  2  0
 73 74  1  0
 75 74  2  0
 76 75  1  0
 77 51  1  0
 77 78  1  0
 77 87  1  0
 78 81  1  0
 79 83  1  0
 79 78  1  0
 80 79  2  0
 83 82  1  0
 85 86  1  0
 85 83  1  0
 85 84  1  0
 87 90  1  1
 87 88  1  0
 89 87  1  0
M  ISO  4   3 100  17 100  49 101  50 101
M  END
>  <TORSDO>  (95) 
F 18

>  <SCORE>  (95) 
-13.863

>  <name>  (95) 
94

>  <ligand_id>  (95) 
94

>  <original_smiles>  (95) 
[H]c1c([H])c([H])c2c(c1[H])C([H])([H])C([H])([H])C([H])([H])C2([H])N([H])C(=O)C1([H])N(C(=O)C([H])(N([H])C(=O)C([H])(N([H])C([H])([H])[H])C([H])([H])[H])C(C([H])([H])[H])(C([H])([H])[H])C([H])([H])[H])C([H])([H])c2c([H])c(OC([H])([H])C([H])(C(=O)N=C3C(=O)C([H])([H])N(C(=O)N4C([H])([H])C([H])([H])C([H])([H])C([H])(n5nc(-c6c([H])c([H])c(Oc7c([H])c([H])c(F)c([H])c7F)c([H])c6[H])c(C(=O)N([H])[H])c5N([H])[H])C4([H])[H])C([H])([H])C3([H])[H])C([H])([H])[H])c([H])c([H])c2C1([H])[H]

>  <smiles>  (95) 
[H]c1c([H])c([H])c2c(c1[H])C([H])([H])C([H])([H])C([H])([H])C2([H])N([H])C(=O)C1([H])N(C(=O)C([H])(N([H])C(=O)C([H])(N([H])C([H])([H])[H])C([H])([H])[H])C(C([H])([H])[H])(C([H])([H])[H])C([H])([H])[H])C([H])([H])c2c([H])c(OC([H])([H])C([H])(C(=O)N=C3C(=O)C([H])([H])N(C(=O)N4C([H])([H])C([H])([H])C([H])([H])C([H])(n5nc(-c6c([H])c([H])c(Oc7c([H])c([H])c(F)c([H])c7F)c([H])c6[H])c(C(=O)N([H])[H])c5N([H])[H])C4([H])[H])C([H])([H])C3([H])[H])C([H])([H])[H])c([H])c([H])c2C1([H])[H]

$$$$
