0:0:0
     RDKit          3D

 82 89  0  0  1  0  0  0  0  0999 V2000
  -28.1720  -25.5710   20.2770 O   0  0  0  0  0  0  0  0  0  0  0  0
  -24.6880  -31.8580   23.1840 C   0  0  0  0  0  0  0  0  0  0  0  0
  -27.1940  -26.7720   20.2210 C   0  0  0  0  0  0  0  0  0  0  0  0
  -23.4920  -30.4560   21.5590 C   0  0  0  0  0  3  0  0  0  0  0  0
  -24.9290  -28.7960   20.1540 C   0  0  0  0  0  0  0  0  0  0  0  0
  -26.0690  -30.5950   21.4280 C   0  0  0  0  0  2  0  0  0  0  0  0
  -26.1270  -29.1590   20.7800 C   0  0  0  0  0  0  0  0  0  0  0  0
  -27.2450  -28.1750   20.7800 C   0  0  0  0  0  3  0  0  0  0  0  0
  -25.9620  -26.6120   19.5400 C   0  0  0  0  0  3  0  0  0  0  0  0
  -24.8840  -27.5480   19.5100 C   0  0  0  0  0  3  0  0  0  0  0  0
  -23.7240  -29.7500   20.1920 C   0  0  0  0  0  2  0  0  0  0  0  0
  -24.7730  -31.0030   22.1100 N   0  0  0  0  0  0  0  0  0  0  0  0
  -23.5980  -32.1650   23.6970 O   0  0  0  0  0  0  0  0  0  0  0  0
  -22.7750  -29.4850   22.5380 C   0  0  0  0  0  0  0  0  0  0  0  0
  -21.4410  -29.3400   22.4220 N   0  0  0  0  0  0  0  0  0  0  0  0
  -23.4320  -28.8600   23.3740 O   0  0  0  0  0  0  0  0  0  0  0  0
  -20.9610  -29.8930   21.7260 H   0  0  0  0  0  0  0  0  0  0  0  0
  -18.0490  -28.1530   22.9560 C   0  0  0  0  0  0  0  0  0  0  0  0
  -20.6120  -28.4130   23.2030 C   0  0  0  0  0  3  0  0  0  0  0  0
  -20.7020  -26.9760   22.6370 C   0  0  0  0  0  2  0  0  0  0  0  0
  -19.5950  -26.6520   21.6300 C   0  0  0  0  0  2  0  0  0  0  0  0
  -18.2170  -26.8030   22.2800 C   0  0  0  0  0  2  0  0  0  0  0  0
  -19.1720  -28.9160   23.3740 C   0  0  0  0  0  0  0  0  0  0  0  0
  -18.9570  -30.1770   23.9720 C   0  0  0  0  0  3  0  0  0  0  0  0
  -17.6530  -30.6760   24.1510 C   0  0  0  0  0  3  0  0  0  0  0  0
  -16.5450  -29.9130   23.7450 C   0  0  0  0  0  3  0  0  0  0  0  0
  -16.7440  -28.6520   23.1540 C   0  0  0  0  0  3  0  0  0  0  0  0
  -25.9560  -32.5070   23.8190 C   0  0  0  0  0  3  0  0  0  0  0  0
  -26.4680  -31.7380   25.0990 C   0  0  1  0  0  0  0  0  0  0  0  0
  -25.3740  -31.5060   26.1680 C   0  0  0  0  0  1  0  0  0  0  0  0
  -27.0500  -30.3580   24.7230 C   0  0  0  0  0  1  0  0  0  0  0  0
  -27.6200  -32.5320   25.7610 C   0  0  0  0  0  1  0  0  0  0  0  0
  -25.6300  -33.9040   24.1710 N   0  0  0  0  0  0  0  0  0  0  0  0
  -25.9320  -34.9780   23.4290 C   0  0  0  0  0  0  0  0  0  0  0  0
  -26.5720  -34.8990   22.3780 O   0  0  0  0  0  0  0  0  0  0  0  0
  -25.0560  -34.0370   24.9900 H   0  0  0  0  0  0  0  0  0  0  0  0
  -24.1700  -36.7630   23.1900 C   0  0  0  0  0  1  0  0  0  0  0  0
  -25.4550  -36.3580   23.9300 C   0  0  0  0  0  3  0  0  0  0  0  0
  -27.6160  -37.2660   24.6650 C   0  0  0  0  0  1  0  0  0  0  0  0
  -26.4670  -37.4270   23.7770 N   0  0  0  0  0  0  0  0  0  0  0  0
  -26.0570  -38.3400   23.9510 H   0  0  0  0  0  0  0  0  0  0  0  0
  -27.9780  -23.8280   20.1960 C   0  0  0  0  0  3  0  0  0  0  0  0
  -28.9680  -22.1620   20.2680 C   0  0  0  0  0  3  0  0  0  0  0  0
  -28.6980  -20.2450   20.2540 C   0  0  0  0  0  2  0  0  0  0  0  0
  -29.4430  -17.1250   20.2970 C   0  0  0  0  0  3  0  0  0  0  0  0
  -29.6460  -18.6480   20.2070 C   0  0  0  0  0  3  0  0  0  0  0  0
  -30.3040  -15.6500   20.1910 C   0  0  0  0  0  0  0  0  0  0  0  0
  -30.4190  -13.1060   19.3910 C   0  0  0  0  0  2  0  0  0  0  0  0
  -29.5360  -12.7380   18.1630 C   0  0  0  0  0  2  0  0  0  0  0  0
  -28.1060  -12.3840   18.5990 C   0  0  0  0  0  2  0  0  0  0  0  0
  -27.5890  -13.3710   19.6700 C   0  0  0  0  0  3  0  0  0  0  0  0
  -28.6090  -13.6680   20.7910 C   0  0  0  0  0  2  0  0  0  0  0  0
  -29.8020  -14.2760   20.1630 N   0  0  0  0  0  0  0  0  0  0  0  0
  -31.5320  -15.5890   19.9910 O   0  0  0  0  0  0  0  0  0  0  0  0
  -25.2140  -13.8690   20.4190 C   0  0  0  0  0  0  0  0  0  0  0  0
  -24.1670  -13.0740   20.7880 C   0  0  0  0  0  0  0  0  0  0  0  0
  -24.6620  -11.7330   20.7740 C   0  0  0  0  0  0  0  0  0  0  0  0
  -26.2750  -13.0150   20.1860 N   0  0  0  0  0  0  0  0  0  0  0  0
  -25.9570  -11.7230   20.4690 N   0  0  0  0  0  0  0  0  0  0  0  0
  -23.9560  -10.4600   20.9720 C   0  0  0  0  0  0  0  0  0  0  0  0
  -24.3920   -9.5090   21.9210 C   0  0  0  0  0  3  0  0  0  0  0  0
  -23.6810   -8.3040   22.1080 C   0  0  0  0  0  3  0  0  0  0  0  0
  -22.5180   -8.0410   21.3470 C   0  0  0  0  0  0  0  0  0  0  0  0
  -22.0990   -8.9790   20.3870 C   0  0  0  0  0  3  0  0  0  0  0  0
  -22.8110  -10.1760   20.1990 C   0  0  0  0  0  3  0  0  0  0  0  0
  -21.7780   -6.8860   21.4420 O   0  0  0  0  0  0  0  0  0  0  0  0
  -21.7250   -6.1580   22.6050 C   0  0  0  0  0  0  0  0  0  0  0  0
  -21.2760   -6.7240   23.8180 C   0  0  0  0  0  3  0  0  0  0  0  0
  -21.1720   -5.9230   24.9720 C   0  0  0  0  0  3  0  0  0  0  0  0
  -21.5050   -4.5570   24.9140 C   0  0  0  0  0  0  0  0  0  0  0  0
  -21.9470   -3.9900   23.7050 C   0  0  0  0  0  3  0  0  0  0  0  0
  -22.0530   -4.7890   22.5530 C   0  0  0  0  0  0  0  0  0  0  0  0
  -22.4580   -4.2330   21.3860 F   0  0  0  0  0  0  0  0  0  0  0  0
  -21.3990   -3.7850   26.0200 F   0  0  0  0  0  0  0  0  0  0  0  0
  -22.7590  -13.5280   21.0380 C   0  0  0  0  0  0  0  0  0  0  0  0
  -22.0370  -12.8340   21.9090 N   0  0  0  0  0  0  0  0  0  0  0  0
  -22.3090  -14.5360   20.4940 O   0  0  0  0  0  0  0  0  0  0  0  0
  -22.4160  -12.0210   22.3710 H   0  0  0  0  0  0  0  0  0  0  0  0
  -21.0920  -13.1220   22.1200 H   0  0  0  0  0  0  0  0  0  0  0  0
  -25.3500  -15.2420   20.2290 N   0  0  0  0  0  0  0  0  0  0  0  0
  -24.5700  -15.8810   20.3330 H   0  0  0  0  0  0  0  0  0  0  0  0
  -26.1890  -15.6930   19.8900 H   0  0  0  0  0  0  0  0  0  0  0  0
  2 13  2  0
  3  1  1  0
  3  8  1  0
  4 12  1  0
  4 14  1  0
  5 11  1  0
  5  7  1  0
  6 12  1  0
  7  6  1  0
  8  7  2  0
  9  3  2  0
 10  9  1  0
 10  5  2  0
 11  4  1  0
 12  2  1  0
 14 16  2  0
 15 14  1  0
 17 15  1  0
 18 27  2  0
 18 23  1  0
 19 15  1  0
 19 23  1  0
 20 19  1  0
 21 22  1  0
 21 20  1  0
 22 18  1  0
 23 24  2  0
 24 25  1  0
 26 25  2  0
 27 26  1  0
 28  2  1  0
 28 33  1  0
 28 29  1  0
 29 32  1  1
 29 30  1  0
 31 29  1  0
 33 36  1  0
 34 38  1  0
 34 33  1  0
 35 34  2  0
 38 37  1  0
 40 38  1  0
 40 41  1  0
 40 39  1  0
 42 43  2  0
 42  1  1  0
 44 43  1  0
 46 44  1  0
 46 45  2  0
 47 45  1  0
 48 53  1  0
 49 50  1  0
 49 48  1  0
 51 50  1  0
 51 58  1  0
 51 52  1  0
 53 47  1  0
 53 52  1  0
 54 47  2  0
 55 56  2  0
 56 75  1  0
 57 56  1  0
 57 60  1  0
 58 55  1  0
 58 59  1  0
 59 57  2  0
 60 61  1  0
 61 62  2  0
 63 66  1  0
 63 62  1  0
 64 63  2  0
 65 64  1  0
 65 60  2  0
 66 67  1  0
 67 68  1  0
 68 69  2  0
 70 69  1  0
 70 74  1  0
 71 70  2  0
 72 67  2  0
 72 71  1  0
 73 72  1  0
 75 76  1  0
 76 79  1  0
 76 78  1  0
 77 75  2  0
 80 81  1  0
 80 55  1  0
 82 80  1  0
M  ISO  4   1 101  42 101  45 100  47 100
M  END
>  <TORSDO>  (1) 
F 19

>  <SCORE>  (1) 
-16.177

>  <name>  (1) 
0

>  <ligand_id>  (1) 
0

>  <original_smiles>  (1) 
[H]C(C(=O)N1C([H])([H])C([H])([H])C([H])([H])C([H])(n2nc(-c3c([H])c([H])c(Oc4c([H])c([H])c(F)c([H])c4F)c([H])c3[H])c(C(=O)N([H])[H])c2N([H])[H])C1([H])[H])=C([H])C([H])([H])C([H])([H])C([H])([H])Oc1c([H])c([H])c2c(c1[H])C([H])([H])N(C(=O)C([H])(N([H])C(=O)C([H])(N([H])C([H])([H])[H])C([H])([H])[H])C(C([H])([H])[H])(C([H])([H])[H])C([H])([H])[H])C([H])(C(=O)N([H])C1([H])c3c([H])c([H])c([H])c([H])c3C([H])([H])C([H])([H])C1([H])[H])C2([H])[H]

>  <smiles>  (1) 
[H]C(C(=O)N1C([H])([H])C([H])([H])C([H])([H])C([H])(n2nc(-c3c([H])c([H])c(Oc4c([H])c([H])c(F)c([H])c4F)c([H])c3[H])c(C(=O)N([H])[H])c2N([H])[H])C1([H])[H])=C([H])C([H])([H])C([H])([H])C([H])([H])Oc1c([H])c([H])c2c(c1[H])C([H])([H])N(C(=O)C([H])(N([H])C(=O)C([H])(N([H])C([H])([H])[H])C([H])([H])[H])C(C([H])([H])[H])(C([H])([H])[H])C([H])([H])[H])C([H])(C(=O)N([H])C1([H])c3c([H])c([H])c([H])c([H])c3C([H])([H])C([H])([H])C1([H])[H])C2([H])[H]

$$$$
1:0:0
     RDKit          3D

 87 90  0  0  1  0  0  0  0  0999 V2000
  -28.7710  -21.7050   20.5400 C   0  0  0  0  0  2  0  0  0  0  0  0
  -28.7860  -21.7520   21.7730 O   0  0  0  0  0  0  0  0  0  0  0  0
  -28.1960  -23.4730   19.8830 C   0  0  0  0  0  1  0  0  0  0  0  0
  -28.1220  -25.2650   20.3920 O   0  0  0  0  0  0  0  0  0  0  0  0
  -24.6260  -31.8270   23.1710 C   0  0  0  0  0  0  0  0  0  0  0  0
  -27.1860  -26.5700   20.2610 C   0  0  0  0  0  0  0  0  0  0  0  0
  -23.4650  -30.4140   21.5320 C   0  0  0  0  0  3  0  0  0  0  0  0
  -24.9290  -28.7200   20.1540 C   0  0  0  0  0  0  0  0  0  0  0  0
  -26.0510  -30.5030   21.4620 C   0  0  0  0  0  2  0  0  0  0  0  0
  -26.1200  -29.0450   20.8190 C   0  0  0  0  0  0  0  0  0  0  0  0
  -27.2140  -28.0010   20.8420 C   0  0  0  0  0  3  0  0  0  0  0  0
  -25.9660  -26.5090   19.5240 C   0  0  0  0  0  3  0  0  0  0  0  0
  -24.9050  -27.4800   19.4850 C   0  0  0  0  0  3  0  0  0  0  0  0
  -23.7300  -29.6950   20.1740 C   0  0  0  0  0  2  0  0  0  0  0  0
  -24.7380  -30.9540   22.1040 N   0  0  0  0  0  0  0  0  0  0  0  0
  -23.5230  -32.1360   23.6610 O   0  0  0  0  0  0  0  0  0  0  0  0
  -22.7220  -29.4600   22.5080 C   0  0  0  0  0  0  0  0  0  0  0  0
  -21.3840  -29.3280   22.3870 N   0  0  0  0  0  0  0  0  0  0  0  0
  -23.3650  -28.8320   23.3530 O   0  0  0  0  0  0  0  0  0  0  0  0
  -20.9110  -29.8820   21.6870 H   0  0  0  0  0  0  0  0  0  0  0  0
  -17.9780  -28.1590   22.9120 C   0  0  0  0  0  0  0  0  0  0  0  0
  -20.5460  -28.4040   23.1640 C   0  0  0  0  0  3  0  0  0  0  0  0
  -20.6310  -26.9710   22.5900 C   0  0  0  0  0  2  0  0  0  0  0  0
  -19.5230  -26.6600   21.5780 C   0  0  0  0  0  2  0  0  0  0  0  0
  -18.1430  -26.8150   22.2250 C   0  0  0  0  0  2  0  0  0  0  0  0
  -19.1070  -28.9130   23.3370 C   0  0  0  0  0  0  0  0  0  0  0  0
  -18.8960  -30.1690   23.9470 C   0  0  0  0  0  3  0  0  0  0  0  0
  -17.5940  -30.6720   24.1310 C   0  0  0  0  0  3  0  0  0  0  0  0
  -16.4820  -29.9180   23.7150 C   0  0  0  0  0  3  0  0  0  0  0  0
  -16.6760  -28.6630   23.1110 C   0  0  0  0  0  3  0  0  0  0  0  0
  -25.8720  -32.4910   23.8290 C   0  0  0  0  0  3  0  0  0  0  0  0
  -26.3400  -31.7560   25.1460 C   0  0  1  0  0  0  0  0  0  0  0  0
  -25.2090  -31.5620   26.1840 C   0  0  0  0  0  1  0  0  0  0  0  0
  -26.9270  -30.3640   24.8260 C   0  0  0  0  0  1  0  0  0  0  0  0
  -27.4740  -32.5620   25.8220 C   0  0  0  0  0  1  0  0  0  0  0  0
  -25.5430  -33.8970   24.1440 N   0  0  0  0  0  0  0  0  0  0  0  0
  -25.8930  -34.9630   23.4080 C   0  0  0  0  0  0  0  0  0  0  0  0
  -26.5810  -34.8640   22.3900 O   0  0  0  0  0  0  0  0  0  0  0  0
  -24.9390  -34.0460   24.9380 H   0  0  0  0  0  0  0  0  0  0  0  0
  -24.1820  -36.7810   23.0440 C   0  0  0  0  0  1  0  0  0  0  0  0
  -25.4070  -36.3550   23.8700 C   0  0  0  0  0  3  0  0  0  0  0  0
  -27.5310  -37.2330   24.7420 C   0  0  0  0  0  1  0  0  0  0  0  0
  -26.4440  -37.4070   23.7830 N   0  0  0  0  0  0  0  0  0  0  0  0
  -26.0330  -38.3250   23.9310 H   0  0  0  0  0  0  0  0  0  0  0  0
  -29.4030  -19.8090   19.9250 C   0  0  0  0  0  1  0  0  0  0  0  0
  -31.5040  -19.6750   18.5580 C   0  0  0  0  0  0  0  0  0  0  0  0
  -32.9650  -20.1100   18.4740 C   0  0  0  0  0  1  0  0  0  0  0  0
  -30.8130  -20.0810   19.6300 N   0  0  0  0  0  0  0  0  0  0  0  0
  -31.0160  -18.9790   17.6650 O   0  0  0  0  0  0  0  0  0  0  0  0
  -31.2940  -20.6700   20.2990 H   0  0  0  0  0  0  0  0  0  0  0  0
  -29.4630  -17.8110   20.4610 C   0  0  0  0  0 15  0  0  0  0  0  0
  -30.2050  -16.0030   20.1300 C   0  0  0  0  0  2  0  0  0  0  0  0
  -30.3970  -13.3770   19.3400 C   0  0  0  0  0  2  0  0  0  0  0  0
  -29.5240  -12.8550   18.1510 C   0  0  0  0  0  2  0  0  0  0  0  0
  -28.1330  -12.4270   18.6270 C   0  0  0  0  0  2  0  0  0  0  0  0
  -27.5830  -13.4440   19.6470 C   0  0  0  0  0  3  0  0  0  0  0  0
  -28.5980  -13.8680   20.7430 C   0  0  0  0  0  2  0  0  0  0  0  0
  -29.7440  -14.5730   20.0920 N   0  0  0  0  0  0  0  0  0  0  0  0
  -31.4270  -15.8840   19.8780 O   0  0  0  0  0  1  0  0  0  0  0  0
  -25.2220  -13.9270   20.4330 C   0  0  0  0  0  0  0  0  0  0  0  0
  -24.1750  -13.1330   20.8010 C   0  0  0  0  0  0  0  0  0  0  0  0
  -24.6620  -11.7900   20.7660 C   0  0  0  0  0  0  0  0  0  0  0  0
  -26.2790  -13.0730   20.1820 N   0  0  0  0  0  0  0  0  0  0  0  0
  -25.9550  -11.7770   20.4460 N   0  0  0  0  0  0  0  0  0  0  0  0
  -23.9470  -10.5170   20.9590 C   0  0  0  0  0  0  0  0  0  0  0  0
  -24.3790   -9.5590   21.9030 C   0  0  0  0  0  3  0  0  0  0  0  0
  -23.6570   -8.3600   22.0870 C   0  0  0  0  0  3  0  0  0  0  0  0
  -22.4900   -8.1080   21.3290 C   0  0  0  0  0  0  0  0  0  0  0  0
  -22.0760   -9.0550   20.3770 C   0  0  0  0  0  3  0  0  0  0  0  0
  -22.7960  -10.2470   20.1900 C   0  0  0  0  0  3  0  0  0  0  0  0
  -21.7430   -6.9580   21.4190 O   0  0  0  0  0  0  0  0  0  0  0  0
  -21.6850   -6.2260   22.5780 C   0  0  0  0  0  0  0  0  0  0  0  0
  -21.2260   -6.7860   23.7900 C   0  0  0  0  0  3  0  0  0  0  0  0
  -21.1160   -5.9810   24.9400 C   0  0  0  0  0  3  0  0  0  0  0  0
  -21.4580   -4.6170   24.8810 C   0  0  0  0  0  0  0  0  0  0  0  0
  -21.9100   -4.0550   23.6740 C   0  0  0  0  0  3  0  0  0  0  0  0
  -22.0200   -4.8580   22.5250 C   0  0  0  0  0  0  0  0  0  0  0  0
  -22.4350   -4.3060   21.3590 F   0  0  0  0  0  0  0  0  0  0  0  0
  -21.3450   -3.8400   25.9840 F   0  0  0  0  0  0  0  0  0  0  0  0
  -22.7730  -13.5910   21.0690 C   0  0  0  0  0  0  0  0  0  0  0  0
  -22.0520  -12.8900   21.9350 N   0  0  0  0  0  0  0  0  0  0  0  0
  -22.3290  -14.6150   20.5480 O   0  0  0  0  0  0  0  0  0  0  0  0
  -22.4270  -12.0630   22.3760 H   0  0  0  0  0  0  0  0  0  0  0  0
  -21.1130  -13.1850   22.1600 H   0  0  0  0  0  0  0  0  0  0  0  0
  -25.3640  -15.3000   20.2560 N   0  0  0  0  0  0  0  0  0  0  0  0
  -24.5890  -15.9410   20.3790 H   0  0  0  0  0  0  0  0  0  0  0  0
  -26.2090  -15.7570   19.9370 H   0  0  0  0  0  0  0  0  0  0  0  0
  1  2  2  0
  3  4  1  0
  5 16  2  0
  6  4  1  0
  6 11  1  0
  7 15  1  0
  7 17  1  0
  8 14  1  0
  8 10  1  0
  9 15  1  0
 10 11  2  0
 10  9  1  0
 12  6  2  0
 13 12  1  0
 13  8  2  0
 14  7  1  0
 15  5  1  0
 17 19  2  0
 18 17  1  0
 20 18  1  0
 21 30  2  0
 21 26  1  0
 22 18  1  0
 22 26  1  0
 23 22  1  0
 24 25  1  0
 24 23  1  0
 25 21  1  0
 26 27  2  0
 27 28  1  0
 29 28  2  0
 30 29  1  0
 31  5  1  0
 31 36  1  0
 31 32  1  0
 32 35  1  1
 32 33  1  0
 34 32  1  0
 36 39  1  0
 37 41  1  0
 37 36  1  0
 38 37  2  0
 41 40  1  0
 43 41  1  0
 43 44  1  0
 43 42  1  0
 46 48  1  0
 47 46  1  0
 48 45  1  0
 48 50  1  0
 49 46  2  0
 53 58  1  0
 54 55  1  0
 54 53  1  0
 56 55  1  0
 56 63  1  0
 56 57  1  0
 58 52  1  0
 58 57  1  0
 59 52  1  0
 60 61  2  0
 61 80  1  0
 62 61  1  0
 62 65  1  0
 63 60  1  0
 63 64  1  0
 64 62  2  0
 65 66  1  0
 66 67  2  0
 68 71  1  0
 68 67  1  0
 69 68  2  0
 70 69  1  0
 70 65  2  0
 71 72  1  0
 72 73  1  0
 73 74  2  0
 75 74  1  0
 75 79  1  0
 76 75  2  0
 77 72  2  0
 77 76  1  0
 78 77  1  0
 80 81  1  0
 81 84  1  0
 81 83  1  0
 82 80  2  0
 85 86  1  0
 85 60  1  0
 87 85  1  0
M  ISO  4   3 101   4 101  51 100  52 100
M  END
>  <TORSDO>  (2) 
F 20

>  <SCORE>  (2) 
-16.243

>  <name>  (2) 
1

>  <ligand_id>  (2) 
1

>  <original_smiles>  (2) 
[H]c1c([H])c([H])c2c(c1[H])C([H])([H])C([H])([H])C([H])([H])C2([H])N([H])C(=O)C1([H])N(C(=O)C([H])(N([H])C(=O)C([H])(N([H])C([H])([H])[H])C([H])([H])[H])C(C([H])([H])[H])(C([H])([H])[H])C([H])([H])[H])C([H])([H])c2c([H])c(OC([H])([H])C(=O)C([H])(N([H])C(=O)C([H])([H])[H])C([H])([H])C(=O)N3C([H])([H])C([H])([H])C([H])([H])C([H])(n4nc(-c5c([H])c([H])c(Oc6c([H])c([H])c(F)c([H])c6F)c([H])c5[H])c(C(=O)N([H])[H])c4N([H])[H])C3([H])[H])c([H])c([H])c2C1([H])[H]

>  <smiles>  (2) 
[H]c1c([H])c([H])c2c(c1[H])C([H])([H])C([H])([H])C([H])([H])C2([H])N([H])C(=O)C1([H])N(C(=O)C([H])(N([H])C(=O)C([H])(N([H])C([H])([H])[H])C([H])([H])[H])C(C([H])([H])[H])(C([H])([H])[H])C([H])([H])[H])C([H])([H])c2c([H])c(OC([H])([H])C(=O)C([H])(N([H])C(=O)C([H])([H])[H])C([H])([H])C(=O)N3C([H])([H])C([H])([H])C([H])([H])C([H])(n4nc(-c5c([H])c([H])c(Oc6c([H])c([H])c(F)c([H])c6F)c([H])c5[H])c(C(=O)N([H])[H])c4N([H])[H])C3([H])[H])c([H])c([H])c2C1([H])[H]

$$$$
2:0:0
     RDKit          3D

 91 99  0  0  1  0  0  0  0  0999 V2000
  -29.2380  -21.9390   20.5440 C   0  0  0  0  0  0  0  0  0  0  0  0
  -29.8470  -20.7800   19.9810 N   0  0  0  0  0  0  0  0  0  0  0  0
  -28.6250  -21.8270   21.6040 O   0  0  0  0  0  0  0  0  0  0  0  0
  -30.2870  -20.9660   19.0890 H   0  0  0  0  0  0  0  0  0  0  0  0
  -31.9560  -17.6570   22.2360 C   0  0  0  0  0  2  0  0  0  0  0  0
  -30.5030  -17.9000   22.7040 C   0  0  0  0  0  2  0  0  0  0  0  0
  -32.1550  -17.6620   20.6960 C   0  0  0  0  0  2  0  0  0  0  0  0
  -29.8500  -19.1520   22.0760 C   0  0  0  0  0  2  0  0  0  0  0  0
  -30.8540  -17.9490   19.8820 C   0  0  0  0  0  3  0  0  0  0  0  0
  -30.2610  -19.3800   20.6000 C   0  0  0  0  0  3  0  0  0  0  0  0
  -30.1160  -16.4790   19.7490 C   0  0  0  0  0  0  0  0  0  0  0  0
  -28.8800  -16.4780   19.8000 O   0  0  0  0  0  0  0  0  0  0  0  0
  -30.9360  -14.9980   19.4600 C   0  0  0  0  0  0  0  0  0  0  0  0
  -30.6400  -12.6540   18.5580 C   0  0  0  0  0  2  0  0  0  0  0  0
  -29.5930  -12.6590   17.4220 C   0  0  0  0  0  2  0  0  0  0  0  0
  -28.1740  -12.4860   17.9930 C   0  0  0  0  0  2  0  0  0  0  0  0
  -27.9130  -13.4200   19.2020 C   0  0  0  0  0  3  0  0  0  0  0  0
  -29.0710  -13.4020   20.2200 C   0  0  0  0  0  2  0  0  0  0  0  0
  -30.2970  -13.7610   19.4990 N   0  0  0  0  0  0  0  0  0  0  0  0
  -32.0940  -15.0240   19.0200 O   0  0  0  0  0  0  0  0  0  0  0  0
  -25.6600  -14.0760   20.2160 C   0  0  0  0  0  0  0  0  0  0  0  0
  -24.6020  -13.3330   20.6660 C   0  0  0  0  0  0  0  0  0  0  0  0
  -25.0020  -11.9650   20.5490 C   0  0  0  0  0  0  0  0  0  0  0  0
  -26.6270  -13.1620   19.8360 N   0  0  0  0  0  0  0  0  0  0  0  0
  -26.2490  -11.8850   20.1000 N   0  0  0  0  0  0  0  0  0  0  0  0
  -24.2500  -10.7260   20.7820 C   0  0  0  0  0  0  0  0  0  0  0  0
  -24.7010   -9.7460   21.6940 C   0  0  0  0  0  3  0  0  0  0  0  0
  -23.9490   -8.5720   21.9130 C   0  0  0  0  0  3  0  0  0  0  0  0
  -22.7320   -8.3730   21.2210 C   0  0  0  0  0  0  0  0  0  0  0  0
  -22.3000   -9.3390   20.2960 C   0  0  0  0  0  3  0  0  0  0  0  0
  -23.0510  -10.5050   20.0750 C   0  0  0  0  0  3  0  0  0  0  0  0
  -21.9470   -7.2540   21.3520 O   0  0  0  0  0  0  0  0  0  0  0  0
  -21.8830   -6.5500   22.5270 C   0  0  0  0  0  0  0  0  0  0  0  0
  -21.4690   -7.1540   23.7350 C   0  0  0  0  0  3  0  0  0  0  0  0
  -21.3530   -6.3770   24.9060 C   0  0  0  0  0  3  0  0  0  0  0  0
  -21.6420   -5.0000   24.8700 C   0  0  0  0  0  0  0  0  0  0  0  0
  -22.0440   -4.3980   23.6660 C   0  0  0  0  0  3  0  0  0  0  0  0
  -22.1640   -5.1700   22.4980 C   0  0  0  0  0  0  0  0  0  0  0  0
  -22.5340   -4.5800   21.3350 F   0  0  0  0  0  0  0  0  0  0  0  0
  -21.5240   -4.2510   25.9910 F   0  0  0  0  0  0  0  0  0  0  0  0
  -23.2610  -13.8550   21.0990 C   0  0  0  0  0  0  0  0  0  0  0  0
  -22.6100  -13.1690   22.0300 N   0  0  0  0  0  0  0  0  0  0  0  0
  -22.8020  -14.9020   20.6430 O   0  0  0  0  0  0  0  0  0  0  0  0
  -22.9920  -12.3200   22.4190 H   0  0  0  0  0  0  0  0  0  0  0  0
  -21.7140  -13.4960   22.3660 H   0  0  0  0  0  0  0  0  0  0  0  0
  -25.8750  -15.4440   20.0780 N   0  0  0  0  0  0  0  0  0  0  0  0
  -25.1930  -16.1420   20.3510 H   0  0  0  0  0  0  0  0  0  0  0  0
  -26.7840  -15.8460   19.8490 H   0  0  0  0  0  0  0  0  0  0  0  0
  -29.3040  -23.4730   19.9460 C   0  0  0  0  0  2  0  0  0  0  0  0
  -28.3130  -24.7350   20.4540 C   0  0  0  0  0  2  0  0  0  0  0  0
  -28.5410  -26.2670   20.3130 O   0  0  0  0  0  0  0  0  0  0  0  0
  -24.6600  -31.7750   23.2470 C   0  0  0  0  0  0  0  0  0  0  0  0
  -27.4380  -27.1900   20.2430 C   0  0  0  0  0  0  0  0  0  0  0  0
  -23.5240  -30.3390   21.5960 C   0  0  0  0  0  3  0  0  0  0  0  0
  -25.0400  -28.8280   20.1760 C   0  0  0  0  0  0  0  0  0  0  0  0
  -26.0620  -30.7110   21.4440 C   0  0  0  0  0  2  0  0  0  0  0  0
  -26.1940  -29.3260   20.7950 C   0  0  0  0  0  0  0  0  0  0  0  0
  -27.3920  -28.5210   20.8130 C   0  0  0  0  0  3  0  0  0  0  0  0
  -26.2600  -26.7940   19.5680 C   0  0  0  0  0  3  0  0  0  0  0  0
  -25.0840  -27.5750   19.5480 C   0  0  0  0  0  3  0  0  0  0  0  0
  -23.7790  -29.6790   20.2150 C   0  0  0  0  0  2  0  0  0  0  0  0
  -24.7680  -30.9630   22.1510 N   0  0  0  0  0  0  0  0  0  0  0  0
  -23.5620  -32.0160   23.7700 O   0  0  0  0  0  0  0  0  0  0  0  0
  -22.8790  -29.3040   22.5500 C   0  0  0  0  0  0  0  0  0  0  0  0
  -21.5690  -29.0570   22.3890 N   0  0  0  0  0  0  0  0  0  0  0  0
  -23.5620  -28.7240   23.3990 O   0  0  0  0  0  0  0  0  0  0  0  0
  -21.0740  -29.5830   21.6830 H   0  0  0  0  0  0  0  0  0  0  0  0
  -18.2630  -27.6110   22.7500 C   0  0  0  0  0  0  0  0  0  0  0  0
  -20.7750  -28.0840   23.1480 C   0  0  0  0  0  3  0  0  0  0  0  0
  -21.0200  -26.6470   22.6340 C   0  0  0  0  0  2  0  0  0  0  0  0
  -20.0070  -26.2040   21.5730 C   0  0  0  0  0  2  0  0  0  0  0  0
  -18.5810  -26.2570   22.1340 C   0  0  0  0  0  2  0  0  0  0  0  0
  -19.2930  -28.4730   23.2090 C   0  0  0  0  0  0  0  0  0  0  0  0
  -18.9440  -29.7290   23.7500 C   0  0  0  0  0  3  0  0  0  0  0  0
  -17.5990  -30.1310   23.8290 C   0  0  0  0  0  3  0  0  0  0  0  0
  -16.5810  -29.2680   23.3850 C   0  0  0  0  0  3  0  0  0  0  0  0
  -16.9140  -28.0090   22.8530 C   0  0  0  0  0  3  0  0  0  0  0  0
  -25.9080  -32.4570   23.8840 C   0  0  0  0  0  3  0  0  0  0  0  0
  -26.3980  -31.7420   25.2060 C   0  0  1  0  0  0  0  0  0  0  0  0
  -25.2760  -31.5080   26.2440 C   0  0  0  0  0  1  0  0  0  0  0  0
  -27.0290  -30.3700   24.8800 C   0  0  0  0  0  1  0  0  0  0  0  0
  -27.5070  -32.5880   25.8760 C   0  0  0  0  0  1  0  0  0  0  0  0
  -25.5630  -33.8590   24.1600 N   0  0  0  0  0  0  0  0  0  0  0  0
  -25.9490  -34.9040   23.4160 C   0  0  0  0  0  0  0  0  0  0  0  0
  -26.7010  -34.7850   22.4420 O   0  0  0  0  0  0  0  0  0  0  0  0
  -24.9030  -34.0240   24.9070 H   0  0  0  0  0  0  0  0  0  0  0  0
  -24.2450  -36.6830   22.8930 C   0  0  0  0  0  1  0  0  0  0  0  0
  -25.4180  -36.2960   23.8080 C   0  0  0  0  0  3  0  0  0  0  0  0
  -27.4770  -37.2020   24.7900 C   0  0  0  0  0  1  0  0  0  0  0  0
  -26.4510  -37.3540   23.7630 N   0  0  0  0  0  0  0  0  0  0  0  0
  -26.0300  -38.2740   23.8700 H   0  0  0  0  0  0  0  0  0  0  0  0
  1  3  2  0
  2  1  1  0
  4  2  1  0
  5  6  1  0
  7  5  1  0
  8  6  1  0
  9 11  1  0
  9 10  1  0
  9  7  1  0
 10  2  1  0
 10  8  1  0
 11 12  2  0
 13 19  1  0
 13 11  1  0
 14 19  1  0
 15 16  1  0
 15 14  1  0
 17 16  1  0
 17 24  1  0
 17 18  1  0
 19 18  1  0
 20 13  2  0
 21 22  2  0
 22 41  1  0
 23 22  1  0
 23 26  1  0
 24 25  1  0
 24 21  1  0
 25 23  2  0
 26 27  1  0
 27 28  2  0
 29 32  1  0
 29 28  1  0
 30 29  2  0
 31 30  1  0
 31 26  2  0
 32 33  1  0
 33 34  1  0
 34 35  2  0
 36 35  1  0
 36 40  1  0
 37 36  2  0
 38 33  2  0
 38 37  1  0
 39 38  1  0
 41 42  1  0
 42 45  1  0
 42 44  1  0
 43 41  2  0
 46 21  1  0
 46 47  1  0
 48 46  1  0
 49 50  1  0
 49  1  1  0
 51 50  1  0
 52 63  2  0
 53 51  1  0
 53 58  1  0
 54 62  1  0
 54 64  1  0
 55 61  1  0
 55 57  1  0
 56 62  1  0
 57 58  2  0
 57 56  1  0
 59 53  2  0
 60 59  1  0
 60 55  2  0
 61 54  1  0
 62 52  1  0
 64 66  2  0
 65 64  1  0
 67 65  1  0
 68 77  2  0
 68 73  1  0
 69 65  1  0
 69 73  1  0
 70 69  1  0
 71 72  1  0
 71 70  1  0
 72 68  1  0
 73 74  2  0
 74 75  1  0
 76 75  2  0
 77 76  1  0
 78 52  1  0
 78 83  1  0
 78 79  1  0
 79 82  1  1
 79 80  1  0
 81 79  1  0
 83 86  1  0
 84 88  1  0
 84 83  1  0
 85 84  2  0
 88 87  1  0
 90 88  1  0
 90 91  1  0
 90 89  1  0
M  ISO  4  11 100  13 100  50 101  51 101
M  END
>  <TORSDO>  (3) 
F 20

>  <SCORE>  (3) 
-11.531

>  <name>  (3) 
2

>  <ligand_id>  (3) 
2

>  <original_smiles>  (3) 
[H]c1c([H])c([H])c2c(c1[H])C([H])([H])C([H])([H])C([H])([H])C2([H])N([H])C(=O)C1([H])N(C(=O)C([H])(N([H])C(=O)C([H])(N([H])C([H])([H])[H])C([H])([H])[H])C(C([H])([H])[H])(C([H])([H])[H])C([H])([H])[H])C([H])([H])c2c([H])c(OC([H])([H])C([H])([H])C(=O)N([H])C3([H])C([H])([H])C([H])([H])C([H])([H])C([H])([H])C3([H])C(=O)C(=O)N3C([H])([H])C([H])([H])C([H])([H])C([H])(n4nc(-c5c([H])c([H])c(Oc6c([H])c([H])c(F)c([H])c6F)c([H])c5[H])c(C(=O)N([H])[H])c4N([H])[H])C3([H])[H])c([H])c([H])c2C1([H])[H]

>  <smiles>  (3) 
[H]c1c([H])c([H])c2c(c1[H])C([H])([H])C([H])([H])C([H])([H])C2([H])N([H])C(=O)C1([H])N(C(=O)C([H])(N([H])C(=O)C([H])(N([H])C([H])([H])[H])C([H])([H])[H])C(C([H])([H])[H])(C([H])([H])[H])C([H])([H])[H])C([H])([H])c2c([H])c(OC([H])([H])C([H])([H])C(=O)N([H])C3([H])C([H])([H])C([H])([H])C([H])([H])C([H])([H])C3([H])C(=O)C(=O)N3C([H])([H])C([H])([H])C([H])([H])C([H])(n4nc(-c5c([H])c([H])c(Oc6c([H])c([H])c(F)c([H])c6F)c([H])c5[H])c(C(=O)N([H])[H])c4N([H])[H])C3([H])[H])c([H])c([H])c2C1([H])[H]

$$$$
3:0:0
     RDKit          3D

 83 90  0  0  1  0  0  0  0  0999 V2000
  -28.0300  -24.3430   20.4890 C   0  0  0  0  0  3  0  0  0  0  0  0
  -28.2350  -25.9400   20.2140 O   0  0  0  0  0  0  0  0  0  0  0  0
  -24.6090  -31.8440   23.1680 C   0  0  0  0  0  0  0  0  0  0  0  0
  -27.1940  -26.9920   20.1990 C   0  0  0  0  0  0  0  0  0  0  0  0
  -23.4220  -30.4310   21.5380 C   0  0  0  0  0  3  0  0  0  0  0  0
  -24.8780  -28.8260   20.1340 C   0  0  0  0  0  0  0  0  0  0  0  0
  -25.9840  -30.6670   21.3880 C   0  0  0  0  0  2  0  0  0  0  0  0
  -26.0630  -29.2550   20.7470 C   0  0  0  0  0  0  0  0  0  0  0  0
  -27.2190  -28.3600   20.7510 C   0  0  0  0  0  3  0  0  0  0  0  0
  -25.9780  -26.7010   19.5450 C   0  0  0  0  0  3  0  0  0  0  0  0
  -24.8580  -27.5680   19.5130 C   0  0  0  0  0  3  0  0  0  0  0  0
  -23.6550  -29.7380   20.1680 C   0  0  0  0  0  2  0  0  0  0  0  0
  -24.6920  -31.0070   22.0850 N   0  0  0  0  0  0  0  0  0  0  0  0
  -23.5180  -32.1320   23.6870 O   0  0  0  0  0  0  0  0  0  0  0  0
  -22.7330  -29.4380   22.5100 C   0  0  0  0  0  0  0  0  0  0  0  0
  -21.4030  -29.2760   22.3920 N   0  0  0  0  0  0  0  0  0  0  0  0
  -23.4030  -28.8120   23.3360 O   0  0  0  0  0  0  0  0  0  0  0  0
  -20.9160  -29.8290   21.7020 H   0  0  0  0  0  0  0  0  0  0  0  0
  -18.0210  -28.0740   22.9180 C   0  0  0  0  0  0  0  0  0  0  0  0
  -20.5820  -28.3420   23.1710 C   0  0  0  0  0  3  0  0  0  0  0  0
  -20.6820  -26.9060   22.6030 C   0  0  0  0  0  2  0  0  0  0  0  0
  -19.5750  -26.5790   21.5940 C   0  0  0  0  0  2  0  0  0  0  0  0
  -18.1960  -26.7230   22.2440 C   0  0  0  0  0  2  0  0  0  0  0  0
  -19.1410  -28.8410   23.3390 C   0  0  0  0  0  0  0  0  0  0  0  0
  -18.9200  -30.1030   23.9330 C   0  0  0  0  0  3  0  0  0  0  0  0
  -17.6140  -30.5990   24.1070 C   0  0  0  0  0  3  0  0  0  0  0  0
  -16.5100  -29.8310   23.7000 C   0  0  0  0  0  3  0  0  0  0  0  0
  -16.7140  -28.5700   23.1110 C   0  0  0  0  0  3  0  0  0  0  0  0
  -25.8770  -32.4960   23.7970 C   0  0  0  0  0  3  0  0  0  0  0  0
  -26.4000  -31.7260   25.0730 C   0  0  1  0  0  0  0  0  0  0  0  0
  -25.3110  -31.4780   26.1420 C   0  0  0  0  0  1  0  0  0  0  0  0
  -26.9950  -30.3540   24.6840 C   0  0  0  0  0  1  0  0  0  0  0  0
  -27.5460  -32.5280   25.7350 C   0  0  0  0  0  1  0  0  0  0  0  0
  -25.5450  -33.8890   24.1470 N   0  0  0  0  0  0  0  0  0  0  0  0
  -25.8560  -34.9600   23.4060 C   0  0  0  0  0  0  0  0  0  0  0  0
  -26.5180  -34.8830   22.3670 O   0  0  0  0  0  0  0  0  0  0  0  0
  -24.9540  -34.0210   24.9540 H   0  0  0  0  0  0  0  0  0  0  0  0
  -24.0990  -36.7410   23.1110 C   0  0  0  0  0  1  0  0  0  0  0  0
  -25.3600  -36.3370   23.8930 C   0  0  0  0  0  3  0  0  0  0  0  0
  -27.4980  -37.2400   24.6970 C   0  0  0  0  0  1  0  0  0  0  0  0
  -26.3760  -37.4060   23.7780 N   0  0  0  0  0  0  0  0  0  0  0  0
  -25.9600  -38.3190   23.9470 H   0  0  0  0  0  0  0  0  0  0  0  0
  -28.8560  -22.8490   19.9770 C   0  0  0  0  0  3  0  0  0  0  0  0
  -28.8920  -21.1690   20.5880 C   0  0  0  0  0  3  0  0  0  0  0  0
  -29.3590  -19.6470   19.7980 C   0  0  0  0  0  3  0  0  0  0  0  0
  -29.5500  -16.5720   20.2770 C   0  0  0  0  0  2  0  0  0  0  0  0
  -29.8060  -18.0240   20.2420 C   0  0  0  0  0  2  0  0  0  0  0  0
  -30.4440  -15.2280   20.2500 C   0  0  0  0  0  0  0  0  0  0  0  0
  -30.4210  -12.7880   19.3970 C   0  0  0  0  0  2  0  0  0  0  0  0
  -29.4960  -12.6170   18.1650 C   0  0  0  0  0  2  0  0  0  0  0  0
  -28.0420  -12.3580   18.6020 C   0  0  0  0  0  2  0  0  0  0  0  0
  -27.5980  -13.3170   19.7340 C   0  0  0  0  0  3  0  0  0  0  0  0
  -28.6480  -13.4420   20.8560 C   0  0  0  0  0  2  0  0  0  0  0  0
  -29.8940  -13.9190   20.2380 N   0  0  0  0  0  0  0  0  0  0  0  0
  -31.6640  -15.2340   20.0360 O   0  0  0  0  0  0  0  0  0  0  0  0
  -25.2280  -13.8750   20.4970 C   0  0  0  0  0  0  0  0  0  0  0  0
  -24.1700  -13.0950   20.8740 C   0  0  0  0  0  0  0  0  0  0  0  0
  -24.6420  -11.7470   20.8470 C   0  0  0  0  0  0  0  0  0  0  0  0
  -26.2720  -13.0010   20.2500 N   0  0  0  0  0  0  0  0  0  0  0  0
  -25.9320  -11.7160   20.5300 N   0  0  0  0  0  0  0  0  0  0  0  0
  -23.9190  -10.4830   21.0430 C   0  0  0  0  0  0  0  0  0  0  0  0
  -24.3650   -9.5120   21.9660 C   0  0  0  0  0  3  0  0  0  0  0  0
  -23.6390   -8.3150   22.1520 C   0  0  0  0  0  3  0  0  0  0  0  0
  -22.4540   -8.0800   21.4150 C   0  0  0  0  0  0  0  0  0  0  0  0
  -22.0270   -9.0410   20.4800 C   0  0  0  0  0  3  0  0  0  0  0  0
  -22.7530  -10.2280   20.2920 C   0  0  0  0  0  3  0  0  0  0  0  0
  -21.7000   -6.9360   21.5100 O   0  0  0  0  0  0  0  0  0  0  0  0
  -21.6800   -6.1800   22.6550 C   0  0  0  0  0  0  0  0  0  0  0  0
  -21.3060   -6.7260   23.9020 C   0  0  0  0  0  3  0  0  0  0  0  0
  -21.2320   -5.8970   25.0390 C   0  0  0  0  0  3  0  0  0  0  0  0
  -21.5230   -4.5240   24.9320 C   0  0  0  0  0  0  0  0  0  0  0  0
  -21.8910   -3.9780   23.6880 C   0  0  0  0  0  3  0  0  0  0  0  0
  -21.9660   -4.8040   22.5530 C   0  0  0  0  0  0  0  0  0  0  0  0
  -22.3000   -4.2680   21.3550 F   0  0  0  0  0  0  0  0  0  0  0  0
  -21.4450   -3.7260   26.0220 F   0  0  0  0  0  0  0  0  0  0  0  0
  -22.7720  -13.5690   21.1430 C   0  0  0  0  0  0  0  0  0  0  0  0
  -22.0480  -12.8770   22.0160 N   0  0  0  0  0  0  0  0  0  0  0  0
  -22.3310  -14.5900   20.6150 O   0  0  0  0  0  0  0  0  0  0  0  0
  -22.4190  -12.0530   22.4640 H   0  0  0  0  0  0  0  0  0  0  0  0
  -21.1100  -13.1770   22.2380 H   0  0  0  0  0  0  0  0  0  0  0  0
  -25.3840  -15.2450   20.3150 N   0  0  0  0  0  0  0  0  0  0  0  0
  -24.6130  -15.8950   20.4290 H   0  0  0  0  0  0  0  0  0  0  0  0
  -26.2230  -15.6880   19.9630 H   0  0  0  0  0  0  0  0  0  0  0  0
  2  1  1  0
  3 14  2  0
  4  2  1  0
  4  9  1  0
  5 13  1  0
  5 15  1  0
  6 12  1  0
  6  8  1  0
  7 13  1  0
  8  9  2  0
  8  7  1  0
 10  4  2  0
 11 10  1  0
 11  6  2  0
 12  5  1  0
 13  3  1  0
 15 17  2  0
 16 15  1  0
 18 16  1  0
 19 28  2  0
 19 24  1  0
 20 16  1  0
 20 24  1  0
 21 20  1  0
 22 23  1  0
 22 21  1  0
 23 19  1  0
 24 25  2  0
 25 26  1  0
 27 26  2  0
 28 27  1  0
 29  3  1  0
 29 34  1  0
 29 30  1  0
 30 33  1  1
 30 31  1  0
 32 30  1  0
 34 37  1  0
 35 39  1  0
 35 34  1  0
 36 35  2  0
 39 38  1  0
 41 39  1  0
 41 42  1  0
 41 40  1  0
 43  1  2  0
 43 44  1  0
 45 47  1  0
 45 44  2  0
 47 46  1  0
 48 46  1  0
 49 54  1  0
 50 51  1  0
 50 49  1  0
 52 51  1  0
 52 59  1  0
 52 53  1  0
 54 48  1  0
 54 53  1  0
 55 48  2  0
 56 57  2  0
 57 76  1  0
 58 57  1  0
 58 61  1  0
 59 56  1  0
 59 60  1  0
 60 58  2  0
 61 62  1  0
 62 63  2  0
 64 67  1  0
 64 63  1  0
 65 64  2  0
 66 65  1  0
 66 61  2  0
 67 68  1  0
 68 69  1  0
 69 70  2  0
 71 70  1  0
 71 75  1  0
 72 71  2  0
 73 68  2  0
 73 72  1  0
 74 73  1  0
 76 77  1  0
 77 80  1  0
 77 79  1  0
 78 76  2  0
 81 82  1  0
 81 56  1  0
 83 81  1  0
M  ISO  4   1 101   2 101  46 100  48 100
M  END
>  <TORSDO>  (4) 
F 20

>  <SCORE>  (4) 
-15.327

>  <name>  (4) 
3

>  <ligand_id>  (4) 
3

>  <original_smiles>  (4) 
[H]C(C(=O)N1C([H])([H])C([H])([H])C([H])([H])C([H])(n2nc(-c3c([H])c([H])c(Oc4c([H])c([H])c(F)c([H])c4F)c([H])c3[H])c(C(=O)N([H])[H])c2N([H])[H])C1([H])[H])=C([H])C([H])([H])C([H])([H])C([H])([H])C([H])([H])Oc1c([H])c([H])c2c(c1[H])C([H])([H])N(C(=O)C([H])(N([H])C(=O)C([H])(N([H])C([H])([H])[H])C([H])([H])[H])C(C([H])([H])[H])(C([H])([H])[H])C([H])([H])[H])C([H])(C(=O)N([H])C1([H])c3c([H])c([H])c([H])c([H])c3C([H])([H])C([H])([H])C1([H])[H])C2([H])[H]

>  <smiles>  (4) 
[H]C(C(=O)N1C([H])([H])C([H])([H])C([H])([H])C([H])(n2nc(-c3c([H])c([H])c(Oc4c([H])c([H])c(F)c([H])c4F)c([H])c3[H])c(C(=O)N([H])[H])c2N([H])[H])C1([H])[H])=C([H])C([H])([H])C([H])([H])C([H])([H])C([H])([H])Oc1c([H])c([H])c2c(c1[H])C([H])([H])N(C(=O)C([H])(N([H])C(=O)C([H])(N([H])C([H])([H])[H])C([H])([H])[H])C(C([H])([H])[H])(C([H])([H])[H])C([H])([H])[H])C([H])(C(=O)N([H])C1([H])c3c([H])c([H])c([H])c([H])c3C([H])([H])C([H])([H])C1([H])[H])C2([H])[H]

$$$$
4:0:0
     RDKit          3D

 84 91  0  0  1  0  0  0  0  0999 V2000
  -28.9710  -22.8010   20.2220 C   0  0  0  0  0  3  0  0  0  0  0  0
  -28.6640  -19.8520   20.1350 C   0  0  0  0  0  0  0  0  0  0  0  0
  -27.3430  -19.1120   20.0310 C   0  0  0  0  0  1  0  0  0  0  0  0
  -28.4060  -21.2500   20.1420 N   0  0  0  0  0  0  0  0  0  0  0  0
  -29.8370  -18.5340   20.1800 C   0  0  0  0  0  3  0  0  0  0  0  0
  -29.5080  -16.7730   20.3550 C   0  0  0  0  0  3  0  0  0  0  0  0
  -30.4190  -15.2860   20.1980 C   0  0  0  0  0  0  0  0  0  0  0  0
  -30.4560  -12.8250   19.3710 C   0  0  0  0  0  2  0  0  0  0  0  0
  -29.5260  -12.6220   18.1460 C   0  0  0  0  0  2  0  0  0  0  0  0
  -28.0750  -12.3570   18.5870 C   0  0  0  0  0  2  0  0  0  0  0  0
  -27.6270  -13.3240   19.7090 C   0  0  0  0  0  3  0  0  0  0  0  0
  -28.6780  -13.4650   20.8280 C   0  0  0  0  0  2  0  0  0  0  0  0
  -29.9170  -13.9560   20.2080 N   0  0  0  0  0  0  0  0  0  0  0  0
  -31.6270  -15.3320   19.9250 O   0  0  0  0  0  0  0  0  0  0  0  0
  -25.2630  -13.8800   20.4920 C   0  0  0  0  0  0  0  0  0  0  0  0
  -24.2030  -13.0990   20.8630 C   0  0  0  0  0  0  0  0  0  0  0  0
  -24.6680  -11.7500   20.8160 C   0  0  0  0  0  0  0  0  0  0  0  0
  -26.3020  -13.0060   20.2270 N   0  0  0  0  0  0  0  0  0  0  0  0
  -25.9570  -11.7180   20.4900 N   0  0  0  0  0  0  0  0  0  0  0  0
  -23.9420  -10.4860   21.0010 C   0  0  0  0  0  0  0  0  0  0  0  0
  -24.3600   -9.5230   21.9450 C   0  0  0  0  0  3  0  0  0  0  0  0
  -23.6310   -8.3260   22.1190 C   0  0  0  0  0  3  0  0  0  0  0  0
  -22.4700   -8.0840   21.3480 C   0  0  0  0  0  0  0  0  0  0  0  0
  -22.0700   -9.0360   20.3930 C   0  0  0  0  0  3  0  0  0  0  0  0
  -22.8000  -10.2230   20.2170 C   0  0  0  0  0  3  0  0  0  0  0  0
  -21.7140   -6.9390   21.4300 O   0  0  0  0  0  0  0  0  0  0  0  0
  -21.6200   -6.2200   22.5950 C   0  0  0  0  0  0  0  0  0  0  0  0
  -21.1260   -6.7940   23.7860 C   0  0  0  0  0  3  0  0  0  0  0  0
  -20.9800   -6.0010   24.9420 C   0  0  0  0  0  3  0  0  0  0  0  0
  -21.3180   -4.6360   24.9070 C   0  0  0  0  0  0  0  0  0  0  0  0
  -21.8050   -4.0610   23.7200 C   0  0  0  0  0  3  0  0  0  0  0  0
  -21.9520   -4.8510   22.5660 C   0  0  0  0  0  0  0  0  0  0  0  0
  -22.4010   -4.2870   21.4190 F   0  0  0  0  0  0  0  0  0  0  0  0
  -21.1710   -3.8720   26.0150 F   0  0  0  0  0  0  0  0  0  0  0  0
  -22.8090  -13.5750   21.1490 C   0  0  0  0  0  0  0  0  0  0  0  0
  -22.0900  -12.8780   22.0220 N   0  0  0  0  0  0  0  0  0  0  0  0
  -22.3650  -14.6020   20.6340 O   0  0  0  0  0  0  0  0  0  0  0  0
  -22.4610  -12.0490   22.4600 H   0  0  0  0  0  0  0  0  0  0  0  0
  -21.1550  -13.1800   22.2580 H   0  0  0  0  0  0  0  0  0  0  0  0
  -25.4240  -15.2520   20.3290 N   0  0  0  0  0  0  0  0  0  0  0  0
  -24.6600  -15.9060   20.4620 H   0  0  0  0  0  0  0  0  0  0  0  0
  -26.2740  -15.6950   20.0040 H   0  0  0  0  0  0  0  0  0  0  0  0
  -27.9610  -24.2910   20.1380 C   0  0  0  0  0  3  0  0  0  0  0  0
  -28.2200  -25.9110   20.2680 O   0  0  0  0  0  0  0  0  0  0  0  0
  -24.6480  -31.8520   23.2400 C   0  0  0  0  0  0  0  0  0  0  0  0
  -27.2020  -26.9950   20.2160 C   0  0  0  0  0  0  0  0  0  0  0  0
  -23.4560  -30.4680   21.5900 C   0  0  0  0  0  3  0  0  0  0  0  0
  -24.9050  -28.8670   20.1680 C   0  0  0  0  0  0  0  0  0  0  0  0
  -26.0220  -30.6770   21.4540 C   0  0  0  0  0  2  0  0  0  0  0  0
  -26.0910  -29.2720   20.7920 C   0  0  0  0  0  0  0  0  0  0  0  0
  -27.2370  -28.3580   20.7890 C   0  0  0  0  0  3  0  0  0  0  0  0
  -25.9840  -26.7360   19.5500 C   0  0  0  0  0  3  0  0  0  0  0  0
  -24.8740  -27.6190   19.5280 C   0  0  0  0  0  3  0  0  0  0  0  0
  -23.6890  -29.7900   20.2120 C   0  0  0  0  0  2  0  0  0  0  0  0
  -24.7300  -31.0250   22.1480 N   0  0  0  0  0  0  0  0  0  0  0  0
  -23.5570  -32.1420   23.7570 O   0  0  0  0  0  0  0  0  0  0  0  0
  -22.7550  -29.4700   22.5480 C   0  0  0  0  0  0  0  0  0  0  0  0
  -21.4250  -29.3120   22.4180 N   0  0  0  0  0  0  0  0  0  0  0  0
  -23.4140  -28.8370   23.3770 O   0  0  0  0  0  0  0  0  0  0  0  0
  -20.9460  -29.8720   21.7280 H   0  0  0  0  0  0  0  0  0  0  0  0
  -18.0330  -28.1220   22.9150 C   0  0  0  0  0  0  0  0  0  0  0  0
  -20.5940  -28.3750   23.1820 C   0  0  0  0  0  3  0  0  0  0  0  0
  -20.6880  -26.9450   22.6000 C   0  0  0  0  0  2  0  0  0  0  0  0
  -19.5860  -26.6340   21.5820 C   0  0  0  0  0  2  0  0  0  0  0  0
  -18.2050  -26.7780   22.2260 C   0  0  0  0  0  2  0  0  0  0  0  0
  -19.1550  -28.8790   23.3480 C   0  0  0  0  0  0  0  0  0  0  0  0
  -18.9380  -30.1350   23.9560 C   0  0  0  0  0  3  0  0  0  0  0  0
  -17.6340  -30.6350   24.1290 C   0  0  0  0  0  3  0  0  0  0  0  0
  -16.5280  -29.8770   23.7100 C   0  0  0  0  0  3  0  0  0  0  0  0
  -16.7280  -28.6220   23.1080 C   0  0  0  0  0  3  0  0  0  0  0  0
  -25.9180  -32.4870   23.8810 C   0  0  0  0  0  3  0  0  0  0  0  0
  -26.4090  -31.7230   25.1730 C   0  0  1  0  0  0  0  0  0  0  0  0
  -25.2980  -31.5010   26.2260 C   0  0  0  0  0  1  0  0  0  0  0  0
  -26.9880  -30.3370   24.8080 C   0  0  0  0  0  1  0  0  0  0  0  0
  -27.5550  -32.5150   25.8460 C   0  0  0  0  0  1  0  0  0  0  0  0
  -25.6060  -33.8900   24.2110 N   0  0  0  0  0  0  0  0  0  0  0  0
  -25.9220  -34.9460   23.4500 C   0  0  0  0  0  0  0  0  0  0  0  0
  -26.5690  -34.8440   22.4060 O   0  0  0  0  0  0  0  0  0  0  0  0
  -25.0280  -34.0420   25.0240 H   0  0  0  0  0  0  0  0  0  0  0  0
  -24.1700  -36.7330   23.1650 C   0  0  0  0  0  1  0  0  0  0  0  0
  -25.4490  -36.3370   23.9220 C   0  0  0  0  0  3  0  0  0  0  0  0
  -27.6090  -37.2440   24.6590 C   0  0  0  0  0  1  0  0  0  0  0  0
  -26.4690  -37.3960   23.7590 N   0  0  0  0  0  0  0  0  0  0  0  0
  -26.0630  -38.3150   23.9150 H   0  0  0  0  0  0  0  0  0  0  0  0
  2  4  2  0
  2  5  1  0
  3  2  1  0
  4  1  1  0
  5  6  2  0
  7 13  1  0
  7  6  1  0
  8 13  1  0
  9 10  1  0
  9  8  1  0
 11 10  1  0
 11 18  1  0
 11 12  1  0
 13 12  1  0
 14  7  2  0
 15 16  2  0
 16 35  1  0
 17 16  1  0
 17 20  1  0
 18 19  1  0
 18 15  1  0
 19 17  2  0
 20 21  1  0
 21 22  2  0
 23 26  1  0
 23 22  1  0
 24 23  2  0
 25 24  1  0
 25 20  2  0
 26 27  1  0
 27 28  1  0
 28 29  2  0
 30 29  1  0
 30 34  1  0
 31 30  2  0
 32 27  2  0
 32 31  1  0
 33 32  1  0
 35 36  1  0
 36 39  1  0
 36 38  1  0
 37 35  2  0
 40 41  1  0
 40 15  1  0
 42 40  1  0
 43  1  2  0
 43 44  1  0
 45 56  2  0
 46 44  1  0
 46 51  1  0
 47 55  1  0
 47 57  1  0
 48 54  1  0
 48 50  1  0
 49 55  1  0
 50 49  1  0
 51 50  2  0
 52 46  2  0
 53 52  1  0
 53 48  2  0
 54 47  1  0
 55 45  1  0
 57 59  2  0
 58 57  1  0
 60 58  1  0
 61 70  2  0
 61 66  1  0
 62 58  1  0
 62 66  1  0
 63 62  1  0
 64 65  1  0
 64 63  1  0
 65 61  1  0
 66 67  2  0
 67 68  1  0
 69 68  2  0
 70 69  1  0
 71 45  1  0
 71 76  1  0
 71 72  1  0
 72 75  1  1
 72 73  1  0
 74 72  1  0
 76 79  1  0
 77 81  1  0
 77 76  1  0
 78 77  2  0
 81 80  1  0
 83 84  1  0
 83 81  1  0
 83 82  1  0
M  ISO  4   6 100   7 100  43 101  44 101
M  END
>  <TORSDO>  (5) 
F 20

>  <SCORE>  (5) 
-15.521

>  <name>  (5) 
4

>  <ligand_id>  (5) 
4

>  <original_smiles>  (5) 
[H]c1c([H])c([H])c2c(c1[H])C([H])([H])C([H])([H])C([H])([H])C2([H])N([H])C(=O)C1([H])N(C(=O)C([H])(N([H])C(=O)C([H])(N([H])C([H])([H])[H])C([H])([H])[H])C(C([H])([H])[H])(C([H])([H])[H])C([H])([H])[H])C([H])([H])c2c([H])c(OC([H])([H])C([H])([H])N=C(C([H])([H])[H])C([H])([H])C([H])([H])C(=O)N3C([H])([H])C([H])([H])C([H])([H])C([H])(n4nc(-c5c([H])c([H])c(Oc6c([H])c([H])c(F)c([H])c6F)c([H])c5[H])c(C(=O)N([H])[H])c4N([H])[H])C3([H])[H])c([H])c([H])c2C1([H])[H]

>  <smiles>  (5) 
[H]c1c([H])c([H])c2c(c1[H])C([H])([H])C([H])([H])C([H])([H])C2([H])N([H])C(=O)C1([H])N(C(=O)C([H])(N([H])C(=O)C([H])(N([H])C([H])([H])[H])C([H])([H])[H])C(C([H])([H])[H])(C([H])([H])[H])C([H])([H])[H])C([H])([H])c2c([H])c(OC([H])([H])C([H])([H])N=C(C([H])([H])[H])C([H])([H])C([H])([H])C(=O)N3C([H])([H])C([H])([H])C([H])([H])C([H])(n4nc(-c5c([H])c([H])c(Oc6c([H])c([H])c(F)c([H])c6F)c([H])c5[H])c(C(=O)N([H])[H])c4N([H])[H])C3([H])[H])c([H])c([H])c2C1([H])[H]

$$$$
5:0:0
     RDKit          3D

 91 98  0  0  1  0  0  0  0  0999 V2000
  -26.7920  -22.3630   19.9340 C   0  0  0  0  0  1  0  0  0  0  0  0
  -28.3010  -22.7390   19.8830 C   0  0  1  0  0  0  0  0  0  0  0  0
  -29.1140  -21.3290   20.3500 N   0  0  0  0  0  4  0  0  0  0  0  0
  -30.0900  -21.5380   20.2100 H   0  0  0  0  0  0  0  0  0  0  0  0
  -29.0060  -21.2740   21.3550 H   0  0  0  0  0  0  0  0  0  0  0  0
  -28.7420  -19.6830   18.3500 C   0  0  0  0  0  1  0  0  0  0  0  0
  -28.9440  -19.7210   19.8670 C   0  0  0  0  0  3  0  0  0  0  0  0
  -30.4670  -18.4420   21.6610 C   0  0  0  0  0  1  0  0  0  0  0  0
  -30.0060  -18.2970   20.2020 C   0  0  0  0  0  3  0  0  0  0  0  0
  -30.5720  -15.3920   19.8270 C   0  0  0  0  0  0  0  0  0  0  0  0
  -30.5250  -12.9420   18.9350 C   0  0  0  0  0  2  0  0  0  0  0  0
  -29.5290  -12.7100   17.7720 C   0  0  0  0  0  2  0  0  0  0  0  0
  -28.1130  -12.4490   18.3090 C   0  0  0  0  0  2  0  0  0  0  0  0
  -27.7320  -13.4200   19.4500 C   0  0  0  0  0  3  0  0  0  0  0  0
  -28.8460  -13.5670   20.5050 C   0  0  0  0  0  2  0  0  0  0  0  0
  -30.0220  -14.0820   19.7880 N   0  0  0  0  0  0  0  0  0  0  0  0
  -31.7830  -15.4030   19.5550 O   0  0  0  0  0  0  0  0  0  0  0  0
  -29.7840  -16.6460   19.9730 N   0  0  0  0  0  0  0  0  0  0  0  0
  -28.8030  -16.4160   20.0420 H   0  0  0  0  0  0  0  0  0  0  0  0
  -25.4380  -13.9980   20.3990 C   0  0  0  0  0  0  0  0  0  0  0  0
  -24.3930  -13.2210   20.8180 C   0  0  0  0  0  0  0  0  0  0  0  0
  -24.8320  -11.8680   20.7060 C   0  0  0  0  0  0  0  0  0  0  0  0
  -26.4400  -13.1130   20.0430 N   0  0  0  0  0  0  0  0  0  0  0  0
  -26.0940  -11.8230   20.2970 N   0  0  0  0  0  0  0  0  0  0  0  0
  -24.0990  -10.6100   20.8980 C   0  0  0  0  0  0  0  0  0  0  0  0
  -24.5230   -9.6390   21.8310 C   0  0  0  0  0  3  0  0  0  0  0  0
  -23.7810   -8.4510   22.0140 C   0  0  0  0  0  3  0  0  0  0  0  0
  -22.6010   -8.2280   21.2630 C   0  0  0  0  0  0  0  0  0  0  0  0
  -22.1980   -9.1890   20.3190 C   0  0  0  0  0  3  0  0  0  0  0  0
  -22.9410  -10.3680   20.1340 C   0  0  0  0  0  3  0  0  0  0  0  0
  -21.8330   -7.0920   21.3530 O   0  0  0  0  0  0  0  0  0  0  0  0
  -21.7180   -6.3960   22.5310 C   0  0  0  0  0  0  0  0  0  0  0  0
  -21.1820   -6.9860   23.6960 C   0  0  0  0  0  3  0  0  0  0  0  0
  -21.0120   -6.2130   24.8630 C   0  0  0  0  0  3  0  0  0  0  0  0
  -21.3750   -4.8520   24.8660 C   0  0  0  0  0  0  0  0  0  0  0  0
  -21.9120   -4.2640   23.7060 C   0  0  0  0  0  3  0  0  0  0  0  0
  -22.0790   -5.0330   22.5420 C   0  0  0  0  0  0  0  0  0  0  0  0
  -22.5720   -4.4550   21.4190 F   0  0  0  0  0  0  0  0  0  0  0  0
  -21.2120   -4.1070   25.9840 F   0  0  0  0  0  0  0  0  0  0  0  0
  -23.0280  -13.7110   21.1980 C   0  0  0  0  0  0  0  0  0  0  0  0
  -22.3430  -13.0030   22.0900 N   0  0  0  0  0  0  0  0  0  0  0  0
  -22.5780  -14.7630   20.7440 O   0  0  0  0  0  0  0  0  0  0  0  0
  -22.7170  -12.1510   22.4830 H   0  0  0  0  0  0  0  0  0  0  0  0
  -21.4310  -13.3230   22.3840 H   0  0  0  0  0  0  0  0  0  0  0  0
  -25.6000  -15.3730   20.2570 N   0  0  0  0  0  0  0  0  0  0  0  0
  -24.8460  -16.0160   20.4710 H   0  0  0  0  0  0  0  0  0  0  0  0
  -26.3760  -15.8270   19.7910 H   0  0  0  0  0  0  0  0  0  0  0  0
  -27.6690  -23.3820   17.3610 C   0  0  0  0  0  1  0  0  0  0  0  0
  -28.7600  -23.0890   18.4230 C   0  0  0  0  0  2  0  0  0  0  0  0
  -28.2980  -24.3450   20.7230 C   0  0  0  0  0  2  0  0  0  0  0  0
  -28.3280  -25.9550   20.3370 O   0  0  0  0  0  0  0  0  0  0  0  0
  -24.6040  -31.8820   23.2340 C   0  0  0  0  0  0  0  0  0  0  0  0
  -27.2770  -27.0050   20.3440 C   0  0  0  0  0  0  0  0  0  0  0  0
  -23.4680  -30.4530   21.5880 C   0  0  0  0  0  3  0  0  0  0  0  0
  -24.9640  -28.8520   20.2200 C   0  0  0  0  0  0  0  0  0  0  0  0
  -26.0330  -30.6980   21.4860 C   0  0  0  0  0  2  0  0  0  0  0  0
  -26.1320  -29.2780   20.8650 C   0  0  0  0  0  0  0  0  0  0  0  0
  -27.2900  -28.3800   20.8920 C   0  0  0  0  0  3  0  0  0  0  0  0
  -26.0800  -26.7250   19.6520 C   0  0  0  0  0  3  0  0  0  0  0  0
  -24.9630  -27.5970   19.5900 C   0  0  0  0  0  3  0  0  0  0  0  0
  -23.7370  -29.7580   20.2250 C   0  0  0  0  0  2  0  0  0  0  0  0
  -24.7240  -31.0440   22.1540 N   0  0  0  0  0  0  0  0  0  0  0  0
  -23.4980  -32.1620   23.7240 O   0  0  0  0  0  0  0  0  0  0  0  0
  -22.7670  -29.4570   22.5450 C   0  0  0  0  0  0  0  0  0  0  0  0
  -21.4390  -29.2920   22.4070 N   0  0  0  0  0  0  0  0  0  0  0  0
  -23.4260  -28.8290   23.3780 O   0  0  0  0  0  0  0  0  0  0  0  0
  -20.9610  -29.8500   21.7140 H   0  0  0  0  0  0  0  0  0  0  0  0
  -18.0450  -28.1030   22.9040 C   0  0  0  0  0  0  0  0  0  0  0  0
  -20.6100  -28.3520   23.1660 C   0  0  0  0  0  3  0  0  0  0  0  0
  -20.7020  -26.9260   22.5760 C   0  0  0  0  0  2  0  0  0  0  0  0
  -19.5960  -26.6170   21.5620 C   0  0  0  0  0  2  0  0  0  0  0  0
  -18.2150  -26.7620   22.2090 C   0  0  0  0  0  2  0  0  0  0  0  0
  -19.1700  -28.8570   23.3370 C   0  0  0  0  0  0  0  0  0  0  0  0
  -18.9560  -30.1110   23.9510 C   0  0  0  0  0  3  0  0  0  0  0  0
  -17.6550  -30.6130   24.1300 C   0  0  0  0  0  3  0  0  0  0  0  0
  -16.5450  -29.8590   23.7090 C   0  0  0  0  0  3  0  0  0  0  0  0
  -16.7410  -28.6050   23.1040 C   0  0  0  0  0  3  0  0  0  0  0  0
  -25.8510  -32.5500   23.8940 C   0  0  0  0  0  3  0  0  0  0  0  0
  -25.5140  -33.9510   24.1960 N   0  0  0  0  0  0  0  0  0  0  0  0
  -25.8530  -35.0020   23.4330 C   0  0  0  0  0  0  0  0  0  0  0  0
  -26.5460  -34.8920   22.4190 O   0  0  0  0  0  0  0  0  0  0  0  0
  -24.9020  -34.1090   24.9840 H   0  0  0  0  0  0  0  0  0  0  0  0
  -24.1180  -36.7820   23.0230 C   0  0  0  0  0  1  0  0  0  0  0  0
  -25.3470  -36.3940   23.8630 C   0  0  0  0  0  3  0  0  0  0  0  0
  -27.4510  -37.3140   24.7370 C   0  0  0  0  0  1  0  0  0  0  0  0
  -26.3750  -37.4540   23.7580 N   0  0  0  0  0  0  0  0  0  0  0  0
  -25.9590  -38.3720   23.8770 H   0  0  0  0  0  0  0  0  0  0  0  0
  -26.3250  -31.8110   25.2070 C   0  0  1  0  0  0  0  0  0  0  0  0
  -25.1900  -31.5830   26.2350 C   0  0  0  0  0  1  0  0  0  0  0  0
  -26.9370  -30.4340   24.8690 C   0  0  0  0  0  1  0  0  0  0  0  0
  -27.4460  -32.6300   25.8900 C   0  0  0  0  0  1  0  0  0  0  0  0
  2  1  1  6
  2  3  1  0
  2 50  1  0
  3  5  1  0
  4  3  1  0
  7  6  1  0
  7  9  1  0
  7  3  1  0
  9  8  1  0
 10 18  1  0
 11 16  1  0
 12 13  1  0
 12 11  1  0
 14 13  1  0
 14 23  1  0
 14 15  1  0
 16 10  1  0
 16 15  1  0
 17 10  2  0
 18 19  1  0
 18  9  1  0
 20 21  2  0
 21 40  1  0
 22 21  1  0
 22 25  1  0
 23 24  1  0
 23 20  1  0
 24 22  2  0
 25 26  1  0
 26 27  2  0
 28 31  1  0
 28 27  1  0
 29 28  2  0
 30 29  1  0
 30 25  2  0
 31 32  1  0
 32 37  2  0
 32 33  1  0
 33 34  2  0
 34 35  1  0
 35 39  1  0
 36 35  2  0
 37 36  1  0
 38 37  1  0
 40 41  1  0
 41 44  1  0
 41 43  1  0
 42 40  2  0
 45 20  1  0
 45 46  1  0
 47 45  1  0
 48 49  1  0
 49  2  1  0
 51 53  1  0
 51 50  1  0
 52 63  2  0
 53 58  1  0
 54 62  1  0
 54 64  1  0
 55 61  1  0
 55 57  1  0
 56 62  1  0
 57 58  2  0
 57 56  1  0
 59 53  2  0
 60 59  1  0
 60 55  2  0
 61 54  1  0
 62 52  1  0
 64 66  2  0
 65 64  1  0
 67 65  1  0
 68 77  2  0
 68 73  1  0
 69 65  1  0
 69 73  1  0
 70 69  1  0
 71 72  1  0
 71 70  1  0
 72 68  1  0
 73 74  2  0
 74 75  1  0
 76 75  2  0
 77 76  1  0
 78 52  1  0
 78 79  1  0
 78 88  1  0
 79 82  1  0
 80 84  1  0
 80 79  1  0
 81 80  2  0
 84 83  1  0
 86 84  1  0
 86 87  1  0
 86 85  1  0
 88 91  1  1
 88 89  1  0
 90 88  1  0
M  ISO  4  10 100  18 100  50 101  51 101
M  END
>  <TORSDO>  (6) 
F 21

>  <SCORE>  (6) 
-15.554

>  <name>  (6) 
5

>  <ligand_id>  (6) 
5

>  <original_smiles>  (6) 
[H]c1c([H])c([H])c2c(c1[H])C([H])([H])C([H])([H])C([H])([H])C2([H])N([H])C(=O)C1([H])N(C(=O)C([H])(N([H])C(=O)C([H])(N([H])C([H])([H])[H])C([H])([H])[H])C(C([H])([H])[H])(C([H])([H])[H])C([H])([H])[H])C([H])([H])c2c([H])c(OC([H])([H])C(C([H])([H])[H])(C([H])([H])C([H])([H])[H])[N+]([H])([H])C([H])(C([H])([H])[H])C([H])(N([H])C(=O)N3C([H])([H])C([H])([H])C([H])([H])C([H])(n4nc(-c5c([H])c([H])c(Oc6c([H])c([H])c(F)c([H])c6F)c([H])c5[H])c(C(=O)N([H])[H])c4N([H])[H])C3([H])[H])C([H])([H])[H])c([H])c([H])c2C1([H])[H]

>  <smiles>  (6) 
[H]c1c([H])c([H])c2c(c1[H])C([H])([H])C([H])([H])C([H])([H])C2([H])N([H])C(=O)C1([H])N(C(=O)C([H])(N([H])C(=O)C([H])(N([H])C([H])([H])[H])C([H])([H])[H])C(C([H])([H])[H])(C([H])([H])[H])C([H])([H])[H])C([H])([H])c2c([H])c(OC([H])([H])C(C([H])([H])[H])(C([H])([H])C([H])([H])[H])[N+]([H])([H])C([H])(C([H])([H])[H])C([H])(N([H])C(=O)N3C([H])([H])C([H])([H])C([H])([H])C([H])(n4nc(-c5c([H])c([H])c(Oc6c([H])c([H])c(F)c([H])c6F)c([H])c5[H])c(C(=O)N([H])[H])c4N([H])[H])C3([H])[H])C([H])([H])[H])c([H])c([H])c2C1([H])[H]

$$$$
6:0:0
     RDKit          3D

 84 91  0  0  1  0  0  0  0  0999 V2000
  -28.7590  -22.7240   20.4890 C   0  0  0  0  0  2  0  0  0  0  0  0
  -29.2470  -21.1300   19.8930 C   0  0  0  0  0  3  0  0  0  0  0  0
  -29.0870  -19.7110   20.3000 C   0  0  0  0  0  0  0  0  0  0  0  0
  -28.1290  -19.5680   21.4660 C   0  0  0  0  0  1  0  0  0  0  0  0
  -29.7710  -18.2700   19.8390 C   0  0  0  0  0  3  0  0  0  0  0  0
  -29.5880  -16.8250   20.1410 C   0  0  0  0  0  3  0  0  0  0  0  0
  -30.3790  -15.4300   19.8010 C   0  0  0  0  0  0  0  0  0  0  0  0
  -30.3420  -12.9500   18.9940 C   0  0  0  0  0  2  0  0  0  0  0  0
  -29.3580  -12.7220   17.8170 C   0  0  0  0  0  2  0  0  0  0  0  0
  -27.9400  -12.4360   18.3410 C   0  0  0  0  0  2  0  0  0  0  0  0
  -27.5450  -13.4050   19.4810 C   0  0  0  0  0  3  0  0  0  0  0  0
  -28.6530  -13.5860   20.5400 C   0  0  0  0  0  2  0  0  0  0  0  0
  -29.8460  -14.1010   19.8460 N   0  0  0  0  0  0  0  0  0  0  0  0
  -31.5570  -15.4160   19.4120 O   0  0  0  0  0  0  0  0  0  0  0  0
  -25.2430  -13.9440   20.4280 C   0  0  0  0  0  0  0  0  0  0  0  0
  -24.2050  -13.1600   20.8480 C   0  0  0  0  0  0  0  0  0  0  0  0
  -24.6590  -11.8080   20.7380 C   0  0  0  0  0  0  0  0  0  0  0  0
  -26.2580  -13.0730   20.0760 N   0  0  0  0  0  0  0  0  0  0  0  0
  -25.9240  -11.7800   20.3310 N   0  0  0  0  0  0  0  0  0  0  0  0
  -23.9380  -10.5440   20.9410 C   0  0  0  0  0  0  0  0  0  0  0  0
  -24.3930   -9.5690   21.8560 C   0  0  0  0  0  3  0  0  0  0  0  0
  -23.6690   -8.3730   22.0480 C   0  0  0  0  0  3  0  0  0  0  0  0
  -22.4750   -8.1420   21.3250 C   0  0  0  0  0  0  0  0  0  0  0  0
  -22.0380   -9.1050   20.3970 C   0  0  0  0  0  3  0  0  0  0  0  0
  -22.7640  -10.2930   20.2040 C   0  0  0  0  0  3  0  0  0  0  0  0
  -21.7200   -6.9990   21.4260 O   0  0  0  0  0  0  0  0  0  0  0  0
  -21.6530   -6.2810   22.5940 C   0  0  0  0  0  0  0  0  0  0  0  0
  -21.1930   -6.8590   23.7970 C   0  0  0  0  0  3  0  0  0  0  0  0
  -21.0740   -6.0670   24.9570 C   0  0  0  0  0  3  0  0  0  0  0  0
  -21.4050   -4.7010   24.9150 C   0  0  0  0  0  0  0  0  0  0  0  0
  -21.8600   -4.1230   23.7160 C   0  0  0  0  0  3  0  0  0  0  0  0
  -21.9790   -4.9110   22.5590 C   0  0  0  0  0  0  0  0  0  0  0  0
  -22.3970   -4.3440   21.4010 F   0  0  0  0  0  0  0  0  0  0  0  0
  -21.2850   -3.9380   26.0270 F   0  0  0  0  0  0  0  0  0  0  0  0
  -22.8360  -13.6340   21.2330 C   0  0  0  0  0  0  0  0  0  0  0  0
  -22.1690  -12.9200   22.1330 N   0  0  0  0  0  0  0  0  0  0  0  0
  -22.3680  -14.6750   20.7710 O   0  0  0  0  0  0  0  0  0  0  0  0
  -22.5630  -12.0780   22.5280 H   0  0  0  0  0  0  0  0  0  0  0  0
  -21.2520  -13.2200   22.4330 H   0  0  0  0  0  0  0  0  0  0  0  0
  -25.4020  -15.3200   20.2870 N   0  0  0  0  0  0  0  0  0  0  0  0
  -24.6530  -15.9740   20.4840 H   0  0  0  0  0  0  0  0  0  0  0  0
  -26.2310  -15.7670   19.9160 H   0  0  0  0  0  0  0  0  0  0  0  0
  -28.2350  -24.3240   19.7910 C   0  0  0  0  0  2  0  0  0  0  0  0
  -28.2420  -25.9190   20.2840 O   0  0  0  0  0  0  0  0  0  0  0  0
  -24.6630  -31.8910   23.2300 C   0  0  0  0  0  0  0  0  0  0  0  0
  -27.2250  -27.0180   20.1790 C   0  0  0  0  0  0  0  0  0  0  0  0
  -23.4660  -30.4920   21.5960 C   0  0  0  0  0  3  0  0  0  0  0  0
  -24.9150  -28.9000   20.1520 C   0  0  0  0  0  0  0  0  0  0  0  0
  -26.0300  -30.7130   21.4340 C   0  0  0  0  0  2  0  0  0  0  0  0
  -26.1020  -29.3040   20.7710 C   0  0  0  0  0  0  0  0  0  0  0  0
  -27.2470  -28.3830   20.7630 C   0  0  0  0  0  3  0  0  0  0  0  0
  -26.0090  -26.7750   19.5000 C   0  0  0  0  0  3  0  0  0  0  0  0
  -24.8940  -27.6580   19.4950 C   0  0  0  0  0  3  0  0  0  0  0  0
  -23.6900  -29.8140   20.2150 C   0  0  0  0  0  2  0  0  0  0  0  0
  -24.7410  -31.0600   22.1400 N   0  0  0  0  0  0  0  0  0  0  0  0
  -23.5760  -32.1730   23.7600 O   0  0  0  0  0  0  0  0  0  0  0  0
  -22.7830  -29.4920   22.5650 C   0  0  0  0  0  0  0  0  0  0  0  0
  -21.4550  -29.3120   22.4420 N   0  0  0  0  0  0  0  0  0  0  0  0
  -23.4570  -28.8770   23.3960 O   0  0  0  0  0  0  0  0  0  0  0  0
  -20.9640  -29.8590   21.7500 H   0  0  0  0  0  0  0  0  0  0  0  0
  -18.0920  -28.0450   22.9450 C   0  0  0  0  0  0  0  0  0  0  0  0
  -20.6460  -28.3640   23.2160 C   0  0  0  0  0  3  0  0  0  0  0  0
  -20.7770  -26.9300   22.6520 C   0  0  0  0  0  2  0  0  0  0  0  0
  -19.6850  -26.5790   21.6350 C   0  0  0  0  0  2  0  0  0  0  0  0
  -18.2980  -26.6980   22.2740 C   0  0  0  0  0  2  0  0  0  0  0  0
  -19.1940  -28.8340   23.3740 C   0  0  0  0  0  0  0  0  0  0  0  0
  -18.9440  -30.0910   23.9650 C   0  0  0  0  0  3  0  0  0  0  0  0
  -17.6270  -30.5620   24.1300 C   0  0  0  0  0  3  0  0  0  0  0  0
  -16.5410  -29.7720   23.7150 C   0  0  0  0  0  3  0  0  0  0  0  0
  -16.7740  -28.5150   23.1290 C   0  0  0  0  0  3  0  0  0  0  0  0
  -25.9340  -32.5410   23.8570 C   0  0  0  0  0  3  0  0  0  0  0  0
  -26.4350  -31.7940   25.1550 C   0  0  1  0  0  0  0  0  0  0  0  0
  -25.3310  -31.5800   26.2180 C   0  0  0  0  0  1  0  0  0  0  0  0
  -27.0210  -30.4070   24.8060 C   0  0  0  0  0  1  0  0  0  0  0  0
  -27.5800  -32.5990   25.8130 C   0  0  0  0  0  1  0  0  0  0  0  0
  -25.6180  -33.9450   24.1740 N   0  0  0  0  0  0  0  0  0  0  0  0
  -25.9340  -34.9970   23.4070 C   0  0  0  0  0  0  0  0  0  0  0  0
  -26.5850  -34.8880   22.3650 O   0  0  0  0  0  0  0  0  0  0  0  0
  -25.0350  -34.1040   24.9830 H   0  0  0  0  0  0  0  0  0  0  0  0
  -24.1880  -36.7860   23.0910 C   0  0  0  0  0  1  0  0  0  0  0  0
  -25.4560  -36.3910   23.8660 C   0  0  0  0  0  3  0  0  0  0  0  0
  -27.6080  -37.3030   24.6230 C   0  0  0  0  0  1  0  0  0  0  0  0
  -26.4800  -37.4490   23.7070 N   0  0  0  0  0  0  0  0  0  0  0  0
  -26.0720  -38.3680   23.8490 H   0  0  0  0  0  0  0  0  0  0  0  0
  2  3  2  0
  2  1  1  0
  3  4  1  0
  5  6  2  0
  5  3  1  0
  7 13  1  0
  7  6  1  0
  8 13  1  0
  9 10  1  0
  9  8  1  0
 11 10  1  0
 11 18  1  0
 11 12  1  0
 13 12  1  0
 14  7  2  0
 15 16  2  0
 16 35  1  0
 17 16  1  0
 17 20  1  0
 18 19  1  0
 18 15  1  0
 19 17  2  0
 20 21  1  0
 21 22  2  0
 23 26  1  0
 23 22  1  0
 24 23  2  0
 25 24  1  0
 25 20  2  0
 26 27  1  0
 27 28  1  0
 28 29  2  0
 30 29  1  0
 30 34  1  0
 31 30  2  0
 32 27  2  0
 32 31  1  0
 33 32  1  0
 35 36  1  0
 36 39  1  0
 36 38  1  0
 37 35  2  0
 40 15  1  0
 40 41  1  0
 42 40  1  0
 43 44  1  0
 43  1  1  0
 45 56  2  0
 46 44  1  0
 46 51  1  0
 47 55  1  0
 47 57  1  0
 48 54  1  0
 48 50  1  0
 49 55  1  0
 50 49  1  0
 51 50  2  0
 52 46  2  0
 53 52  1  0
 53 48  2  0
 54 47  1  0
 55 45  1  0
 57 59  2  0
 58 57  1  0
 60 58  1  0
 61 70  2  0
 61 66  1  0
 62 58  1  0
 62 66  1  0
 63 62  1  0
 64 65  1  0
 64 63  1  0
 65 61  1  0
 66 67  2  0
 67 68  1  0
 69 68  2  0
 70 69  1  0
 71 45  1  0
 71 76  1  0
 71 72  1  0
 72 75  1  1
 72 73  1  0
 74 72  1  0
 76 79  1  0
 77 81  1  0
 77 76  1  0
 78 77  2  0
 81 80  1  0
 83 84  1  0
 83 81  1  0
 83 82  1  0
M  ISO  4   6 100   7 100  43 101  44 101
M  END
>  <TORSDO>  (7) 
F 19

>  <SCORE>  (7) 
-13.754

>  <name>  (7) 
6

>  <ligand_id>  (7) 
6

>  <original_smiles>  (7) 
[H]C(C(=O)N1C([H])([H])C([H])([H])C([H])([H])C([H])(n2nc(-c3c([H])c([H])c(Oc4c([H])c([H])c(F)c([H])c4F)c([H])c3[H])c(C(=O)N([H])[H])c2N([H])[H])C1([H])[H])=C([H])C(=C([H])C([H])([H])C([H])([H])Oc1c([H])c([H])c2c(c1[H])C([H])([H])N(C(=O)C([H])(N([H])C(=O)C([H])(N([H])C([H])([H])[H])C([H])([H])[H])C(C([H])([H])[H])(C([H])([H])[H])C([H])([H])[H])C([H])(C(=O)N([H])C1([H])c3c([H])c([H])c([H])c([H])c3C([H])([H])C([H])([H])C1([H])[H])C2([H])[H])C([H])([H])[H]

>  <smiles>  (7) 
[H]C(C(=O)N1C([H])([H])C([H])([H])C([H])([H])C([H])(n2nc(-c3c([H])c([H])c(Oc4c([H])c([H])c(F)c([H])c4F)c([H])c3[H])c(C(=O)N([H])[H])c2N([H])[H])C1([H])[H])=C([H])C(=C([H])C([H])([H])C([H])([H])Oc1c([H])c([H])c2c(c1[H])C([H])([H])N(C(=O)C([H])(N([H])C(=O)C([H])(N([H])C([H])([H])[H])C([H])([H])[H])C(C([H])([H])[H])(C([H])([H])[H])C([H])([H])[H])C([H])(C(=O)N([H])C1([H])c3c([H])c([H])c([H])c([H])c3C([H])([H])C([H])([H])C1([H])[H])C2([H])[H])C([H])([H])[H]

$$$$
7:0:0
     RDKit          3D

 92100  0  0  1  0  0  0  0  0999 V2000
  -30.0970  -20.9430   19.7510 C   0  0  0  0  0  0  0  0  0  0  0  0
  -29.8580  -22.2590   19.9890 N   0  0  0  0  0  0  0  0  0  0  0  0
  -30.8540  -20.5670   18.8550 O   0  0  0  0  0  0  0  0  0  0  0  0
  -29.2390  -22.4560   20.7640 H   0  0  0  0  0  0  0  0  0  0  0  0
  -30.2290  -17.4690   20.4760 C   0  0  0  0  0  0  0  0  0  0  0  0
  -27.2810  -19.5510   19.5700 C   0  0  0  0  0  2  0  0  0  0  0  0
  -27.8860  -20.2340   20.7830 C   0  0  0  0  0  2  0  0  0  0  0  0
  -28.0470  -18.2340   19.5350 C   0  0  0  0  0  2  0  0  0  0  0  0
  -29.3910  -19.8960   20.6740 C   0  0  0  0  0  3  0  0  0  0  0  0
  -29.3490  -18.4800   20.1850 N   0  0  0  0  0  0  0  0  0  0  0  0
  -31.3230  -17.6980   21.0010 O   0  0  0  0  0  0  0  0  0  0  0  0
  -29.7090  -16.0040   20.2520 C   0  0  0  0  0  2  0  0  0  0  0  0
  -30.7080  -14.8230   19.9810 C   0  0  0  0  0  0  0  0  0  0  0  0
  -30.6350  -12.4730   19.1780 C   0  0  0  0  0  2  0  0  0  0  0  0
  -29.6530  -12.4270   17.9830 C   0  0  0  0  0  2  0  0  0  0  0  0
  -28.1970  -12.2300   18.4570 C   0  0  0  0  0  2  0  0  0  0  0  0
  -27.8090  -13.2070   19.5960 C   0  0  0  0  0  3  0  0  0  0  0  0
  -28.9020  -13.2160   20.6910 C   0  0  0  0  0  2  0  0  0  0  0  0
  -30.1930  -13.5590   20.0680 N   0  0  0  0  0  0  0  0  0  0  0  0
  -31.8430  -15.0170   19.5280 O   0  0  0  0  0  0  0  0  0  0  0  0
  -25.4650  -13.8100   20.4720 C   0  0  0  0  0  0  0  0  0  0  0  0
  -24.4140  -13.0330   20.8790 C   0  0  0  0  0  0  0  0  0  0  0  0
  -24.8640  -11.6820   20.7770 C   0  0  0  0  0  0  0  0  0  0  0  0
  -26.4870  -12.9290   20.1480 N   0  0  0  0  0  0  0  0  0  0  0  0
  -26.1330  -11.6420   20.3910 N   0  0  0  0  0  0  0  0  0  0  0  0
  -24.1410  -10.4190   20.9660 C   0  0  0  0  0  0  0  0  0  0  0  0
  -24.5610   -9.4680   21.9220 C   0  0  0  0  0  3  0  0  0  0  0  0
  -23.8420   -8.2660   22.0960 C   0  0  0  0  0  3  0  0  0  0  0  0
  -22.6900   -8.0080   21.3170 C   0  0  0  0  0  0  0  0  0  0  0  0
  -22.2900   -8.9480   20.3510 C   0  0  0  0  0  3  0  0  0  0  0  0
  -23.0090  -10.1420   20.1740 C   0  0  0  0  0  3  0  0  0  0  0  0
  -21.9430   -6.8580   21.4010 O   0  0  0  0  0  0  0  0  0  0  0  0
  -21.7820   -6.1900   22.5880 C   0  0  0  0  0  0  0  0  0  0  0  0
  -21.1620   -6.7920   23.7050 C   0  0  0  0  0  3  0  0  0  0  0  0
  -20.9560   -6.0450   24.8820 C   0  0  0  0  0  3  0  0  0  0  0  0
  -21.3570   -4.6970   24.9410 C   0  0  0  0  0  0  0  0  0  0  0  0
  -21.9700   -4.0940   23.8280 C   0  0  0  0  0  3  0  0  0  0  0  0
  -22.1780   -4.8380   22.6530 C   0  0  0  0  0  0  0  0  0  0  0  0
  -22.7500   -4.2470   21.5760 F   0  0  0  0  0  0  0  0  0  0  0  0
  -21.1520   -3.9760   26.0680 F   0  0  0  0  0  0  0  0  0  0  0  0
  -23.0370  -13.5080   21.2410 C   0  0  0  0  0  0  0  0  0  0  0  0
  -22.3590  -12.8050   22.1410 N   0  0  0  0  0  0  0  0  0  0  0  0
  -22.5690  -14.5390   20.7590 O   0  0  0  0  0  0  0  0  0  0  0  0
  -22.7480  -11.9740   22.5600 H   0  0  0  0  0  0  0  0  0  0  0  0
  -21.4330  -13.1030   22.4150 H   0  0  0  0  0  0  0  0  0  0  0  0
  -25.6230  -15.1860   20.3310 N   0  0  0  0  0  0  0  0  0  0  0  0
  -24.8560  -15.8250   20.5040 H   0  0  0  0  0  0  0  0  0  0  0  0
  -26.4280  -15.6320   19.9120 H   0  0  0  0  0  0  0  0  0  0  0  0
  -30.4120  -23.4390   19.2910 C   0  0  0  0  0  2  0  0  0  0  0  0
  -29.3890  -24.5810   18.9570 C   0  0  0  0  0  2  0  0  0  0  0  0
  -28.9200  -25.5150   20.1150 C   0  0  0  0  0  2  0  0  0  0  0  0
  -28.9080  -26.9300   19.7960 O   0  0  0  0  0  0  0  0  0  0  0  0
  -24.7090  -31.7080   23.0540 C   0  0  0  0  0  0  0  0  0  0  0  0
  -27.6920  -27.5920   19.8090 C   0  0  0  0  0  0  0  0  0  0  0  0
  -23.6280  -30.3330   21.3030 C   0  0  0  0  0  3  0  0  0  0  0  0
  -25.2050  -28.9620   19.8370 C   0  0  0  0  0  0  0  0  0  0  0  0
  -26.1330  -30.8490   21.1910 C   0  0  0  0  0  2  0  0  0  0  0  0
  -26.3180  -29.5220   20.4750 C   0  0  0  0  0  0  0  0  0  0  0  0
  -27.5640  -28.8520   20.4500 C   0  0  0  0  0  3  0  0  0  0  0  0
  -26.5600  -27.0450   19.1690 C   0  0  0  0  0  3  0  0  0  0  0  0
  -25.3220  -27.7230   19.1790 C   0  0  0  0  0  3  0  0  0  0  0  0
  -23.9100  -29.7420   19.8960 C   0  0  0  0  0  2  0  0  0  0  0  0
  -24.8390  -30.9760   21.9090 N   0  0  0  0  0  0  0  0  0  0  0  0
  -23.6030  -31.8840   23.5810 O   0  0  0  0  0  0  0  0  0  0  0  0
  -23.0170  -29.2250   22.1910 C   0  0  0  0  0  0  0  0  0  0  0  0
  -21.6910  -29.0340   22.0870 N   0  0  0  0  0  0  0  0  0  0  0  0
  -23.7310  -28.5410   22.9280 O   0  0  0  0  0  0  0  0  0  0  0  0
  -21.1700  -29.6410   21.4670 H   0  0  0  0  0  0  0  0  0  0  0  0
  -18.3390  -27.8000   22.6410 C   0  0  0  0  0  0  0  0  0  0  0  0
  -20.9110  -28.0170   22.7930 C   0  0  0  0  0  3  0  0  0  0  0  0
  -20.9670  -26.6580   22.0560 C   0  0  0  0  0  2  0  0  0  0  0  0
  -19.8070  -26.4560   21.0770 C   0  0  0  0  0  2  0  0  0  0  0  0
  -18.4650  -26.5340   21.8100 C   0  0  0  0  0  2  0  0  0  0  0  0
  -19.4880  -28.5050   23.0900 C   0  0  0  0  0  0  0  0  0  0  0  0
  -19.3140  -29.6950   23.8280 C   0  0  0  0  0  3  0  0  0  0  0  0
  -18.0270  -30.1800   24.1210 C   0  0  0  0  0  3  0  0  0  0  0  0
  -16.8940  -29.4700   23.6880 C   0  0  0  0  0  3  0  0  0  0  0  0
  -17.0500  -28.2810   22.9530 C   0  0  0  0  0  3  0  0  0  0  0  0
  -25.9410  -32.3770   23.7410 C   0  0  0  0  0  3  0  0  0  0  0  0
  -25.5500  -33.7420   24.1150 N   0  0  0  0  0  0  0  0  0  0  0  0
  -25.8430  -34.8390   23.4040 C   0  0  0  0  0  0  0  0  0  0  0  0
  -26.5390  -34.8100   22.3860 O   0  0  0  0  0  0  0  0  0  0  0  0
  -24.9270  -33.8350   24.9040 H   0  0  0  0  0  0  0  0  0  0  0  0
  -24.0290  -36.5480   23.0810 C   0  0  0  0  0  1  0  0  0  0  0  0
  -25.2740  -36.1800   23.9020 C   0  0  0  0  0  3  0  0  0  0  0  0
  -27.3330  -37.1550   24.8190 C   0  0  0  0  0  1  0  0  0  0  0  0
  -26.2500  -37.2900   23.8480 N   0  0  0  0  0  0  0  0  0  0  0  0
  -25.7900  -38.1820   24.0090 H   0  0  0  0  0  0  0  0  0  0  0  0
  -26.4600  -31.5820   25.0000 C   0  0  1  0  0  0  0  0  0  0  0  0
  -25.3510  -31.2570   26.0280 C   0  0  0  0  0  1  0  0  0  0  0  0
  -27.1170  -30.2480   24.5730 C   0  0  0  0  0  1  0  0  0  0  0  0
  -27.5570  -32.4000   25.7220 C   0  0  0  0  0  1  0  0  0  0  0  0
  1  2  1  0
  2  4  1  0
  3  1  2  0
  5 11  2  0
  6  7  1  0
  8  6  1  0
  8 10  1  0
  9  1  1  0
  9  7  1  0
 10  5  1  0
 10  9  1  0
 12  5  1  0
 13 19  1  0
 13 12  1  0
 14 19  1  0
 15 16  1  0
 15 14  1  0
 17 16  1  0
 17 24  1  0
 17 18  1  0
 19 18  1  0
 20 13  2  0
 21 22  2  0
 22 41  1  0
 23 22  1  0
 23 26  1  0
 24 25  1  0
 24 21  1  0
 25 23  2  0
 26 27  1  0
 27 28  2  0
 29 32  1  0
 29 28  1  0
 30 29  2  0
 31 30  1  0
 31 26  2  0
 32 33  1  0
 33 38  2  0
 33 34  1  0
 34 35  2  0
 35 36  1  0
 36 40  1  0
 37 36  2  0
 38 37  1  0
 39 38  1  0
 41 42  1  0
 42 45  1  0
 42 44  1  0
 43 41  2  0
 46 21  1  0
 46 47  1  0
 48 46  1  0
 49  2  1  0
 50 49  1  0
 50 51  1  0
 52 54  1  0
 52 51  1  0
 53 64  2  0
 54 59  1  0
 55 63  1  0
 55 65  1  0
 56 62  1  0
 56 58  1  0
 57 63  1  0
 58 57  1  0
 59 58  2  0
 60 61  1  0
 60 54  2  0
 61 56  2  0
 62 55  1  0
 63 53  1  0
 65 67  2  0
 66 65  1  0
 68 66  1  0
 69 78  2  0
 69 74  1  0
 70 66  1  0
 70 74  1  0
 71 70  1  0
 72 73  1  0
 72 71  1  0
 73 69  1  0
 74 75  2  0
 75 76  1  0
 77 76  2  0
 78 77  1  0
 79 53  1  0
 79 80  1  0
 79 89  1  0
 80 83  1  0
 81 85  1  0
 81 80  1  0
 82 81  2  0
 85 84  1  0
 87 85  1  0
 87 88  1  0
 87 86  1  0
 89 92  1  1
 89 90  1  0
 91 89  1  0
M  ISO  4  12 100  13 100  51 101  52 101
M  END
>  <TORSDO>  (8) 
F 21

>  <SCORE>  (8) 
-12.273

>  <name>  (8) 
7

>  <ligand_id>  (8) 
7

>  <original_smiles>  (8) 
[H]c1c([H])c([H])c2c(c1[H])C([H])([H])C([H])([H])C([H])([H])C2([H])N([H])C(=O)C1([H])N(C(=O)C([H])(N([H])C(=O)C([H])(N([H])C([H])([H])[H])C([H])([H])[H])C(C([H])([H])[H])(C([H])([H])[H])C([H])([H])[H])C([H])([H])c2c([H])c(OC([H])([H])C([H])([H])C([H])([H])N([H])C(=O)C3([H])N(C(=O)C([H])([H])C(=O)N4C([H])([H])C([H])([H])C([H])([H])C([H])(n5nc(-c6c([H])c([H])c(Oc7c([H])c([H])c(F)c([H])c7F)c([H])c6[H])c(C(=O)N([H])[H])c5N([H])[H])C4([H])[H])C([H])([H])C([H])([H])C3([H])[H])c([H])c([H])c2C1([H])[H]

>  <smiles>  (8) 
[H]c1c([H])c([H])c2c(c1[H])C([H])([H])C([H])([H])C([H])([H])C2([H])N([H])C(=O)C1([H])N(C(=O)C([H])(N([H])C(=O)C([H])(N([H])C([H])([H])[H])C([H])([H])[H])C(C([H])([H])[H])(C([H])([H])[H])C([H])([H])[H])C([H])([H])c2c([H])c(OC([H])([H])C([H])([H])C([H])([H])N([H])C(=O)C3([H])N(C(=O)C([H])([H])C(=O)N4C([H])([H])C([H])([H])C([H])([H])C([H])(n5nc(-c6c([H])c([H])c(Oc7c([H])c([H])c(F)c([H])c7F)c([H])c6[H])c(C(=O)N([H])[H])c5N([H])[H])C4([H])[H])C([H])([H])C([H])([H])C3([H])[H])c([H])c([H])c2C1([H])[H]

$$$$
8:0:0
     RDKit          3D

 96105  0  0  1  0  0  0  0  0999 V2000
  -32.1250  -21.1180   22.4720 C   0  0  0  0  0  2  0  0  0  0  0  0
  -32.3550  -22.5250   21.8810 C   0  0  0  0  0  2  0  0  0  0  0  0
  -31.9340  -20.0570   21.3780 C   0  0  0  0  0  2  0  0  0  0  0  0
  -31.9460  -22.6400   20.3990 C   0  0  0  0  0  2  0  0  0  0  0  0
  -29.6760  -20.4820   18.3450 C   0  0  0  0  0  2  0  0  0  0  0  0
  -30.5190  -19.5700   19.2440 C   0  0  0  0  0  3  0  0  0  0  0  0
  -30.6870  -20.4040   20.5330 C   0  0  0  0  0  3  0  0  0  0  0  0
  -30.6220  -21.8940   20.1070 C   0  0  0  0  0  3  0  0  0  0  0  0
  -30.2090  -21.8990   18.6140 C   0  0  0  0  0  3  0  0  0  0  0  0
  -29.2190  -22.9500   18.2620 N   0  0  0  0  0  4  0  0  0  0  0  0
  -28.3660  -22.7830   18.7710 H   0  0  0  0  0  0  0  0  0  0  0  0
  -29.0060  -22.8600   17.2800 H   0  0  0  0  0  0  0  0  0  0  0  0
  -29.6590  -24.3400   18.5180 C   0  0  0  0  0  2  0  0  0  0  0  0
  -28.6940  -25.3880   17.9370 C   0  0  0  0  0  2  0  0  0  0  0  0
  -28.7770  -26.7270   18.6800 C   0  0  0  0  0  2  0  0  0  0  0  0
  -28.1180  -26.5900   19.9370 O   0  0  0  0  0  0  0  0  0  0  0  0
  -24.5850  -31.7780   23.2580 C   0  0  0  0  0  0  0  0  0  0  0  0
  -26.9630  -27.3190   20.0320 C   0  0  0  0  0  0  0  0  0  0  0  0
  -23.2740  -30.4640   21.6200 C   0  0  0  0  0  3  0  0  0  0  0  0
  -24.6230  -28.8820   20.1460 C   0  0  0  0  0  0  0  0  0  0  0  0
  -25.8030  -30.7200   21.3640 C   0  0  0  0  0  2  0  0  0  0  0  0
  -25.8140  -29.3580   20.7110 C   0  0  0  0  0  0  0  0  0  0  0  0
  -26.9860  -28.5770   20.6620 C   0  0  0  0  0  3  0  0  0  0  0  0
  -25.7570  -26.8310   19.4870 C   0  0  0  0  0  3  0  0  0  0  0  0
  -24.5840  -27.6120   19.5390 C   0  0  0  0  0  3  0  0  0  0  0  0
  -23.4220  -29.7960   20.2260 C   0  0  0  0  0  2  0  0  0  0  0  0
  -24.5740  -31.0010   22.1400 N   0  0  0  0  0  0  0  0  0  0  0  0
  -23.5310  -32.0910   23.8310 O   0  0  0  0  0  0  0  0  0  0  0  0
  -22.6020  -29.4590   22.5790 C   0  0  0  0  0  0  0  0  0  0  0  0
  -21.2720  -29.3190   22.4590 N   0  0  0  0  0  0  0  0  0  0  0  0
  -23.2710  -28.8070   23.3850 O   0  0  0  0  0  0  0  0  0  0  0  0
  -20.7960  -29.8950   21.7770 H   0  0  0  0  0  0  0  0  0  0  0  0
  -17.8680  -28.2220   22.9600 C   0  0  0  0  0  0  0  0  0  0  0  0
  -20.4320  -28.4040   23.2280 C   0  0  0  0  0  3  0  0  0  0  0  0
  -20.4930  -26.9710   22.6530 C   0  0  0  0  0  2  0  0  0  0  0  0
  -19.3820  -26.6820   21.6380 C   0  0  0  0  0  2  0  0  0  0  0  0
  -18.0050  -26.8690   22.2820 C   0  0  0  0  0  2  0  0  0  0  0  0
  -19.0090  -28.9490   23.3900 C   0  0  0  0  0  0  0  0  0  0  0  0
  -18.8290  -30.2190   23.9810 C   0  0  0  0  0  3  0  0  0  0  0  0
  -17.5400  -30.7600   24.1480 C   0  0  0  0  0  3  0  0  0  0  0  0
  -16.4140  -30.0280   23.7340 C   0  0  0  0  0  3  0  0  0  0  0  0
  -16.5780  -28.7620   23.1440 C   0  0  0  0  0  3  0  0  0  0  0  0
  -25.9150  -32.3380   23.8550 C   0  0  0  0  0  3  0  0  0  0  0  0
  -25.6810  -33.7420   24.2180 N   0  0  0  0  0  0  0  0  0  0  0  0
  -26.0610  -34.7900   23.4750 C   0  0  0  0  0  0  0  0  0  0  0  0
  -26.7160  -34.6730   22.4360 O   0  0  0  0  0  0  0  0  0  0  0  0
  -25.1010  -33.9110   25.0270 H   0  0  0  0  0  0  0  0  0  0  0  0
  -24.4390  -36.6840   23.1500 C   0  0  0  0  0  1  0  0  0  0  0  0
  -25.6480  -36.1910   23.9640 C   0  0  0  0  0  3  0  0  0  0  0  0
  -27.8140  -36.9360   24.8460 C   0  0  0  0  0  1  0  0  0  0  0  0
  -26.7380  -37.1860   23.8900 N   0  0  0  0  0  0  0  0  0  0  0  0
  -26.3820  -38.1250   24.0540 H   0  0  0  0  0  0  0  0  0  0  0  0
  -26.4360  -31.5160   25.0980 C   0  0  1  0  0  0  0  0  0  0  0  0
  -25.3670  -31.2940   26.1930 C   0  0  0  0  0  1  0  0  0  0  0  0
  -26.9540  -30.1290   24.6550 C   0  0  0  0  0  1  0  0  0  0  0  0
  -27.6330  -32.2510   25.7440 C   0  0  0  0  0  1  0  0  0  0  0  0
  -29.8750  -18.1990   19.4490 C   0  0  0  0  0  3  0  0  0  0  0  0
  -29.8990  -17.5670   20.5550 N   0  0  0  0  0  0  0  0  0  0  0  0
  -29.2300  -16.2780   20.6370 C   0  0  0  0  0  2  0  0  0  0  0  0
  -30.1600  -15.2150   21.2720 C   0  0  0  0  0  2  0  0  0  0  0  0
  -30.6180  -14.1620   20.2510 C   0  0  0  0  0  0  0  0  0  0  0  0
  -30.1540  -12.1600   18.8840 C   0  0  0  0  0  2  0  0  0  0  0  0
  -29.1480  -12.5300   17.7750 C   0  0  0  0  0  2  0  0  0  0  0  0
  -27.6990  -12.3920   18.2800 C   0  0  0  0  0  2  0  0  0  0  0  0
  -27.4730  -13.1020   19.6420 C   0  0  0  0  0  3  0  0  0  0  0  0
  -28.5840  -12.7210   20.6430 C   0  0  0  0  0  2  0  0  0  0  0  0
  -29.8880  -13.0350   20.0340 N   0  0  0  0  0  0  0  0  0  0  0  0
  -31.6420  -14.4170   19.6070 O   0  0  0  0  0  0  0  0  0  0  0  0
  -25.1050  -13.6860   20.4780 C   0  0  0  0  0  0  0  0  0  0  0  0
  -24.0620  -12.9020   20.8930 C   0  0  0  0  0  0  0  0  0  0  0  0
  -24.5290  -11.5540   20.8190 C   0  0  0  0  0  0  0  0  0  0  0  0
  -26.1440  -12.8150   20.1820 N   0  0  0  0  0  0  0  0  0  0  0  0
  -25.8010  -11.5280   20.4370 N   0  0  0  0  0  0  0  0  0  0  0  0
  -23.8220  -10.2860   21.0360 C   0  0  0  0  0  0  0  0  0  0  0  0
  -24.2800   -9.3320   21.9730 C   0  0  0  0  0  3  0  0  0  0  0  0
  -23.5710   -8.1270   22.1690 C   0  0  0  0  0  3  0  0  0  0  0  0
  -22.3920   -7.8670   21.4310 C   0  0  0  0  0  0  0  0  0  0  0  0
  -21.9550   -8.8100   20.4820 C   0  0  0  0  0  3  0  0  0  0  0  0
  -22.6640  -10.0060   20.2830 C   0  0  0  0  0  3  0  0  0  0  0  0
  -21.6500   -6.7160   21.5410 O   0  0  0  0  0  0  0  0  0  0  0  0
  -21.6000   -6.0000   22.7110 C   0  0  0  0  0  0  0  0  0  0  0  0
  -21.1130   -6.5650   23.9090 C   0  0  0  0  0  3  0  0  0  0  0  0
  -21.0140   -5.7750   25.0710 C   0  0  0  0  0  3  0  0  0  0  0  0
  -21.3940   -4.4200   25.0350 C   0  0  0  0  0  0  0  0  0  0  0  0
  -21.8770   -3.8540   23.8420 C   0  0  0  0  0  3  0  0  0  0  0  0
  -21.9770   -4.6420   22.6820 C   0  0  0  0  0  0  0  0  0  0  0  0
  -22.4230   -4.0860   21.5290 F   0  0  0  0  0  0  0  0  0  0  0  0
  -21.2910   -3.6590   26.1500 F   0  0  0  0  0  0  0  0  0  0  0  0
  -22.6770  -13.3650   21.2490 C   0  0  0  0  0  0  0  0  0  0  0  0
  -21.9990  -12.6450   22.1350 N   0  0  0  0  0  0  0  0  0  0  0  0
  -22.2060  -14.3990   20.7750 O   0  0  0  0  0  0  0  0  0  0  0  0
  -22.3920  -11.8050   22.5340 H   0  0  0  0  0  0  0  0  0  0  0  0
  -21.0730  -12.9300   22.4180 H   0  0  0  0  0  0  0  0  0  0  0  0
  -25.2510  -15.0600   20.3080 N   0  0  0  0  0  0  0  0  0  0  0  0
  -24.4920  -15.7120   20.4750 H   0  0  0  0  0  0  0  0  0  0  0  0
  -26.0750  -15.5060   19.9280 H   0  0  0  0  0  0  0  0  0  0  0  0
  2  1  1  0
  3  1  1  0
  4  2  1  0
  5  9  1  0
  5  6  1  0
  6 57  1  0
  6  7  1  0
  7  3  1  0
  8  4  1  0
  8  7  1  0
  9 10  1  0
  9  8  1  0
 10 13  1  0
 10 11  1  0
 12 10  1  0
 14 13  1  0
 14 15  1  0
 15 16  1  0
 16 18  1  0
 17 28  2  0
 18 23  1  0
 19 27  1  0
 19 29  1  0
 20 26  1  0
 20 22  1  0
 21 27  1  0
 22 21  1  0
 23 22  2  0
 24 25  1  0
 24 18  2  0
 25 20  2  0
 26 19  1  0
 27 17  1  0
 29 31  2  0
 30 29  1  0
 32 30  1  0
 33 42  2  0
 33 38  1  0
 34 30  1  0
 34 38  1  0
 35 34  1  0
 36 37  1  0
 36 35  1  0
 37 33  1  0
 38 39  2  0
 39 40  1  0
 41 40  2  0
 42 41  1  0
 43 17  1  0
 43 44  1  0
 43 53  1  0
 44 47  1  0
 45 49  1  0
 45 44  1  0
 46 45  2  0
 49 48  1  0
 51 49  1  0
 51 52  1  0
 51 50  1  0
 53 56  1  1
 53 54  1  0
 55 53  1  0
 57 58  2  0
 58 59  1  0
 59 60  1  0
 61 60  1  0
 62 67  1  0
 63 64  1  0
 63 62  1  0
 65 64  1  0
 65 72  1  0
 65 66  1  0
 67 61  1  0
 67 66  1  0
 68 61  2  0
 69 70  2  0
 70 89  1  0
 71 70  1  0
 71 74  1  0
 72 73  1  0
 72 69  1  0
 73 71  2  0
 74 75  1  0
 75 76  2  0
 77 80  1  0
 77 76  1  0
 78 77  2  0
 79 78  1  0
 79 74  2  0
 80 81  1  0
 81 82  1  0
 82 83  2  0
 84 83  1  0
 84 88  1  0
 85 84  2  0
 86 81  2  0
 86 85  1  0
 87 86  1  0
 89 90  1  0
 90 93  1  0
 90 92  1  0
 91 89  2  0
 94 95  1  0
 94 69  1  0
 96 94  1  0
M  ISO  4  15 101  16 101  60 100  61 100
M  END
>  <TORSDO>  (9) 
F 23

>  <SCORE>  (9) 
-11.648

>  <name>  (9) 
8

>  <ligand_id>  (9) 
8

>  <original_smiles>  (9) 
[H]C(=NC([H])([H])C([H])([H])C(=O)N1C([H])([H])C([H])([H])C([H])([H])C([H])(n2nc(-c3c([H])c([H])c(Oc4c([H])c([H])c(F)c([H])c4F)c([H])c3[H])c(C(=O)N([H])[H])c2N([H])[H])C1([H])[H])C1([H])C([H])([H])C([H])([N+]([H])([H])C([H])([H])C([H])([H])C([H])([H])Oc2c([H])c([H])c3c(c2[H])C([H])([H])N(C(=O)C([H])(N([H])C(=O)C([H])(N([H])C([H])([H])[H])C([H])([H])[H])C(C([H])([H])[H])(C([H])([H])[H])C([H])([H])[H])C([H])(C(=O)N([H])C2([H])c4c([H])c([H])c([H])c([H])c4C([H])([H])C([H])([H])C2([H])[H])C3([H])[H])C2([H])C([H])([H])C([H])([H])C([H])([H])C([H])([H])C12[H]

>  <smiles>  (9) 
[H]C(=NC([H])([H])C([H])([H])C(=O)N1C([H])([H])C([H])([H])C([H])([H])C([H])(n2nc(-c3c([H])c([H])c(Oc4c([H])c([H])c(F)c([H])c4F)c([H])c3[H])c(C(=O)N([H])[H])c2N([H])[H])C1([H])[H])C1([H])C([H])([H])C([H])([N+]([H])([H])C([H])([H])C([H])([H])C([H])([H])Oc2c([H])c([H])c3c(c2[H])C([H])([H])N(C(=O)C([H])(N([H])C(=O)C([H])(N([H])C([H])([H])[H])C([H])([H])[H])C(C([H])([H])[H])(C([H])([H])[H])C([H])([H])[H])C([H])(C(=O)N([H])C2([H])c4c([H])c([H])c([H])c([H])c4C([H])([H])C([H])([H])C2([H])[H])C3([H])[H])C2([H])C([H])([H])C([H])([H])C([H])([H])C([H])([H])C12[H]

$$$$
9:0:0
     RDKit          3D

 83 87  0  0  1  0  0  0  0  0999 V2000
  -28.1420  -23.2480   20.1630 C   0  0  0  0  0 15  0  0  0  0  0  0
  -28.1990  -25.1550   20.3080 O   0  0  0  0  0  1  0  0  0  0  0  0
  -24.7180  -31.8210   23.1900 C   0  0  0  0  0  0  0  0  0  0  0  0
  -27.2460  -26.4900   20.2610 C   0  0  0  0  0  0  0  0  0  0  0  0
  -23.5470  -30.4130   21.5540 C   0  0  0  0  0  3  0  0  0  0  0  0
  -25.0010  -28.7000   20.1760 C   0  0  0  0  0  0  0  0  0  0  0  0
  -26.1380  -30.4690   21.4790 C   0  0  0  0  0  2  0  0  0  0  0  0
  -26.2000  -29.0040   20.8300 C   0  0  0  0  0  0  0  0  0  0  0  0
  -27.2910  -27.9380   20.8300 C   0  0  0  0  0  3  0  0  0  0  0  0
  -26.0060  -26.4660   19.5470 C   0  0  0  0  0  3  0  0  0  0  0  0
  -24.9600  -27.4590   19.5090 C   0  0  0  0  0  3  0  0  0  0  0  0
  -23.8080  -29.6860   20.1990 C   0  0  0  0  0  2  0  0  0  0  0  0
  -24.8290  -30.9420   22.1260 N   0  0  0  0  0  0  0  0  0  0  0  0
  -23.6180  -32.1390   23.6770 O   0  0  0  0  0  0  0  0  0  0  0  0
  -22.7940  -29.4680   22.5330 C   0  0  0  0  0  0  0  0  0  0  0  0
  -21.4570  -29.3410   22.4090 N   0  0  0  0  0  0  0  0  0  0  0  0
  -23.4320  -28.8420   23.3820 O   0  0  0  0  0  0  0  0  0  0  0  0
  -20.9900  -29.8950   21.7050 H   0  0  0  0  0  0  0  0  0  0  0  0
  -18.0520  -28.1630   22.9300 C   0  0  0  0  0  0  0  0  0  0  0  0
  -20.6170  -28.4160   23.1820 C   0  0  0  0  0  3  0  0  0  0  0  0
  -20.7030  -26.9800   22.6120 C   0  0  0  0  0  2  0  0  0  0  0  0
  -19.5980  -26.6670   21.5980 C   0  0  0  0  0  2  0  0  0  0  0  0
  -18.2180  -26.8180   22.2440 C   0  0  0  0  0  2  0  0  0  0  0  0
  -19.1770  -28.9210   23.3550 C   0  0  0  0  0  0  0  0  0  0  0  0
  -18.9620  -30.1770   23.9650 C   0  0  0  0  0  3  0  0  0  0  0  0
  -17.6590  -30.6760   24.1460 C   0  0  0  0  0  3  0  0  0  0  0  0
  -16.5490  -29.9180   23.7330 C   0  0  0  0  0  3  0  0  0  0  0  0
  -16.7470  -28.6620   23.1310 C   0  0  0  0  0  3  0  0  0  0  0  0
  -25.9670  -32.4850   23.8480 C   0  0  0  0  0  3  0  0  0  0  0  0
  -25.6330  -33.8860   24.1860 N   0  0  0  0  0  0  0  0  0  0  0  0
  -25.9540  -34.9630   23.4550 C   0  0  0  0  0  0  0  0  0  0  0  0
  -26.6120  -34.8810   22.4160 O   0  0  0  0  0  0  0  0  0  0  0  0
  -25.0430  -34.0200   24.9950 H   0  0  0  0  0  0  0  0  0  0  0  0
  -24.2040  -36.7600   23.1890 C   0  0  0  0  0  1  0  0  0  0  0  0
  -25.4760  -36.3470   23.9480 C   0  0  0  0  0  3  0  0  0  0  0  0
  -27.6290  -37.2500   24.7180 C   0  0  0  0  0  1  0  0  0  0  0  0
  -26.4960  -37.4110   23.8110 N   0  0  0  0  0  0  0  0  0  0  0  0
  -26.0860  -38.3270   23.9750 H   0  0  0  0  0  0  0  0  0  0  0  0
  -26.4500  -31.7320   25.1500 C   0  0  1  0  0  0  0  0  0  0  0  0
  -25.3320  -31.5130   26.1970 C   0  0  0  0  0  1  0  0  0  0  0  0
  -27.0400  -30.3460   24.8070 C   0  0  0  0  0  1  0  0  0  0  0  0
  -27.5880  -32.5330   25.8270 C   0  0  0  0  0  1  0  0  0  0  0  0
  -29.1290  -21.3590   20.2160 C   0  0  0  0  0 15  0  0  0  0  0  0
  -29.1270  -17.7460   20.0020 C   0  0  0  0  0  3  0  0  0  0  0  0
  -28.8210  -19.3920   20.0130 C   0  0  0  0  0  2  0  0  0  0  0  0
  -27.7740  -17.0420   19.9480 C   0  0  0  0  0  1  0  0  0  0  0  0
  -27.3930  -19.7280   19.5340 C   0  0  0  0  0  1  0  0  0  0  0  0
  -30.1190  -16.1780   20.0440 C   0  0  0  0  0  0  0  0  0  0  0  0
  -30.4340  -13.5090   19.2930 C   0  0  0  0  0  2  0  0  0  0  0  0
  -29.5750  -12.8710   18.1410 C   0  0  0  0  0  2  0  0  0  0  0  0
  -28.1890  -12.4130   18.6200 C   0  0  0  0  0  2  0  0  0  0  0  0
  -27.6210  -13.4250   19.6320 C   0  0  0  0  0  3  0  0  0  0  0  0
  -28.6540  -13.8640   20.7070 C   0  0  0  0  0  2  0  0  0  0  0  0
  -29.7220  -14.6960   20.0240 N   0  0  0  0  0  0  0  0  0  0  0  0
  -31.3650  -16.0750   19.9140 O   0  0  0  0  0  0  0  0  0  0  0  0
  -25.2510  -13.8930   20.4120 C   0  0  0  0  0  0  0  0  0  0  0  0
  -24.2100  -13.1010   20.7900 C   0  0  0  0  0  0  0  0  0  0  0  0
  -24.7030  -11.7630   20.7560 C   0  0  0  0  0  0  0  0  0  0  0  0
  -26.3190  -13.0480   20.1690 N   0  0  0  0  0  0  0  0  0  0  0  0
  -25.9990  -11.7530   20.4370 N   0  0  0  0  0  0  0  0  0  0  0  0
  -23.9880  -10.4950   20.9500 C   0  0  0  0  0  0  0  0  0  0  0  0
  -24.4220   -9.5360   21.8910 C   0  0  0  0  0  3  0  0  0  0  0  0
  -23.6970   -8.3390   22.0790 C   0  0  0  0  0  3  0  0  0  0  0  0
  -22.5240   -8.0930   21.3270 C   0  0  0  0  0  0  0  0  0  0  0  0
  -22.1080   -9.0420   20.3760 C   0  0  0  0  0  3  0  0  0  0  0  0
  -22.8330  -10.2300   20.1860 C   0  0  0  0  0  3  0  0  0  0  0  0
  -21.7730   -6.9470   21.4230 O   0  0  0  0  0  0  0  0  0  0  0  0
  -21.7190   -6.2170   22.5830 C   0  0  0  0  0  0  0  0  0  0  0  0
  -21.2740   -6.7810   23.7990 C   0  0  0  0  0  3  0  0  0  0  0  0
  -21.1690   -5.9770   24.9520 C   0  0  0  0  0  3  0  0  0  0  0  0
  -21.4980   -4.6110   24.8900 C   0  0  0  0  0  0  0  0  0  0  0  0
  -21.9360   -4.0450   23.6780 C   0  0  0  0  0  3  0  0  0  0  0  0
  -22.0430   -4.8460   22.5280 C   0  0  0  0  0  0  0  0  0  0  0  0
  -22.4450   -4.2910   21.3590 F   0  0  0  0  0  0  0  0  0  0  0  0
  -21.3900   -3.8360   25.9950 F   0  0  0  0  0  0  0  0  0  0  0  0
  -22.8100  -13.5670   21.0600 C   0  0  0  0  0  0  0  0  0  0  0  0
  -22.0960  -12.8780   21.9420 N   0  0  0  0  0  0  0  0  0  0  0  0
  -22.3600  -14.5830   20.5290 O   0  0  0  0  0  0  0  0  0  0  0  0
  -22.4740  -12.0600   22.3940 H   0  0  0  0  0  0  0  0  0  0  0  0
  -21.1560  -13.1750   22.1680 H   0  0  0  0  0  0  0  0  0  0  0  0
  -25.3560  -15.2620   20.2210 N   0  0  0  0  0  0  0  0  0  0  0  0
  -24.5610  -15.8790   20.3380 H   0  0  0  0  0  0  0  0  0  0  0  0
  -26.1910  -15.7410   19.9120 H   0  0  0  0  0  0  0  0  0  0  0  0
  3 14  2  0
  4  2  1  0
  4  9  1  0
  5 13  1  0
  5 15  1  0
  6 12  1  0
  6  8  1  0
  7 13  1  0
  8  9  2  0
  8  7  1  0
 10  4  2  0
 11 10  1  0
 11  6  2  0
 12  5  1  0
 13  3  1  0
 15 17  2  0
 16 15  1  0
 18 16  1  0
 19 28  2  0
 19 24  1  0
 20 16  1  0
 20 24  1  0
 21 20  1  0
 22 23  1  0
 22 21  1  0
 23 19  1  0
 24 25  2  0
 25 26  1  0
 27 26  2  0
 28 27  1  0
 29  3  1  0
 29 30  1  0
 29 39  1  0
 30 33  1  0
 31 35  1  0
 31 30  1  0
 32 31  2  0
 35 34  1  0
 37 35  1  0
 37 38  1  0
 37 36  1  0
 39 42  1  1
 39 40  1  0
 41 39  1  0
 44 46  1  0
 44 45  1  0
 44 48  1  0
 47 45  1  0
 49 54  1  0
 50 51  1  0
 50 49  1  0
 52 51  1  0
 52 59  1  0
 52 53  1  0
 54 48  1  0
 54 53  1  0
 55 48  2  0
 56 57  2  0
 57 76  1  0
 58 57  1  0
 58 61  1  0
 59 56  1  0
 59 60  1  0
 60 58  2  0
 61 62  1  0
 62 63  2  0
 64 67  1  0
 64 63  1  0
 65 64  2  0
 66 65  1  0
 66 61  2  0
 67 68  1  0
 68 69  1  0
 69 70  2  0
 71 70  1  0
 71 75  1  0
 72 71  2  0
 73 68  2  0
 73 72  1  0
 74 73  1  0
 76 77  1  0
 77 80  1  0
 77 79  1  0
 78 76  2  0
 81 82  1  0
 81 56  1  0
 83 81  1  0
M  ISO  4   1 101   2 101  44 100  48 100
M  END
>  <TORSDO>  (10) 
F 18

>  <SCORE>  (10) 
-16.208

>  <name>  (10) 
9

>  <ligand_id>  (10) 
9

>  <original_smiles>  (10) 
[H]c1c([H])c([H])c2c(c1[H])C([H])([H])C([H])([H])C([H])([H])C2([H])N([H])C(=O)C1([H])N(C(=O)C([H])(N([H])C(=O)C([H])(N([H])C([H])([H])[H])C([H])([H])[H])C(C([H])([H])[H])(C([H])([H])[H])C([H])([H])[H])C([H])([H])c2c([H])c(OC([H])([H])C([H])([H])C(=C(C(=O)N3C([H])([H])C([H])([H])C([H])([H])C([H])(n4nc(-c5c([H])c([H])c(Oc6c([H])c([H])c(F)c([H])c6F)c([H])c5[H])c(C(=O)N([H])[H])c4N([H])[H])C3([H])[H])C([H])([H])[H])C([H])([H])[H])c([H])c([H])c2C1([H])[H]

>  <smiles>  (10) 
[H]c1c([H])c([H])c2c(c1[H])C([H])([H])C([H])([H])C([H])([H])C2([H])N([H])C(=O)C1([H])N(C(=O)C([H])(N([H])C(=O)C([H])(N([H])C([H])([H])[H])C([H])([H])[H])C(C([H])([H])[H])(C([H])([H])[H])C([H])([H])[H])C([H])([H])c2c([H])c(OC([H])([H])C([H])([H])C(=C(C(=O)N3C([H])([H])C([H])([H])C([H])([H])C([H])(n4nc(-c5c([H])c([H])c(Oc6c([H])c([H])c(F)c([H])c6F)c([H])c5[H])c(C(=O)N([H])[H])c4N([H])[H])C3([H])[H])C([H])([H])[H])C([H])([H])[H])c([H])c([H])c2C1([H])[H]

$$$$
10:0:0
     RDKit          3D

 84 92  0  0  1  0  0  0  0  0999 V2000
  -28.8930  -21.9460   19.0630 C   0  0  0  0  0  2  0  0  0  0  0  0
  -28.7210  -21.0810   20.2900 C   0  0  0  0  0  3  0  0  0  0  0  0
  -28.9180  -22.8570   20.2680 C   0  0  0  0  0  3  0  0  0  0  0  0
  -29.6700  -19.5870   20.3180 C   0  0  0  0  0  2  0  0  0  0  0  0
  -29.3690  -16.5090   20.5230 C   0  0  0  0  0  3  0  0  0  0  0  0
  -29.1370  -17.9710   20.5380 C   0  0  0  0  0  3  0  0  0  0  0  0
  -30.3490  -15.2550   20.2670 C   0  0  0  0  0  0  0  0  0  0  0  0
  -30.3730  -12.8300   19.3470 C   0  0  0  0  0  2  0  0  0  0  0  0
  -29.4240  -12.6850   18.1260 C   0  0  0  0  0  2  0  0  0  0  0  0
  -27.9740  -12.4140   18.5720 C   0  0  0  0  0  2  0  0  0  0  0  0
  -27.5490  -13.3380   19.7390 C   0  0  0  0  0  3  0  0  0  0  0  0
  -28.6160  -13.3990   20.8520 C   0  0  0  0  0  2  0  0  0  0  0  0
  -29.8500  -13.9230   20.2400 N   0  0  0  0  0  0  0  0  0  0  0  0
  -31.5510  -15.3280   19.9690 O   0  0  0  0  0  0  0  0  0  0  0  0
  -25.1780  -13.8860   20.5140 C   0  0  0  0  0  0  0  0  0  0  0  0
  -24.1240  -13.1020   20.8930 C   0  0  0  0  0  0  0  0  0  0  0  0
  -24.5990  -11.7540   20.8510 C   0  0  0  0  0  0  0  0  0  0  0  0
  -26.2240  -13.0170   20.2550 N   0  0  0  0  0  0  0  0  0  0  0  0
  -25.8870  -11.7290   20.5250 N   0  0  0  0  0  0  0  0  0  0  0  0
  -23.8810  -10.4870   21.0430 C   0  0  0  0  0  0  0  0  0  0  0  0
  -24.3310   -9.5150   21.9620 C   0  0  0  0  0  3  0  0  0  0  0  0
  -23.6110   -8.3130   22.1430 C   0  0  0  0  0  3  0  0  0  0  0  0
  -22.4270   -8.0770   21.4060 C   0  0  0  0  0  0  0  0  0  0  0  0
  -21.9950   -9.0390   20.4760 C   0  0  0  0  0  3  0  0  0  0  0  0
  -22.7160  -10.2300   20.2920 C   0  0  0  0  0  3  0  0  0  0  0  0
  -21.6770   -6.9290   21.4970 O   0  0  0  0  0  0  0  0  0  0  0  0
  -21.6540   -6.1750   22.6430 C   0  0  0  0  0  0  0  0  0  0  0  0
  -21.2470   -6.7140   23.8820 C   0  0  0  0  0  3  0  0  0  0  0  0
  -21.1700   -5.8860   25.0210 C   0  0  0  0  0  3  0  0  0  0  0  0
  -21.4890   -4.5200   24.9200 C   0  0  0  0  0  0  0  0  0  0  0  0
  -21.8900   -3.9790   23.6860 C   0  0  0  0  0  3  0  0  0  0  0  0
  -21.9680   -4.8040   22.5490 C   0  0  0  0  0  0  0  0  0  0  0  0
  -22.3340   -4.2730   21.3580 F   0  0  0  0  0  0  0  0  0  0  0  0
  -21.4090   -3.7220   26.0110 F   0  0  0  0  0  0  0  0  0  0  0  0
  -22.7260  -13.5700   21.1760 C   0  0  0  0  0  0  0  0  0  0  0  0
  -22.0130  -12.8710   22.0530 N   0  0  0  0  0  0  0  0  0  0  0  0
  -22.2770  -14.5900   20.6570 O   0  0  0  0  0  0  0  0  0  0  0  0
  -22.3900  -12.0460   22.4950 H   0  0  0  0  0  0  0  0  0  0  0  0
  -21.0760  -13.1660   22.2850 H   0  0  0  0  0  0  0  0  0  0  0  0
  -25.3300  -15.2590   20.3410 N   0  0  0  0  0  0  0  0  0  0  0  0
  -24.5570  -15.9050   20.4620 H   0  0  0  0  0  0  0  0  0  0  0  0
  -26.1620  -15.7030   19.9770 H   0  0  0  0  0  0  0  0  0  0  0  0
  -27.9340  -24.3240   20.1690 C   0  0  0  0  0  2  0  0  0  0  0  0
  -28.2000  -25.9350   20.2600 O   0  0  0  0  0  0  0  0  0  0  0  0
  -24.6470  -31.8710   23.2280 C   0  0  0  0  0  0  0  0  0  0  0  0
  -27.1760  -27.0090   20.2080 C   0  0  0  0  0  0  0  0  0  0  0  0
  -23.4380  -30.4770   21.5990 C   0  0  0  0  0  3  0  0  0  0  0  0
  -24.8730  -28.8690   20.1730 C   0  0  0  0  0  0  0  0  0  0  0  0
  -26.0030  -30.6900   21.4340 C   0  0  0  0  0  2  0  0  0  0  0  0
  -26.0660  -29.2820   20.7810 C   0  0  0  0  0  0  0  0  0  0  0  0
  -27.2130  -28.3730   20.7730 C   0  0  0  0  0  3  0  0  0  0  0  0
  -25.9510  -26.7390   19.5570 C   0  0  0  0  0  3  0  0  0  0  0  0
  -24.8390  -27.6160   19.5410 C   0  0  0  0  0  3  0  0  0  0  0  0
  -23.6560  -29.7900   20.2240 C   0  0  0  0  0  2  0  0  0  0  0  0
  -24.7180  -31.0390   22.1410 N   0  0  0  0  0  0  0  0  0  0  0  0
  -23.5620  -32.1650   23.7560 O   0  0  0  0  0  0  0  0  0  0  0  0
  -22.7480  -29.4840   22.5710 C   0  0  0  0  0  0  0  0  0  0  0  0
  -21.4160  -29.3240   22.4530 N   0  0  0  0  0  0  0  0  0  0  0  0
  -23.4170  -28.8590   23.3970 O   0  0  0  0  0  0  0  0  0  0  0  0
  -20.9310  -29.8790   21.7630 H   0  0  0  0  0  0  0  0  0  0  0  0
  -18.0340  -28.1210   22.9740 C   0  0  0  0  0  0  0  0  0  0  0  0
  -20.5940  -28.3910   23.2320 C   0  0  0  0  0  3  0  0  0  0  0  0
  -20.6960  -26.9540   22.6660 C   0  0  0  0  0  2  0  0  0  0  0  0
  -19.5920  -26.6250   21.6550 C   0  0  0  0  0  2  0  0  0  0  0  0
  -18.2110  -26.7700   22.3020 C   0  0  0  0  0  2  0  0  0  0  0  0
  -19.1520  -28.8890   23.3960 C   0  0  0  0  0  0  0  0  0  0  0  0
  -18.9300  -30.1510   23.9880 C   0  0  0  0  0  3  0  0  0  0  0  0
  -17.6250  -30.6470   24.1600 C   0  0  0  0  0  3  0  0  0  0  0  0
  -16.5210  -29.8780   23.7510 C   0  0  0  0  0  3  0  0  0  0  0  0
  -16.7270  -28.6160   23.1650 C   0  0  0  0  0  3  0  0  0  0  0  0
  -25.9250  -32.5100   23.8520 C   0  0  0  0  0  3  0  0  0  0  0  0
  -26.4390  -31.7410   25.1320 C   0  0  1  0  0  0  0  0  0  0  0  0
  -25.3470  -31.5130   26.2030 C   0  0  0  0  0  1  0  0  0  0  0  0
  -27.0160  -30.3580   24.7510 C   0  0  0  0  0  1  0  0  0  0  0  0
  -27.5950  -32.5320   25.7890 C   0  0  0  0  0  1  0  0  0  0  0  0
  -25.6120  -33.9090   24.1920 N   0  0  0  0  0  0  0  0  0  0  0  0
  -25.9260  -34.9710   23.4390 C   0  0  0  0  0  0  0  0  0  0  0  0
  -26.5710  -34.8760   22.3910 O   0  0  0  0  0  0  0  0  0  0  0  0
  -25.0350  -34.0560   25.0070 H   0  0  0  0  0  0  0  0  0  0  0  0
  -24.1790  -36.7630   23.1570 C   0  0  0  0  0  1  0  0  0  0  0  0
  -25.4510  -36.3570   23.9190 C   0  0  0  0  0  3  0  0  0  0  0  0
  -27.6100  -37.2520   24.6770 C   0  0  0  0  0  1  0  0  0  0  0  0
  -26.4740  -37.4160   23.7720 N   0  0  0  0  0  0  0  0  0  0  0  0
  -26.0690  -38.3340   23.9350 H   0  0  0  0  0  0  0  0  0  0  0  0
  1  3  1  0
  1  2  1  0
  2  4  1  0
  3 43  1  0
  3  2  1  0
  4  6  1  0
  5  6  2  0
  7  5  1  0
  8 13  1  0
  9 10  1  0
  9  8  1  0
 11 10  1  0
 11 18  1  0
 11 12  1  0
 13  7  1  0
 13 12  1  0
 14  7  2  0
 15 16  2  0
 16 35  1  0
 17 16  1  0
 17 20  1  0
 18 15  1  0
 18 19  1  0
 19 17  2  0
 20 21  1  0
 21 22  2  0
 23 26  1  0
 23 22  1  0
 24 23  2  0
 25 24  1  0
 25 20  2  0
 26 27  1  0
 27 28  1  0
 28 29  2  0
 30 29  1  0
 30 34  1  0
 31 30  2  0
 32 27  2  0
 32 31  1  0
 33 32  1  0
 35 36  1  0
 36 39  1  0
 36 38  1  0
 37 35  2  0
 40 41  1  0
 40 15  1  0
 42 40  1  0
 43 44  1  0
 45 56  2  0
 46 44  1  0
 46 51  1  0
 47 55  1  0
 47 57  1  0
 48 54  1  0
 48 50  1  0
 49 55  1  0
 50 49  1  0
 51 50  2  0
 52 46  2  0
 53 52  1  0
 53 48  2  0
 54 47  1  0
 55 45  1  0
 57 59  2  0
 58 57  1  0
 60 58  1  0
 61 70  2  0
 61 66  1  0
 62 58  1  0
 62 66  1  0
 63 62  1  0
 64 65  1  0
 64 63  1  0
 65 61  1  0
 66 67  2  0
 67 68  1  0
 69 68  2  0
 70 69  1  0
 71 45  1  0
 71 76  1  0
 71 72  1  0
 72 75  1  1
 72 73  1  0
 74 72  1  0
 76 79  1  0
 77 81  1  0
 77 76  1  0
 78 77  2  0
 81 80  1  0
 83 81  1  0
 83 84  1  0
 83 82  1  0
M  ISO  4   5 100   7 100  43 101  44 101
M  END
>  <TORSDO>  (11) 
F 19

>  <SCORE>  (11) 
-15.451

>  <name>  (11) 
10

>  <ligand_id>  (11) 
10

>  <original_smiles>  (11) 
[H]C(C(=O)N1C([H])([H])C([H])([H])C([H])([H])C([H])(n2nc(-c3c([H])c([H])c(Oc4c([H])c([H])c(F)c([H])c4F)c([H])c3[H])c(C(=O)N([H])[H])c2N([H])[H])C1([H])[H])=C([H])C([H])([H])C1([H])C([H])([H])C1([H])C([H])([H])Oc1c([H])c([H])c2c(c1[H])C([H])([H])N(C(=O)C([H])(N([H])C(=O)C([H])(N([H])C([H])([H])[H])C([H])([H])[H])C(C([H])([H])[H])(C([H])([H])[H])C([H])([H])[H])C([H])(C(=O)N([H])C1([H])c3c([H])c([H])c([H])c([H])c3C([H])([H])C([H])([H])C1([H])[H])C2([H])[H]

>  <smiles>  (11) 
[H]C(C(=O)N1C([H])([H])C([H])([H])C([H])([H])C([H])(n2nc(-c3c([H])c([H])c(Oc4c([H])c([H])c(F)c([H])c4F)c([H])c3[H])c(C(=O)N([H])[H])c2N([H])[H])C1([H])[H])=C([H])C([H])([H])C1([H])C([H])([H])C1([H])C([H])([H])Oc1c([H])c([H])c2c(c1[H])C([H])([H])N(C(=O)C([H])(N([H])C(=O)C([H])(N([H])C([H])([H])[H])C([H])([H])[H])C(C([H])([H])[H])(C([H])([H])[H])C([H])([H])[H])C([H])(C(=O)N([H])C1([H])c3c([H])c([H])c([H])c([H])c3C([H])([H])C([H])([H])C1([H])[H])C2([H])[H]

$$$$
11:0:0
     RDKit          3D

 86 94  0  0  1  0  0  0  0  0999 V2000
  -29.6340  -22.1860   20.5160 C   0  0  0  0  0  0  0  0  0  0  0  0
  -30.7600  -22.9440   21.1940 C   0  0  0  0  0  1  0  0  0  0  0  0
  -29.8650  -20.8430   20.5250 N   0  0  0  0  0  0  0  0  0  0  0  0
  -29.1520  -18.6340   21.3370 C   0  0  0  0  0  2  0  0  0  0  0  0
  -30.0230  -17.9970   20.2660 C   0  0  0  0  0  3  0  0  0  0  0  0
  -29.2330  -19.4840   20.1020 C   0  0  0  0  0  3  0  0  0  0  0  0
  -29.6240  -16.4050   19.9480 C   0  0  0  0  0  2  0  0  0  0  0  0
  -30.5700  -15.0360   19.8480 C   0  0  0  0  0  0  0  0  0  0  0  0
  -30.4720  -12.6690   18.9450 C   0  0  0  0  0  2  0  0  0  0  0  0
  -29.4590  -12.6300   17.7750 C   0  0  0  0  0  2  0  0  0  0  0  0
  -28.0220  -12.4120   18.2920 C   0  0  0  0  0  2  0  0  0  0  0  0
  -27.6840  -13.3290   19.4950 C   0  0  0  0  0  3  0  0  0  0  0  0
  -28.8070  -13.3270   20.5510 C   0  0  0  0  0  2  0  0  0  0  0  0
  -30.0460  -13.7450   19.8830 N   0  0  0  0  0  0  0  0  0  0  0  0
  -31.7570  -15.1430   19.5140 O   0  0  0  0  0  0  0  0  0  0  0  0
  -25.3650  -13.8970   20.4200 C   0  0  0  0  0  0  0  0  0  0  0  0
  -24.3240  -13.1160   20.8400 C   0  0  0  0  0  0  0  0  0  0  0  0
  -24.7760  -11.7640   20.7330 C   0  0  0  0  0  0  0  0  0  0  0  0
  -26.3820  -13.0220   20.0770 N   0  0  0  0  0  0  0  0  0  0  0  0
  -26.0410  -11.7320   20.3300 N   0  0  0  0  0  0  0  0  0  0  0  0
  -24.0560  -10.4990   20.9350 C   0  0  0  0  0  0  0  0  0  0  0  0
  -24.5070   -9.5300   21.8580 C   0  0  0  0  0  3  0  0  0  0  0  0
  -23.7860   -8.3320   22.0470 C   0  0  0  0  0  3  0  0  0  0  0  0
  -22.5990   -8.0930   21.3130 C   0  0  0  0  0  0  0  0  0  0  0  0
  -22.1670   -9.0520   20.3790 C   0  0  0  0  0  3  0  0  0  0  0  0
  -22.8890  -10.2430   20.1870 C   0  0  0  0  0  3  0  0  0  0  0  0
  -21.8470   -6.9470   21.4110 O   0  0  0  0  0  0  0  0  0  0  0  0
  -21.7730   -6.2340   22.5810 C   0  0  0  0  0  0  0  0  0  0  0  0
  -21.2820   -6.8080   23.7740 C   0  0  0  0  0  3  0  0  0  0  0  0
  -21.1580   -6.0200   24.9360 C   0  0  0  0  0  3  0  0  0  0  0  0
  -21.5150   -4.6590   24.9050 C   0  0  0  0  0  0  0  0  0  0  0  0
  -21.9990   -4.0840   23.7160 C   0  0  0  0  0  3  0  0  0  0  0  0
  -22.1240   -4.8700   22.5570 C   0  0  0  0  0  0  0  0  0  0  0  0
  -22.5720   -4.3060   21.4090 F   0  0  0  0  0  0  0  0  0  0  0  0
  -21.3880   -3.8980   26.0180 F   0  0  0  0  0  0  0  0  0  0  0  0
  -22.9520  -13.5910   21.2230 C   0  0  0  0  0  0  0  0  0  0  0  0
  -22.2790  -12.8670   22.1110 N   0  0  0  0  0  0  0  0  0  0  0  0
  -22.4880  -14.6360   20.7700 O   0  0  0  0  0  0  0  0  0  0  0  0
  -22.6690  -12.0200   22.4970 H   0  0  0  0  0  0  0  0  0  0  0  0
  -21.3620  -13.1660   22.4100 H   0  0  0  0  0  0  0  0  0  0  0  0
  -25.5260  -15.2720   20.2770 N   0  0  0  0  0  0  0  0  0  0  0  0
  -24.7780  -15.9280   20.4700 H   0  0  0  0  0  0  0  0  0  0  0  0
  -26.3590  -15.7170   19.9120 H   0  0  0  0  0  0  0  0  0  0  0  0
  -28.5590  -23.3190   19.9570 C   0  0  0  0  0  2  0  0  0  0  0  0
  -28.2240  -24.7980   20.7220 C   0  0  0  0  0  2  0  0  0  0  0  0
  -28.3880  -26.2760   20.2620 O   0  0  0  0  0  0  0  0  0  0  0  0
  -24.6270  -31.8980   23.2320 C   0  0  0  0  0  0  0  0  0  0  0  0
  -27.3000  -27.2180   20.2560 C   0  0  0  0  0  0  0  0  0  0  0  0
  -23.4630  -30.4850   21.5810 C   0  0  0  0  0  3  0  0  0  0  0  0
  -24.9470  -28.9180   20.1840 C   0  0  0  0  0  0  0  0  0  0  0  0
  -26.0130  -30.7850   21.4430 C   0  0  0  0  0  2  0  0  0  0  0  0
  -26.1130  -29.3900   20.8020 C   0  0  0  0  0  0  0  0  0  0  0  0
  -27.2940  -28.5580   20.8130 C   0  0  0  0  0  3  0  0  0  0  0  0
  -26.1060  -26.8350   19.6120 C   0  0  0  0  0  3  0  0  0  0  0  0
  -24.9540  -27.6530   19.5750 C   0  0  0  0  0  3  0  0  0  0  0  0
  -23.7090  -29.8020   20.2080 C   0  0  0  0  0  2  0  0  0  0  0  0
  -24.7210  -31.0780   22.1410 N   0  0  0  0  0  0  0  0  0  0  0  0
  -23.5310  -32.1720   23.7460 O   0  0  0  0  0  0  0  0  0  0  0  0
  -22.7820  -29.4740   22.5390 C   0  0  0  0  0  0  0  0  0  0  0  0
  -21.4580  -29.2930   22.3980 N   0  0  0  0  0  0  0  0  0  0  0  0
  -23.4510  -28.8550   23.3710 O   0  0  0  0  0  0  0  0  0  0  0  0
  -20.9750  -29.8450   21.7020 H   0  0  0  0  0  0  0  0  0  0  0  0
  -18.0780  -28.0760   22.8730 C   0  0  0  0  0  0  0  0  0  0  0  0
  -20.6340  -28.3510   23.1600 C   0  0  0  0  0  3  0  0  0  0  0  0
  -20.7470  -26.9190   22.5850 C   0  0  0  0  0  2  0  0  0  0  0  0
  -19.6550  -26.5940   21.5610 C   0  0  0  0  0  2  0  0  0  0  0  0
  -18.2670  -26.7300   22.1940 C   0  0  0  0  0  2  0  0  0  0  0  0
  -19.1900  -28.8440   23.3120 C   0  0  0  0  0  0  0  0  0  0  0  0
  -18.9590  -30.1040   23.9060 C   0  0  0  0  0  3  0  0  0  0  0  0
  -17.6500  -30.5960   24.0660 C   0  0  0  0  0  3  0  0  0  0  0  0
  -16.5540  -29.8250   23.6430 C   0  0  0  0  0  3  0  0  0  0  0  0
  -16.7690  -28.5680   23.0520 C   0  0  0  0  0  3  0  0  0  0  0  0
  -25.8900  -32.5490   23.8750 C   0  0  0  0  0  3  0  0  0  0  0  0
  -26.3840  -31.7960   25.1710 C   0  0  1  0  0  0  0  0  0  0  0  0
  -25.2700  -31.5610   26.2190 C   0  0  0  0  0  1  0  0  0  0  0  0
  -26.9860  -30.4190   24.8090 C   0  0  0  0  0  1  0  0  0  0  0  0
  -27.5130  -32.6070   25.8490 C   0  0  0  0  0  1  0  0  0  0  0  0
  -25.5630  -33.9480   24.1890 N   0  0  0  0  0  0  0  0  0  0  0  0
  -25.8970  -35.0010   23.4320 C   0  0  0  0  0  0  0  0  0  0  0  0
  -26.5820  -34.8980   22.4100 O   0  0  0  0  0  0  0  0  0  0  0  0
  -24.9560  -34.1030   24.9810 H   0  0  0  0  0  0  0  0  0  0  0  0
  -24.1650  -36.7870   23.0470 C   0  0  0  0  0  1  0  0  0  0  0  0
  -25.3970  -36.3910   23.8770 C   0  0  0  0  0  3  0  0  0  0  0  0
  -27.5110  -37.2970   24.7380 C   0  0  0  0  0  1  0  0  0  0  0  0
  -26.4250  -37.4490   23.7730 N   0  0  0  0  0  0  0  0  0  0  0  0
  -26.0110  -38.3680   23.9060 H   0  0  0  0  0  0  0  0  0  0  0  0
  1  3  2  0
  1  2  1  0
  5  7  1  0
  5  4  1  0
  6  5  1  0
  6  3  1  0
  6  4  1  0
  8 14  1  0
  8  7  1  0
  9 14  1  0
 10 11  1  0
 10  9  1  0
 12 11  1  0
 12 19  1  0
 12 13  1  0
 14 13  1  0
 15  8  2  0
 16 17  2  0
 17 36  1  0
 18 17  1  0
 18 21  1  0
 19 20  1  0
 19 16  1  0
 20 18  2  0
 21 22  1  0
 22 23  2  0
 24 27  1  0
 24 23  1  0
 25 24  2  0
 26 25  1  0
 26 21  2  0
 27 28  1  0
 28 29  1  0
 29 30  2  0
 31 30  1  0
 31 35  1  0
 32 31  2  0
 33 28  2  0
 33 32  1  0
 34 33  1  0
 36 37  1  0
 37 40  1  0
 37 39  1  0
 38 36  2  0
 41 16  1  0
 41 42  1  0
 43 41  1  0
 44  1  1  0
 44 45  1  0
 46 45  1  0
 47 58  2  0
 48 46  1  0
 48 53  1  0
 49 57  1  0
 49 59  1  0
 50 56  1  0
 50 52  1  0
 51 57  1  0
 52 53  2  0
 52 51  1  0
 54 48  2  0
 55 54  1  0
 55 50  2  0
 56 49  1  0
 57 47  1  0
 59 61  2  0
 60 59  1  0
 62 60  1  0
 63 72  2  0
 63 68  1  0
 64 60  1  0
 64 68  1  0
 65 64  1  0
 66 67  1  0
 66 65  1  0
 67 63  1  0
 68 69  2  0
 69 70  1  0
 71 70  2  0
 72 71  1  0
 73 47  1  0
 73 78  1  0
 73 74  1  0
 74 77  1  1
 74 75  1  0
 76 74  1  0
 78 81  1  0
 79 83  1  0
 79 78  1  0
 80 79  2  0
 83 82  1  0
 85 83  1  0
 85 86  1  0
 85 84  1  0
M  ISO  4   7 100   8 100  45 101  46 101
M  END
>  <TORSDO>  (12) 
F 20

>  <SCORE>  (12) 
-13.852

>  <name>  (12) 
11

>  <ligand_id>  (12) 
11

>  <original_smiles>  (12) 
[H]c1c([H])c([H])c2c(c1[H])C([H])([H])C([H])([H])C([H])([H])C2([H])N([H])C(=O)C1([H])N(C(=O)C([H])(N([H])C(=O)C([H])(N([H])C([H])([H])[H])C([H])([H])[H])C(C([H])([H])[H])(C([H])([H])[H])C([H])([H])[H])C([H])([H])c2c([H])c(OC([H])([H])C([H])([H])C(=NC3([H])C([H])([H])C3([H])C([H])([H])C(=O)N3C([H])([H])C([H])([H])C([H])([H])C([H])(n4nc(-c5c([H])c([H])c(Oc6c([H])c([H])c(F)c([H])c6F)c([H])c5[H])c(C(=O)N([H])[H])c4N([H])[H])C3([H])[H])C([H])([H])[H])c([H])c([H])c2C1([H])[H]

>  <smiles>  (12) 
[H]c1c([H])c([H])c2c(c1[H])C([H])([H])C([H])([H])C([H])([H])C2([H])N([H])C(=O)C1([H])N(C(=O)C([H])(N([H])C(=O)C([H])(N([H])C([H])([H])[H])C([H])([H])[H])C(C([H])([H])[H])(C([H])([H])[H])C([H])([H])[H])C([H])([H])c2c([H])c(OC([H])([H])C([H])([H])C(=NC3([H])C([H])([H])C3([H])C([H])([H])C(=O)N3C([H])([H])C([H])([H])C([H])([H])C([H])(n4nc(-c5c([H])c([H])c(Oc6c([H])c([H])c(F)c([H])c6F)c([H])c5[H])c(C(=O)N([H])[H])c4N([H])[H])C3([H])[H])C([H])([H])[H])c([H])c([H])c2C1([H])[H]

$$$$
12:0:0
     RDKit          3D

 87 93  0  0  1  0  0  0  0  0999 V2000
  -28.6430  -21.2950   21.7900 C   0  0  0  0  0  1  0  0  0  0  0  0
  -28.7060  -21.3270   20.4510 C   0  0  0  0  0  2  0  0  0  0  0  0
  -29.3600  -18.0090   20.3560 C   0  0  0  0  0  3  0  0  0  0  0  0
  -29.2830  -19.6000   19.9180 C   0  0  0  0  0  0  0  0  0  0  0  0
  -30.0800  -16.3160   20.0440 C   0  0  0  0  0  0  0  0  0  0  0  0
  -30.3150  -13.6240   19.3200 C   0  0  0  0  0  2  0  0  0  0  0  0
  -29.4670  -13.0010   18.1540 C   0  0  0  0  0  2  0  0  0  0  0  0
  -28.0990  -12.5240   18.6510 C   0  0  0  0  0  2  0  0  0  0  0  0
  -27.5290  -13.5440   19.6540 C   0  0  0  0  0  3  0  0  0  0  0  0
  -28.5380  -14.0720   20.7210 C   0  0  0  0  0  2  0  0  0  0  0  0
  -29.6310  -14.8480   20.0430 N   0  0  0  0  0  0  0  0  0  0  0  0
  -31.2930  -16.1400   19.7630 O   0  0  0  0  0  0  0  0  0  0  0  0
  -25.1960  -13.9950   20.5040 C   0  0  0  0  0  0  0  0  0  0  0  0
  -24.1590  -13.1940   20.8870 C   0  0  0  0  0  0  0  0  0  0  0  0
  -24.6460  -11.8520   20.8180 C   0  0  0  0  0  0  0  0  0  0  0  0
  -26.2450  -13.1470   20.2160 N   0  0  0  0  0  0  0  0  0  0  0  0
  -25.9320  -11.8460   20.4660 N   0  0  0  0  0  0  0  0  0  0  0  0
  -23.9310  -10.5780   21.0080 C   0  0  0  0  0  0  0  0  0  0  0  0
  -24.3800   -9.6040   21.9270 C   0  0  0  0  0  3  0  0  0  0  0  0
  -23.6580   -8.4050   22.1110 C   0  0  0  0  0  3  0  0  0  0  0  0
  -22.4720   -8.1670   21.3760 C   0  0  0  0  0  0  0  0  0  0  0  0
  -22.0410   -9.1300   20.4470 C   0  0  0  0  0  3  0  0  0  0  0  0
  -22.7630  -10.3210   20.2610 C   0  0  0  0  0  3  0  0  0  0  0  0
  -21.7220   -7.0200   21.4690 O   0  0  0  0  0  0  0  0  0  0  0  0
  -21.6810   -6.2750   22.6220 C   0  0  0  0  0  0  0  0  0  0  0  0
  -21.2400   -6.8210   23.8470 C   0  0  0  0  0  3  0  0  0  0  0  0
  -21.1500   -6.0020   24.9900 C   0  0  0  0  0  3  0  0  0  0  0  0
  -21.4930   -4.6390   24.9100 C   0  0  0  0  0  0  0  0  0  0  0  0
  -21.9270   -4.0920   23.6900 C   0  0  0  0  0  3  0  0  0  0  0  0
  -22.0190   -4.9090   22.5490 C   0  0  0  0  0  0  0  0  0  0  0  0
  -22.4170   -4.3720   21.3690 F   0  0  0  0  0  0  0  0  0  0  0  0
  -21.4000   -3.8500   26.0060 F   0  0  0  0  0  0  0  0  0  0  0  0
  -22.7650  -13.6530   21.1960 C   0  0  0  0  0  0  0  0  0  0  0  0
  -22.0660  -12.9440   22.0740 N   0  0  0  0  0  0  0  0  0  0  0  0
  -22.3070  -14.6780   20.6930 O   0  0  0  0  0  0  0  0  0  0  0  0
  -22.4520  -12.1160   22.5030 H   0  0  0  0  0  0  0  0  0  0  0  0
  -21.1310  -13.2350   22.3230 H   0  0  0  0  0  0  0  0  0  0  0  0
  -25.3330  -15.3710   20.3440 N   0  0  0  0  0  0  0  0  0  0  0  0
  -24.5630  -16.0140   20.4920 H   0  0  0  0  0  0  0  0  0  0  0  0
  -26.1700  -15.8260   20.0020 H   0  0  0  0  0  0  0  0  0  0  0  0
  -30.9640  -21.5210   17.1810 C   0  0  0  0  0  2  0  0  0  0  0  0
  -29.9610  -20.7040   16.3660 C   0  0  0  0  0  2  0  0  0  0  0  0
  -31.1200  -20.7870   18.5230 C   0  0  0  0  0  2  0  0  0  0  0  0
  -29.0450  -20.0830   17.4190 C   0  0  0  0  0  2  0  0  0  0  0  0
  -29.9940  -19.7360   18.5740 C   0  0  0  0  0  3  0  0  0  0  0  0
  -28.1450  -23.2170   19.8910 C   0  0  0  0  0 15  0  0  0  0  0  0
  -28.0670  -25.1040   20.3590 O   0  0  0  0  0  1  0  0  0  0  0  0
  -24.6450  -31.8760   23.2000 C   0  0  0  0  0  0  0  0  0  0  0  0
  -27.1550  -26.4880   20.2530 C   0  0  0  0  0  0  0  0  0  0  0  0
  -23.4680  -30.4570   21.5800 C   0  0  0  0  0  3  0  0  0  0  0  0
  -24.9170  -28.7370   20.1870 C   0  0  0  0  0  0  0  0  0  0  0  0
  -26.0590  -30.5020   21.4900 C   0  0  0  0  0  2  0  0  0  0  0  0
  -26.1190  -29.0300   20.8390 C   0  0  0  0  0  0  0  0  0  0  0  0
  -27.1990  -27.9420   20.8370 C   0  0  0  0  0  3  0  0  0  0  0  0
  -25.9200  -26.5040   19.5240 C   0  0  0  0  0  3  0  0  0  0  0  0
  -24.8780  -27.5050   19.5030 C   0  0  0  0  0  3  0  0  0  0  0  0
  -23.7220  -29.7260   20.2240 C   0  0  0  0  0  2  0  0  0  0  0  0
  -24.7530  -30.9880   22.1410 N   0  0  0  0  0  0  0  0  0  0  0  0
  -23.5480  -32.1920   23.6950 O   0  0  0  0  0  0  0  0  0  0  0  0
  -22.7250  -29.5150   22.5700 C   0  0  0  0  0  0  0  0  0  0  0  0
  -21.3890  -29.3660   22.4460 N   0  0  0  0  0  0  0  0  0  0  0  0
  -23.3680  -28.9100   23.4290 O   0  0  0  0  0  0  0  0  0  0  0  0
  -20.9120  -29.9050   21.7350 H   0  0  0  0  0  0  0  0  0  0  0  0
  -18.0050  -28.1200   22.9650 C   0  0  0  0  0  0  0  0  0  0  0  0
  -20.5630  -28.4360   23.2290 C   0  0  0  0  0  3  0  0  0  0  0  0
  -20.6850  -26.9930   22.6830 C   0  0  0  0  0  2  0  0  0  0  0  0
  -19.5950  -26.6390   21.6670 C   0  0  0  0  0  2  0  0  0  0  0  0
  -18.2080  -26.7680   22.3010 C   0  0  0  0  0  2  0  0  0  0  0  0
  -19.1100  -28.9100   23.3850 C   0  0  0  0  0  0  0  0  0  0  0  0
  -18.8620  -30.1700   23.9730 C   0  0  0  0  0  3  0  0  0  0  0  0
  -17.5470  -30.6420   24.1390 C   0  0  0  0  0  3  0  0  0  0  0  0
  -16.4580  -29.8510   23.7300 C   0  0  0  0  0  3  0  0  0  0  0  0
  -16.6890  -28.5910   23.1500 C   0  0  0  0  0  3  0  0  0  0  0  0
  -25.8950  -32.5510   23.8470 C   0  0  0  0  0  3  0  0  0  0  0  0
  -26.3760  -31.8230   25.1650 C   0  0  1  0  0  0  0  0  0  0  0  0
  -25.2560  -31.6220   26.2140 C   0  0  0  0  0  1  0  0  0  0  0  0
  -26.9650  -30.4320   24.8510 C   0  0  0  0  0  1  0  0  0  0  0  0
  -27.5130  -32.6360   25.8290 C   0  0  0  0  0  1  0  0  0  0  0  0
  -25.5630  -33.9580   24.1620 N   0  0  0  0  0  0  0  0  0  0  0  0
  -25.8970  -35.0240   23.4180 C   0  0  0  0  0  0  0  0  0  0  0  0
  -26.5650  -34.9250   22.3870 O   0  0  0  0  0  0  0  0  0  0  0  0
  -24.9650  -34.1080   24.9620 H   0  0  0  0  0  0  0  0  0  0  0  0
  -24.1690  -36.8350   23.1010 C   0  0  0  0  0  1  0  0  0  0  0  0
  -25.4220  -36.4180   23.8890 C   0  0  0  0  0  3  0  0  0  0  0  0
  -27.5660  -37.3120   24.6920 C   0  0  0  0  0  1  0  0  0  0  0  0
  -26.4540  -37.4720   23.7590 N   0  0  0  0  0  0  0  0  0  0  0  0
  -26.0480  -38.3930   23.9040 H   0  0  0  0  0  0  0  0  0  0  0  0
  2  1  1  0
  4  3  2  0
  4  2  1  0
  5  3  1  0
  6 11  1  0
  7  8  1  0
  7  6  1  0
  9  8  1  0
  9 16  1  0
  9 10  1  0
 11  5  1  0
 11 10  1  0
 12  5  2  0
 13 14  2  0
 14 33  1  0
 15 14  1  0
 15 18  1  0
 16 17  1  0
 16 13  1  0
 17 15  2  0
 18 19  1  0
 19 20  2  0
 21 24  1  0
 21 20  1  0
 22 21  2  0
 23 22  1  0
 23 18  2  0
 24 25  1  0
 25 26  1  0
 26 27  2  0
 28 27  1  0
 28 32  1  0
 29 28  2  0
 30 25  2  0
 30 29  1  0
 31 30  1  0
 33 34  1  0
 34 37  1  0
 34 36  1  0
 35 33  2  0
 38 39  1  0
 38 13  1  0
 40 38  1  0
 41 43  1  0
 42 41  1  0
 42 44  1  0
 43 45  1  0
 44 45  1  0
 45  4  1  0
 48 59  2  0
 49 47  1  0
 49 54  1  0
 50 58  1  0
 50 60  1  0
 51 57  1  0
 51 53  1  0
 52 58  1  0
 53 52  1  0
 54 53  2  0
 55 49  2  0
 56 55  1  0
 56 51  2  0
 57 50  1  0
 58 48  1  0
 60 62  2  0
 61 60  1  0
 63 61  1  0
 64 73  2  0
 64 69  1  0
 65 61  1  0
 65 69  1  0
 66 65  1  0
 67 68  1  0
 67 66  1  0
 68 64  1  0
 69 70  2  0
 70 71  1  0
 72 71  2  0
 73 72  1  0
 74 48  1  0
 74 79  1  0
 74 75  1  0
 75 78  1  1
 75 76  1  0
 77 75  1  0
 79 82  1  0
 80 84  1  0
 80 79  1  0
 81 80  2  0
 84 83  1  0
 86 84  1  0
 86 87  1  0
 86 85  1  0
M  ISO  4   3 100   5 100  46 101  47 101
M  END
>  <TORSDO>  (13) 
F 19

>  <SCORE>  (13) 
-16.122

>  <name>  (13) 
12

>  <ligand_id>  (13) 
12

>  <original_smiles>  (13) 
[H]C([H])=C(C(=C([H])C(=O)N1C([H])([H])C([H])([H])C([H])([H])C([H])(n2nc(-c3c([H])c([H])c(Oc4c([H])c([H])c(F)c([H])c4F)c([H])c3[H])c(C(=O)N([H])[H])c2N([H])[H])C1([H])[H])C1([H])C([H])([H])C([H])([H])C([H])([H])C1([H])[H])C([H])([H])Oc1c([H])c([H])c2c(c1[H])C([H])([H])N(C(=O)C([H])(N([H])C(=O)C([H])(N([H])C([H])([H])[H])C([H])([H])[H])C(C([H])([H])[H])(C([H])([H])[H])C([H])([H])[H])C([H])(C(=O)N([H])C1([H])c3c([H])c([H])c([H])c([H])c3C([H])([H])C([H])([H])C1([H])[H])C2([H])[H]

>  <smiles>  (13) 
[H]C([H])=C(C(=C([H])C(=O)N1C([H])([H])C([H])([H])C([H])([H])C([H])(n2nc(-c3c([H])c([H])c(Oc4c([H])c([H])c(F)c([H])c4F)c([H])c3[H])c(C(=O)N([H])[H])c2N([H])[H])C1([H])[H])C1([H])C([H])([H])C([H])([H])C([H])([H])C1([H])[H])C([H])([H])Oc1c([H])c([H])c2c(c1[H])C([H])([H])N(C(=O)C([H])(N([H])C(=O)C([H])(N([H])C([H])([H])[H])C([H])([H])[H])C(C([H])([H])[H])(C([H])([H])[H])C([H])([H])[H])C([H])(C(=O)N([H])C1([H])c3c([H])c([H])c([H])c([H])c3C([H])([H])C([H])([H])C1([H])[H])C2([H])[H]

$$$$
13:0:0
     RDKit          3D

 90 97  0  0  1  0  0  0  0  0999 V2000
  -28.6990  -20.3040   20.1160 C   0  0  0  0  0  2  0  0  0  0  0  0
  -29.5860  -17.7080   19.7670 C   0  0  0  0  0  0  0  0  0  0  0  0
  -29.6350  -19.0380   20.2770 N   0  0  0  0  0  0  0  0  0  0  0  0
  -28.9800  -17.5410   18.7070 O   0  0  0  0  0  0  0  0  0  0  0  0
  -30.2250  -19.1040   21.0970 H   0  0  0  0  0  0  0  0  0  0  0  0
  -30.1200  -16.3230   20.5390 C   0  0  0  0  0  3  0  0  0  0  0  0
  -30.6770  -15.0050   19.6680 C   0  0  0  0  0  0  0  0  0  0  0  0
  -30.3730  -12.7550   18.5130 C   0  0  0  0  0  2  0  0  0  0  0  0
  -29.3090  -12.8660   17.3960 C   0  0  0  0  0  2  0  0  0  0  0  0
  -27.8910  -12.6700   17.9640 C   0  0  0  0  0  2  0  0  0  0  0  0
  -27.6610  -13.4880   19.2620 C   0  0  0  0  0  3  0  0  0  0  0  0
  -28.8270  -13.3250   20.2570 C   0  0  0  0  0  2  0  0  0  0  0  0
  -30.0480  -13.7630   19.5660 N   0  0  0  0  0  0  0  0  0  0  0  0
  -31.7700  -15.0970   19.0930 O   0  0  0  0  0  0  0  0  0  0  0  0
  -25.3660  -14.0750   20.2330 C   0  0  0  0  0  0  0  0  0  0  0  0
  -24.3350  -13.3020   20.6900 C   0  0  0  0  0  0  0  0  0  0  0  0
  -24.7780  -11.9480   20.5880 C   0  0  0  0  0  0  0  0  0  0  0  0
  -26.3700  -13.1930   19.8750 N   0  0  0  0  0  0  0  0  0  0  0  0
  -26.0320  -11.9070   20.1520 N   0  0  0  0  0  0  0  0  0  0  0  0
  -24.0590  -10.6880   20.8230 C   0  0  0  0  0  0  0  0  0  0  0  0
  -24.5380   -9.7240   21.7370 C   0  0  0  0  0  3  0  0  0  0  0  0
  -23.8180   -8.5310   21.9610 C   0  0  0  0  0  3  0  0  0  0  0  0
  -22.6040   -8.2930   21.2710 C   0  0  0  0  0  0  0  0  0  0  0  0
  -22.1440   -9.2470   20.3460 C   0  0  0  0  0  3  0  0  0  0  0  0
  -22.8660  -10.4320   20.1210 C   0  0  0  0  0  3  0  0  0  0  0  0
  -21.8500   -7.1520   21.4060 O   0  0  0  0  0  0  0  0  0  0  0  0
  -21.8180   -6.4460   22.5820 C   0  0  0  0  0  0  0  0  0  0  0  0
  -21.4350   -7.0450   23.8020 C   0  0  0  0  0  3  0  0  0  0  0  0
  -21.3470   -6.2660   24.9730 C   0  0  0  0  0  3  0  0  0  0  0  0
  -21.6340   -4.8880   24.9260 C   0  0  0  0  0  0  0  0  0  0  0  0
  -22.0120   -4.2890   23.7100 C   0  0  0  0  0  3  0  0  0  0  0  0
  -22.1000   -5.0660   22.5420 C   0  0  0  0  0  0  0  0  0  0  0  0
  -22.4430   -4.4780   21.3700 F   0  0  0  0  0  0  0  0  0  0  0  0
  -21.5440   -4.1380   26.0480 F   0  0  0  0  0  0  0  0  0  0  0  0
  -22.9750  -13.7860   21.1050 C   0  0  0  0  0  0  0  0  0  0  0  0
  -22.3430  -13.1040   22.0530 N   0  0  0  0  0  0  0  0  0  0  0  0
  -22.4860  -14.8070   20.6210 O   0  0  0  0  0  0  0  0  0  0  0  0
  -22.7540  -12.2790   22.4650 H   0  0  0  0  0  0  0  0  0  0  0  0
  -21.4360  -13.4120   22.3740 H   0  0  0  0  0  0  0  0  0  0  0  0
  -25.5270  -15.4480   20.0680 N   0  0  0  0  0  0  0  0  0  0  0  0
  -24.7770  -16.1030   20.2610 H   0  0  0  0  0  0  0  0  0  0  0  0
  -26.3340  -15.8840   19.6420 H   0  0  0  0  0  0  0  0  0  0  0  0
  -32.2790  -17.3840   21.5230 C   0  0  0  0  0  1  0  0  0  0  0  0
  -30.1880  -17.3160   22.9390 C   0  0  0  0  0  1  0  0  0  0  0  0
  -31.4470  -15.2560   22.5110 C   0  0  0  0  0  1  0  0  0  0  0  0
  -30.9960  -16.5820   21.8370 C   0  0  1  0  0  0  0  0  0  0  0  0
  -29.1630  -21.9230   20.0200 C   0  0  0  0  0  2  0  0  0  0  0  0
  -28.2090  -23.2760   20.3740 C   0  0  0  0  0  2  0  0  0  0  0  0
  -28.2630  -24.7890   19.6310 C   0  0  0  0  0  2  0  0  0  0  0  0
  -28.1480  -26.2220   20.2210 O   0  0  0  0  0  0  0  0  0  0  0  0
  -24.5830  -31.9010   23.1800 C   0  0  0  0  0  0  0  0  0  0  0  0
  -27.0670  -27.1650   20.1180 C   0  0  0  0  0  0  0  0  0  0  0  0
  -23.3390  -30.5080   21.5680 C   0  0  0  0  0  3  0  0  0  0  0  0
  -24.7460  -28.9130   20.1180 C   0  0  0  0  0  0  0  0  0  0  0  0
  -25.8880  -30.7540   21.3530 C   0  0  0  0  0  2  0  0  0  0  0  0
  -25.9350  -29.3600   20.7050 C   0  0  0  0  0  0  0  0  0  0  0  0
  -27.0910  -28.4980   20.6910 C   0  0  0  0  0  3  0  0  0  0  0  0
  -25.8530  -26.8080   19.4950 C   0  0  0  0  0  3  0  0  0  0  0  0
  -24.7160  -27.6500   19.4990 C   0  0  0  0  0  3  0  0  0  0  0  0
  -23.5260  -29.8190   20.1870 C   0  0  0  0  0  2  0  0  0  0  0  0
  -24.6250  -31.0760   22.0880 N   0  0  0  0  0  0  0  0  0  0  0  0
  -23.5100  -32.1960   23.7280 O   0  0  0  0  0  0  0  0  0  0  0  0
  -22.6690  -29.5140   22.5480 C   0  0  0  0  0  0  0  0  0  0  0  0
  -21.3400  -29.3490   22.4410 N   0  0  0  0  0  0  0  0  0  0  0  0
  -23.3490  -28.8920   23.3680 O   0  0  0  0  0  0  0  0  0  0  0  0
  -20.8470  -29.9030   21.7530 H   0  0  0  0  0  0  0  0  0  0  0  0
  -17.9640  -28.1510   22.9770 C   0  0  0  0  0  0  0  0  0  0  0  0
  -20.5240  -28.4230   23.2300 C   0  0  0  0  0  3  0  0  0  0  0  0
  -20.6260  -26.9820   22.6770 C   0  0  0  0  0  2  0  0  0  0  0  0
  -19.5200  -26.6410   21.6720 C   0  0  0  0  0  2  0  0  0  0  0  0
  -18.1410  -26.7930   22.3200 C   0  0  0  0  0  2  0  0  0  0  0  0
  -19.0840  -28.9240   23.3900 C   0  0  0  0  0  0  0  0  0  0  0  0
  -18.8630  -30.1930   23.9650 C   0  0  0  0  0  3  0  0  0  0  0  0
  -17.5570  -30.6920   24.1320 C   0  0  0  0  0  3  0  0  0  0  0  0
  -16.4540  -29.9180   23.7340 C   0  0  0  0  0  3  0  0  0  0  0  0
  -16.6580  -28.6490   23.1630 C   0  0  0  0  0  3  0  0  0  0  0  0
  -25.8800  -32.5250   23.7810 C   0  0  0  0  0  3  0  0  0  0  0  0
  -25.5820  -33.9230   24.1330 N   0  0  0  0  0  0  0  0  0  0  0  0
  -25.9060  -34.9860   23.3850 C   0  0  0  0  0  0  0  0  0  0  0  0
  -26.5530  -34.8930   22.3390 O   0  0  0  0  0  0  0  0  0  0  0  0
  -25.0040  -34.0680   24.9480 H   0  0  0  0  0  0  0  0  0  0  0  0
  -24.1830  -36.7990   23.0950 C   0  0  0  0  0  1  0  0  0  0  0  0
  -25.4390  -36.3720   23.8730 C   0  0  0  0  0  3  0  0  0  0  0  0
  -27.5990  -37.2310   24.6660 C   0  0  0  0  0  1  0  0  0  0  0  0
  -26.4770  -37.4210   23.7510 N   0  0  0  0  0  0  0  0  0  0  0  0
  -26.0800  -38.3400   23.9220 H   0  0  0  0  0  0  0  0  0  0  0  0
  -26.4180  -31.7450   25.0430 C   0  0  1  0  0  0  0  0  0  0  0  0
  -25.3460  -31.5050   26.1330 C   0  0  0  0  0  1  0  0  0  0  0  0
  -26.9870  -30.3660   24.6370 C   0  0  0  0  0  1  0  0  0  0  0  0
  -27.5850  -32.5290   25.6870 C   0  0  0  0  0  1  0  0  0  0  0  0
  1  3  1  0
  2  3  1  0
  2  6  1  0
  3  5  1  0
  4  2  2  0
  6  7  1  0
  6 46  1  0
  8 13  1  0
  9 10  1  0
  9  8  1  0
 11 10  1  0
 11 18  1  0
 11 12  1  0
 13  7  1  0
 13 12  1  0
 14  7  2  0
 15 16  2  0
 16 35  1  0
 17 16  1  0
 17 20  1  0
 18 19  1  0
 18 15  1  0
 19 17  2  0
 20 21  1  0
 21 22  2  0
 23 26  1  0
 23 22  1  0
 24 23  2  0
 25 24  1  0
 25 20  2  0
 26 27  1  0
 27 28  1  0
 28 29  2  0
 30 29  1  0
 30 34  1  0
 31 30  2  0
 32 27  2  0
 32 31  1  0
 33 32  1  0
 35 36  1  0
 36 39  1  0
 36 38  1  0
 37 35  2  0
 40 15  1  0
 40 41  1  0
 42 40  1  0
 46 43  1  6
 46 45  1  0
 46 44  1  0
 47  1  1  0
 47 48  1  0
 49 50  1  0
 49 48  1  0
 51 62  2  0
 52 50  1  0
 52 57  1  0
 53 61  1  0
 53 63  1  0
 54 60  1  0
 54 56  1  0
 55 61  1  0
 56 55  1  0
 57 56  2  0
 58 59  1  0
 58 52  2  0
 59 54  2  0
 60 53  1  0
 61 51  1  0
 63 65  2  0
 64 63  1  0
 66 64  1  0
 67 76  2  0
 67 72  1  0
 68 64  1  0
 68 72  1  0
 69 68  1  0
 70 71  1  0
 70 69  1  0
 71 67  1  0
 72 73  2  0
 73 74  1  0
 75 74  2  0
 76 75  1  0
 77 51  1  0
 77 78  1  0
 77 87  1  0
 78 81  1  0
 79 83  1  0
 79 78  1  0
 80 79  2  0
 83 82  1  0
 85 83  1  0
 85 86  1  0
 85 84  1  0
 87 90  1  1
 87 88  1  0
 89 87  1  0
M  ISO  4   6 100   7 100  49 101  50 101
M  END
>  <TORSDO>  (14) 
F 22

>  <SCORE>  (14) 
-10.160

>  <name>  (14) 
13

>  <ligand_id>  (14) 
13

>  <original_smiles>  (14) 
[H]c1c([H])c([H])c2c(c1[H])C([H])([H])C([H])([H])C([H])([H])C2([H])N([H])C(=O)C1([H])N(C(=O)C([H])(N([H])C(=O)C([H])(N([H])C([H])([H])[H])C([H])([H])[H])C(C([H])([H])[H])(C([H])([H])[H])C([H])([H])[H])C([H])([H])c2c([H])c(OC([H])([H])C([H])([H])C([H])([H])C([H])([H])N([H])C(=O)C([H])(C(=O)N3C([H])([H])C([H])([H])C([H])([H])C([H])(n4nc(-c5c([H])c([H])c(Oc6c([H])c([H])c(F)c([H])c6F)c([H])c5[H])c(C(=O)N([H])[H])c4N([H])[H])C3([H])[H])C(C([H])([H])[H])(C([H])([H])[H])C([H])([H])[H])c([H])c([H])c2C1([H])[H]

>  <smiles>  (14) 
[H]c1c([H])c([H])c2c(c1[H])C([H])([H])C([H])([H])C([H])([H])C2([H])N([H])C(=O)C1([H])N(C(=O)C([H])(N([H])C(=O)C([H])(N([H])C([H])([H])[H])C([H])([H])[H])C(C([H])([H])[H])(C([H])([H])[H])C([H])([H])[H])C([H])([H])c2c([H])c(OC([H])([H])C([H])([H])C([H])([H])C([H])([H])N([H])C(=O)C([H])(C(=O)N3C([H])([H])C([H])([H])C([H])([H])C([H])(n4nc(-c5c([H])c([H])c(Oc6c([H])c([H])c(F)c([H])c6F)c([H])c5[H])c(C(=O)N([H])[H])c4N([H])[H])C3([H])[H])C(C([H])([H])[H])(C([H])([H])[H])C([H])([H])[H])c([H])c([H])c2C1([H])[H]

$$$$
14:0:0
     RDKit          3D

 93100  0  0  1  0  0  0  0  0999 V2000
  -30.3850  -21.4950   23.4760 C   0  0  0  0  0  0  0  0  0  0  0  0
  -31.7790  -22.1180   23.4460 C   0  0  0  0  0  1  0  0  0  0  0  0
  -29.2690  -22.1180   23.3870 N   0  0  0  0  0  0  0  0  0  0  0  0
  -30.9510  -19.4990   24.9820 C   0  0  0  0  0  1  0  0  0  0  0  0
  -30.3380  -19.9690   23.6440 C   0  0  0  0  0  3  0  0  0  0  0  0
  -30.8850  -19.2430   22.4670 N   0  0  0  0  0  4  0  0  0  0  0  0
  -30.6150  -19.7620   21.6460 H   0  0  0  0  0  0  0  0  0  0  0  0
  -31.8910  -19.2400   22.5110 H   0  0  0  0  0  0  0  0  0  0  0  0
  -30.3550  -17.8610   22.3430 C   0  0  0  0  0  2  0  0  0  0  0  0
  -31.0500  -16.9640   21.2970 C   0  0  0  0  0  2  0  0  0  0  0  0
  -30.4260  -15.5460   21.3280 C   0  0  0  0  0  2  0  0  0  0  0  0
  -31.0120  -14.5260   20.3340 C   0  0  0  0  0  0  0  0  0  0  0  0
  -30.6970  -12.4350   19.0450 C   0  0  0  0  0  2  0  0  0  0  0  0
  -29.7210  -12.6630   17.8710 C   0  0  0  0  0  2  0  0  0  0  0  0
  -28.2530  -12.5320   18.3230 C   0  0  0  0  0  2  0  0  0  0  0  0
  -27.9500  -13.3450   19.6100 C   0  0  0  0  0  3  0  0  0  0  0  0
  -29.0160  -13.0370   20.6840 C   0  0  0  0  0  2  0  0  0  0  0  0
  -30.3360  -13.3670   20.1210 N   0  0  0  0  0  0  0  0  0  0  0  0
  -32.0630  -14.8010   19.7440 O   0  0  0  0  0  0  0  0  0  0  0  0
  -25.5510  -13.9820   20.3070 C   0  0  0  0  0  0  0  0  0  0  0  0
  -24.4810  -13.2210   20.6940 C   0  0  0  0  0  0  0  0  0  0  0  0
  -24.9360  -11.8680   20.6840 C   0  0  0  0  0  0  0  0  0  0  0  0
  -26.5940  -13.0910   20.0960 N   0  0  0  0  0  0  0  0  0  0  0  0
  -26.2250  -11.8150   20.3740 N   0  0  0  0  0  0  0  0  0  0  0  0
  -24.2080  -10.6100   20.8980 C   0  0  0  0  0  0  0  0  0  0  0  0
  -24.6220   -9.6760   21.8730 C   0  0  0  0  0  3  0  0  0  0  0  0
  -23.9010   -8.4800   22.0740 C   0  0  0  0  0  3  0  0  0  0  0  0
  -22.7480   -8.2100   21.2980 C   0  0  0  0  0  0  0  0  0  0  0  0
  -22.3510   -9.1320   20.3150 C   0  0  0  0  0  3  0  0  0  0  0  0
  -23.0730  -10.3200   20.1130 C   0  0  0  0  0  3  0  0  0  0  0  0
  -21.9950   -7.0650   21.4060 O   0  0  0  0  0  0  0  0  0  0  0  0
  -21.8920   -6.3810   22.5900 C   0  0  0  0  0  0  0  0  0  0  0  0
  -21.4020   -6.9950   23.7640 C   0  0  0  0  0  3  0  0  0  0  0  0
  -21.2480   -6.2370   24.9430 C   0  0  0  0  0  3  0  0  0  0  0  0
  -21.5710   -4.8660   24.9460 C   0  0  0  0  0  0  0  0  0  0  0  0
  -22.0520   -4.2530   23.7760 C   0  0  0  0  0  3  0  0  0  0  0  0
  -22.2100   -5.0090   22.6020 C   0  0  0  0  0  0  0  0  0  0  0  0
  -22.6540   -4.4090   21.4700 F   0  0  0  0  0  0  0  0  0  0  0  0
  -21.4140   -4.1350   26.0750 F   0  0  0  0  0  0  0  0  0  0  0  0
  -23.0830  -13.7050   20.9630 C   0  0  0  0  0  0  0  0  0  0  0  0
  -22.3610  -13.0290   21.8480 N   0  0  0  0  0  0  0  0  0  0  0  0
  -22.6380  -14.7180   20.4220 O   0  0  0  0  0  0  0  0  0  0  0  0
  -22.7300  -12.2110   22.3100 H   0  0  0  0  0  0  0  0  0  0  0  0
  -21.4240  -13.3310   22.0700 H   0  0  0  0  0  0  0  0  0  0  0  0
  -25.7280  -15.3460   20.1000 N   0  0  0  0  0  0  0  0  0  0  0  0
  -24.9800  -16.0240   20.2020 H   0  0  0  0  0  0  0  0  0  0  0  0
  -26.5880  -15.7570   19.7560 H   0  0  0  0  0  0  0  0  0  0  0  0
  -29.4550  -24.1900   24.7300 C   0  0  0  0  0  1  0  0  0  0  0  0
  -29.0620  -23.5660   23.3750 C   0  0  0  0  0  3  0  0  0  0  0  0
  -29.6520  -24.3060   22.1440 C   0  0  0  0  0  2  0  0  0  0  0  0
  -28.7400  -25.4250   21.5860 C   0  0  0  0  0  2  0  0  0  0  0  0
  -29.5030  -26.4370   20.6980 C   0  0  0  0  0  2  0  0  0  0  0  0
  -28.7810  -26.8000   19.5230 O   0  0  0  0  0  0  0  0  0  0  0  0
  -24.7060  -31.5510   22.9950 C   0  0  0  0  0  0  0  0  0  0  0  0
  -27.5930  -27.4720   19.6660 C   0  0  0  0  0  0  0  0  0  0  0  0
  -23.5730  -30.1720   21.2820 C   0  0  0  0  0  3  0  0  0  0  0  0
  -25.1060  -28.8060   19.7720 C   0  0  0  0  0  0  0  0  0  0  0  0
  -26.0640  -30.7020   21.0880 C   0  0  0  0  0  2  0  0  0  0  0  0
  -26.2310  -29.3680   20.3900 C   0  0  0  0  0  0  0  0  0  0  0  0
  -27.4760  -28.7040   20.3510 C   0  0  0  0  0  3  0  0  0  0  0  0
  -26.4590  -26.9260   19.0330 C   0  0  0  0  0  3  0  0  0  0  0  0
  -25.2120  -27.5750   19.0990 C   0  0  0  0  0  3  0  0  0  0  0  0
  -23.8120  -29.5800   19.8680 C   0  0  0  0  0  2  0  0  0  0  0  0
  -24.7990  -30.8200   21.8480 N   0  0  0  0  0  0  0  0  0  0  0  0
  -23.6170  -31.7270   23.5580 O   0  0  0  0  0  0  0  0  0  0  0  0
  -22.9940  -29.0610   22.1870 C   0  0  0  0  0  0  0  0  0  0  0  0
  -21.6810  -28.8120   22.0660 N   0  0  0  0  0  0  0  0  0  0  0  0
  -23.7240  -28.4280   22.9550 O   0  0  0  0  0  0  0  0  0  0  0  0
  -21.1510  -29.3750   21.4150 H   0  0  0  0  0  0  0  0  0  0  0  0
  -18.3850  -27.4160   22.5450 C   0  0  0  0  0  0  0  0  0  0  0  0
  -20.9320  -27.7870   22.7900 C   0  0  0  0  0  3  0  0  0  0  0  0
  -21.0950  -26.4040   22.1200 C   0  0  0  0  0  2  0  0  0  0  0  0
  -19.9900  -26.0890   21.1070 C   0  0  0  0  0  2  0  0  0  0  0  0
  -18.6150  -26.1220   21.7820 C   0  0  0  0  0  2  0  0  0  0  0  0
  -19.4730  -28.2040   23.0040 C   0  0  0  0  0  0  0  0  0  0  0  0
  -19.2040  -29.4120   23.6810 C   0  0  0  0  0  3  0  0  0  0  0  0
  -17.8810  -29.8370   23.9020 C   0  0  0  0  0  3  0  0  0  0  0  0
  -16.8070  -29.0450   23.4600 C   0  0  0  0  0  3  0  0  0  0  0  0
  -17.0600  -27.8360   22.7860 C   0  0  0  0  0  3  0  0  0  0  0  0
  -25.9590  -32.2230   23.6380 C   0  0  0  0  0  3  0  0  0  0  0  0
  -26.5380  -31.4140   24.8650 C   0  0  1  0  0  0  0  0  0  0  0  0
  -25.4700  -31.0540   25.9240 C   0  0  0  0  0  1  0  0  0  0  0  0
  -27.1960  -30.0970   24.3900 C   0  0  0  0  0  1  0  0  0  0  0  0
  -27.6500  -32.2380   25.5560 C   0  0  0  0  0  1  0  0  0  0  0  0
  -25.5730  -33.5800   24.0450 N   0  0  0  0  0  0  0  0  0  0  0  0
  -25.8450  -34.6890   23.3420 C   0  0  0  0  0  0  0  0  0  0  0  0
  -26.5190  -34.6790   22.3080 O   0  0  0  0  0  0  0  0  0  0  0  0
  -24.9630  -33.6560   24.8460 H   0  0  0  0  0  0  0  0  0  0  0  0
  -24.0120  -36.3920   23.0850 C   0  0  0  0  0  1  0  0  0  0  0  0
  -25.2790  -36.0220   23.8720 C   0  0  0  0  0  3  0  0  0  0  0  0
  -27.3630  -36.9840   24.7400 C   0  0  0  0  0  1  0  0  0  0  0  0
  -26.2490  -37.1370   23.8090 N   0  0  0  0  0  0  0  0  0  0  0  0
  -25.7930  -38.0240   24.0040 H   0  0  0  0  0  0  0  0  0  0  0  0
  1  5  1  0
  2  1  1  0
  3  1  2  0
  5  4  1  0
  6  8  1  0
  6  5  1  0
  7  6  1  0
  9  6  1  0
 10 11  1  0
 10  9  1  0
 12 11  1  0
 13 18  1  0
 14 15  1  0
 14 13  1  0
 16 15  1  0
 16 23  1  0
 16 17  1  0
 18 12  1  0
 18 17  1  0
 19 12  2  0
 20 21  2  0
 21 40  1  0
 22 21  1  0
 22 25  1  0
 23 20  1  0
 23 24  1  0
 24 22  2  0
 25 26  1  0
 26 27  2  0
 28 31  1  0
 28 27  1  0
 29 28  2  0
 30 29  1  0
 30 25  2  0
 31 32  1  0
 32 37  2  0
 32 33  1  0
 33 34  2  0
 34 35  1  0
 35 39  1  0
 36 35  2  0
 37 36  1  0
 38 37  1  0
 40 41  1  0
 41 44  1  0
 41 43  1  0
 42 40  2  0
 45 46  1  0
 45 20  1  0
 47 45  1  0
 49  3  1  0
 49 48  1  0
 50 49  1  0
 51 50  1  0
 52 51  1  0
 53 55  1  0
 53 52  1  0
 54 65  2  0
 55 60  1  0
 56 64  1  0
 56 66  1  0
 57 63  1  0
 57 59  1  0
 58 64  1  0
 59 58  1  0
 60 59  2  0
 61 62  1  0
 61 55  2  0
 62 57  2  0
 63 56  1  0
 64 54  1  0
 66 68  2  0
 67 66  1  0
 69 67  1  0
 70 79  2  0
 70 75  1  0
 71 67  1  0
 71 75  1  0
 72 71  1  0
 73 74  1  0
 73 72  1  0
 74 70  1  0
 75 76  2  0
 76 77  1  0
 78 77  2  0
 79 78  1  0
 80 54  1  0
 80 85  1  0
 80 81  1  0
 81 84  1  1
 81 82  1  0
 83 81  1  0
 85 88  1  0
 86 90  1  0
 86 85  1  0
 87 86  2  0
 90 89  1  0
 92 90  1  0
 92 93  1  0
 92 91  1  0
M  ISO  4  11 100  12 100  52 101  53 101
M  END
>  <TORSDO>  (15) 
F 25

>  <SCORE>  (15) 
-7.653

>  <name>  (15) 
14

>  <ligand_id>  (15) 
14

>  <original_smiles>  (15) 
[H]c1c([H])c([H])c2c(c1[H])C([H])([H])C([H])([H])C([H])([H])C2([H])N([H])C(=O)C1([H])N(C(=O)C([H])(N([H])C(=O)C([H])(N([H])C([H])([H])[H])C([H])([H])[H])C(C([H])([H])[H])(C([H])([H])[H])C([H])([H])[H])C([H])([H])c2c([H])c(OC([H])([H])C([H])([H])C([H])([H])C([H])(N=C(C([H])([H])[H])C([H])(C([H])([H])[H])[N+]([H])([H])C([H])([H])C([H])([H])C([H])([H])C(=O)N3C([H])([H])C([H])([H])C([H])([H])C([H])(n4nc(-c5c([H])c([H])c(Oc6c([H])c([H])c(F)c([H])c6F)c([H])c5[H])c(C(=O)N([H])[H])c4N([H])[H])C3([H])[H])C([H])([H])[H])c([H])c([H])c2C1([H])[H]

>  <smiles>  (15) 
[H]c1c([H])c([H])c2c(c1[H])C([H])([H])C([H])([H])C([H])([H])C2([H])N([H])C(=O)C1([H])N(C(=O)C([H])(N([H])C(=O)C([H])(N([H])C([H])([H])[H])C([H])([H])[H])C(C([H])([H])[H])(C([H])([H])[H])C([H])([H])[H])C([H])([H])c2c([H])c(OC([H])([H])C([H])([H])C([H])([H])C([H])(N=C(C([H])([H])[H])C([H])(C([H])([H])[H])[N+]([H])([H])C([H])([H])C([H])([H])C([H])([H])C(=O)N3C([H])([H])C([H])([H])C([H])([H])C([H])(n4nc(-c5c([H])c([H])c(Oc6c([H])c([H])c(F)c([H])c6F)c([H])c5[H])c(C(=O)N([H])[H])c4N([H])[H])C3([H])[H])C([H])([H])[H])c([H])c([H])c2C1([H])[H]

$$$$
15:0:0
     RDKit          3D

 84 90  0  0  1  0  0  0  0  0999 V2000
  -28.9990  -21.7950   21.0700 C   0  0  2  0  0  0  0  0  0  0  0  0
  -29.0700  -21.7870   22.4090 C   0  0  0  0  0  1  0  0  0  0  0  0
  -29.1940  -20.3280   20.0490 C   0  0  0  0  0  2  0  0  0  0  0  0
  -28.5160  -23.2020   20.0780 C   0  0  0  0  0  2  0  0  0  0  0  0
  -28.1480  -21.6180   19.3300 C   0  0  1  0  0  0  0  0  0  0  0  0
  -28.1410  -21.6300   17.8040 C   0  0  0  0  0  1  0  0  0  0  0  0
  -28.1620  -25.1140   20.3430 O   0  0  0  0  0  1  0  0  0  0  0  0
  -24.6860  -31.8530   23.1640 C   0  0  0  0  0  0  0  0  0  0  0  0
  -27.2040  -26.4640   20.2340 C   0  0  0  0  0  0  0  0  0  0  0  0
  -23.5100  -30.4320   21.5410 C   0  0  0  0  0  3  0  0  0  0  0  0
  -24.9610  -28.7110   20.1530 C   0  0  0  0  0  0  0  0  0  0  0  0
  -26.1010  -30.4800   21.4550 C   0  0  0  0  0  2  0  0  0  0  0  0
  -26.1600  -29.0070   20.8080 C   0  0  0  0  0  0  0  0  0  0  0  0
  -27.2430  -27.9230   20.8090 C   0  0  0  0  0  3  0  0  0  0  0  0
  -25.9680  -26.4690   19.5070 C   0  0  0  0  0  3  0  0  0  0  0  0
  -24.9240  -27.4720   19.4790 C   0  0  0  0  0  3  0  0  0  0  0  0
  -23.7670  -29.7020   20.1860 C   0  0  0  0  0  2  0  0  0  0  0  0
  -24.7940  -30.9650   22.1040 N   0  0  0  0  0  0  0  0  0  0  0  0
  -23.5860  -32.1690   23.6570 O   0  0  0  0  0  0  0  0  0  0  0  0
  -22.7660  -29.4910   22.5320 C   0  0  0  0  0  0  0  0  0  0  0  0
  -21.4290  -29.3480   22.4120 N   0  0  0  0  0  0  0  0  0  0  0  0
  -23.4110  -28.8830   23.3900 O   0  0  0  0  0  0  0  0  0  0  0  0
  -20.9520  -29.8940   21.7070 H   0  0  0  0  0  0  0  0  0  0  0  0
  -18.0450  -28.1090   22.9270 C   0  0  0  0  0  0  0  0  0  0  0  0
  -20.6020  -28.4200   23.1940 C   0  0  0  0  0  3  0  0  0  0  0  0
  -20.7230  -26.9770   22.6480 C   0  0  0  0  0  2  0  0  0  0  0  0
  -19.6340  -26.6220   21.6330 C   0  0  0  0  0  2  0  0  0  0  0  0
  -18.2440  -26.7560   22.2630 C   0  0  0  0  0  2  0  0  0  0  0  0
  -19.1500  -28.8960   23.3490 C   0  0  0  0  0  0  0  0  0  0  0  0
  -18.9050  -30.1560   23.9370 C   0  0  0  0  0  3  0  0  0  0  0  0
  -17.5900  -30.6320   24.1000 C   0  0  0  0  0  3  0  0  0  0  0  0
  -16.5010  -29.8460   23.6900 C   0  0  0  0  0  3  0  0  0  0  0  0
  -16.7280  -28.5840   23.1110 C   0  0  0  0  0  3  0  0  0  0  0  0
  -25.9340  -32.5280   23.8120 C   0  0  0  0  0  3  0  0  0  0  0  0
  -25.5960  -33.9290   24.1480 N   0  0  0  0  0  0  0  0  0  0  0  0
  -25.9010  -35.0050   23.4090 C   0  0  0  0  0  0  0  0  0  0  0  0
  -26.5460  -34.9240   22.3610 O   0  0  0  0  0  0  0  0  0  0  0  0
  -25.0250  -34.0640   24.9690 H   0  0  0  0  0  0  0  0  0  0  0  0
  -24.1380  -36.7940   23.1620 C   0  0  0  0  0  1  0  0  0  0  0  0
  -25.4210  -36.3890   23.9060 C   0  0  0  0  0  3  0  0  0  0  0  0
  -27.5780  -37.3100   24.6450 C   0  0  0  0  0  1  0  0  0  0  0  0
  -26.4320  -37.4610   23.7540 N   0  0  0  0  0  0  0  0  0  0  0  0
  -26.0150  -38.3720   23.9230 H   0  0  0  0  0  0  0  0  0  0  0  0
  -26.4280  -31.7860   25.1170 C   0  0  1  0  0  0  0  0  0  0  0  0
  -25.3140  -31.5620   26.1690 C   0  0  0  0  0  1  0  0  0  0  0  0
  -27.0280  -30.4050   24.7780 C   0  0  0  0  0  1  0  0  0  0  0  0
  -27.5630  -32.5980   25.7840 C   0  0  0  0  0  1  0  0  0  0  0  0
  -29.2370  -18.1620   20.3430 C   0  0  0  0  0 15  0  0  0  0  0  0
  -30.0790  -16.2870   20.0970 C   0  0  0  0  0  2  0  0  0  0  0  0
  -30.3630  -13.6050   19.3230 C   0  0  0  0  0  2  0  0  0  0  0  0
  -29.5090  -12.9850   18.1570 C   0  0  0  0  0  2  0  0  0  0  0  0
  -28.1340  -12.5100   18.6400 C   0  0  0  0  0  2  0  0  0  0  0  0
  -27.5630  -13.5230   19.6510 C   0  0  0  0  0  3  0  0  0  0  0  0
  -28.5730  -14.0230   20.7260 C   0  0  0  0  0  2  0  0  0  0  0  0
  -29.6680  -14.8090   20.0570 N   0  0  0  0  0  0  0  0  0  0  0  0
  -31.3110  -16.1540   19.8740 O   0  0  0  0  0  1  0  0  0  0  0  0
  -25.2170  -13.9770   20.4790 C   0  0  0  0  0  0  0  0  0  0  0  0
  -24.1760  -13.1800   20.8550 C   0  0  0  0  0  0  0  0  0  0  0  0
  -24.6650  -11.8370   20.8010 C   0  0  0  0  0  0  0  0  0  0  0  0
  -26.2710  -13.1300   20.2030 N   0  0  0  0  0  0  0  0  0  0  0  0
  -25.9560  -11.8290   20.4600 N   0  0  0  0  0  0  0  0  0  0  0  0
  -23.9510  -10.5640   20.9910 C   0  0  0  0  0  0  0  0  0  0  0  0
  -24.3930   -9.5960   21.9210 C   0  0  0  0  0  3  0  0  0  0  0  0
  -23.6700   -8.3970   22.1050 C   0  0  0  0  0  3  0  0  0  0  0  0
  -22.4920   -8.1530   21.3580 C   0  0  0  0  0  0  0  0  0  0  0  0
  -22.0700   -9.1090   20.4170 C   0  0  0  0  0  3  0  0  0  0  0  0
  -22.7940  -10.2990   20.2310 C   0  0  0  0  0  3  0  0  0  0  0  0
  -21.7430   -7.0040   21.4490 O   0  0  0  0  0  0  0  0  0  0  0  0
  -21.6920   -6.2680   22.6060 C   0  0  0  0  0  0  0  0  0  0  0  0
  -21.2320   -6.8180   23.8220 C   0  0  0  0  0  3  0  0  0  0  0  0
  -21.1310   -6.0070   24.9700 C   0  0  0  0  0  3  0  0  0  0  0  0
  -21.4780   -4.6440   24.9020 C   0  0  0  0  0  0  0  0  0  0  0  0
  -21.9310   -4.0920   23.6920 C   0  0  0  0  0  3  0  0  0  0  0  0
  -22.0340   -4.9010   22.5470 C   0  0  0  0  0  0  0  0  0  0  0  0
  -22.4490   -4.3580   21.3770 F   0  0  0  0  0  0  0  0  0  0  0  0
  -21.3750   -3.8640   26.0030 F   0  0  0  0  0  0  0  0  0  0  0  0
  -22.7780  -13.6390   21.1460 C   0  0  0  0  0  0  0  0  0  0  0  0
  -22.0680  -12.9370   22.0210 N   0  0  0  0  0  0  0  0  0  0  0  0
  -22.3240  -14.6630   20.6330 O   0  0  0  0  0  0  0  0  0  0  0  0
  -22.4480  -12.1110   22.4600 H   0  0  0  0  0  0  0  0  0  0  0  0
  -21.1310  -13.2290   22.2540 H   0  0  0  0  0  0  0  0  0  0  0  0
  -25.3520  -15.3540   20.3120 N   0  0  0  0  0  0  0  0  0  0  0  0
  -24.5770  -15.9910   20.4520 H   0  0  0  0  0  0  0  0  0  0  0  0
  -26.1830  -15.8140   19.9620 H   0  0  0  0  0  0  0  0  0  0  0  0
  1  2  1  6
  3  1  1  0
  4  1  1  0
  5  6  1  1
  5  3  1  0
  5  4  1  0
  5  1  1  0
  8 19  2  0
  9  7  1  0
  9 14  1  0
 10 18  1  0
 10 20  1  0
 11 17  1  0
 11 13  1  0
 12 18  1  0
 13 14  2  0
 13 12  1  0
 15  9  2  0
 16 15  1  0
 16 11  2  0
 17 10  1  0
 18  8  1  0
 20 22  2  0
 21 20  1  0
 23 21  1  0
 24 33  2  0
 24 29  1  0
 25 21  1  0
 25 29  1  0
 26 25  1  0
 27 28  1  0
 27 26  1  0
 28 24  1  0
 29 30  2  0
 30 31  1  0
 32 31  2  0
 33 32  1  0
 34  8  1  0
 34 35  1  0
 34 44  1  0
 35 38  1  0
 36 40  1  0
 36 35  1  0
 37 36  2  0
 40 39  1  0
 42 40  1  0
 42 43  1  0
 42 41  1  0
 44 47  1  1
 44 45  1  0
 46 44  1  0
 50 55  1  0
 51 52  1  0
 51 50  1  0
 53 52  1  0
 53 60  1  0
 53 54  1  0
 55 49  1  0
 55 54  1  0
 56 49  1  0
 57 58  2  0
 58 77  1  0
 59 58  1  0
 59 62  1  0
 60 61  1  0
 60 57  1  0
 61 59  2  0
 62 63  1  0
 63 64  2  0
 65 68  1  0
 65 64  1  0
 66 65  2  0
 67 66  1  0
 67 62  2  0
 68 69  1  0
 69 70  1  0
 70 71  2  0
 72 71  1  0
 72 76  1  0
 73 72  2  0
 74 69  2  0
 74 73  1  0
 75 74  1  0
 77 78  1  0
 78 81  1  0
 78 80  1  0
 79 77  2  0
 82 83  1  0
 82 57  1  0
 84 82  1  0
M  ISO  4   4 101   7 101  48 100  49 100
M  END
>  <TORSDO>  (16) 
F 17

>  <SCORE>  (16) 
-16.721

>  <name>  (16) 
15

>  <ligand_id>  (16) 
15

>  <original_smiles>  (16) 
[H]C([H])=C1C([H])(Oc2c([H])c([H])c3c(c2[H])C([H])([H])N(C(=O)C([H])(N([H])C(=O)C([H])(N([H])C([H])([H])[H])C([H])([H])[H])C(C([H])([H])[H])(C([H])([H])[H])C([H])([H])[H])C([H])(C(=O)N([H])C2([H])c4c([H])c([H])c([H])c([H])c4C([H])([H])C([H])([H])C2([H])[H])C3([H])[H])C([H])(C([H])([H])[H])C1([H])C([H])([H])C(=O)N1C([H])([H])C([H])([H])C([H])([H])C([H])(n2nc(-c3c([H])c([H])c(Oc4c([H])c([H])c(F)c([H])c4F)c([H])c3[H])c(C(=O)N([H])[H])c2N([H])[H])C1([H])[H]

>  <smiles>  (16) 
[H]C([H])=C1C([H])(Oc2c([H])c([H])c3c(c2[H])C([H])([H])N(C(=O)C([H])(N([H])C(=O)C([H])(N([H])C([H])([H])[H])C([H])([H])[H])C(C([H])([H])[H])(C([H])([H])[H])C([H])([H])[H])C([H])(C(=O)N([H])C2([H])c4c([H])c([H])c([H])c([H])c4C([H])([H])C([H])([H])C2([H])[H])C3([H])[H])C([H])(C([H])([H])[H])C1([H])C([H])([H])C(=O)N1C([H])([H])C([H])([H])C([H])([H])C([H])(n2nc(-c3c([H])c([H])c(Oc4c([H])c([H])c(F)c([H])c4F)c([H])c3[H])c(C(=O)N([H])[H])c2N([H])[H])C1([H])[H]

$$$$
16:0:0
     RDKit          3D

 81 85  0  0  1  0  0  0  0  0999 V2000
  -28.1740  -25.1450   20.2320 O   0  0  0  0  0  1  0  0  0  0  0  0
  -24.6970  -31.8130   23.1330 C   0  0  0  0  0  0  0  0  0  0  0  0
  -27.2130  -26.4670   20.2440 C   0  0  0  0  0  0  0  0  0  0  0  0
  -23.5210  -30.3870   21.5200 C   0  0  0  0  0  3  0  0  0  0  0  0
  -24.9700  -28.6680   20.1510 C   0  0  0  0  0  0  0  0  0  0  0  0
  -26.1110  -30.4550   21.4240 C   0  0  0  0  0  2  0  0  0  0  0  0
  -26.1730  -28.9830   20.7910 C   0  0  0  0  0  0  0  0  0  0  0  0
  -27.2680  -27.9220   20.7910 C   0  0  0  0  0  3  0  0  0  0  0  0
  -25.9680  -26.4300   19.5450 C   0  0  0  0  0  3  0  0  0  0  0  0
  -24.9210  -27.4200   19.5010 C   0  0  0  0  0  3  0  0  0  0  0  0
  -23.7740  -29.6520   20.1690 C   0  0  0  0  0  2  0  0  0  0  0  0
  -24.8040  -30.9250   22.0770 N   0  0  0  0  0  0  0  0  0  0  0  0
  -23.5990  -32.1290   23.6260 O   0  0  0  0  0  0  0  0  0  0  0  0
  -22.7810  -29.4440   22.5110 C   0  0  0  0  0  0  0  0  0  0  0  0
  -21.4440  -29.3110   22.3990 N   0  0  0  0  0  0  0  0  0  0  0  0
  -23.4290  -28.8240   23.3580 O   0  0  0  0  0  0  0  0  0  0  0  0
  -20.9680  -29.8600   21.6960 H   0  0  0  0  0  0  0  0  0  0  0  0
  -18.0480  -28.1220   22.9530 C   0  0  0  0  0  0  0  0  0  0  0  0
  -20.6120  -28.3890   23.1860 C   0  0  0  0  0  3  0  0  0  0  0  0
  -20.7020  -26.9480   22.6270 C   0  0  0  0  0  2  0  0  0  0  0  0
  -19.5910  -26.6210   21.6240 C   0  0  0  0  0  2  0  0  0  0  0  0
  -18.2150  -26.7710   22.2790 C   0  0  0  0  0  2  0  0  0  0  0  0
  -19.1720  -28.8880   23.3640 C   0  0  0  0  0  0  0  0  0  0  0  0
  -18.9550  -30.1490   23.9630 C   0  0  0  0  0  3  0  0  0  0  0  0
  -17.6500  -30.6440   24.1490 C   0  0  0  0  0  3  0  0  0  0  0  0
  -16.5430  -29.8770   23.7490 C   0  0  0  0  0  3  0  0  0  0  0  0
  -16.7420  -28.6170   23.1570 C   0  0  0  0  0  3  0  0  0  0  0  0
  -25.9470  -32.4880   23.7760 C   0  0  0  0  0  3  0  0  0  0  0  0
  -25.6010  -33.8830   24.1260 N   0  0  0  0  0  0  0  0  0  0  0  0
  -25.9080  -34.9670   23.3990 C   0  0  0  0  0  0  0  0  0  0  0  0
  -26.5620  -34.8980   22.3570 O   0  0  0  0  0  0  0  0  0  0  0  0
  -25.0130  -34.0070   24.9370 H   0  0  0  0  0  0  0  0  0  0  0  0
  -24.1430  -36.7520   23.1480 C   0  0  0  0  0  1  0  0  0  0  0  0
  -25.4180  -36.3430   23.9040 C   0  0  0  0  0  3  0  0  0  0  0  0
  -27.5660  -37.2560   24.6760 C   0  0  0  0  0  1  0  0  0  0  0  0
  -26.4290  -37.4170   23.7750 N   0  0  0  0  0  0  0  0  0  0  0  0
  -26.0120  -38.3280   23.9510 H   0  0  0  0  0  0  0  0  0  0  0  0
  -26.4570  -31.7340   25.0680 C   0  0  1  0  0  0  0  0  0  0  0  0
  -25.3570  -31.5020   26.1320 C   0  0  0  0  0  1  0  0  0  0  0  0
  -27.0530  -30.3550   24.7120 C   0  0  0  0  0  1  0  0  0  0  0  0
  -27.5980  -32.5430   25.7310 C   0  0  0  0  0  1  0  0  0  0  0  0
  -28.1520  -23.2440   20.4220 C   0  0  0  0  0 15  0  0  0  0  0  0
  -28.9100  -21.3420   19.8830 C   0  0  0  0  0 15  0  0  0  0  0  0
  -29.3940  -17.7720   20.0630 C   0  0  0  0  0  2  0  0  0  0  0  0
  -29.3510  -19.3980   20.2290 C   0  0  0  0  0  1  0  0  0  0  0  0
  -30.1130  -16.0810   20.1090 C   0  0  0  0  0  0  0  0  0  0  0  0
  -30.2850  -13.4330   19.3220 C   0  0  0  0  0  2  0  0  0  0  0  0
  -29.4280  -12.8410   18.1520 C   0  0  0  0  0  2  0  0  0  0  0  0
  -28.0410  -12.4030   18.6370 C   0  0  0  0  0  2  0  0  0  0  0  0
  -27.4820  -13.4320   19.6380 C   0  0  0  0  0  3  0  0  0  0  0  0
  -28.4930  -13.9220   20.7100 C   0  0  0  0  0  2  0  0  0  0  0  0
  -29.6050  -14.6550   20.0230 N   0  0  0  0  0  0  0  0  0  0  0  0
  -31.3500  -15.8770   20.0150 O   0  0  0  0  0  0  0  0  0  0  0  0
  -25.1370  -13.9190   20.4450 C   0  0  0  0  0  0  0  0  0  0  0  0
  -24.0890  -13.1320   20.8210 C   0  0  0  0  0  0  0  0  0  0  0  0
  -24.5700  -11.7860   20.7890 C   0  0  0  0  0  0  0  0  0  0  0  0
  -26.1860  -13.0600   20.1900 N   0  0  0  0  0  0  0  0  0  0  0  0
  -25.8630  -11.7670   20.4620 N   0  0  0  0  0  0  0  0  0  0  0  0
  -23.8490  -10.5180   20.9890 C   0  0  0  0  0  0  0  0  0  0  0  0
  -24.2910   -9.5510   21.9190 C   0  0  0  0  0  3  0  0  0  0  0  0
  -23.5640   -8.3570   22.1120 C   0  0  0  0  0  3  0  0  0  0  0  0
  -22.3790   -8.1190   21.3740 C   0  0  0  0  0  0  0  0  0  0  0  0
  -21.9560   -9.0750   20.4340 C   0  0  0  0  0  3  0  0  0  0  0  0
  -22.6840  -10.2600   20.2400 C   0  0  0  0  0  3  0  0  0  0  0  0
  -21.6230   -6.9760   21.4750 O   0  0  0  0  0  0  0  0  0  0  0  0
  -21.5950   -6.2300   22.6270 C   0  0  0  0  0  0  0  0  0  0  0  0
  -21.2010   -6.7860   23.8640 C   0  0  0  0  0  3  0  0  0  0  0  0
  -21.1190   -5.9680   25.0090 C   0  0  0  0  0  3  0  0  0  0  0  0
  -21.4190   -4.5960   24.9180 C   0  0  0  0  0  0  0  0  0  0  0  0
  -21.8050   -4.0400   23.6860 C   0  0  0  0  0  3  0  0  0  0  0  0
  -21.8900   -4.8540   22.5430 C   0  0  0  0  0  0  0  0  0  0  0  0
  -22.2410   -4.3090   21.3540 F   0  0  0  0  0  0  0  0  0  0  0  0
  -21.3340   -3.8080   26.0150 F   0  0  0  0  0  0  0  0  0  0  0  0
  -22.6900  -13.6000   21.0940 C   0  0  0  0  0  0  0  0  0  0  0  0
  -21.9710  -12.9090   21.9700 N   0  0  0  0  0  0  0  0  0  0  0  0
  -22.2460  -14.6180   20.5640 O   0  0  0  0  0  0  0  0  0  0  0  0
  -22.3470  -12.0860   22.4190 H   0  0  0  0  0  0  0  0  0  0  0  0
  -21.0330  -13.2070   22.1960 H   0  0  0  0  0  0  0  0  0  0  0  0
  -25.2830  -15.2920   20.2610 N   0  0  0  0  0  0  0  0  0  0  0  0
  -24.5120  -15.9400   20.3840 H   0  0  0  0  0  0  0  0  0  0  0  0
  -26.1300  -15.7410   19.9350 H   0  0  0  0  0  0  0  0  0  0  0  0
  1  3  1  0
  2 13  2  0
  3  8  1  0
  4 12  1  0
  4 14  1  0
  5 11  1  0
  5  7  1  0
  6 12  1  0
  7  6  1  0
  8  7  2  0
  9  3  2  0
 10  9  1  0
 10  5  2  0
 11  4  1  0
 12  2  1  0
 14 16  2  0
 15 14  1  0
 17 15  1  0
 18 27  2  0
 18 23  1  0
 19 15  1  0
 19 23  1  0
 20 19  1  0
 21 22  1  0
 21 20  1  0
 22 18  1  0
 23 24  2  0
 24 25  1  0
 26 25  2  0
 27 26  1  0
 28  2  1  0
 28 29  1  0
 28 38  1  0
 29 32  1  0
 30 34  1  0
 30 29  1  0
 31 30  2  0
 34 33  1  0
 36 34  1  0
 36 37  1  0
 36 35  1  0
 38 41  1  1
 38 39  1  0
 40 38  1  0
 44 46  1  0
 44 45  1  0
 47 52  1  0
 48 49  1  0
 48 47  1  0
 50 49  1  0
 50 57  1  0
 50 51  1  0
 52 46  1  0
 52 51  1  0
 53 46  2  0
 54 55  2  0
 55 74  1  0
 56 55  1  0
 56 59  1  0
 57 54  1  0
 57 58  1  0
 58 56  2  0
 59 60  1  0
 60 61  2  0
 62 65  1  0
 62 61  1  0
 63 62  2  0
 64 63  1  0
 64 59  2  0
 65 66  1  0
 66 67  1  0
 67 68  2  0
 69 68  1  0
 69 73  1  0
 70 69  2  0
 71 66  2  0
 71 70  1  0
 72 71  1  0
 74 75  1  0
 75 78  1  0
 75 77  1  0
 76 74  2  0
 79 80  1  0
 79 54  1  0
 81 79  1  0
M  ISO  4   1 101  42 101  44 100  46 100
M  END
>  <TORSDO>  (17) 
F 18

>  <SCORE>  (17) 
-16.037

>  <name>  (17) 
16

>  <ligand_id>  (17) 
16

>  <original_smiles>  (17) 
[H]C(C(=O)N1C([H])([H])C([H])([H])C([H])([H])C([H])(n2nc(-c3c([H])c([H])c(Oc4c([H])c([H])c(F)c([H])c4F)c([H])c3[H])c(C(=O)N([H])[H])c2N([H])[H])C1([H])[H])=C([H])C([H])([H])C([H])([H])Oc1c([H])c([H])c2c(c1[H])C([H])([H])N(C(=O)C([H])(N([H])C(=O)C([H])(N([H])C([H])([H])[H])C([H])([H])[H])C(C([H])([H])[H])(C([H])([H])[H])C([H])([H])[H])C([H])(C(=O)N([H])C1([H])c3c([H])c([H])c([H])c([H])c3C([H])([H])C([H])([H])C1([H])[H])C2([H])[H]

>  <smiles>  (17) 
[H]C(C(=O)N1C([H])([H])C([H])([H])C([H])([H])C([H])(n2nc(-c3c([H])c([H])c(Oc4c([H])c([H])c(F)c([H])c4F)c([H])c3[H])c(C(=O)N([H])[H])c2N([H])[H])C1([H])[H])=C([H])C([H])([H])C([H])([H])Oc1c([H])c([H])c2c(c1[H])C([H])([H])N(C(=O)C([H])(N([H])C(=O)C([H])(N([H])C([H])([H])[H])C([H])([H])[H])C(C([H])([H])[H])(C([H])([H])[H])C([H])([H])[H])C([H])(C(=O)N([H])C1([H])c3c([H])c([H])c([H])c([H])c3C([H])([H])C([H])([H])C1([H])[H])C2([H])[H]

$$$$
17:0:0
     RDKit          3D

 83 90  0  0  1  0  0  0  0  0999 V2000
  -27.8700  -23.6920   20.2020 C   0  0  0  0  0  2  0  0  0  0  0  0
  -28.7120  -20.4930   20.2450 C   0  0  0  0  0  3  0  0  0  0  0  0
  -28.8540  -22.0570   20.1990 C   0  0  0  0  0  3  0  0  0  0  0  0
  -29.3800  -17.4130   20.2370 C   0  0  0  0  0  3  0  0  0  0  0  0
  -29.6140  -18.9630   20.1830 C   0  0  0  0  0  0  0  0  0  0  0  0
  -31.0910  -19.2530   20.0030 C   0  0  0  0  0  1  0  0  0  0  0  0
  -30.2190  -15.8750   20.1380 C   0  0  0  0  0  0  0  0  0  0  0  0
  -30.3670  -13.2930   19.3570 C   0  0  0  0  0  2  0  0  0  0  0  0
  -29.4840  -12.8410   18.1530 C   0  0  0  0  0  2  0  0  0  0  0  0
  -28.0740  -12.4500   18.6170 C   0  0  0  0  0  2  0  0  0  0  0  0
  -27.5450  -13.4510   19.6670 C   0  0  0  0  0  3  0  0  0  0  0  0
  -28.5700  -13.8220   20.7660 C   0  0  0  0  0  2  0  0  0  0  0  0
  -29.7300  -14.4790   20.1090 N   0  0  0  0  0  0  0  0  0  0  0  0
  -31.4500  -15.7770   19.9450 O   0  0  0  0  0  0  0  0  0  0  0  0
  -25.1960  -13.9370   20.4890 C   0  0  0  0  0  0  0  0  0  0  0  0
  -24.1520  -13.1390   20.8580 C   0  0  0  0  0  0  0  0  0  0  0  0
  -24.6350  -11.7960   20.7960 C   0  0  0  0  0  0  0  0  0  0  0  0
  -26.2440  -13.0820   20.2070 N   0  0  0  0  0  0  0  0  0  0  0  0
  -25.9230  -11.7850   20.4600 N   0  0  0  0  0  0  0  0  0  0  0  0
  -23.9210  -10.5230   20.9740 C   0  0  0  0  0  0  0  0  0  0  0  0
  -24.3450   -9.5600   21.9160 C   0  0  0  0  0  3  0  0  0  0  0  0
  -23.6260   -8.3570   22.0850 C   0  0  0  0  0  3  0  0  0  0  0  0
  -22.4660   -8.1070   21.3120 C   0  0  0  0  0  0  0  0  0  0  0  0
  -22.0610   -9.0600   20.3600 C   0  0  0  0  0  3  0  0  0  0  0  0
  -22.7810  -10.2540   20.1890 C   0  0  0  0  0  3  0  0  0  0  0  0
  -21.7190   -6.9560   21.3900 O   0  0  0  0  0  0  0  0  0  0  0  0
  -21.6240   -6.2360   22.5550 C   0  0  0  0  0  0  0  0  0  0  0  0
  -21.0830   -6.7950   23.7330 C   0  0  0  0  0  3  0  0  0  0  0  0
  -20.9390   -5.9990   24.8870 C   0  0  0  0  0  3  0  0  0  0  0  0
  -21.3270   -4.6470   24.8630 C   0  0  0  0  0  0  0  0  0  0  0  0
  -21.8610   -4.0870   23.6890 C   0  0  0  0  0  3  0  0  0  0  0  0
  -22.0070   -4.8800   22.5380 C   0  0  0  0  0  0  0  0  0  0  0  0
  -22.5010   -4.3310   21.4030 F   0  0  0  0  0  0  0  0  0  0  0  0
  -21.1830   -3.8800   25.9690 F   0  0  0  0  0  0  0  0  0  0  0  0
  -22.7540  -13.5980   21.1510 C   0  0  0  0  0  0  0  0  0  0  0  0
  -22.0440  -12.8880   22.0190 N   0  0  0  0  0  0  0  0  0  0  0  0
  -22.3010  -14.6240   20.6440 O   0  0  0  0  0  0  0  0  0  0  0  0
  -22.4250  -12.0580   22.4500 H   0  0  0  0  0  0  0  0  0  0  0  0
  -21.1070  -13.1770   22.2580 H   0  0  0  0  0  0  0  0  0  0  0  0
  -25.3410  -15.3120   20.3340 N   0  0  0  0  0  0  0  0  0  0  0  0
  -24.5680  -15.9550   20.4720 H   0  0  0  0  0  0  0  0  0  0  0  0
  -26.1770  -15.7670   19.9920 H   0  0  0  0  0  0  0  0  0  0  0  0
  -28.1050  -25.4760   20.3080 O   0  0  0  0  0  0  0  0  0  0  0  0
  -24.6280  -31.8850   23.2320 C   0  0  0  0  0  0  0  0  0  0  0  0
  -27.1520  -26.7340   20.2590 C   0  0  0  0  0  0  0  0  0  0  0  0
  -23.4480  -30.4910   21.5890 C   0  0  0  0  0  3  0  0  0  0  0  0
  -24.8970  -28.8260   20.1880 C   0  0  0  0  0  0  0  0  0  0  0  0
  -26.0320  -30.6030   21.4900 C   0  0  0  0  0  2  0  0  0  0  0  0
  -26.0940  -29.1620   20.8320 C   0  0  0  0  0  0  0  0  0  0  0  0
  -27.2010  -28.1480   20.8310 C   0  0  0  0  0  3  0  0  0  0  0  0
  -25.9200  -26.6290   19.5570 C   0  0  0  0  0  3  0  0  0  0  0  0
  -24.8560  -27.5860   19.5250 C   0  0  0  0  0  3  0  0  0  0  0  0
  -23.6970  -29.7890   20.2220 C   0  0  0  0  0  2  0  0  0  0  0  0
  -24.7270  -31.0280   22.1550 N   0  0  0  0  0  0  0  0  0  0  0  0
  -23.5320  -32.1910   23.7330 O   0  0  0  0  0  0  0  0  0  0  0  0
  -22.7170  -29.5210   22.5580 C   0  0  0  0  0  0  0  0  0  0  0  0
  -21.3860  -29.3650   22.4170 N   0  0  0  0  0  0  0  0  0  0  0  0
  -23.3610  -28.9060   23.4100 O   0  0  0  0  0  0  0  0  0  0  0  0
  -20.9140  -29.9110   21.7100 H   0  0  0  0  0  0  0  0  0  0  0  0
  -17.9960  -28.1390   22.8940 C   0  0  0  0  0  0  0  0  0  0  0  0
  -20.5520  -28.4300   23.1850 C   0  0  0  0  0  3  0  0  0  0  0  0
  -20.6690  -26.9930   22.6230 C   0  0  0  0  0  2  0  0  0  0  0  0
  -19.5820  -26.6560   21.5960 C   0  0  0  0  0  2  0  0  0  0  0  0
  -18.1920  -26.7900   22.2220 C   0  0  0  0  0  2  0  0  0  0  0  0
  -19.1020  -28.9150   23.3310 C   0  0  0  0  0  0  0  0  0  0  0  0
  -18.8610  -30.1730   23.9250 C   0  0  0  0  0  3  0  0  0  0  0  0
  -17.5490  -30.6560   24.0830 C   0  0  0  0  0  3  0  0  0  0  0  0
  -16.4570  -29.8790   23.6580 C   0  0  0  0  0  3  0  0  0  0  0  0
  -16.6810  -28.6210   23.0710 C   0  0  0  0  0  3  0  0  0  0  0  0
  -25.8870  -32.5350   23.8830 C   0  0  0  0  0  3  0  0  0  0  0  0
  -25.5660  -33.9410   24.2080 N   0  0  0  0  0  0  0  0  0  0  0  0
  -25.8810  -35.0010   23.4520 C   0  0  0  0  0  0  0  0  0  0  0  0
  -26.5240  -34.9000   22.4060 O   0  0  0  0  0  0  0  0  0  0  0  0
  -24.9890  -34.0910   25.0220 H   0  0  0  0  0  0  0  0  0  0  0  0
  -24.1330  -36.7970   23.1740 C   0  0  0  0  0  1  0  0  0  0  0  0
  -25.4100  -36.3940   23.9270 C   0  0  0  0  0  3  0  0  0  0  0  0
  -27.5680  -37.3060   24.6690 C   0  0  0  0  0  1  0  0  0  0  0  0
  -26.4320  -37.4510   23.7630 N   0  0  0  0  0  0  0  0  0  0  0  0
  -26.0260  -38.3710   23.9100 H   0  0  0  0  0  0  0  0  0  0  0  0
  -26.3630  -31.7840   25.1890 C   0  0  1  0  0  0  0  0  0  0  0  0
  -25.2410  -31.5730   26.2340 C   0  0  0  0  0  1  0  0  0  0  0  0
  -26.9480  -30.3950   24.8490 C   0  0  0  0  0  1  0  0  0  0  0  0
  -27.5020  -32.5820   25.8660 C   0  0  0  0  0  1  0  0  0  0  0  0
  1 43  1  0
  3  1  1  0
  3  2  2  0
  5  4  2  0
  5  2  1  0
  6  5  1  0
  7  4  1  0
  8 13  1  0
  9 10  1  0
  9  8  1  0
 11 10  1  0
 11 18  1  0
 11 12  1  0
 13  7  1  0
 13 12  1  0
 14  7  2  0
 15 16  2  0
 16 35  1  0
 17 16  1  0
 17 20  1  0
 18 19  1  0
 18 15  1  0
 19 17  2  0
 20 21  1  0
 21 22  2  0
 23 26  1  0
 23 22  1  0
 24 23  2  0
 25 24  1  0
 25 20  2  0
 26 27  1  0
 27 28  1  0
 28 29  2  0
 30 29  1  0
 30 34  1  0
 31 30  2  0
 32 27  2  0
 32 31  1  0
 33 32  1  0
 35 36  1  0
 36 39  1  0
 36 38  1  0
 37 35  2  0
 40 41  1  0
 40 15  1  0
 42 40  1  0
 44 55  2  0
 45 43  1  0
 45 50  1  0
 46 54  1  0
 46 56  1  0
 47 53  1  0
 47 49  1  0
 48 54  1  0
 49 48  1  0
 50 49  2  0
 51 45  2  0
 52 51  1  0
 52 47  2  0
 53 46  1  0
 54 44  1  0
 56 58  2  0
 57 56  1  0
 59 57  1  0
 60 69  2  0
 60 65  1  0
 61 57  1  0
 61 65  1  0
 62 61  1  0
 63 64  1  0
 63 62  1  0
 64 60  1  0
 65 66  2  0
 66 67  1  0
 68 67  2  0
 69 68  1  0
 70 44  1  0
 70 71  1  0
 70 80  1  0
 71 74  1  0
 72 76  1  0
 72 71  1  0
 73 72  2  0
 76 75  1  0
 78 79  1  0
 78 76  1  0
 78 77  1  0
 80 83  1  1
 80 81  1  0
 82 80  1  0
M  ISO  4   1 101   4 100   7 100  43 101
M  END
>  <TORSDO>  (18) 
F 18

>  <SCORE>  (18) 
-16.406

>  <name>  (18) 
17

>  <ligand_id>  (18) 
17

>  <original_smiles>  (18) 
[H]C(C(=O)N1C([H])([H])C([H])([H])C([H])([H])C([H])(n2nc(-c3c([H])c([H])c(Oc4c([H])c([H])c(F)c([H])c4F)c([H])c3[H])c(C(=O)N([H])[H])c2N([H])[H])C1([H])[H])=C(C([H])=C([H])C([H])([H])Oc1c([H])c([H])c2c(c1[H])C([H])([H])N(C(=O)C([H])(N([H])C(=O)C([H])(N([H])C([H])([H])[H])C([H])([H])[H])C(C([H])([H])[H])(C([H])([H])[H])C([H])([H])[H])C([H])(C(=O)N([H])C1([H])c3c([H])c([H])c([H])c([H])c3C([H])([H])C([H])([H])C1([H])[H])C2([H])[H])C([H])([H])[H]

>  <smiles>  (18) 
[H]C(C(=O)N1C([H])([H])C([H])([H])C([H])([H])C([H])(n2nc(-c3c([H])c([H])c(Oc4c([H])c([H])c(F)c([H])c4F)c([H])c3[H])c(C(=O)N([H])[H])c2N([H])[H])C1([H])[H])=C(C([H])=C([H])C([H])([H])Oc1c([H])c([H])c2c(c1[H])C([H])([H])N(C(=O)C([H])(N([H])C(=O)C([H])(N([H])C([H])([H])[H])C([H])([H])[H])C(C([H])([H])[H])(C([H])([H])[H])C([H])([H])[H])C([H])(C(=O)N([H])C1([H])c3c([H])c([H])c([H])c([H])c3C([H])([H])C([H])([H])C1([H])[H])C2([H])[H])C([H])([H])[H]

$$$$
18:0:0
     RDKit          3D

 91 99  0  0  1  0  0  0  0  0999 V2000
  -28.9740  -22.8890   19.9440 C   0  0  0  0  0  3  0  0  0  0  0  0
  -28.8290  -21.1760   20.3400 C   0  0  0  0  0  0  0  0  0  0  0  0
  -32.1820  -19.9170   20.5920 C   0  0  0  0  0  2  0  0  0  0  0  0
  -31.6270  -18.5290   20.8620 C   0  0  0  0  0  2  0  0  0  0  0  0
  -31.1360  -20.6230   19.7360 C   0  0  0  0  0  2  0  0  0  0  0  0
  -30.2520  -18.4580   20.1840 C   0  0  0  0  0  3  0  0  0  0  0  0
  -29.8190  -20.0940   20.1310 N   0  0  0  0  0  0  0  0  0  0  0  0
  -27.7410  -20.8500   20.8190 O   0  0  0  0  0  0  0  0  0  0  0  0
  -29.6610  -16.8180   20.5230 C   0  0  0  0  0  2  0  0  0  0  0  0
  -30.4660  -15.2800   20.2800 C   0  0  0  0  0  0  0  0  0  0  0  0
  -30.4390  -12.8520   19.3730 C   0  0  0  0  0  2  0  0  0  0  0  0
  -29.5070  -12.7210   18.1410 C   0  0  0  0  0  2  0  0  0  0  0  0
  -28.0560  -12.4570   18.5800 C   0  0  0  0  0  2  0  0  0  0  0  0
  -27.6250  -13.3840   19.7440 C   0  0  0  0  0  3  0  0  0  0  0  0
  -28.6830  -13.4800   20.8630 C   0  0  0  0  0  2  0  0  0  0  0  0
  -29.9250  -13.9670   20.2490 N   0  0  0  0  0  0  0  0  0  0  0  0
  -31.6710  -15.2840   19.9850 O   0  0  0  0  0  0  0  0  0  0  0  0
  -25.2580  -13.9220   20.5270 C   0  0  0  0  0  0  0  0  0  0  0  0
  -24.2030  -13.1350   20.8920 C   0  0  0  0  0  0  0  0  0  0  0  0
  -24.6760  -11.7870   20.8390 C   0  0  0  0  0  0  0  0  0  0  0  0
  -26.3020  -13.0560   20.2580 N   0  0  0  0  0  0  0  0  0  0  0  0
  -25.9640  -11.7640   20.5140 N   0  0  0  0  0  0  0  0  0  0  0  0
  -23.9540  -10.5190   21.0190 C   0  0  0  0  0  0  0  0  0  0  0  0
  -24.3770   -9.5550   21.9600 C   0  0  0  0  0  3  0  0  0  0  0  0
  -23.6550   -8.3540   22.1280 C   0  0  0  0  0  3  0  0  0  0  0  0
  -22.4960   -8.1080   21.3530 C   0  0  0  0  0  0  0  0  0  0  0  0
  -22.0920   -9.0610   20.4020 C   0  0  0  0  0  3  0  0  0  0  0  0
  -22.8150  -10.2540   20.2340 C   0  0  0  0  0  3  0  0  0  0  0  0
  -21.7450   -6.9590   21.4310 O   0  0  0  0  0  0  0  0  0  0  0  0
  -21.6520   -6.2360   22.5930 C   0  0  0  0  0  0  0  0  0  0  0  0
  -21.1450   -6.8000   23.7840 C   0  0  0  0  0  3  0  0  0  0  0  0
  -21.0030   -6.0020   24.9360 C   0  0  0  0  0  3  0  0  0  0  0  0
  -21.3560   -4.6390   24.8990 C   0  0  0  0  0  0  0  0  0  0  0  0
  -21.8560   -4.0750   23.7120 C   0  0  0  0  0  3  0  0  0  0  0  0
  -22.0000   -4.8700   22.5620 C   0  0  0  0  0  0  0  0  0  0  0  0
  -22.4620   -4.3150   21.4150 F   0  0  0  0  0  0  0  0  0  0  0  0
  -21.2120   -3.8710   26.0030 F   0  0  0  0  0  0  0  0  0  0  0  0
  -22.8050  -13.6010   21.1800 C   0  0  0  0  0  0  0  0  0  0  0  0
  -22.0860  -12.8880   22.0390 N   0  0  0  0  0  0  0  0  0  0  0  0
  -22.3610  -14.6330   20.6780 O   0  0  0  0  0  0  0  0  0  0  0  0
  -22.4610  -12.0550   22.4670 H   0  0  0  0  0  0  0  0  0  0  0  0
  -21.1480  -13.1790   22.2710 H   0  0  0  0  0  0  0  0  0  0  0  0
  -25.4140  -15.2970   20.3720 N   0  0  0  0  0  0  0  0  0  0  0  0
  -24.6490  -15.9490   20.5090 H   0  0  0  0  0  0  0  0  0  0  0  0
  -26.2650  -15.7460   20.0560 H   0  0  0  0  0  0  0  0  0  0  0  0
  -29.0760  -22.9270   18.3960 C   0  0  0  0  0  2  0  0  0  0  0  0
  -30.0030  -24.0180   17.8350 C   0  0  0  0  0  2  0  0  0  0  0  0
  -31.0370  -25.0160   15.7230 C   0  0  0  0  0  1  0  0  0  0  0  0
  -30.1560  -23.9090   16.3100 C   0  0  0  0  0  2  0  0  0  0  0  0
  -28.0110  -24.3330   20.3720 C   0  0  0  0  0  2  0  0  0  0  0  0
  -28.2410  -25.9520   20.2120 O   0  0  0  0  0  0  0  0  0  0  0  0
  -24.6460  -31.8630   23.2200 C   0  0  0  0  0  0  0  0  0  0  0  0
  -27.2100  -27.0190   20.1940 C   0  0  0  0  0  0  0  0  0  0  0  0
  -23.4540  -30.4710   21.5770 C   0  0  0  0  0  3  0  0  0  0  0  0
  -24.9050  -28.8750   20.1540 C   0  0  0  0  0  0  0  0  0  0  0  0
  -26.0190  -30.6930   21.4310 C   0  0  0  0  0  2  0  0  0  0  0  0
  -26.0910  -29.2860   20.7740 C   0  0  0  0  0  0  0  0  0  0  0  0
  -27.2400  -28.3790   20.7690 C   0  0  0  0  0  3  0  0  0  0  0  0
  -25.9950  -26.7540   19.5240 C   0  0  0  0  0  3  0  0  0  0  0  0
  -24.8790  -27.6290   19.5090 C   0  0  0  0  0  3  0  0  0  0  0  0
  -23.6850  -29.7930   20.1990 C   0  0  0  0  0  2  0  0  0  0  0  0
  -24.7270  -31.0360   22.1300 N   0  0  0  0  0  0  0  0  0  0  0  0
  -23.5560  -32.1500   23.7420 O   0  0  0  0  0  0  0  0  0  0  0  0
  -22.7630  -29.4690   22.5400 C   0  0  0  0  0  0  0  0  0  0  0  0
  -21.4330  -29.3030   22.4130 N   0  0  0  0  0  0  0  0  0  0  0  0
  -23.4290  -28.8430   23.3670 O   0  0  0  0  0  0  0  0  0  0  0  0
  -20.9500  -29.8590   21.7220 H   0  0  0  0  0  0  0  0  0  0  0  0
  -18.0490  -28.0990   22.9210 C   0  0  0  0  0  0  0  0  0  0  0  0
  -20.6100  -28.3640   23.1810 C   0  0  0  0  0  3  0  0  0  0  0  0
  -20.7090  -26.9340   22.6000 C   0  0  0  0  0  2  0  0  0  0  0  0
  -19.6050  -26.6140   21.5870 C   0  0  0  0  0  2  0  0  0  0  0  0
  -18.2250  -26.7550   22.2350 C   0  0  0  0  0  2  0  0  0  0  0  0
  -19.1680  -28.8610   23.3510 C   0  0  0  0  0  0  0  0  0  0  0  0
  -18.9470  -30.1180   23.9540 C   0  0  0  0  0  3  0  0  0  0  0  0
  -17.6410  -30.6120   24.1330 C   0  0  0  0  0  3  0  0  0  0  0  0
  -16.5370  -29.8480   23.7160 C   0  0  0  0  0  3  0  0  0  0  0  0
  -16.7420  -28.5940   23.1160 C   0  0  0  0  0  3  0  0  0  0  0  0
  -25.9170  -32.5050   23.8560 C   0  0  0  0  0  3  0  0  0  0  0  0
  -25.5960  -33.9010   24.2010 N   0  0  0  0  0  0  0  0  0  0  0  0
  -25.9230  -34.9700   23.4630 C   0  0  0  0  0  0  0  0  0  0  0  0
  -26.5930  -34.8840   22.4290 O   0  0  0  0  0  0  0  0  0  0  0  0
  -25.0020  -34.0410   25.0050 H   0  0  0  0  0  0  0  0  0  0  0  0
  -24.1970  -36.7740   23.1380 C   0  0  0  0  0  1  0  0  0  0  0  0
  -25.4360  -36.3520   23.9440 C   0  0  0  0  0  3  0  0  0  0  0  0
  -27.5660  -37.2290   24.7990 C   0  0  0  0  0  1  0  0  0  0  0  0
  -26.4690  -37.4070   23.8500 N   0  0  0  0  0  0  0  0  0  0  0  0
  -26.0620  -38.3250   24.0050 H   0  0  0  0  0  0  0  0  0  0  0  0
  -26.4270  -31.7320   25.1350 C   0  0  1  0  0  0  0  0  0  0  0  0
  -25.3280  -31.4890   26.1960 C   0  0  0  0  0  1  0  0  0  0  0  0
  -27.0150  -30.3550   24.7510 C   0  0  0  0  0  1  0  0  0  0  0  0
  -27.5720  -32.5260   25.8050 C   0  0  0  0  0  1  0  0  0  0  0  0
  1 46  1  0
  1  2  1  0
  1 50  1  0
  2  8  2  0
  3  4  1  0
  5  7  1  0
  5  3  1  0
  6  9  1  0
  6  4  1  0
  7  6  1  0
  7  2  1  0
 10  9  1  0
 11 16  1  0
 12 13  1  0
 12 11  1  0
 14 13  1  0
 14 21  1  0
 14 15  1  0
 16 10  1  0
 16 15  1  0
 17 10  2  0
 18 19  2  0
 19 38  1  0
 20 19  1  0
 20 23  1  0
 21 22  1  0
 21 18  1  0
 22 20  2  0
 23 24  1  0
 24 25  2  0
 26 29  1  0
 26 25  1  0
 27 26  2  0
 28 27  1  0
 28 23  2  0
 29 30  1  0
 30 31  1  0
 31 32  2  0
 33 32  1  0
 33 37  1  0
 34 33  2  0
 35 30  2  0
 35 34  1  0
 36 35  1  0
 38 39  1  0
 39 42  1  0
 39 41  1  0
 40 38  2  0
 43 44  1  0
 43 18  1  0
 45 43  1  0
 47 46  1  0
 48 49  1  0
 49 47  1  0
 51 50  1  0
 52 63  2  0
 53 51  1  0
 53 58  1  0
 54 62  1  0
 54 64  1  0
 55 61  1  0
 55 57  1  0
 56 62  1  0
 57 56  1  0
 58 57  2  0
 59 53  2  0
 60 59  1  0
 60 55  2  0
 61 54  1  0
 62 52  1  0
 64 66  2  0
 65 64  1  0
 67 65  1  0
 68 77  2  0
 68 73  1  0
 69 65  1  0
 69 73  1  0
 70 69  1  0
 71 72  1  0
 71 70  1  0
 72 68  1  0
 73 74  2  0
 74 75  1  0
 76 75  2  0
 77 76  1  0
 78 52  1  0
 78 79  1  0
 78 88  1  0
 79 82  1  0
 80 84  1  0
 80 79  1  0
 81 80  2  0
 84 83  1  0
 86 84  1  0
 86 87  1  0
 86 85  1  0
 88 91  1  1
 88 89  1  0
 90 88  1  0
M  ISO  4   9 100  10 100  50 101  51 101
M  END
>  <TORSDO>  (19) 
F 22

>  <SCORE>  (19) 
-15.059

>  <name>  (19) 
18

>  <ligand_id>  (19) 
18

>  <original_smiles>  (19) 
[H]c1c([H])c([H])c2c(c1[H])C([H])([H])C([H])([H])C([H])([H])C2([H])N([H])C(=O)C1([H])N(C(=O)C([H])(N([H])C(=O)C([H])(N([H])C([H])([H])[H])C([H])([H])[H])C(C([H])([H])[H])(C([H])([H])[H])C([H])([H])[H])C([H])([H])c2c([H])c(OC([H])([H])C([H])(C(=O)N3C([H])([H])C([H])([H])C([H])([H])C3([H])C([H])([H])C(=O)N3C([H])([H])C([H])([H])C([H])([H])C([H])(n4nc(-c5c([H])c([H])c(Oc6c([H])c([H])c(F)c([H])c6F)c([H])c5[H])c(C(=O)N([H])[H])c4N([H])[H])C3([H])[H])C([H])([H])C([H])([H])C([H])([H])C([H])([H])[H])c([H])c([H])c2C1([H])[H]

>  <smiles>  (19) 
[H]c1c([H])c([H])c2c(c1[H])C([H])([H])C([H])([H])C([H])([H])C2([H])N([H])C(=O)C1([H])N(C(=O)C([H])(N([H])C(=O)C([H])(N([H])C([H])([H])[H])C([H])([H])[H])C(C([H])([H])[H])(C([H])([H])[H])C([H])([H])[H])C([H])([H])c2c([H])c(OC([H])([H])C([H])(C(=O)N3C([H])([H])C([H])([H])C([H])([H])C3([H])C([H])([H])C(=O)N3C([H])([H])C([H])([H])C([H])([H])C([H])(n4nc(-c5c([H])c([H])c(Oc6c([H])c([H])c(F)c([H])c6F)c([H])c5[H])c(C(=O)N([H])[H])c4N([H])[H])C3([H])[H])C([H])([H])C([H])([H])C([H])([H])C([H])([H])[H])c([H])c([H])c2C1([H])[H]

$$$$
19:0:0
     RDKit          3D

 84 89  0  0  1  0  0  0  0  0999 V2000
  -29.0970  -21.4220   19.8170 C   0  0  0  0  0  3  0  0  0  0  0  0
  -28.9960  -20.8700   21.1040 C   0  0  0  0  0  0  0  0  0  0  0  0
  -29.7800  -18.4070   19.8130 C   0  0  0  0  0  3  0  0  0  0  0  0
  -28.5550  -21.6850   22.2760 C   0  0  0  0  0  1  0  0  0  0  0  0
  -29.5690  -19.8830   19.2080 N   0  0  0  0  0  0  0  0  0  0  0  0
  -29.3430  -19.0470   21.4460 S   0  0  0  0  0  0  0  0  0  0  0  0
  -30.4540  -16.4700   19.6140 C   0  0  0  0  0  2  0  0  0  0  0  0
  -30.6150  -13.7640   18.9140 C   0  0  0  0  0  2  0  0  0  0  0  0
  -29.7070  -13.1290   17.8010 C   0  0  0  0  0  2  0  0  0  0  0  0
  -28.3540  -12.6830   18.3630 C   0  0  0  0  0  2  0  0  0  0  0  0
  -27.8430  -13.7310   19.3690 C   0  0  0  0  0  3  0  0  0  0  0  0
  -28.9020  -14.2630   20.3800 C   0  0  0  0  0  2  0  0  0  0  0  0
  -29.9770  -15.0110   19.6390 N   0  0  0  0  0  0  0  0  0  0  0  0
  -31.6630  -16.2710   19.3150 O   0  0  0  0  0  1  0  0  0  0  0  0
  -25.5770  -14.2410   20.3570 C   0  0  0  0  0  0  0  0  0  0  0  0
  -24.5350  -13.4680   20.7790 C   0  0  0  0  0  0  0  0  0  0  0  0
  -24.9690  -12.1120   20.6560 C   0  0  0  0  0  0  0  0  0  0  0  0
  -26.5780  -13.3660   19.9930 N   0  0  0  0  0  0  0  0  0  0  0  0
  -26.2330  -12.0700   20.2330 N   0  0  0  0  0  0  0  0  0  0  0  0
  -24.2220  -10.8600   20.8590 C   0  0  0  0  0  0  0  0  0  0  0  0
  -24.6340   -9.8940   21.8040 C   0  0  0  0  0  3  0  0  0  0  0  0
  -23.8800   -8.7150   21.9990 C   0  0  0  0  0  3  0  0  0  0  0  0
  -22.7000   -8.4930   21.2500 C   0  0  0  0  0  0  0  0  0  0  0  0
  -22.3060   -9.4470   20.2960 C   0  0  0  0  0  3  0  0  0  0  0  0
  -23.0600  -10.6170   20.0990 C   0  0  0  0  0  3  0  0  0  0  0  0
  -21.9200   -7.3650   21.3540 O   0  0  0  0  0  0  0  0  0  0  0  0
  -21.7620   -6.7050   22.5460 C   0  0  0  0  0  0  0  0  0  0  0  0
  -21.2150   -7.3400   23.6820 C   0  0  0  0  0  3  0  0  0  0  0  0
  -21.0040   -6.6060   24.8660 C   0  0  0  0  0  3  0  0  0  0  0  0
  -21.3320   -5.2380   24.9150 C   0  0  0  0  0  0  0  0  0  0  0  0
  -21.8720   -4.6020   23.7830 C   0  0  0  0  0  3  0  0  0  0  0  0
  -22.0830   -5.3340   22.6010 C   0  0  0  0  0  0  0  0  0  0  0  0
  -22.5830   -4.7100   21.5070 F   0  0  0  0  0  0  0  0  0  0  0  0
  -21.1230   -4.5300   26.0500 F   0  0  0  0  0  0  0  0  0  0  0  0
  -23.1760  -13.9680   21.1720 C   0  0  0  0  0  0  0  0  0  0  0  0
  -22.5130  -13.2770   22.0910 N   0  0  0  0  0  0  0  0  0  0  0  0
  -22.7190  -15.0080   20.7000 O   0  0  0  0  0  0  0  0  0  0  0  0
  -22.8990  -12.4370   22.4950 H   0  0  0  0  0  0  0  0  0  0  0  0
  -21.6040  -13.5940   22.3990 H   0  0  0  0  0  0  0  0  0  0  0  0
  -25.7510  -15.6150   20.2160 N   0  0  0  0  0  0  0  0  0  0  0  0
  -25.0070  -16.2760   20.4130 H   0  0  0  0  0  0  0  0  0  0  0  0
  -26.5760  -16.0530   19.8260 H   0  0  0  0  0  0  0  0  0  0  0  0
  -28.4580  -23.3490   19.3360 C   0  0  0  0  0 15  0  0  0  0  0  0
  -28.3640  -25.2460   19.7630 O   0  0  0  0  0  1  0  0  0  0  0  0
  -24.6220  -31.6870   22.9410 C   0  0  0  0  0  0  0  0  0  0  0  0
  -27.3780  -26.5830   19.7240 C   0  0  0  0  0  0  0  0  0  0  0  0
  -23.4990  -30.2790   21.2740 C   0  0  0  0  0  3  0  0  0  0  0  0
  -25.0190  -28.7060   19.7840 C   0  0  0  0  0  0  0  0  0  0  0  0
  -26.0830  -30.4710   21.1530 C   0  0  0  0  0  2  0  0  0  0  0  0
  -26.2120  -29.0350   20.4360 C   0  0  0  0  0  0  0  0  0  0  0  0
  -27.3500  -28.0090   20.3730 C   0  0  0  0  0  3  0  0  0  0  0  0
  -26.1350  -26.5620   19.0120 C   0  0  0  0  0  3  0  0  0  0  0  0
  -25.0380  -27.5050   19.0470 C   0  0  0  0  0  3  0  0  0  0  0  0
  -23.7720  -29.6240   19.8820 C   0  0  0  0  0  2  0  0  0  0  0  0
  -24.7610  -30.8550   21.8410 N   0  0  0  0  0  0  0  0  0  0  0  0
  -23.5160  -31.9190   23.4640 O   0  0  0  0  0  0  0  0  0  0  0  0
  -22.8240  -29.2540   22.2290 C   0  0  0  0  0  0  0  0  0  0  0  0
  -21.4940  -29.0510   22.1280 N   0  0  0  0  0  0  0  0  0  0  0  0
  -23.5160  -28.6370   23.0410 O   0  0  0  0  0  0  0  0  0  0  0  0
  -20.9770  -29.6010   21.4570 H   0  0  0  0  0  0  0  0  0  0  0  0
  -18.1810  -27.6380   22.6740 C   0  0  0  0  0  0  0  0  0  0  0  0
  -20.7300  -28.0450   22.8810 C   0  0  0  0  0  3  0  0  0  0  0  0
  -20.8930  -26.6420   22.2500 C   0  0  0  0  0  2  0  0  0  0  0  0
  -19.7860  -26.3000   21.2470 C   0  0  0  0  0  2  0  0  0  0  0  0
  -18.4150  -26.3350   21.9290 C   0  0  0  0  0  2  0  0  0  0  0  0
  -19.2670  -28.4490   23.1060 C   0  0  0  0  0  0  0  0  0  0  0  0
  -18.9880  -29.6620   23.7720 C   0  0  0  0  0  3  0  0  0  0  0  0
  -17.6590  -30.0700   24.0040 C   0  0  0  0  0  3  0  0  0  0  0  0
  -16.5910  -29.2590   23.5810 C   0  0  0  0  0  3  0  0  0  0  0  0
  -16.8530  -28.0450   22.9240 C   0  0  0  0  0  3  0  0  0  0  0  0
  -25.8420  -32.4020   23.6010 C   0  0  0  0  0  3  0  0  0  0  0  0
  -25.4330  -33.7680   23.9980 N   0  0  0  0  0  0  0  0  0  0  0  0
  -25.6900  -34.8910   23.3130 C   0  0  0  0  0  0  0  0  0  0  0  0
  -26.3440  -34.8900   22.2680 O   0  0  0  0  0  0  0  0  0  0  0  0
  -24.8420  -33.8360   24.8140 H   0  0  0  0  0  0  0  0  0  0  0  0
  -23.8490  -36.6070   23.1270 C   0  0  0  0  0  1  0  0  0  0  0  0
  -25.1410  -36.2250   23.8680 C   0  0  0  0  0  3  0  0  0  0  0  0
  -27.2410  -37.2090   24.6850 C   0  0  0  0  0  1  0  0  0  0  0  0
  -26.1050  -37.3460   23.7780 N   0  0  0  0  0  0  0  0  0  0  0  0
  -25.6470  -38.2330   23.9780 H   0  0  0  0  0  0  0  0  0  0  0  0
  -26.3950  -31.6340   24.8660 C   0  0  1  0  0  0  0  0  0  0  0  0
  -25.3130  -31.3150   25.9270 C   0  0  0  0  0  1  0  0  0  0  0  0
  -27.0540  -30.2980   24.4650 C   0  0  0  0  0  1  0  0  0  0  0  0
  -27.5000  -32.4740   25.5490 C   0  0  0  0  0  1  0  0  0  0  0  0
  1  2  2  0
  2  6  1  0
  2  4  1  0
  3  6  1  0
  5  3  2  0
  5  1  1  0
  7 13  1  0
  8 13  1  0
  9 10  1  0
  9  8  1  0
 11 10  1  0
 11 18  1  0
 11 12  1  0
 13 12  1  0
 14  7  1  0
 15 16  2  0
 16 35  1  0
 17 16  1  0
 17 20  1  0
 18 19  1  0
 18 15  1  0
 19 17  2  0
 20 21  1  0
 21 22  2  0
 23 26  1  0
 23 22  1  0
 24 23  2  0
 25 24  1  0
 25 20  2  0
 26 27  1  0
 27 32  2  0
 27 28  1  0
 28 29  2  0
 29 30  1  0
 30 34  1  0
 31 30  2  0
 32 31  1  0
 33 32  1  0
 35 36  1  0
 36 39  1  0
 36 38  1  0
 37 35  2  0
 40 15  1  0
 40 41  1  0
 42 40  1  0
 45 56  2  0
 46 44  1  0
 46 51  1  0
 47 55  1  0
 47 57  1  0
 48 54  1  0
 48 50  1  0
 49 55  1  0
 50 49  1  0
 51 50  2  0
 52 53  1  0
 52 46  2  0
 53 48  2  0
 54 47  1  0
 55 45  1  0
 57 59  2  0
 58 57  1  0
 60 58  1  0
 61 70  2  0
 61 66  1  0
 62 58  1  0
 62 66  1  0
 63 62  1  0
 64 65  1  0
 64 63  1  0
 65 61  1  0
 66 67  2  0
 67 68  1  0
 69 68  2  0
 70 69  1  0
 71 45  1  0
 71 72  1  0
 71 81  1  0
 72 75  1  0
 73 77  1  0
 73 72  1  0
 74 73  2  0
 77 76  1  0
 79 77  1  0
 79 80  1  0
 79 78  1  0
 81 84  1  1
 81 82  1  0
 83 81  1  0
M  ISO  4   3 100   7 100  43 101  44 101
M  END
>  <TORSDO>  (20) 
F 17

>  <SCORE>  (20) 
-14.572

>  <name>  (20) 
19

>  <ligand_id>  (20) 
19

>  <original_smiles>  (20) 
[H]c1c([H])c([H])c2c(c1[H])C([H])([H])C([H])([H])C([H])([H])C2([H])N([H])C(=O)C1([H])N(C(=O)C([H])(N([H])C(=O)C([H])(N([H])C([H])([H])[H])C([H])([H])[H])C(C([H])([H])[H])(C([H])([H])[H])C([H])([H])[H])C([H])([H])c2c([H])c(OC([H])([H])c3nc(C(=O)N4C([H])([H])C([H])([H])C([H])([H])C([H])(n5nc(-c6c([H])c([H])c(Oc7c([H])c([H])c(F)c([H])c7F)c([H])c6[H])c(C(=O)N([H])[H])c5N([H])[H])C4([H])[H])sc3C([H])([H])[H])c([H])c([H])c2C1([H])[H]

>  <smiles>  (20) 
[H]c1c([H])c([H])c2c(c1[H])C([H])([H])C([H])([H])C([H])([H])C2([H])N([H])C(=O)C1([H])N(C(=O)C([H])(N([H])C(=O)C([H])(N([H])C([H])([H])[H])C([H])([H])[H])C(C([H])([H])[H])(C([H])([H])[H])C([H])([H])[H])C([H])([H])c2c([H])c(OC([H])([H])c3nc(C(=O)N4C([H])([H])C([H])([H])C([H])([H])C([H])(n5nc(-c6c([H])c([H])c(Oc7c([H])c([H])c(F)c([H])c7F)c([H])c6[H])c(C(=O)N([H])[H])c5N([H])[H])C4([H])[H])sc3C([H])([H])[H])c([H])c([H])c2C1([H])[H]

$$$$
20:0:0
     RDKit          3D

 89 96  0  0  1  0  0  0  0  0999 V2000
  -29.5060  -21.4500   19.7040 C   0  0  0  0  0  3  0  0  0  0  0  0
  -29.0220  -22.7530   19.5550 C   0  0  0  0  0  0  0  0  0  0  0  0
  -29.4370  -23.5230   18.3080 C   0  0  0  0  0  1  0  0  0  0  0  0
  -30.6490  -20.4110   21.7010 C   0  0  0  0  0  1  0  0  0  0  0  0
  -29.4280  -20.2750   20.7700 C   0  0  0  0  0  3  0  0  0  0  0  0
  -29.2590  -18.8230   20.2420 N   0  0  0  0  0  4  0  0  0  0  0  0
  -28.3120  -18.5790   20.4880 H   0  0  0  0  0  0  0  0  0  0  0  0
  -29.2690  -18.8620   19.2350 H   0  0  0  0  0  0  0  0  0  0  0  0
  -30.1520  -17.6260   20.6710 C   0  0  0  0  0  2  0  0  0  0  0  0
  -29.5880  -16.1080   20.4910 C   0  0  0  0  0  2  0  0  0  0  0  0
  -30.5170  -14.7910   20.3870 C   0  0  0  0  0  0  0  0  0  0  0  0
  -30.3940  -12.4950   19.3990 C   0  0  0  0  0  2  0  0  0  0  0  0
  -29.4550  -12.5770   18.1710 C   0  0  0  0  0  2  0  0  0  0  0  0
  -27.9800  -12.3980   18.5850 C   0  0  0  0  0  2  0  0  0  0  0  0
  -27.6010  -13.2700   19.8110 C   0  0  0  0  0  3  0  0  0  0  0  0
  -28.6550  -13.1620   20.9330 C   0  0  0  0  0  2  0  0  0  0  0  0
  -29.9560  -13.5300   20.3640 N   0  0  0  0  0  0  0  0  0  0  0  0
  -31.7100  -14.9210   20.0960 O   0  0  0  0  0  0  0  0  0  0  0  0
  -25.2090  -13.8650   20.5280 C   0  0  0  0  0  0  0  0  0  0  0  0
  -24.1430  -13.0920   20.8950 C   0  0  0  0  0  0  0  0  0  0  0  0
  -24.6070  -11.7410   20.8710 C   0  0  0  0  0  0  0  0  0  0  0  0
  -26.2540  -12.9840   20.2970 N   0  0  0  0  0  0  0  0  0  0  0  0
  -25.8990  -11.7010   20.5660 N   0  0  0  0  0  0  0  0  0  0  0  0
  -23.8810  -10.4790   21.0620 C   0  0  0  0  0  0  0  0  0  0  0  0
  -24.3200   -9.5070   21.9870 C   0  0  0  0  0  3  0  0  0  0  0  0
  -23.5960   -8.3090   22.1650 C   0  0  0  0  0  3  0  0  0  0  0  0
  -22.4180   -8.0750   21.4140 C   0  0  0  0  0  0  0  0  0  0  0  0
  -21.9990   -9.0360   20.4770 C   0  0  0  0  0  3  0  0  0  0  0  0
  -22.7240  -10.2250   20.2980 C   0  0  0  0  0  3  0  0  0  0  0  0
  -21.6640   -6.9310   21.5000 O   0  0  0  0  0  0  0  0  0  0  0  0
  -21.6280   -6.1750   22.6450 C   0  0  0  0  0  0  0  0  0  0  0  0
  -21.2250   -6.7180   23.8840 C   0  0  0  0  0  3  0  0  0  0  0  0
  -21.1410   -5.8910   25.0210 C   0  0  0  0  0  3  0  0  0  0  0  0
  -21.4450   -4.5210   24.9200 C   0  0  0  0  0  0  0  0  0  0  0  0
  -21.8390   -3.9760   23.6850 C   0  0  0  0  0  3  0  0  0  0  0  0
  -21.9280   -4.8010   22.5490 C   0  0  0  0  0  0  0  0  0  0  0  0
  -22.2880   -4.2660   21.3580 F   0  0  0  0  0  0  0  0  0  0  0  0
  -21.3560   -3.7230   26.0100 F   0  0  0  0  0  0  0  0  0  0  0  0
  -22.7440  -13.5670   21.1590 C   0  0  0  0  0  0  0  0  0  0  0  0
  -22.0160  -12.8720   22.0260 N   0  0  0  0  0  0  0  0  0  0  0  0
  -22.3060  -14.5930   20.6380 O   0  0  0  0  0  0  0  0  0  0  0  0
  -22.3850  -12.0430   22.4690 H   0  0  0  0  0  0  0  0  0  0  0  0
  -21.0750  -13.1680   22.2440 H   0  0  0  0  0  0  0  0  0  0  0  0
  -25.3780  -15.2360   20.3440 N   0  0  0  0  0  0  0  0  0  0  0  0
  -24.6130  -15.8940   20.4450 H   0  0  0  0  0  0  0  0  0  0  0  0
  -26.2250  -15.6640   19.9960 H   0  0  0  0  0  0  0  0  0  0  0  0
  -28.0550  -23.6560   20.4170 C   0  0  0  0  0  2  0  0  0  0  0  0
  -28.4220  -25.1720   20.8850 C   0  0  0  0  0  2  0  0  0  0  0  0
  -28.3500  -26.4450   20.1000 O   0  0  0  0  0  0  0  0  0  0  0  0
  -24.5940  -31.8710   23.2090 C   0  0  0  0  0  0  0  0  0  0  0  0
  -27.2250  -27.2880   20.1680 C   0  0  0  0  0  0  0  0  0  0  0  0
  -23.4010  -30.4670   21.5680 C   0  0  0  0  0  3  0  0  0  0  0  0
  -24.8600  -28.9080   20.1550 C   0  0  0  0  0  0  0  0  0  0  0  0
  -25.9430  -30.7840   21.3930 C   0  0  0  0  0  2  0  0  0  0  0  0
  -26.0290  -29.4010   20.7490 C   0  0  0  0  0  0  0  0  0  0  0  0
  -27.2180  -28.6050   20.7400 C   0  0  0  0  0  3  0  0  0  0  0  0
  -26.0330  -26.8470   19.5630 C   0  0  0  0  0  3  0  0  0  0  0  0
  -24.8660  -27.6380   19.5530 C   0  0  0  0  0  3  0  0  0  0  0  0
  -23.6210  -29.7840   20.1910 C   0  0  0  0  0  2  0  0  0  0  0  0
  -24.6660  -31.0590   22.1130 N   0  0  0  0  0  0  0  0  0  0  0  0
  -23.5070  -32.1450   23.7390 O   0  0  0  0  0  0  0  0  0  0  0  0
  -22.7350  -29.4510   22.5290 C   0  0  0  0  0  0  0  0  0  0  0  0
  -21.4070  -29.2800   22.4050 N   0  0  0  0  0  0  0  0  0  0  0  0
  -23.4120  -28.8200   23.3420 O   0  0  0  0  0  0  0  0  0  0  0  0
  -20.9150  -29.8390   21.7210 H   0  0  0  0  0  0  0  0  0  0  0  0
  -18.0290  -28.0920   22.9200 C   0  0  0  0  0  0  0  0  0  0  0  0
  -20.5900  -28.3410   23.1770 C   0  0  0  0  0  3  0  0  0  0  0  0
  -20.6830  -26.9110   22.5930 C   0  0  0  0  0  2  0  0  0  0  0  0
  -19.5760  -26.5980   21.5820 C   0  0  0  0  0  2  0  0  0  0  0  0
  -18.1980  -26.7460   22.2350 C   0  0  0  0  0  2  0  0  0  0  0  0
  -19.1540  -28.8490   23.3480 C   0  0  0  0  0  0  0  0  0  0  0  0
  -18.9420  -30.1080   23.9480 C   0  0  0  0  0  3  0  0  0  0  0  0
  -17.6400  -30.6140   24.1230 C   0  0  0  0  0  3  0  0  0  0  0  0
  -16.5310  -29.8540   23.7130 C   0  0  0  0  0  3  0  0  0  0  0  0
  -16.7260  -28.5950   23.1190 C   0  0  0  0  0  3  0  0  0  0  0  0
  -25.8730  -32.5130   23.8330 C   0  0  0  0  0  3  0  0  0  0  0  0
  -25.5510  -33.9070   24.1770 N   0  0  0  0  0  0  0  0  0  0  0  0
  -25.8710  -34.9690   23.4260 C   0  0  0  0  0  0  0  0  0  0  0  0
  -26.5360  -34.8790   22.3890 O   0  0  0  0  0  0  0  0  0  0  0  0
  -24.9560  -34.0490   24.9810 H   0  0  0  0  0  0  0  0  0  0  0  0
  -24.1270  -36.7530   23.0980 C   0  0  0  0  0  1  0  0  0  0  0  0
  -25.3760  -36.3500   23.8980 C   0  0  0  0  0  3  0  0  0  0  0  0
  -27.5090  -37.2420   24.7250 C   0  0  0  0  0  1  0  0  0  0  0  0
  -26.4000  -37.4130   23.7900 N   0  0  0  0  0  0  0  0  0  0  0  0
  -25.9860  -38.3270   23.9540 H   0  0  0  0  0  0  0  0  0  0  0  0
  -26.3970  -31.7380   25.1040 C   0  0  1  0  0  0  0  0  0  0  0  0
  -25.3070  -31.4850   26.1720 C   0  0  0  0  0  1  0  0  0  0  0  0
  -26.9890  -30.3680   24.7040 C   0  0  0  0  0  1  0  0  0  0  0  0
  -27.5440  -32.5360   25.7670 C   0  0  0  0  0  1  0  0  0  0  0  0
  1  5  1  0
  2  1  2  0
  2 47  1  0
  3  2  1  0
  5  4  1  0
  6  7  1  0
  6  9  1  0
  6  5  1  0
  8  6  1  0
 10  9  1  0
 11 10  1  0
 12 17  1  0
 13 14  1  0
 13 12  1  0
 15 14  1  0
 15 22  1  0
 15 16  1  0
 17 11  1  0
 17 16  1  0
 18 11  2  0
 19 20  2  0
 20 39  1  0
 21 20  1  0
 21 24  1  0
 22 19  1  0
 22 23  1  0
 23 21  2  0
 24 25  1  0
 25 26  2  0
 27 30  1  0
 27 26  1  0
 28 27  2  0
 29 28  1  0
 29 24  2  0
 30 31  1  0
 31 32  1  0
 32 33  2  0
 34 33  1  0
 34 38  1  0
 35 34  2  0
 36 31  2  0
 36 35  1  0
 37 36  1  0
 39 40  1  0
 40 43  1  0
 40 42  1  0
 41 39  2  0
 44 45  1  0
 44 19  1  0
 46 44  1  0
 47 48  1  0
 49 51  1  0
 49 48  1  0
 50 61  2  0
 51 56  1  0
 52 60  1  0
 52 62  1  0
 53 59  1  0
 53 55  1  0
 54 60  1  0
 55 54  1  0
 56 55  2  0
 57 51  2  0
 58 57  1  0
 58 53  2  0
 59 52  1  0
 60 50  1  0
 62 64  2  0
 63 62  1  0
 65 63  1  0
 66 75  2  0
 66 71  1  0
 67 63  1  0
 67 71  1  0
 68 67  1  0
 69 70  1  0
 69 68  1  0
 70 66  1  0
 71 72  2  0
 72 73  1  0
 74 73  2  0
 75 74  1  0
 76 50  1  0
 76 77  1  0
 76 86  1  0
 77 80  1  0
 78 82  1  0
 78 77  1  0
 79 78  2  0
 82 81  1  0
 84 82  1  0
 84 85  1  0
 84 83  1  0
 86 89  1  1
 86 87  1  0
 88 86  1  0
M  ISO  4  10 100  11 100  48 101  49 101
M  END
>  <TORSDO>  (21) 
F 22

>  <SCORE>  (21) 
-13.045

>  <name>  (21) 
20

>  <ligand_id>  (21) 
20

>  <original_smiles>  (21) 
[H]C(=C(C([H])([H])[H])C([H])([H])C([H])([H])Oc1c([H])c([H])c2c(c1[H])C([H])([H])N(C(=O)C([H])(N([H])C(=O)C([H])(N([H])C([H])([H])[H])C([H])([H])[H])C(C([H])([H])[H])(C([H])([H])[H])C([H])([H])[H])C([H])(C(=O)N([H])C1([H])c3c([H])c([H])c([H])c([H])c3C([H])([H])C([H])([H])C1([H])[H])C2([H])[H])C([H])(C([H])([H])[H])[N+]([H])([H])C([H])([H])C([H])([H])C(=O)N1C([H])([H])C([H])([H])C([H])([H])C([H])(n2nc(-c3c([H])c([H])c(Oc4c([H])c([H])c(F)c([H])c4F)c([H])c3[H])c(C(=O)N([H])[H])c2N([H])[H])C1([H])[H]

>  <smiles>  (21) 
[H]C(=C(C([H])([H])[H])C([H])([H])C([H])([H])Oc1c([H])c([H])c2c(c1[H])C([H])([H])N(C(=O)C([H])(N([H])C(=O)C([H])(N([H])C([H])([H])[H])C([H])([H])[H])C(C([H])([H])[H])(C([H])([H])[H])C([H])([H])[H])C([H])(C(=O)N([H])C1([H])c3c([H])c([H])c([H])c([H])c3C([H])([H])C([H])([H])C1([H])[H])C2([H])[H])C([H])(C([H])([H])[H])[N+]([H])([H])C([H])([H])C([H])([H])C(=O)N1C([H])([H])C([H])([H])C([H])([H])C([H])(n2nc(-c3c([H])c([H])c(Oc4c([H])c([H])c(F)c([H])c4F)c([H])c3[H])c(C(=O)N([H])[H])c2N([H])[H])C1([H])[H]

$$$$
21:0:0
     RDKit          3D

 87 94  0  0  1  0  0  0  0  0999 V2000
  -29.2490  -21.2560   20.6000 C   0  0  0  0  0  0  0  0  0  0  0  0
  -29.2300  -19.8630   20.0940 N   0  0  0  0  0  4  0  0  0  0  0  0
  -29.8260  -21.3960   21.6800 O   0  0  0  0  0  0  0  0  0  0  0  0
  -28.6600  -19.7930   19.2600 H   0  0  0  0  0  0  0  0  0  0  0  0
  -31.3390  -18.5780   19.4460 C   0  0  0  0  0  1  0  0  0  0  0  0
  -30.1010  -18.4560   20.3440 C   0  0  0  0  0  0  0  0  0  0  0  0
  -28.3030  -16.7010   20.6260 C   0  0  0  0  0  2  0  0  0  0  0  0
  -29.6180  -16.7860   20.3850 C   0  0  0  0  0  0  0  0  0  0  0  0
  -30.4240  -15.3540   20.2050 C   0  0  0  0  0  0  0  0  0  0  0  0
  -30.4160  -12.9080   19.3010 C   0  0  0  0  0  2  0  0  0  0  0  0
  -29.4690  -12.7020   18.0900 C   0  0  0  0  0  2  0  0  0  0  0  0
  -28.0300  -12.4000   18.5490 C   0  0  0  0  0  2  0  0  0  0  0  0
  -27.5950  -13.3400   19.6980 C   0  0  0  0  0  3  0  0  0  0  0  0
  -28.6730  -13.4420   20.8020 C   0  0  0  0  0  2  0  0  0  0  0  0
  -29.8760  -14.0250   20.1710 N   0  0  0  0  0  0  0  0  0  0  0  0
  -31.6370  -15.3150   19.9420 O   0  0  0  0  0  0  0  0  0  0  0  0
  -25.2240  -13.8820   20.4810 C   0  0  0  0  0  0  0  0  0  0  0  0
  -24.1800  -13.0960   20.8750 C   0  0  0  0  0  0  0  0  0  0  0  0
  -24.6590  -11.7510   20.8270 C   0  0  0  0  0  0  0  0  0  0  0  0
  -26.2760  -13.0170   20.2240 N   0  0  0  0  0  0  0  0  0  0  0  0
  -25.9460  -11.7280   20.4970 N   0  0  0  0  0  0  0  0  0  0  0  0
  -23.9440  -10.4840   21.0180 C   0  0  0  0  0  0  0  0  0  0  0  0
  -24.3890   -9.5150   21.9420 C   0  0  0  0  0  3  0  0  0  0  0  0
  -23.6710   -8.3140   22.1230 C   0  0  0  0  0  3  0  0  0  0  0  0
  -22.4920   -8.0730   21.3790 C   0  0  0  0  0  0  0  0  0  0  0  0
  -22.0650   -9.0320   20.4420 C   0  0  0  0  0  3  0  0  0  0  0  0
  -22.7840  -10.2250   20.2600 C   0  0  0  0  0  3  0  0  0  0  0  0
  -21.7430   -6.9250   21.4710 O   0  0  0  0  0  0  0  0  0  0  0  0
  -21.7020   -6.1830   22.6230 C   0  0  0  0  0  0  0  0  0  0  0  0
  -21.2680   -6.7350   23.8500 C   0  0  0  0  0  3  0  0  0  0  0  0
  -21.1760   -5.9190   24.9940 C   0  0  0  0  0  3  0  0  0  0  0  0
  -21.5050   -4.5530   24.9140 C   0  0  0  0  0  0  0  0  0  0  0  0
  -21.9320   -4.0010   23.6930 C   0  0  0  0  0  3  0  0  0  0  0  0
  -22.0270   -4.8140   22.5510 C   0  0  0  0  0  0  0  0  0  0  0  0
  -22.4180   -4.2740   21.3720 F   0  0  0  0  0  0  0  0  0  0  0  0
  -21.4090   -3.7670   26.0120 F   0  0  0  0  0  0  0  0  0  0  0  0
  -22.7860  -13.5620   21.1700 C   0  0  0  0  0  0  0  0  0  0  0  0
  -22.0770  -12.8570   22.0430 N   0  0  0  0  0  0  0  0  0  0  0  0
  -22.3340  -14.5880   20.6620 O   0  0  0  0  0  0  0  0  0  0  0  0
  -22.4570  -12.0260   22.4730 H   0  0  0  0  0  0  0  0  0  0  0  0
  -21.1400  -13.1490   22.2820 H   0  0  0  0  0  0  0  0  0  0  0  0
  -25.3440  -15.2530   20.2880 N   0  0  0  0  0  0  0  0  0  0  0  0
  -24.5510  -15.8740   20.4000 H   0  0  0  0  0  0  0  0  0  0  0  0
  -26.1470  -15.7120   19.8780 H   0  0  0  0  0  0  0  0  0  0  0  0
  -28.6970  -22.7700   19.9200 C   0  0  0  0  0  2  0  0  0  0  0  0
  -28.1180  -24.3360   20.6040 C   0  0  0  0  0  2  0  0  0  0  0  0
  -28.2790  -25.9450   20.2870 O   0  0  0  0  0  0  0  0  0  0  0  0
  -24.6430  -31.8910   23.2320 C   0  0  0  0  0  0  0  0  0  0  0  0
  -27.2350  -27.0070   20.2840 C   0  0  0  0  0  0  0  0  0  0  0  0
  -23.4620  -30.4770   21.6010 C   0  0  0  0  0  3  0  0  0  0  0  0
  -24.9220  -28.8600   20.2090 C   0  0  0  0  0  0  0  0  0  0  0  0
  -26.0270  -30.7000   21.4620 C   0  0  0  0  0  2  0  0  0  0  0  0
  -26.1070  -29.2840   20.8240 C   0  0  0  0  0  0  0  0  0  0  0  0
  -27.2610  -28.3800   20.8300 C   0  0  0  0  0  3  0  0  0  0  0  0
  -26.0170  -26.7240   19.6280 C   0  0  0  0  0  3  0  0  0  0  0  0
  -24.9010  -27.5990   19.5910 C   0  0  0  0  0  3  0  0  0  0  0  0
  -23.7010  -29.7780   20.2340 C   0  0  0  0  0  2  0  0  0  0  0  0
  -24.7320  -31.0490   22.1520 N   0  0  0  0  0  0  0  0  0  0  0  0
  -23.5510  -32.1830   23.7450 O   0  0  0  0  0  0  0  0  0  0  0  0
  -22.7650  -29.4870   22.5720 C   0  0  0  0  0  0  0  0  0  0  0  0
  -21.4360  -29.3250   22.4450 N   0  0  0  0  0  0  0  0  0  0  0  0
  -23.4280  -28.8670   23.4060 O   0  0  0  0  0  0  0  0  0  0  0  0
  -20.9530  -29.8770   21.7490 H   0  0  0  0  0  0  0  0  0  0  0  0
  -18.0490  -28.1290   22.9600 C   0  0  0  0  0  0  0  0  0  0  0  0
  -20.6090  -28.3940   23.2220 C   0  0  0  0  0  3  0  0  0  0  0  0
  -20.7090  -26.9580   22.6560 C   0  0  0  0  0  2  0  0  0  0  0  0
  -19.6060  -26.6300   21.6440 C   0  0  0  0  0  2  0  0  0  0  0  0
  -18.2240  -26.7770   22.2880 C   0  0  0  0  0  2  0  0  0  0  0  0
  -19.1680  -28.8940   23.3840 C   0  0  0  0  0  0  0  0  0  0  0  0
  -18.9490  -30.1560   23.9770 C   0  0  0  0  0  3  0  0  0  0  0  0
  -17.6430  -30.6550   24.1480 C   0  0  0  0  0  3  0  0  0  0  0  0
  -16.5390  -29.8880   23.7380 C   0  0  0  0  0  3  0  0  0  0  0  0
  -16.7420  -28.6260   23.1500 C   0  0  0  0  0  3  0  0  0  0  0  0
  -25.9090  -32.5430   23.8660 C   0  0  0  0  0  3  0  0  0  0  0  0
  -26.4070  -31.7930   25.1640 C   0  0  1  0  0  0  0  0  0  0  0  0
  -25.3000  -31.5710   26.2210 C   0  0  0  0  0  1  0  0  0  0  0  0
  -26.9980  -30.4090   24.8090 C   0  0  0  0  0  1  0  0  0  0  0  0
  -27.5470  -32.5990   25.8300 C   0  0  0  0  0  1  0  0  0  0  0  0
  -25.5850  -33.9450   24.1850 N   0  0  0  0  0  0  0  0  0  0  0  0
  -25.9170  -35.0010   23.4300 C   0  0  0  0  0  0  0  0  0  0  0  0
  -26.5910  -34.8980   22.4020 O   0  0  0  0  0  0  0  0  0  0  0  0
  -24.9870  -34.0980   24.9830 H   0  0  0  0  0  0  0  0  0  0  0  0
  -24.1870  -36.7970   23.0730 C   0  0  0  0  0  1  0  0  0  0  0  0
  -25.4270  -36.3910   23.8870 C   0  0  0  0  0  3  0  0  0  0  0  0
  -27.5580  -37.2840   24.7220 C   0  0  0  0  0  1  0  0  0  0  0  0
  -26.4580  -37.4470   23.7750 N   0  0  0  0  0  0  0  0  0  0  0  0
  -26.0480  -38.3650   23.9210 H   0  0  0  0  0  0  0  0  0  0  0  0
  1  3  2  0
  2  6  2  3
  2  1  1  0
  4  2  1  0
  5  6  1  0
  6  8  1  0
  8  7  2  0
  9  8  1  0
 10 15  1  0
 11 12  1  0
 11 10  1  0
 13 12  1  0
 13 20  1  0
 13 14  1  0
 15  9  1  0
 15 14  1  0
 16  9  2  0
 17 18  2  0
 18 37  1  0
 19 18  1  0
 19 22  1  0
 20 17  1  0
 20 21  1  0
 21 19  2  0
 22 23  1  0
 23 24  2  0
 25 28  1  0
 25 24  1  0
 26 25  2  0
 27 26  1  0
 27 22  2  0
 28 29  1  0
 29 30  1  0
 30 31  2  0
 32 31  1  0
 32 36  1  0
 33 32  2  0
 34 29  2  0
 34 33  1  0
 35 34  1  0
 37 38  1  0
 38 41  1  0
 38 40  1  0
 39 37  2  0
 42 43  1  0
 42 17  1  0
 44 42  1  0
 45  1  1  0
 45 46  1  0
 47 46  1  0
 48 59  2  0
 49 47  1  0
 49 54  1  0
 50 58  1  0
 50 60  1  0
 51 57  1  0
 51 53  1  0
 52 58  1  0
 53 54  2  0
 53 52  1  0
 55 49  2  0
 56 55  1  0
 56 51  2  0
 57 50  1  0
 58 48  1  0
 60 62  2  0
 61 60  1  0
 63 61  1  0
 64 73  2  0
 64 69  1  0
 65 61  1  0
 65 69  1  0
 66 65  1  0
 67 68  1  0
 67 66  1  0
 68 64  1  0
 69 70  2  0
 70 71  1  0
 72 71  2  0
 73 72  1  0
 74 48  1  0
 74 79  1  0
 74 75  1  0
 75 78  1  1
 75 76  1  0
 77 75  1  0
 79 82  1  0
 80 84  1  0
 80 79  1  0
 81 80  2  0
 84 83  1  0
 86 84  1  0
 86 87  1  0
 86 85  1  0
M  ISO  4   8 100   9 100  46 101  47 101
M  END
>  <TORSDO>  (22) 
F 20

>  <SCORE>  (22) 
-15.597

>  <name>  (22) 
21

>  <ligand_id>  (22) 
21

>  <original_smiles>  (22) 
[H]C([H])=C(C(=O)N1C([H])([H])C([H])([H])C([H])([H])C([H])(n2nc(-c3c([H])c([H])c(Oc4c([H])c([H])c(F)c([H])c4F)c([H])c3[H])c(C(=O)N([H])[H])c2N([H])[H])C1([H])[H])C([H])(N([H])C(=O)C([H])([H])C([H])([H])Oc1c([H])c([H])c2c(c1[H])C([H])([H])N(C(=O)C([H])(N([H])C(=O)C([H])(N([H])C([H])([H])[H])C([H])([H])[H])C(C([H])([H])[H])(C([H])([H])[H])C([H])([H])[H])C([H])(C(=O)N([H])C1([H])c3c([H])c([H])c([H])c([H])c3C([H])([H])C([H])([H])C1([H])[H])C2([H])[H])C([H])([H])[H]

>  <smiles>  (22) 
[H]C([H])=C(C(=O)N1C([H])([H])C([H])([H])C([H])([H])C([H])(n2nc(-c3c([H])c([H])c(Oc4c([H])c([H])c(F)c([H])c4F)c([H])c3[H])c(C(=O)N([H])[H])c2N([H])[H])C1([H])[H])C([H])(N([H])C(=O)C([H])([H])C([H])([H])Oc1c([H])c([H])c2c(c1[H])C([H])([H])N(C(=O)C([H])(N([H])C(=O)C([H])(N([H])C([H])([H])[H])C([H])([H])[H])C(C([H])([H])[H])(C([H])([H])[H])C([H])([H])[H])C([H])(C(=O)N([H])C1([H])c3c([H])c([H])c([H])c([H])c3C([H])([H])C([H])([H])C1([H])[H])C2([H])[H])C([H])([H])[H]

$$$$
22:0:0
     RDKit          3D

 89 97  0  0  1  0  0  0  0  0999 V2000
  -29.1510  -21.4580   18.0980 C   0  0  0  0  0  2  0  0  0  0  0  0
  -30.4510  -21.2430   18.8820 C   0  0  0  0  0  2  0  0  0  0  0  0
  -28.1180  -21.9540   19.1230 C   0  0  0  0  0  2  0  0  0  0  0  0
  -30.0480  -21.3910   20.3530 C   0  0  0  0  0  3  0  0  0  0  0  0
  -28.8760  -22.3720   20.3260 N   0  0  1  0  0  4  0  0  0  0  0  0
  -28.2990  -22.2090   21.1380 H   0  0  0  0  0  0  0  0  0  0  0  0
  -29.9290  -19.9480   21.0880 C   0  0  0  0  0  2  0  0  0  0  0  0
  -29.4030  -18.6010   20.3800 C   0  0  0  0  0  2  0  0  0  0  0  0
  -29.7720  -15.9570   20.5730 C   0  0  0  0  0  3  0  0  0  0  0  0
  -30.2350  -17.2550   20.4370 C   0  0  0  0  0  3  0  0  0  0  0  0
  -30.6050  -14.7150   20.3960 C   0  0  0  0  0  0  0  0  0  0  0  0
  -30.3630  -12.4550   19.3700 C   0  0  0  0  0  2  0  0  0  0  0  0
  -29.4280  -12.5790   18.1470 C   0  0  0  0  0  2  0  0  0  0  0  0
  -27.9570  -12.4050   18.5730 C   0  0  0  0  0  2  0  0  0  0  0  0
  -27.5920  -13.2800   19.8000 C   0  0  0  0  0  3  0  0  0  0  0  0
  -28.6500  -13.1660   20.9180 C   0  0  0  0  0  2  0  0  0  0  0  0
  -29.9610  -13.4990   20.3400 N   0  0  0  0  0  0  0  0  0  0  0  0
  -31.7960  -14.7780   20.0790 O   0  0  0  0  0  0  0  0  0  0  0  0
  -25.2070  -13.8770   20.5340 C   0  0  0  0  0  0  0  0  0  0  0  0
  -24.1430  -13.1050   20.9060 C   0  0  0  0  0  0  0  0  0  0  0  0
  -24.6010  -11.7520   20.8750 C   0  0  0  0  0  0  0  0  0  0  0  0
  -26.2480  -12.9950   20.2910 N   0  0  0  0  0  0  0  0  0  0  0  0
  -25.8910  -11.7120   20.5600 N   0  0  0  0  0  0  0  0  0  0  0  0
  -23.8730  -10.4930   21.0690 C   0  0  0  0  0  0  0  0  0  0  0  0
  -24.3170   -9.5140   21.9850 C   0  0  0  0  0  3  0  0  0  0  0  0
  -23.5880   -8.3200   22.1670 C   0  0  0  0  0  3  0  0  0  0  0  0
  -22.4000   -8.0930   21.4310 C   0  0  0  0  0  0  0  0  0  0  0  0
  -21.9740   -9.0610   20.5040 C   0  0  0  0  0  3  0  0  0  0  0  0
  -22.7050  -10.2470   20.3220 C   0  0  0  0  0  3  0  0  0  0  0  0
  -21.6420   -6.9520   21.5220 O   0  0  0  0  0  0  0  0  0  0  0  0
  -21.6260   -6.1890   22.6630 C   0  0  0  0  0  0  0  0  0  0  0  0
  -21.2530   -6.7290   23.9140 C   0  0  0  0  0  3  0  0  0  0  0  0
  -21.1830   -5.8920   25.0460 C   0  0  0  0  0  3  0  0  0  0  0  0
  -21.4710   -4.5190   24.9290 C   0  0  0  0  0  0  0  0  0  0  0  0
  -21.8380   -3.9820   23.6820 C   0  0  0  0  0  3  0  0  0  0  0  0
  -21.9110   -4.8150   22.5530 C   0  0  0  0  0  0  0  0  0  0  0  0
  -22.2440   -4.2880   21.3490 F   0  0  0  0  0  0  0  0  0  0  0  0
  -21.3960   -3.7140   26.0140 F   0  0  0  0  0  0  0  0  0  0  0  0
  -22.7470  -13.5840   21.1810 C   0  0  0  0  0  0  0  0  0  0  0  0
  -22.0200  -12.8920   22.0490 N   0  0  0  0  0  0  0  0  0  0  0  0
  -22.3100  -14.6100   20.6610 O   0  0  0  0  0  0  0  0  0  0  0  0
  -22.3860  -12.0630   22.4940 H   0  0  0  0  0  0  0  0  0  0  0  0
  -21.0840  -13.1990   22.2750 H   0  0  0  0  0  0  0  0  0  0  0  0
  -25.3740  -15.2470   20.3560 N   0  0  0  0  0  0  0  0  0  0  0  0
  -24.6090  -15.9020   20.4800 H   0  0  0  0  0  0  0  0  0  0  0  0
  -26.2230  -15.6840   20.0210 H   0  0  0  0  0  0  0  0  0  0  0  0
  -29.2300  -23.8790   20.3370 C   0  0  0  0  0  3  0  0  0  0  0  0
  -28.0760  -24.9650   20.0550 C   0  0  0  0  0  3  0  0  0  0  0  0
  -28.3150  -26.4310   20.2060 O   0  0  0  0  0  0  0  0  0  0  0  0
  -24.6250  -31.8710   23.2320 C   0  0  0  0  0  0  0  0  0  0  0  0
  -27.2030  -27.2980   20.1530 C   0  0  0  0  0  0  0  0  0  0  0  0
  -23.4060  -30.4760   21.6030 C   0  0  0  0  0  3  0  0  0  0  0  0
  -24.8420  -28.9290   20.1610 C   0  0  0  0  0  0  0  0  0  0  0  0
  -25.9460  -30.7870   21.3990 C   0  0  0  0  0  2  0  0  0  0  0  0
  -26.0180  -29.4100   20.7500 C   0  0  0  0  0  0  0  0  0  0  0  0
  -27.2000  -28.6050   20.7370 C   0  0  0  0  0  3  0  0  0  0  0  0
  -26.0000  -26.8810   19.5340 C   0  0  0  0  0  3  0  0  0  0  0  0
  -24.8350  -27.6710   19.5460 C   0  0  0  0  0  3  0  0  0  0  0  0
  -23.6070  -29.8080   20.2200 C   0  0  0  0  0  2  0  0  0  0  0  0
  -24.6790  -31.0610   22.1350 N   0  0  0  0  0  0  0  0  0  0  0  0
  -23.5460  -32.1510   23.7750 O   0  0  0  0  0  0  0  0  0  0  0  0
  -22.7490  -29.4570   22.5650 C   0  0  0  0  0  0  0  0  0  0  0  0
  -21.4230  -29.2770   22.4430 N   0  0  0  0  0  0  0  0  0  0  0  0
  -23.4330  -28.8320   23.3810 O   0  0  0  0  0  0  0  0  0  0  0  0
  -20.9300  -29.8300   21.7550 H   0  0  0  0  0  0  0  0  0  0  0  0
  -18.0520  -28.0670   22.9450 C   0  0  0  0  0  0  0  0  0  0  0  0
  -20.6070  -28.3410   23.2180 C   0  0  0  0  0  3  0  0  0  0  0  0
  -20.7210  -26.9070   22.6500 C   0  0  0  0  0  2  0  0  0  0  0  0
  -19.6210  -26.5720   21.6390 C   0  0  0  0  0  2  0  0  0  0  0  0
  -18.2360  -26.7150   22.2760 C   0  0  0  0  0  2  0  0  0  0  0  0
  -19.1650  -28.8380   23.3710 C   0  0  0  0  0  0  0  0  0  0  0  0
  -18.9390  -30.1030   23.9550 C   0  0  0  0  0  3  0  0  0  0  0  0
  -17.6310  -30.5980   24.1180 C   0  0  0  0  0  3  0  0  0  0  0  0
  -16.5320  -29.8240   23.7090 C   0  0  0  0  0  3  0  0  0  0  0  0
  -16.7420  -28.5610   23.1290 C   0  0  0  0  0  3  0  0  0  0  0  0
  -25.9130  -32.5010   23.8450 C   0  0  0  0  0  3  0  0  0  0  0  0
  -25.6090  -33.8970   24.1860 N   0  0  0  0  0  0  0  0  0  0  0  0
  -25.9270  -34.9540   23.4270 C   0  0  0  0  0  0  0  0  0  0  0  0
  -26.5790  -34.8560   22.3840 O   0  0  0  0  0  0  0  0  0  0  0  0
  -25.0350  -34.0490   25.0030 H   0  0  0  0  0  0  0  0  0  0  0  0
  -24.1880  -36.7430   23.1060 C   0  0  0  0  0  1  0  0  0  0  0  0
  -25.4440  -36.3390   23.8970 C   0  0  0  0  0  3  0  0  0  0  0  0
  -27.5890  -37.2230   24.6980 C   0  0  0  0  0  1  0  0  0  0  0  0
  -26.4720  -37.3950   23.7720 N   0  0  0  0  0  0  0  0  0  0  0  0
  -26.0670  -38.3120   23.9350 H   0  0  0  0  0  0  0  0  0  0  0  0
  -26.4420  -31.7220   25.1110 C   0  0  1  0  0  0  0  0  0  0  0  0
  -25.3580  -31.4790   26.1890 C   0  0  0  0  0  1  0  0  0  0  0  0
  -27.0210  -30.3470   24.7060 C   0  0  0  0  0  1  0  0  0  0  0  0
  -27.6010  -32.5100   25.7680 C   0  0  0  0  0  1  0  0  0  0  0  0
  1  2  1  0
  1  3  1  0
  2  4  1  0
  3  5  1  0
  4  7  1  0
  5 47  1  0
  5  4  1  0
  5  6  1  1
  8 10  1  0
  8  7  1  0
 10  9  2  0
 11  9  1  0
 12 17  1  0
 13 14  1  0
 13 12  1  0
 15 14  1  0
 15 22  1  0
 15 16  1  0
 17 11  1  0
 17 16  1  0
 18 11  2  0
 19 20  2  0
 20 39  1  0
 21 20  1  0
 21 24  1  0
 22 19  1  0
 22 23  1  0
 23 21  2  0
 24 25  1  0
 25 26  2  0
 27 30  1  0
 27 26  1  0
 28 27  2  0
 29 28  1  0
 29 24  2  0
 30 31  1  0
 31 32  1  0
 32 33  2  0
 34 33  1  0
 34 38  1  0
 35 34  2  0
 36 31  2  0
 36 35  1  0
 37 36  1  0
 39 40  1  0
 40 43  1  0
 40 42  1  0
 41 39  2  0
 44 45  1  0
 44 19  1  0
 46 44  1  0
 48 49  1  0
 48 47  2  0
 50 61  2  0
 51 49  1  0
 51 56  1  0
 52 60  1  0
 52 62  1  0
 53 59  1  0
 53 55  1  0
 54 60  1  0
 55 54  1  0
 56 55  2  0
 57 58  1  0
 57 51  2  0
 58 53  2  0
 59 52  1  0
 60 50  1  0
 62 64  2  0
 63 62  1  0
 65 63  1  0
 66 75  2  0
 66 71  1  0
 67 63  1  0
 67 71  1  0
 68 67  1  0
 69 70  1  0
 69 68  1  0
 70 66  1  0
 71 72  2  0
 72 73  1  0
 74 73  2  0
 75 74  1  0
 76 50  1  0
 76 77  1  0
 76 86  1  0
 77 80  1  0
 78 82  1  0
 78 77  1  0
 79 78  2  0
 82 81  1  0
 84 82  1  0
 84 85  1  0
 84 83  1  0
 86 89  1  1
 86 87  1  0
 88 86  1  0
M  ISO  4   9 100  11 100  48 101  49 101
M  END
>  <TORSDO>  (23) 
F 21

>  <SCORE>  (23) 
-13.367

>  <name>  (23) 
22

>  <ligand_id>  (23) 
22

>  <original_smiles>  (23) 
[H]C(C(=O)N1C([H])([H])C([H])([H])C([H])([H])C([H])(n2nc(-c3c([H])c([H])c(Oc4c([H])c([H])c(F)c([H])c4F)c([H])c3[H])c(C(=O)N([H])[H])c2N([H])[H])C1([H])[H])=C([H])C([H])([H])C([H])([H])C1([H])C([H])([H])C([H])([H])C([H])([H])[N+]1([H])C([H])([H])C([H])([H])Oc1c([H])c([H])c2c(c1[H])C([H])([H])N(C(=O)C([H])(N([H])C(=O)C([H])(N([H])C([H])([H])[H])C([H])([H])[H])C(C([H])([H])[H])(C([H])([H])[H])C([H])([H])[H])C([H])(C(=O)N([H])C1([H])c3c([H])c([H])c([H])c([H])c3C([H])([H])C([H])([H])C1([H])[H])C2([H])[H]

>  <smiles>  (23) 
[H]C(C(=O)N1C([H])([H])C([H])([H])C([H])([H])C([H])(n2nc(-c3c([H])c([H])c(Oc4c([H])c([H])c(F)c([H])c4F)c([H])c3[H])c(C(=O)N([H])[H])c2N([H])[H])C1([H])[H])=C([H])C([H])([H])C([H])([H])C1([H])C([H])([H])C([H])([H])C([H])([H])[N+]1([H])C([H])([H])C([H])([H])Oc1c([H])c([H])c2c(c1[H])C([H])([H])N(C(=O)C([H])(N([H])C(=O)C([H])(N([H])C([H])([H])[H])C([H])([H])[H])C(C([H])([H])[H])(C([H])([H])[H])C([H])([H])[H])C([H])(C(=O)N([H])C1([H])c3c([H])c([H])c([H])c([H])c3C([H])([H])C([H])([H])C1([H])[H])C2([H])[H]

$$$$
23:0:0
     RDKit          3D

 85 92  0  0  1  0  0  0  0  0999 V2000
  -29.0560  -23.3250   20.3070 C   0  0  0  0  0  3  0  0  0  0  0  0
  -28.6630  -21.6780   20.3170 C   0  0  0  0  0  0  0  0  0  0  0  0
  -27.1610  -21.4620   20.4200 C   0  0  0  0  0  1  0  0  0  0  0  0
  -29.4700  -20.5780   20.2960 N   0  0  0  0  0  0  0  0  0  0  0  0
  -29.0140  -19.0560   20.3570 C   0  0  0  0  0  2  0  0  0  0  0  0
  -29.6910  -16.3300   20.4560 C   0  0  0  0  0  3  0  0  0  0  0  0
  -29.9860  -17.7140   20.2650 C   0  0  0  0  0  3  0  0  0  0  0  0
  -30.5760  -15.0540   20.2940 C   0  0  0  0  0  0  0  0  0  0  0  0
  -30.5070  -12.6820   19.3870 C   0  0  0  0  0  2  0  0  0  0  0  0
  -29.5890  -12.6220   18.1420 C   0  0  0  0  0  2  0  0  0  0  0  0
  -28.1170  -12.4100   18.5470 C   0  0  0  0  0  2  0  0  0  0  0  0
  -27.6900  -13.3260   19.7230 C   0  0  0  0  0  3  0  0  0  0  0  0
  -28.7320  -13.3440   20.8590 C   0  0  0  0  0  2  0  0  0  0  0  0
  -30.0110  -13.7730   20.2780 N   0  0  0  0  0  0  0  0  0  0  0  0
  -31.7790  -15.1110   20.0190 O   0  0  0  0  0  0  0  0  0  0  0  0
  -25.2930  -13.8810   20.4310 C   0  0  0  0  0  0  0  0  0  0  0  0
  -24.2350  -13.0980   20.7970 C   0  0  0  0  0  0  0  0  0  0  0  0
  -24.7150  -11.7520   20.7850 C   0  0  0  0  0  0  0  0  0  0  0  0
  -26.3500  -13.0140   20.2080 N   0  0  0  0  0  0  0  0  0  0  0  0
  -26.0110  -11.7290   20.4890 N   0  0  0  0  0  0  0  0  0  0  0  0
  -24.0000  -10.4820   20.9770 C   0  0  0  0  0  0  0  0  0  0  0  0
  -24.4200   -9.5350   21.9370 C   0  0  0  0  0  3  0  0  0  0  0  0
  -23.7050   -8.3320   22.1180 C   0  0  0  0  0  3  0  0  0  0  0  0
  -22.5530   -8.0670   21.3380 C   0  0  0  0  0  0  0  0  0  0  0  0
  -22.1520   -9.0030   20.3680 C   0  0  0  0  0  3  0  0  0  0  0  0
  -22.8680  -10.1980   20.1860 C   0  0  0  0  0  3  0  0  0  0  0  0
  -21.8110   -6.9150   21.4260 O   0  0  0  0  0  0  0  0  0  0  0  0
  -21.7300   -6.1980   22.5930 C   0  0  0  0  0  0  0  0  0  0  0  0
  -21.2450   -6.7720   23.7880 C   0  0  0  0  0  3  0  0  0  0  0  0
  -21.1110   -5.9810   24.9470 C   0  0  0  0  0  3  0  0  0  0  0  0
  -21.4550   -4.6170   24.9110 C   0  0  0  0  0  0  0  0  0  0  0  0
  -21.9330   -4.0410   23.7200 C   0  0  0  0  0  3  0  0  0  0  0  0
  -22.0680   -4.8300   22.5640 C   0  0  0  0  0  0  0  0  0  0  0  0
  -22.5080   -4.2650   21.4140 F   0  0  0  0  0  0  0  0  0  0  0  0
  -21.3200   -3.8540   26.0210 F   0  0  0  0  0  0  0  0  0  0  0  0
  -22.8280  -13.5610   21.0430 C   0  0  0  0  0  0  0  0  0  0  0  0
  -22.0960  -12.8730   21.9110 N   0  0  0  0  0  0  0  0  0  0  0  0
  -22.3850  -14.5730   20.4990 O   0  0  0  0  0  0  0  0  0  0  0  0
  -22.4660  -12.0560   22.3740 H   0  0  0  0  0  0  0  0  0  0  0  0
  -21.1530  -13.1720   22.1170 H   0  0  0  0  0  0  0  0  0  0  0  0
  -25.4450  -15.2530   20.2420 N   0  0  0  0  0  0  0  0  0  0  0  0
  -24.6710  -15.9010   20.3300 H   0  0  0  0  0  0  0  0  0  0  0  0
  -26.2850  -15.6880   19.8830 H   0  0  0  0  0  0  0  0  0  0  0  0
  -27.9970  -24.6480   20.1190 C   0  0  0  0  0  3  0  0  0  0  0  0
  -28.2800  -26.1900   20.2390 O   0  0  0  0  0  0  0  0  0  0  0  0
  -24.6720  -31.9010   23.2580 C   0  0  0  0  0  0  0  0  0  0  0  0
  -27.2280  -27.1850   20.1900 C   0  0  0  0  0  0  0  0  0  0  0  0
  -23.4630  -30.5170   21.6160 C   0  0  0  0  0  3  0  0  0  0  0  0
  -24.9020  -28.9450   20.1790 C   0  0  0  0  0  0  0  0  0  0  0  0
  -26.0200  -30.7730   21.4450 C   0  0  0  0  0  2  0  0  0  0  0  0
  -26.0870  -29.3830   20.7830 C   0  0  0  0  0  0  0  0  0  0  0  0
  -27.2510  -28.5210   20.7690 C   0  0  0  0  0  3  0  0  0  0  0  0
  -26.0130  -26.8520   19.5510 C   0  0  0  0  0  3  0  0  0  0  0  0
  -24.8780  -27.6930   19.5470 C   0  0  0  0  0  3  0  0  0  0  0  0
  -23.6780  -29.8460   20.2340 C   0  0  0  0  0  2  0  0  0  0  0  0
  -24.7390  -31.0850   22.1600 N   0  0  0  0  0  0  0  0  0  0  0  0
  -23.5890  -32.1840   23.7920 O   0  0  0  0  0  0  0  0  0  0  0  0
  -22.7840  -29.5080   22.5750 C   0  0  0  0  0  0  0  0  0  0  0  0
  -21.4550  -29.3380   22.4500 N   0  0  0  0  0  0  0  0  0  0  0  0
  -23.4570  -28.8780   23.3960 O   0  0  0  0  0  0  0  0  0  0  0  0
  -20.9680  -29.9000   21.7650 H   0  0  0  0  0  0  0  0  0  0  0  0
  -18.0760  -28.1280   22.9460 C   0  0  0  0  0  0  0  0  0  0  0  0
  -20.6340  -28.3960   23.2160 C   0  0  0  0  0  3  0  0  0  0  0  0
  -20.7400  -26.9650   22.6390 C   0  0  0  0  0  2  0  0  0  0  0  0
  -19.6400  -26.6410   21.6230 C   0  0  0  0  0  2  0  0  0  0  0  0
  -18.2580  -26.7810   22.2660 C   0  0  0  0  0  2  0  0  0  0  0  0
  -19.1920  -28.8920   23.3790 C   0  0  0  0  0  0  0  0  0  0  0  0
  -18.9700  -30.1520   23.9760 C   0  0  0  0  0  3  0  0  0  0  0  0
  -17.6630  -30.6470   24.1450 C   0  0  0  0  0  3  0  0  0  0  0  0
  -16.5610  -29.8810   23.7270 C   0  0  0  0  0  3  0  0  0  0  0  0
  -16.7680  -28.6220   23.1350 C   0  0  0  0  0  3  0  0  0  0  0  0
  -25.9530  -32.5310   23.8850 C   0  0  0  0  0  3  0  0  0  0  0  0
  -26.4620  -31.7570   25.1640 C   0  0  1  0  0  0  0  0  0  0  0  0
  -25.3670  -31.5260   26.2310 C   0  0  0  0  0  1  0  0  0  0  0  0
  -27.0390  -30.3750   24.7790 C   0  0  0  0  0  1  0  0  0  0  0  0
  -27.6150  -32.5450   25.8280 C   0  0  0  0  0  1  0  0  0  0  0  0
  -25.6450  -33.9290   24.2230 N   0  0  0  0  0  0  0  0  0  0  0  0
  -25.9510  -34.9870   23.4610 C   0  0  0  0  0  0  0  0  0  0  0  0
  -26.5880  -34.8880   22.4090 O   0  0  0  0  0  0  0  0  0  0  0  0
  -25.0770  -34.0770   25.0450 H   0  0  0  0  0  0  0  0  0  0  0  0
  -24.1920  -36.7670   23.1890 C   0  0  0  0  0  1  0  0  0  0  0  0
  -25.4750  -36.3730   23.9390 C   0  0  0  0  0  3  0  0  0  0  0  0
  -27.6390  -37.2840   24.6600 C   0  0  0  0  0  1  0  0  0  0  0  0
  -26.4910  -37.4350   23.7700 N   0  0  0  0  0  0  0  0  0  0  0  0
  -26.0840  -38.3530   23.9320 H   0  0  0  0  0  0  0  0  0  0  0  0
  1  2  1  0
  2  3  1  0
  4  2  2  0
  4  5  1  0
  7  5  1  0
  7  6  2  0
  8  6  1  0
  9 14  1  0
 10 11  1  0
 10  9  1  0
 12 11  1  0
 12 19  1  0
 12 13  1  0
 14  8  1  0
 14 13  1  0
 15  8  2  0
 16 17  2  0
 17 36  1  0
 18 17  1  0
 18 21  1  0
 19 16  1  0
 19 20  1  0
 20 18  2  0
 21 22  1  0
 22 23  2  0
 24 27  1  0
 24 23  1  0
 25 24  2  0
 26 25  1  0
 26 21  2  0
 27 28  1  0
 28 29  1  0
 29 30  2  0
 31 30  1  0
 31 35  1  0
 32 31  2  0
 33 28  2  0
 33 32  1  0
 34 33  1  0
 36 37  1  0
 37 40  1  0
 37 39  1  0
 38 36  2  0
 41 42  1  0
 41 16  1  0
 43 41  1  0
 44 45  1  0
 44  1  2  0
 46 57  2  0
 47 45  1  0
 47 52  1  0
 48 56  1  0
 48 58  1  0
 49 55  1  0
 49 51  1  0
 50 56  1  0
 51 50  1  0
 52 51  2  0
 53 47  2  0
 54 53  1  0
 54 49  2  0
 55 48  1  0
 56 46  1  0
 58 60  2  0
 59 58  1  0
 61 59  1  0
 62 71  2  0
 62 67  1  0
 63 59  1  0
 63 67  1  0
 64 63  1  0
 65 66  1  0
 65 64  1  0
 66 62  1  0
 67 68  2  0
 68 69  1  0
 70 69  2  0
 71 70  1  0
 72 46  1  0
 72 77  1  0
 72 73  1  0
 73 76  1  1
 73 74  1  0
 75 73  1  0
 77 80  1  0
 78 82  1  0
 78 77  1  0
 79 78  2  0
 82 81  1  0
 84 85  1  0
 84 82  1  0
 84 83  1  0
M  ISO  4   6 100   8 100  44 101  45 101
M  END
>  <TORSDO>  (24) 
F 20

>  <SCORE>  (24) 
-13.923

>  <name>  (24) 
23

>  <ligand_id>  (24) 
23

>  <original_smiles>  (24) 
[H]C(C(=O)N1C([H])([H])C([H])([H])C([H])([H])C([H])(n2nc(-c3c([H])c([H])c(Oc4c([H])c([H])c(F)c([H])c4F)c([H])c3[H])c(C(=O)N([H])[H])c2N([H])[H])C1([H])[H])=C([H])C([H])([H])N=C(C([H])([H])[H])C([H])([H])C([H])([H])Oc1c([H])c([H])c2c(c1[H])C([H])([H])N(C(=O)C([H])(N([H])C(=O)C([H])(N([H])C([H])([H])[H])C([H])([H])[H])C(C([H])([H])[H])(C([H])([H])[H])C([H])([H])[H])C([H])(C(=O)N([H])C1([H])c3c([H])c([H])c([H])c([H])c3C([H])([H])C([H])([H])C1([H])[H])C2([H])[H]

>  <smiles>  (24) 
[H]C(C(=O)N1C([H])([H])C([H])([H])C([H])([H])C([H])(n2nc(-c3c([H])c([H])c(Oc4c([H])c([H])c(F)c([H])c4F)c([H])c3[H])c(C(=O)N([H])[H])c2N([H])[H])C1([H])[H])=C([H])C([H])([H])N=C(C([H])([H])[H])C([H])([H])C([H])([H])Oc1c([H])c([H])c2c(c1[H])C([H])([H])N(C(=O)C([H])(N([H])C(=O)C([H])(N([H])C([H])([H])[H])C([H])([H])[H])C(C([H])([H])[H])(C([H])([H])[H])C([H])([H])[H])C([H])(C(=O)N([H])C1([H])c3c([H])c([H])c([H])c([H])c3C([H])([H])C([H])([H])C1([H])[H])C2([H])[H]

$$$$
24:0:0
     RDKit          3D

 90 97  0  0  1  0  0  0  0  0999 V2000
  -28.9080  -21.8620   19.7130 C   0  0  0  0  0  3  0  0  0  0  0  0
  -28.6160  -22.9150   17.3470 C   0  0  0  0  0  1  0  0  0  0  0  0
  -30.9410  -22.5540   18.2560 C   0  0  0  0  0  1  0  0  0  0  0  0
  -29.5430  -20.6480   17.4710 C   0  0  0  0  0  1  0  0  0  0  0  0
  -29.4980  -21.9960   18.2380 C   0  0  1  0  0  0  0  0  0  0  0  0
  -29.5550  -20.5470   20.4970 C   0  0  0  0  0  0  0  0  0  0  0  0
  -29.3120  -19.1820   20.2010 N   0  0  0  0  0  0  0  0  0  0  0  0
  -30.3550  -20.7990   21.4010 O   0  0  0  0  0  0  0  0  0  0  0  0
  -28.5950  -19.0290   19.5030 H   0  0  0  0  0  0  0  0  0  0  0  0
  -30.1300  -17.8880   20.5750 C   0  0  0  0  0  2  0  0  0  0  0  0
  -29.5560  -16.3150   20.5350 C   0  0  0  0  0  2  0  0  0  0  0  0
  -30.4560  -14.9340   20.3540 C   0  0  0  0  0  0  0  0  0  0  0  0
  -30.3560  -12.6090   19.3630 C   0  0  0  0  0  2  0  0  0  0  0  0
  -29.4000  -12.6390   18.1450 C   0  0  0  0  0  2  0  0  0  0  0  0
  -27.9380  -12.4300   18.5870 C   0  0  0  0  0  2  0  0  0  0  0  0
  -27.5590  -13.3090   19.8040 C   0  0  0  0  0  3  0  0  0  0  0  0
  -28.6270  -13.2500   20.9130 C   0  0  0  0  0  2  0  0  0  0  0  0
  -29.9050  -13.6590   20.3190 N   0  0  0  0  0  0  0  0  0  0  0  0
  -31.6540  -15.0320   20.0610 O   0  0  0  0  0  0  0  0  0  0  0  0
  -25.1800  -13.8860   20.5570 C   0  0  0  0  0  0  0  0  0  0  0  0
  -24.1180  -13.1040   20.9270 C   0  0  0  0  0  0  0  0  0  0  0  0
  -24.5870  -11.7550   20.8900 C   0  0  0  0  0  0  0  0  0  0  0  0
  -26.2230  -13.0080   20.3070 N   0  0  0  0  0  0  0  0  0  0  0  0
  -25.8760  -11.7210   20.5720 N   0  0  0  0  0  0  0  0  0  0  0  0
  -23.8630  -10.4910   21.0760 C   0  0  0  0  0  0  0  0  0  0  0  0
  -24.3020   -9.5170   22.0000 C   0  0  0  0  0  3  0  0  0  0  0  0
  -23.5780   -8.3180   22.1750 C   0  0  0  0  0  3  0  0  0  0  0  0
  -22.4030   -8.0830   21.4230 C   0  0  0  0  0  0  0  0  0  0  0  0
  -21.9810   -9.0450   20.4890 C   0  0  0  0  0  3  0  0  0  0  0  0
  -22.7070  -10.2350   20.3130 C   0  0  0  0  0  3  0  0  0  0  0  0
  -21.6480   -6.9380   21.5080 O   0  0  0  0  0  0  0  0  0  0  0  0
  -21.6110   -6.1830   22.6540 C   0  0  0  0  0  0  0  0  0  0  0  0
  -21.1860   -6.7260   23.8860 C   0  0  0  0  0  3  0  0  0  0  0  0
  -21.0940   -5.9000   25.0250 C   0  0  0  0  0  3  0  0  0  0  0  0
  -21.4170   -4.5320   24.9310 C   0  0  0  0  0  0  0  0  0  0  0  0
  -21.8370   -3.9910   23.7040 C   0  0  0  0  0  3  0  0  0  0  0  0
  -21.9310   -4.8130   22.5680 C   0  0  0  0  0  0  0  0  0  0  0  0
  -22.3140   -4.2820   21.3820 F   0  0  0  0  0  0  0  0  0  0  0  0
  -21.3240   -3.7370   26.0230 F   0  0  0  0  0  0  0  0  0  0  0  0
  -22.7210  -13.5760   21.2060 C   0  0  0  0  0  0  0  0  0  0  0  0
  -21.9960  -12.8720   22.0690 N   0  0  0  0  0  0  0  0  0  0  0  0
  -22.2820  -14.6060   20.6980 O   0  0  0  0  0  0  0  0  0  0  0  0
  -22.3630  -12.0390   22.5010 H   0  0  0  0  0  0  0  0  0  0  0  0
  -21.0600  -13.1740   22.3030 H   0  0  0  0  0  0  0  0  0  0  0  0
  -25.3390  -15.2570   20.3890 N   0  0  0  0  0  0  0  0  0  0  0  0
  -24.5720  -15.9090   20.5140 H   0  0  0  0  0  0  0  0  0  0  0  0
  -26.1920  -15.7050   20.0780 H   0  0  0  0  0  0  0  0  0  0  0  0
  -28.8310  -23.3780   20.4790 C   0  0  0  0  0  3  0  0  0  0  0  0
  -28.2920  -24.8200   19.7980 C   0  0  0  0  0  3  0  0  0  0  0  0
  -28.2740  -26.2550   20.3680 O   0  0  0  0  0  0  0  0  0  0  0  0
  -24.6190  -31.8940   23.2480 C   0  0  0  0  0  0  0  0  0  0  0  0
  -27.1990  -27.2030   20.2340 C   0  0  0  0  0  0  0  0  0  0  0  0
  -23.4160  -30.5000   21.6090 C   0  0  0  0  0  3  0  0  0  0  0  0
  -24.8660  -28.9350   20.1820 C   0  0  0  0  0  0  0  0  0  0  0  0
  -25.9700  -30.7750   21.4470 C   0  0  0  0  0  2  0  0  0  0  0  0
  -26.0410  -29.3890   20.7910 C   0  0  0  0  0  0  0  0  0  0  0  0
  -27.2070  -28.5380   20.7980 C   0  0  0  0  0  3  0  0  0  0  0  0
  -25.9940  -26.8500   19.5810 C   0  0  0  0  0  3  0  0  0  0  0  0
  -24.8550  -27.6800   19.5600 C   0  0  0  0  0  3  0  0  0  0  0  0
  -23.6330  -29.8230   20.2310 C   0  0  0  0  0  2  0  0  0  0  0  0
  -24.6870  -31.0750   22.1560 N   0  0  0  0  0  0  0  0  0  0  0  0
  -23.5320  -32.1810   23.7750 O   0  0  0  0  0  0  0  0  0  0  0  0
  -22.7340  -29.4930   22.5700 C   0  0  0  0  0  0  0  0  0  0  0  0
  -21.4070  -29.3170   22.4370 N   0  0  0  0  0  0  0  0  0  0  0  0
  -23.4040  -28.8700   23.3990 O   0  0  0  0  0  0  0  0  0  0  0  0
  -20.9210  -29.8650   21.7410 H   0  0  0  0  0  0  0  0  0  0  0  0
  -18.0280  -28.1200   22.9380 C   0  0  0  0  0  0  0  0  0  0  0  0
  -20.5850  -28.3850   23.2130 C   0  0  0  0  0  3  0  0  0  0  0  0
  -20.6900  -26.9490   22.6490 C   0  0  0  0  0  2  0  0  0  0  0  0
  -19.5920  -26.6210   21.6320 C   0  0  0  0  0  2  0  0  0  0  0  0
  -18.2080  -26.7680   22.2690 C   0  0  0  0  0  2  0  0  0  0  0  0
  -19.1440  -28.8860   23.3680 C   0  0  0  0  0  0  0  0  0  0  0  0
  -18.9190  -30.1520   23.9520 C   0  0  0  0  0  3  0  0  0  0  0  0
  -17.6120  -30.6480   24.1160 C   0  0  0  0  0  3  0  0  0  0  0  0
  -16.5110  -29.8790   23.7010 C   0  0  0  0  0  3  0  0  0  0  0  0
  -16.7200  -28.6170   23.1160 C   0  0  0  0  0  3  0  0  0  0  0  0
  -25.9000  -32.5240   23.8730 C   0  0  0  0  0  3  0  0  0  0  0  0
  -25.5930  -33.9270   24.1930 N   0  0  0  0  0  0  0  0  0  0  0  0
  -25.9300  -34.9740   23.4310 C   0  0  0  0  0  0  0  0  0  0  0  0
  -26.5960  -34.8640   22.4000 O   0  0  0  0  0  0  0  0  0  0  0  0
  -25.0000  -34.0870   24.9940 H   0  0  0  0  0  0  0  0  0  0  0  0
  -24.2140  -36.7800   23.0680 C   0  0  0  0  0  1  0  0  0  0  0  0
  -25.4500  -36.3680   23.8830 C   0  0  0  0  0  3  0  0  0  0  0  0
  -27.5840  -37.2480   24.7180 C   0  0  0  0  0  1  0  0  0  0  0  0
  -26.4900  -37.4140   23.7670 N   0  0  0  0  0  0  0  0  0  0  0  0
  -26.0860  -38.3370   23.9040 H   0  0  0  0  0  0  0  0  0  0  0  0
  -26.4030  -31.7600   25.1600 C   0  0  1  0  0  0  0  0  0  0  0  0
  -25.3000  -31.5380   26.2210 C   0  0  0  0  0  1  0  0  0  0  0  0
  -26.9830  -30.3720   24.7950 C   0  0  0  0  0  1  0  0  0  0  0  0
  -27.5520  -32.5560   25.8210 C   0  0  0  0  0  1  0  0  0  0  0  0
  1 48  1  0
  1  6  1  0
  5  2  1  6
  4  5  1  0
  5  3  1  0
  5  1  1  0
  6  8  2  0
  7  6  1  0
  7 10  1  0
  9  7  1  0
 11 10  1  0
 12 11  1  0
 13 18  1  0
 14 15  1  0
 14 13  1  0
 16 15  1  0
 16 23  1  0
 16 17  1  0
 18 12  1  0
 18 17  1  0
 19 12  2  0
 20 21  2  0
 21 40  1  0
 22 21  1  0
 22 25  1  0
 23 20  1  0
 23 24  1  0
 24 22  2  0
 25 26  1  0
 26 27  2  0
 28 31  1  0
 28 27  1  0
 29 28  2  0
 30 29  1  0
 30 25  2  0
 31 32  1  0
 32 33  1  0
 33 34  2  0
 35 34  1  0
 35 39  1  0
 36 35  2  0
 37 32  2  0
 37 36  1  0
 38 37  1  0
 40 41  1  0
 41 44  1  0
 41 43  1  0
 42 40  2  0
 45 46  1  0
 45 20  1  0
 47 45  1  0
 49 50  1  0
 49 48  2  0
 51 62  2  0
 52 50  1  0
 52 57  1  0
 53 61  1  0
 53 63  1  0
 54 60  1  0
 54 56  1  0
 55 61  1  0
 56 57  2  0
 56 55  1  0
 58 52  2  0
 59 58  1  0
 59 54  2  0
 60 53  1  0
 61 51  1  0
 63 65  2  0
 64 63  1  0
 66 64  1  0
 67 76  2  0
 67 72  1  0
 68 64  1  0
 68 72  1  0
 69 68  1  0
 70 71  1  0
 70 69  1  0
 71 67  1  0
 72 73  2  0
 73 74  1  0
 75 74  2  0
 76 75  1  0
 77 51  1  0
 77 78  1  0
 77 87  1  0
 78 81  1  0
 79 83  1  0
 79 78  1  0
 80 79  2  0
 83 82  1  0
 85 83  1  0
 85 86  1  0
 85 84  1  0
 87 90  1  1
 87 88  1  0
 89 87  1  0
M  ISO  4  11 100  12 100  49 101  50 101
M  END
>  <TORSDO>  (25) 
F 22

>  <SCORE>  (25) 
-13.577

>  <name>  (25) 
24

>  <ligand_id>  (25) 
24

>  <original_smiles>  (25) 
[H]c1c([H])c([H])c2c(c1[H])C([H])([H])C([H])([H])C([H])([H])C2([H])N([H])C(=O)C1([H])N(C(=O)C([H])(N([H])C(=O)C([H])(N([H])C([H])([H])[H])C([H])([H])[H])C(C([H])([H])[H])(C([H])([H])[H])C([H])([H])[H])C([H])([H])c2c([H])c(OC([H])([H])C([H])([H])C([H])(C(=O)N([H])C([H])([H])C([H])([H])C(=O)N3C([H])([H])C([H])([H])C([H])([H])C([H])(n4nc(-c5c([H])c([H])c(Oc6c([H])c([H])c(F)c([H])c6F)c([H])c5[H])c(C(=O)N([H])[H])c4N([H])[H])C3([H])[H])C(C([H])([H])[H])(C([H])([H])[H])C([H])([H])[H])c([H])c([H])c2C1([H])[H]

>  <smiles>  (25) 
[H]c1c([H])c([H])c2c(c1[H])C([H])([H])C([H])([H])C([H])([H])C2([H])N([H])C(=O)C1([H])N(C(=O)C([H])(N([H])C(=O)C([H])(N([H])C([H])([H])[H])C([H])([H])[H])C(C([H])([H])[H])(C([H])([H])[H])C([H])([H])[H])C([H])([H])c2c([H])c(OC([H])([H])C([H])([H])C([H])(C(=O)N([H])C([H])([H])C([H])([H])C(=O)N3C([H])([H])C([H])([H])C([H])([H])C([H])(n4nc(-c5c([H])c([H])c(Oc6c([H])c([H])c(F)c([H])c6F)c([H])c5[H])c(C(=O)N([H])[H])c4N([H])[H])C3([H])[H])C(C([H])([H])[H])(C([H])([H])[H])C([H])([H])[H])c([H])c([H])c2C1([H])[H]

$$$$
25:0:0
     RDKit          3D

 86 94  0  0  1  0  0  0  0  0999 V2000
  -28.8190  -23.0650   21.3480 C   0  0  0  0  0  2  0  0  0  0  0  0
  -28.3060  -23.0310   19.0870 C   0  0  0  0  0  2  0  0  0  0  0  0
  -28.6780  -21.3530   21.4020 C   0  0  0  0  0  2  0  0  0  0  0  0
  -29.1470  -21.5330   19.1340 C   0  0  0  0  0  2  0  0  0  0  0  0
  -28.0430  -24.1100   20.3230 C   0  0  0  0  0  3  0  0  0  0  0  0
  -28.8880  -20.3960   20.1780 N   0  0  1  0  0  4  0  0  0  0  0  0
  -27.9580  -20.0780   19.9470 H   0  0  0  0  0  0  0  0  0  0  0  0
  -28.1680  -25.8110   20.3100 O   0  0  0  0  0  0  0  0  0  0  0  0
  -24.6150  -31.9030   23.2600 C   0  0  0  0  0  0  0  0  0  0  0  0
  -27.1520  -26.9370   20.2660 C   0  0  0  0  0  0  0  0  0  0  0  0
  -23.4220  -30.5070   21.6220 C   0  0  0  0  0  3  0  0  0  0  0  0
  -24.8660  -28.8780   20.2080 C   0  0  0  0  0  0  0  0  0  0  0  0
  -25.9930  -30.6870   21.4840 C   0  0  0  0  0  2  0  0  0  0  0  0
  -26.0580  -29.2670   20.8310 C   0  0  0  0  0  0  0  0  0  0  0  0
  -27.1920  -28.3210   20.8260 C   0  0  0  0  0  3  0  0  0  0  0  0
  -25.9250  -26.7180   19.5960 C   0  0  0  0  0  3  0  0  0  0  0  0
  -24.8310  -27.6270   19.5680 C   0  0  0  0  0  3  0  0  0  0  0  0
  -23.6540  -29.8150   20.2490 C   0  0  0  0  0  2  0  0  0  0  0  0
  -24.6990  -31.0630   22.1750 N   0  0  0  0  0  0  0  0  0  0  0  0
  -23.5250  -32.1990   23.7760 O   0  0  0  0  0  0  0  0  0  0  0  0
  -22.7150  -29.5220   22.5910 C   0  0  0  0  0  0  0  0  0  0  0  0
  -21.3860  -29.3530   22.4560 N   0  0  0  0  0  0  0  0  0  0  0  0
  -23.3740  -28.9080   23.4340 O   0  0  0  0  0  0  0  0  0  0  0  0
  -20.9070  -29.8990   21.7540 H   0  0  0  0  0  0  0  0  0  0  0  0
  -18.0070  -28.1160   22.9370 C   0  0  0  0  0  0  0  0  0  0  0  0
  -20.5610  -28.4160   23.2270 C   0  0  0  0  0  3  0  0  0  0  0  0
  -20.6850  -26.9780   22.6710 C   0  0  0  0  0  2  0  0  0  0  0  0
  -19.5990  -26.6330   21.6460 C   0  0  0  0  0  2  0  0  0  0  0  0
  -18.2090  -26.7650   22.2720 C   0  0  0  0  0  2  0  0  0  0  0  0
  -19.1120  -28.8970   23.3710 C   0  0  0  0  0  0  0  0  0  0  0  0
  -18.8670  -30.1590   23.9560 C   0  0  0  0  0  3  0  0  0  0  0  0
  -17.5530  -30.6400   24.1090 C   0  0  0  0  0  3  0  0  0  0  0  0
  -16.4640  -29.8570   23.6880 C   0  0  0  0  0  3  0  0  0  0  0  0
  -16.6920  -28.5960   23.1080 C   0  0  0  0  0  3  0  0  0  0  0  0
  -25.8840  -32.5470   23.8970 C   0  0  0  0  0  3  0  0  0  0  0  0
  -25.5680  -33.9490   24.2280 N   0  0  0  0  0  0  0  0  0  0  0  0
  -25.8820  -35.0090   23.4710 C   0  0  0  0  0  0  0  0  0  0  0  0
  -26.5300  -34.9080   22.4250 O   0  0  0  0  0  0  0  0  0  0  0  0
  -24.9890  -34.1000   25.0410 H   0  0  0  0  0  0  0  0  0  0  0  0
  -24.1370  -36.8010   23.1800 C   0  0  0  0  0  1  0  0  0  0  0  0
  -25.4080  -36.3990   23.9450 C   0  0  0  0  0  3  0  0  0  0  0  0
  -27.5640  -37.3030   24.7000 C   0  0  0  0  0  1  0  0  0  0  0  0
  -26.4320  -37.4570   23.7900 N   0  0  0  0  0  0  0  0  0  0  0  0
  -26.0260  -38.3760   23.9420 H   0  0  0  0  0  0  0  0  0  0  0  0
  -26.3790  -31.7890   25.1910 C   0  0  1  0  0  0  0  0  0  0  0  0
  -25.2710  -31.5680   26.2480 C   0  0  0  0  0  1  0  0  0  0  0  0
  -26.9610  -30.4040   24.8300 C   0  0  0  0  0  1  0  0  0  0  0  0
  -27.5250  -32.5840   25.8590 C   0  0  0  0  0  1  0  0  0  0  0  0
  -29.7910  -18.9240   20.1980 C   0  0  0  0  0  3  0  0  0  0  0  0
  -29.4200  -17.1050   20.3380 C   0  0  0  0  0  3  0  0  0  0  0  0
  -30.3030  -15.5340   20.1420 C   0  0  0  0  0  0  0  0  0  0  0  0
  -30.3710  -13.0450   19.2770 C   0  0  0  0  0  2  0  0  0  0  0  0
  -29.4250  -12.7820   18.0720 C   0  0  0  0  0  2  0  0  0  0  0  0
  -27.9970  -12.4610   18.5490 C   0  0  0  0  0  2  0  0  0  0  0  0
  -27.5490  -13.4170   19.6790 C   0  0  0  0  0  3  0  0  0  0  0  0
  -28.6190  -13.6110   20.7720 C   0  0  0  0  0  2  0  0  0  0  0  0
  -29.8150  -14.1770   20.1230 N   0  0  0  0  0  0  0  0  0  0  0  0
  -31.5150  -15.5400   19.8650 O   0  0  0  0  0  0  0  0  0  0  0  0
  -25.2050  -13.9320   20.5290 C   0  0  0  0  0  0  0  0  0  0  0  0
  -24.1620  -13.1390   20.9160 C   0  0  0  0  0  0  0  0  0  0  0  0
  -24.6400  -11.7930   20.8440 C   0  0  0  0  0  0  0  0  0  0  0  0
  -26.2450  -13.0720   20.2290 N   0  0  0  0  0  0  0  0  0  0  0  0
  -25.9200  -11.7770   20.4880 N   0  0  0  0  0  0  0  0  0  0  0  0
  -23.9270  -10.5220   21.0320 C   0  0  0  0  0  0  0  0  0  0  0  0
  -24.3720   -9.5540   21.9590 C   0  0  0  0  0  3  0  0  0  0  0  0
  -23.6560   -8.3510   22.1380 C   0  0  0  0  0  3  0  0  0  0  0  0
  -22.4810   -8.1060   21.3870 C   0  0  0  0  0  0  0  0  0  0  0  0
  -22.0550   -9.0620   20.4490 C   0  0  0  0  0  3  0  0  0  0  0  0
  -22.7720  -10.2570   20.2690 C   0  0  0  0  0  3  0  0  0  0  0  0
  -21.7360   -6.9540   21.4740 O   0  0  0  0  0  0  0  0  0  0  0  0
  -21.6690   -6.2250   22.6350 C   0  0  0  0  0  0  0  0  0  0  0  0
  -21.1790   -6.7820   23.8360 C   0  0  0  0  0  3  0  0  0  0  0  0
  -21.0620   -5.9780   24.9880 C   0  0  0  0  0  3  0  0  0  0  0  0
  -21.4260   -4.6190   24.9380 C   0  0  0  0  0  0  0  0  0  0  0  0
  -21.9100   -4.0620   23.7410 C   0  0  0  0  0  3  0  0  0  0  0  0
  -22.0280   -4.8630   22.5920 C   0  0  0  0  0  0  0  0  0  0  0  0
  -22.4740   -4.3170   21.4360 F   0  0  0  0  0  0  0  0  0  0  0  0
  -21.3090   -3.8440   26.0420 F   0  0  0  0  0  0  0  0  0  0  0  0
  -22.7710  -13.5990   21.2370 C   0  0  0  0  0  0  0  0  0  0  0  0
  -22.0740  -12.8840   22.1130 N   0  0  0  0  0  0  0  0  0  0  0  0
  -22.3120  -14.6310   20.7460 O   0  0  0  0  0  0  0  0  0  0  0  0
  -22.4610  -12.0500   22.5300 H   0  0  0  0  0  0  0  0  0  0  0  0
  -21.1430  -13.1760   22.3710 H   0  0  0  0  0  0  0  0  0  0  0  0
  -25.3510  -15.3090   20.3770 N   0  0  0  0  0  0  0  0  0  0  0  0
  -24.5850  -15.9530   20.5340 H   0  0  0  0  0  0  0  0  0  0  0  0
  -26.1880  -15.7630   20.0350 H   0  0  0  0  0  0  0  0  0  0  0  0
  1  3  1  0
  2  4  1  0
  2  5  1  0
  4  6  1  0
  5  8  1  0
  5  1  1  0
  6 49  1  0
  6  3  1  0
  6  7  1  6
  9 20  2  0
 10  8  1  0
 10 15  1  0
 11 19  1  0
 11 21  1  0
 12 18  1  0
 12 14  1  0
 13 19  1  0
 14 13  1  0
 15 14  2  0
 16 10  2  0
 17 16  1  0
 17 12  2  0
 18 11  1  0
 19  9  1  0
 21 23  2  0
 22 21  1  0
 24 22  1  0
 25 34  2  0
 25 30  1  0
 26 22  1  0
 26 30  1  0
 27 26  1  0
 28 29  1  0
 28 27  1  0
 29 25  1  0
 30 31  2  0
 31 32  1  0
 33 32  2  0
 34 33  1  0
 35  9  1  0
 35 36  1  0
 35 45  1  0
 36 39  1  0
 37 41  1  0
 37 36  1  0
 38 37  2  0
 41 40  1  0
 43 44  1  0
 43 41  1  0
 43 42  1  0
 45 48  1  1
 45 46  1  0
 47 45  1  0
 49 50  2  0
 51 50  1  0
 52 57  1  0
 53 54  1  0
 53 52  1  0
 55 54  1  0
 55 62  1  0
 55 56  1  0
 57 51  1  0
 57 56  1  0
 58 51  2  0
 59 60  2  0
 60 79  1  0
 61 60  1  0
 61 64  1  0
 62 63  1  0
 62 59  1  0
 63 61  2  0
 64 65  1  0
 65 66  2  0
 67 70  1  0
 67 66  1  0
 68 67  2  0
 69 68  1  0
 69 64  2  0
 70 71  1  0
 71 72  1  0
 72 73  2  0
 74 73  1  0
 74 78  1  0
 75 74  2  0
 76 71  2  0
 76 75  1  0
 77 76  1  0
 79 80  1  0
 80 83  1  0
 80 82  1  0
 81 79  2  0
 84 59  1  0
 84 85  1  0
 86 84  1  0
M  ISO  4   5 101   8 101  50 100  51 100
M  END
>  <TORSDO>  (26) 
F 18

>  <SCORE>  (26) 
-16.594

>  <name>  (26) 
25

>  <ligand_id>  (26) 
25

>  <original_smiles>  (26) 
[H]c1c([H])c([H])c2c(c1[H])C([H])([H])C([H])([H])C([H])([H])C2([H])N([H])C(=O)C1([H])N(C(=O)C([H])(N([H])C(=O)C([H])(N([H])C([H])([H])[H])C([H])([H])[H])C(C([H])([H])[H])(C([H])([H])[H])C([H])([H])[H])C([H])([H])c2c([H])c(OC3([H])C([H])([H])C([H])([H])[N+]([H])(C([H])([H])C([H])([H])C(=O)N4C([H])([H])C([H])([H])C([H])([H])C([H])(n5nc(-c6c([H])c([H])c(Oc7c([H])c([H])c(F)c([H])c7F)c([H])c6[H])c(C(=O)N([H])[H])c5N([H])[H])C4([H])[H])C([H])([H])C3([H])[H])c([H])c([H])c2C1([H])[H]

>  <smiles>  (26) 
[H]c1c([H])c([H])c2c(c1[H])C([H])([H])C([H])([H])C([H])([H])C2([H])N([H])C(=O)C1([H])N(C(=O)C([H])(N([H])C(=O)C([H])(N([H])C([H])([H])[H])C([H])([H])[H])C(C([H])([H])[H])(C([H])([H])[H])C([H])([H])[H])C([H])([H])c2c([H])c(OC3([H])C([H])([H])C([H])([H])[N+]([H])(C([H])([H])C([H])([H])C(=O)N4C([H])([H])C([H])([H])C([H])([H])C([H])(n5nc(-c6c([H])c([H])c(Oc7c([H])c([H])c(F)c([H])c7F)c([H])c6[H])c(C(=O)N([H])[H])c5N([H])[H])C4([H])[H])C([H])([H])C3([H])[H])c([H])c([H])c2C1([H])[H]

$$$$
26:0:0
     RDKit          3D

 86 93  0  0  1  0  0  0  0  0999 V2000
  -28.4900  -21.2480   20.3150 C   0  0  0  0  0  0  0  0  0  0  0  0
  -27.0150  -21.3970   20.0040 C   0  0  0  0  0  1  0  0  0  0  0  0
  -28.8290  -19.8660   20.3260 N   0  0  0  0  0  0  0  0  0  0  0  0
  -28.9920  -22.9280   20.5190 C   0  0  0  0  0  3  0  0  0  0  0  0
  -28.0240  -24.4190   20.2280 C   0  0  0  0  0  3  0  0  0  0  0  0
  -28.2530  -26.0310   20.3950 O   0  0  0  0  0  0  0  0  0  0  0  0
  -24.6290  -31.9340   23.3000 C   0  0  0  0  0  0  0  0  0  0  0  0
  -27.2230  -27.0990   20.3040 C   0  0  0  0  0  0  0  0  0  0  0  0
  -23.4470  -30.5410   21.6500 C   0  0  0  0  0  3  0  0  0  0  0  0
  -24.9090  -28.9430   20.2350 C   0  0  0  0  0  0  0  0  0  0  0  0
  -26.0090  -30.7690   21.5140 C   0  0  0  0  0  2  0  0  0  0  0  0
  -26.0880  -29.3650   20.8600 C   0  0  0  0  0  0  0  0  0  0  0  0
  -27.2420  -28.4630   20.8670 C   0  0  0  0  0  3  0  0  0  0  0  0
  -26.0130  -26.8210   19.6290 C   0  0  0  0  0  3  0  0  0  0  0  0
  -24.8930  -27.6930   19.5990 C   0  0  0  0  0  3  0  0  0  0  0  0
  -23.6850  -29.8560   20.2730 C   0  0  0  0  0  2  0  0  0  0  0  0
  -24.7160  -31.1070   22.2090 N   0  0  0  0  0  0  0  0  0  0  0  0
  -23.5350  -32.2220   23.8140 O   0  0  0  0  0  0  0  0  0  0  0  0
  -22.7480  -29.5430   22.6090 C   0  0  0  0  0  0  0  0  0  0  0  0
  -21.4220  -29.3740   22.4670 N   0  0  0  0  0  0  0  0  0  0  0  0
  -23.4070  -28.9220   23.4470 O   0  0  0  0  0  0  0  0  0  0  0  0
  -20.9430  -29.9270   21.7690 H   0  0  0  0  0  0  0  0  0  0  0  0
  -18.0360  -28.1520   22.9360 C   0  0  0  0  0  0  0  0  0  0  0  0
  -20.5910  -28.4320   23.2270 C   0  0  0  0  0  3  0  0  0  0  0  0
  -20.7060  -27.0000   22.6530 C   0  0  0  0  0  2  0  0  0  0  0  0
  -19.6160  -26.6730   21.6260 C   0  0  0  0  0  2  0  0  0  0  0  0
  -18.2260  -26.8070   22.2550 C   0  0  0  0  0  2  0  0  0  0  0  0
  -19.1460  -28.9230   23.3750 C   0  0  0  0  0  0  0  0  0  0  0  0
  -18.9110  -30.1790   23.9740 C   0  0  0  0  0  3  0  0  0  0  0  0
  -17.6000  -30.6690   24.1330 C   0  0  0  0  0  3  0  0  0  0  0  0
  -16.5050  -29.8980   23.7040 C   0  0  0  0  0  3  0  0  0  0  0  0
  -16.7240  -28.6410   23.1140 C   0  0  0  0  0  3  0  0  0  0  0  0
  -25.8960  -32.5740   23.9460 C   0  0  0  0  0  3  0  0  0  0  0  0
  -25.5870  -33.9810   24.2600 N   0  0  0  0  0  0  0  0  0  0  0  0
  -25.9110  -35.0280   23.4890 C   0  0  0  0  0  0  0  0  0  0  0  0
  -26.5630  -34.9100   22.4470 O   0  0  0  0  0  0  0  0  0  0  0  0
  -25.0040  -34.1480   25.0660 H   0  0  0  0  0  0  0  0  0  0  0  0
  -24.1710  -36.8190   23.1620 C   0  0  0  0  0  1  0  0  0  0  0  0
  -25.4380  -36.4260   23.9380 C   0  0  0  0  0  3  0  0  0  0  0  0
  -27.5920  -37.3330   24.6930 C   0  0  0  0  0  1  0  0  0  0  0  0
  -26.4670  -37.4780   23.7730 N   0  0  0  0  0  0  0  0  0  0  0  0
  -26.0650  -38.4020   23.9090 H   0  0  0  0  0  0  0  0  0  0  0  0
  -26.3740  -31.8190   25.2480 C   0  0  1  0  0  0  0  0  0  0  0  0
  -25.2540  -31.6060   26.2950 C   0  0  0  0  0  1  0  0  0  0  0  0
  -26.9550  -30.4330   24.8950 C   0  0  0  0  0  1  0  0  0  0  0  0
  -27.5160  -32.6140   25.9220 C   0  0  0  0  0  1  0  0  0  0  0  0
  -29.9310  -18.6550   20.5660 C   0  0  0  0  0  3  0  0  0  0  0  0
  -32.1080  -20.0380   20.4750 C   0  0  0  0  0  1  0  0  0  0  0  0
  -31.2140  -18.9870   19.7820 C   0  0  0  0  0  2  0  0  0  0  0  0
  -29.5400  -16.8980   20.4270 C   0  0  0  0  0  2  0  0  0  0  0  0
  -30.4410  -15.3950   20.2780 C   0  0  0  0  0  0  0  0  0  0  0  0
  -30.4770  -12.9580   19.3720 C   0  0  0  0  0  2  0  0  0  0  0  0
  -29.5500  -12.7800   18.1430 C   0  0  0  0  0  2  0  0  0  0  0  0
  -28.1040  -12.4810   18.5780 C   0  0  0  0  0  2  0  0  0  0  0  0
  -27.6490  -13.4180   19.7280 C   0  0  0  0  0  3  0  0  0  0  0  0
  -28.6990  -13.5460   20.8480 C   0  0  0  0  0  2  0  0  0  0  0  0
  -29.9350  -14.0640   20.2410 N   0  0  0  0  0  0  0  0  0  0  0  0
  -31.6500  -15.4320   20.0080 O   0  0  0  0  0  0  0  0  0  0  0  0
  -25.2800  -13.9420   20.5180 C   0  0  0  0  0  0  0  0  0  0  0  0
  -24.2280  -13.1520   20.8920 C   0  0  0  0  0  0  0  0  0  0  0  0
  -24.7050  -11.8070   20.8330 C   0  0  0  0  0  0  0  0  0  0  0  0
  -26.3270  -13.0800   20.2470 N   0  0  0  0  0  0  0  0  0  0  0  0
  -25.9960  -11.7870   20.5050 N   0  0  0  0  0  0  0  0  0  0  0  0
  -23.9920  -10.5350   21.0200 C   0  0  0  0  0  0  0  0  0  0  0  0
  -24.4270   -9.5750   21.9600 C   0  0  0  0  0  3  0  0  0  0  0  0
  -23.7130   -8.3700   22.1360 C   0  0  0  0  0  3  0  0  0  0  0  0
  -22.5460   -8.1180   21.3770 C   0  0  0  0  0  0  0  0  0  0  0  0
  -22.1290   -9.0660   20.4250 C   0  0  0  0  0  3  0  0  0  0  0  0
  -22.8440  -10.2630   20.2460 C   0  0  0  0  0  3  0  0  0  0  0  0
  -21.8070   -6.9630   21.4600 O   0  0  0  0  0  0  0  0  0  0  0  0
  -21.7310   -6.2350   22.6190 C   0  0  0  0  0  0  0  0  0  0  0  0
  -21.2150   -6.7860   23.8120 C   0  0  0  0  0  3  0  0  0  0  0  0
  -21.0960   -5.9820   24.9630 C   0  0  0  0  0  3  0  0  0  0  0  0
  -21.4790   -4.6280   24.9210 C   0  0  0  0  0  0  0  0  0  0  0  0
  -21.9880   -4.0760   23.7310 C   0  0  0  0  0  3  0  0  0  0  0  0
  -22.1100   -4.8770   22.5820 C   0  0  0  0  0  0  0  0  0  0  0  0
  -22.5800   -4.3370   21.4320 F   0  0  0  0  0  0  0  0  0  0  0  0
  -21.3580   -3.8530   26.0240 F   0  0  0  0  0  0  0  0  0  0  0  0
  -22.8310  -13.6150   21.1820 C   0  0  0  0  0  0  0  0  0  0  0  0
  -22.1200  -12.9110   22.0570 N   0  0  0  0  0  0  0  0  0  0  0  0
  -22.3780  -14.6350   20.6660 O   0  0  0  0  0  0  0  0  0  0  0  0
  -22.5040  -12.0890   22.5000 H   0  0  0  0  0  0  0  0  0  0  0  0
  -21.1770  -13.1960   22.2770 H   0  0  0  0  0  0  0  0  0  0  0  0
  -25.4320  -15.3150   20.3580 N   0  0  0  0  0  0  0  0  0  0  0  0
  -24.6670  -15.9630   20.5040 H   0  0  0  0  0  0  0  0  0  0  0  0
  -26.2770  -15.7680   20.0400 H   0  0  0  0  0  0  0  0  0  0  0  0
  1  3  2  0
  1  4  1  0
  2  1  1  0
  3 47  1  0
  5  6  1  0
  5  4  2  0
  7 18  2  0
  8  6  1  0
  8 13  1  0
  9 17  1  0
  9 19  1  0
 10 16  1  0
 10 12  1  0
 11 17  1  0
 12 13  2  0
 12 11  1  0
 14  8  2  0
 15 14  1  0
 15 10  2  0
 16  9  1  0
 17  7  1  0
 19 21  2  0
 20 19  1  0
 22 20  1  0
 23 32  2  0
 23 28  1  0
 24 20  1  0
 24 28  1  0
 25 24  1  0
 26 27  1  0
 26 25  1  0
 27 23  1  0
 28 29  2  0
 29 30  1  0
 31 30  2  0
 32 31  1  0
 33  7  1  0
 33 34  1  0
 33 43  1  0
 34 37  1  0
 35 39  1  0
 35 34  1  0
 36 35  2  0
 39 38  1  0
 41 42  1  0
 41 39  1  0
 41 40  1  0
 43 46  1  1
 43 44  1  0
 45 43  1  0
 47 49  1  0
 49 48  1  0
 50 47  1  0
 51 50  1  0
 52 57  1  0
 53 54  1  0
 53 52  1  0
 55 54  1  0
 55 62  1  0
 55 56  1  0
 57 51  1  0
 57 56  1  0
 58 51  2  0
 59 60  2  0
 60 79  1  0
 61 60  1  0
 61 64  1  0
 62 63  1  0
 62 59  1  0
 63 61  2  0
 64 65  1  0
 65 66  2  0
 67 70  1  0
 67 66  1  0
 68 67  2  0
 69 68  1  0
 69 64  2  0
 70 71  1  0
 71 72  1  0
 72 73  2  0
 74 73  1  0
 74 78  1  0
 75 74  2  0
 76 71  2  0
 76 75  1  0
 77 76  1  0
 79 80  1  0
 80 83  1  0
 80 82  1  0
 81 79  2  0
 84 85  1  0
 84 59  1  0
 86 84  1  0
M  ISO  4   5 101   6 101  50 100  51 100
M  END
>  <TORSDO>  (27) 
F 21

>  <SCORE>  (27) 
-14.811

>  <name>  (27) 
26

>  <ligand_id>  (27) 
26

>  <original_smiles>  (27) 
[H]c1c([H])c([H])c2c(c1[H])C([H])([H])C([H])([H])C([H])([H])C2([H])N([H])C(=O)C1([H])N(C(=O)C([H])(N([H])C(=O)C([H])(N([H])C([H])([H])[H])C([H])([H])[H])C(C([H])([H])[H])(C([H])([H])[H])C([H])([H])[H])C([H])([H])c2c([H])c(OC([H])([H])C([H])([H])C(=NC([H])(C([H])([H])C(=O)N3C([H])([H])C([H])([H])C([H])([H])C([H])(n4nc(-c5c([H])c([H])c(Oc6c([H])c([H])c(F)c([H])c6F)c([H])c5[H])c(C(=O)N([H])[H])c4N([H])[H])C3([H])[H])C([H])([H])C([H])([H])[H])C([H])([H])[H])c([H])c([H])c2C1([H])[H]

>  <smiles>  (27) 
[H]c1c([H])c([H])c2c(c1[H])C([H])([H])C([H])([H])C([H])([H])C2([H])N([H])C(=O)C1([H])N(C(=O)C([H])(N([H])C(=O)C([H])(N([H])C([H])([H])[H])C([H])([H])[H])C(C([H])([H])[H])(C([H])([H])[H])C([H])([H])[H])C([H])([H])c2c([H])c(OC([H])([H])C([H])([H])C(=NC([H])(C([H])([H])C(=O)N3C([H])([H])C([H])([H])C([H])([H])C([H])(n4nc(-c5c([H])c([H])c(Oc6c([H])c([H])c(F)c([H])c6F)c([H])c5[H])c(C(=O)N([H])[H])c4N([H])[H])C3([H])[H])C([H])([H])C([H])([H])[H])C([H])([H])[H])c([H])c([H])c2C1([H])[H]

$$$$
27:0:0
     RDKit          3D

 93100  0  0  1  0  0  0  0  0999 V2000
  -28.9150  -23.3560   21.5580 C   0  0  0  0  0  0  0  0  0  0  0  0
  -28.7040  -22.1440   22.4540 C   0  0  0  0  0  1  0  0  0  0  0  0
  -30.0580  -23.8230   21.2440 N   0  0  0  0  0  0  0  0  0  0  0  0
  -27.6930  -23.9820   21.0210 C   0  0  0  0  0  3  0  0  0  0  0  0
  -27.5230  -24.3660   19.7390 C   0  0  0  0  0  3  0  0  0  0  0  0
  -26.2400  -24.9820   19.2300 C   0  0  0  0  0  2  0  0  0  0  0  0
  -26.4610  -26.0900   18.1740 C   0  0  0  0  0  2  0  0  0  0  0  0
  -25.2500  -26.7100   17.7150 O   0  0  0  0  0  0  0  0  0  0  0  0
  -25.3720  -29.6650   24.2030 C   0  0  0  0  0  0  0  0  0  0  0  0
  -24.6850  -27.6050   18.5940 C   0  0  0  0  0  0  0  0  0  0  0  0
  -23.3450  -30.0840   22.8510 C   0  0  0  0  0  3  0  0  0  0  0  0
  -23.4950  -29.4250   20.3940 C   0  0  0  0  0  0  0  0  0  0  0  0
  -25.6030  -29.6500   21.7210 C   0  0  0  0  0  2  0  0  0  0  0  0
  -24.8350  -29.0510   20.5610 C   0  0  0  0  0  0  0  0  0  0  0  0
  -25.4350  -28.1340   19.6680 C   0  0  0  0  0  3  0  0  0  0  0  0
  -23.3570  -28.0370   18.4090 C   0  0  0  0  0  3  0  0  0  0  0  0
  -22.7450  -28.9110   19.3230 C   0  0  0  0  0  3  0  0  0  0  0  0
  -22.9230  -30.4030   21.3940 C   0  0  0  0  0  2  0  0  0  0  0  0
  -24.8060  -29.7670   22.9680 N   0  0  0  0  0  0  0  0  0  0  0  0
  -24.7110  -29.8650   25.2320 O   0  0  0  0  0  0  0  0  0  0  0  0
  -22.4280  -28.9660   23.3940 C   0  0  0  0  0  0  0  0  0  0  0  0
  -21.1110  -29.1120   23.1800 N   0  0  0  0  0  0  0  0  0  0  0  0
  -22.9040  -27.9830   23.9700 O   0  0  0  0  0  0  0  0  0  0  0  0
  -20.7960  -29.9460   22.7060 H   0  0  0  0  0  0  0  0  0  0  0  0
  -17.7160  -28.0860   22.5090 C   0  0  0  0  0  0  0  0  0  0  0  0
  -20.0670  -28.1670   23.5790 C   0  0  0  0  0  3  0  0  0  0  0  0
  -20.2980  -26.7790   22.9350 C   0  0  0  0  0  2  0  0  0  0  0  0
  -19.5570  -26.6040   21.6060 C   0  0  0  0  0  2  0  0  0  0  0  0
  -18.0490  -26.7820   21.8010 C   0  0  0  0  0  2  0  0  0  0  0  0
  -18.6680  -28.7430   23.3310 C   0  0  0  0  0  0  0  0  0  0  0  0
  -18.3180  -29.9730   23.9320 C   0  0  0  0  0  3  0  0  0  0  0  0
  -17.0430  -30.5380   23.7310 C   0  0  0  0  0  3  0  0  0  0  0  0
  -16.0980  -29.8670   22.9380 C   0  0  0  0  0  3  0  0  0  0  0  0
  -16.4350  -28.6450   22.3290 C   0  0  0  0  0  3  0  0  0  0  0  0
  -26.8810  -29.3170   24.3780 C   0  0  0  0  0  3  0  0  0  0  0  0
  -27.1400  -27.7760   24.5960 C   0  0  1  0  0  0  0  0  0  0  0  0
  -26.2570  -27.1480   25.6980 C   0  0  0  0  0  1  0  0  0  0  0  0
  -26.8940  -26.9880   23.2880 C   0  0  0  0  0  1  0  0  0  0  0  0
  -28.6190  -27.5440   24.9780 C   0  0  0  0  0  1  0  0  0  0  0  0
  -27.3860  -30.0960   25.5170 N   0  0  0  0  0  0  0  0  0  0  0  0
  -28.3100  -31.0620   25.4250 C   0  0  0  0  0  0  0  0  0  0  0  0
  -28.8850  -31.3420   24.3710 O   0  0  0  0  0  0  0  0  0  0  0  0
  -26.9210  -29.9560   26.4010 H   0  0  0  0  0  0  0  0  0  0  0  0
  -28.0410  -33.2510   26.6310 C   0  0  0  0  0  1  0  0  0  0  0  0
  -28.6490  -31.8400   26.7100 C   0  0  0  0  0  3  0  0  0  0  0  0
  -30.7080  -30.6570   27.3330 C   0  0  0  0  0  1  0  0  0  0  0  0
  -30.1010  -31.9360   26.9750 N   0  0  0  0  0  0  0  0  0  0  0  0
  -30.2860  -32.5960   27.7250 H   0  0  0  0  0  0  0  0  0  0  0  0
  -31.2760  -23.1360   21.6300 C   0  0  0  0  0  2  0  0  0  0  0  0
  -32.4890  -24.0840   21.5430 C   0  0  0  0  0  2  0  0  0  0  0  0
  -33.1970  -25.0720   19.2620 C   0  0  0  0  0  1  0  0  0  0  0  0
  -33.3910  -23.9310   20.2890 C   0  0  0  0  0  3  0  0  0  0  0  0
  -34.8110  -23.8420   20.7030 N   0  0  0  0  0  4  0  0  0  0  0  0
  -35.2800  -24.7000   20.4550 H   0  0  0  0  0  0  0  0  0  0  0  0
  -34.8280  -23.7690   21.7080 H   0  0  0  0  0  0  0  0  0  0  0  0
  -35.5520  -22.6780   20.1580 C   0  0  0  0  0  2  0  0  0  0  0  0
  -36.4790  -22.0480   21.2090 C   0  0  0  0  0  2  0  0  0  0  0  0
  -37.3810  -20.9730   20.5920 C   0  0  0  0  0  0  0  0  0  0  0  0
  -37.9150  -18.5860   20.2490 C   0  0  0  0  0  2  0  0  0  0  0  0
  -37.5440  -18.0990   18.8380 C   0  0  0  0  0  2  0  0  0  0  0  0
  -36.0760  -17.6390   18.7850 C   0  0  0  0  0  2  0  0  0  0  0  0
  -35.1090  -18.6880   19.3920 C   0  0  0  0  0  3  0  0  0  0  0  0
  -35.6140  -19.1870   20.7660 C   0  0  0  0  0  2  0  0  0  0  0  0
  -36.9970  -19.6720   20.6150 N   0  0  0  0  0  0  0  0  0  0  0  0
  -38.4790  -21.3360   20.1610 O   0  0  0  0  0  0  0  0  0  0  0  0
  -32.5390  -18.8510   19.4310 C   0  0  0  0  0  0  0  0  0  0  0  0
  -31.5610  -17.8920   19.4750 C   0  0  0  0  0  0  0  0  0  0  0  0
  -32.2420  -16.6380   19.5340 C   0  0  0  0  0  0  0  0  0  0  0  0
  -33.7440  -18.1680   19.4710 N   0  0  0  0  0  0  0  0  0  0  0  0
  -33.5540  -16.8280   19.5850 N   0  0  0  0  0  0  0  0  0  0  0  0
  -31.7210  -15.2650   19.4830 C   0  0  0  0  0  0  0  0  0  0  0  0
  -31.8070  -14.4030   20.5970 C   0  0  0  0  0  3  0  0  0  0  0  0
  -31.2860  -13.0920   20.5300 C   0  0  0  0  0  3  0  0  0  0  0  0
  -30.6670  -12.6350   19.3410 C   0  0  0  0  0  0  0  0  0  0  0  0
  -30.6050  -13.4920   18.2280 C   0  0  0  0  0  3  0  0  0  0  0  0
  -31.1290  -14.7930   18.2960 C   0  0  0  0  0  3  0  0  0  0  0  0
  -30.1530  -11.3710   19.1760 O   0  0  0  0  0  0  0  0  0  0  0  0
  -29.3530  -10.7920   20.1260 C   0  0  0  0  0  0  0  0  0  0  0  0
  -28.1410  -11.3840   20.5460 C   0  0  0  0  0  3  0  0  0  0  0  0
  -27.3170  -10.7170   21.4730 C   0  0  0  0  0  3  0  0  0  0  0  0
  -27.6930   -9.4560   21.9740 C   0  0  0  0  0  0  0  0  0  0  0  0
  -28.8970   -8.8630   21.5530 C   0  0  0  0  0  3  0  0  0  0  0  0
  -29.7220   -9.5280   20.6300 C   0  0  0  0  0  0  0  0  0  0  0  0
  -30.8700   -8.9420   20.2120 F   0  0  0  0  0  0  0  0  0  0  0  0
  -26.8980   -8.8120   22.8600 F   0  0  0  0  0  0  0  0  0  0  0  0
  -30.0820  -18.1190   19.3690 C   0  0  0  0  0  0  0  0  0  0  0  0
  -29.2820  -17.2750   20.0140 N   0  0  0  0  0  0  0  0  0  0  0  0
  -29.6260  -19.0790   18.7500 O   0  0  0  0  0  0  0  0  0  0  0  0
  -29.6560  -16.4980   20.5380 H   0  0  0  0  0  0  0  0  0  0  0  0
  -28.2830  -17.4120   19.9790 H   0  0  0  0  0  0  0  0  0  0  0  0
  -32.5020  -20.2390   19.3410 N   0  0  0  0  0  0  0  0  0  0  0  0
  -31.6260  -20.7310   19.2010 H   0  0  0  0  0  0  0  0  0  0  0  0
  -33.3110  -20.8210   19.1670 H   0  0  0  0  0  0  0  0  0  0  0  0
  1  2  1  0
  3  1  2  0
  3 49  1  0
  4  1  1  0
  5  4  2  0
  6  5  1  0
  7  6  1  0
  8  7  1  0
  8 10  1  0
  9 20  2  0
 10 15  1  0
 11 19  1  0
 11 21  1  0
 12 14  1  0
 12 18  1  0
 13 19  1  0
 14 13  1  0
 15 14  2  0
 16 10  2  0
 16 17  1  0
 17 12  2  0
 18 11  1  0
 19  9  1  0
 21 23  2  0
 22 21  1  0
 24 22  1  0
 25 30  1  0
 26 22  1  0
 27 26  1  0
 28 29  1  0
 28 27  1  0
 29 25  1  0
 30 26  1  0
 30 31  2  0
 32 31  1  0
 33 32  2  0
 34 25  2  0
 34 33  1  0
 35  9  1  0
 35 36  1  0
 35 40  1  0
 36 39  1  1
 36 37  1  0
 38 36  1  0
 40 43  1  0
 41 40  1  0
 41 45  1  0
 42 41  2  0
 45 44  1  0
 45 47  1  0
 47 46  1  0
 47 48  1  0
 50 49  1  0
 52 51  1  0
 52 53  1  0
 52 50  1  0
 53 55  1  0
 54 53  1  0
 56 53  1  0
 56 57  1  0
 58 64  1  0
 58 57  1  0
 59 64  1  0
 60 59  1  0
 61 60  1  0
 62 61  1  0
 62 69  1  0
 62 63  1  0
 64 63  1  0
 65 58  2  0
 66 69  1  0
 66 67  2  0
 67 68  1  0
 68 70  2  0
 69 70  1  0
 71 68  1  0
 71 72  1  0
 73 72  2  0
 74 73  1  0
 75 76  1  0
 75 74  2  0
 76 71  2  0
 77 74  1  0
 77 78  1  0
 78 79  2  0
 78 83  1  0
 79 80  1  0
 80 81  2  0
 81 85  1  0
 82 81  1  0
 83 82  2  0
 84 83  1  0
 86 67  1  0
 86 87  1  0
 87 89  1  0
 88 86  2  0
 90 87  1  0
 91 66  1  0
 92 91  1  0
 93 91  1  0
M  ISO  4   7 101   8 101  57 100  58 100
M  END
>  <TORSDO>  (28) 
F 25

>  <SCORE>  (28) 
-3.943

>  <name>  (28) 
27

>  <ligand_id>  (28) 
27

>  <original_smiles>  (28) 
[H]C(C(=NC([H])([H])C([H])([H])C([H])(C([H])([H])[H])[N+]([H])([H])C([H])([H])C([H])([H])C(=O)N1C([H])([H])C([H])([H])C([H])([H])C([H])(n2nc(-c3c([H])c([H])c(Oc4c([H])c([H])c(F)c([H])c4F)c([H])c3[H])c(C(=O)N([H])[H])c2N([H])[H])C1([H])[H])C([H])([H])[H])=C([H])C([H])([H])C([H])([H])Oc1c([H])c([H])c2c(c1[H])C([H])([H])N(C(=O)C([H])(N([H])C(=O)C([H])(N([H])C([H])([H])[H])C([H])([H])[H])C(C([H])([H])[H])(C([H])([H])[H])C([H])([H])[H])C([H])(C(=O)N([H])C1([H])c3c([H])c([H])c([H])c([H])c3C([H])([H])C([H])([H])C1([H])[H])C2([H])[H]

>  <smiles>  (28) 
[H]C(C(=NC([H])([H])C([H])([H])C([H])(C([H])([H])[H])[N+]([H])([H])C([H])([H])C([H])([H])C(=O)N1C([H])([H])C([H])([H])C([H])([H])C([H])(n2nc(-c3c([H])c([H])c(Oc4c([H])c([H])c(F)c([H])c4F)c([H])c3[H])c(C(=O)N([H])[H])c2N([H])[H])C1([H])[H])C([H])([H])[H])=C([H])C([H])([H])C([H])([H])Oc1c([H])c([H])c2c(c1[H])C([H])([H])N(C(=O)C([H])(N([H])C(=O)C([H])(N([H])C([H])([H])[H])C([H])([H])[H])C(C([H])([H])[H])(C([H])([H])[H])C([H])([H])[H])C([H])(C(=O)N([H])C1([H])c3c([H])c([H])c([H])c([H])c3C([H])([H])C([H])([H])C1([H])[H])C2([H])[H]

$$$$
28:0:0
     RDKit          3D

 93101  0  0  1  0  0  0  0  0999 V2000
  -30.4520  -18.3500   21.3370 C   0  0  0  0  0  3  0  0  0  0  0  0
  -30.1270  -19.8270   21.3780 C   0  0  0  0  0  3  0  0  0  0  0  0
  -29.3750  -18.1730   19.3810 C   0  0  0  0  0  3  0  0  0  0  0  0
  -30.1110  -17.3150   20.3420 C   0  0  0  0  0  0  0  0  0  0  0  0
  -29.3920  -20.6930   20.4320 C   0  0  0  0  0  0  0  0  0  0  0  0
  -29.0290  -19.6620   19.4160 C   0  0  0  0  0  0  0  0  0  0  0  0
  -30.7470  -15.6910   20.2020 C   0  0  0  0  0  0  0  0  0  0  0  0
  -30.7690  -13.2050   19.3110 C   0  0  0  0  0  2  0  0  0  0  0  0
  -29.8460  -12.9050   18.0990 C   0  0  0  0  0  2  0  0  0  0  0  0
  -28.4260  -12.5580   18.5690 C   0  0  0  0  0  2  0  0  0  0  0  0
  -27.9500  -13.5130   19.6900 C   0  0  0  0  0  3  0  0  0  0  0  0
  -29.0090  -13.7640   20.7850 C   0  0  0  0  0  2  0  0  0  0  0  0
  -30.1890  -14.3570   20.1270 N   0  0  0  0  0  0  0  0  0  0  0  0
  -31.9720  -15.6040   20.0060 O   0  0  0  0  0  0  0  0  0  0  0  0
  -25.6100  -13.9870   20.5500 C   0  0  0  0  0  0  0  0  0  0  0  0
  -24.5720  -13.1740   20.9140 C   0  0  0  0  0  0  0  0  0  0  0  0
  -25.0630  -11.8330   20.8230 C   0  0  0  0  0  0  0  0  0  0  0  0
  -26.6540  -13.1410   20.2350 N   0  0  0  0  0  0  0  0  0  0  0  0
  -26.3450  -11.8380   20.4740 N   0  0  0  0  0  0  0  0  0  0  0  0
  -24.3610  -10.5510   20.9900 C   0  0  0  0  0  0  0  0  0  0  0  0
  -24.7400   -9.6210   21.9840 C   0  0  0  0  0  3  0  0  0  0  0  0
  -24.0340   -8.4060   22.1360 C   0  0  0  0  0  3  0  0  0  0  0  0
  -22.9340   -8.1140   21.2950 C   0  0  0  0  0  0  0  0  0  0  0  0
  -22.5750   -9.0330   20.2940 C   0  0  0  0  0  3  0  0  0  0  0  0
  -23.2800  -10.2370   20.1400 C   0  0  0  0  0  3  0  0  0  0  0  0
  -22.2060   -6.9490   21.3520 O   0  0  0  0  0  0  0  0  0  0  0  0
  -21.9550   -6.3150   22.5420 C   0  0  0  0  0  0  0  0  0  0  0  0
  -21.2500   -6.9460   23.5880 C   0  0  0  0  0  3  0  0  0  0  0  0
  -20.9540   -6.2340   24.7680 C   0  0  0  0  0  3  0  0  0  0  0  0
  -21.3520   -4.8900   24.8980 C   0  0  0  0  0  0  0  0  0  0  0  0
  -22.0480   -4.2570   23.8530 C   0  0  0  0  0  3  0  0  0  0  0  0
  -22.3470   -4.9670   22.6780 C   0  0  0  0  0  0  0  0  0  0  0  0
  -23.0000   -4.3470   21.6660 F   0  0  0  0  0  0  0  0  0  0  0  0
  -21.0630   -4.2020   26.0280 F   0  0  0  0  0  0  0  0  0  0  0  0
  -23.1760  -13.6150   21.2300 C   0  0  0  0  0  0  0  0  0  0  0  0
  -22.4710  -12.8710   22.0750 N   0  0  0  0  0  0  0  0  0  0  0  0
  -22.7200  -14.6590   20.7640 O   0  0  0  0  0  0  0  0  0  0  0  0
  -22.8560  -12.0280   22.4760 H   0  0  0  0  0  0  0  0  0  0  0  0
  -21.5350  -13.1520   22.3260 H   0  0  0  0  0  0  0  0  0  0  0  0
  -25.7510  -15.3730   20.4430 N   0  0  0  0  0  0  0  0  0  0  0  0
  -25.2440  -15.8120   21.2030 H   0  0  0  0  0  0  0  0  0  0  0  0
  -26.7250  -15.6520   20.4670 H   0  0  0  0  0  0  0  0  0  0  0  0
  -29.3730  -22.5300   20.4450 C   0  0  0  0  0  3  0  0  0  0  0  0
  -28.2920  -24.0810   20.4550 C   0  0  0  0  0  3  0  0  0  0  0  0
  -28.5000  -25.7940   20.5030 O   0  0  0  0  0  0  0  0  0  0  0  0
  -24.8860  -31.9570   23.3930 C   0  0  0  0  0  0  0  0  0  0  0  0
  -27.5090  -26.9620   20.4480 C   0  0  0  0  0  0  0  0  0  0  0  0
  -23.7470  -30.5600   21.7240 C   0  0  0  0  0  3  0  0  0  0  0  0
  -25.2300  -28.9340   20.3440 C   0  0  0  0  0  0  0  0  0  0  0  0
  -26.3230  -30.7330   21.6620 C   0  0  0  0  0  2  0  0  0  0  0  0
  -26.4080  -29.3100   21.0020 C   0  0  0  0  0  0  0  0  0  0  0  0
  -27.5380  -28.3490   21.0230 C   0  0  0  0  0  3  0  0  0  0  0  0
  -26.3000  -26.7720   19.7400 C   0  0  0  0  0  3  0  0  0  0  0  0
  -25.2100  -27.6880   19.6930 C   0  0  0  0  0  3  0  0  0  0  0  0
  -24.0200  -29.8730   20.3570 C   0  0  0  0  0  2  0  0  0  0  0  0
  -25.0080  -31.1140   22.3130 N   0  0  0  0  0  0  0  0  0  0  0  0
  -23.7790  -32.2510   23.8760 O   0  0  0  0  0  0  0  0  0  0  0  0
  -23.0130  -29.5720   22.6710 C   0  0  0  0  0  0  0  0  0  0  0  0
  -21.6880  -29.3970   22.4980 N   0  0  0  0  0  0  0  0  0  0  0  0
  -23.6470  -28.9610   23.5350 O   0  0  0  0  0  0  0  0  0  0  0  0
  -21.2290  -29.9400   21.7800 H   0  0  0  0  0  0  0  0  0  0  0  0
  -18.2880  -28.1930   22.9330 C   0  0  0  0  0  0  0  0  0  0  0  0
  -20.8440  -28.4550   23.2440 C   0  0  0  0  0  3  0  0  0  0  0  0
  -20.9540  -27.0280   22.6570 C   0  0  0  0  0  2  0  0  0  0  0  0
  -19.8690  -26.7190   21.6200 C   0  0  0  0  0  2  0  0  0  0  0  0
  -18.4760  -26.8540   22.2410 C   0  0  0  0  0  2  0  0  0  0  0  0
  -19.3990  -28.9530   23.3890 C   0  0  0  0  0  0  0  0  0  0  0  0
  -19.1660  -30.2040   24.0010 C   0  0  0  0  0  3  0  0  0  0  0  0
  -17.8570  -30.6960   24.1580 C   0  0  0  0  0  3  0  0  0  0  0  0
  -16.7610  -29.9370   23.7140 C   0  0  0  0  0  3  0  0  0  0  0  0
  -16.9780  -28.6860   23.1090 C   0  0  0  0  0  3  0  0  0  0  0  0
  -26.1300  -32.6090   24.0690 C   0  0  0  0  0  3  0  0  0  0  0  0
  -25.7930  -34.0070   24.4020 N   0  0  0  0  0  0  0  0  0  0  0  0
  -26.0590  -35.0690   23.6310 C   0  0  0  0  0  0  0  0  0  0  0  0
  -26.6720  -34.9770   22.5640 O   0  0  0  0  0  0  0  0  0  0  0  0
  -25.2390  -34.1490   25.2340 H   0  0  0  0  0  0  0  0  0  0  0  0
  -24.2380  -36.7990   23.4340 C   0  0  0  0  0  1  0  0  0  0  0  0
  -25.5730  -36.4530   24.1140 C   0  0  0  0  0  3  0  0  0  0  0  0
  -27.7380  -37.4480   24.7090 C   0  0  0  0  0  1  0  0  0  0  0  0
  -26.5470  -37.5390   23.8670 N   0  0  0  0  0  0  0  0  0  0  0  0
  -26.1220  -38.4500   24.0140 H   0  0  0  0  0  0  0  0  0  0  0  0
  -26.5970  -31.8440   25.3690 C   0  0  1  0  0  0  0  0  0  0  0  0
  -25.4520  -31.5470   26.3660 C   0  0  0  0  0  1  0  0  0  0  0  0
  -27.2610  -30.4970   25.0100 C   0  0  0  0  0  1  0  0  0  0  0  0
  -27.6730  -32.6770   26.1050 C   0  0  0  0  0  1  0  0  0  0  0  0
  -28.3350  -20.1350   18.3300 O   0  0  0  0  0  0  0  0  0  0  0  0
  -26.9190  -20.2110   18.5170 C   0  0  0  0  0  2  0  0  0  0  0  0
  -26.1790  -18.9330   18.0580 C   0  0  0  0  0  2  0  0  0  0  0  0
  -24.7060  -18.8480   18.5170 C   0  0  0  0  0  2  0  0  0  0  0  0
  -24.5580  -18.4500   19.9330 N   0  0  0  0  0  4  0  0  0  0  0  0
  -24.9270  -17.5200   20.1040 H   0  0  0  0  0  0  0  0  0  0  0  0
  -23.5830  -18.4390   20.1800 H   0  0  0  0  0  0  0  0  0  0  0  0
  -25.0170  -19.1030   20.5420 H   0  0  0  0  0  0  0  0  0  0  0  0
  1  2  1  0
  3  6  2  0
  3  4  1  0
  4  1  2  0
  5 43  1  0
  5  2  2  0
  6  5  1  0
  7  4  1  0
  8 13  1  0
  9 10  1  0
  9  8  1  0
 11 10  1  0
 11 18  1  0
 11 12  1  0
 13  7  1  0
 13 12  1  0
 14  7  2  0
 15 16  2  0
 16 35  1  0
 17 16  1  0
 17 20  1  0
 18 19  1  0
 18 15  1  0
 19 17  2  0
 20 21  1  0
 21 22  2  0
 23 26  1  0
 23 22  1  0
 24 23  2  0
 25 24  1  0
 25 20  2  0
 26 27  1  0
 27 32  2  0
 27 28  1  0
 28 29  2  0
 29 30  1  0
 30 34  1  0
 31 30  2  0
 32 31  1  0
 33 32  1  0
 35 36  1  0
 36 39  1  0
 36 38  1  0
 37 35  2  0
 40 42  1  0
 40 15  1  0
 40 41  1  0
 43 44  2  0
 44 45  1  0
 46 57  2  0
 47 45  1  0
 47 52  1  0
 48 56  1  0
 48 58  1  0
 49 55  1  0
 49 51  1  0
 50 56  1  0
 51 52  2  0
 51 50  1  0
 53 47  2  0
 54 53  1  0
 54 49  2  0
 55 48  1  0
 56 46  1  0
 58 60  2  0
 59 58  1  0
 61 59  1  0
 62 71  2  0
 62 67  1  0
 63 59  1  0
 63 67  1  0
 64 63  1  0
 65 66  1  0
 65 64  1  0
 66 62  1  0
 67 68  2  0
 68 69  1  0
 70 69  2  0
 71 70  1  0
 72 46  1  0
 72 73  1  0
 72 82  1  0
 73 76  1  0
 74 78  1  0
 74 73  1  0
 75 74  2  0
 78 77  1  0
 80 81  1  0
 80 78  1  0
 80 79  1  0
 82 85  1  1
 82 83  1  0
 84 82  1  0
 86 87  1  0
 86  6  1  0
 88 87  1  0
 88 89  1  0
 89 90  1  0
 90 91  1  0
 90 92  1  0
 90 93  1  0
M  ISO  4   4 100   7 100  44 101  45 101
M  END
>  <TORSDO>  (29) 
F 23

>  <SCORE>  (29) 
-11.746

>  <name>  (29) 
28

>  <ligand_id>  (29) 
28

>  <original_smiles>  (29) 
[H]c1c([H])c([H])c2c(c1[H])C([H])([H])C([H])([H])C([H])([H])C2([H])N([H])C(=O)C1([H])N(C(=O)C([H])(N([H])C(=O)C([H])(N([H])C([H])([H])[H])C([H])([H])[H])C(C([H])([H])[H])(C([H])([H])[H])C([H])([H])[H])C([H])([H])c2c([H])c(OC([H])([H])C([H])([H])c3c([H])c([H])c(C(=O)N4C([H])([H])C([H])([H])C([H])([H])C([H])(n5nc(-c6c([H])c([H])c(Oc7c([H])c([H])c(F)c([H])c7F)c([H])c6[H])c(C(=O)N([H])[H])c5N([H])[H])C4([H])[H])c([H])c3OC([H])([H])C([H])([H])C([H])([H])[N+]([H])([H])[H])c([H])c([H])c2C1([H])[H]

>  <smiles>  (29) 
[H]c1c([H])c([H])c2c(c1[H])C([H])([H])C([H])([H])C([H])([H])C2([H])N([H])C(=O)C1([H])N(C(=O)C([H])(N([H])C(=O)C([H])(N([H])C([H])([H])[H])C([H])([H])[H])C(C([H])([H])[H])(C([H])([H])[H])C([H])([H])[H])C([H])([H])c2c([H])c(OC([H])([H])C([H])([H])c3c([H])c([H])c(C(=O)N4C([H])([H])C([H])([H])C([H])([H])C([H])(n5nc(-c6c([H])c([H])c(Oc7c([H])c([H])c(F)c([H])c7F)c([H])c6[H])c(C(=O)N([H])[H])c5N([H])[H])C4([H])[H])c([H])c3OC([H])([H])C([H])([H])C([H])([H])[N+]([H])([H])[H])c([H])c([H])c2C1([H])[H]

$$$$
29:0:0
     RDKit          3D

 84 91  0  0  1  0  0  0  0  0999 V2000
  -28.4300  -23.2940   20.4040 C   0  0  0  0  0  3  0  0  0  0  0  0
  -28.4230  -21.7690   19.6910 C   0  0  0  0  0  3  0  0  0  0  0  0
  -29.0940  -20.4050   20.4100 C   0  0  0  0  0  3  0  0  0  0  0  0
  -28.8150  -18.8020   20.0150 C   0  0  0  0  0  2  0  0  0  0  0  0
  -29.5250  -16.1590   20.2890 C   0  0  0  0  0  3  0  0  0  0  0  0
  -29.8220  -17.5410   20.3030 C   0  0  0  0  0  3  0  0  0  0  0  0
  -30.4430  -14.9160   20.3450 C   0  0  0  0  0  0  0  0  0  0  0  0
  -30.3520  -12.5740   19.4180 C   0  0  0  0  0  2  0  0  0  0  0  0
  -29.4400  -12.5880   18.1650 C   0  0  0  0  0  2  0  0  0  0  0  0
  -27.9430  -12.4200   18.5260 C   0  0  0  0  0  2  0  0  0  0  0  0
  -27.5370  -13.2750   19.7550 C   0  0  0  0  0  3  0  0  0  0  0  0
  -28.5770  -13.2500   20.8950 C   0  0  0  0  0  2  0  0  0  0  0  0
  -29.8700  -13.6510   20.3240 N   0  0  0  0  0  0  0  0  0  0  0  0
  -31.6600  -14.9880   20.1450 O   0  0  0  0  0  0  0  0  0  0  0  0
  -25.1700  -13.8660   20.5050 C   0  0  0  0  0  0  0  0  0  0  0  0
  -24.1040  -13.0910   20.8770 C   0  0  0  0  0  0  0  0  0  0  0  0
  -24.5720  -11.7450   20.8610 C   0  0  0  0  0  0  0  0  0  0  0  0
  -26.2050  -12.9820   20.2510 N   0  0  0  0  0  0  0  0  0  0  0  0
  -25.8590  -11.7020   20.5350 N   0  0  0  0  0  0  0  0  0  0  0  0
  -23.8490  -10.4810   21.0560 C   0  0  0  0  0  0  0  0  0  0  0  0
  -24.2910   -9.5090   21.9790 C   0  0  0  0  0  3  0  0  0  0  0  0
  -23.5620   -8.3140   22.1600 C   0  0  0  0  0  3  0  0  0  0  0  0
  -22.3790   -8.0860   21.4180 C   0  0  0  0  0  0  0  0  0  0  0  0
  -21.9600   -9.0490   20.4820 C   0  0  0  0  0  3  0  0  0  0  0  0
  -22.6900  -10.2320   20.2970 C   0  0  0  0  0  3  0  0  0  0  0  0
  -21.6230   -6.9440   21.5120 O   0  0  0  0  0  0  0  0  0  0  0  0
  -21.5970   -6.1910   22.6580 C   0  0  0  0  0  0  0  0  0  0  0  0
  -21.2150   -6.7390   23.9040 C   0  0  0  0  0  3  0  0  0  0  0  0
  -21.1320   -5.9100   25.0400 C   0  0  0  0  0  3  0  0  0  0  0  0
  -21.4250   -4.5360   24.9330 C   0  0  0  0  0  0  0  0  0  0  0  0
  -21.8020   -3.9900   23.6950 C   0  0  0  0  0  3  0  0  0  0  0  0
  -21.8850   -4.8150   22.5590 C   0  0  0  0  0  0  0  0  0  0  0  0
  -22.2260   -4.2830   21.3610 F   0  0  0  0  0  0  0  0  0  0  0  0
  -21.3430   -3.7350   26.0200 F   0  0  0  0  0  0  0  0  0  0  0  0
  -22.7090  -13.5790   21.1390 C   0  0  0  0  0  0  0  0  0  0  0  0
  -21.9690  -12.8930   22.0050 N   0  0  0  0  0  0  0  0  0  0  0  0
  -22.2780  -14.5970   20.6020 O   0  0  0  0  0  0  0  0  0  0  0  0
  -22.3350  -12.0830   22.4800 H   0  0  0  0  0  0  0  0  0  0  0  0
  -21.0270  -13.1980   22.2070 H   0  0  0  0  0  0  0  0  0  0  0  0
  -25.3290  -15.2350   20.3500 N   0  0  0  0  0  0  0  0  0  0  0  0
  -24.5690  -15.8830   20.5300 H   0  0  0  0  0  0  0  0  0  0  0  0
  -26.2060  -15.6970   20.1570 H   0  0  0  0  0  0  0  0  0  0  0  0
  -28.3220  -24.7800   19.6280 C   0  0  0  0  0  3  0  0  0  0  0  0
  -28.2800  -26.2080   20.2410 O   0  0  0  0  0  0  0  0  0  0  0  0
  -24.6180  -31.8640   23.2110 C   0  0  0  0  0  0  0  0  0  0  0  0
  -27.2000  -27.1550   20.1640 C   0  0  0  0  0  0  0  0  0  0  0  0
  -23.4200  -30.4650   21.5730 C   0  0  0  0  0  3  0  0  0  0  0  0
  -24.8650  -28.8860   20.1490 C   0  0  0  0  0  0  0  0  0  0  0  0
  -25.9740  -30.7280   21.4090 C   0  0  0  0  0  2  0  0  0  0  0  0
  -26.0430  -29.3390   20.7520 C   0  0  0  0  0  0  0  0  0  0  0  0
  -27.2120  -28.4870   20.7440 C   0  0  0  0  0  3  0  0  0  0  0  0
  -25.9860  -26.7920   19.5420 C   0  0  0  0  0  3  0  0  0  0  0  0
  -24.8480  -27.6260   19.5300 C   0  0  0  0  0  3  0  0  0  0  0  0
  -23.6300  -29.7730   20.2010 C   0  0  0  0  0  2  0  0  0  0  0  0
  -24.6900  -31.0460   22.1150 N   0  0  0  0  0  0  0  0  0  0  0  0
  -23.5280  -32.1460   23.7360 O   0  0  0  0  0  0  0  0  0  0  0  0
  -22.7400  -29.4640   22.5410 C   0  0  0  0  0  0  0  0  0  0  0  0
  -21.4100  -29.2970   22.4170 N   0  0  0  0  0  0  0  0  0  0  0  0
  -23.4100  -28.8360   23.3650 O   0  0  0  0  0  0  0  0  0  0  0  0
  -20.9310  -29.8450   21.7170 H   0  0  0  0  0  0  0  0  0  0  0  0
  -18.0250  -28.1190   22.9410 C   0  0  0  0  0  0  0  0  0  0  0  0
  -20.5860  -28.3660   23.1930 C   0  0  0  0  0  3  0  0  0  0  0  0
  -20.6810  -26.9350   22.6130 C   0  0  0  0  0  2  0  0  0  0  0  0
  -19.5700  -26.6230   21.6070 C   0  0  0  0  0  2  0  0  0  0  0  0
  -18.1910  -26.7740   22.2570 C   0  0  0  0  0  2  0  0  0  0  0  0
  -19.1490  -28.8770   23.3640 C   0  0  0  0  0  0  0  0  0  0  0  0
  -18.9360  -30.1400   23.9600 C   0  0  0  0  0  3  0  0  0  0  0  0
  -17.6320  -30.6400   24.1400 C   0  0  0  0  0  3  0  0  0  0  0  0
  -16.5250  -29.8790   23.7290 C   0  0  0  0  0  3  0  0  0  0  0  0
  -16.7220  -28.6210   23.1340 C   0  0  0  0  0  3  0  0  0  0  0  0
  -25.8920  -32.4990   23.8430 C   0  0  0  0  0  3  0  0  0  0  0  0
  -25.5730  -33.9010   24.1730 N   0  0  0  0  0  0  0  0  0  0  0  0
  -25.9090  -34.9580   23.4220 C   0  0  0  0  0  0  0  0  0  0  0  0
  -26.5760  -34.8550   22.3890 O   0  0  0  0  0  0  0  0  0  0  0  0
  -24.9820  -34.0500   24.9750 H   0  0  0  0  0  0  0  0  0  0  0  0
  -24.1750  -36.7490   23.0870 C   0  0  0  0  0  1  0  0  0  0  0  0
  -25.4250  -36.3440   23.8880 C   0  0  0  0  0  3  0  0  0  0  0  0
  -27.5680  -37.2320   24.6990 C   0  0  0  0  0  1  0  0  0  0  0  0
  -26.4550  -37.4000   23.7650 N   0  0  0  0  0  0  0  0  0  0  0  0
  -26.0490  -38.3180   23.9170 H   0  0  0  0  0  0  0  0  0  0  0  0
  -26.3950  -31.7360   25.1300 C   0  0  1  0  0  0  0  0  0  0  0  0
  -25.2910  -31.5150   26.1900 C   0  0  0  0  0  1  0  0  0  0  0  0
  -26.9720  -30.3500   24.7590 C   0  0  0  0  0  1  0  0  0  0  0  0
  -27.5450  -32.5300   25.7910 C   0  0  0  0  0  1  0  0  0  0  0  0
  2  1  1  0
  2  3  2  0
  4  6  1  0
  4  3  1  0
  5  6  2  0
  5  7  1  0
  8 13  1  0
  9 10  1  0
  9  8  1  0
 11 10  1  0
 11 18  1  0
 11 12  1  0
 13  7  1  0
 13 12  1  0
 14  7  2  0
 15 16  2  0
 16 35  1  0
 17 16  1  0
 17 20  1  0
 18 15  1  0
 18 19  1  0
 19 17  2  0
 20 21  1  0
 21 22  2  0
 23 26  1  0
 23 22  1  0
 24 23  2  0
 25 24  1  0
 25 20  2  0
 26 27  1  0
 27 28  1  0
 28 29  2  0
 30 29  1  0
 30 34  1  0
 31 30  2  0
 32 27  2  0
 32 31  1  0
 33 32  1  0
 35 36  1  0
 36 39  1  0
 36 38  1  0
 37 35  2  0
 40 15  1  0
 40 41  1  0
 42 40  1  0
 43 44  1  0
 43  1  2  0
 45 56  2  0
 46 44  1  0
 46 51  1  0
 47 55  1  0
 47 57  1  0
 48 54  1  0
 48 50  1  0
 49 55  1  0
 50 49  1  0
 51 50  2  0
 52 46  2  0
 53 52  1  0
 53 48  2  0
 54 47  1  0
 55 45  1  0
 57 59  2  0
 58 57  1  0
 60 58  1  0
 61 70  2  0
 61 66  1  0
 62 58  1  0
 62 66  1  0
 63 62  1  0
 64 65  1  0
 64 63  1  0
 65 61  1  0
 66 67  2  0
 67 68  1  0
 69 68  2  0
 70 69  1  0
 71 45  1  0
 71 72  1  0
 71 81  1  0
 72 75  1  0
 73 77  1  0
 73 72  1  0
 74 73  2  0
 77 76  1  0
 79 77  1  0
 79 80  1  0
 79 78  1  0
 81 84  1  1
 81 82  1  0
 83 81  1  0
M  ISO  4   5 100   7 100  43 101  44 101
M  END
>  <TORSDO>  (30) 
F 21

>  <SCORE>  (30) 
-13.209

>  <name>  (30) 
29

>  <ligand_id>  (30) 
29

>  <original_smiles>  (30) 
[H]C(C(=O)N1C([H])([H])C([H])([H])C([H])([H])C([H])(n2nc(-c3c([H])c([H])c(Oc4c([H])c([H])c(F)c([H])c4F)c([H])c3[H])c(C(=O)N([H])[H])c2N([H])[H])C1([H])[H])=C([H])C([H])([H])C([H])([H])C([H])([H])C([H])([H])C([H])([H])Oc1c([H])c([H])c2c(c1[H])C([H])([H])N(C(=O)C([H])(N([H])C(=O)C([H])(N([H])C([H])([H])[H])C([H])([H])[H])C(C([H])([H])[H])(C([H])([H])[H])C([H])([H])[H])C([H])(C(=O)N([H])C1([H])c3c([H])c([H])c([H])c([H])c3C([H])([H])C([H])([H])C1([H])[H])C2([H])[H]

>  <smiles>  (30) 
[H]C(C(=O)N1C([H])([H])C([H])([H])C([H])([H])C([H])(n2nc(-c3c([H])c([H])c(Oc4c([H])c([H])c(F)c([H])c4F)c([H])c3[H])c(C(=O)N([H])[H])c2N([H])[H])C1([H])[H])=C([H])C([H])([H])C([H])([H])C([H])([H])C([H])([H])C([H])([H])Oc1c([H])c([H])c2c(c1[H])C([H])([H])N(C(=O)C([H])(N([H])C(=O)C([H])(N([H])C([H])([H])[H])C([H])([H])[H])C(C([H])([H])[H])(C([H])([H])[H])C([H])([H])[H])C([H])(C(=O)N([H])C1([H])c3c([H])c([H])c([H])c([H])c3C([H])([H])C([H])([H])C1([H])[H])C2([H])[H]

$$$$
30:0:0
     RDKit          3D

 84 90  0  0  1  0  0  0  0  0999 V2000
  -29.0360  -19.6600   20.0770 C   0  0  0  0  0  0  0  0  0  0  0  0
  -27.7180  -20.3660   19.6170 C   0  0  0  0  0  0  0  0  0  0  0  0
  -29.2930  -18.0100   19.9580 C   0  0  0  0  0  0  0  0  0  0  0  0
  -29.4160  -21.4660   20.4650 C   0  0  0  0  0  1  0  0  0  0  0  0
  -27.5170  -22.0230   19.4230 C   0  0  0  0  0  2  0  0  0  0  0  0
  -28.2870  -23.1030   20.3740 C   0  0  0  0  0  1  0  0  0  0  0  0
  -26.7350  -19.6750   19.3390 O   0  0  0  0  0  0  0  0  0  0  0  0
  -30.1800  -16.3630   20.0220 C   0  0  0  0  0  0  0  0  0  0  0  0
  -30.4730  -13.6540   19.3330 C   0  0  0  0  0  2  0  0  0  0  0  0
  -29.6530  -12.9600   18.1850 C   0  0  0  0  0  2  0  0  0  0  0  0
  -28.2780  -12.4850   18.6700 C   0  0  0  0  0  2  0  0  0  0  0  0
  -27.6760  -13.5350   19.6200 C   0  0  0  0  0  3  0  0  0  0  0  0
  -28.6590  -14.1110   20.6820 C   0  0  0  0  0  2  0  0  0  0  0  0
  -29.7480  -14.8880   19.9890 N   0  0  0  0  0  0  0  0  0  0  0  0
  -31.4260  -16.2010   19.9260 O   0  0  0  0  0  0  0  0  0  0  0  0
  -25.3360  -14.0130   20.4400 C   0  0  0  0  0  0  0  0  0  0  0  0
  -24.2840  -13.2260   20.8080 C   0  0  0  0  0  0  0  0  0  0  0  0
  -24.7570  -11.8780   20.7510 C   0  0  0  0  0  0  0  0  0  0  0  0
  -26.3810  -13.1540   20.1690 N   0  0  0  0  0  0  0  0  0  0  0  0
  -26.0490  -11.8560   20.4180 N   0  0  0  0  0  0  0  0  0  0  0  0
  -24.0260  -10.6130   20.9320 C   0  0  0  0  0  0  0  0  0  0  0  0
  -24.4150   -9.6640   21.9030 C   0  0  0  0  0  3  0  0  0  0  0  0
  -23.6770   -8.4720   22.0770 C   0  0  0  0  0  3  0  0  0  0  0  0
  -22.5350   -8.2200   21.2800 C   0  0  0  0  0  0  0  0  0  0  0  0
  -22.1640   -9.1580   20.3010 C   0  0  0  0  0  3  0  0  0  0  0  0
  -22.9030  -10.3400   20.1260 C   0  0  0  0  0  3  0  0  0  0  0  0
  -21.7740   -7.0780   21.3600 O   0  0  0  0  0  0  0  0  0  0  0  0
  -21.6110   -6.4010   22.5430 C   0  0  0  0  0  0  0  0  0  0  0  0
  -20.9770   -6.9910   23.6570 C   0  0  0  0  0  3  0  0  0  0  0  0
  -20.7680   -6.2380   24.8290 C   0  0  0  0  0  3  0  0  0  0  0  0
  -21.1830   -4.8940   24.8870 C   0  0  0  0  0  0  0  0  0  0  0  0
  -21.8100   -4.3030   23.7760 C   0  0  0  0  0  3  0  0  0  0  0  0
  -22.0200   -5.0540   22.6070 C   0  0  0  0  0  0  0  0  0  0  0  0
  -22.6050   -4.4710   21.5320 F   0  0  0  0  0  0  0  0  0  0  0  0
  -20.9770   -4.1670   26.0100 F   0  0  0  0  0  0  0  0  0  0  0  0
  -22.8900  -13.7000   21.0910 C   0  0  0  0  0  0  0  0  0  0  0  0
  -22.1780  -13.0170   21.9800 N   0  0  0  0  0  0  0  0  0  0  0  0
  -22.4440  -14.7160   20.5590 O   0  0  0  0  0  0  0  0  0  0  0  0
  -22.5560  -12.1970   22.4310 H   0  0  0  0  0  0  0  0  0  0  0  0
  -21.2440  -13.3200   22.2140 H   0  0  0  0  0  0  0  0  0  0  0  0
  -25.4880  -15.3870   20.2770 N   0  0  0  0  0  0  0  0  0  0  0  0
  -24.7180  -16.0350   20.4070 H   0  0  0  0  0  0  0  0  0  0  0  0
  -26.3300  -15.8360   19.9410 H   0  0  0  0  0  0  0  0  0  0  0  0
  -28.2330  -25.0770   20.3880 O   0  0  0  0  0  1  0  0  0  0  0  0
  -24.6510  -31.8120   23.3010 C   0  0  0  0  0  0  0  0  0  0  0  0
  -27.2800  -26.4470   20.3860 C   0  0  0  0  0  0  0  0  0  0  0  0
  -23.5500  -30.4340   21.5960 C   0  0  0  0  0  3  0  0  0  0  0  0
  -25.0560  -28.7260   20.2530 C   0  0  0  0  0  0  0  0  0  0  0  0
  -26.1460  -30.4620   21.6340 C   0  0  0  0  0  2  0  0  0  0  0  0
  -26.2310  -28.9980   20.9620 C   0  0  0  0  0  0  0  0  0  0  0  0
  -27.3110  -27.9040   20.9790 C   0  0  0  0  0  3  0  0  0  0  0  0
  -26.0650  -26.4840   19.6230 C   0  0  0  0  0  3  0  0  0  0  0  0
  -25.0360  -27.4990   19.5600 C   0  0  0  0  0  3  0  0  0  0  0  0
  -23.8690  -29.7260   20.2420 C   0  0  0  0  0  2  0  0  0  0  0  0
  -24.8090  -30.9450   22.2310 N   0  0  0  0  0  0  0  0  0  0  0  0
  -23.5300  -32.1230   23.7460 O   0  0  0  0  0  0  0  0  0  0  0  0
  -22.7530  -29.4770   22.5280 C   0  0  0  0  0  0  0  0  0  0  0  0
  -21.4200  -29.3610   22.3510 N   0  0  0  0  0  0  0  0  0  0  0  0
  -23.3540  -28.8310   23.3890 O   0  0  0  0  0  0  0  0  0  0  0  0
  -20.9800  -29.9300   21.6430 H   0  0  0  0  0  0  0  0  0  0  0  0
  -17.9790  -28.2500   22.8000 C   0  0  0  0  0  0  0  0  0  0  0  0
  -20.5490  -28.4210   23.0740 C   0  0  0  0  0  3  0  0  0  0  0  0
  -20.5990  -27.0140   22.4310 C   0  0  0  0  0  2  0  0  0  0  0  0
  -19.4910  -26.7840   21.3980 C   0  0  0  0  0  2  0  0  0  0  0  0
  -18.1120  -26.9380   22.0460 C   0  0  0  0  0  2  0  0  0  0  0  0
  -19.1220  -28.9550   23.2680 C   0  0  0  0  0  0  0  0  0  0  0  0
  -18.9380  -30.1830   23.9400 C   0  0  0  0  0  3  0  0  0  0  0  0
  -17.6470  -30.7060   24.1450 C   0  0  0  0  0  3  0  0  0  0  0  0
  -16.5200  -30.0010   23.6880 C   0  0  0  0  0  3  0  0  0  0  0  0
  -16.6880  -28.7730   23.0220 C   0  0  0  0  0  3  0  0  0  0  0  0
  -25.8670  -32.4690   24.0240 C   0  0  0  0  0  3  0  0  0  0  0  0
  -25.5290  -33.8760   24.3400 N   0  0  0  0  0  0  0  0  0  0  0  0
  -25.8950  -34.9480   23.6210 C   0  0  0  0  0  0  0  0  0  0  0  0
  -26.5990  -34.8550   22.6130 O   0  0  0  0  0  0  0  0  0  0  0  0
  -24.9030  -34.0200   25.1180 H   0  0  0  0  0  0  0  0  0  0  0  0
  -24.1920  -36.7740   23.2530 C   0  0  0  0  0  1  0  0  0  0  0  0
  -25.4080  -36.3390   24.0860 C   0  0  0  0  0  3  0  0  0  0  0  0
  -27.5140  -37.2220   24.9980 C   0  0  0  0  0  1  0  0  0  0  0  0
  -26.4500  -37.3890   24.0120 N   0  0  0  0  0  0  0  0  0  0  0  0
  -26.0420  -38.3120   24.1380 H   0  0  0  0  0  0  0  0  0  0  0  0
  -26.2690  -31.7200   25.3560 C   0  0  1  0  0  0  0  0  0  0  0  0
  -25.0870  -31.4990   26.3310 C   0  0  0  0  0  1  0  0  0  0  0  0
  -26.8820  -30.3360   25.0560 C   0  0  0  0  0  1  0  0  0  0  0  0
  -27.3590  -32.5260   26.1030 C   0  0  0  0  0  1  0  0  0  0  0  0
  1  4  1  0
  2  1  1  0
  3  8  2  0
  3  1  2  0
  5  2  1  0
  5  6  1  0
  7  2  2  0
  9 14  1  0
 10 11  1  0
 10  9  1  0
 12 11  1  0
 12 19  1  0
 12 13  1  0
 14  8  1  0
 14 13  1  0
 15  8  2  0
 16 17  2  0
 17 36  1  0
 18 17  1  0
 18 21  1  0
 19 20  1  0
 19 16  1  0
 20 18  2  0
 21 22  1  0
 22 23  2  0
 24 27  1  0
 24 23  1  0
 25 24  2  0
 26 25  1  0
 26 21  2  0
 27 28  1  0
 28 33  2  0
 28 29  1  0
 29 30  2  0
 30 31  1  0
 31 35  1  0
 32 31  2  0
 33 32  1  0
 34 33  1  0
 36 37  1  0
 37 40  1  0
 37 39  1  0
 38 36  2  0
 41 42  1  0
 41 16  1  0
 43 41  1  0
 45 56  2  0
 46 44  1  0
 46 51  1  0
 47 55  1  0
 47 57  1  0
 48 50  1  0
 49 55  1  0
 50 51  2  0
 50 49  1  0
 52 46  2  0
 53 52  1  0
 53 48  2  0
 54 48  1  0
 54 47  1  0
 55 45  1  0
 57 59  2  0
 58 57  1  0
 60 58  1  0
 61 70  2  0
 61 66  1  0
 62 58  1  0
 62 66  1  0
 63 62  1  0
 64 65  1  0
 64 63  1  0
 65 61  1  0
 66 67  2  0
 67 68  1  0
 69 68  2  0
 70 69  1  0
 71 45  1  0
 71 72  1  0
 71 81  1  0
 72 75  1  0
 73 77  1  0
 73 72  1  0
 74 73  2  0
 77 76  1  0
 79 77  1  0
 79 80  1  0
 79 78  1  0
 81 84  1  1
 81 82  1  0
 83 81  1  0
M  ISO  4   3 100   6 101   8 100  44 101
M  END
>  <TORSDO>  (31) 
F 16

>  <SCORE>  (31) 
-15.972

>  <name>  (31) 
30

>  <ligand_id>  (31) 
30

>  <original_smiles>  (31) 
[H]C(C(=O)N1C([H])([H])C([H])([H])C([H])([H])C([H])(n2nc(-c3c([H])c([H])c(Oc4c([H])c([H])c(F)c([H])c4F)c([H])c3[H])c(C(=O)N([H])[H])c2N([H])[H])C1([H])[H])=C1C(=O)C([H])([H])C([H])(Oc2c([H])c([H])c3c(c2[H])C([H])([H])N(C(=O)C([H])(N([H])C(=O)C([H])(N([H])C([H])([H])[H])C([H])([H])[H])C(C([H])([H])[H])(C([H])([H])[H])C([H])([H])[H])C([H])(C(=O)N([H])C2([H])c4c([H])c([H])c([H])c([H])c4C([H])([H])C([H])([H])C2([H])[H])C3([H])[H])C1([H])[H]

>  <smiles>  (31) 
[H]C(C(=O)N1C([H])([H])C([H])([H])C([H])([H])C([H])(n2nc(-c3c([H])c([H])c(Oc4c([H])c([H])c(F)c([H])c4F)c([H])c3[H])c(C(=O)N([H])[H])c2N([H])[H])C1([H])[H])=C1C(=O)C([H])([H])C([H])(Oc2c([H])c([H])c3c(c2[H])C([H])([H])N(C(=O)C([H])(N([H])C(=O)C([H])(N([H])C([H])([H])[H])C([H])([H])[H])C(C([H])([H])[H])(C([H])([H])[H])C([H])([H])[H])C([H])(C(=O)N([H])C2([H])c4c([H])c([H])c([H])c([H])c4C([H])([H])C([H])([H])C2([H])[H])C3([H])[H])C1([H])[H]

$$$$
31:0:0
     RDKit          3D

 86 94  0  0  1  0  0  0  0  0999 V2000
  -29.4160  -20.4070   20.2600 C   0  0  0  0  0  0  0  0  0  0  0  0
  -29.4570  -21.8550   20.2320 C   0  0  0  0  0  0  0  0  0  0  0  0
  -28.3830  -19.2230   20.2420 C   0  0  0  0  0  2  0  0  0  0  0  0
  -30.5570  -19.3010   20.1160 C   0  0  0  0  0  2  0  0  0  0  0  0
  -29.5590  -18.1340   20.5760 C   0  0  0  0  0  3  0  0  0  0  0  0
  -30.8480  -22.4640   20.1870 C   0  0  0  0  0  1  0  0  0  0  0  0
  -28.3690  -23.1120   20.0350 C   0  0  0  0  0  2  0  0  0  0  0  0
  -28.3370  -24.6740   20.7700 C   0  0  0  0  0  2  0  0  0  0  0  0
  -28.3430  -26.1640   20.2370 O   0  0  0  0  0  0  0  0  0  0  0  0
  -24.6480  -31.8870   23.2520 C   0  0  0  0  0  0  0  0  0  0  0  0
  -27.2520  -27.1220   20.2800 C   0  0  0  0  0  0  0  0  0  0  0  0
  -23.4570  -30.4690   21.6250 C   0  0  0  0  0  3  0  0  0  0  0  0
  -24.9130  -28.8730   20.2250 C   0  0  0  0  0  0  0  0  0  0  0  0
  -26.0100  -30.7370   21.4580 C   0  0  0  0  0  2  0  0  0  0  0  0
  -26.0930  -29.3320   20.8260 C   0  0  0  0  0  0  0  0  0  0  0  0
  -27.2640  -28.4750   20.8230 C   0  0  0  0  0  3  0  0  0  0  0  0
  -26.0410  -26.7620   19.6560 C   0  0  0  0  0  3  0  0  0  0  0  0
  -24.9010  -27.6030   19.6240 C   0  0  0  0  0  3  0  0  0  0  0  0
  -23.6830  -29.7710   20.2560 C   0  0  0  0  0  2  0  0  0  0  0  0
  -24.7250  -31.0540   22.1670 N   0  0  0  0  0  0  0  0  0  0  0  0
  -23.5600  -32.1710   23.7760 O   0  0  0  0  0  0  0  0  0  0  0  0
  -22.7780  -29.4730   22.5990 C   0  0  0  0  0  0  0  0  0  0  0  0
  -21.4510  -29.2960   22.4720 N   0  0  0  0  0  0  0  0  0  0  0  0
  -23.4500  -28.8600   23.4320 O   0  0  0  0  0  0  0  0  0  0  0  0
  -20.9640  -29.8420   21.7740 H   0  0  0  0  0  0  0  0  0  0  0  0
  -18.0760  -28.0730   22.9730 C   0  0  0  0  0  0  0  0  0  0  0  0
  -20.6320  -28.3610   23.2490 C   0  0  0  0  0  3  0  0  0  0  0  0
  -20.7470  -26.9230   22.6940 C   0  0  0  0  0  2  0  0  0  0  0  0
  -19.6540  -26.5770   21.6780 C   0  0  0  0  0  2  0  0  0  0  0  0
  -18.2680  -26.7170   22.3130 C   0  0  0  0  0  2  0  0  0  0  0  0
  -19.1850  -28.8510   23.3990 C   0  0  0  0  0  0  0  0  0  0  0  0
  -18.9510  -30.1160   23.9780 C   0  0  0  0  0  3  0  0  0  0  0  0
  -17.6390  -30.6050   24.1350 C   0  0  0  0  0  3  0  0  0  0  0  0
  -16.5460  -29.8250   23.7250 C   0  0  0  0  0  3  0  0  0  0  0  0
  -16.7640  -28.5600   23.1500 C   0  0  0  0  0  3  0  0  0  0  0  0
  -25.9210  -32.5350   23.8750 C   0  0  0  0  0  3  0  0  0  0  0  0
  -26.4330  -31.7780   25.1640 C   0  0  1  0  0  0  0  0  0  0  0  0
  -25.3380  -31.5490   26.2300 C   0  0  0  0  0  1  0  0  0  0  0  0
  -27.0210  -30.3970   24.7930 C   0  0  0  0  0  1  0  0  0  0  0  0
  -27.5810  -32.5810   25.8230 C   0  0  0  0  0  1  0  0  0  0  0  0
  -25.6010  -33.9350   24.2000 N   0  0  0  0  0  0  0  0  0  0  0  0
  -25.9230  -34.9900   23.4400 C   0  0  0  0  0  0  0  0  0  0  0  0
  -26.5850  -34.8880   22.4040 O   0  0  0  0  0  0  0  0  0  0  0  0
  -25.0110  -34.0870   25.0040 H   0  0  0  0  0  0  0  0  0  0  0  0
  -24.1780  -36.7740   23.1030 C   0  0  0  0  0  1  0  0  0  0  0  0
  -25.4330  -36.3780   23.8990 C   0  0  0  0  0  3  0  0  0  0  0  0
  -27.5720  -37.2820   24.6990 C   0  0  0  0  0  1  0  0  0  0  0  0
  -26.4580  -37.4380   23.7680 N   0  0  0  0  0  0  0  0  0  0  0  0
  -26.0470  -38.3560   23.9160 H   0  0  0  0  0  0  0  0  0  0  0  0
  -29.4610  -16.4690   20.1130 C   0  0  0  0  0  2  0  0  0  0  0  0
  -30.4150  -15.0740   20.2420 C   0  0  0  0  0  0  0  0  0  0  0  0
  -30.3810  -12.6820   19.3560 C   0  0  0  0  0  2  0  0  0  0  0  0
  -29.4390  -12.6150   18.1260 C   0  0  0  0  0  2  0  0  0  0  0  0
  -27.9740  -12.3920   18.5540 C   0  0  0  0  0  2  0  0  0  0  0  0
  -27.5630  -13.3140   19.7280 C   0  0  0  0  0  3  0  0  0  0  0  0
  -28.6210  -13.3370   20.8490 C   0  0  0  0  0  2  0  0  0  0  0  0
  -29.8910  -13.7710   20.2520 N   0  0  0  0  0  0  0  0  0  0  0  0
  -31.6350  -15.1490   20.0410 O   0  0  0  0  0  0  0  0  0  0  0  0
  -25.1880  -13.8910   20.4840 C   0  0  0  0  0  0  0  0  0  0  0  0
  -24.1250  -13.1160   20.8590 C   0  0  0  0  0  0  0  0  0  0  0  0
  -24.5900  -11.7660   20.8290 C   0  0  0  0  0  0  0  0  0  0  0  0
  -26.2300  -13.0120   20.2360 N   0  0  0  0  0  0  0  0  0  0  0  0
  -25.8800  -11.7280   20.5120 N   0  0  0  0  0  0  0  0  0  0  0  0
  -23.8620  -10.5040   21.0250 C   0  0  0  0  0  0  0  0  0  0  0  0
  -24.2980   -9.5350   21.9560 C   0  0  0  0  0  3  0  0  0  0  0  0
  -23.5690   -8.3400   22.1380 C   0  0  0  0  0  3  0  0  0  0  0  0
  -22.3900   -8.1050   21.3910 C   0  0  0  0  0  0  0  0  0  0  0  0
  -21.9750   -9.0620   20.4480 C   0  0  0  0  0  3  0  0  0  0  0  0
  -22.7040  -10.2490   20.2630 C   0  0  0  0  0  3  0  0  0  0  0  0
  -21.6330   -6.9620   21.4840 O   0  0  0  0  0  0  0  0  0  0  0  0
  -21.5920   -6.2180   22.6350 C   0  0  0  0  0  0  0  0  0  0  0  0
  -21.1800   -6.7720   23.8670 C   0  0  0  0  0  3  0  0  0  0  0  0
  -21.0850   -5.9540   25.0100 C   0  0  0  0  0  3  0  0  0  0  0  0
  -21.3920   -4.5840   24.9240 C   0  0  0  0  0  0  0  0  0  0  0  0
  -21.7970   -4.0290   23.6980 C   0  0  0  0  0  3  0  0  0  0  0  0
  -21.8940   -4.8440   22.5560 C   0  0  0  0  0  0  0  0  0  0  0  0
  -22.2640   -4.2990   21.3720 F   0  0  0  0  0  0  0  0  0  0  0  0
  -21.2930   -3.7950   26.0200 F   0  0  0  0  0  0  0  0  0  0  0  0
  -22.7290  -13.5950   21.1330 C   0  0  0  0  0  0  0  0  0  0  0  0
  -22.0040  -12.9010   22.0010 N   0  0  0  0  0  0  0  0  0  0  0  0
  -22.2920  -14.6200   20.6100 O   0  0  0  0  0  0  0  0  0  0  0  0
  -22.3750  -12.0730   22.4430 H   0  0  0  0  0  0  0  0  0  0  0  0
  -21.0650  -13.2000   22.2260 H   0  0  0  0  0  0  0  0  0  0  0  0
  -25.3510  -15.2610   20.3070 N   0  0  0  0  0  0  0  0  0  0  0  0
  -24.5850  -15.9160   20.4230 H   0  0  0  0  0  0  0  0  0  0  0  0
  -26.1980  -15.7010   19.9700 H   0  0  0  0  0  0  0  0  0  0  0  0
  2  1  2  0
  3  1  1  0
  3  5  1  0
  4  1  1  0
  4  5  1  0
  5 50  1  0
  6  2  1  0
  7  2  1  0
  7  8  1  0
  9 11  1  0
  9  8  1  0
 10 21  2  0
 11 16  1  0
 12 20  1  0
 12 22  1  0
 13 19  1  0
 13 15  1  0
 14 20  1  0
 15 14  1  0
 16 15  2  0
 17 11  2  0
 18 17  1  0
 18 13  2  0
 19 12  1  0
 20 10  1  0
 22 24  2  0
 23 22  1  0
 25 23  1  0
 26 35  2  0
 26 31  1  0
 27 23  1  0
 27 31  1  0
 28 27  1  0
 29 30  1  0
 29 28  1  0
 30 26  1  0
 31 32  2  0
 32 33  1  0
 34 33  2  0
 35 34  1  0
 36 10  1  0
 36 41  1  0
 36 37  1  0
 37 40  1  1
 37 38  1  0
 39 37  1  0
 41 44  1  0
 42 46  1  0
 42 41  1  0
 43 42  2  0
 46 45  1  0
 48 46  1  0
 48 49  1  0
 48 47  1  0
 50 51  1  0
 51 57  1  0
 52 57  1  0
 53 54  1  0
 53 52  1  0
 55 54  1  0
 55 62  1  0
 55 56  1  0
 57 56  1  0
 58 51  2  0
 59 60  2  0
 60 79  1  0
 61 60  1  0
 61 64  1  0
 62 59  1  0
 62 63  1  0
 63 61  2  0
 64 65  1  0
 65 66  2  0
 67 70  1  0
 67 66  1  0
 68 67  2  0
 69 68  1  0
 69 64  2  0
 70 71  1  0
 71 72  1  0
 72 73  2  0
 74 73  1  0
 74 78  1  0
 75 74  2  0
 76 71  2  0
 76 75  1  0
 77 76  1  0
 79 80  1  0
 80 83  1  0
 80 82  1  0
 81 79  2  0
 84 85  1  0
 84 59  1  0
 86 84  1  0
M  ISO  4   8 101   9 101  50 100  51 100
M  END
>  <TORSDO>  (32) 
F 19

>  <SCORE>  (32) 
-15.859

>  <name>  (32) 
31

>  <ligand_id>  (32) 
31

>  <original_smiles>  (32) 
[H]c1c([H])c([H])c2c(c1[H])C([H])([H])C([H])([H])C([H])([H])C2([H])N([H])C(=O)C1([H])N(C(=O)C([H])(N([H])C(=O)C([H])(N([H])C([H])([H])[H])C([H])([H])[H])C(C([H])([H])[H])(C([H])([H])[H])C([H])([H])[H])C([H])([H])c2c([H])c(OC([H])([H])C([H])([H])C(=C3C([H])([H])C([H])(C([H])([H])C(=O)N4C([H])([H])C([H])([H])C([H])([H])C([H])(n5nc(-c6c([H])c([H])c(Oc7c([H])c([H])c(F)c([H])c7F)c([H])c6[H])c(C(=O)N([H])[H])c5N([H])[H])C4([H])[H])C3([H])[H])C([H])([H])[H])c([H])c([H])c2C1([H])[H]

>  <smiles>  (32) 
[H]c1c([H])c([H])c2c(c1[H])C([H])([H])C([H])([H])C([H])([H])C2([H])N([H])C(=O)C1([H])N(C(=O)C([H])(N([H])C(=O)C([H])(N([H])C([H])([H])[H])C([H])([H])[H])C(C([H])([H])[H])(C([H])([H])[H])C([H])([H])[H])C([H])([H])c2c([H])c(OC([H])([H])C([H])([H])C(=C3C([H])([H])C([H])(C([H])([H])C(=O)N4C([H])([H])C([H])([H])C([H])([H])C([H])(n5nc(-c6c([H])c([H])c(Oc7c([H])c([H])c(F)c([H])c7F)c([H])c6[H])c(C(=O)N([H])[H])c5N([H])[H])C4([H])[H])C3([H])[H])C([H])([H])[H])c([H])c([H])c2C1([H])[H]

$$$$
32:0:0
     RDKit          3D

 86 93  0  0  1  0  0  0  0  0999 V2000
  -29.0360  -21.2850   20.6790 C   0  0  0  0  0  0  0  0  0  0  0  0
  -29.2420  -19.9510   20.0820 N   0  0  0  0  0  0  0  0  0  0  0  0
  -29.1110  -21.3150   21.9080 O   0  0  0  0  0  0  0  0  0  0  0  0
  -29.0880  -19.9740   19.0810 H   0  0  0  0  0  0  0  0  0  0  0  0
  -31.4100  -18.6640   20.4060 C   0  0  0  0  0  1  0  0  0  0  0  0
  -29.8920  -18.4970   20.5700 C   0  0  0  0  0  3  0  0  0  0  0  0
  -29.5060  -16.8020   20.1460 C   0  0  0  0  0  2  0  0  0  0  0  0
  -30.3850  -15.2870   20.1410 C   0  0  0  0  0  0  0  0  0  0  0  0
  -30.3730  -12.8550   19.2550 C   0  0  0  0  0  2  0  0  0  0  0  0
  -29.4260  -12.7110   18.0360 C   0  0  0  0  0  2  0  0  0  0  0  0
  -27.9790  -12.4390   18.4880 C   0  0  0  0  0  2  0  0  0  0  0  0
  -27.5530  -13.3710   19.6500 C   0  0  0  0  0  3  0  0  0  0  0  0
  -28.6230  -13.4760   20.7550 C   0  0  0  0  0  2  0  0  0  0  0  0
  -29.8570  -13.9690   20.1280 N   0  0  0  0  0  0  0  0  0  0  0  0
  -31.6040  -15.3030   19.9130 O   0  0  0  0  0  0  0  0  0  0  0  0
  -25.1900  -13.9050   20.4530 C   0  0  0  0  0  0  0  0  0  0  0  0
  -24.1440  -13.1160   20.8380 C   0  0  0  0  0  0  0  0  0  0  0  0
  -24.6220  -11.7710   20.7940 C   0  0  0  0  0  0  0  0  0  0  0  0
  -26.2370  -13.0410   20.1820 N   0  0  0  0  0  0  0  0  0  0  0  0
  -25.9080  -11.7500   20.4570 N   0  0  0  0  0  0  0  0  0  0  0  0
  -23.9110  -10.5000   20.9930 C   0  0  0  0  0  0  0  0  0  0  0  0
  -24.3570   -9.5400   21.9280 C   0  0  0  0  0  3  0  0  0  0  0  0
  -23.6430   -8.3370   22.1160 C   0  0  0  0  0  3  0  0  0  0  0  0
  -22.4670   -8.0860   21.3710 C   0  0  0  0  0  0  0  0  0  0  0  0
  -22.0390   -9.0350   20.4250 C   0  0  0  0  0  3  0  0  0  0  0  0
  -22.7540  -10.2290   20.2350 C   0  0  0  0  0  3  0  0  0  0  0  0
  -21.7240   -6.9340   21.4670 O   0  0  0  0  0  0  0  0  0  0  0  0
  -21.6800   -6.1990   22.6250 C   0  0  0  0  0  0  0  0  0  0  0  0
  -21.2300   -6.7550   23.8420 C   0  0  0  0  0  3  0  0  0  0  0  0
  -21.1360   -5.9470   24.9930 C   0  0  0  0  0  3  0  0  0  0  0  0
  -21.4800   -4.5830   24.9260 C   0  0  0  0  0  0  0  0  0  0  0  0
  -21.9220   -4.0270   23.7130 C   0  0  0  0  0  3  0  0  0  0  0  0
  -22.0190   -4.8320   22.5650 C   0  0  0  0  0  0  0  0  0  0  0  0
  -22.4250   -4.2860   21.3930 F   0  0  0  0  0  0  0  0  0  0  0  0
  -21.3830   -3.8050   26.0300 F   0  0  0  0  0  0  0  0  0  0  0  0
  -22.7460  -13.5780   21.1320 C   0  0  0  0  0  0  0  0  0  0  0  0
  -22.0370  -12.8710   22.0040 N   0  0  0  0  0  0  0  0  0  0  0  0
  -22.2930  -14.6030   20.6230 O   0  0  0  0  0  0  0  0  0  0  0  0
  -22.4180  -12.0440   22.4390 H   0  0  0  0  0  0  0  0  0  0  0  0
  -21.0990  -13.1610   22.2400 H   0  0  0  0  0  0  0  0  0  0  0  0
  -25.3360  -15.2790   20.2790 N   0  0  0  0  0  0  0  0  0  0  0  0
  -24.5670  -15.9240   20.4150 H   0  0  0  0  0  0  0  0  0  0  0  0
  -26.1740  -15.7290   19.9360 H   0  0  0  0  0  0  0  0  0  0  0  0
  -28.7830  -22.8560   19.9710 C   0  0  0  0  0  2  0  0  0  0  0  0
  -28.0690  -24.3750   20.5920 C   0  0  0  0  0  2  0  0  0  0  0  0
  -28.2490  -25.9790   20.3010 O   0  0  0  0  0  0  0  0  0  0  0  0
  -24.5910  -31.8880   23.2400 C   0  0  0  0  0  0  0  0  0  0  0  0
  -27.2040  -27.0320   20.2880 C   0  0  0  0  0  0  0  0  0  0  0  0
  -23.4180  -30.4760   21.6000 C   0  0  0  0  0  3  0  0  0  0  0  0
  -24.8870  -28.8700   20.2070 C   0  0  0  0  0  0  0  0  0  0  0  0
  -25.9820  -30.7110   21.4700 C   0  0  0  0  0  2  0  0  0  0  0  0
  -26.0670  -29.2980   20.8290 C   0  0  0  0  0  0  0  0  0  0  0  0
  -27.2240  -28.4010   20.8400 C   0  0  0  0  0  3  0  0  0  0  0  0
  -25.9930  -26.7430   19.6230 C   0  0  0  0  0  3  0  0  0  0  0  0
  -24.8730  -27.6130   19.5830 C   0  0  0  0  0  3  0  0  0  0  0  0
  -23.6630  -29.7820   20.2320 C   0  0  0  0  0  2  0  0  0  0  0  0
  -24.6850  -31.0520   22.1570 N   0  0  0  0  0  0  0  0  0  0  0  0
  -23.4960  -32.1740   23.7520 O   0  0  0  0  0  0  0  0  0  0  0  0
  -22.7230  -29.4820   22.5660 C   0  0  0  0  0  0  0  0  0  0  0  0
  -21.3940  -29.3110   22.4330 N   0  0  0  0  0  0  0  0  0  0  0  0
  -23.3850  -28.8640   23.4040 O   0  0  0  0  0  0  0  0  0  0  0  0
  -20.9130  -29.8590   21.7340 H   0  0  0  0  0  0  0  0  0  0  0  0
  -18.0110  -28.1000   22.9330 C   0  0  0  0  0  0  0  0  0  0  0  0
  -20.5700  -28.3740   23.2050 C   0  0  0  0  0  3  0  0  0  0  0  0
  -20.6760  -26.9400   22.6360 C   0  0  0  0  0  2  0  0  0  0  0  0
  -19.5800  -26.6110   21.6190 C   0  0  0  0  0  2  0  0  0  0  0  0
  -18.1950  -26.7510   22.2580 C   0  0  0  0  0  2  0  0  0  0  0  0
  -19.1260  -28.8690   23.3630 C   0  0  0  0  0  0  0  0  0  0  0  0
  -18.8980  -30.1290   23.9580 C   0  0  0  0  0  3  0  0  0  0  0  0
  -17.5890  -30.6230   24.1220 C   0  0  0  0  0  3  0  0  0  0  0  0
  -16.4910  -29.8520   23.7060 C   0  0  0  0  0  3  0  0  0  0  0  0
  -16.7020  -28.5920   23.1190 C   0  0  0  0  0  3  0  0  0  0  0  0
  -25.8550  -32.5420   23.8790 C   0  0  0  0  0  3  0  0  0  0  0  0
  -26.3430  -31.7960   25.1820 C   0  0  1  0  0  0  0  0  0  0  0  0
  -25.2290  -31.5800   26.2340 C   0  0  0  0  0  1  0  0  0  0  0  0
  -26.9340  -30.4100   24.8380 C   0  0  0  0  0  1  0  0  0  0  0  0
  -27.4810  -32.6030   25.8520 C   0  0  0  0  0  1  0  0  0  0  0  0
  -25.5320  -33.9450   24.1890 N   0  0  0  0  0  0  0  0  0  0  0  0
  -25.8740  -34.9960   23.4310 C   0  0  0  0  0  0  0  0  0  0  0  0
  -26.5580  -34.8860   22.4120 O   0  0  0  0  0  0  0  0  0  0  0  0
  -24.9240  -34.1030   24.9790 H   0  0  0  0  0  0  0  0  0  0  0  0
  -24.1560  -36.7970   23.0430 C   0  0  0  0  0  1  0  0  0  0  0  0
  -25.3820  -36.3900   23.8740 C   0  0  0  0  0  3  0  0  0  0  0  0
  -27.5030  -37.2820   24.7360 C   0  0  0  0  0  1  0  0  0  0  0  0
  -26.4200  -37.4410   23.7710 N   0  0  0  0  0  0  0  0  0  0  0  0
  -26.0120  -38.3640   23.9000 H   0  0  0  0  0  0  0  0  0  0  0  0
  1  3  2  0
  2  6  1  0
  2  1  1  0
  4  2  1  0
  6  5  1  0
  7  6  1  0
  8  7  1  0
  9 14  1  0
 10 11  1  0
 10  9  1  0
 12 11  1  0
 12 19  1  0
 12 13  1  0
 14  8  1  0
 14 13  1  0
 15  8  2  0
 16 17  2  0
 17 36  1  0
 18 17  1  0
 18 21  1  0
 19 16  1  0
 19 20  1  0
 20 18  2  0
 21 22  1  0
 22 23  2  0
 24 27  1  0
 24 23  1  0
 25 24  2  0
 26 25  1  0
 26 21  2  0
 27 28  1  0
 28 29  1  0
 29 30  2  0
 31 30  1  0
 31 35  1  0
 32 31  2  0
 33 28  2  0
 33 32  1  0
 34 33  1  0
 36 37  1  0
 37 40  1  0
 37 39  1  0
 38 36  2  0
 41 42  1  0
 41 16  1  0
 43 41  1  0
 44 45  1  0
 44  1  1  0
 46 45  1  0
 47 58  2  0
 48 46  1  0
 48 53  1  0
 49 57  1  0
 49 59  1  0
 50 56  1  0
 50 52  1  0
 51 57  1  0
 52 53  2  0
 52 51  1  0
 54 48  2  0
 55 54  1  0
 55 50  2  0
 56 49  1  0
 57 47  1  0
 59 61  2  0
 60 59  1  0
 62 60  1  0
 63 72  2  0
 63 68  1  0
 64 60  1  0
 64 68  1  0
 65 64  1  0
 66 67  1  0
 66 65  1  0
 67 63  1  0
 68 69  2  0
 69 70  1  0
 71 70  2  0
 72 71  1  0
 73 47  1  0
 73 78  1  0
 73 74  1  0
 74 77  1  1
 74 75  1  0
 76 74  1  0
 78 81  1  0
 79 83  1  0
 79 78  1  0
 80 79  2  0
 83 82  1  0
 85 83  1  0
 85 86  1  0
 85 84  1  0
M  ISO  4   7 100   8 100  45 101  46 101
M  END
>  <TORSDO>  (33) 
F 20

>  <SCORE>  (33) 
-15.644

>  <name>  (33) 
32

>  <ligand_id>  (33) 
32

>  <original_smiles>  (33) 
[H]c1c([H])c([H])c2c(c1[H])C([H])([H])C([H])([H])C([H])([H])C2([H])N([H])C(=O)C1([H])N(C(=O)C([H])(N([H])C(=O)C([H])(N([H])C([H])([H])[H])C([H])([H])[H])C(C([H])([H])[H])(C([H])([H])[H])C([H])([H])[H])C([H])([H])c2c([H])c(OC([H])([H])C([H])([H])C(=O)N([H])C([H])(C([H])([H])[H])C([H])([H])C(=O)N3C([H])([H])C([H])([H])C([H])([H])C([H])(n4nc(-c5c([H])c([H])c(Oc6c([H])c([H])c(F)c([H])c6F)c([H])c5[H])c(C(=O)N([H])[H])c4N([H])[H])C3([H])[H])c([H])c([H])c2C1([H])[H]

>  <smiles>  (33) 
[H]c1c([H])c([H])c2c(c1[H])C([H])([H])C([H])([H])C([H])([H])C2([H])N([H])C(=O)C1([H])N(C(=O)C([H])(N([H])C(=O)C([H])(N([H])C([H])([H])[H])C([H])([H])[H])C(C([H])([H])[H])(C([H])([H])[H])C([H])([H])[H])C([H])([H])c2c([H])c(OC([H])([H])C([H])([H])C(=O)N([H])C([H])(C([H])([H])[H])C([H])([H])C(=O)N3C([H])([H])C([H])([H])C([H])([H])C([H])(n4nc(-c5c([H])c([H])c(Oc6c([H])c([H])c(F)c([H])c6F)c([H])c5[H])c(C(=O)N([H])[H])c4N([H])[H])C3([H])[H])c([H])c([H])c2C1([H])[H]

$$$$
33:0:0
     RDKit          3D

 92100  0  0  1  0  0  0  0  0999 V2000
  -30.3930  -22.7860   22.8300 C   0  0  0  0  0  2  0  0  0  0  0  0
  -29.0420  -22.1300   23.1380 C   0  0  0  0  0  2  0  0  0  0  0  0
  -30.2640  -23.3840   21.4230 C   0  0  0  0  0  2  0  0  0  0  0  0
  -28.1370  -22.4940   21.9580 C   0  0  0  0  0  2  0  0  0  0  0  0
  -29.0710  -22.6820   20.7440 C   0  0  2  0  0  0  0  0  0  0  0  0
  -29.0760  -20.0200   20.1700 C   0  0  0  0  0  0  0  0  0  0  0  0
  -29.6020  -21.2950   20.3010 N   0  0  0  0  0  0  0  0  0  0  0  0
  -29.9520  -18.9430   20.2310 N   0  0  0  0  0  0  0  0  0  0  0  0
  -27.8690  -19.8410   20.0010 O   0  0  0  0  0  0  0  0  0  0  0  0
  -30.6120  -21.2860   20.2820 H   0  0  0  0  0  0  0  0  0  0  0  0
  -30.9060  -19.1860   20.4630 H   0  0  0  0  0  0  0  0  0  0  0  0
  -29.7870  -17.4810   19.7730 C   0  0  0  0  0  2  0  0  0  0  0  0
  -30.0220  -16.1980   20.7540 C   0  0  0  0  0  2  0  0  0  0  0  0
  -30.7020  -14.8270   20.2270 C   0  0  0  0  0  0  0  0  0  0  0  0
  -30.4860  -12.5380   19.2230 C   0  0  0  0  0  2  0  0  0  0  0  0
  -29.5400  -12.6220   18.0030 C   0  0  0  0  0  2  0  0  0  0  0  0
  -28.0680  -12.4780   18.4350 C   0  0  0  0  0  2  0  0  0  0  0  0
  -27.7170  -13.3640   19.6610 C   0  0  0  0  0  3  0  0  0  0  0  0
  -28.7820  -13.2440   20.7720 C   0  0  0  0  0  2  0  0  0  0  0  0
  -30.0770  -13.5960   20.1810 N   0  0  0  0  0  0  0  0  0  0  0  0
  -31.8540  -14.9100   19.7890 O   0  0  0  0  0  0  0  0  0  0  0  0
  -25.3320  -13.9790   20.3780 C   0  0  0  0  0  0  0  0  0  0  0  0
  -24.2600  -13.2190   20.7630 C   0  0  0  0  0  0  0  0  0  0  0  0
  -24.7150  -11.8650   20.7570 C   0  0  0  0  0  0  0  0  0  0  0  0
  -26.3710  -13.0890   20.1580 N   0  0  0  0  0  0  0  0  0  0  0  0
  -26.0060  -11.8140   20.4460 N   0  0  0  0  0  0  0  0  0  0  0  0
  -23.9800  -10.6110   20.9720 C   0  0  0  0  0  0  0  0  0  0  0  0
  -24.4140   -9.6490   21.9120 C   0  0  0  0  0  3  0  0  0  0  0  0
  -23.6790   -8.4610   22.1120 C   0  0  0  0  0  3  0  0  0  0  0  0
  -22.4940   -8.2260   21.3730 C   0  0  0  0  0  0  0  0  0  0  0  0
  -22.0790   -9.1750   20.4230 C   0  0  0  0  0  3  0  0  0  0  0  0
  -22.8160  -10.3550   20.2220 C   0  0  0  0  0  3  0  0  0  0  0  0
  -21.7290   -7.0900   21.4840 O   0  0  0  0  0  0  0  0  0  0  0  0
  -21.6950   -6.3560   22.6420 C   0  0  0  0  0  0  0  0  0  0  0  0
  -21.3120   -6.9260   23.8760 C   0  0  0  0  0  3  0  0  0  0  0  0
  -21.2240   -6.1190   25.0270 C   0  0  0  0  0  3  0  0  0  0  0  0
  -21.5090   -4.7430   24.9460 C   0  0  0  0  0  0  0  0  0  0  0  0
  -21.8860   -4.1730   23.7170 C   0  0  0  0  0  3  0  0  0  0  0  0
  -21.9760   -4.9770   22.5680 C   0  0  0  0  0  0  0  0  0  0  0  0
  -22.3190   -4.4200   21.3810 F   0  0  0  0  0  0  0  0  0  0  0  0
  -21.4170   -3.9640   26.0490 F   0  0  0  0  0  0  0  0  0  0  0  0
  -22.8680  -13.7130   21.0290 C   0  0  0  0  0  0  0  0  0  0  0  0
  -22.1400  -13.0420   21.9150 N   0  0  0  0  0  0  0  0  0  0  0  0
  -22.4370  -14.7300   20.4880 O   0  0  0  0  0  0  0  0  0  0  0  0
  -22.5040  -12.2200   22.3720 H   0  0  0  0  0  0  0  0  0  0  0  0
  -21.2050  -13.3530   22.1360 H   0  0  0  0  0  0  0  0  0  0  0  0
  -25.5050  -15.3430   20.1720 N   0  0  0  0  0  0  0  0  0  0  0  0
  -24.7410  -16.0060   20.2500 H   0  0  0  0  0  0  0  0  0  0  0  0
  -26.3670  -15.7690   19.8600 H   0  0  0  0  0  0  0  0  0  0  0  0
  -28.3640  -23.6930   19.6860 C   0  0  0  0  0  2  0  0  0  0  0  0
  -28.7500  -25.2570   19.4000 C   0  0  0  0  0  2  0  0  0  0  0  0
  -28.5030  -26.4920   20.2130 O   0  0  0  0  0  0  0  0  0  0  0  0
  -24.7110  -31.8810   23.1910 C   0  0  0  0  0  0  0  0  0  0  0  0
  -27.3760  -27.3370   20.1040 C   0  0  0  0  0  0  0  0  0  0  0  0
  -23.5270  -30.4820   21.5370 C   0  0  0  0  0  3  0  0  0  0  0  0
  -24.9950  -28.9490   20.0960 C   0  0  0  0  0  0  0  0  0  0  0  0
  -26.0640  -30.8150   21.3660 C   0  0  0  0  0  2  0  0  0  0  0  0
  -26.1560  -29.4390   20.7080 C   0  0  0  0  0  0  0  0  0  0  0  0
  -27.3430  -28.6400   20.7070 C   0  0  0  0  0  3  0  0  0  0  0  0
  -26.1940  -26.9070   19.4660 C   0  0  0  0  0  3  0  0  0  0  0  0
  -25.0200  -27.6910   19.4660 C   0  0  0  0  0  3  0  0  0  0  0  0
  -23.7500  -29.8150   20.1520 C   0  0  0  0  0  2  0  0  0  0  0  0
  -24.7860  -31.0790   22.0870 N   0  0  0  0  0  0  0  0  0  0  0  0
  -23.6230  -32.1430   23.7260 O   0  0  0  0  0  0  0  0  0  0  0  0
  -22.8700  -29.4550   22.4900 C   0  0  0  0  0  0  0  0  0  0  0  0
  -21.5430  -29.2790   22.3710 N   0  0  0  0  0  0  0  0  0  0  0  0
  -23.5540  -28.8210   23.2980 O   0  0  0  0  0  0  0  0  0  0  0  0
  -21.0510  -29.8440   21.6920 H   0  0  0  0  0  0  0  0  0  0  0  0
  -18.1670  -28.0830   22.8880 C   0  0  0  0  0  0  0  0  0  0  0  0
  -20.7290  -28.3320   23.1350 C   0  0  0  0  0  3  0  0  0  0  0  0
  -20.8220  -26.9120   22.5330 C   0  0  0  0  0  2  0  0  0  0  0  0
  -19.7080  -26.6080   21.5260 C   0  0  0  0  0  2  0  0  0  0  0  0
  -18.3330  -26.7450   22.1880 C   0  0  0  0  0  2  0  0  0  0  0  0
  -19.2930  -28.8350   23.3200 C   0  0  0  0  0  0  0  0  0  0  0  0
  -19.0830  -30.0880   23.9360 C   0  0  0  0  0  3  0  0  0  0  0  0
  -17.7800  -30.5880   24.1260 C   0  0  0  0  0  3  0  0  0  0  0  0
  -16.6700  -29.8320   23.7110 C   0  0  0  0  0  3  0  0  0  0  0  0
  -16.8650  -28.5820   23.0980 C   0  0  0  0  0  3  0  0  0  0  0  0
  -25.9840  -32.5230   23.8230 C   0  0  0  0  0  3  0  0  0  0  0  0
  -25.6590  -33.9160   24.1640 N   0  0  0  0  0  0  0  0  0  0  0  0
  -25.9770  -34.9800   23.4150 C   0  0  0  0  0  0  0  0  0  0  0  0
  -26.6480  -34.8930   22.3830 O   0  0  0  0  0  0  0  0  0  0  0  0
  -25.0650  -34.0560   24.9680 H   0  0  0  0  0  0  0  0  0  0  0  0
  -24.2270  -36.7550   23.0820 C   0  0  0  0  0  1  0  0  0  0  0  0
  -25.4760  -36.3600   23.8850 C   0  0  0  0  0  3  0  0  0  0  0  0
  -27.6050  -37.2640   24.7100 C   0  0  0  0  0  1  0  0  0  0  0  0
  -26.4960  -37.4270   23.7740 N   0  0  0  0  0  0  0  0  0  0  0  0
  -26.0800  -38.3410   23.9310 H   0  0  0  0  0  0  0  0  0  0  0  0
  -26.5030  -31.7500   25.0970 C   0  0  1  0  0  0  0  0  0  0  0  0
  -25.4080  -31.4970   26.1620 C   0  0  0  0  0  1  0  0  0  0  0  0
  -27.0980  -30.3790   24.7020 C   0  0  0  0  0  1  0  0  0  0  0  0
  -27.6460  -32.5490   25.7680 C   0  0  0  0  0  1  0  0  0  0  0  0
  1  2  1  0
  3  1  1  0
  4  2  1  0
  5  3  1  0
  5  4  1  0
  6  8  1  0
  6  7  1  0
  7  5  1  0
  8 11  1  0
  9  6  2  0
 10  7  1  0
 12  8  1  0
 12 13  1  0
 14 13  1  0
 15 20  1  0
 16 17  1  0
 16 15  1  0
 18 17  1  0
 18 25  1  0
 18 19  1  0
 20 14  1  0
 20 19  1  0
 21 14  2  0
 22 23  2  0
 23 42  1  0
 24 23  1  0
 24 27  1  0
 25 22  1  0
 25 26  1  0
 26 24  2  0
 27 28  1  0
 28 29  2  0
 30 33  1  0
 30 29  1  0
 31 30  2  0
 32 31  1  0
 32 27  2  0
 33 34  1  0
 34 35  1  0
 35 36  2  0
 37 36  1  0
 37 41  1  0
 38 37  2  0
 39 34  2  0
 39 38  1  0
 40 39  1  0
 42 43  1  0
 43 46  1  0
 43 45  1  0
 44 42  2  0
 47 48  1  0
 47 22  1  0
 49 47  1  0
  5 50  1  6
 51 50  1  0
 51 52  1  0
 53 64  2  0
 54 52  1  0
 54 59  1  0
 55 63  1  0
 55 65  1  0
 56 62  1  0
 56 58  1  0
 57 63  1  0
 58 57  1  0
 59 58  2  0
 60 54  2  0
 61 60  1  0
 61 56  2  0
 62 55  1  0
 63 53  1  0
 65 67  2  0
 66 65  1  0
 68 66  1  0
 69 78  2  0
 69 74  1  0
 70 66  1  0
 70 74  1  0
 71 70  1  0
 72 73  1  0
 72 71  1  0
 73 69  1  0
 74 75  2  0
 75 76  1  0
 77 76  2  0
 78 77  1  0
 79 53  1  0
 79 80  1  0
 79 89  1  0
 80 83  1  0
 81 85  1  0
 81 80  1  0
 82 81  2  0
 85 84  1  0
 87 85  1  0
 87 88  1  0
 87 86  1  0
 89 92  1  1
 89 90  1  0
 91 89  1  0
M  ISO  4  13 100  14 100  51 101  52 101
M  END
>  <TORSDO>  (34) 
F 21

>  <SCORE>  (34) 
-13.222

>  <name>  (34) 
33

>  <ligand_id>  (34) 
33

>  <original_smiles>  (34) 
[H]c1c([H])c([H])c2c(c1[H])C([H])([H])C([H])([H])C([H])([H])C2([H])N([H])C(=O)C1([H])N(C(=O)C([H])(N([H])C(=O)C([H])(N([H])C([H])([H])[H])C([H])([H])[H])C(C([H])([H])[H])(C([H])([H])[H])C([H])([H])[H])C([H])([H])c2c([H])c(OC([H])([H])C([H])([H])C3(N([H])C(=O)N([H])C([H])([H])C([H])([H])C(=O)N4C([H])([H])C([H])([H])C([H])([H])C([H])(n5nc(-c6c([H])c([H])c(Oc7c([H])c([H])c(F)c([H])c7F)c([H])c6[H])c(C(=O)N([H])[H])c5N([H])[H])C4([H])[H])C([H])([H])C([H])([H])C([H])([H])C3([H])[H])c([H])c([H])c2C1([H])[H]

>  <smiles>  (34) 
[H]c1c([H])c([H])c2c(c1[H])C([H])([H])C([H])([H])C([H])([H])C2([H])N([H])C(=O)C1([H])N(C(=O)C([H])(N([H])C(=O)C([H])(N([H])C([H])([H])[H])C([H])([H])[H])C(C([H])([H])[H])(C([H])([H])[H])C([H])([H])[H])C([H])([H])c2c([H])c(OC([H])([H])C([H])([H])C3(N([H])C(=O)N([H])C([H])([H])C([H])([H])C(=O)N4C([H])([H])C([H])([H])C([H])([H])C([H])(n5nc(-c6c([H])c([H])c(Oc7c([H])c([H])c(F)c([H])c7F)c([H])c6[H])c(C(=O)N([H])[H])c5N([H])[H])C4([H])[H])C([H])([H])C([H])([H])C([H])([H])C3([H])[H])c([H])c([H])c2C1([H])[H]

$$$$
34:0:0
     RDKit          3D

 93101  0  0  1  0  0  0  0  0999 V2000
  -30.1080  -21.3810   20.6420 N   0  0  0  0  0  4  0  0  0  0  0  0
  -29.8570  -21.2000   19.6760 H   0  0  0  0  0  0  0  0  0  0  0  0
  -31.0600  -21.7100   20.6360 H   0  0  0  0  0  0  0  0  0  0  0  0
  -28.6790  -19.5310   21.6940 C   0  0  0  0  0  1  0  0  0  0  0  0
  -30.1050  -20.0080   21.3480 C   0  0  0  0  0  3  0  0  0  0  0  0
  -32.3750  -19.2130   20.3350 C   0  0  0  0  0  1  0  0  0  0  0  0
  -30.9700  -18.7460   20.7610 C   0  0  0  0  0  3  0  0  0  0  0  0
  -30.3410  -17.7950   19.6730 C   0  0  0  0  0  3  0  0  0  0  0  0
  -30.2390  -16.4230   19.4140 C   0  0  0  0  0  3  0  0  0  0  0  0
  -29.7780  -18.5160   18.5100 C   0  0  0  0  0  0  0  0  0  0  0  0
  -29.4560  -16.2780   18.1100 C   0  0  0  0  0  2  0  0  0  0  0  0
  -29.5550  -17.5870   17.3590 C   0  0  0  0  0  2  0  0  0  0  0  0
  -29.5700  -19.7270   18.3920 O   0  0  0  0  0  0  0  0  0  0  0  0
  -31.0090  -15.1950   19.9090 C   0  0  0  0  0  0  0  0  0  0  0  0
  -30.8280  -12.8180   19.1350 C   0  0  0  0  0  2  0  0  0  0  0  0
  -29.8690  -12.6430   17.9360 C   0  0  0  0  0  2  0  0  0  0  0  0
  -28.4020  -12.5070   18.3950 C   0  0  0  0  0  2  0  0  0  0  0  0
  -28.0050  -13.5020   19.5140 C   0  0  0  0  0  3  0  0  0  0  0  0
  -29.0880  -13.6440   20.6010 C   0  0  0  0  0  2  0  0  0  0  0  0
  -30.3640  -13.9690   19.9450 N   0  0  0  0  0  0  0  0  0  0  0  0
  -32.2380  -15.1940   19.8400 O   0  0  0  0  0  0  0  0  0  0  0  0
  -25.6720  -14.1800   20.3350 C   0  0  0  0  0  0  0  0  0  0  0  0
  -24.5940  -13.4300   20.7220 C   0  0  0  0  0  0  0  0  0  0  0  0
  -25.0250  -12.0710   20.6720 C   0  0  0  0  0  0  0  0  0  0  0  0
  -26.6800  -13.2640   20.0610 N   0  0  0  0  0  0  0  0  0  0  0  0
  -26.3040  -11.9980   20.3390 N   0  0  0  0  0  0  0  0  0  0  0  0
  -24.2820  -10.8240   20.8630 C   0  0  0  0  0  0  0  0  0  0  0  0
  -24.6820   -9.8700   21.8230 C   0  0  0  0  0  3  0  0  0  0  0  0
  -23.9420   -8.6810   21.9990 C   0  0  0  0  0  3  0  0  0  0  0  0
  -22.7880   -8.4430   21.2170 C   0  0  0  0  0  0  0  0  0  0  0  0
  -22.4070   -9.3860   20.2450 C   0  0  0  0  0  3  0  0  0  0  0  0
  -23.1500  -10.5650   20.0650 C   0  0  0  0  0  3  0  0  0  0  0  0
  -22.0220   -7.3060   21.3050 O   0  0  0  0  0  0  0  0  0  0  0  0
  -21.8890   -6.6200   22.4850 C   0  0  0  0  0  0  0  0  0  0  0  0
  -21.3410   -7.2200   23.6400 C   0  0  0  0  0  3  0  0  0  0  0  0
  -21.1540   -6.4540   24.8070 C   0  0  0  0  0  3  0  0  0  0  0  0
  -21.5120   -5.0940   24.8240 C   0  0  0  0  0  0  0  0  0  0  0  0
  -22.0600   -4.4960   23.6760 C   0  0  0  0  0  3  0  0  0  0  0  0
  -22.2440   -5.2560   22.5070 C   0  0  0  0  0  0  0  0  0  0  0  0
  -22.7490   -4.6690   21.3950 F   0  0  0  0  0  0  0  0  0  0  0  0
  -21.3270   -4.3580   25.9460 F   0  0  0  0  0  0  0  0  0  0  0  0
  -23.2120  -13.9380   21.0220 C   0  0  0  0  0  0  0  0  0  0  0  0
  -22.4850  -13.2530   21.9010 N   0  0  0  0  0  0  0  0  0  0  0  0
  -22.7850  -14.9730   20.5130 O   0  0  0  0  0  0  0  0  0  0  0  0
  -22.8440  -12.4180   22.3370 H   0  0  0  0  0  0  0  0  0  0  0  0
  -21.5570  -13.5690   22.1450 H   0  0  0  0  0  0  0  0  0  0  0  0
  -25.8730  -15.5460   20.1690 N   0  0  0  0  0  0  0  0  0  0  0  0
  -25.1390  -16.2290   20.3310 H   0  0  0  0  0  0  0  0  0  0  0  0
  -26.7470  -15.9630   19.8770 H   0  0  0  0  0  0  0  0  0  0  0  0
  -29.2320  -22.5270   21.1870 C   0  0  0  0  0  2  0  0  0  0  0  0
  -29.3720  -24.0590   20.6020 C   0  0  0  0  0  2  0  0  0  0  0  0
  -28.3360  -25.2340   20.1040 C   0  0  0  0  0  2  0  0  0  0  0  0
  -28.4860  -26.6980   20.4080 O   0  0  0  0  0  0  0  0  0  0  0  0
  -24.6440  -32.0570   23.3640 C   0  0  0  0  0  0  0  0  0  0  0  0
  -27.3640  -27.5610   20.2950 C   0  0  0  0  0  0  0  0  0  0  0  0
  -23.4800  -30.6720   21.6850 C   0  0  0  0  0  3  0  0  0  0  0  0
  -24.9710  -29.1670   20.2490 C   0  0  0  0  0  0  0  0  0  0  0  0
  -26.0180  -31.0270   21.5370 C   0  0  0  0  0  2  0  0  0  0  0  0
  -26.1280  -29.6590   20.8680 C   0  0  0  0  0  0  0  0  0  0  0  0
  -27.3230  -28.8700   20.8770 C   0  0  0  0  0  3  0  0  0  0  0  0
  -26.1870  -27.1420   19.6280 C   0  0  0  0  0  3  0  0  0  0  0  0
  -25.0060  -27.9130   19.6180 C   0  0  0  0  0  3  0  0  0  0  0  0
  -23.7190  -30.0240   20.2960 C   0  0  0  0  0  2  0  0  0  0  0  0
  -24.7320  -31.2700   22.2520 N   0  0  0  0  0  0  0  0  0  0  0  0
  -23.5510  -32.3080   23.8920 O   0  0  0  0  0  0  0  0  0  0  0  0
  -22.8210  -29.6290   22.6200 C   0  0  0  0  0  0  0  0  0  0  0  0
  -21.5060  -29.4080   22.4510 N   0  0  0  0  0  0  0  0  0  0  0  0
  -23.4940  -29.0220   23.4570 O   0  0  0  0  0  0  0  0  0  0  0  0
  -21.0190  -29.9430   21.7460 H   0  0  0  0  0  0  0  0  0  0  0  0
  -18.1600  -28.0930   22.8420 C   0  0  0  0  0  0  0  0  0  0  0  0
  -20.6970  -28.4440   23.1980 C   0  0  0  0  0  3  0  0  0  0  0  0
  -20.8710  -27.0180   22.6290 C   0  0  0  0  0  2  0  0  0  0  0  0
  -19.8170  -26.6550   21.5790 C   0  0  0  0  0  2  0  0  0  0  0  0
  -18.4090  -26.7520   22.1730 C   0  0  0  0  0  2  0  0  0  0  0  0
  -19.2360  -28.8940   23.3100 C   0  0  0  0  0  0  0  0  0  0  0  0
  -18.9500  -30.1470   23.8930 C   0  0  0  0  0  3  0  0  0  0  0  0
  -17.6220  -30.6000   24.0150 C   0  0  0  0  0  3  0  0  0  0  0  0
  -16.5610  -29.7960   23.5620 C   0  0  0  0  0  3  0  0  0  0  0  0
  -16.8320  -28.5450   22.9800 C   0  0  0  0  0  3  0  0  0  0  0  0
  -25.9100  -32.6990   24.0100 C   0  0  0  0  0  3  0  0  0  0  0  0
  -25.6000  -34.1090   24.2870 N   0  0  0  0  0  0  0  0  0  0  0  0
  -25.9570  -35.1380   23.5040 C   0  0  0  0  0  0  0  0  0  0  0  0
  -26.6540  -34.9980   22.4950 O   0  0  0  0  0  0  0  0  0  0  0  0
  -24.9860  -34.2930   25.0680 H   0  0  0  0  0  0  0  0  0  0  0  0
  -24.2510  -36.9270   23.0500 C   0  0  0  0  0  1  0  0  0  0  0  0
  -25.4680  -36.5420   23.9070 C   0  0  0  0  0  3  0  0  0  0  0  0
  -27.5790  -37.4460   24.7760 C   0  0  0  0  0  1  0  0  0  0  0  0
  -26.5110  -37.5850   23.7890 N   0  0  0  0  0  0  0  0  0  0  0  0
  -26.1060  -38.5130   23.8850 H   0  0  0  0  0  0  0  0  0  0  0  0
  -26.3730  -31.9660   25.3280 C   0  0  1  0  0  0  0  0  0  0  0  0
  -25.2350  -31.7650   26.3570 C   0  0  0  0  0  1  0  0  0  0  0  0
  -26.9650  -30.5760   25.0040 C   0  0  0  0  0  1  0  0  0  0  0  0
  -27.5000  -32.7780   26.0090 C   0  0  0  0  0  1  0  0  0  0  0  0
  1 50  1  0
  1  5  1  0
  2  1  1  0
  3  1  1  0
  5  4  1  0
  7  6  1  0
  7  5  1  0
  8  7  1  0
  9  8  1  0
  9 14  1  0
 10  8  1  0
 11  9  1  0
 12 11  1  0
 12 10  1  0
 13 10  2  0
 14 20  1  0
 15 20  1  0
 16 17  1  0
 16 15  1  0
 18 17  1  0
 18 25  1  0
 18 19  1  0
 20 19  1  0
 21 14  2  0
 22 23  2  0
 23 42  1  0
 24 23  1  0
 24 27  1  0
 25 22  1  0
 25 26  1  0
 26 24  2  0
 27 28  1  0
 28 29  2  0
 30 33  1  0
 30 29  1  0
 31 30  2  0
 32 31  1  0
 32 27  2  0
 33 34  1  0
 34 39  2  0
 34 35  1  0
 35 36  2  0
 36 37  1  0
 37 41  1  0
 38 37  2  0
 39 38  1  0
 40 39  1  0
 42 43  1  0
 43 46  1  0
 43 45  1  0
 44 42  2  0
 47 48  1  0
 47 22  1  0
 49 47  1  0
 51 50  1  0
 52 53  1  0
 52 51  1  0
 54 65  2  0
 55 53  1  0
 55 60  1  0
 56 64  1  0
 56 66  1  0
 57 63  1  0
 57 59  1  0
 58 64  1  0
 59 60  2  0
 59 58  1  0
 61 55  2  0
 62 61  1  0
 62 57  2  0
 63 56  1  0
 64 54  1  0
 66 68  2  0
 67 66  1  0
 69 67  1  0
 70 79  2  0
 70 75  1  0
 71 67  1  0
 71 75  1  0
 72 71  1  0
 73 74  1  0
 73 72  1  0
 74 70  1  0
 75 76  2  0
 76 77  1  0
 78 77  2  0
 79 78  1  0
 80 54  1  0
 80 81  1  0
 80 90  1  0
 81 84  1  0
 82 86  1  0
 82 81  1  0
 83 82  2  0
 86 85  1  0
 88 89  1  0
 88 86  1  0
 88 87  1  0
 90 93  1  1
 90 91  1  0
 92 90  1  0
M  ISO  4   9 100  14 100  52 101  53 101
M  END
>  <TORSDO>  (35) 
F 22

>  <SCORE>  (35) 
-10.387

>  <name>  (35) 
34

>  <ligand_id>  (35) 
34

>  <original_smiles>  (35) 
[H]c1c([H])c([H])c2c(c1[H])C([H])([H])C([H])([H])C([H])([H])C2([H])N([H])C(=O)C1([H])N(C(=O)C([H])(N([H])C(=O)C([H])(N([H])C([H])([H])[H])C([H])([H])[H])C(C([H])([H])[H])(C([H])([H])[H])C([H])([H])[H])C([H])([H])c2c([H])c(OC([H])([H])C([H])([H])C([H])([H])[N+]([H])([H])C([H])(C([H])([H])[H])C([H])(C3=C(C(=O)N4C([H])([H])C([H])([H])C([H])([H])C([H])(n5nc(-c6c([H])c([H])c(Oc7c([H])c([H])c(F)c([H])c7F)c([H])c6[H])c(C(=O)N([H])[H])c5N([H])[H])C4([H])[H])C([H])([H])C([H])([H])C3=O)C([H])([H])[H])c([H])c([H])c2C1([H])[H]

>  <smiles>  (35) 
[H]c1c([H])c([H])c2c(c1[H])C([H])([H])C([H])([H])C([H])([H])C2([H])N([H])C(=O)C1([H])N(C(=O)C([H])(N([H])C(=O)C([H])(N([H])C([H])([H])[H])C([H])([H])[H])C(C([H])([H])[H])(C([H])([H])[H])C([H])([H])[H])C([H])([H])c2c([H])c(OC([H])([H])C([H])([H])C([H])([H])[N+]([H])([H])C([H])(C([H])([H])[H])C([H])(C3=C(C(=O)N4C([H])([H])C([H])([H])C([H])([H])C([H])(n5nc(-c6c([H])c([H])c(Oc7c([H])c([H])c(F)c([H])c7F)c([H])c6[H])c(C(=O)N([H])[H])c5N([H])[H])C4([H])[H])C([H])([H])C([H])([H])C3=O)C([H])([H])[H])c([H])c([H])c2C1([H])[H]

$$$$
35:0:0
     RDKit          3D

 85 92  0  0  1  0  0  0  0  0999 V2000
  -29.1910  -20.8180   19.7280 C   0  0  0  0  0  0  0  0  0  0  0  0
  -28.7800  -22.3260   19.7090 C   0  0  0  0  0  0  0  0  0  0  0  0
  -28.8440  -22.8880   18.2900 C   0  0  0  0  0  1  0  0  0  0  0  0
  -29.5520  -19.1980   20.4210 C   0  0  0  0  0  0  0  0  0  0  0  0
  -29.9460  -19.3020   21.6180 N   0  0  0  0  0  2  0  0  0  0  0  0
  -29.9760  -20.2710   21.9220 H   0  0  0  0  0  0  0  0  0  0  0  0
  -29.4760  -17.3660   19.8580 C   0  0  0  0  0  2  0  0  0  0  0  0
  -30.3450  -15.7050   19.9370 C   0  0  0  0  0  0  0  0  0  0  0  0
  -30.4070  -13.1820   19.0530 C   0  0  0  0  0  2  0  0  0  0  0  0
  -29.4350  -12.8520   17.8820 C   0  0  0  0  0  2  0  0  0  0  0  0
  -28.0250  -12.5090   18.3910 C   0  0  0  0  0  2  0  0  0  0  0  0
  -27.5960  -13.4580   19.5310 C   0  0  0  0  0  3  0  0  0  0  0  0
  -28.6950  -13.7080   20.5860 C   0  0  0  0  0  2  0  0  0  0  0  0
  -29.8490  -14.3280   19.8970 N   0  0  0  0  0  0  0  0  0  0  0  0
  -31.5760  -15.6440   19.7340 O   0  0  0  0  0  0  0  0  0  0  0  0
  -25.2890  -13.9640   20.4650 C   0  0  0  0  0  0  0  0  0  0  0  0
  -24.2530  -13.1720   20.8750 C   0  0  0  0  0  0  0  0  0  0  0  0
  -24.7200  -11.8250   20.7750 C   0  0  0  0  0  0  0  0  0  0  0  0
  -26.3130  -13.1010   20.1260 N   0  0  0  0  0  0  0  0  0  0  0  0
  -25.9910  -11.8050   20.3810 N   0  0  0  0  0  0  0  0  0  0  0  0
  -24.0030  -10.5570   20.9740 C   0  0  0  0  0  0  0  0  0  0  0  0
  -24.4600   -9.5830   21.8900 C   0  0  0  0  0  3  0  0  0  0  0  0
  -23.7390   -8.3850   22.0810 C   0  0  0  0  0  3  0  0  0  0  0  0
  -22.5480   -8.1480   21.3550 C   0  0  0  0  0  0  0  0  0  0  0  0
  -22.1080   -9.1100   20.4290 C   0  0  0  0  0  3  0  0  0  0  0  0
  -22.8280  -10.3010   20.2370 C   0  0  0  0  0  3  0  0  0  0  0  0
  -21.7990   -7.0010   21.4540 O   0  0  0  0  0  0  0  0  0  0  0  0
  -21.7540   -6.2670   22.6120 C   0  0  0  0  0  0  0  0  0  0  0  0
  -21.2800   -6.8170   23.8220 C   0  0  0  0  0  3  0  0  0  0  0  0
  -21.1860   -6.0100   24.9730 C   0  0  0  0  0  3  0  0  0  0  0  0
  -21.5530   -4.6520   24.9140 C   0  0  0  0  0  0  0  0  0  0  0  0
  -22.0180   -4.1000   23.7070 C   0  0  0  0  0  3  0  0  0  0  0  0
  -22.1150   -4.9050   22.5590 C   0  0  0  0  0  0  0  0  0  0  0  0
  -22.5440   -4.3650   21.3930 F   0  0  0  0  0  0  0  0  0  0  0  0
  -21.4540   -3.8730   26.0170 F   0  0  0  0  0  0  0  0  0  0  0  0
  -22.8760  -13.6400   21.2380 C   0  0  0  0  0  0  0  0  0  0  0  0
  -22.1970  -12.9160   22.1210 N   0  0  0  0  0  0  0  0  0  0  0  0
  -22.4110  -14.6800   20.7720 O   0  0  0  0  0  0  0  0  0  0  0  0
  -22.5910  -12.0760   22.5170 H   0  0  0  0  0  0  0  0  0  0  0  0
  -21.2730  -13.2070   22.4050 H   0  0  0  0  0  0  0  0  0  0  0  0
  -25.4430  -15.3390   20.3200 N   0  0  0  0  0  0  0  0  0  0  0  0
  -24.6900  -15.9950   20.4970 H   0  0  0  0  0  0  0  0  0  0  0  0
  -26.2700  -15.7820   19.9410 H   0  0  0  0  0  0  0  0  0  0  0  0
  -28.1950  -23.8580   20.5560 C   0  0  0  0  0  2  0  0  0  0  0  0
  -28.2980  -25.5940   20.2740 O   0  0  0  0  0  0  0  0  0  0  0  0
  -24.6340  -31.8340   23.1720 C   0  0  0  0  0  0  0  0  0  0  0  0
  -27.2900  -26.7750   20.2760 C   0  0  0  0  0  0  0  0  0  0  0  0
  -23.5000  -30.4150   21.5180 C   0  0  0  0  0  3  0  0  0  0  0  0
  -24.9960  -28.7750   20.1560 C   0  0  0  0  0  0  0  0  0  0  0  0
  -26.0810  -30.5890   21.4520 C   0  0  0  0  0  2  0  0  0  0  0  0
  -26.1770  -29.1530   20.8060 C   0  0  0  0  0  0  0  0  0  0  0  0
  -27.3130  -28.1870   20.8210 C   0  0  0  0  0  3  0  0  0  0  0  0
  -26.0670  -26.5990   19.5810 C   0  0  0  0  0  3  0  0  0  0  0  0
  -24.9800  -27.5230   19.5180 C   0  0  0  0  0  3  0  0  0  0  0  0
  -23.7810  -29.7150   20.1590 C   0  0  0  0  0  2  0  0  0  0  0  0
  -24.7610  -30.9790   22.0990 N   0  0  0  0  0  0  0  0  0  0  0  0
  -23.5260  -32.1230   23.6550 O   0  0  0  0  0  0  0  0  0  0  0  0
  -22.7740  -29.4330   22.4770 C   0  0  0  0  0  0  0  0  0  0  0  0
  -21.4420  -29.2850   22.3400 N   0  0  0  0  0  0  0  0  0  0  0  0
  -23.4190  -28.8010   23.3160 O   0  0  0  0  0  0  0  0  0  0  0  0
  -20.9720  -29.8460   21.6440 H   0  0  0  0  0  0  0  0  0  0  0  0
  -18.0420  -28.0940   22.8320 C   0  0  0  0  0  0  0  0  0  0  0  0
  -20.6040  -28.3490   23.1000 C   0  0  0  0  0  3  0  0  0  0  0  0
  -20.6970  -26.9200   22.5160 C   0  0  0  0  0  2  0  0  0  0  0  0
  -19.5950  -26.6120   21.4960 C   0  0  0  0  0  2  0  0  0  0  0  0
  -18.2120  -26.7550   22.1360 C   0  0  0  0  0  2  0  0  0  0  0  0
  -19.1620  -28.8500   23.2690 C   0  0  0  0  0  0  0  0  0  0  0  0
  -18.9440  -30.1020   23.8830 C   0  0  0  0  0  3  0  0  0  0  0  0
  -17.6390  -30.5990   24.0610 C   0  0  0  0  0  3  0  0  0  0  0  0
  -16.5340  -29.8430   23.6340 C   0  0  0  0  0  3  0  0  0  0  0  0
  -16.7360  -28.5930   23.0250 C   0  0  0  0  0  3  0  0  0  0  0  0
  -25.8740  -32.5030   23.8400 C   0  0  0  0  0  3  0  0  0  0  0  0
  -26.3350  -31.7660   25.1610 C   0  0  1  0  0  0  0  0  0  0  0  0
  -25.1970  -31.5490   26.1870 C   0  0  0  0  0  1  0  0  0  0  0  0
  -26.9430  -30.3820   24.8420 C   0  0  0  0  0  1  0  0  0  0  0  0
  -27.4490  -32.5860   25.8520 C   0  0  0  0  0  1  0  0  0  0  0  0
  -25.5300  -33.9050   24.1470 N   0  0  0  0  0  0  0  0  0  0  0  0
  -25.8790  -34.9660   23.4060 C   0  0  0  0  0  0  0  0  0  0  0  0
  -26.5820  -34.8660   22.3970 O   0  0  0  0  0  0  0  0  0  0  0  0
  -24.9110  -34.0560   24.9290 H   0  0  0  0  0  0  0  0  0  0  0  0
  -24.1610  -36.7650   23.0020 C   0  0  0  0  0  1  0  0  0  0  0  0
  -25.3750  -36.3550   23.8520 C   0  0  0  0  0  3  0  0  0  0  0  0
  -27.4720  -37.2560   24.7620 C   0  0  0  0  0  1  0  0  0  0  0  0
  -26.4070  -37.4130   23.7750 N   0  0  0  0  0  0  0  0  0  0  0  0
  -25.9920  -38.3320   23.9000 H   0  0  0  0  0  0  0  0  0  0  0  0
  1  4  2  0
  2  1  2  0
  2 44  1  0
  3  2  1  0
  4  5  1  0
  5  6  1  0
  7  8  1  0
  7  4  1  0
  9 14  1  0
 10 11  1  0
 10  9  1  0
 12 11  1  0
 12 19  1  0
 12 13  1  0
 14  8  1  0
 14 13  1  0
 15  8  2  0
 16 17  2  0
 17 36  1  0
 18 17  1  0
 18 21  1  0
 19 20  1  0
 19 16  1  0
 20 18  2  0
 21 22  1  0
 22 23  2  0
 24 27  1  0
 24 23  1  0
 25 24  2  0
 26 25  1  0
 26 21  2  0
 27 28  1  0
 28 29  1  0
 29 30  2  0
 31 30  1  0
 31 35  1  0
 32 31  2  0
 33 28  2  0
 33 32  1  0
 34 33  1  0
 36 37  1  0
 37 40  1  0
 37 39  1  0
 38 36  2  0
 41 16  1  0
 41 42  1  0
 43 41  1  0
 45 47  1  0
 45 44  1  0
 46 57  2  0
 47 52  1  0
 48 56  1  0
 48 58  1  0
 49 55  1  0
 49 51  1  0
 50 56  1  0
 51 52  2  0
 51 50  1  0
 53 47  2  0
 54 53  1  0
 54 49  2  0
 55 48  1  0
 56 46  1  0
 58 60  2  0
 59 58  1  0
 61 59  1  0
 62 71  2  0
 62 67  1  0
 63 59  1  0
 63 67  1  0
 64 63  1  0
 65 66  1  0
 65 64  1  0
 66 62  1  0
 67 68  2  0
 68 69  1  0
 70 69  2  0
 71 70  1  0
 72 46  1  0
 72 77  1  0
 72 73  1  0
 73 76  1  1
 73 74  1  0
 75 73  1  0
 77 80  1  0
 78 82  1  0
 78 77  1  0
 79 78  2  0
 82 81  1  0
 84 82  1  0
 84 85  1  0
 84 83  1  0
M  ISO  4   7 100   8 100  44 101  45 101
M  END
>  <TORSDO>  (36) 
F 19

>  <SCORE>  (36) 
-16.416

>  <name>  (36) 
35

>  <ligand_id>  (36) 
35

>  <original_smiles>  (36) 
[H]N=C(C([H])=C(C([H])([H])[H])C([H])([H])Oc1c([H])c([H])c2c(c1[H])C([H])([H])N(C(=O)C([H])(N([H])C(=O)C([H])(N([H])C([H])([H])[H])C([H])([H])[H])C(C([H])([H])[H])(C([H])([H])[H])C([H])([H])[H])C([H])(C(=O)N([H])C1([H])c3c([H])c([H])c([H])c([H])c3C([H])([H])C([H])([H])C1([H])[H])C2([H])[H])C([H])([H])C(=O)N1C([H])([H])C([H])([H])C([H])([H])C([H])(n2nc(-c3c([H])c([H])c(Oc4c([H])c([H])c(F)c([H])c4F)c([H])c3[H])c(C(=O)N([H])[H])c2N([H])[H])C1([H])[H]

>  <smiles>  (36) 
[H]N=C(C([H])=C(C([H])([H])[H])C([H])([H])Oc1c([H])c([H])c2c(c1[H])C([H])([H])N(C(=O)C([H])(N([H])C(=O)C([H])(N([H])C([H])([H])[H])C([H])([H])[H])C(C([H])([H])[H])(C([H])([H])[H])C([H])([H])[H])C([H])(C(=O)N([H])C1([H])c3c([H])c([H])c([H])c([H])c3C([H])([H])C([H])([H])C1([H])[H])C2([H])[H])C([H])([H])C(=O)N1C([H])([H])C([H])([H])C([H])([H])C([H])(n2nc(-c3c([H])c([H])c(Oc4c([H])c([H])c(F)c([H])c4F)c([H])c3[H])c(C(=O)N([H])[H])c2N([H])[H])C1([H])[H]

$$$$
36:0:0
     RDKit          3D

101110  0  0  1  0  0  0  0  0999 V2000
  -27.0680  -23.0950   21.1340 N   0  0  0  0  0  4  0  0  0  0  0  0
  -26.2080  -22.5750   21.1940 H   0  0  0  0  0  0  0  0  0  0  0  0
  -26.9980  -23.6630   20.3090 H   0  0  0  0  0  0  0  0  0  0  0  0
  -30.6720  -21.6920   21.2480 C   0  0  0  0  0  2  0  0  0  0  0  0
  -29.5520  -22.7270   21.2660 C   0  0  0  0  0  2  0  0  0  0  0  0
  -31.5700  -19.6460   20.0850 C   0  0  0  0  0  2  0  0  0  0  0  0
  -29.2550  -19.0420   20.2610 C   0  0  0  0  0  2  0  0  0  0  0  0
  -30.7360  -20.9150   19.9260 C   0  0  0  0  0  3  0  0  0  0  0  0
  -29.3690  -20.3710   19.4830 C   0  0  0  0  0  3  0  0  0  0  0  0
  -28.1680  -22.0980   20.9820 C   0  0  0  0  0  3  0  0  0  0  0  0
  -28.1830  -21.3960   19.5710 C   0  0  1  0  0  0  0  0  0  0  0  0
  -28.3810  -22.4090   18.4130 C   0  0  0  0  0  1  0  0  0  0  0  0
  -26.8540  -20.6520   19.2950 C   0  0  0  0  0  1  0  0  0  0  0  0
  -30.6380  -18.5970   20.5690 N   0  0  1  0  0  4  0  0  0  0  0  0
  -30.7210  -18.5800   21.5760 H   0  0  0  0  0  0  0  0  0  0  0  0
  -31.0200  -17.2510   20.0770 C   0  0  0  0  0  2  0  0  0  0  0  0
  -30.2650  -16.0530   20.7160 C   0  0  0  0  0  2  0  0  0  0  0  0
  -30.9260  -14.7370   20.2660 C   0  0  0  0  0  0  0  0  0  0  0  0
  -30.6590  -12.4630   19.3830 C   0  0  0  0  0  2  0  0  0  0  0  0
  -29.7580  -12.5140   18.1350 C   0  0  0  0  0  2  0  0  0  0  0  0
  -28.2770  -12.3800   18.5390 C   0  0  0  0  0  2  0  0  0  0  0  0
  -27.8790  -13.3470   19.6880 C   0  0  0  0  0  3  0  0  0  0  0  0
  -28.9110  -13.3320   20.8390 C   0  0  0  0  0  2  0  0  0  0  0  0
  -30.2480  -13.5600   20.2700 N   0  0  0  0  0  0  0  0  0  0  0  0
  -32.0550  -14.8260   19.7790 O   0  0  0  0  0  0  0  0  0  0  0  0
  -25.4870  -13.9550   20.4130 C   0  0  0  0  0  0  0  0  0  0  0  0
  -24.4170  -13.1850   20.7790 C   0  0  0  0  0  0  0  0  0  0  0  0
  -24.8690  -11.8280   20.7280 C   0  0  0  0  0  0  0  0  0  0  0  0
  -26.5270  -13.0710   20.1700 N   0  0  0  0  0  0  0  0  0  0  0  0
  -26.1590  -11.7870   20.4160 N   0  0  0  0  0  0  0  0  0  0  0  0
  -24.1380  -10.5700   20.9060 C   0  0  0  0  0  0  0  0  0  0  0  0
  -24.5540   -9.5970   21.8430 C   0  0  0  0  0  3  0  0  0  0  0  0
  -23.8220   -8.4010   22.0070 C   0  0  0  0  0  3  0  0  0  0  0  0
  -22.6590   -8.1690   21.2350 C   0  0  0  0  0  0  0  0  0  0  0  0
  -22.2620   -9.1300   20.2880 C   0  0  0  0  0  3  0  0  0  0  0  0
  -22.9950  -10.3170   20.1210 C   0  0  0  0  0  3  0  0  0  0  0  0
  -21.8990   -7.0260   21.3080 O   0  0  0  0  0  0  0  0  0  0  0  0
  -21.7550   -6.3310   22.4840 C   0  0  0  0  0  0  0  0  0  0  0  0
  -21.2230   -6.9340   23.6440 C   0  0  0  0  0  3  0  0  0  0  0  0
  -21.0290   -6.1640   24.8110 C   0  0  0  0  0  3  0  0  0  0  0  0
  -21.3570   -4.7960   24.8130 C   0  0  0  0  0  0  0  0  0  0  0  0
  -21.8820   -4.1950   23.6570 C   0  0  0  0  0  3  0  0  0  0  0  0
  -22.0780   -4.9610   22.4940 C   0  0  0  0  0  0  0  0  0  0  0  0
  -22.5660   -4.3710   21.3760 F   0  0  0  0  0  0  0  0  0  0  0  0
  -21.1620   -4.0550   25.9300 F   0  0  0  0  0  0  0  0  0  0  0  0
  -23.0220  -13.6660   21.0620 C   0  0  0  0  0  0  0  0  0  0  0  0
  -22.3060  -12.9810   21.9460 N   0  0  0  0  0  0  0  0  0  0  0  0
  -22.5780  -14.6850   20.5340 O   0  0  0  0  0  0  0  0  0  0  0  0
  -22.6790  -12.1560   22.3920 H   0  0  0  0  0  0  0  0  0  0  0  0
  -21.3710  -13.2830   22.1770 H   0  0  0  0  0  0  0  0  0  0  0  0
  -25.6630  -15.3250   20.2470 N   0  0  0  0  0  0  0  0  0  0  0  0
  -24.9020  -15.9890   20.3510 H   0  0  0  0  0  0  0  0  0  0  0  0
  -26.5140  -15.7500   19.9040 H   0  0  0  0  0  0  0  0  0  0  0  0
  -27.0810  -23.9810   22.3330 C   0  0  0  0  0  2  0  0  0  0  0  0
  -27.9910  -25.2260   22.2860 C   0  0  0  0  0  0  0  0  0  0  0  0
  -28.0440  -26.0490   21.2270 N   0  0  0  0  0  0  0  0  0  0  0  0
  -28.7230  -25.4500   23.2480 O   0  0  0  0  0  0  0  0  0  0  0  0
  -28.7130  -26.8010   21.3300 H   0  0  0  0  0  0  0  0  0  0  0  0
  -27.1440  -26.1800   20.0830 C   0  0  0  0  0  2  0  0  0  0  0  0
  -27.8810  -26.5610   18.7670 C   0  0  0  0  0  2  0  0  0  0  0  0
  -27.0000  -27.0960   17.7710 O   0  0  0  0  0  0  0  0  0  0  0  0
  -25.1590  -31.2400   23.2380 C   0  0  0  0  0  0  0  0  0  0  0  0
  -26.0860  -27.9840   18.2760 C   0  0  0  0  0  0  0  0  0  0  0  0
  -23.3560  -30.6630   21.6490 C   0  0  0  0  0  3  0  0  0  0  0  0
  -24.1020  -29.5970   19.4530 C   0  0  0  0  0  0  0  0  0  0  0  0
  -25.7830  -30.7930   20.8710 C   0  0  0  0  0  2  0  0  0  0  0  0
  -25.4420  -29.7510   19.8270 C   0  0  0  0  0  0  0  0  0  0  0  0
  -26.4400  -28.9460   19.2450 C   0  0  0  0  0  3  0  0  0  0  0  0
  -24.7400  -27.8490   17.8850 C   0  0  0  0  0  3  0  0  0  0  0  0
  -23.7410  -28.6400   18.4850 C   0  0  0  0  0  3  0  0  0  0  0  0
  -23.1020  -30.5050   20.1270 C   0  0  0  0  0  2  0  0  0  0  0  0
  -24.8000  -30.8890   21.9710 N   0  0  0  0  0  0  0  0  0  0  0  0
  -24.3050  -31.4130   24.1190 O   0  0  0  0  0  0  0  0  0  0  0  0
  -22.7510  -29.4380   22.3720 C   0  0  0  0  0  0  0  0  0  0  0  0
  -21.4140  -29.3240   22.3370 N   0  0  0  0  0  0  0  0  0  0  0  0
  -23.4760  -28.6060   22.9260 O   0  0  0  0  0  0  0  0  0  0  0  0
  -20.8850  -30.0590   21.8880 H   0  0  0  0  0  0  0  0  0  0  0  0
  -18.1100  -27.8730   22.4460 C   0  0  0  0  0  0  0  0  0  0  0  0
  -20.6270  -28.2320   22.9080 C   0  0  0  0  0  3  0  0  0  0  0  0
  -20.8600  -26.9150   22.1270 C   0  0  0  0  0  2  0  0  0  0  0  0
  -19.8310  -26.6850   21.0150 C   0  0  0  0  0  2  0  0  0  0  0  0
  -18.4110  -26.6530   21.5870 C   0  0  0  0  0  2  0  0  0  0  0  0
  -19.1520  -28.6230   23.0480 C   0  0  0  0  0  0  0  0  0  0  0  0
  -18.8230  -29.7710   23.8010 C   0  0  0  0  0  3  0  0  0  0  0  0
  -17.4840  -30.1700   23.9590 C   0  0  0  0  0  3  0  0  0  0  0  0
  -16.4530  -29.4160   23.3720 C   0  0  0  0  0  3  0  0  0  0  0  0
  -16.7660  -28.2680   22.6190 C   0  0  0  0  0  3  0  0  0  0  0  0
  -26.6550  -31.4570   23.6310 C   0  0  0  0  0  3  0  0  0  0  0  0
  -26.7330  -32.7020   24.4050 N   0  0  0  0  0  0  0  0  0  0  0  0
  -27.2150  -33.8600   23.9340 C   0  0  0  0  0  0  0  0  0  0  0  0
  -27.7080  -33.9730   22.8070 O   0  0  0  0  0  0  0  0  0  0  0  0
  -26.3150  -32.6940   25.3230 H   0  0  0  0  0  0  0  0  0  0  0  0
  -25.9880  -36.0040   24.3770 C   0  0  0  0  0  1  0  0  0  0  0  0
  -27.1290  -35.0910   24.8540 C   0  0  0  0  0  3  0  0  0  0  0  0
  -29.4610  -35.1420   25.6210 C   0  0  0  0  0  1  0  0  0  0  0  0
  -28.3940  -35.8580   24.9250 N   0  0  0  0  0  0  0  0  0  0  0  0
  -28.2520  -36.7460   25.3990 H   0  0  0  0  0  0  0  0  0  0  0  0
  -27.2650  -30.2510   24.4460 C   0  0  1  0  0  0  0  0  0  0  0  0
  -26.4120  -29.8290   25.6650 C   0  0  0  0  0  1  0  0  0  0  0  0
  -27.4340  -29.0100   23.5380 C   0  0  0  0  0  1  0  0  0  0  0  0
  -28.6780  -30.6210   24.9530 C   0  0  0  0  0  1  0  0  0  0  0  0
  1  2  1  0
  1 54  1  0
  3  1  1  0
  4  5  1  0
  6 14  1  0
  7 14  1  0
  8  6  1  0
  8  4  1  0
  9 11  1  0
  9  8  1  0
  9  7  1  0
 10  1  1  0
 10  5  1  0
 11 10  1  0
 11 12  1  6
 13 11  1  0
 14 15  1  1
 16 14  1  0
 16 17  1  0
 18 24  1  0
 18 17  1  0
 19 24  1  0
 20 21  1  0
 20 19  1  0
 22 21  1  0
 22 29  1  0
 22 23  1  0
 24 23  1  0
 25 18  2  0
 26 27  2  0
 27 46  1  0
 28 27  1  0
 28 31  1  0
 29 26  1  0
 29 30  1  0
 30 28  2  0
 31 32  1  0
 32 33  2  0
 34 37  1  0
 34 33  1  0
 35 34  2  0
 36 35  1  0
 36 31  2  0
 37 38  1  0
 38 43  2  0
 38 39  1  0
 39 40  2  0
 40 41  1  0
 41 45  1  0
 42 41  2  0
 43 42  1  0
 44 43  1  0
 46 47  1  0
 47 50  1  0
 47 49  1  0
 48 46  2  0
 51 52  1  0
 51 26  1  0
 53 51  1  0
 55 54  1  0
 55 57  2  0
 56 58  1  0
 56 55  1  0
 59 56  1  0
 60 59  1  0
 61 63  1  0
 61 60  1  0
 62 73  2  0
 63 68  1  0
 64 72  1  0
 64 74  1  0
 65 67  1  0
 65 71  1  0
 66 72  1  0
 67 66  1  0
 68 67  2  0
 69 63  2  0
 69 70  1  0
 70 65  2  0
 71 64  1  0
 72 62  1  0
 74 76  2  0
 75 74  1  0
 77 75  1  0
 78 87  2  0
 78 83  1  0
 79 75  1  0
 79 83  1  0
 80 79  1  0
 81 82  1  0
 81 80  1  0
 82 78  1  0
 83 84  2  0
 84 85  1  0
 86 85  2  0
 87 86  1  0
 88 62  1  0
 88 89  1  0
 88 98  1  0
 89 92  1  0
 90 89  1  0
 90 94  1  0
 91 90  2  0
 94 93  1  0
 94 96  1  0
 96 97  1  0
 96 95  1  0
 98101  1  1
 98 99  1  0
100 98  1  0
M  ISO  4  17 100  18 100  60 101  61 101
M  END
>  <TORSDO>  (37) 
F 23

>  <SCORE>  (37) 
-10.827

>  <name>  (37) 
36

>  <ligand_id>  (37) 
36

>  <original_smiles>  (37) 
[H]c1c([H])c([H])c2c(c1[H])C([H])([H])C([H])([H])C([H])([H])C2([H])N([H])C(=O)C1([H])N(C(=O)C([H])(N([H])C(=O)C([H])(N([H])C([H])([H])[H])C([H])([H])[H])C(C([H])([H])[H])(C([H])([H])[H])C([H])([H])[H])C([H])([H])c2c([H])c(OC([H])([H])C([H])([H])N([H])C(=O)C([H])([H])[N+]([H])([H])C3([H])C([H])([H])C([H])([H])C4([H])C([H])(C3(C([H])([H])[H])C([H])([H])[H])C([H])([H])[N+]([H])(C([H])([H])C([H])([H])C(=O)N3C([H])([H])C([H])([H])C([H])([H])C([H])(n5nc(-c6c([H])c([H])c(Oc7c([H])c([H])c(F)c([H])c7F)c([H])c6[H])c(C(=O)N([H])[H])c5N([H])[H])C3([H])[H])C4([H])[H])c([H])c([H])c2C1([H])[H]

>  <smiles>  (37) 
[H]c1c([H])c([H])c2c(c1[H])C([H])([H])C([H])([H])C([H])([H])C2([H])N([H])C(=O)C1([H])N(C(=O)C([H])(N([H])C(=O)C([H])(N([H])C([H])([H])[H])C([H])([H])[H])C(C([H])([H])[H])(C([H])([H])[H])C([H])([H])[H])C([H])([H])c2c([H])c(OC([H])([H])C([H])([H])N([H])C(=O)C([H])([H])[N+]([H])([H])C3([H])C([H])([H])C([H])([H])C4([H])C([H])(C3(C([H])([H])[H])C([H])([H])[H])C([H])([H])[N+]([H])(C([H])([H])C([H])([H])C(=O)N3C([H])([H])C([H])([H])C([H])([H])C([H])(n5nc(-c6c([H])c([H])c(Oc7c([H])c([H])c(F)c([H])c7F)c([H])c6[H])c(C(=O)N([H])[H])c5N([H])[H])C3([H])[H])C4([H])[H])c([H])c([H])c2C1([H])[H]

$$$$
37:0:0
     RDKit          3D

 84 91  0  0  1  0  0  0  0  0999 V2000
  -28.9200  -20.5050   20.2930 C   0  0  0  0  0  3  0  0  0  0  0  0
  -28.9520  -22.0920   20.1940 C   0  0  0  0  0  0  0  0  0  0  0  0
  -30.2680  -22.7280   19.7270 C   0  0  0  0  0  1  0  0  0  0  0  0
  -29.6830  -18.7800   20.2690 C   0  0  0  0  0  0  0  0  0  0  0  0
  -31.1960  -18.9710   20.3530 C   0  0  0  0  0  1  0  0  0  0  0  0
  -29.3690  -17.3040   20.2600 N   0  0  0  0  0  0  0  0  0  0  0  0
  -30.1910  -15.8480   20.1560 C   0  0  0  0  0  0  0  0  0  0  0  0
  -30.3180  -13.2660   19.3660 C   0  0  0  0  0  2  0  0  0  0  0  0
  -29.4260  -12.8330   18.1620 C   0  0  0  0  0  2  0  0  0  0  0  0
  -28.0170  -12.4460   18.6310 C   0  0  0  0  0  2  0  0  0  0  0  0
  -27.4980  -13.4450   19.6860 C   0  0  0  0  0  3  0  0  0  0  0  0
  -28.5290  -13.8070   20.7800 C   0  0  0  0  0  2  0  0  0  0  0  0
  -29.6950  -14.4540   20.1280 N   0  0  0  0  0  0  0  0  0  0  0  0
  -31.4170  -15.7450   19.9580 O   0  0  0  0  0  0  0  0  0  0  0  0
  -25.1550  -13.9360   20.5200 C   0  0  0  0  0  0  0  0  0  0  0  0
  -24.1090  -13.1430   20.8940 C   0  0  0  0  0  0  0  0  0  0  0  0
  -24.5890  -11.7980   20.8310 C   0  0  0  0  0  0  0  0  0  0  0  0
  -26.1980  -13.0790   20.2350 N   0  0  0  0  0  0  0  0  0  0  0  0
  -25.8760  -11.7830   20.4910 N   0  0  0  0  0  0  0  0  0  0  0  0
  -23.8720  -10.5260   21.0140 C   0  0  0  0  0  0  0  0  0  0  0  0
  -24.3050   -9.5590   21.9470 C   0  0  0  0  0  3  0  0  0  0  0  0
  -23.5820   -8.3580   22.1210 C   0  0  0  0  0  3  0  0  0  0  0  0
  -22.4130   -8.1150   21.3620 C   0  0  0  0  0  0  0  0  0  0  0  0
  -21.9980   -9.0730   20.4190 C   0  0  0  0  0  3  0  0  0  0  0  0
  -22.7220  -10.2640   20.2430 C   0  0  0  0  0  3  0  0  0  0  0  0
  -21.6620   -6.9660   21.4450 O   0  0  0  0  0  0  0  0  0  0  0  0
  -21.5860   -6.2380   22.6050 C   0  0  0  0  0  0  0  0  0  0  0  0
  -21.0810   -6.7940   23.8020 C   0  0  0  0  0  3  0  0  0  0  0  0
  -20.9550   -5.9890   24.9530 C   0  0  0  0  0  3  0  0  0  0  0  0
  -21.3240   -4.6320   24.9070 C   0  0  0  0  0  0  0  0  0  0  0  0
  -21.8220   -4.0760   23.7150 C   0  0  0  0  0  3  0  0  0  0  0  0
  -21.9490   -4.8770   22.5670 C   0  0  0  0  0  0  0  0  0  0  0  0
  -22.4090   -4.3310   21.4150 F   0  0  0  0  0  0  0  0  0  0  0  0
  -21.1960   -3.8570   26.0090 F   0  0  0  0  0  0  0  0  0  0  0  0
  -22.7140  -13.6060   21.1930 C   0  0  0  0  0  0  0  0  0  0  0  0
  -22.0060  -12.8970   22.0650 N   0  0  0  0  0  0  0  0  0  0  0  0
  -22.2620  -14.6330   20.6890 O   0  0  0  0  0  0  0  0  0  0  0  0
  -22.3870  -12.0660   22.4940 H   0  0  0  0  0  0  0  0  0  0  0  0
  -21.0710  -13.1900   22.3090 H   0  0  0  0  0  0  0  0  0  0  0  0
  -25.3050  -15.3120   20.3670 N   0  0  0  0  0  0  0  0  0  0  0  0
  -24.5450  -15.9670   20.5210 H   0  0  0  0  0  0  0  0  0  0  0  0
  -26.1650  -15.7620   20.0750 H   0  0  0  0  0  0  0  0  0  0  0  0
  -27.9200  -23.6710   20.4280 C   0  0  0  0  0  2  0  0  0  0  0  0
  -28.1300  -25.4640   20.3660 O   0  0  0  0  0  0  0  0  0  0  0  0
  -24.6420  -31.8960   23.2410 C   0  0  0  0  0  0  0  0  0  0  0  0
  -27.1650  -26.7130   20.3270 C   0  0  0  0  0  0  0  0  0  0  0  0
  -23.4590  -30.4800   21.6180 C   0  0  0  0  0  3  0  0  0  0  0  0
  -24.9080  -28.7990   20.2350 C   0  0  0  0  0  0  0  0  0  0  0  0
  -26.0420  -30.5970   21.5090 C   0  0  0  0  0  2  0  0  0  0  0  0
  -26.1050  -29.1480   20.8710 C   0  0  0  0  0  0  0  0  0  0  0  0
  -27.2150  -28.1350   20.8790 C   0  0  0  0  0  3  0  0  0  0  0  0
  -25.9300  -26.5960   19.6340 C   0  0  0  0  0  3  0  0  0  0  0  0
  -24.8650  -27.5500   19.5920 C   0  0  0  0  0  3  0  0  0  0  0  0
  -23.7050  -29.7610   20.2600 C   0  0  0  0  0  2  0  0  0  0  0  0
  -24.7390  -31.0270   22.1740 N   0  0  0  0  0  0  0  0  0  0  0  0
  -23.5480  -32.2060   23.7430 O   0  0  0  0  0  0  0  0  0  0  0  0
  -22.7330  -29.5220   22.6010 C   0  0  0  0  0  0  0  0  0  0  0  0
  -21.4010  -29.3610   22.4690 N   0  0  0  0  0  0  0  0  0  0  0  0
  -23.3820  -28.9170   23.4590 O   0  0  0  0  0  0  0  0  0  0  0  0
  -20.9270  -29.8990   21.7570 H   0  0  0  0  0  0  0  0  0  0  0  0
  -18.0130  -28.1430   22.9810 C   0  0  0  0  0  0  0  0  0  0  0  0
  -20.5720  -28.4340   23.2490 C   0  0  0  0  0  3  0  0  0  0  0  0
  -20.6840  -26.9920   22.7000 C   0  0  0  0  0  2  0  0  0  0  0  0
  -19.5890  -26.6470   21.6840 C   0  0  0  0  0  2  0  0  0  0  0  0
  -18.2040  -26.7890   22.3190 C   0  0  0  0  0  2  0  0  0  0  0  0
  -19.1250  -28.9220   23.4030 C   0  0  0  0  0  0  0  0  0  0  0  0
  -18.8900  -30.1850   23.9890 C   0  0  0  0  0  3  0  0  0  0  0  0
  -17.5790  -30.6710   24.1520 C   0  0  0  0  0  3  0  0  0  0  0  0
  -16.4840  -29.8910   23.7410 C   0  0  0  0  0  3  0  0  0  0  0  0
  -16.7010  -28.6280   23.1630 C   0  0  0  0  0  3  0  0  0  0  0  0
  -25.9010  -32.5560   23.8800 C   0  0  0  0  0  3  0  0  0  0  0  0
  -25.5760  -33.9610   24.2000 N   0  0  0  0  0  0  0  0  0  0  0  0
  -25.8980  -35.0220   23.4460 C   0  0  0  0  0  0  0  0  0  0  0  0
  -26.5560  -34.9210   22.4080 O   0  0  0  0  0  0  0  0  0  0  0  0
  -24.9880  -34.1120   25.0060 H   0  0  0  0  0  0  0  0  0  0  0  0
  -24.1620  -36.8230   23.1330 C   0  0  0  0  0  1  0  0  0  0  0  0
  -25.4210  -36.4140   23.9150 C   0  0  0  0  0  3  0  0  0  0  0  0
  -27.5660  -37.3170   24.7040 C   0  0  0  0  0  1  0  0  0  0  0  0
  -26.4480  -37.4710   23.7770 N   0  0  0  0  0  0  0  0  0  0  0  0
  -26.0410  -38.3900   23.9220 H   0  0  0  0  0  0  0  0  0  0  0  0
  -26.3910  -31.8150   25.1870 C   0  0  1  0  0  0  0  0  0  0  0  0
  -25.2770  -31.6060   26.2400 C   0  0  0  0  0  1  0  0  0  0  0  0
  -26.9780  -30.4260   24.8510 C   0  0  0  0  0  1  0  0  0  0  0  0
  -27.5310  -32.6230   25.8510 C   0  0  0  0  0  1  0  0  0  0  0  0
  2  1  2  0
  2 43  1  0
  3  2  1  0
  4  1  1  0
  4  5  1  0
  6  4  2  0
  7  6  1  0
  8 13  1  0
  9 10  1  0
  9  8  1  0
 11 10  1  0
 11 18  1  0
 11 12  1  0
 13  7  1  0
 13 12  1  0
 14  7  2  0
 15 16  2  0
 16 35  1  0
 17 16  1  0
 17 20  1  0
 18 19  1  0
 18 15  1  0
 19 17  2  0
 20 21  1  0
 21 22  2  0
 23 26  1  0
 23 22  1  0
 24 23  2  0
 25 24  1  0
 25 20  2  0
 26 27  1  0
 27 28  1  0
 28 29  2  0
 30 29  1  0
 30 34  1  0
 31 30  2  0
 32 27  2  0
 32 31  1  0
 33 32  1  0
 35 36  1  0
 36 39  1  0
 36 38  1  0
 37 35  2  0
 40 15  1  0
 40 41  1  0
 42 40  1  0
 44 43  1  0
 45 56  2  0
 46 44  1  0
 46 51  1  0
 47 55  1  0
 47 57  1  0
 48 54  1  0
 48 50  1  0
 49 55  1  0
 50 51  2  0
 50 49  1  0
 52 46  2  0
 53 52  1  0
 53 48  2  0
 54 47  1  0
 55 45  1  0
 57 59  2  0
 58 57  1  0
 60 58  1  0
 61 70  2  0
 61 66  1  0
 62 58  1  0
 62 66  1  0
 63 62  1  0
 64 65  1  0
 64 63  1  0
 65 61  1  0
 66 67  2  0
 67 68  1  0
 69 68  2  0
 70 69  1  0
 71 45  1  0
 71 72  1  0
 71 81  1  0
 72 75  1  0
 73 77  1  0
 73 72  1  0
 74 73  2  0
 77 76  1  0
 79 77  1  0
 79 80  1  0
 79 78  1  0
 81 84  1  1
 81 82  1  0
 83 81  1  0
M  ISO  4   6 100   7 100  43 101  44 101
M  END
>  <TORSDO>  (38) 
F 18

>  <SCORE>  (38) 
-16.366

>  <name>  (38) 
37

>  <ligand_id>  (38) 
37

>  <original_smiles>  (38) 
[H]C(C(=NC(=O)N1C([H])([H])C([H])([H])C([H])([H])C([H])(n2nc(-c3c([H])c([H])c(Oc4c([H])c([H])c(F)c([H])c4F)c([H])c3[H])c(C(=O)N([H])[H])c2N([H])[H])C1([H])[H])C([H])([H])[H])=C(C([H])([H])[H])C([H])([H])Oc1c([H])c([H])c2c(c1[H])C([H])([H])N(C(=O)C([H])(N([H])C(=O)C([H])(N([H])C([H])([H])[H])C([H])([H])[H])C(C([H])([H])[H])(C([H])([H])[H])C([H])([H])[H])C([H])(C(=O)N([H])C1([H])c3c([H])c([H])c([H])c([H])c3C([H])([H])C([H])([H])C1([H])[H])C2([H])[H]

>  <smiles>  (38) 
[H]C(C(=NC(=O)N1C([H])([H])C([H])([H])C([H])([H])C([H])(n2nc(-c3c([H])c([H])c(Oc4c([H])c([H])c(F)c([H])c4F)c([H])c3[H])c(C(=O)N([H])[H])c2N([H])[H])C1([H])[H])C([H])([H])[H])=C(C([H])([H])[H])C([H])([H])Oc1c([H])c([H])c2c(c1[H])C([H])([H])N(C(=O)C([H])(N([H])C(=O)C([H])(N([H])C([H])([H])[H])C([H])([H])[H])C(C([H])([H])[H])(C([H])([H])[H])C([H])([H])[H])C([H])(C(=O)N([H])C1([H])c3c([H])c([H])c([H])c([H])c3C([H])([H])C([H])([H])C1([H])[H])C2([H])[H]

$$$$
38:0:0
     RDKit          3D

 92100  0  0  1  0  0  0  0  0999 V2000
  -29.3920  -20.5300   21.5630 N   0  0  0  0  0  0  0  0  0  0  0  0
  -29.4060  -20.8070   22.5420 H   0  0  0  0  0  0  0  0  0  0  0  0
  -30.4730  -16.9680   22.1780 C   0  0  0  0  0  3  0  0  0  0  0  0
  -30.0730  -18.3180   22.3750 C   0  0  0  0  0  3  0  0  0  0  0  0
  -29.7300  -18.5760   20.0080 C   0  0  0  0  0  3  0  0  0  0  0  0
  -30.5270  -16.3830   20.8880 C   0  0  0  0  0  0  0  0  0  0  0  0
  -29.7250  -19.1670   21.2950 C   0  0  0  0  0  0  0  0  0  0  0  0
  -30.1120  -17.2120   19.7940 C   0  0  0  0  0  0  0  0  0  0  0  0
  -31.2410  -15.0370   20.6790 C   0  0  0  0  0  0  0  0  0  0  0  0
  -31.0170  -12.8170   19.6220 C   0  0  0  0  0  2  0  0  0  0  0  0
  -30.1550  -12.9650   18.3520 C   0  0  0  0  0  2  0  0  0  0  0  0
  -28.6620  -12.8090   18.6980 C   0  0  0  0  0  2  0  0  0  0  0  0
  -28.2330  -13.6700   19.9180 C   0  0  0  0  0  3  0  0  0  0  0  0
  -29.2300  -13.5570   21.0890 C   0  0  0  0  0  2  0  0  0  0  0  0
  -30.5700  -13.8500   20.5760 N   0  0  0  0  0  0  0  0  0  0  0  0
  -32.4420  -15.1070   20.4060 O   0  0  0  0  0  0  0  0  0  0  0  0
  -25.8100  -14.2330   20.5490 C   0  0  0  0  0  0  0  0  0  0  0  0
  -24.7320  -13.4450   20.8450 C   0  0  0  0  0  0  0  0  0  0  0  0
  -25.2020  -12.0970   20.8000 C   0  0  0  0  0  0  0  0  0  0  0  0
  -26.8690  -13.3650   20.3380 N   0  0  0  0  0  0  0  0  0  0  0  0
  -26.5060  -12.0730   20.5510 N   0  0  0  0  0  0  0  0  0  0  0  0
  -24.4740  -10.8270   20.9210 C   0  0  0  0  0  0  0  0  0  0  0  0
  -24.8050   -9.8760   21.9130 C   0  0  0  0  0  3  0  0  0  0  0  0
  -24.0780   -8.6710   22.0210 C   0  0  0  0  0  3  0  0  0  0  0  0
  -23.0050   -8.4080   21.1360 C   0  0  0  0  0  0  0  0  0  0  0  0
  -22.6960   -9.3470   20.1360 C   0  0  0  0  0  3  0  0  0  0  0  0
  -23.4230  -10.5430   20.0260 C   0  0  0  0  0  3  0  0  0  0  0  0
  -22.2600   -7.2530   21.1500 O   0  0  0  0  0  0  0  0  0  0  0  0
  -21.9620   -6.6030   22.3210 C   0  0  0  0  0  0  0  0  0  0  0  0
  -21.2190   -7.2230   23.3490 C   0  0  0  0  0  3  0  0  0  0  0  0
  -20.8760   -6.4940   24.5060 C   0  0  0  0  0  3  0  0  0  0  0  0
  -21.2640   -5.1480   24.6330 C   0  0  0  0  0  0  0  0  0  0  0  0
  -21.9980   -4.5270   23.6070 C   0  0  0  0  0  3  0  0  0  0  0  0
  -22.3430   -5.2530   22.4520 C   0  0  0  0  0  0  0  0  0  0  0  0
  -23.0320   -4.6430   21.4570 F   0  0  0  0  0  0  0  0  0  0  0  0
  -20.9290   -4.4460   25.7400 F   0  0  0  0  0  0  0  0  0  0  0  0
  -23.3210  -13.9090   21.0640 C   0  0  0  0  0  0  0  0  0  0  0  0
  -22.5620  -13.1950   21.8890 N   0  0  0  0  0  0  0  0  0  0  0  0
  -22.8970  -14.9380   20.5410 O   0  0  0  0  0  0  0  0  0  0  0  0
  -22.9170  -12.3610   22.3330 H   0  0  0  0  0  0  0  0  0  0  0  0
  -21.6140  -13.4870   22.0780 H   0  0  0  0  0  0  0  0  0  0  0  0
  -25.9780  -15.6080   20.4210 N   0  0  0  0  0  0  0  0  0  0  0  0
  -25.2110  -16.2630   20.5300 H   0  0  0  0  0  0  0  0  0  0  0  0
  -26.8570  -16.0580   20.1980 H   0  0  0  0  0  0  0  0  0  0  0  0
  -31.3920  -16.9700   17.7930 C   0  0  0  0  0  1  0  0  0  0  0  0
  -28.9160  -16.9830   17.7040 C   0  0  0  0  0  1  0  0  0  0  0  0
  -30.1270  -16.7180   18.4750 N   0  0  0  0  0  0  0  0  0  0  0  0
  -29.3950  -21.6490   20.5860 C   0  0  0  0  0  2  0  0  0  0  0  0
  -29.0080  -23.0410   21.2280 C   0  0  0  0  0  2  0  0  0  0  0  0
  -29.0570  -24.3500   20.3420 C   0  0  0  0  0  3  0  0  0  0  0  0
  -28.5950  -25.6720   21.0710 C   0  0  0  0  0  3  0  0  0  0  0  0
  -28.7050  -26.9480   20.3600 O   0  0  0  0  0  0  0  0  0  0  0  0
  -24.6630  -32.0560   23.3900 C   0  0  0  0  0  0  0  0  0  0  0  0
  -27.5520  -27.7250   20.3220 C   0  0  0  0  0  0  0  0  0  0  0  0
  -23.5650  -30.6500   21.6790 C   0  0  0  0  0  3  0  0  0  0  0  0
  -25.1200  -29.1960   20.2660 C   0  0  0  0  0  0  0  0  0  0  0  0
  -26.0880  -31.0910   21.5750 C   0  0  0  0  0  2  0  0  0  0  0  0
  -26.2450  -29.7350   20.9050 C   0  0  0  0  0  0  0  0  0  0  0  0
  -27.4680  -29.0120   20.9210 C   0  0  0  0  0  3  0  0  0  0  0  0
  -26.4110  -27.2190   19.6650 C   0  0  0  0  0  3  0  0  0  0  0  0
  -25.2030  -27.9410   19.6380 C   0  0  0  0  0  3  0  0  0  0  0  0
  -23.8460  -30.0120   20.2920 C   0  0  0  0  0  2  0  0  0  0  0  0
  -24.7880  -31.2810   22.2730 N   0  0  0  0  0  0  0  0  0  0  0  0
  -23.5540  -32.2760   23.8990 O   0  0  0  0  0  0  0  0  0  0  0  0
  -22.9180  -29.5840   22.5950 C   0  0  0  0  0  0  0  0  0  0  0  0
  -21.6090  -29.3480   22.4110 N   0  0  0  0  0  0  0  0  0  0  0  0
  -23.5940  -28.9750   23.4290 O   0  0  0  0  0  0  0  0  0  0  0  0
  -21.1230  -29.8940   21.7140 H   0  0  0  0  0  0  0  0  0  0  0  0
  -18.2710  -28.0040   22.7620 C   0  0  0  0  0  0  0  0  0  0  0  0
  -20.8050  -28.3610   23.1320 C   0  0  0  0  0  3  0  0  0  0  0  0
  -20.9870  -26.9480   22.5300 C   0  0  0  0  0  2  0  0  0  0  0  0
  -19.9370  -26.6040   21.4690 C   0  0  0  0  0  2  0  0  0  0  0  0
  -18.5270  -26.6780   22.0650 C   0  0  0  0  0  2  0  0  0  0  0  0
  -19.3400  -28.8010   23.2480 C   0  0  0  0  0  0  0  0  0  0  0  0
  -19.0470  -30.0400   23.8570 C   0  0  0  0  0  3  0  0  0  0  0  0
  -17.7170  -30.4840   23.9840 C   0  0  0  0  0  3  0  0  0  0  0  0
  -16.6620  -29.6840   23.5150 C   0  0  0  0  0  3  0  0  0  0  0  0
  -16.9390  -28.4450   22.9090 C   0  0  0  0  0  3  0  0  0  0  0  0
  -25.9020  -32.7200   24.0670 C   0  0  0  0  0  3  0  0  0  0  0  0
  -25.5570  -34.1220   24.3440 N   0  0  0  0  0  0  0  0  0  0  0  0
  -25.9250  -35.1610   23.5820 C   0  0  0  0  0  0  0  0  0  0  0  0
  -26.6590  -35.0410   22.5960 O   0  0  0  0  0  0  0  0  0  0  0  0
  -24.9130  -34.2880   25.1030 H   0  0  0  0  0  0  0  0  0  0  0  0
  -24.2080  -36.9260   23.0710 C   0  0  0  0  0  1  0  0  0  0  0  0
  -25.3940  -36.5530   23.9740 C   0  0  0  0  0  3  0  0  0  0  0  0
  -27.4510  -37.4870   24.9370 C   0  0  0  0  0  1  0  0  0  0  0  0
  -26.4220  -37.6140   23.9080 N   0  0  0  0  0  0  0  0  0  0  0  0
  -25.9980  -38.5340   23.9960 H   0  0  0  0  0  0  0  0  0  0  0  0
  -26.3560  -31.9880   25.3880 C   0  0  1  0  0  0  0  0  0  0  0  0
  -25.2030  -31.7380   26.3890 C   0  0  0  0  0  1  0  0  0  0  0  0
  -27.0000  -30.6210   25.0610 C   0  0  0  0  0  1  0  0  0  0  0  0
  -27.4410  -32.8260   26.1060 C   0  0  0  0  0  1  0  0  0  0  0  0
  1  2  1  0
  3  4  1  0
  5  7  1  0
  6  3  2  0
  7  1  1  0
  7  4  2  0
  8  5  2  0
  8  6  1  0
  9  6  1  0
 10 15  1  0
 11 12  1  0
 11 10  1  0
 13 12  1  0
 13 20  1  0
 13 14  1  0
 15  9  1  0
 15 14  1  0
 16  9  2  0
 17 18  2  0
 18 37  1  0
 19 18  1  0
 19 22  1  0
 20 17  1  0
 20 21  1  0
 21 19  2  0
 22 23  1  0
 23 24  2  0
 25 28  1  0
 25 24  1  0
 26 25  2  0
 27 26  1  0
 27 22  2  0
 28 29  1  0
 29 34  2  0
 29 30  1  0
 30 31  2  0
 31 32  1  0
 32 36  1  0
 33 32  2  0
 34 33  1  0
 35 34  1  0
 37 38  1  0
 38 41  1  0
 38 40  1  0
 39 37  2  0
 42 43  1  0
 42 17  1  0
 44 42  1  0
 45 47  1  0
 46 47  1  0
 47  8  1  0
 48 49  1  0
 48  1  1  0
 50 51  2  0
 50 49  1  0
 52 51  1  0
 53 64  2  0
 54 52  1  0
 54 59  1  0
 55 63  1  0
 55 65  1  0
 56 62  1  0
 56 58  1  0
 57 63  1  0
 58 59  2  0
 58 57  1  0
 60 54  2  0
 61 60  1  0
 61 56  2  0
 62 55  1  0
 63 53  1  0
 65 67  2  0
 66 65  1  0
 68 66  1  0
 69 78  2  0
 69 74  1  0
 70 66  1  0
 70 74  1  0
 71 70  1  0
 72 73  1  0
 72 71  1  0
 73 69  1  0
 74 75  2  0
 75 76  1  0
 77 76  2  0
 78 77  1  0
 79 53  1  0
 79 80  1  0
 79 89  1  0
 80 83  1  0
 81 85  1  0
 81 80  1  0
 82 81  2  0
 85 84  1  0
 87 85  1  0
 87 88  1  0
 87 86  1  0
 89 92  1  1
 89 90  1  0
 91 89  1  0
M  ISO  4   6 100   9 100  51 101  52 101
M  END
>  <TORSDO>  (39) 
F 22

>  <SCORE>  (39) 
-10.734

>  <name>  (39) 
38

>  <ligand_id>  (39) 
38

>  <original_smiles>  (39) 
[H]c1c([H])c([H])c2c(c1[H])C([H])([H])C([H])([H])C([H])([H])C2([H])N([H])C(=O)C1([H])N(C(=O)C([H])(N([H])C(=O)C([H])(N([H])C([H])([H])[H])C([H])([H])[H])C(C([H])([H])[H])(C([H])([H])[H])C([H])([H])[H])C([H])([H])c2c([H])c(OC([H])([H])C([H])([H])C([H])([H])C([H])([H])N([H])c3c([H])c([H])c(C(=O)N4C([H])([H])C([H])([H])C([H])([H])C([H])(n5nc(-c6c([H])c([H])c(Oc7c([H])c([H])c(F)c([H])c7F)c([H])c6[H])c(C(=O)N([H])[H])c5N([H])[H])C4([H])[H])c(N(C([H])([H])[H])C([H])([H])[H])c3[H])c([H])c([H])c2C1([H])[H]

>  <smiles>  (39) 
[H]c1c([H])c([H])c2c(c1[H])C([H])([H])C([H])([H])C([H])([H])C2([H])N([H])C(=O)C1([H])N(C(=O)C([H])(N([H])C(=O)C([H])(N([H])C([H])([H])[H])C([H])([H])[H])C(C([H])([H])[H])(C([H])([H])[H])C([H])([H])[H])C([H])([H])c2c([H])c(OC([H])([H])C([H])([H])C([H])([H])C([H])([H])N([H])c3c([H])c([H])c(C(=O)N4C([H])([H])C([H])([H])C([H])([H])C([H])(n5nc(-c6c([H])c([H])c(Oc7c([H])c([H])c(F)c([H])c7F)c([H])c6[H])c(C(=O)N([H])[H])c5N([H])[H])C4([H])[H])c(N(C([H])([H])[H])C([H])([H])[H])c3[H])c([H])c([H])c2C1([H])[H]

$$$$
39:0:0
     RDKit          3D

 85 90  0  0  1  0  0  0  0  0999 V2000
  -29.2750  -18.7840   19.9920 C   0  0  0  0  0  2  0  0  0  0  0  0
  -29.3820  -20.4840   20.2530 C   0  0  0  0  0  2  0  0  0  0  0  0
  -27.9010  -18.8410   19.2640 C   0  0  0  0  0  2  0  0  0  0  0  0
  -26.9330  -20.1460   19.4360 C   0  0  0  0  0  2  0  0  0  0  0  0
  -27.3170  -21.6900   19.0920 C   0  0  0  0  0  2  0  0  0  0  0  0
  -28.3250  -22.3850   20.0700 C   0  0  0  0  0  1  0  0  0  0  0  0
  -30.0850  -16.9160   20.0820 C   0  0  0  0  0  2  0  0  0  0  0  0
  -30.5440  -14.0690   19.4940 C   0  0  0  0  0  2  0  0  0  0  0  0
  -29.8570  -13.1290   18.4090 C   0  0  0  0  0  2  0  0  0  0  0  0
  -28.5320  -12.5350   18.8900 C   0  0  0  0  0  2  0  0  0  0  0  0
  -27.8140  -13.6040   19.7230 C   0  0  0  0  0  3  0  0  0  0  0  0
  -28.6990  -14.4170   20.7480 C   0  0  0  0  0  2  0  0  0  0  0  0
  -29.7120  -15.3450   20.0470 N   0  0  0  0  0  0  0  0  0  0  0  0
  -31.3340  -16.6500   20.0640 O   0  0  0  0  0  1  0  0  0  0  0  0
  -25.4540  -14.0140   20.4880 C   0  0  0  0  0  0  0  0  0  0  0  0
  -24.4010  -13.2150   20.8190 C   0  0  0  0  0  0  0  0  0  0  0  0
  -24.8820  -11.8700   20.7570 C   0  0  0  0  0  0  0  0  0  0  0  0
  -26.5180  -13.1730   20.2450 N   0  0  0  0  0  0  0  0  0  0  0  0
  -26.1860  -11.8640   20.4560 N   0  0  0  0  0  0  0  0  0  0  0  0
  -24.1440  -10.6020   20.9100 C   0  0  0  0  0  0  0  0  0  0  0  0
  -24.4850   -9.6540   21.9010 C   0  0  0  0  0  3  0  0  0  0  0  0
  -23.7360   -8.4650   22.0470 C   0  0  0  0  0  3  0  0  0  0  0  0
  -22.6280   -8.2120   21.2040 C   0  0  0  0  0  0  0  0  0  0  0  0
  -22.3020   -9.1480   20.2060 C   0  0  0  0  0  3  0  0  0  0  0  0
  -23.0530  -10.3280   20.0580 C   0  0  0  0  0  3  0  0  0  0  0  0
  -21.8620   -7.0710   21.2540 O   0  0  0  0  0  0  0  0  0  0  0  0
  -21.6330   -6.4060   22.4330 C   0  0  0  0  0  0  0  0  0  0  0  0
  -20.9200   -7.0010   23.4970 C   0  0  0  0  0  3  0  0  0  0  0  0
  -20.6470   -6.2590   24.6630 C   0  0  0  0  0  3  0  0  0  0  0  0
  -21.0760   -4.9220   24.7650 C   0  0  0  0  0  0  0  0  0  0  0  0
  -21.7820   -4.3270   23.7050 C   0  0  0  0  0  3  0  0  0  0  0  0
  -22.0560   -5.0650   22.5410 C   0  0  0  0  0  0  0  0  0  0  0  0
  -22.7160   -4.4790   21.5140 F   0  0  0  0  0  0  0  0  0  0  0  0
  -20.8080   -4.2070   25.8830 F   0  0  0  0  0  0  0  0  0  0  0  0
  -22.9990  -13.6850   21.0720 C   0  0  0  0  0  0  0  0  0  0  0  0
  -22.2680  -12.9950   21.9390 N   0  0  0  0  0  0  0  0  0  0  0  0
  -22.5660  -14.7060   20.5390 O   0  0  0  0  0  0  0  0  0  0  0  0
  -22.6350  -12.1710   22.3920 H   0  0  0  0  0  0  0  0  0  0  0  0
  -21.3270  -13.2940   22.1520 H   0  0  0  0  0  0  0  0  0  0  0  0
  -25.5950  -15.3890   20.3330 N   0  0  0  0  0  0  0  0  0  0  0  0
  -24.8120  -16.0260   20.4360 H   0  0  0  0  0  0  0  0  0  0  0  0
  -26.4380  -15.8450   20.0090 H   0  0  0  0  0  0  0  0  0  0  0  0
  -30.5480  -20.8670   20.7860 O   0  0  0  0  0  0  0  0  0  0  0  0
  -30.5240  -21.8130   20.8780 H   0  0  0  0  0  0  0  0  0  0  0  0
  -28.2590  -24.5480   20.1470 O   0  0  0  0  0  1  0  0  0  0  0  0
  -24.7060  -31.7170   23.1240 C   0  0  0  0  0  0  0  0  0  0  0  0
  -27.3350  -26.0750   20.1730 C   0  0  0  0  0  0  0  0  0  0  0  0
  -23.6010  -30.3110   21.4490 C   0  0  0  0  0  3  0  0  0  0  0  0
  -25.1040  -28.5470   20.0950 C   0  0  0  0  0  0  0  0  0  0  0  0
  -26.2050  -30.2680   21.4730 C   0  0  0  0  0  2  0  0  0  0  0  0
  -26.2940  -28.7650   20.7960 C   0  0  0  0  0  0  0  0  0  0  0  0
  -27.3540  -27.5900   20.7790 C   0  0  0  0  0  3  0  0  0  0  0  0
  -26.0990  -26.2600   19.4210 C   0  0  0  0  0  3  0  0  0  0  0  0
  -25.0900  -27.3240   19.3820 C   0  0  0  0  0  3  0  0  0  0  0  0
  -23.9180  -29.5740   20.1010 C   0  0  0  0  0  2  0  0  0  0  0  0
  -24.8700  -30.8170   22.0690 N   0  0  0  0  0  0  0  0  0  0  0  0
  -23.5840  -32.0290   23.5720 O   0  0  0  0  0  0  0  0  0  0  0  0
  -22.8000  -29.3810   22.4070 C   0  0  0  0  0  0  0  0  0  0  0  0
  -21.4630  -29.2670   22.2590 N   0  0  0  0  0  0  0  0  0  0  0  0
  -23.4100  -28.7480   23.2710 O   0  0  0  0  0  0  0  0  0  0  0  0
  -21.0100  -29.8270   21.5500 H   0  0  0  0  0  0  0  0  0  0  0  0
  -18.0310  -28.1560   22.8300 C   0  0  0  0  0  0  0  0  0  0  0  0
  -20.6110  -28.3220   23.0010 C   0  0  0  0  0  3  0  0  0  0  0  0
  -20.6300  -26.9240   22.3360 C   0  0  0  0  0  2  0  0  0  0  0  0
  -19.4840  -26.7140   21.3430 C   0  0  0  0  0  2  0  0  0  0  0  0
  -18.1320  -26.8580   22.0460 C   0  0  0  0  0  2  0  0  0  0  0  0
  -19.1930  -28.8520   23.2630 C   0  0  0  0  0  0  0  0  0  0  0  0
  -19.0360  -30.0650   23.9690 C   0  0  0  0  0  3  0  0  0  0  0  0
  -17.7540  -30.5830   24.2360 C   0  0  0  0  0  3  0  0  0  0  0  0
  -16.6100  -29.8860   23.8120 C   0  0  0  0  0  3  0  0  0  0  0  0
  -16.7500  -28.6730   23.1160 C   0  0  0  0  0  3  0  0  0  0  0  0
  -25.9090  -32.4130   23.8380 C   0  0  0  0  0  3  0  0  0  0  0  0
  -25.5490  -33.8200   24.1510 N   0  0  0  0  0  0  0  0  0  0  0  0
  -25.8920  -34.9010   23.4350 C   0  0  0  0  0  0  0  0  0  0  0  0
  -26.5840  -34.8210   22.4190 O   0  0  0  0  0  0  0  0  0  0  0  0
  -24.9280  -33.9530   24.9370 H   0  0  0  0  0  0  0  0  0  0  0  0
  -24.1630  -36.7130   23.1080 C   0  0  0  0  0  1  0  0  0  0  0  0
  -25.4020  -36.2890   23.9140 C   0  0  0  0  0  3  0  0  0  0  0  0
  -27.5120  -37.2060   24.7870 C   0  0  0  0  0  1  0  0  0  0  0  0
  -26.4300  -37.3510   23.8160 N   0  0  0  0  0  0  0  0  0  0  0  0
  -26.0120  -38.2700   23.9430 H   0  0  0  0  0  0  0  0  0  0  0  0
  -26.3290  -31.6870   25.1780 C   0  0  1  0  0  0  0  0  0  0  0  0
  -25.1590  -31.4700   26.1680 C   0  0  0  0  0  1  0  0  0  0  0  0
  -26.9510  -30.3040   24.8940 C   0  0  0  0  0  1  0  0  0  0  0  0
  -27.4210  -32.5100   25.9020 C   0  0  0  0  0  1  0  0  0  0  0  0
  1  2  1  0
  2 43  1  0
  3  4  1  0
  3  1  1  0
  5  4  1  0
  5  6  1  0
  8 13  1  0
  9 10  1  0
  9  8  1  0
 11 10  1  0
 11 18  1  0
 11 12  1  0
 13  7  1  0
 13 12  1  0
 14  7  1  0
 15 16  2  0
 16 35  1  0
 17 16  1  0
 17 20  1  0
 18 19  1  0
 18 15  1  0
 19 17  2  0
 20 21  1  0
 21 22  2  0
 23 26  1  0
 23 22  1  0
 24 23  2  0
 25 24  1  0
 25 20  2  0
 26 27  1  0
 27 32  2  0
 27 28  1  0
 28 29  2  0
 29 30  1  0
 30 34  1  0
 31 30  2  0
 32 31  1  0
 33 32  1  0
 35 36  1  0
 36 39  1  0
 36 38  1  0
 37 35  2  0
 40 41  1  0
 40 15  1  0
 42 40  1  0
 43 44  1  0
 45 47  1  0
 46 57  2  0
 47 52  1  0
 48 56  1  0
 48 58  1  0
 49 55  1  0
 49 51  1  0
 50 56  1  0
 51 50  1  0
 52 51  2  0
 53 47  2  0
 54 53  1  0
 54 49  2  0
 55 48  1  0
 56 46  1  0
 58 60  2  0
 59 58  1  0
 61 59  1  0
 62 71  2  0
 62 67  1  0
 63 59  1  0
 63 67  1  0
 64 63  1  0
 65 66  1  0
 65 64  1  0
 66 62  1  0
 67 68  2  0
 68 69  1  0
 70 69  2  0
 71 70  1  0
 72 46  1  0
 72 73  1  0
 72 82  1  0
 73 76  1  0
 74 78  1  0
 74 73  1  0
 75 74  2  0
 78 77  1  0
 80 78  1  0
 80 81  1  0
 80 79  1  0
 82 85  1  1
 82 83  1  0
 84 82  1  0
M  ISO  4   1 100   6 101   7 100  45 101
M  END
>  <TORSDO>  (40) 
F 17

>  <SCORE>  (40) 
-15.719

>  <name>  (40) 
39

>  <ligand_id>  (40) 
39

>  <original_smiles>  (40) 
[H]OC1=C(C(=O)N2C([H])([H])C([H])([H])C([H])([H])C([H])(n3nc(-c4c([H])c([H])c(Oc5c([H])c([H])c(F)c([H])c5F)c([H])c4[H])c(C(=O)N([H])[H])c3N([H])[H])C2([H])[H])C([H])([H])C([H])([H])C([H])([H])C1([H])Oc1c([H])c([H])c2c(c1[H])C([H])([H])N(C(=O)C([H])(N([H])C(=O)C([H])(N([H])C([H])([H])[H])C([H])([H])[H])C(C([H])([H])[H])(C([H])([H])[H])C([H])([H])[H])C([H])(C(=O)N([H])C1([H])c3c([H])c([H])c([H])c([H])c3C([H])([H])C([H])([H])C1([H])[H])C2([H])[H]

>  <smiles>  (40) 
[H]OC1=C(C(=O)N2C([H])([H])C([H])([H])C([H])([H])C([H])(n3nc(-c4c([H])c([H])c(Oc5c([H])c([H])c(F)c([H])c5F)c([H])c4[H])c(C(=O)N([H])[H])c3N([H])[H])C2([H])[H])C([H])([H])C([H])([H])C([H])([H])C1([H])Oc1c([H])c([H])c2c(c1[H])C([H])([H])N(C(=O)C([H])(N([H])C(=O)C([H])(N([H])C([H])([H])[H])C([H])([H])[H])C(C([H])([H])[H])(C([H])([H])[H])C([H])([H])[H])C([H])(C(=O)N([H])C1([H])c3c([H])c([H])c([H])c([H])c3C([H])([H])C([H])([H])C1([H])[H])C2([H])[H]

$$$$
40:0:0
     RDKit          3D

 83 89  0  0  1  0  0  0  0  0999 V2000
  -29.1140  -19.1280   20.1240 C   0  0  0  0  0  2  0  0  0  0  0  0
  -29.2190  -20.5180   20.8340 C   0  0  0  0  0  3  0  0  0  0  0  0
  -28.4700  -20.5710   19.0910 C   0  0  1  0  0  0  0  0  0  0  0  0
  -28.2790  -22.1470   20.1360 C   0  0  0  0  0  1  0  0  0  0  0  0
  -30.0140  -20.7160   22.1070 C   0  0  0  0  0  1  0  0  0  0  0  0
  -27.2190  -20.1250   18.3290 C   0  0  0  0  0  1  0  0  0  0  0  0
  -29.8340  -17.1490   20.0560 C   0  0  0  0  0  2  0  0  0  0  0  0
  -30.2830  -14.2850   19.3210 C   0  0  0  0  0  2  0  0  0  0  0  0
  -29.5670  -13.3200   18.2610 C   0  0  0  0  0  2  0  0  0  0  0  0
  -28.3050  -12.6540   18.8070 C   0  0  0  0  0  2  0  0  0  0  0  0
  -27.6060  -13.6900   19.6940 C   0  0  0  0  0  3  0  0  0  0  0  0
  -28.5280  -14.5240   20.6880 C   0  0  0  0  0  2  0  0  0  0  0  0
  -29.4650  -15.5450   19.9730 N   0  0  0  0  0  0  0  0  0  0  0  0
  -31.0740  -16.8350   19.9580 O   0  0  0  0  0  1  0  0  0  0  0  0
  -25.2710  -14.0320   20.5490 C   0  0  0  0  0  0  0  0  0  0  0  0
  -24.2460  -13.2130   20.9150 C   0  0  0  0  0  0  0  0  0  0  0  0
  -24.7500  -11.8760   20.8290 C   0  0  0  0  0  0  0  0  0  0  0  0
  -26.3440  -13.2180   20.2650 N   0  0  0  0  0  0  0  0  0  0  0  0
  -26.0430  -11.8980   20.4780 N   0  0  0  0  0  0  0  0  0  0  0  0
  -24.0370  -10.5950   21.0050 C   0  0  0  0  0  0  0  0  0  0  0  0
  -24.4540   -9.6340   21.9530 C   0  0  0  0  0  3  0  0  0  0  0  0
  -23.7280   -8.4350   22.1280 C   0  0  0  0  0  3  0  0  0  0  0  0
  -22.5680   -8.1840   21.3590 C   0  0  0  0  0  0  0  0  0  0  0  0
  -22.1650   -9.1340   20.4040 C   0  0  0  0  0  3  0  0  0  0  0  0
  -22.8910  -10.3250   20.2270 C   0  0  0  0  0  3  0  0  0  0  0  0
  -21.8190   -7.0310   21.4400 O   0  0  0  0  0  0  0  0  0  0  0  0
  -21.7090   -6.3210   22.6090 C   0  0  0  0  0  0  0  0  0  0  0  0
  -21.1570   -6.8910   23.7770 C   0  0  0  0  0  3  0  0  0  0  0  0
  -20.9980   -6.1060   24.9360 C   0  0  0  0  0  3  0  0  0  0  0  0
  -21.3840   -4.7520   24.9280 C   0  0  0  0  0  0  0  0  0  0  0  0
  -21.9310   -4.1810   23.7660 C   0  0  0  0  0  3  0  0  0  0  0  0
  -22.0920   -4.9630   22.6080 C   0  0  0  0  0  0  0  0  0  0  0  0
  -22.5970   -4.4030   21.4830 F   0  0  0  0  0  0  0  0  0  0  0  0
  -21.2250   -3.9960   26.0390 F   0  0  0  0  0  0  0  0  0  0  0  0
  -22.8490  -13.6570   21.2230 C   0  0  0  0  0  0  0  0  0  0  0  0
  -22.1550  -12.9470   22.1010 N   0  0  0  0  0  0  0  0  0  0  0  0
  -22.3840  -14.6800   20.7180 O   0  0  0  0  0  0  0  0  0  0  0  0
  -22.5470  -12.1230   22.5320 H   0  0  0  0  0  0  0  0  0  0  0  0
  -21.2180  -13.2340   22.3500 H   0  0  0  0  0  0  0  0  0  0  0  0
  -25.3740  -15.4120   20.3880 N   0  0  0  0  0  0  0  0  0  0  0  0
  -24.5780  -16.0260   20.5140 H   0  0  0  0  0  0  0  0  0  0  0  0
  -26.1970  -15.8870   20.0420 H   0  0  0  0  0  0  0  0  0  0  0  0
  -28.1630  -24.3930   20.1770 O   0  0  0  0  0  1  0  0  0  0  0  0
  -24.7130  -31.7800   23.1360 C   0  0  0  0  0  0  0  0  0  0  0  0
  -27.2660  -25.9900   20.1750 C   0  0  0  0  0  0  0  0  0  0  0  0
  -23.5830  -30.3670   21.4810 C   0  0  0  0  0  3  0  0  0  0  0  0
  -25.0570  -28.5560   20.1230 C   0  0  0  0  0  0  0  0  0  0  0  0
  -26.1880  -30.2670   21.4920 C   0  0  0  0  0  2  0  0  0  0  0  0
  -26.2570  -28.7470   20.8150 C   0  0  0  0  0  0  0  0  0  0  0  0
  -27.2960  -27.5290   20.7830 C   0  0  0  0  0  3  0  0  0  0  0  0
  -26.0240  -26.2410   19.4330 C   0  0  0  0  0  3  0  0  0  0  0  0
  -25.0330  -27.3340   19.4060 C   0  0  0  0  0  3  0  0  0  0  0  0
  -23.8840  -29.6070   20.1400 C   0  0  0  0  0  2  0  0  0  0  0  0
  -24.8650  -30.8600   22.0890 N   0  0  0  0  0  0  0  0  0  0  0  0
  -23.5970  -32.1100   23.5850 O   0  0  0  0  0  0  0  0  0  0  0  0
  -22.7730  -29.4640   22.4590 C   0  0  0  0  0  0  0  0  0  0  0  0
  -21.4330  -29.3630   22.3230 N   0  0  0  0  0  0  0  0  0  0  0  0
  -23.3810  -28.8400   23.3320 O   0  0  0  0  0  0  0  0  0  0  0  0
  -20.9820  -29.9140   21.6050 H   0  0  0  0  0  0  0  0  0  0  0  0
  -18.0110  -28.1850   22.8390 C   0  0  0  0  0  0  0  0  0  0  0  0
  -20.5800  -28.4280   23.0790 C   0  0  0  0  0  3  0  0  0  0  0  0
  -20.6540  -27.0040   22.4760 C   0  0  0  0  0  2  0  0  0  0  0  0
  -19.5450  -26.7210   21.4590 C   0  0  0  0  0  2  0  0  0  0  0  0
  -18.1690  -26.8570   22.1160 C   0  0  0  0  0  2  0  0  0  0  0  0
  -19.1400  -28.9300   23.2770 C   0  0  0  0  0  0  0  0  0  0  0  0
  -18.9290  -30.1650   23.9270 C   0  0  0  0  0  3  0  0  0  0  0  0
  -17.6260  -30.6580   24.1360 C   0  0  0  0  0  3  0  0  0  0  0  0
  -16.5160  -29.9110   23.7080 C   0  0  0  0  0  3  0  0  0  0  0  0
  -16.7090  -28.6760   23.0680 C   0  0  0  0  0  3  0  0  0  0  0  0
  -25.9200  -32.4820   23.8390 C   0  0  0  0  0  3  0  0  0  0  0  0
  -25.5450  -33.8740   24.2040 N   0  0  0  0  0  0  0  0  0  0  0  0
  -25.8900  -34.9870   23.5380 C   0  0  0  0  0  0  0  0  0  0  0  0
  -26.5870  -34.9500   22.5220 O   0  0  0  0  0  0  0  0  0  0  0  0
  -24.9110  -33.9710   24.9850 H   0  0  0  0  0  0  0  0  0  0  0  0
  -24.1560  -36.8100   23.2730 C   0  0  0  0  0  1  0  0  0  0  0  0
  -25.3900  -36.3540   24.0710 C   0  0  0  0  0  3  0  0  0  0  0  0
  -27.4980  -37.2260   24.9910 C   0  0  0  0  0  1  0  0  0  0  0  0
  -26.4190  -37.4210   24.0290 N   0  0  0  0  0  0  0  0  0  0  0  0
  -26.0000  -38.3320   24.1980 H   0  0  0  0  0  0  0  0  0  0  0  0
  -26.3880  -31.7270   25.1480 C   0  0  1  0  0  0  0  0  0  0  0  0
  -25.2490  -31.4730   26.1660 C   0  0  0  0  0  1  0  0  0  0  0  0
  -27.0100  -30.3560   24.8130 C   0  0  0  0  0  1  0  0  0  0  0  0
  -27.4960  -32.5400   25.8580 C   0  0  0  0  0  1  0  0  0  0  0  0
  1  2  1  0
  2  5  1  0
  3  1  1  0
  3  4  1  1
  3  2  1  0
  6  3  1  0
  8 13  1  0
  9 10  1  0
  9  8  1  0
 11 10  1  0
 11 18  1  0
 11 12  1  0
 13  7  1  0
 13 12  1  0
 14  7  1  0
 15 16  2  0
 16 35  1  0
 17 16  1  0
 17 20  1  0
 18 19  1  0
 18 15  1  0
 19 17  2  0
 20 21  1  0
 21 22  2  0
 23 26  1  0
 23 22  1  0
 24 23  2  0
 25 24  1  0
 25 20  2  0
 26 27  1  0
 27 28  1  0
 28 29  2  0
 30 29  1  0
 30 34  1  0
 31 30  2  0
 32 27  2  0
 32 31  1  0
 33 32  1  0
 35 36  1  0
 36 39  1  0
 36 38  1  0
 37 35  2  0
 40 41  1  0
 40 15  1  0
 42 40  1  0
 44 55  2  0
 45 43  1  0
 45 50  1  0
 46 54  1  0
 46 56  1  0
 47 53  1  0
 47 49  1  0
 48 54  1  0
 49 48  1  0
 50 49  2  0
 51 45  2  0
 52 51  1  0
 52 47  2  0
 53 46  1  0
 54 44  1  0
 56 58  2  0
 57 56  1  0
 59 57  1  0
 60 69  2  0
 60 65  1  0
 61 57  1  0
 61 65  1  0
 62 61  1  0
 63 64  1  0
 63 62  1  0
 64 60  1  0
 65 66  2  0
 66 67  1  0
 68 67  2  0
 69 68  1  0
 70 44  1  0
 70 71  1  0
 70 80  1  0
 71 74  1  0
 72 76  1  0
 72 71  1  0
 73 72  2  0
 76 75  1  0
 78 76  1  0
 78 79  1  0
 78 77  1  0
 80 83  1  1
 80 81  1  0
 82 80  1  0
M  ISO  4   1 100   4 101   7 100  43 101
M  END
>  <TORSDO>  (41) 
F 16

>  <SCORE>  (41) 
-16.310

>  <name>  (41) 
40

>  <ligand_id>  (41) 
40

>  <original_smiles>  (41) 
[H]c1c([H])c([H])c2c(c1[H])C([H])([H])C([H])([H])C([H])([H])C2([H])N([H])C(=O)C1([H])N(C(=O)C([H])(N([H])C(=O)C([H])(N([H])C([H])([H])[H])C([H])([H])[H])C(C([H])([H])[H])(C([H])([H])[H])C([H])([H])[H])C([H])([H])c2c([H])c(OC3([H])C(C([H])([H])[H])=C(C(=O)N4C([H])([H])C([H])([H])C([H])([H])C([H])(n5nc(-c6c([H])c([H])c(Oc7c([H])c([H])c(F)c([H])c7F)c([H])c6[H])c(C(=O)N([H])[H])c5N([H])[H])C4([H])[H])C3([H])C([H])([H])[H])c([H])c([H])c2C1([H])[H]

>  <smiles>  (41) 
[H]c1c([H])c([H])c2c(c1[H])C([H])([H])C([H])([H])C([H])([H])C2([H])N([H])C(=O)C1([H])N(C(=O)C([H])(N([H])C(=O)C([H])(N([H])C([H])([H])[H])C([H])([H])[H])C(C([H])([H])[H])(C([H])([H])[H])C([H])([H])[H])C([H])([H])c2c([H])c(OC3([H])C(C([H])([H])[H])=C(C(=O)N4C([H])([H])C([H])([H])C([H])([H])C([H])(n5nc(-c6c([H])c([H])c(Oc7c([H])c([H])c(F)c([H])c7F)c([H])c6[H])c(C(=O)N([H])[H])c5N([H])[H])C4([H])[H])C3([H])C([H])([H])[H])c([H])c([H])c2C1([H])[H]

$$$$
41:0:0
     RDKit          3D

 88 95  0  0  1  0  0  0  0  0999 V2000
  -29.0940  -21.2730   20.6470 C   0  0  0  0  0  0  0  0  0  0  0  0
  -29.1760  -19.9180   20.0690 N   0  0  0  0  0  0  0  0  0  0  0  0
  -29.4170  -21.3490   21.8320 O   0  0  0  0  0  0  0  0  0  0  0  0
  -28.8000  -19.9040   19.1300 H   0  0  0  0  0  0  0  0  0  0  0  0
  -28.7170  -22.8190   19.9380 C   0  0  0  0  0  2  0  0  0  0  0  0
  -28.0830  -24.3570   20.6000 C   0  0  0  0  0  2  0  0  0  0  0  0
  -28.2530  -25.9560   20.2790 O   0  0  0  0  0  0  0  0  0  0  0  0
  -24.6270  -31.8790   23.2390 C   0  0  0  0  0  0  0  0  0  0  0  0
  -27.2100  -27.0110   20.2770 C   0  0  0  0  0  0  0  0  0  0  0  0
  -23.4420  -30.4670   21.6070 C   0  0  0  0  0  3  0  0  0  0  0  0
  -24.8980  -28.8550   20.2090 C   0  0  0  0  0  0  0  0  0  0  0  0
  -26.0060  -30.6950   21.4600 C   0  0  0  0  0  2  0  0  0  0  0  0
  -26.0840  -29.2810   20.8210 C   0  0  0  0  0  0  0  0  0  0  0  0
  -27.2380  -28.3810   20.8250 C   0  0  0  0  0  3  0  0  0  0  0  0
  -25.9930  -26.7220   19.6240 C   0  0  0  0  0  3  0  0  0  0  0  0
  -24.8760  -27.5940   19.5890 C   0  0  0  0  0  3  0  0  0  0  0  0
  -23.6760  -29.7700   20.2380 C   0  0  0  0  0  2  0  0  0  0  0  0
  -24.7130  -31.0400   22.1560 N   0  0  0  0  0  0  0  0  0  0  0  0
  -23.5360  -32.1680   23.7550 O   0  0  0  0  0  0  0  0  0  0  0  0
  -22.7480  -29.4760   22.5790 C   0  0  0  0  0  0  0  0  0  0  0  0
  -21.4190  -29.3090   22.4520 N   0  0  0  0  0  0  0  0  0  0  0  0
  -23.4140  -28.8580   23.4130 O   0  0  0  0  0  0  0  0  0  0  0  0
  -20.9370  -29.8570   21.7520 H   0  0  0  0  0  0  0  0  0  0  0  0
  -18.0360  -28.1030   22.9620 C   0  0  0  0  0  0  0  0  0  0  0  0
  -20.5950  -28.3750   23.2270 C   0  0  0  0  0  3  0  0  0  0  0  0
  -20.7000  -26.9400   22.6620 C   0  0  0  0  0  2  0  0  0  0  0  0
  -19.5990  -26.6090   21.6480 C   0  0  0  0  0  2  0  0  0  0  0  0
  -18.2160  -26.7530   22.2900 C   0  0  0  0  0  2  0  0  0  0  0  0
  -19.1520  -28.8720   23.3860 C   0  0  0  0  0  0  0  0  0  0  0  0
  -18.9270  -30.1350   23.9780 C   0  0  0  0  0  3  0  0  0  0  0  0
  -17.6200  -30.6290   24.1450 C   0  0  0  0  0  3  0  0  0  0  0  0
  -16.5180  -29.8590   23.7330 C   0  0  0  0  0  3  0  0  0  0  0  0
  -16.7270  -28.5960   23.1490 C   0  0  0  0  0  3  0  0  0  0  0  0
  -25.8960  -32.5290   23.8700 C   0  0  0  0  0  3  0  0  0  0  0  0
  -25.5750  -33.9310   24.1900 N   0  0  0  0  0  0  0  0  0  0  0  0
  -25.9100  -34.9870   23.4350 C   0  0  0  0  0  0  0  0  0  0  0  0
  -26.5830  -34.8820   22.4070 O   0  0  0  0  0  0  0  0  0  0  0  0
  -24.9740  -34.0850   24.9860 H   0  0  0  0  0  0  0  0  0  0  0  0
  -24.1820  -36.7830   23.0770 C   0  0  0  0  0  1  0  0  0  0  0  0
  -25.4220  -36.3770   23.8900 C   0  0  0  0  0  3  0  0  0  0  0  0
  -27.5560  -37.2670   24.7210 C   0  0  0  0  0  1  0  0  0  0  0  0
  -26.4550  -37.4300   23.7740 N   0  0  0  0  0  0  0  0  0  0  0  0
  -26.0490  -38.3520   23.9150 H   0  0  0  0  0  0  0  0  0  0  0  0
  -26.3950  -31.7760   25.1660 C   0  0  1  0  0  0  0  0  0  0  0  0
  -25.2900  -31.5570   26.2250 C   0  0  0  0  0  1  0  0  0  0  0  0
  -26.9810  -30.3910   24.8090 C   0  0  0  0  0  1  0  0  0  0  0  0
  -27.5410  -32.5780   25.8280 C   0  0  0  0  0  1  0  0  0  0  0  0
  -29.9900  -18.4990   20.3980 C   0  0  0  0  0  3  0  0  0  0  0  0
  -31.1410  -18.4620   18.1060 C   0  0  0  0  0  1  0  0  0  0  0  0
  -32.1480  -19.8720   19.9410 C   0  0  0  0  0  1  0  0  0  0  0  0
  -31.3350  -18.6020   19.6270 C   0  0  0  0  0  3  0  0  0  0  0  0
  -29.4990  -16.7770   20.3070 C   0  0  0  0  0  2  0  0  0  0  0  0
  -30.3690  -15.2570   20.2170 C   0  0  0  0  0  0  0  0  0  0  0  0
  -30.3580  -12.8210   19.3400 C   0  0  0  0  0  2  0  0  0  0  0  0
  -29.4260  -12.6710   18.1090 C   0  0  0  0  0  2  0  0  0  0  0  0
  -27.9730  -12.4080   18.5490 C   0  0  0  0  0  2  0  0  0  0  0  0
  -27.5370  -13.3490   19.6990 C   0  0  0  0  0  3  0  0  0  0  0  0
  -28.5930  -13.4530   20.8160 C   0  0  0  0  0  2  0  0  0  0  0  0
  -29.8380  -13.9400   20.2020 N   0  0  0  0  0  0  0  0  0  0  0  0
  -31.5860  -15.2640   19.9780 O   0  0  0  0  0  0  0  0  0  0  0  0
  -25.1690  -13.9010   20.4690 C   0  0  0  0  0  0  0  0  0  0  0  0
  -24.1110  -13.1210   20.8450 C   0  0  0  0  0  0  0  0  0  0  0  0
  -24.5830  -11.7710   20.8130 C   0  0  0  0  0  0  0  0  0  0  0  0
  -26.2120  -13.0290   20.2160 N   0  0  0  0  0  0  0  0  0  0  0  0
  -25.8730  -11.7420   20.4920 N   0  0  0  0  0  0  0  0  0  0  0  0
  -23.8620  -10.5070   21.0090 C   0  0  0  0  0  0  0  0  0  0  0  0
  -24.3000   -9.5430   21.9440 C   0  0  0  0  0  3  0  0  0  0  0  0
  -23.5770   -8.3450   22.1300 C   0  0  0  0  0  3  0  0  0  0  0  0
  -22.4010   -8.1010   21.3810 C   0  0  0  0  0  0  0  0  0  0  0  0
  -21.9820   -9.0530   20.4340 C   0  0  0  0  0  3  0  0  0  0  0  0
  -22.7060  -10.2420   20.2460 C   0  0  0  0  0  3  0  0  0  0  0  0
  -21.6500   -6.9540   21.4740 O   0  0  0  0  0  0  0  0  0  0  0  0
  -21.6040   -6.2150   22.6280 C   0  0  0  0  0  0  0  0  0  0  0  0
  -21.1750   -6.7720   23.8530 C   0  0  0  0  0  3  0  0  0  0  0  0
  -21.0760   -5.9600   25.0010 C   0  0  0  0  0  3  0  0  0  0  0  0
  -21.3970   -4.5910   24.9250 C   0  0  0  0  0  0  0  0  0  0  0  0
  -21.8180   -4.0330   23.7050 C   0  0  0  0  0  3  0  0  0  0  0  0
  -21.9190   -4.8430   22.5600 C   0  0  0  0  0  0  0  0  0  0  0  0
  -22.3060   -4.2950   21.3830 F   0  0  0  0  0  0  0  0  0  0  0  0
  -21.2960   -3.8090   26.0260 F   0  0  0  0  0  0  0  0  0  0  0  0
  -22.7130  -13.5910   21.1200 C   0  0  0  0  0  0  0  0  0  0  0  0
  -21.9910  -12.8950   21.9890 N   0  0  0  0  0  0  0  0  0  0  0  0
  -22.2700  -14.6140   20.5970 O   0  0  0  0  0  0  0  0  0  0  0  0
  -22.3640  -12.0700   22.4370 H   0  0  0  0  0  0  0  0  0  0  0  0
  -21.0520  -13.1920   22.2110 H   0  0  0  0  0  0  0  0  0  0  0  0
  -25.3270  -15.2720   20.2910 N   0  0  0  0  0  0  0  0  0  0  0  0
  -24.5620  -15.9270   20.4150 H   0  0  0  0  0  0  0  0  0  0  0  0
  -26.1760  -15.7160   19.9660 H   0  0  0  0  0  0  0  0  0  0  0  0
  1  3  2  0
  2 48  1  0
  2  1  1  0
  4  2  1  0
  5  6  1  0
  5  1  1  0
  7  6  1  0
  8 19  2  0
  9  7  1  0
  9 14  1  0
 10 18  1  0
 10 20  1  0
 11 17  1  0
 11 13  1  0
 12 18  1  0
 13 14  2  0
 13 12  1  0
 15  9  2  0
 16 15  1  0
 16 11  2  0
 17 10  1  0
 18  8  1  0
 20 22  2  0
 21 20  1  0
 23 21  1  0
 24 33  2  0
 24 29  1  0
 25 21  1  0
 25 29  1  0
 26 25  1  0
 27 28  1  0
 27 26  1  0
 28 24  1  0
 29 30  2  0
 30 31  1  0
 32 31  2  0
 33 32  1  0
 34  8  1  0
 34 35  1  0
 34 44  1  0
 35 38  1  0
 36 40  1  0
 36 35  1  0
 37 36  2  0
 40 39  1  0
 42 40  1  0
 42 43  1  0
 42 41  1  0
 44 47  1  1
 44 45  1  0
 46 44  1  0
 48 52  1  0
 49 51  1  0
 51 50  1  0
 51 48  1  0
 53 52  1  0
 54 59  1  0
 55 56  1  0
 55 54  1  0
 57 56  1  0
 57 64  1  0
 57 58  1  0
 59 53  1  0
 59 58  1  0
 60 53  2  0
 61 62  2  0
 62 81  1  0
 63 62  1  0
 63 66  1  0
 64 61  1  0
 64 65  1  0
 65 63  2  0
 66 67  1  0
 67 68  2  0
 69 72  1  0
 69 68  1  0
 70 69  2  0
 71 70  1  0
 71 66  2  0
 72 73  1  0
 73 74  1  0
 74 75  2  0
 76 75  1  0
 76 80  1  0
 77 76  2  0
 78 73  2  0
 78 77  1  0
 79 78  1  0
 81 82  1  0
 82 85  1  0
 82 84  1  0
 83 81  2  0
 86 87  1  0
 86 61  1  0
 88 86  1  0
M  ISO  4   6 101   7 101  52 100  53 100
M  END
>  <TORSDO>  (42) 
F 21

>  <SCORE>  (42) 
-15.243

>  <name>  (42) 
41

>  <ligand_id>  (42) 
41

>  <original_smiles>  (42) 
[H]c1c([H])c([H])c2c(c1[H])C([H])([H])C([H])([H])C([H])([H])C2([H])N([H])C(=O)C1([H])N(C(=O)C([H])(N([H])C(=O)C([H])(N([H])C([H])([H])[H])C([H])([H])[H])C(C([H])([H])[H])(C([H])([H])[H])C([H])([H])[H])C([H])([H])c2c([H])c(OC([H])([H])C([H])([H])C(=O)N([H])C([H])(C([H])([H])C(=O)N3C([H])([H])C([H])([H])C([H])([H])C([H])(n4nc(-c5c([H])c([H])c(Oc6c([H])c([H])c(F)c([H])c6F)c([H])c5[H])c(C(=O)N([H])[H])c4N([H])[H])C3([H])[H])C([H])(C([H])([H])[H])C([H])([H])[H])c([H])c([H])c2C1([H])[H]

>  <smiles>  (42) 
[H]c1c([H])c([H])c2c(c1[H])C([H])([H])C([H])([H])C([H])([H])C2([H])N([H])C(=O)C1([H])N(C(=O)C([H])(N([H])C(=O)C([H])(N([H])C([H])([H])[H])C([H])([H])[H])C(C([H])([H])[H])(C([H])([H])[H])C([H])([H])[H])C([H])([H])c2c([H])c(OC([H])([H])C([H])([H])C(=O)N([H])C([H])(C([H])([H])C(=O)N3C([H])([H])C([H])([H])C([H])([H])C([H])(n4nc(-c5c([H])c([H])c(Oc6c([H])c([H])c(F)c([H])c6F)c([H])c5[H])c(C(=O)N([H])[H])c4N([H])[H])C3([H])[H])C([H])(C([H])([H])[H])C([H])([H])[H])c([H])c([H])c2C1([H])[H]

$$$$
42:0:0
     RDKit          3D

 92 99  0  0  1  0  0  0  0  0999 V2000
  -30.3580  -19.9830   20.4210 C   0  0  0  0  0  3  0  0  0  0  0  0
  -30.4220  -17.3980   20.9020 C   0  0  0  0  0  0  0  0  0  0  0  0
  -29.8420  -18.5520   20.4090 N   0  0  0  0  0  0  0  0  0  0  0  0
  -31.4830  -17.4580   21.5260 O   0  0  0  0  0  0  0  0  0  0  0  0
  -28.9500  -18.4270   19.9470 H   0  0  0  0  0  0  0  0  0  0  0  0
  -29.6870  -15.9940   20.7860 C   0  0  0  0  0  2  0  0  0  0  0  0
  -30.5550  -14.7060   20.3850 C   0  0  0  0  0  0  0  0  0  0  0  0
  -30.3510  -12.4670   19.2960 C   0  0  0  0  0  2  0  0  0  0  0  0
  -29.3880  -12.6030   18.0920 C   0  0  0  0  0  2  0  0  0  0  0  0
  -27.9230  -12.4230   18.5360 C   0  0  0  0  0  2  0  0  0  0  0  0
  -27.5770  -13.2700   19.7880 C   0  0  0  0  0  3  0  0  0  0  0  0
  -28.6530  -13.1160   20.8870 C   0  0  0  0  0  2  0  0  0  0  0  0
  -29.9540  -13.4710   20.3040 N   0  0  0  0  0  0  0  0  0  0  0  0
  -31.7140  -14.8370   19.9760 O   0  0  0  0  0  0  0  0  0  0  0  0
  -25.1940  -13.8600   20.5390 C   0  0  0  0  0  0  0  0  0  0  0  0
  -24.1320  -13.0850   20.9180 C   0  0  0  0  0  0  0  0  0  0  0  0
  -24.5970  -11.7340   20.8770 C   0  0  0  0  0  0  0  0  0  0  0  0
  -26.2360  -12.9820   20.2880 N   0  0  0  0  0  0  0  0  0  0  0  0
  -25.8840  -11.6980   20.5530 N   0  0  0  0  0  0  0  0  0  0  0  0
  -23.8770  -10.4680   21.0680 C   0  0  0  0  0  0  0  0  0  0  0  0
  -24.3230   -9.4950   21.9890 C   0  0  0  0  0  3  0  0  0  0  0  0
  -23.6000   -8.2960   22.1670 C   0  0  0  0  0  3  0  0  0  0  0  0
  -22.4180   -8.0610   21.4260 C   0  0  0  0  0  0  0  0  0  0  0  0
  -21.9920   -9.0230   20.4930 C   0  0  0  0  0  3  0  0  0  0  0  0
  -22.7150  -10.2130   20.3130 C   0  0  0  0  0  3  0  0  0  0  0  0
  -21.6670   -6.9140   21.5150 O   0  0  0  0  0  0  0  0  0  0  0  0
  -21.6370   -6.1620   22.6630 C   0  0  0  0  0  0  0  0  0  0  0  0
  -21.2290   -6.7040   23.9000 C   0  0  0  0  0  3  0  0  0  0  0  0
  -21.1460   -5.8780   25.0380 C   0  0  0  0  0  3  0  0  0  0  0  0
  -21.4630   -4.5090   24.9410 C   0  0  0  0  0  0  0  0  0  0  0  0
  -21.8640   -3.9660   23.7090 C   0  0  0  0  0  3  0  0  0  0  0  0
  -21.9490   -4.7890   22.5720 C   0  0  0  0  0  0  0  0  0  0  0  0
  -22.3160   -4.2570   21.3830 F   0  0  0  0  0  0  0  0  0  0  0  0
  -21.3760   -3.7130   26.0330 F   0  0  0  0  0  0  0  0  0  0  0  0
  -22.7360  -13.5570   21.2040 C   0  0  0  0  0  0  0  0  0  0  0  0
  -22.0160  -12.8520   22.0710 N   0  0  0  0  0  0  0  0  0  0  0  0
  -22.2920  -14.5850   20.6940 O   0  0  0  0  0  0  0  0  0  0  0  0
  -22.3860  -12.0220   22.5060 H   0  0  0  0  0  0  0  0  0  0  0  0
  -21.0810  -13.1510   22.3030 H   0  0  0  0  0  0  0  0  0  0  0  0
  -25.3570  -15.2330   20.3640 N   0  0  0  0  0  0  0  0  0  0  0  0
  -24.5970  -15.8930   20.4920 H   0  0  0  0  0  0  0  0  0  0  0  0
  -26.2050  -15.6670   20.0240 H   0  0  0  0  0  0  0  0  0  0  0  0
  -29.3890  -21.1180   21.0380 C   0  0  0  0  0  2  0  0  0  0  0  0
  -28.7750  -22.3520   20.2030 C   0  0  0  0  0  2  0  0  0  0  0  0
  -29.0700  -23.8790   20.6080 C   0  0  0  0  0  3  0  0  0  0  0  0
  -28.0500  -24.9880   20.0720 C   0  0  0  0  0  3  0  0  0  0  0  0
  -28.2800  -26.4450   20.2860 O   0  0  0  0  0  0  0  0  0  0  0  0
  -24.5730  -31.8820   23.2540 C   0  0  0  0  0  0  0  0  0  0  0  0
  -27.1710  -27.3100   20.2030 C   0  0  0  0  0  0  0  0  0  0  0  0
  -23.3640  -30.4860   21.6170 C   0  0  0  0  0  3  0  0  0  0  0  0
  -24.8090  -28.9350   20.1880 C   0  0  0  0  0  0  0  0  0  0  0  0
  -25.9040  -30.7990   21.4310 C   0  0  0  0  0  2  0  0  0  0  0  0
  -25.9800  -29.4200   20.7850 C   0  0  0  0  0  0  0  0  0  0  0  0
  -27.1620  -28.6190   20.7840 C   0  0  0  0  0  3  0  0  0  0  0  0
  -25.9760  -26.8900   19.5680 C   0  0  0  0  0  3  0  0  0  0  0  0
  -24.8090  -27.6770   19.5710 C   0  0  0  0  0  3  0  0  0  0  0  0
  -23.5730  -29.8110   20.2360 C   0  0  0  0  0  2  0  0  0  0  0  0
  -24.6330  -31.0730   22.1570 N   0  0  0  0  0  0  0  0  0  0  0  0
  -23.4910  -32.1640   23.7900 O   0  0  0  0  0  0  0  0  0  0  0  0
  -22.7020  -29.4680   22.5780 C   0  0  0  0  0  0  0  0  0  0  0  0
  -21.3750  -29.2900   22.4500 N   0  0  0  0  0  0  0  0  0  0  0  0
  -23.3790  -28.8440   23.3970 O   0  0  0  0  0  0  0  0  0  0  0  0
  -20.8860  -29.8460   21.7630 H   0  0  0  0  0  0  0  0  0  0  0  0
  -17.9980  -28.1000   22.9520 C   0  0  0  0  0  0  0  0  0  0  0  0
  -20.5560  -28.3560   23.2230 C   0  0  0  0  0  3  0  0  0  0  0  0
  -20.6570  -26.9220   22.6510 C   0  0  0  0  0  2  0  0  0  0  0  0
  -19.5570  -26.5990   21.6360 C   0  0  0  0  0  2  0  0  0  0  0  0
  -18.1740  -26.7490   22.2780 C   0  0  0  0  0  2  0  0  0  0  0  0
  -19.1180  -28.8610   23.3800 C   0  0  0  0  0  0  0  0  0  0  0  0
  -18.9010  -30.1260   23.9680 C   0  0  0  0  0  3  0  0  0  0  0  0
  -17.5980  -30.6300   24.1310 C   0  0  0  0  0  3  0  0  0  0  0  0
  -16.4920  -29.8650   23.7200 C   0  0  0  0  0  3  0  0  0  0  0  0
  -16.6930  -28.6020   23.1360 C   0  0  0  0  0  3  0  0  0  0  0  0
  -25.8590  -32.5130   23.8720 C   0  0  0  0  0  3  0  0  0  0  0  0
  -25.5530  -33.9140   24.1950 N   0  0  0  0  0  0  0  0  0  0  0  0
  -25.8880  -34.9630   23.4320 C   0  0  0  0  0  0  0  0  0  0  0  0
  -26.5570  -34.8530   22.4000 O   0  0  0  0  0  0  0  0  0  0  0  0
  -24.9510  -34.0710   24.9910 H   0  0  0  0  0  0  0  0  0  0  0  0
  -24.1660  -36.7640   23.0720 C   0  0  0  0  0  1  0  0  0  0  0  0
  -25.4060  -36.3540   23.8830 C   0  0  0  0  0  3  0  0  0  0  0  0
  -27.5460  -37.2350   24.7080 C   0  0  0  0  0  1  0  0  0  0  0  0
  -26.4400  -37.4060   23.7680 N   0  0  0  0  0  0  0  0  0  0  0  0
  -26.0360  -38.3250   23.9190 H   0  0  0  0  0  0  0  0  0  0  0  0
  -26.3720  -31.7450   25.1520 C   0  0  1  0  0  0  0  0  0  0  0  0
  -25.2760  -31.5170   26.2200 C   0  0  0  0  0  1  0  0  0  0  0  0
  -26.9510  -30.3630   24.7710 C   0  0  0  0  0  1  0  0  0  0  0  0
  -27.5240  -32.5400   25.8120 C   0  0  0  0  0  1  0  0  0  0  0  0
  -30.9530  -20.4490   19.0590 C   0  0  0  0  0  2  0  0  0  0  0  0
  -33.3620  -19.6830   19.5940 C   0  0  0  0  0  1  0  0  0  0  0  0
  -32.8360  -20.8390   17.4590 C   0  0  0  0  0  1  0  0  0  0  0  0
  -32.0450  -18.5040   17.7830 C   0  0  0  0  0  1  0  0  0  0  0  0
  -32.2820  -19.8460   18.5030 C   0  0  2  0  0  0  0  0  0  0  0  0
  1 88  1  0
  1 43  1  0
  2  4  2  0
  3  1  1  0
  3  2  1  0
  5  3  1  0
  6  2  1  0
  7  6  1  0
  8 13  1  0
  9 10  1  0
  9  8  1  0
 11 10  1  0
 11 18  1  0
 11 12  1  0
 13  7  1  0
 13 12  1  0
 14  7  2  0
 15 16  2  0
 16 35  1  0
 17 16  1  0
 17 20  1  0
 18 15  1  0
 18 19  1  0
 19 17  2  0
 20 21  1  0
 21 22  2  0
 23 26  1  0
 23 22  1  0
 24 23  2  0
 25 24  1  0
 25 20  2  0
 26 27  1  0
 27 28  1  0
 28 29  2  0
 30 29  1  0
 30 34  1  0
 31 30  2  0
 32 27  2  0
 32 31  1  0
 33 32  1  0
 35 36  1  0
 36 39  1  0
 36 38  1  0
 37 35  2  0
 40 41  1  0
 40 15  1  0
 42 40  1  0
 44 45  1  0
 44 43  1  0
 46 47  1  0
 46 45  2  0
 48 59  2  0
 49 47  1  0
 49 54  1  0
 50 58  1  0
 50 60  1  0
 51 57  1  0
 51 53  1  0
 52 58  1  0
 53 52  1  0
 54 53  2  0
 55 56  1  0
 55 49  2  0
 56 51  2  0
 57 50  1  0
 58 48  1  0
 60 62  2  0
 61 60  1  0
 63 61  1  0
 64 73  2  0
 64 69  1  0
 65 61  1  0
 65 69  1  0
 66 65  1  0
 67 68  1  0
 67 66  1  0
 68 64  1  0
 69 70  2  0
 70 71  1  0
 72 71  2  0
 73 72  1  0
 74 48  1  0
 74 75  1  0
 74 84  1  0
 75 78  1  0
 76 80  1  0
 76 75  1  0
 77 76  2  0
 80 79  1  0
 82 80  1  0
 82 83  1  0
 82 81  1  0
 84 87  1  1
 84 85  1  0
 86 84  1  0
 92 90  1  6
 91 92  1  0
 92 88  1  0
 92 89  1  0
M  ISO  4   6 100   7 100  46 101  47 101
M  END
>  <TORSDO>  (43) 
F 24

>  <SCORE>  (43) 
-12.591

>  <name>  (43) 
42

>  <ligand_id>  (43) 
42

>  <original_smiles>  (43) 
[H]c1c([H])c([H])c2c(c1[H])C([H])([H])C([H])([H])C([H])([H])C2([H])N([H])C(=O)C1([H])N(C(=O)C([H])(N([H])C(=O)C([H])(N([H])C([H])([H])[H])C([H])([H])[H])C(C([H])([H])[H])(C([H])([H])[H])C([H])([H])[H])C([H])([H])c2c([H])c(OC([H])([H])C([H])([H])C([H])([H])C([H])([H])C([H])(N([H])C(=O)C([H])([H])C(=O)N3C([H])([H])C([H])([H])C([H])([H])C([H])(n4nc(-c5c([H])c([H])c(Oc6c([H])c([H])c(F)c([H])c6F)c([H])c5[H])c(C(=O)N([H])[H])c4N([H])[H])C3([H])[H])C([H])([H])C(C([H])([H])[H])(C([H])([H])[H])C([H])([H])[H])c([H])c([H])c2C1([H])[H]

>  <smiles>  (43) 
[H]c1c([H])c([H])c2c(c1[H])C([H])([H])C([H])([H])C([H])([H])C2([H])N([H])C(=O)C1([H])N(C(=O)C([H])(N([H])C(=O)C([H])(N([H])C([H])([H])[H])C([H])([H])[H])C(C([H])([H])[H])(C([H])([H])[H])C([H])([H])[H])C([H])([H])c2c([H])c(OC([H])([H])C([H])([H])C([H])([H])C([H])([H])C([H])(N([H])C(=O)C([H])([H])C(=O)N3C([H])([H])C([H])([H])C([H])([H])C([H])(n4nc(-c5c([H])c([H])c(Oc6c([H])c([H])c(F)c([H])c6F)c([H])c5[H])c(C(=O)N([H])[H])c4N([H])[H])C3([H])[H])C([H])([H])C(C([H])([H])[H])(C([H])([H])[H])C([H])([H])[H])c([H])c([H])c2C1([H])[H]

$$$$
43:0:0
     RDKit          3D

 88 95  0  0  1  0  0  0  0  0999 V2000
  -28.8310  -22.3230   20.7520 C   0  0  0  0  0  3  0  0  0  0  0  0
  -29.1960  -23.8620   20.4220 C   0  0  0  0  0  3  0  0  0  0  0  0
  -28.0640  -24.9920   20.5580 C   0  0  0  0  0  3  0  0  0  0  0  0
  -28.3530  -26.4450   20.3310 O   0  0  0  0  0  0  0  0  0  0  0  0
  -24.6260  -31.9130   23.2830 C   0  0  0  0  0  0  0  0  0  0  0  0
  -27.2530  -27.3260   20.2640 C   0  0  0  0  0  0  0  0  0  0  0  0
  -23.4330  -30.5090   21.6400 C   0  0  0  0  0  3  0  0  0  0  0  0
  -24.8960  -28.9620   20.2150 C   0  0  0  0  0  0  0  0  0  0  0  0
  -25.9730  -30.8250   21.4710 C   0  0  0  0  0  2  0  0  0  0  0  0
  -26.0590  -29.4410   20.8350 C   0  0  0  0  0  0  0  0  0  0  0  0
  -27.2400  -28.6330   20.8490 C   0  0  0  0  0  3  0  0  0  0  0  0
  -26.0750  -26.9240   19.5920 C   0  0  0  0  0  3  0  0  0  0  0  0
  -24.9120  -27.7150   19.5720 C   0  0  0  0  0  3  0  0  0  0  0  0
  -23.6550  -29.8340   20.2570 C   0  0  0  0  0  2  0  0  0  0  0  0
  -24.6960  -31.0990   22.1890 N   0  0  0  0  0  0  0  0  0  0  0  0
  -23.5400  -32.1920   23.8110 O   0  0  0  0  0  0  0  0  0  0  0  0
  -22.7700  -29.4900   22.5990 C   0  0  0  0  0  0  0  0  0  0  0  0
  -21.4440  -29.3100   22.4670 N   0  0  0  0  0  0  0  0  0  0  0  0
  -23.4450  -28.8670   23.4230 O   0  0  0  0  0  0  0  0  0  0  0  0
  -20.9550  -29.8750   21.7860 H   0  0  0  0  0  0  0  0  0  0  0  0
  -18.0670  -28.1060   22.9560 C   0  0  0  0  0  0  0  0  0  0  0  0
  -20.6230  -28.3720   23.2370 C   0  0  0  0  0  3  0  0  0  0  0  0
  -20.7280  -26.9370   22.6690 C   0  0  0  0  0  2  0  0  0  0  0  0
  -19.6310  -26.6100   21.6480 C   0  0  0  0  0  2  0  0  0  0  0  0
  -18.2480  -26.7530   22.2860 C   0  0  0  0  0  2  0  0  0  0  0  0
  -19.1820  -28.8720   23.3870 C   0  0  0  0  0  0  0  0  0  0  0  0
  -18.9570  -30.1370   23.9720 C   0  0  0  0  0  3  0  0  0  0  0  0
  -17.6490  -30.6350   24.1330 C   0  0  0  0  0  3  0  0  0  0  0  0
  -16.5490  -29.8660   23.7170 C   0  0  0  0  0  3  0  0  0  0  0  0
  -16.7590  -28.6030   23.1350 C   0  0  0  0  0  3  0  0  0  0  0  0
  -25.9060  -32.5520   23.9060 C   0  0  0  0  0  3  0  0  0  0  0  0
  -26.4090  -31.7940   25.1990 C   0  0  1  0  0  0  0  0  0  0  0  0
  -25.3040  -31.5700   26.2590 C   0  0  0  0  0  1  0  0  0  0  0  0
  -26.9950  -30.4100   24.8280 C   0  0  0  0  0  1  0  0  0  0  0  0
  -27.5520  -32.5970   25.8610 C   0  0  0  0  0  1  0  0  0  0  0  0
  -25.5970  -33.9530   24.2190 N   0  0  0  0  0  0  0  0  0  0  0  0
  -25.9410  -34.9970   23.4550 C   0  0  0  0  0  0  0  0  0  0  0  0
  -26.6210  -34.8800   22.4310 O   0  0  0  0  0  0  0  0  0  0  0  0
  -25.0080  -34.1170   25.0220 H   0  0  0  0  0  0  0  0  0  0  0  0
  -24.2320  -36.8000   23.0480 C   0  0  0  0  0  1  0  0  0  0  0  0
  -25.4510  -36.3910   23.8900 C   0  0  0  0  0  3  0  0  0  0  0  0
  -27.5730  -37.2680   24.7630 C   0  0  0  0  0  1  0  0  0  0  0  0
  -26.4930  -37.4380   23.7950 N   0  0  0  0  0  0  0  0  0  0  0  0
  -26.0890  -38.3600   23.9310 H   0  0  0  0  0  0  0  0  0  0  0  0
  -29.8140  -21.1520   20.2400 C   0  0  0  0  0  3  0  0  0  0  0  0
  -29.7160  -19.7330   20.8170 N   0  0  0  0  0  4  0  0  0  0  0  0
  -29.1870  -19.7430   21.6740 H   0  0  0  0  0  0  0  0  0  0  0  0
  -30.6590  -19.5210   21.0960 H   0  0  0  0  0  0  0  0  0  0  0  0
  -27.7980  -18.2200   20.2390 C   0  0  0  0  0  1  0  0  0  0  0  0
  -29.2810  -18.5450   19.9700 C   0  0  0  0  0  3  0  0  0  0  0  0
  -29.8310  -15.9420   20.3340 C   0  0  0  0  0  3  0  0  0  0  0  0
  -30.1780  -17.2380   20.0000 C   0  0  0  0  0  3  0  0  0  0  0  0
  -30.7170  -14.7430   20.1510 C   0  0  0  0  0  0  0  0  0  0  0  0
  -30.5470  -12.4070   19.2950 C   0  0  0  0  0  2  0  0  0  0  0  0
  -29.6060  -12.4080   18.0680 C   0  0  0  0  0  2  0  0  0  0  0  0
  -28.1370  -12.2550   18.5030 C   0  0  0  0  0  2  0  0  0  0  0  0
  -27.7610  -13.2110   19.6660 C   0  0  0  0  0  3  0  0  0  0  0  0
  -28.8200  -13.1640   20.7890 C   0  0  0  0  0  2  0  0  0  0  0  0
  -30.1200  -13.5020   20.1930 N   0  0  0  0  0  0  0  0  0  0  0  0
  -31.8930  -14.8420   19.7840 O   0  0  0  0  0  0  0  0  0  0  0  0
  -25.3890  -13.8490   20.4200 C   0  0  0  0  0  0  0  0  0  0  0  0
  -24.3170  -13.0920   20.8060 C   0  0  0  0  0  0  0  0  0  0  0  0
  -24.7580  -11.7320   20.7670 C   0  0  0  0  0  0  0  0  0  0  0  0
  -26.4180  -12.9520   20.1720 N   0  0  0  0  0  0  0  0  0  0  0  0
  -26.0440  -11.6750   20.4410 N   0  0  0  0  0  0  0  0  0  0  0  0
  -24.0170  -10.4820   20.9640 C   0  0  0  0  0  0  0  0  0  0  0  0
  -24.4460   -9.5080   21.8920 C   0  0  0  0  0  3  0  0  0  0  0  0
  -23.7070   -8.3200   22.0750 C   0  0  0  0  0  3  0  0  0  0  0  0
  -22.5240   -8.1000   21.3310 C   0  0  0  0  0  0  0  0  0  0  0  0
  -22.1150   -9.0630   20.3900 C   0  0  0  0  0  3  0  0  0  0  0  0
  -22.8550  -10.2410   20.2060 C   0  0  0  0  0  3  0  0  0  0  0  0
  -21.7510   -6.9670   21.4230 O   0  0  0  0  0  0  0  0  0  0  0  0
  -21.7020   -6.2230   22.5740 C   0  0  0  0  0  0  0  0  0  0  0  0
  -21.2880   -6.7810   23.8020 C   0  0  0  0  0  3  0  0  0  0  0  0
  -21.1840   -5.9630   24.9460 C   0  0  0  0  0  3  0  0  0  0  0  0
  -21.4870   -4.5920   24.8620 C   0  0  0  0  0  0  0  0  0  0  0  0
  -21.8970   -4.0340   23.6380 C   0  0  0  0  0  3  0  0  0  0  0  0
  -22.0010   -4.8480   22.4960 C   0  0  0  0  0  0  0  0  0  0  0  0
  -22.3750   -4.3030   21.3120 F   0  0  0  0  0  0  0  0  0  0  0  0
  -21.3810   -3.8030   25.9580 F   0  0  0  0  0  0  0  0  0  0  0  0
  -22.9310  -13.5890   21.1000 C   0  0  0  0  0  0  0  0  0  0  0  0
  -22.2070  -12.9040   21.9780 N   0  0  0  0  0  0  0  0  0  0  0  0
  -22.5010  -14.6220   20.5870 O   0  0  0  0  0  0  0  0  0  0  0  0
  -22.5730  -12.0700   22.4160 H   0  0  0  0  0  0  0  0  0  0  0  0
  -21.2790  -13.2180   22.2220 H   0  0  0  0  0  0  0  0  0  0  0  0
  -25.5660  -15.2170   20.2390 N   0  0  0  0  0  0  0  0  0  0  0  0
  -24.7950  -15.8690   20.3410 H   0  0  0  0  0  0  0  0  0  0  0  0
  -26.4040  -15.6490   19.8740 H   0  0  0  0  0  0  0  0  0  0  0  0
  2  3  2  0
  2  1  1  0
  4  3  1  0
  5 16  2  0
  6  4  1  0
  6 11  1  0
  7 15  1  0
  7 17  1  0
  8 14  1  0
  8 10  1  0
  9 15  1  0
 10 11  2  0
 10  9  1  0
 12  6  2  0
 13 12  1  0
 13  8  2  0
 14  7  1  0
 15  5  1  0
 17 19  2  0
 18 17  1  0
 20 18  1  0
 21 30  2  0
 21 26  1  0
 22 18  1  0
 22 26  1  0
 23 22  1  0
 24 25  1  0
 24 23  1  0
 25 21  1  0
 26 27  2  0
 27 28  1  0
 29 28  2  0
 30 29  1  0
 31  5  1  0
 31 36  1  0
 31 32  1  0
 32 35  1  1
 32 33  1  0
 34 32  1  0
 36 39  1  0
 37 41  1  0
 37 36  1  0
 38 37  2  0
 41 40  1  0
 43 41  1  0
 43 44  1  0
 43 42  1  0
 45  1  2  0
 45 46  1  0
 46 48  1  0
 46 47  1  0
 50 52  1  0
 50 49  1  0
 50 46  1  0
 52 51  2  0
 53 59  1  0
 53 51  1  0
 54 59  1  0
 55 56  1  0
 55 54  1  0
 57 56  1  0
 57 64  1  0
 57 58  1  0
 59 58  1  0
 60 53  2  0
 61 62  2  0
 62 81  1  0
 63 62  1  0
 63 66  1  0
 64 61  1  0
 64 65  1  0
 65 63  2  0
 66 67  1  0
 67 68  2  0
 69 72  1  0
 69 68  1  0
 70 69  2  0
 71 70  1  0
 71 66  2  0
 72 73  1  0
 73 74  1  0
 74 75  2  0
 76 75  1  0
 76 80  1  0
 77 76  2  0
 78 73  2  0
 78 77  1  0
 79 78  1  0
 81 82  1  0
 82 85  1  0
 82 84  1  0
 83 81  2  0
 86 87  1  0
 86 61  1  0
 88 86  1  0
M  ISO  4   3 101   4 101  51 100  53 100
M  END
>  <TORSDO>  (44) 
F 22

>  <SCORE>  (44) 
-13.067

>  <name>  (44) 
43

>  <ligand_id>  (44) 
43

>  <original_smiles>  (44) 
[H]C(C(=O)N1C([H])([H])C([H])([H])C([H])([H])C([H])(n2nc(-c3c([H])c([H])c(Oc4c([H])c([H])c(F)c([H])c4F)c([H])c3[H])c(C(=O)N([H])[H])c2N([H])[H])C1([H])[H])=C([H])C([H])(C([H])([H])[H])[N+]([H])([H])C([H])([H])C([H])([H])C([H])([H])C([H])([H])Oc1c([H])c([H])c2c(c1[H])C([H])([H])N(C(=O)C([H])(N([H])C(=O)C([H])(N([H])C([H])([H])[H])C([H])([H])[H])C(C([H])([H])[H])(C([H])([H])[H])C([H])([H])[H])C([H])(C(=O)N([H])C1([H])c3c([H])c([H])c([H])c([H])c3C([H])([H])C([H])([H])C1([H])[H])C2([H])[H]

>  <smiles>  (44) 
[H]C(C(=O)N1C([H])([H])C([H])([H])C([H])([H])C([H])(n2nc(-c3c([H])c([H])c(Oc4c([H])c([H])c(F)c([H])c4F)c([H])c3[H])c(C(=O)N([H])[H])c2N([H])[H])C1([H])[H])=C([H])C([H])(C([H])([H])[H])[N+]([H])([H])C([H])([H])C([H])([H])C([H])([H])C([H])([H])Oc1c([H])c([H])c2c(c1[H])C([H])([H])N(C(=O)C([H])(N([H])C(=O)C([H])(N([H])C([H])([H])[H])C([H])([H])[H])C(C([H])([H])[H])(C([H])([H])[H])C([H])([H])[H])C([H])(C(=O)N([H])C1([H])c3c([H])c([H])c([H])c([H])c3C([H])([H])C([H])([H])C1([H])[H])C2([H])[H]

$$$$
44:0:0
     RDKit          3D

 85 93  0  0  1  0  0  0  0  0999 V2000
  -29.1050  -22.6140   20.1710 C   0  0  0  0  0  3  0  0  0  0  0  0
  -29.8050  -19.6570   19.9860 C   0  0  0  0  0  3  0  0  0  0  0  0
  -28.9390  -20.8300   20.1030 C   0  0  0  0  0  0  0  0  0  0  0  0
  -29.2330  -18.1010   20.1150 C   0  0  0  0  0  0  0  0  0  0  0  0
  -27.5970  -20.1650   20.3580 C   0  0  0  0  0  3  0  0  0  0  0  0
  -27.7720  -18.5740   20.3330 C   0  0  0  0  0  3  0  0  0  0  0  0
  -29.4420  -16.6670   20.1220 N   0  0  0  0  0  0  0  0  0  0  0  0
  -30.4350  -15.4610   19.9880 C   0  0  0  0  0  0  0  0  0  0  0  0
  -30.6030  -12.9180   19.3460 C   0  0  0  0  0  2  0  0  0  0  0  0
  -29.6970  -12.5470   18.1390 C   0  0  0  0  0  2  0  0  0  0  0  0
  -28.2610  -12.2370   18.5950 C   0  0  0  0  0  2  0  0  0  0  0  0
  -27.7570  -13.2700   19.6320 C   0  0  0  0  0  3  0  0  0  0  0  0
  -28.7910  -13.5620   20.7390 C   0  0  0  0  0  2  0  0  0  0  0  0
  -30.0010  -14.0950   20.0850 N   0  0  0  0  0  0  0  0  0  0  0  0
  -31.6370  -15.5200   19.7010 O   0  0  0  0  0  0  0  0  0  0  0  0
  -25.4090  -13.8110   20.4580 C   0  0  0  0  0  0  0  0  0  0  0  0
  -24.3550  -13.0280   20.8370 C   0  0  0  0  0  0  0  0  0  0  0  0
  -24.8200  -11.6790   20.7720 C   0  0  0  0  0  0  0  0  0  0  0  0
  -26.4430  -12.9400   20.1690 N   0  0  0  0  0  0  0  0  0  0  0  0
  -26.1040  -11.6490   20.4280 N   0  0  0  0  0  0  0  0  0  0  0  0
  -24.0950  -10.4140   20.9600 C   0  0  0  0  0  0  0  0  0  0  0  0
  -24.5090   -9.4570   21.9130 C   0  0  0  0  0  3  0  0  0  0  0  0
  -23.7820   -8.2600   22.0890 C   0  0  0  0  0  3  0  0  0  0  0  0
  -22.6260   -8.0100   21.3110 C   0  0  0  0  0  0  0  0  0  0  0  0
  -22.2320   -8.9550   20.3480 C   0  0  0  0  0  3  0  0  0  0  0  0
  -22.9590  -10.1430   20.1710 C   0  0  0  0  0  3  0  0  0  0  0  0
  -21.8730   -6.8640   21.3940 O   0  0  0  0  0  0  0  0  0  0  0  0
  -21.7450   -6.1700   22.5710 C   0  0  0  0  0  0  0  0  0  0  0  0
  -21.2140   -6.7680   23.7350 C   0  0  0  0  0  3  0  0  0  0  0  0
  -21.0360   -6.0000   24.9030 C   0  0  0  0  0  3  0  0  0  0  0  0
  -21.3780   -4.6340   24.9070 C   0  0  0  0  0  0  0  0  0  0  0  0
  -21.9020   -4.0360   23.7480 C   0  0  0  0  0  3  0  0  0  0  0  0
  -22.0810   -4.8020   22.5820 C   0  0  0  0  0  0  0  0  0  0  0  0
  -22.5660   -4.2140   21.4610 F   0  0  0  0  0  0  0  0  0  0  0  0
  -21.2000   -3.8930   26.0260 F   0  0  0  0  0  0  0  0  0  0  0  0
  -22.9650  -13.5020   21.1460 C   0  0  0  0  0  0  0  0  0  0  0  0
  -22.2590  -12.7980   22.0240 N   0  0  0  0  0  0  0  0  0  0  0  0
  -22.5160  -14.5330   20.6460 O   0  0  0  0  0  0  0  0  0  0  0  0
  -22.6380  -11.9650   22.4500 H   0  0  0  0  0  0  0  0  0  0  0  0
  -21.3270  -13.0970   22.2740 H   0  0  0  0  0  0  0  0  0  0  0  0
  -25.5730  -15.1850   20.3070 N   0  0  0  0  0  0  0  0  0  0  0  0
  -24.8240  -15.8480   20.4710 H   0  0  0  0  0  0  0  0  0  0  0  0
  -26.4420  -15.6220   20.0240 H   0  0  0  0  0  0  0  0  0  0  0  0
  -28.0460  -24.1270   20.0360 C   0  0  0  0  0  3  0  0  0  0  0  0
  -28.2510  -25.7970   20.2060 O   0  0  0  0  0  0  0  0  0  0  0  0
  -24.6950  -31.8300   23.2210 C   0  0  0  0  0  0  0  0  0  0  0  0
  -27.2450  -26.9250   20.1620 C   0  0  0  0  0  0  0  0  0  0  0  0
  -23.5060  -30.4570   21.5620 C   0  0  0  0  0  3  0  0  0  0  0  0
  -24.9560  -28.8540   20.1270 C   0  0  0  0  0  0  0  0  0  0  0  0
  -26.0770  -30.6460   21.4330 C   0  0  0  0  0  2  0  0  0  0  0  0
  -26.1450  -29.2370   20.7590 C   0  0  0  0  0  0  0  0  0  0  0  0
  -27.2820  -28.2980   20.7450 C   0  0  0  0  0  3  0  0  0  0  0  0
  -26.0220  -26.7100   19.4850 C   0  0  0  0  0  3  0  0  0  0  0  0
  -24.9240  -27.6140   19.4690 C   0  0  0  0  0  3  0  0  0  0  0  0
  -23.7410  -29.7840   20.1810 C   0  0  0  0  0  2  0  0  0  0  0  0
  -24.7810  -31.0060   22.1260 N   0  0  0  0  0  0  0  0  0  0  0  0
  -23.6030  -32.1190   23.7400 O   0  0  0  0  0  0  0  0  0  0  0  0
  -22.7990  -29.4570   22.5160 C   0  0  0  0  0  0  0  0  0  0  0  0
  -21.4680  -29.3000   22.3860 N   0  0  0  0  0  0  0  0  0  0  0  0
  -23.4580  -28.8210   23.3430 O   0  0  0  0  0  0  0  0  0  0  0  0
  -20.9900  -29.8650   21.6970 H   0  0  0  0  0  0  0  0  0  0  0  0
  -18.0760  -28.1070   22.8880 C   0  0  0  0  0  0  0  0  0  0  0  0
  -20.6390  -28.3550   23.1430 C   0  0  0  0  0  3  0  0  0  0  0  0
  -20.7300  -26.9320   22.5430 C   0  0  0  0  0  2  0  0  0  0  0  0
  -19.6210  -26.6350   21.5280 C   0  0  0  0  0  2  0  0  0  0  0  0
  -18.2430  -26.7720   22.1810 C   0  0  0  0  0  2  0  0  0  0  0  0
  -19.2010  -28.8580   23.3250 C   0  0  0  0  0  0  0  0  0  0  0  0
  -18.9880  -30.1060   23.9490 C   0  0  0  0  0  3  0  0  0  0  0  0
  -17.6850  -30.6040   24.1390 C   0  0  0  0  0  3  0  0  0  0  0  0
  -16.5760  -29.8510   23.7160 C   0  0  0  0  0  3  0  0  0  0  0  0
  -16.7730  -28.6050   23.0960 C   0  0  0  0  0  3  0  0  0  0  0  0
  -25.9620  -32.4650   23.8700 C   0  0  0  0  0  3  0  0  0  0  0  0
  -25.6490  -33.8660   24.2080 N   0  0  0  0  0  0  0  0  0  0  0  0
  -25.9650  -34.9300   23.4570 C   0  0  0  0  0  0  0  0  0  0  0  0
  -26.6130  -34.8350   22.4120 O   0  0  0  0  0  0  0  0  0  0  0  0
  -25.0690  -34.0120   25.0220 H   0  0  0  0  0  0  0  0  0  0  0  0
  -24.2150  -36.7210   23.1850 C   0  0  0  0  0  1  0  0  0  0  0  0
  -25.4930  -36.3170   23.9390 C   0  0  0  0  0  3  0  0  0  0  0  0
  -27.6520  -37.2220   24.6830 C   0  0  0  0  0  1  0  0  0  0  0  0
  -26.5140  -37.3760   23.7810 N   0  0  0  0  0  0  0  0  0  0  0  0
  -26.1080  -38.2960   23.9370 H   0  0  0  0  0  0  0  0  0  0  0  0
  -26.4490  -31.6950   25.1600 C   0  0  1  0  0  0  0  0  0  0  0  0
  -25.3360  -31.4700   26.2110 C   0  0  0  0  0  1  0  0  0  0  0  0
  -27.0290  -30.3110   24.7920 C   0  0  0  0  0  1  0  0  0  0  0  0
  -27.5950  -32.4840   25.8390 C   0  0  0  0  0  1  0  0  0  0  0  0
  2  3  2  0
  2  4  1  0
  3  1  1  0
  3  5  1  0
  4  7  2  0
  4  6  1  0
  6  5  2  0
  8 14  1  0
  8  7  1  0
  9 14  1  0
 10 11  1  0
 10  9  1  0
 12 11  1  0
 12 19  1  0
 12 13  1  0
 14 13  1  0
 15  8  2  0
 16 17  2  0
 17 36  1  0
 18 17  1  0
 18 21  1  0
 19 20  1  0
 19 16  1  0
 20 18  2  0
 21 22  1  0
 22 23  2  0
 24 27  1  0
 24 23  1  0
 25 24  2  0
 26 25  1  0
 26 21  2  0
 27 28  1  0
 28 33  2  0
 28 29  1  0
 29 30  2  0
 30 31  1  0
 31 35  1  0
 32 31  2  0
 33 32  1  0
 34 33  1  0
 36 37  1  0
 37 40  1  0
 37 39  1  0
 38 36  2  0
 41 16  1  0
 41 42  1  0
 43 41  1  0
 44  1  2  0
 44 45  1  0
 46 57  2  0
 47 45  1  0
 47 52  1  0
 48 56  1  0
 48 58  1  0
 49 55  1  0
 49 51  1  0
 50 56  1  0
 51 50  1  0
 52 51  2  0
 53 47  2  0
 54 53  1  0
 54 49  2  0
 55 48  1  0
 56 46  1  0
 58 60  2  0
 59 58  1  0
 61 59  1  0
 62 71  2  0
 62 67  1  0
 63 59  1  0
 63 67  1  0
 64 63  1  0
 65 66  1  0
 65 64  1  0
 66 62  1  0
 67 68  2  0
 68 69  1  0
 70 69  2  0
 71 70  1  0
 72 46  1  0
 72 73  1  0
 72 82  1  0
 73 76  1  0
 74 78  1  0
 74 73  1  0
 75 74  2  0
 78 77  1  0
 80 81  1  0
 80 78  1  0
 80 79  1  0
 82 85  1  1
 82 83  1  0
 84 82  1  0
M  ISO  4   7 100   8 100  44 101  45 101
M  END
>  <TORSDO>  (45) 
F 18

>  <SCORE>  (45) 
-15.507

>  <name>  (45) 
44

>  <ligand_id>  (45) 
44

>  <original_smiles>  (45) 
[H]C1=C(C([H])([H])C([H])([H])Oc2c([H])c([H])c3c(c2[H])C([H])([H])N(C(=O)C([H])(N([H])C(=O)C([H])(N([H])C([H])([H])[H])C([H])([H])[H])C(C([H])([H])[H])(C([H])([H])[H])C([H])([H])[H])C([H])(C(=O)N([H])C2([H])c4c([H])c([H])c([H])c([H])c4C([H])([H])C([H])([H])C2([H])[H])C3([H])[H])C([H])([H])C([H])([H])C1=NC(=O)N1C([H])([H])C([H])([H])C([H])([H])C([H])(n2nc(-c3c([H])c([H])c(Oc4c([H])c([H])c(F)c([H])c4F)c([H])c3[H])c(C(=O)N([H])[H])c2N([H])[H])C1([H])[H]

>  <smiles>  (45) 
[H]C1=C(C([H])([H])C([H])([H])Oc2c([H])c([H])c3c(c2[H])C([H])([H])N(C(=O)C([H])(N([H])C(=O)C([H])(N([H])C([H])([H])[H])C([H])([H])[H])C(C([H])([H])[H])(C([H])([H])[H])C([H])([H])[H])C([H])(C(=O)N([H])C2([H])c4c([H])c([H])c([H])c([H])c4C([H])([H])C([H])([H])C2([H])[H])C3([H])[H])C([H])([H])C([H])([H])C1=NC(=O)N1C([H])([H])C([H])([H])C([H])([H])C([H])(n2nc(-c3c([H])c([H])c(Oc4c([H])c([H])c(F)c([H])c4F)c([H])c3[H])c(C(=O)N([H])[H])c2N([H])[H])C1([H])[H]

$$$$
45:0:0
     RDKit          3D

 83 88  0  0  1  0  0  0  0  0999 V2000
  -28.0460  -23.3230   20.2570 C   0  0  0  0  0 15  0  0  0  0  0  0
  -28.8410  -18.9420   18.8470 C   0  0  0  0  0  3  0  0  0  0  0  0
  -28.6340  -20.3610   18.8480 C   0  0  0  0  0  3  0  0  0  0  0  0
  -29.3530  -19.7360   20.8370 C   0  0  0  0  0  3  0  0  0  0  0  0
  -29.2940  -17.9970   20.0690 C   0  0  0  0  0  2  0  0  0  0  0  0
  -28.9360  -21.4110   20.0300 C   0  0  0  0  0  3  0  0  0  0  0  0
  -30.1290  -16.1520   20.0050 C   0  0  0  0  0  2  0  0  0  0  0  0
  -30.3730  -13.5020   19.2340 C   0  0  0  0  0  2  0  0  0  0  0  0
  -29.4880  -12.9190   18.0790 C   0  0  0  0  0  2  0  0  0  0  0  0
  -28.1150  -12.4660   18.5920 C   0  0  0  0  0  2  0  0  0  0  0  0
  -27.5720  -13.4780   19.6170 C   0  0  0  0  0  3  0  0  0  0  0  0
  -28.6070  -13.9520   20.6730 C   0  0  0  0  0  2  0  0  0  0  0  0
  -29.7010  -14.7000   19.9760 N   0  0  0  0  0  0  0  0  0  0  0  0
  -31.3650  -16.0340   19.8130 O   0  0  0  0  0  1  0  0  0  0  0  0
  -25.2540  -13.9370   20.5210 C   0  0  0  0  0  0  0  0  0  0  0  0
  -24.2210  -13.1360   20.9110 C   0  0  0  0  0  0  0  0  0  0  0  0
  -24.7010  -11.7930   20.8160 C   0  0  0  0  0  0  0  0  0  0  0  0
  -26.2940  -13.0890   20.1990 N   0  0  0  0  0  0  0  0  0  0  0  0
  -25.9800  -11.7860   20.4400 N   0  0  0  0  0  0  0  0  0  0  0  0
  -23.9880  -10.5190   21.0020 C   0  0  0  0  0  0  0  0  0  0  0  0
  -24.4320   -9.5480   21.9260 C   0  0  0  0  0  3  0  0  0  0  0  0
  -23.7120   -8.3460   22.1040 C   0  0  0  0  0  3  0  0  0  0  0  0
  -22.5340   -8.1060   21.3590 C   0  0  0  0  0  0  0  0  0  0  0  0
  -22.1080   -9.0660   20.4240 C   0  0  0  0  0  3  0  0  0  0  0  0
  -22.8280  -10.2590   20.2430 C   0  0  0  0  0  3  0  0  0  0  0  0
  -21.7860   -6.9550   21.4450 O   0  0  0  0  0  0  0  0  0  0  0  0
  -21.7120   -6.2310   22.6080 C   0  0  0  0  0  0  0  0  0  0  0  0
  -21.2170   -6.7930   23.8050 C   0  0  0  0  0  3  0  0  0  0  0  0
  -21.0920   -5.9940   24.9590 C   0  0  0  0  0  3  0  0  0  0  0  0
  -21.4500   -4.6330   24.9160 C   0  0  0  0  0  0  0  0  0  0  0  0
  -21.9370   -4.0700   23.7230 C   0  0  0  0  0  3  0  0  0  0  0  0
  -22.0640   -4.8660   22.5720 C   0  0  0  0  0  0  0  0  0  0  0  0
  -22.5130   -4.3140   21.4200 F   0  0  0  0  0  0  0  0  0  0  0  0
  -21.3240   -3.8630   26.0220 F   0  0  0  0  0  0  0  0  0  0  0  0
  -22.8330  -13.5940   21.2510 C   0  0  0  0  0  0  0  0  0  0  0  0
  -22.1460  -12.8700   22.1270 N   0  0  0  0  0  0  0  0  0  0  0  0
  -22.3710  -14.6300   20.7770 O   0  0  0  0  0  0  0  0  0  0  0  0
  -22.5360  -12.0330   22.5330 H   0  0  0  0  0  0  0  0  0  0  0  0
  -21.2180  -13.1590   22.3970 H   0  0  0  0  0  0  0  0  0  0  0  0
  -25.3930  -15.3160   20.3780 N   0  0  0  0  0  0  0  0  0  0  0  0
  -24.6250  -15.9560   20.5480 H   0  0  0  0  0  0  0  0  0  0  0  0
  -26.2230  -15.7760   20.0260 H   0  0  0  0  0  0  0  0  0  0  0  0
  -28.1460  -25.2220   20.2610 O   0  0  0  0  0  1  0  0  0  0  0  0
  -24.6730  -31.8650   23.1630 C   0  0  0  0  0  0  0  0  0  0  0  0
  -27.1940  -26.5480   20.2370 C   0  0  0  0  0  0  0  0  0  0  0  0
  -23.4980  -30.4530   21.5340 C   0  0  0  0  0  3  0  0  0  0  0  0
  -24.9500  -28.7450   20.1530 C   0  0  0  0  0  0  0  0  0  0  0  0
  -26.0890  -30.5200   21.4470 C   0  0  0  0  0  2  0  0  0  0  0  0
  -26.1520  -29.0570   20.8010 C   0  0  0  0  0  0  0  0  0  0  0  0
  -27.2450  -27.9960   20.7980 C   0  0  0  0  0  3  0  0  0  0  0  0
  -25.9520  -26.5150   19.5290 C   0  0  0  0  0  3  0  0  0  0  0  0
  -24.9060  -27.5040   19.4910 C   0  0  0  0  0  3  0  0  0  0  0  0
  -23.7560  -29.7280   20.1770 C   0  0  0  0  0  2  0  0  0  0  0  0
  -24.7800  -30.9860   22.1000 N   0  0  0  0  0  0  0  0  0  0  0  0
  -23.5740  -32.1780   23.6560 O   0  0  0  0  0  0  0  0  0  0  0  0
  -22.7560  -29.5030   22.5160 C   0  0  0  0  0  0  0  0  0  0  0  0
  -21.4230  -29.3530   22.3810 N   0  0  0  0  0  0  0  0  0  0  0  0
  -23.3970  -28.8950   23.3760 O   0  0  0  0  0  0  0  0  0  0  0  0
  -20.9500  -29.8930   21.6700 H   0  0  0  0  0  0  0  0  0  0  0  0
  -18.0320  -28.1220   22.8810 C   0  0  0  0  0  0  0  0  0  0  0  0
  -20.5890  -28.4230   23.1580 C   0  0  0  0  0  3  0  0  0  0  0  0
  -20.7080  -26.9820   22.6070 C   0  0  0  0  0  2  0  0  0  0  0  0
  -19.6190  -26.6360   21.5860 C   0  0  0  0  0  2  0  0  0  0  0  0
  -18.2300  -26.7700   22.2160 C   0  0  0  0  0  2  0  0  0  0  0  0
  -19.1400  -28.9050   23.3090 C   0  0  0  0  0  0  0  0  0  0  0  0
  -18.8960  -30.1640   23.8990 C   0  0  0  0  0  3  0  0  0  0  0  0
  -17.5830  -30.6430   24.0610 C   0  0  0  0  0  3  0  0  0  0  0  0
  -16.4920  -29.8600   23.6440 C   0  0  0  0  0  3  0  0  0  0  0  0
  -16.7170  -28.6010   23.0610 C   0  0  0  0  0  3  0  0  0  0  0  0
  -25.9230  -32.5320   23.8150 C   0  0  0  0  0  3  0  0  0  0  0  0
  -25.5850  -33.9300   24.1580 N   0  0  0  0  0  0  0  0  0  0  0  0
  -25.8830  -35.0080   23.4180 C   0  0  0  0  0  0  0  0  0  0  0  0
  -26.5230  -34.9310   22.3680 O   0  0  0  0  0  0  0  0  0  0  0  0
  -25.0080  -34.0620   24.9770 H   0  0  0  0  0  0  0  0  0  0  0  0
  -24.1120  -36.7890   23.1820 C   0  0  0  0  0  1  0  0  0  0  0  0
  -25.4010  -36.3890   23.9180 C   0  0  0  0  0  3  0  0  0  0  0  0
  -27.5580  -37.3150   24.6470 C   0  0  0  0  0  1  0  0  0  0  0  0
  -26.4090  -37.4630   23.7590 N   0  0  0  0  0  0  0  0  0  0  0  0
  -25.9930  -38.3740   23.9280 H   0  0  0  0  0  0  0  0  0  0  0  0
  -26.4170  -31.7780   25.1130 C   0  0  1  0  0  0  0  0  0  0  0  0
  -25.3050  -31.5510   26.1650 C   0  0  0  0  0  1  0  0  0  0  0  0
  -27.0130  -30.3970   24.7640 C   0  0  0  0  0  1  0  0  0  0  0  0
  -27.5530  -32.5850   25.7860 C   0  0  0  0  0  1  0  0  0  0  0  0
  2  3  2  0
  2  5  1  0
  3  6  1  0
  5  4  1  0
  6  4  2  0
  8 13  1  0
  9 10  1  0
  9  8  1  0
 11 10  1  0
 11 18  1  0
 11 12  1  0
 13  7  1  0
 13 12  1  0
 14  7  1  0
 15 16  2  0
 16 35  1  0
 17 16  1  0
 17 20  1  0
 18 19  1  0
 18 15  1  0
 19 17  2  0
 20 21  1  0
 21 22  2  0
 23 26  1  0
 23 22  1  0
 24 23  2  0
 25 24  1  0
 25 20  2  0
 26 27  1  0
 27 28  1  0
 28 29  2  0
 30 29  1  0
 30 34  1  0
 31 30  2  0
 32 27  2  0
 32 31  1  0
 33 32  1  0
 35 36  1  0
 36 39  1  0
 36 38  1  0
 37 35  2  0
 40 15  1  0
 40 41  1  0
 42 40  1  0
 44 55  2  0
 45 43  1  0
 45 50  1  0
 46 54  1  0
 46 56  1  0
 47 53  1  0
 47 49  1  0
 48 54  1  0
 49 48  1  0
 50 49  2  0
 51 45  2  0
 52 51  1  0
 52 47  2  0
 53 46  1  0
 54 44  1  0
 56 58  2  0
 57 56  1  0
 59 57  1  0
 60 69  2  0
 60 65  1  0
 61 57  1  0
 61 65  1  0
 62 61  1  0
 63 64  1  0
 63 62  1  0
 64 60  1  0
 65 66  2  0
 66 67  1  0
 68 67  2  0
 69 68  1  0
 70 44  1  0
 70 71  1  0
 70 80  1  0
 71 74  1  0
 72 76  1  0
 72 71  1  0
 73 72  2  0
 76 75  1  0
 78 76  1  0
 78 79  1  0
 78 77  1  0
 80 83  1  1
 80 81  1  0
 82 80  1  0
M  ISO  4   1 101   5 100   7 100  43 101
M  END
>  <TORSDO>  (46) 
F 17

>  <SCORE>  (46) 
-16.308

>  <name>  (46) 
45

>  <ligand_id>  (46) 
45

>  <original_smiles>  (46) 
[H]C1=C([H])C([H])(C([H])([H])Oc2c([H])c([H])c3c(c2[H])C([H])([H])N(C(=O)C([H])(N([H])C(=O)C([H])(N([H])C([H])([H])[H])C([H])([H])[H])C(C([H])([H])[H])(C([H])([H])[H])C([H])([H])[H])C([H])(C(=O)N([H])C2([H])c4c([H])c([H])c([H])c([H])c4C([H])([H])C([H])([H])C2([H])[H])C3([H])[H])C([H])([H])C1([H])C(=O)N1C([H])([H])C([H])([H])C([H])([H])C([H])(n2nc(-c3c([H])c([H])c(Oc4c([H])c([H])c(F)c([H])c4F)c([H])c3[H])c(C(=O)N([H])[H])c2N([H])[H])C1([H])[H]

>  <smiles>  (46) 
[H]C1=C([H])C([H])(C([H])([H])Oc2c([H])c([H])c3c(c2[H])C([H])([H])N(C(=O)C([H])(N([H])C(=O)C([H])(N([H])C([H])([H])[H])C([H])([H])[H])C(C([H])([H])[H])(C([H])([H])[H])C([H])([H])[H])C([H])(C(=O)N([H])C2([H])c4c([H])c([H])c([H])c([H])c4C([H])([H])C([H])([H])C2([H])[H])C3([H])[H])C([H])([H])C1([H])C(=O)N1C([H])([H])C([H])([H])C([H])([H])C([H])(n2nc(-c3c([H])c([H])c(Oc4c([H])c([H])c(F)c([H])c4F)c([H])c3[H])c(C(=O)N([H])[H])c2N([H])[H])C1([H])[H]

$$$$
46:0:0
     RDKit          3D

 93100  0  0  1  0  0  0  0  0999 V2000
  -27.3030  -21.3570   21.5760 C   0  0  0  0  0  1  0  0  0  0  0  0
  -28.7550  -21.7870   21.2840 C   0  0  0  0  0  3  0  0  0  0  0  0
  -28.8230  -22.9220   20.2910 N   0  0  0  0  0  4  0  0  0  0  0  0
  -29.8010  -23.0180   20.0560 H   0  0  0  0  0  0  0  0  0  0  0  0
  -28.3540  -22.6310   19.4500 H   0  0  0  0  0  0  0  0  0  0  0  0
  -28.3220  -24.2840   20.7190 C   0  0  0  0  0  2  0  0  0  0  0  0
  -28.6680  -25.4580   19.7230 C   0  0  0  0  0  2  0  0  0  0  0  0
  -28.5600  -26.8280   20.2300 O   0  0  0  0  0  0  0  0  0  0  0  0
  -24.5790  -31.9470   23.2630 C   0  0  0  0  0  0  0  0  0  0  0  0
  -27.3700  -27.5520   20.1790 C   0  0  0  0  0  0  0  0  0  0  0  0
  -23.4380  -30.5360   21.5850 C   0  0  0  0  0  3  0  0  0  0  0  0
  -24.9500  -29.0520   20.1610 C   0  0  0  0  0  0  0  0  0  0  0  0
  -25.9650  -30.9450   21.4380 C   0  0  0  0  0  2  0  0  0  0  0  0
  -26.0900  -29.5830   20.7750 C   0  0  0  0  0  0  0  0  0  0  0  0
  -27.2990  -28.8420   20.7750 C   0  0  0  0  0  3  0  0  0  0  0  0
  -26.2010  -27.0490   19.5640 C   0  0  0  0  0  3  0  0  0  0  0  0
  -25.0040  -27.7880   19.5500 C   0  0  0  0  0  3  0  0  0  0  0  0
  -23.6880  -29.8880   20.1970 C   0  0  0  0  0  2  0  0  0  0  0  0
  -24.6790  -31.1600   22.1530 N   0  0  0  0  0  0  0  0  0  0  0  0
  -23.4820  -32.1820   23.7890 O   0  0  0  0  0  0  0  0  0  0  0  0
  -22.7980  -29.4840   22.5210 C   0  0  0  0  0  0  0  0  0  0  0  0
  -21.4830  -29.2500   22.3560 N   0  0  0  0  0  0  0  0  0  0  0  0
  -23.4820  -28.8840   23.3550 O   0  0  0  0  0  0  0  0  0  0  0  0
  -20.9910  -29.7920   21.6610 H   0  0  0  0  0  0  0  0  0  0  0  0
  -18.1570  -27.8900   22.7310 C   0  0  0  0  0  0  0  0  0  0  0  0
  -20.6870  -28.2730   23.0990 C   0  0  0  0  0  3  0  0  0  0  0  0
  -20.8790  -26.8470   22.5320 C   0  0  0  0  0  2  0  0  0  0  0  0
  -19.8340  -26.4700   21.4760 C   0  0  0  0  0  2  0  0  0  0  0  0
  -18.4230  -26.5510   22.0640 C   0  0  0  0  0  2  0  0  0  0  0  0
  -19.2200  -28.7050   23.2030 C   0  0  0  0  0  0  0  0  0  0  0  0
  -18.9190  -29.9580   23.7820 C   0  0  0  0  0  3  0  0  0  0  0  0
  -17.5870  -30.3980   23.8940 C   0  0  0  0  0  3  0  0  0  0  0  0
  -16.5370  -29.5810   23.4390 C   0  0  0  0  0  3  0  0  0  0  0  0
  -16.8220  -28.3290   22.8670 C   0  0  0  0  0  3  0  0  0  0  0  0
  -25.8370  -32.6060   23.9100 C   0  0  0  0  0  3  0  0  0  0  0  0
  -25.4970  -34.0020   24.2150 N   0  0  0  0  0  0  0  0  0  0  0  0
  -25.8370  -35.0500   23.4540 C   0  0  0  0  0  0  0  0  0  0  0  0
  -26.5390  -34.9430   22.4450 O   0  0  0  0  0  0  0  0  0  0  0  0
  -24.8780  -34.1570   24.9970 H   0  0  0  0  0  0  0  0  0  0  0  0
  -24.1010  -36.8180   23.0140 C   0  0  0  0  0  1  0  0  0  0  0  0
  -25.3140  -36.4360   23.8770 C   0  0  0  0  0  3  0  0  0  0  0  0
  -27.4030  -37.3610   24.7830 C   0  0  0  0  0  1  0  0  0  0  0  0
  -26.3400  -37.5010   23.7930 N   0  0  0  0  0  0  0  0  0  0  0  0
  -25.9150  -38.4170   23.9090 H   0  0  0  0  0  0  0  0  0  0  0  0
  -26.3280  -31.8550   25.2080 C   0  0  1  0  0  0  0  0  0  0  0  0
  -25.2130  -31.6090   26.2500 C   0  0  0  0  0  1  0  0  0  0  0  0
  -26.9480  -30.4840   24.8520 C   0  0  0  0  0  1  0  0  0  0  0  0
  -27.4460  -32.6760   25.8950 C   0  0  0  0  0  1  0  0  0  0  0  0
  -29.7340  -20.5850   20.9190 C   0  0  0  0  0  2  0  0  0  0  0  0
  -29.1780  -19.2170   20.6700 N   0  0  0  0  0  0  0  0  0  0  0  0
  -29.2870  -18.6420   21.5000 H   0  0  0  0  0  0  0  0  0  0  0  0
  -29.7440  -18.5570   19.4700 C   0  0  0  0  0  3  0  0  0  0  0  0
  -30.1570  -16.0770   20.3710 C   0  0  0  0  0  3  0  0  0  0  0  0
  -30.4270  -17.1500   19.5480 C   0  0  0  0  0  0  0  0  0  0  0  0
  -31.5070  -17.0920   18.4600 C   0  0  0  0  0  1  0  0  0  0  0  0
  -30.9280  -14.8010   20.2920 C   0  0  0  0  0  0  0  0  0  0  0  0
  -30.6270  -12.5810   19.2530 C   0  0  0  0  0  2  0  0  0  0  0  0
  -29.7160  -12.7650   18.0180 C   0  0  0  0  0  2  0  0  0  0  0  0
  -28.2390  -12.6110   18.4300 C   0  0  0  0  0  2  0  0  0  0  0  0
  -27.8790  -13.4750   19.6700 C   0  0  0  0  0  3  0  0  0  0  0  0
  -28.9220  -13.3300   20.7980 C   0  0  0  0  0  2  0  0  0  0  0  0
  -30.2430  -13.6170   20.2350 N   0  0  0  0  0  0  0  0  0  0  0  0
  -32.1410  -14.8020   20.0850 O   0  0  0  0  0  0  0  0  0  0  0  0
  -25.4780  -14.0790   20.3630 C   0  0  0  0  0  0  0  0  0  0  0  0
  -24.4060  -13.3040   20.7260 C   0  0  0  0  0  0  0  0  0  0  0  0
  -24.8710  -11.9540   20.7100 C   0  0  0  0  0  0  0  0  0  0  0  0
  -26.5240  -13.1960   20.1450 N   0  0  0  0  0  0  0  0  0  0  0  0
  -26.1640  -11.9140   20.4140 N   0  0  0  0  0  0  0  0  0  0  0  0
  -24.1390  -10.6940   20.8960 C   0  0  0  0  0  0  0  0  0  0  0  0
  -24.5450   -9.7420   21.8580 C   0  0  0  0  0  3  0  0  0  0  0  0
  -23.8130   -8.5460   22.0300 C   0  0  0  0  0  3  0  0  0  0  0  0
  -22.6700   -8.2920   21.2370 C   0  0  0  0  0  0  0  0  0  0  0  0
  -22.2870   -9.2300   20.2630 C   0  0  0  0  0  3  0  0  0  0  0  0
  -23.0180  -10.4170   20.0870 C   0  0  0  0  0  3  0  0  0  0  0  0
  -21.9150   -7.1460   21.3150 O   0  0  0  0  0  0  0  0  0  0  0  0
  -21.8040   -6.4340   22.4820 C   0  0  0  0  0  0  0  0  0  0  0  0
  -21.2850   -7.0120   23.6630 C   0  0  0  0  0  3  0  0  0  0  0  0
  -21.1240   -6.2250   24.8200 C   0  0  0  0  0  3  0  0  0  0  0  0
  -21.4730   -4.8600   24.8010 C   0  0  0  0  0  0  0  0  0  0  0  0
  -21.9910   -4.2830   23.6280 C   0  0  0  0  0  3  0  0  0  0  0  0
  -22.1530   -5.0680   22.4710 C   0  0  0  0  0  0  0  0  0  0  0  0
  -22.6280   -4.4980   21.3380 F   0  0  0  0  0  0  0  0  0  0  0  0
  -21.3140   -4.1050   25.9130 F   0  0  0  0  0  0  0  0  0  0  0  0
  -23.0060  -13.7830   20.9800 C   0  0  0  0  0  0  0  0  0  0  0  0
  -22.2720  -13.0900   21.8440 N   0  0  0  0  0  0  0  0  0  0  0  0
  -22.5750  -14.8030   20.4470 O   0  0  0  0  0  0  0  0  0  0  0  0
  -22.6310  -12.2600   22.2900 H   0  0  0  0  0  0  0  0  0  0  0  0
  -21.3330  -13.3970   22.0640 H   0  0  0  0  0  0  0  0  0  0  0  0
  -25.6450  -15.4480   20.1870 N   0  0  0  0  0  0  0  0  0  0  0  0
  -24.8710  -16.0970   20.2710 H   0  0  0  0  0  0  0  0  0  0  0  0
  -26.4970  -15.8920   19.8630 H   0  0  0  0  0  0  0  0  0  0  0  0
  -27.6240  -19.6170   18.2810 C   0  0  0  0  0  1  0  0  0  0  0  0
  -28.7240  -18.5410   18.2940 C   0  0  0  0  0  2  0  0  0  0  0  0
  2  1  1  0
  3  6  1  0
  3  2  1  0
  4  3  1  0
  5  3  1  0
  7  8  1  0
  7  6  1  0
  9 20  2  0
 10  8  1  0
 10 15  1  0
 11 19  1  0
 11 21  1  0
 12 18  1  0
 12 14  1  0
 13 19  1  0
 14 13  1  0
 15 14  2  0
 16 10  2  0
 17 16  1  0
 17 12  2  0
 18 11  1  0
 19  9  1  0
 21 23  2  0
 22 21  1  0
 24 22  1  0
 25 34  2  0
 25 30  1  0
 26 22  1  0
 26 30  1  0
 27 26  1  0
 28 29  1  0
 28 27  1  0
 29 25  1  0
 30 31  2  0
 31 32  1  0
 33 32  2  0
 34 33  1  0
 35  9  1  0
 35 36  1  0
 35 45  1  0
 36 39  1  0
 37 41  1  0
 37 36  1  0
 38 37  2  0
 41 40  1  0
 43 41  1  0
 43 44  1  0
 43 42  1  0
 45 48  1  1
 45 46  1  0
 47 45  1  0
 49  2  1  0
 50 49  1  0
 50 51  1  0
 52 93  1  0
 52 54  1  0
 52 50  1  0
 54 53  2  0
 55 54  1  0
 56 53  1  0
 57 62  1  0
 58 59  1  0
 58 57  1  0
 60 59  1  0
 60 67  1  0
 60 61  1  0
 62 56  1  0
 62 61  1  0
 63 56  2  0
 64 65  2  0
 65 84  1  0
 66 65  1  0
 66 69  1  0
 67 64  1  0
 67 68  1  0
 68 66  2  0
 69 70  1  0
 70 71  2  0
 72 75  1  0
 72 71  1  0
 73 72  2  0
 74 73  1  0
 74 69  2  0
 75 76  1  0
 76 77  1  0
 77 78  2  0
 79 78  1  0
 79 83  1  0
 80 79  2  0
 81 76  2  0
 81 80  1  0
 82 81  1  0
 84 85  1  0
 85 88  1  0
 85 87  1  0
 86 84  2  0
 89 90  1  0
 89 64  1  0
 91 89  1  0
 92 93  1  0
M  ISO  4   7 101   8 101  53 100  56 100
M  END
>  <TORSDO>  (47) 
F 24

>  <SCORE>  (47) 
-11.677

>  <name>  (47) 
46

>  <ligand_id>  (47) 
46

>  <original_smiles>  (47) 
[H]C(C(=O)N1C([H])([H])C([H])([H])C([H])([H])C([H])(n2nc(-c3c([H])c([H])c(Oc4c([H])c([H])c(F)c([H])c4F)c([H])c3[H])c(C(=O)N([H])[H])c2N([H])[H])C1([H])[H])=C(C([H])([H])[H])C([H])(N([H])C([H])([H])C([H])(C([H])([H])[H])[N+]([H])([H])C([H])([H])C([H])([H])Oc1c([H])c([H])c2c(c1[H])C([H])([H])N(C(=O)C([H])(N([H])C(=O)C([H])(N([H])C([H])([H])[H])C([H])([H])[H])C(C([H])([H])[H])(C([H])([H])[H])C([H])([H])[H])C([H])(C(=O)N([H])C1([H])c3c([H])c([H])c([H])c([H])c3C([H])([H])C([H])([H])C1([H])[H])C2([H])[H])C([H])([H])C([H])([H])[H]

>  <smiles>  (47) 
[H]C(C(=O)N1C([H])([H])C([H])([H])C([H])([H])C([H])(n2nc(-c3c([H])c([H])c(Oc4c([H])c([H])c(F)c([H])c4F)c([H])c3[H])c(C(=O)N([H])[H])c2N([H])[H])C1([H])[H])=C(C([H])([H])[H])C([H])(N([H])C([H])([H])C([H])(C([H])([H])[H])[N+]([H])([H])C([H])([H])C([H])([H])Oc1c([H])c([H])c2c(c1[H])C([H])([H])N(C(=O)C([H])(N([H])C(=O)C([H])(N([H])C([H])([H])[H])C([H])([H])[H])C(C([H])([H])[H])(C([H])([H])[H])C([H])([H])[H])C([H])(C(=O)N([H])C1([H])c3c([H])c([H])c([H])c([H])c3C([H])([H])C([H])([H])C1([H])[H])C2([H])[H])C([H])([H])C([H])([H])[H]

$$$$
47:0:0
     RDKit          3D

 84 92  0  0  1  0  0  0  0  0999 V2000
  -27.4010  -23.4120   20.7810 C   0  0  0  0  0  2  0  0  0  0  0  0
  -28.7720  -22.8220   20.4680 C   0  0  0  0  0  3  0  0  0  0  0  0
  -28.1480  -24.3560   19.8550 C   0  0  0  0  0  3  0  0  0  0  0  0
  -28.2140  -25.9310   20.2980 O   0  0  0  0  0  0  0  0  0  0  0  0
  -24.6330  -31.8610   23.2000 C   0  0  0  0  0  0  0  0  0  0  0  0
  -27.1900  -26.9990   20.1920 C   0  0  0  0  0  0  0  0  0  0  0  0
  -23.4360  -30.4580   21.5680 C   0  0  0  0  0  3  0  0  0  0  0  0
  -24.8820  -28.8510   20.1440 C   0  0  0  0  0  0  0  0  0  0  0  0
  -25.9980  -30.6770   21.4140 C   0  0  0  0  0  2  0  0  0  0  0  0
  -26.0670  -29.2670   20.7630 C   0  0  0  0  0  0  0  0  0  0  0  0
  -27.2120  -28.3590   20.7680 C   0  0  0  0  0  3  0  0  0  0  0  0
  -25.9800  -26.7260   19.5180 C   0  0  0  0  0  3  0  0  0  0  0  0
  -24.8620  -27.6020   19.5010 C   0  0  0  0  0  3  0  0  0  0  0  0
  -23.6600  -29.7660   20.1940 C   0  0  0  0  0  2  0  0  0  0  0  0
  -24.7100  -31.0250   22.1140 N   0  0  0  0  0  0  0  0  0  0  0  0
  -23.5460  -32.1530   23.7230 O   0  0  0  0  0  0  0  0  0  0  0  0
  -22.7460  -29.4650   22.5410 C   0  0  0  0  0  0  0  0  0  0  0  0
  -21.4150  -29.3040   22.4230 N   0  0  0  0  0  0  0  0  0  0  0  0
  -23.4150  -28.8410   23.3680 O   0  0  0  0  0  0  0  0  0  0  0  0
  -20.9290  -29.8610   21.7350 H   0  0  0  0  0  0  0  0  0  0  0  0
  -18.0350  -28.0940   22.9370 C   0  0  0  0  0  0  0  0  0  0  0  0
  -20.5940  -28.3700   23.2000 C   0  0  0  0  0  3  0  0  0  0  0  0
  -20.7000  -26.9340   22.6340 C   0  0  0  0  0  2  0  0  0  0  0  0
  -19.5990  -26.6000   21.6230 C   0  0  0  0  0  2  0  0  0  0  0  0
  -18.2160  -26.7430   22.2650 C   0  0  0  0  0  2  0  0  0  0  0  0
  -19.1510  -28.8640   23.3620 C   0  0  0  0  0  0  0  0  0  0  0  0
  -18.9250  -30.1260   23.9540 C   0  0  0  0  0  3  0  0  0  0  0  0
  -17.6170  -30.6190   24.1230 C   0  0  0  0  0  3  0  0  0  0  0  0
  -16.5160  -29.8470   23.7100 C   0  0  0  0  0  3  0  0  0  0  0  0
  -16.7260  -28.5870   23.1250 C   0  0  0  0  0  3  0  0  0  0  0  0
  -25.9060  -32.5050   23.8270 C   0  0  0  0  0  3  0  0  0  0  0  0
  -26.4250  -31.7350   25.1040 C   0  0  1  0  0  0  0  0  0  0  0  0
  -25.3340  -31.4990   26.1750 C   0  0  0  0  0  1  0  0  0  0  0  0
  -27.0070  -30.3560   24.7210 C   0  0  0  0  0  1  0  0  0  0  0  0
  -27.5780  -32.5290   25.7640 C   0  0  0  0  0  1  0  0  0  0  0  0
  -25.5860  -33.9010   24.1740 N   0  0  0  0  0  0  0  0  0  0  0  0
  -25.9100  -34.9700   23.4350 C   0  0  0  0  0  0  0  0  0  0  0  0
  -26.5720  -34.8850   22.3970 O   0  0  0  0  0  0  0  0  0  0  0  0
  -24.9930  -34.0390   24.9800 H   0  0  0  0  0  0  0  0  0  0  0  0
  -24.1690  -36.7660   23.1330 C   0  0  0  0  0  1  0  0  0  0  0  0
  -25.4230  -36.3520   23.9190 C   0  0  0  0  0  3  0  0  0  0  0  0
  -27.5660  -37.2380   24.7290 C   0  0  0  0  0  1  0  0  0  0  0  0
  -26.4490  -37.4120   23.8050 N   0  0  0  0  0  0  0  0  0  0  0  0
  -26.0410  -38.3290   23.9710 H   0  0  0  0  0  0  0  0  0  0  0  0
  -29.0240  -21.1730   19.8690 C   0  0  0  0  0  2  0  0  0  0  0  0
  -29.1760  -19.5880   20.6820 C   0  0  0  0  0  2  0  0  0  0  0  0
  -29.6280  -16.6370   20.5280 C   0  0  0  0  0  3  0  0  0  0  0  0
  -29.8760  -18.0570   20.2430 C   0  0  0  0  0  3  0  0  0  0  0  0
  -30.4290  -15.2590   20.2360 C   0  0  0  0  0  0  0  0  0  0  0  0
  -30.3790  -12.8140   19.3860 C   0  0  0  0  0  2  0  0  0  0  0  0
  -29.4570  -12.6590   18.1510 C   0  0  0  0  0  2  0  0  0  0  0  0
  -28.0020  -12.4080   18.5850 C   0  0  0  0  0  2  0  0  0  0  0  0
  -27.5700  -13.3540   19.7330 C   0  0  0  0  0  3  0  0  0  0  0  0
  -28.6230  -13.4710   20.8540 C   0  0  0  0  0  2  0  0  0  0  0  0
  -29.8690  -13.9510   20.2370 N   0  0  0  0  0  0  0  0  0  0  0  0
  -31.6270  -15.2500   19.9160 O   0  0  0  0  0  0  0  0  0  0  0  0
  -25.2040  -13.9120   20.5000 C   0  0  0  0  0  0  0  0  0  0  0  0
  -24.1440  -13.1340   20.8780 C   0  0  0  0  0  0  0  0  0  0  0  0
  -24.6110  -11.7840   20.8450 C   0  0  0  0  0  0  0  0  0  0  0  0
  -26.2450  -13.0370   20.2490 N   0  0  0  0  0  0  0  0  0  0  0  0
  -25.9010  -11.7510   20.5240 N   0  0  0  0  0  0  0  0  0  0  0  0
  -23.8840  -10.5220   21.0410 C   0  0  0  0  0  0  0  0  0  0  0  0
  -24.3290   -9.5470   21.9610 C   0  0  0  0  0  3  0  0  0  0  0  0
  -23.5990   -8.3520   22.1460 C   0  0  0  0  0  3  0  0  0  0  0  0
  -22.4110   -8.1260   21.4130 C   0  0  0  0  0  0  0  0  0  0  0  0
  -21.9850   -9.0890   20.4820 C   0  0  0  0  0  3  0  0  0  0  0  0
  -22.7150  -10.2740   20.2950 C   0  0  0  0  0  3  0  0  0  0  0  0
  -21.6520   -6.9840   21.5100 O   0  0  0  0  0  0  0  0  0  0  0  0
  -21.6330   -6.2260   22.6520 C   0  0  0  0  0  0  0  0  0  0  0  0
  -21.2620   -6.7700   23.9020 C   0  0  0  0  0  3  0  0  0  0  0  0
  -21.1880   -5.9380   25.0380 C   0  0  0  0  0  3  0  0  0  0  0  0
  -21.4750   -4.5650   24.9260 C   0  0  0  0  0  0  0  0  0  0  0  0
  -21.8400   -4.0200   23.6820 C   0  0  0  0  0  3  0  0  0  0  0  0
  -21.9140   -4.8480   22.5480 C   0  0  0  0  0  0  0  0  0  0  0  0
  -22.2450   -4.3140   21.3470 F   0  0  0  0  0  0  0  0  0  0  0  0
  -21.3970   -3.7660   26.0150 F   0  0  0  0  0  0  0  0  0  0  0  0
  -22.7490  -13.6130   21.1530 C   0  0  0  0  0  0  0  0  0  0  0  0
  -22.0250  -12.9230   22.0280 N   0  0  0  0  0  0  0  0  0  0  0  0
  -22.3090  -14.6350   20.6280 O   0  0  0  0  0  0  0  0  0  0  0  0
  -22.3930  -12.0970   22.4750 H   0  0  0  0  0  0  0  0  0  0  0  0
  -21.0900  -13.2280   22.2560 H   0  0  0  0  0  0  0  0  0  0  0  0
  -25.3640  -15.2830   20.3190 N   0  0  0  0  0  0  0  0  0  0  0  0
  -24.5950  -15.9360   20.4300 H   0  0  0  0  0  0  0  0  0  0  0  0
  -26.2100  -15.7230   19.9790 H   0  0  0  0  0  0  0  0  0  0  0  0
  2 45  1  0
  2  1  1  0
  3  4  1  0
  3  2  1  0
  3  1  1  0
  5 16  2  0
  6  4  1  0
  6 11  1  0
  7 15  1  0
  7 17  1  0
  8 14  1  0
  8 10  1  0
  9 15  1  0
 10 11  2  0
 10  9  1  0
 12  6  2  0
 13 12  1  0
 13  8  2  0
 14  7  1  0
 15  5  1  0
 17 19  2  0
 18 17  1  0
 20 18  1  0
 21 30  2  0
 21 26  1  0
 22 18  1  0
 22 26  1  0
 23 22  1  0
 24 25  1  0
 24 23  1  0
 25 21  1  0
 26 27  2  0
 27 28  1  0
 29 28  2  0
 30 29  1  0
 31  5  1  0
 31 36  1  0
 31 32  1  0
 32 35  1  1
 32 33  1  0
 34 32  1  0
 36 39  1  0
 37 41  1  0
 37 36  1  0
 38 37  2  0
 41 40  1  0
 43 41  1  0
 43 44  1  0
 43 42  1  0
 45 46  1  0
 48 47  2  0
 48 46  1  0
 49 55  1  0
 49 47  1  0
 50 55  1  0
 51 52  1  0
 51 50  1  0
 53 52  1  0
 53 60  1  0
 53 54  1  0
 55 54  1  0
 56 49  2  0
 57 58  2  0
 58 77  1  0
 59 58  1  0
 59 62  1  0
 60 57  1  0
 60 61  1  0
 61 59  2  0
 62 63  1  0
 63 64  2  0
 65 68  1  0
 65 64  1  0
 66 65  2  0
 67 66  1  0
 67 62  2  0
 68 69  1  0
 69 70  1  0
 70 71  2  0
 72 71  1  0
 72 76  1  0
 73 72  2  0
 74 69  2  0
 74 73  1  0
 75 74  1  0
 77 78  1  0
 78 81  1  0
 78 80  1  0
 79 77  2  0
 82 83  1  0
 82 57  1  0
 84 82  1  0
M  ISO  4   3 101   4 101  47 100  49 100
M  END
>  <TORSDO>  (48) 
F 19

>  <SCORE>  (48) 
-15.160

>  <name>  (48) 
47

>  <ligand_id>  (48) 
47

>  <original_smiles>  (48) 
[H]C(C(=O)N1C([H])([H])C([H])([H])C([H])([H])C([H])(n2nc(-c3c([H])c([H])c(Oc4c([H])c([H])c(F)c([H])c4F)c([H])c3[H])c(C(=O)N([H])[H])c2N([H])[H])C1([H])[H])=C([H])C([H])([H])C([H])([H])C1([H])C([H])([H])C1([H])Oc1c([H])c([H])c2c(c1[H])C([H])([H])N(C(=O)C([H])(N([H])C(=O)C([H])(N([H])C([H])([H])[H])C([H])([H])[H])C(C([H])([H])[H])(C([H])([H])[H])C([H])([H])[H])C([H])(C(=O)N([H])C1([H])c3c([H])c([H])c([H])c([H])c3C([H])([H])C([H])([H])C1([H])[H])C2([H])[H]

>  <smiles>  (48) 
[H]C(C(=O)N1C([H])([H])C([H])([H])C([H])([H])C([H])(n2nc(-c3c([H])c([H])c(Oc4c([H])c([H])c(F)c([H])c4F)c([H])c3[H])c(C(=O)N([H])[H])c2N([H])[H])C1([H])[H])=C([H])C([H])([H])C([H])([H])C1([H])C([H])([H])C1([H])Oc1c([H])c([H])c2c(c1[H])C([H])([H])N(C(=O)C([H])(N([H])C(=O)C([H])(N([H])C([H])([H])[H])C([H])([H])[H])C(C([H])([H])[H])(C([H])([H])[H])C([H])([H])[H])C([H])(C(=O)N([H])C1([H])c3c([H])c([H])c([H])c([H])c3C([H])([H])C([H])([H])C1([H])[H])C2([H])[H]

$$$$
48:0:0
     RDKit          3D

 84 91  0  0  1  0  0  0  0  0999 V2000
  -28.7540  -22.2660   20.5200 C   0  0  0  0  0  0  0  0  0  0  0  0
  -29.4720  -21.2540   22.5420 C   0  0  0  0  0  1  0  0  0  0  0  0
  -28.9460  -22.3710   21.7790 N   0  0  0  0  0  0  0  0  0  0  0  0
  -29.1720  -20.6590   19.8120 C   0  0  0  0  0  0  0  0  0  0  0  0
  -29.4720  -19.1310   19.8100 C   0  0  0  0  0  0  0  0  0  0  0  0
  -29.6510  -17.4430   20.5430 C   0  0  0  0  0  2  0  0  0  0  0  0
  -30.3890  -15.7540   20.1950 C   0  0  0  0  0  0  0  0  0  0  0  0
  -30.4810  -13.2080   19.3780 C   0  0  0  0  0  2  0  0  0  0  0  0
  -29.5820  -12.8550   18.1570 C   0  0  0  0  0  2  0  0  0  0  0  0
  -28.1500  -12.5150   18.5990 C   0  0  0  0  0  2  0  0  0  0  0  0
  -27.6560  -13.4930   19.6910 C   0  0  0  0  0  3  0  0  0  0  0  0
  -28.6940  -13.7760   20.8030 C   0  0  0  0  0  2  0  0  0  0  0  0
  -29.8880  -14.3790   20.1710 N   0  0  0  0  0  0  0  0  0  0  0  0
  -31.5980  -15.6920   19.9010 O   0  0  0  0  0  0  0  0  0  0  0  0
  -25.2960  -14.0050   20.4770 C   0  0  0  0  0  0  0  0  0  0  0  0
  -24.2440  -13.2190   20.8510 C   0  0  0  0  0  0  0  0  0  0  0  0
  -24.7210  -11.8710   20.8130 C   0  0  0  0  0  0  0  0  0  0  0  0
  -26.3440  -13.1420   20.2180 N   0  0  0  0  0  0  0  0  0  0  0  0
  -26.0130  -11.8510   20.4900 N   0  0  0  0  0  0  0  0  0  0  0  0
  -24.0020  -10.6040   21.0060 C   0  0  0  0  0  0  0  0  0  0  0  0
  -24.4350   -9.6420   21.9460 C   0  0  0  0  0  3  0  0  0  0  0  0
  -23.7110   -8.4430   22.1280 C   0  0  0  0  0  3  0  0  0  0  0  0
  -22.5400   -8.1980   21.3720 C   0  0  0  0  0  0  0  0  0  0  0  0
  -22.1280   -9.1470   20.4210 C   0  0  0  0  0  3  0  0  0  0  0  0
  -22.8510  -10.3380   20.2360 C   0  0  0  0  0  3  0  0  0  0  0  0
  -21.7890   -7.0500   21.4640 O   0  0  0  0  0  0  0  0  0  0  0  0
  -21.7310   -6.3180   22.6230 C   0  0  0  0  0  0  0  0  0  0  0  0
  -21.2720   -6.8770   23.8350 C   0  0  0  0  0  3  0  0  0  0  0  0
  -21.1630   -6.0710   24.9860 C   0  0  0  0  0  3  0  0  0  0  0  0
  -21.4990   -4.7050   24.9250 C   0  0  0  0  0  0  0  0  0  0  0  0
  -21.9480   -4.1450   23.7170 C   0  0  0  0  0  3  0  0  0  0  0  0
  -22.0620   -4.9490   22.5690 C   0  0  0  0  0  0  0  0  0  0  0  0
  -22.4750   -4.3980   21.4030 F   0  0  0  0  0  0  0  0  0  0  0  0
  -21.3890   -3.9290   26.0280 F   0  0  0  0  0  0  0  0  0  0  0  0
  -22.8450  -13.6860   21.1250 C   0  0  0  0  0  0  0  0  0  0  0  0
  -22.1210  -12.9880   21.9920 N   0  0  0  0  0  0  0  0  0  0  0  0
  -22.4040  -14.7120   20.6070 O   0  0  0  0  0  0  0  0  0  0  0  0
  -22.4920  -12.1610   22.4350 H   0  0  0  0  0  0  0  0  0  0  0  0
  -21.1810  -13.2840   22.2150 H   0  0  0  0  0  0  0  0  0  0  0  0
  -25.4480  -15.3760   20.2990 N   0  0  0  0  0  0  0  0  0  0  0  0
  -24.6800  -16.0310   20.4050 H   0  0  0  0  0  0  0  0  0  0  0  0
  -26.2970  -15.8150   19.9650 H   0  0  0  0  0  0  0  0  0  0  0  0
  -28.0540  -23.9250   19.8740 C   0  0  0  0  0  2  0  0  0  0  0  0
  -28.1320  -25.6280   20.2820 O   0  0  0  0  0  0  0  0  0  0  0  0
  -24.5900  -31.8950   23.1210 C   0  0  0  0  0  0  0  0  0  0  0  0
  -27.1570  -26.8290   20.1640 C   0  0  0  0  0  0  0  0  0  0  0  0
  -23.4060  -30.4680   21.5070 C   0  0  0  0  0  3  0  0  0  0  0  0
  -24.8640  -28.8250   20.0960 C   0  0  0  0  0  0  0  0  0  0  0  0
  -25.9810  -30.6380   21.3710 C   0  0  0  0  0  2  0  0  0  0  0  0
  -26.0560  -29.2020   20.7260 C   0  0  0  0  0  0  0  0  0  0  0  0
  -27.1840  -28.2300   20.7320 C   0  0  0  0  0  3  0  0  0  0  0  0
  -25.9360  -26.6580   19.4670 C   0  0  0  0  0  3  0  0  0  0  0  0
  -24.8420  -27.5780   19.4420 C   0  0  0  0  0  3  0  0  0  0  0  0
  -23.6460  -29.7610   20.1410 C   0  0  0  0  0  2  0  0  0  0  0  0
  -24.6820  -31.0330   22.0520 N   0  0  0  0  0  0  0  0  0  0  0  0
  -23.4970  -32.1920   23.6340 O   0  0  0  0  0  0  0  0  0  0  0  0
  -22.7070  -29.4930   22.4920 C   0  0  0  0  0  0  0  0  0  0  0  0
  -21.3750  -29.3280   22.3810 N   0  0  0  0  0  0  0  0  0  0  0  0
  -23.3750  -28.8840   23.3310 O   0  0  0  0  0  0  0  0  0  0  0  0
  -20.8850  -29.8770   21.6880 H   0  0  0  0  0  0  0  0  0  0  0  0
  -17.9990  -28.0980   22.9310 C   0  0  0  0  0  0  0  0  0  0  0  0
  -20.5590  -28.3930   23.1670 C   0  0  0  0  0  3  0  0  0  0  0  0
  -20.6670  -26.9550   22.6090 C   0  0  0  0  0  2  0  0  0  0  0  0
  -19.5600  -26.6120   21.6060 C   0  0  0  0  0  2  0  0  0  0  0  0
  -18.1820  -26.7470   22.2600 C   0  0  0  0  0  2  0  0  0  0  0  0
  -19.1130  -28.8780   23.3410 C   0  0  0  0  0  0  0  0  0  0  0  0
  -18.8840  -30.1390   23.9330 C   0  0  0  0  0  3  0  0  0  0  0  0
  -17.5740  -30.6230   24.1140 C   0  0  0  0  0  3  0  0  0  0  0  0
  -16.4740  -29.8420   23.7160 C   0  0  0  0  0  3  0  0  0  0  0  0
  -16.6880  -28.5810   23.1310 C   0  0  0  0  0  3  0  0  0  0  0  0
  -25.8520  -32.5620   23.7470 C   0  0  0  0  0  3  0  0  0  0  0  0
  -26.3710  -31.8160   25.0410 C   0  0  1  0  0  0  0  0  0  0  0  0
  -25.2770  -31.5860   26.1100 C   0  0  0  0  0  1  0  0  0  0  0  0
  -26.9680  -30.4360   24.6860 C   0  0  0  0  0  1  0  0  0  0  0  0
  -27.5120  -32.6320   25.6940 C   0  0  0  0  0  1  0  0  0  0  0  0
  -25.5180  -33.9610   24.0790 N   0  0  0  0  0  0  0  0  0  0  0  0
  -25.8440  -35.0300   23.3410 C   0  0  0  0  0  0  0  0  0  0  0  0
  -26.5190  -34.9450   22.3120 O   0  0  0  0  0  0  0  0  0  0  0  0
  -24.9200  -34.1000   24.8810 H   0  0  0  0  0  0  0  0  0  0  0  0
  -24.1150  -36.8320   23.0010 C   0  0  0  0  0  1  0  0  0  0  0  0
  -25.3480  -36.4140   23.8170 C   0  0  0  0  0  3  0  0  0  0  0  0
  -27.4700  -37.3020   24.6840 C   0  0  0  0  0  1  0  0  0  0  0  0
  -26.3780  -37.4740   23.7290 N   0  0  0  0  0  0  0  0  0  0  0  0
  -25.9640  -38.3900   23.8840 H   0  0  0  0  0  0  0  0  0  0  0  0
  1  3  2  0
  3  2  1  0
  4  1  1  0
  5  4  3  0
  5  6  1  0
  7  6  1  0
  8 13  1  0
  9 10  1  0
  9  8  1  0
 11 10  1  0
 11 18  1  0
 11 12  1  0
 13  7  1  0
 13 12  1  0
 14  7  2  0
 15 16  2  0
 16 35  1  0
 17 16  1  0
 17 20  1  0
 18 15  1  0
 18 19  1  0
 19 17  2  0
 20 21  1  0
 21 22  2  0
 23 26  1  0
 23 22  1  0
 24 23  2  0
 25 24  1  0
 25 20  2  0
 26 27  1  0
 27 28  1  0
 28 29  2  0
 30 29  1  0
 30 34  1  0
 31 30  2  0
 32 27  2  0
 32 31  1  0
 33 32  1  0
 35 36  1  0
 36 39  1  0
 36 38  1  0
 37 35  2  0
 40 41  1  0
 40 15  1  0
 42 40  1  0
 43 44  1  0
 43  1  1  0
 45 56  2  0
 46 44  1  0
 46 51  1  0
 47 55  1  0
 47 57  1  0
 48 54  1  0
 48 50  1  0
 49 55  1  0
 50 51  2  0
 50 49  1  0
 52 46  2  0
 53 52  1  0
 53 48  2  0
 54 47  1  0
 55 45  1  0
 57 59  2  0
 58 57  1  0
 60 58  1  0
 61 70  2  0
 61 66  1  0
 62 58  1  0
 62 66  1  0
 63 62  1  0
 64 65  1  0
 64 63  1  0
 65 61  1  0
 66 67  2  0
 67 68  1  0
 69 68  2  0
 70 69  1  0
 71 45  1  0
 71 76  1  0
 71 72  1  0
 72 75  1  1
 72 73  1  0
 74 72  1  0
 76 79  1  0
 77 81  1  0
 77 76  1  0
 78 77  2  0
 81 80  1  0
 83 81  1  0
 83 84  1  0
 83 82  1  0
M  ISO  4   6 100   7 100  43 101  44 101
M  END
>  <TORSDO>  (49) 
F 19

>  <SCORE>  (49) 
-16.297

>  <name>  (49) 
48

>  <ligand_id>  (49) 
48

>  <original_smiles>  (49) 
[H]C(C(=NC([H])([H])[H])C([H])([H])Oc1c([H])c([H])c2c(c1[H])C([H])([H])N(C(=O)C([H])(N([H])C(=O)C([H])(N([H])C([H])([H])[H])C([H])([H])[H])C(C([H])([H])[H])(C([H])([H])[H])C([H])([H])[H])C([H])(C(=O)N([H])C1([H])c3c([H])c([H])c([H])c([H])c3C([H])([H])C([H])([H])C1([H])[H])C2([H])[H])=C([H])C([H])([H])C(=O)N1C([H])([H])C([H])([H])C([H])([H])C([H])(n2nc(-c3c([H])c([H])c(Oc4c([H])c([H])c(F)c([H])c4F)c([H])c3[H])c(C(=O)N([H])[H])c2N([H])[H])C1([H])[H]

>  <smiles>  (49) 
[H]C(C(=NC([H])([H])[H])C([H])([H])Oc1c([H])c([H])c2c(c1[H])C([H])([H])N(C(=O)C([H])(N([H])C(=O)C([H])(N([H])C([H])([H])[H])C([H])([H])[H])C(C([H])([H])[H])(C([H])([H])[H])C([H])([H])[H])C([H])(C(=O)N([H])C1([H])c3c([H])c([H])c([H])c([H])c3C([H])([H])C([H])([H])C1([H])[H])C2([H])[H])=C([H])C([H])([H])C(=O)N1C([H])([H])C([H])([H])C([H])([H])C([H])(n2nc(-c3c([H])c([H])c(Oc4c([H])c([H])c(F)c([H])c4F)c([H])c3[H])c(C(=O)N([H])[H])c2N([H])[H])C1([H])[H]

$$$$
49:0:0
     RDKit          3D

 84 92  0  0  1  0  0  0  0  0999 V2000
  -28.7320  -21.1740   19.1650 C   0  0  0  0  0  2  0  0  0  0  0  0
  -28.7720  -20.2590   20.3720 C   0  0  0  0  0  3  0  0  0  0  0  0
  -28.8970  -22.1750   20.3000 C   0  0  0  0  0  3  0  0  0  0  0  0
  -29.4590  -17.1360   20.4330 C   0  0  0  0  0  3  0  0  0  0  0  0
  -29.6800  -18.6550   20.3110 C   0  0  0  0  0  0  0  0  0  0  0  0
  -31.1210  -19.0470   20.0380 C   0  0  0  0  0  1  0  0  0  0  0  0
  -30.3080  -15.6490   20.3530 C   0  0  0  0  0  0  0  0  0  0  0  0
  -30.4310  -13.0930   19.6000 C   0  0  0  0  0  2  0  0  0  0  0  0
  -29.5720  -12.7050   18.3630 C   0  0  0  0  0  2  0  0  0  0  0  0
  -28.1350  -12.3570   18.7780 C   0  0  0  0  0  2  0  0  0  0  0  0
  -27.5970  -13.3610   19.8240 C   0  0  0  0  0  3  0  0  0  0  0  0
  -28.5970  -13.6800   20.9570 C   0  0  0  0  0  2  0  0  0  0  0  0
  -29.8020  -14.2780   20.3400 N   0  0  0  0  0  0  0  0  0  0  0  0
  -31.5390  -15.5740   20.1720 O   0  0  0  0  0  0  0  0  0  0  0  0
  -25.2170  -13.8700   20.5470 C   0  0  0  0  0  0  0  0  0  0  0  0
  -24.1610  -13.0800   20.9010 C   0  0  0  0  0  0  0  0  0  0  0  0
  -24.6470  -11.7360   20.8870 C   0  0  0  0  0  0  0  0  0  0  0  0
  -26.2750  -13.0110   20.3230 N   0  0  0  0  0  0  0  0  0  0  0  0
  -25.9460  -11.7190   20.5970 N   0  0  0  0  0  0  0  0  0  0  0  0
  -23.9310  -10.4660   21.0720 C   0  0  0  0  0  0  0  0  0  0  0  0
  -24.3600   -9.5020   22.0100 C   0  0  0  0  0  3  0  0  0  0  0  0
  -23.6390   -8.3010   22.1850 C   0  0  0  0  0  3  0  0  0  0  0  0
  -22.4740   -8.0540   21.4210 C   0  0  0  0  0  0  0  0  0  0  0  0
  -22.0630   -9.0070   20.4720 C   0  0  0  0  0  3  0  0  0  0  0  0
  -22.7850  -10.2000   20.2960 C   0  0  0  0  0  3  0  0  0  0  0  0
  -21.7250   -6.9060   21.5050 O   0  0  0  0  0  0  0  0  0  0  0  0
  -21.6790   -6.1580   22.6540 C   0  0  0  0  0  0  0  0  0  0  0  0
  -21.2490   -6.7060   23.8830 C   0  0  0  0  0  3  0  0  0  0  0  0
  -21.1510   -5.8850   25.0240 C   0  0  0  0  0  3  0  0  0  0  0  0
  -21.4720   -4.5170   24.9380 C   0  0  0  0  0  0  0  0  0  0  0  0
  -21.8940   -3.9680   23.7130 C   0  0  0  0  0  3  0  0  0  0  0  0
  -21.9930   -4.7870   22.5750 C   0  0  0  0  0  0  0  0  0  0  0  0
  -22.3810   -4.2480   21.3930 F   0  0  0  0  0  0  0  0  0  0  0  0
  -21.3710   -3.7260   26.0320 F   0  0  0  0  0  0  0  0  0  0  0  0
  -22.7520  -13.5420   21.1350 C   0  0  0  0  0  0  0  0  0  0  0  0
  -22.0180  -12.8530   21.9990 N   0  0  0  0  0  0  0  0  0  0  0  0
  -22.3150  -14.5530   20.5880 O   0  0  0  0  0  0  0  0  0  0  0  0
  -22.3860  -12.0350   22.4640 H   0  0  0  0  0  0  0  0  0  0  0  0
  -21.0710  -13.1450   22.1990 H   0  0  0  0  0  0  0  0  0  0  0  0
  -25.3640  -15.2430   20.3640 N   0  0  0  0  0  0  0  0  0  0  0  0
  -24.5870  -15.8870   20.4610 H   0  0  0  0  0  0  0  0  0  0  0  0
  -26.2100  -15.6900   20.0380 H   0  0  0  0  0  0  0  0  0  0  0  0
  -27.9510  -23.8320   20.1820 C   0  0  0  0  0  2  0  0  0  0  0  0
  -28.1450  -25.5720   20.2700 O   0  0  0  0  0  0  0  0  0  0  0  0
  -24.6300  -31.8470   23.1590 C   0  0  0  0  0  0  0  0  0  0  0  0
  -27.1640  -26.7700   20.2070 C   0  0  0  0  0  0  0  0  0  0  0  0
  -23.4430  -30.4370   21.5310 C   0  0  0  0  0  3  0  0  0  0  0  0
  -24.8920  -28.7840   20.1310 C   0  0  0  0  0  0  0  0  0  0  0  0
  -26.0210  -30.5880   21.4070 C   0  0  0  0  0  2  0  0  0  0  0  0
  -26.0860  -29.1530   20.7610 C   0  0  0  0  0  0  0  0  0  0  0  0
  -27.2080  -28.1730   20.7650 C   0  0  0  0  0  3  0  0  0  0  0  0
  -25.9350  -26.6040   19.5210 C   0  0  0  0  0  3  0  0  0  0  0  0
  -24.8540  -27.5350   19.4870 C   0  0  0  0  0  3  0  0  0  0  0  0
  -23.6830  -29.7310   20.1650 C   0  0  0  0  0  2  0  0  0  0  0  0
  -24.7220  -30.9900   22.0850 N   0  0  0  0  0  0  0  0  0  0  0  0
  -23.5380  -32.1490   23.6680 O   0  0  0  0  0  0  0  0  0  0  0  0
  -22.7290  -29.4660   22.5090 C   0  0  0  0  0  0  0  0  0  0  0  0
  -21.3940  -29.3220   22.3950 N   0  0  0  0  0  0  0  0  0  0  0  0
  -23.3870  -28.8370   23.3420 O   0  0  0  0  0  0  0  0  0  0  0  0
  -20.9140  -29.8790   21.7020 H   0  0  0  0  0  0  0  0  0  0  0  0
  -18.0010  -28.1430   22.9390 C   0  0  0  0  0  0  0  0  0  0  0  0
  -20.5650  -28.3940   23.1750 C   0  0  0  0  0  3  0  0  0  0  0  0
  -20.6490  -26.9590   22.6040 C   0  0  0  0  0  2  0  0  0  0  0  0
  -19.5360  -26.6440   21.5990 C   0  0  0  0  0  2  0  0  0  0  0  0
  -18.1620  -26.7950   22.2560 C   0  0  0  0  0  2  0  0  0  0  0  0
  -19.1280  -28.9000   23.3560 C   0  0  0  0  0  0  0  0  0  0  0  0
  -18.9190  -30.1590   23.9610 C   0  0  0  0  0  3  0  0  0  0  0  0
  -17.6170  -30.6610   24.1480 C   0  0  0  0  0  3  0  0  0  0  0  0
  -16.5050  -29.9030   23.7430 C   0  0  0  0  0  3  0  0  0  0  0  0
  -16.6980  -28.6450   23.1450 C   0  0  0  0  0  3  0  0  0  0  0  0
  -25.8940  -32.5010   23.7960 C   0  0  0  0  0  3  0  0  0  0  0  0
  -25.5630  -33.8970   24.1460 N   0  0  0  0  0  0  0  0  0  0  0  0
  -25.8760  -34.9720   23.4110 C   0  0  0  0  0  0  0  0  0  0  0  0
  -26.5320  -34.8950   22.3690 O   0  0  0  0  0  0  0  0  0  0  0  0
  -24.9750  -34.0280   24.9550 H   0  0  0  0  0  0  0  0  0  0  0  0
  -24.1240  -36.7640   23.1350 C   0  0  0  0  0  1  0  0  0  0  0  0
  -25.3900  -36.3510   23.9050 C   0  0  0  0  0  3  0  0  0  0  0  0
  -27.5350  -37.2500   24.6970 C   0  0  0  0  0  1  0  0  0  0  0  0
  -26.4080  -37.4180   23.7820 N   0  0  0  0  0  0  0  0  0  0  0  0
  -25.9970  -38.3310   23.9520 H   0  0  0  0  0  0  0  0  0  0  0  0
  -26.4050  -31.7360   25.0790 C   0  0  1  0  0  0  0  0  0  0  0  0
  -25.3080  -31.5010   26.1450 C   0  0  0  0  0  1  0  0  0  0  0  0
  -26.9930  -30.3570   24.7070 C   0  0  0  0  0  1  0  0  0  0  0  0
  -27.5510  -32.5350   25.7440 C   0  0  0  0  0  1  0  0  0  0  0  0
  1  3  1  0
  1  2  1  0
  2  5  1  0
  3 43  1  0
  3  2  1  0
  5  4  2  0
  6  5  1  0
  7  4  1  0
  8 13  1  0
  9 10  1  0
  9  8  1  0
 11 10  1  0
 11 18  1  0
 11 12  1  0
 13  7  1  0
 13 12  1  0
 14  7  2  0
 15 16  2  0
 16 35  1  0
 17 16  1  0
 17 20  1  0
 18 15  1  0
 18 19  1  0
 19 17  2  0
 20 21  1  0
 21 22  2  0
 23 26  1  0
 23 22  1  0
 24 23  2  0
 25 24  1  0
 25 20  2  0
 26 27  1  0
 27 28  1  0
 28 29  2  0
 30 29  1  0
 30 34  1  0
 31 30  2  0
 32 27  2  0
 32 31  1  0
 33 32  1  0
 35 36  1  0
 36 39  1  0
 36 38  1  0
 37 35  2  0
 40 41  1  0
 40 15  1  0
 42 40  1  0
 43 44  1  0
 45 56  2  0
 46 44  1  0
 46 51  1  0
 47 55  1  0
 47 57  1  0
 48 54  1  0
 48 50  1  0
 49 55  1  0
 50 51  2  0
 50 49  1  0
 52 46  2  0
 53 52  1  0
 53 48  2  0
 54 47  1  0
 55 45  1  0
 57 59  2  0
 58 57  1  0
 60 58  1  0
 61 70  2  0
 61 66  1  0
 62 58  1  0
 62 66  1  0
 63 62  1  0
 64 65  1  0
 64 63  1  0
 65 61  1  0
 66 67  2  0
 67 68  1  0
 69 68  2  0
 70 69  1  0
 71 45  1  0
 71 72  1  0
 71 81  1  0
 72 75  1  0
 73 77  1  0
 73 72  1  0
 74 73  2  0
 77 76  1  0
 79 77  1  0
 79 80  1  0
 79 78  1  0
 81 84  1  1
 81 82  1  0
 83 81  1  0
M  ISO  4   4 100   7 100  43 101  44 101
M  END
>  <TORSDO>  (50) 
F 18

>  <SCORE>  (50) 
-16.441

>  <name>  (50) 
49

>  <ligand_id>  (50) 
49

>  <original_smiles>  (50) 
[H]C(C(=O)N1C([H])([H])C([H])([H])C([H])([H])C([H])(n2nc(-c3c([H])c([H])c(Oc4c([H])c([H])c(F)c([H])c4F)c([H])c3[H])c(C(=O)N([H])[H])c2N([H])[H])C1([H])[H])=C(C([H])([H])[H])C1([H])C([H])([H])C1([H])C([H])([H])Oc1c([H])c([H])c2c(c1[H])C([H])([H])N(C(=O)C([H])(N([H])C(=O)C([H])(N([H])C([H])([H])[H])C([H])([H])[H])C(C([H])([H])[H])(C([H])([H])[H])C([H])([H])[H])C([H])(C(=O)N([H])C1([H])c3c([H])c([H])c([H])c([H])c3C([H])([H])C([H])([H])C1([H])[H])C2([H])[H]

>  <smiles>  (50) 
[H]C(C(=O)N1C([H])([H])C([H])([H])C([H])([H])C([H])(n2nc(-c3c([H])c([H])c(Oc4c([H])c([H])c(F)c([H])c4F)c([H])c3[H])c(C(=O)N([H])[H])c2N([H])[H])C1([H])[H])=C(C([H])([H])[H])C1([H])C([H])([H])C1([H])C([H])([H])Oc1c([H])c([H])c2c(c1[H])C([H])([H])N(C(=O)C([H])(N([H])C(=O)C([H])(N([H])C([H])([H])[H])C([H])([H])[H])C(C([H])([H])[H])(C([H])([H])[H])C([H])([H])[H])C([H])(C(=O)N([H])C1([H])c3c([H])c([H])c([H])c([H])c3C([H])([H])C([H])([H])C1([H])[H])C2([H])[H]

$$$$
50:0:0
     RDKit          3D

 93101  0  0  1  0  0  0  0  0999 V2000
  -29.5570  -20.9500   20.5490 N   0  0  0  0  0  0  0  0  0  0  0  0
  -29.3480  -21.0700   21.5390 H   0  0  0  0  0  0  0  0  0  0  0  0
  -29.2080  -19.4890   20.1830 C   0  0  0  0  0  2  0  0  0  0  0  0
  -31.6090  -17.4870   18.1290 C   0  0  0  0  0  2  0  0  0  0  0  0
  -30.2530  -16.8550   18.5220 C   0  0  0  0  0  2  0  0  0  0  0  0
  -31.8410  -18.8600   18.7850 C   0  0  0  0  0  2  0  0  0  0  0  0
  -30.1040  -16.6480   20.0570 C   0  0  0  0  0  3  0  0  0  0  0  0
  -30.2320  -18.2600   20.5990 C   0  0  0  0  0  3  0  0  0  0  0  0
  -31.5560  -18.8410   20.2380 N   0  0  0  0  0  4  0  0  0  0  0  0
  -31.5290  -19.8000   20.5550 H   0  0  0  0  0  0  0  0  0  0  0  0
  -32.2960  -18.3640   20.7280 H   0  0  0  0  0  0  0  0  0  0  0  0
  -30.8140  -15.1390   20.2860 C   0  0  0  0  0  0  0  0  0  0  0  0
  -30.5970  -12.7910   19.4270 C   0  0  0  0  0  2  0  0  0  0  0  0
  -29.7080  -12.7730   18.1620 C   0  0  0  0  0  2  0  0  0  0  0  0
  -28.2210  -12.6430   18.5430 C   0  0  0  0  0  2  0  0  0  0  0  0
  -27.8090  -13.5750   19.7160 C   0  0  0  0  0  3  0  0  0  0  0  0
  -28.8420  -13.5880   20.8610 C   0  0  0  0  0  2  0  0  0  0  0  0
  -30.1480  -13.9190   20.2870 N   0  0  0  0  0  0  0  0  0  0  0  0
  -32.0440  -15.0420   20.1250 O   0  0  0  0  0  0  0  0  0  0  0  0
  -25.4130  -14.1540   20.4030 C   0  0  0  0  0  0  0  0  0  0  0  0
  -24.3430  -13.3820   20.7600 C   0  0  0  0  0  0  0  0  0  0  0  0
  -24.8130  -12.0330   20.7660 C   0  0  0  0  0  0  0  0  0  0  0  0
  -26.4630  -13.2780   20.1980 N   0  0  0  0  0  0  0  0  0  0  0  0
  -26.1110  -11.9970   20.4890 N   0  0  0  0  0  0  0  0  0  0  0  0
  -24.0860  -10.7700   20.9610 C   0  0  0  0  0  0  0  0  0  0  0  0
  -24.4900   -9.8280   21.9310 C   0  0  0  0  0  3  0  0  0  0  0  0
  -23.7620   -8.6320   22.1140 C   0  0  0  0  0  3  0  0  0  0  0  0
  -22.6160   -8.3690   21.3260 C   0  0  0  0  0  0  0  0  0  0  0  0
  -22.2320   -9.3020   20.3460 C   0  0  0  0  0  3  0  0  0  0  0  0
  -22.9590  -10.4890   20.1620 C   0  0  0  0  0  3  0  0  0  0  0  0
  -21.8630   -7.2230   21.4140 O   0  0  0  0  0  0  0  0  0  0  0  0
  -21.7720   -6.5080   22.5820 C   0  0  0  0  0  0  0  0  0  0  0  0
  -21.2650   -7.0820   23.7680 C   0  0  0  0  0  3  0  0  0  0  0  0
  -21.1230   -6.2940   24.9270 C   0  0  0  0  0  3  0  0  0  0  0  0
  -21.4780   -4.9310   24.9010 C   0  0  0  0  0  0  0  0  0  0  0  0
  -21.9770   -4.3570   23.7200 C   0  0  0  0  0  3  0  0  0  0  0  0
  -22.1200   -5.1430   22.5620 C   0  0  0  0  0  0  0  0  0  0  0  0
  -22.5810   -4.5790   21.4200 F   0  0  0  0  0  0  0  0  0  0  0  0
  -21.3360   -4.1710   26.0120 F   0  0  0  0  0  0  0  0  0  0  0  0
  -22.9380  -13.8580   20.9840 C   0  0  0  0  0  0  0  0  0  0  0  0
  -22.1920  -13.1810   21.8490 N   0  0  0  0  0  0  0  0  0  0  0  0
  -22.5090  -14.8670   20.4270 O   0  0  0  0  0  0  0  0  0  0  0  0
  -22.5540  -12.3670   22.3250 H   0  0  0  0  0  0  0  0  0  0  0  0
  -21.2450  -13.4780   22.0340 H   0  0  0  0  0  0  0  0  0  0  0  0
  -25.5750  -15.5230   20.2020 N   0  0  0  0  0  0  0  0  0  0  0  0
  -24.8060  -16.1760   20.2900 H   0  0  0  0  0  0  0  0  0  0  0  0
  -26.4290  -15.9580   19.8770 H   0  0  0  0  0  0  0  0  0  0  0  0
  -28.9430  -22.1630   19.8220 C   0  0  0  0  0  3  0  0  0  0  0  0
  -26.4330  -22.5190   20.0780 C   0  0  0  0  0  2  0  0  0  0  0  0
  -27.4790  -21.8610   19.5580 C   0  0  0  0  0  3  0  0  0  0  0  0
  -29.1920  -23.7310   20.3330 C   0  0  0  0  0  3  0  0  0  0  0  0
  -28.3800  -25.0420   19.7180 C   0  0  0  0  0  3  0  0  0  0  0  0
  -28.5580  -26.5200   20.1020 O   0  0  0  0  0  0  0  0  0  0  0  0
  -24.6760  -31.9040   23.2060 C   0  0  0  0  0  0  0  0  0  0  0  0
  -27.4590  -27.4370   20.0390 C   0  0  0  0  0  0  0  0  0  0  0  0
  -23.5470  -30.5260   21.5020 C   0  0  0  0  0  3  0  0  0  0  0  0
  -25.0660  -29.0640   20.0420 C   0  0  0  0  0  0  0  0  0  0  0  0
  -26.0880  -30.8960   21.3820 C   0  0  0  0  0  2  0  0  0  0  0  0
  -26.2180  -29.5370   20.6830 C   0  0  0  0  0  0  0  0  0  0  0  0
  -27.4140  -28.7350   20.6730 C   0  0  0  0  0  3  0  0  0  0  0  0
  -26.2820  -27.0620   19.3520 C   0  0  0  0  0  3  0  0  0  0  0  0
  -25.1060  -27.8370   19.3660 C   0  0  0  0  0  3  0  0  0  0  0  0
  -23.8070  -29.9110   20.1020 C   0  0  0  0  0  2  0  0  0  0  0  0
  -24.7890  -31.1290   22.0860 N   0  0  0  0  0  0  0  0  0  0  0  0
  -23.5740  -32.1310   23.7280 O   0  0  0  0  0  0  0  0  0  0  0  0
  -22.8990  -29.4580   22.4170 C   0  0  0  0  0  0  0  0  0  0  0  0
  -21.5750  -29.2650   22.2900 N   0  0  0  0  0  0  0  0  0  0  0  0
  -23.5890  -28.8050   23.2060 O   0  0  0  0  0  0  0  0  0  0  0  0
  -21.0740  -29.8450   21.6300 H   0  0  0  0  0  0  0  0  0  0  0  0
  -18.2120  -28.0210   22.7920 C   0  0  0  0  0  0  0  0  0  0  0  0
  -20.7740  -28.2810   23.0220 C   0  0  0  0  0  3  0  0  0  0  0  0
  -20.8710  -26.8850   22.3630 C   0  0  0  0  0  2  0  0  0  0  0  0
  -19.7490  -26.6150   21.3550 C   0  0  0  0  0  2  0  0  0  0  0  0
  -18.3810  -26.7140   22.0330 C   0  0  0  0  0  2  0  0  0  0  0  0
  -19.3350  -28.7640   23.2420 C   0  0  0  0  0  0  0  0  0  0  0  0
  -19.1210  -29.9870   23.9130 C   0  0  0  0  0  3  0  0  0  0  0  0
  -17.8170  -30.4680   24.1350 C   0  0  0  0  0  3  0  0  0  0  0  0
  -16.7090  -29.7220   23.6980 C   0  0  0  0  0  3  0  0  0  0  0  0
  -16.9070  -28.4990   23.0340 C   0  0  0  0  0  3  0  0  0  0  0  0
  -25.9250  -32.5610   23.8710 C   0  0  0  0  0  3  0  0  0  0  0  0
  -25.5800  -33.9560   24.1840 N   0  0  0  0  0  0  0  0  0  0  0  0
  -25.9080  -35.0120   23.4290 C   0  0  0  0  0  0  0  0  0  0  0  0
  -26.6010  -34.9170   22.4130 O   0  0  0  0  0  0  0  0  0  0  0  0
  -24.9640  -34.1020   24.9700 H   0  0  0  0  0  0  0  0  0  0  0  0
  -24.1600  -36.7790   23.0310 C   0  0  0  0  0  1  0  0  0  0  0  0
  -25.3870  -36.3940   23.8710 C   0  0  0  0  0  3  0  0  0  0  0  0
  -27.4800  -37.3230   24.7590 C   0  0  0  0  0  1  0  0  0  0  0  0
  -26.4060  -37.4630   23.7810 N   0  0  0  0  0  0  0  0  0  0  0  0
  -25.9800  -38.3780   23.9040 H   0  0  0  0  0  0  0  0  0  0  0  0
  -26.4040  -31.8050   25.1700 C   0  0  1  0  0  0  0  0  0  0  0  0
  -25.2740  -31.5560   26.1970 C   0  0  0  0  0  1  0  0  0  0  0  0
  -27.0250  -30.4340   24.8130 C   0  0  0  0  0  1  0  0  0  0  0  0
  -27.5170  -32.6220   25.8690 C   0  0  0  0  0  1  0  0  0  0  0  0
  1  2  1  0
  3  1  1  0
  4  5  1  0
  4  6  1  0
  5  7  1  0
  6  9  1  0
  7 12  1  0
  7  8  1  0
  8  3  1  0
  9 10  1  0
  9  8  1  0
  9 11  1  0
 12 18  1  0
 13 18  1  0
 14 15  1  0
 14 13  1  0
 16 15  1  0
 16 23  1  0
 16 17  1  0
 18 17  1  0
 19 12  2  0
 20 21  2  0
 21 22  1  0
 21 40  1  0
 22 25  1  0
 23 20  1  0
 23 24  1  0
 24 22  2  0
 25 26  1  0
 26 27  2  0
 28 31  1  0
 28 27  1  0
 29 28  2  0
 30 29  1  0
 30 25  2  0
 31 32  1  0
 32 33  1  0
 33 34  2  0
 35 34  1  0
 35 39  1  0
 36 35  2  0
 37 32  2  0
 37 36  1  0
 38 37  1  0
 40 41  1  0
 41 44  1  0
 41 43  1  0
 42 40  2  0
 45 46  1  0
 45 20  1  0
 47 45  1  0
 48 50  1  0
 48 51  1  0
 48  1  1  0
 50 49  2  0
 52 53  1  0
 52 51  2  0
 54 65  2  0
 55 53  1  0
 55 60  1  0
 56 64  1  0
 56 66  1  0
 57 63  1  0
 57 59  1  0
 58 64  1  0
 59 58  1  0
 60 59  2  0
 61 62  1  0
 61 55  2  0
 62 57  2  0
 63 56  1  0
 64 54  1  0
 66 68  2  0
 67 66  1  0
 69 67  1  0
 70 79  2  0
 70 75  1  0
 71 67  1  0
 71 75  1  0
 72 71  1  0
 73 74  1  0
 73 72  1  0
 74 70  1  0
 75 76  2  0
 76 77  1  0
 78 77  2  0
 79 78  1  0
 80 54  1  0
 80 81  1  0
 80 90  1  0
 81 84  1  0
 82 86  1  0
 82 81  1  0
 83 82  2  0
 86 85  1  0
 88 86  1  0
 88 89  1  0
 88 87  1  0
 90 93  1  1
 90 91  1  0
 92 90  1  0
M  ISO  4   7 100  12 100  52 101  53 101
M  END
>  <TORSDO>  (51) 
F 22

>  <SCORE>  (51) 
-12.792

>  <name>  (51) 
50

>  <ligand_id>  (51) 
50

>  <original_smiles>  (51) 
[H]C([H])=C([H])C([H])(N([H])C([H])([H])C1([H])C([H])(C(=O)N2C([H])([H])C([H])([H])C([H])([H])C([H])(n3nc(-c4c([H])c([H])c(Oc5c([H])c([H])c(F)c([H])c5F)c([H])c4[H])c(C(=O)N([H])[H])c3N([H])[H])C2([H])[H])C([H])([H])C([H])([H])C([H])([H])[N+]1([H])[H])C([H])([H])C([H])([H])Oc1c([H])c([H])c2c(c1[H])C([H])([H])N(C(=O)C([H])(N([H])C(=O)C([H])(N([H])C([H])([H])[H])C([H])([H])[H])C(C([H])([H])[H])(C([H])([H])[H])C([H])([H])[H])C([H])(C(=O)N([H])C1([H])c3c([H])c([H])c([H])c([H])c3C([H])([H])C([H])([H])C1([H])[H])C2([H])[H]

>  <smiles>  (51) 
[H]C([H])=C([H])C([H])(N([H])C([H])([H])C1([H])C([H])(C(=O)N2C([H])([H])C([H])([H])C([H])([H])C([H])(n3nc(-c4c([H])c([H])c(Oc5c([H])c([H])c(F)c([H])c5F)c([H])c4[H])c(C(=O)N([H])[H])c3N([H])[H])C2([H])[H])C([H])([H])C([H])([H])C([H])([H])[N+]1([H])[H])C([H])([H])C([H])([H])Oc1c([H])c([H])c2c(c1[H])C([H])([H])N(C(=O)C([H])(N([H])C(=O)C([H])(N([H])C([H])([H])[H])C([H])([H])[H])C(C([H])([H])[H])(C([H])([H])[H])C([H])([H])[H])C([H])(C(=O)N([H])C1([H])c3c([H])c([H])c([H])c([H])c3C([H])([H])C([H])([H])C1([H])[H])C2([H])[H]

$$$$
51:0:0
     RDKit          3D

 90 98  0  0  1  0  0  0  0  0999 V2000
  -27.3460  -21.6950   20.5900 N   0  0  0  0  0  4  0  0  0  0  0  0
  -26.3900  -21.3580   20.5940 H   0  0  0  0  0  0  0  0  0  0  0  0
  -27.5050  -21.9470   19.6280 H   0  0  0  0  0  0  0  0  0  0  0  0
  -29.7300  -20.9090   20.6810 C   0  0  0  0  0  2  0  0  0  0  0  0
  -30.5180  -19.5920   20.8280 C   0  0  0  0  0  2  0  0  0  0  0  0
  -28.2600  -19.1310   20.5080 C   0  0  0  0  0  2  0  0  0  0  0  0
  -28.2950  -20.6080   21.0770 C   0  0  0  0  0  3  0  0  0  0  0  0
  -29.5650  -18.4820   20.8340 N   0  0  0  0  0  0  0  0  0  0  0  0
  -30.0550  -17.3490   20.0020 C   0  0  0  0  0  2  0  0  0  0  0  0
  -29.8570  -15.9250   20.6380 C   0  0  0  0  0  2  0  0  0  0  0  0
  -30.7630  -14.7580   20.0530 C   0  0  0  0  0  0  0  0  0  0  0  0
  -30.6540  -12.5300   18.9520 C   0  0  0  0  0  2  0  0  0  0  0  0
  -29.6630  -12.6230   17.7720 C   0  0  0  0  0  2  0  0  0  0  0  0
  -28.1990  -12.4820   18.2350 C   0  0  0  0  0  2  0  0  0  0  0  0
  -27.8810  -13.3280   19.4880 C   0  0  0  0  0  3  0  0  0  0  0  0
  -28.9510  -13.1420   20.5820 C   0  0  0  0  0  2  0  0  0  0  0  0
  -30.2340  -13.5060   19.9770 N   0  0  0  0  0  0  0  0  0  0  0  0
  -31.8850  -15.0120   19.5880 O   0  0  0  0  0  0  0  0  0  0  0  0
  -25.5360  -13.9800   20.3180 C   0  0  0  0  0  0  0  0  0  0  0  0
  -24.4800  -13.2250   20.7250 C   0  0  0  0  0  0  0  0  0  0  0  0
  -24.9150  -11.8580   20.6590 C   0  0  0  0  0  0  0  0  0  0  0  0
  -26.5530  -13.0790   20.0180 N   0  0  0  0  0  0  0  0  0  0  0  0
  -26.1860  -11.8060   20.2840 N   0  0  0  0  0  0  0  0  0  0  0  0
  -24.1850  -10.6070   20.8640 C   0  0  0  0  0  0  0  0  0  0  0  0
  -24.5810   -9.6650   21.8400 C   0  0  0  0  0  3  0  0  0  0  0  0
  -23.8450   -8.4760   22.0270 C   0  0  0  0  0  3  0  0  0  0  0  0
  -22.7020   -8.2170   21.2370 C   0  0  0  0  0  0  0  0  0  0  0  0
  -22.3240   -9.1440   20.2500 C   0  0  0  0  0  3  0  0  0  0  0  0
  -23.0590  -10.3250   20.0610 C   0  0  0  0  0  3  0  0  0  0  0  0
  -21.9440   -7.0720   21.3320 O   0  0  0  0  0  0  0  0  0  0  0  0
  -21.7720   -6.4220   22.5260 C   0  0  0  0  0  0  0  0  0  0  0  0
  -21.2110   -7.0630   23.6490 C   0  0  0  0  0  3  0  0  0  0  0  0
  -20.9870   -6.3360   24.8360 C   0  0  0  0  0  3  0  0  0  0  0  0
  -21.3220   -4.9700   24.8970 C   0  0  0  0  0  0  0  0  0  0  0  0
  -21.8810   -4.3310   23.7780 C   0  0  0  0  0  3  0  0  0  0  0  0
  -22.1030   -5.0530   22.5930 C   0  0  0  0  0  0  0  0  0  0  0  0
  -22.6230   -4.4270   21.5100 F   0  0  0  0  0  0  0  0  0  0  0  0
  -21.1030   -4.2680   26.0340 F   0  0  0  0  0  0  0  0  0  0  0  0
  -23.0970  -13.7090   21.0640 C   0  0  0  0  0  0  0  0  0  0  0  0
  -22.4040  -13.0130   21.9550 N   0  0  0  0  0  0  0  0  0  0  0  0
  -22.6410  -14.7420   20.5610 O   0  0  0  0  0  0  0  0  0  0  0  0
  -22.7800  -12.1710   22.3710 H   0  0  0  0  0  0  0  0  0  0  0  0
  -21.4830  -13.3140   22.2320 H   0  0  0  0  0  0  0  0  0  0  0  0
  -25.7310  -15.3490   20.1430 N   0  0  0  0  0  0  0  0  0  0  0  0
  -24.9920  -16.0340   20.2390 H   0  0  0  0  0  0  0  0  0  0  0  0
  -26.5510  -15.7120   19.6850 H   0  0  0  0  0  0  0  0  0  0  0  0
  -27.3670  -22.9610   21.4320 C   0  0  0  0  0  2  0  0  0  0  0  0
  -26.9650  -24.3390   20.7580 C   0  0  0  0  0  2  0  0  0  0  0  0
  -28.1450  -25.1270   20.0480 C   0  0  0  0  0  2  0  0  0  0  0  0
  -28.3160  -26.5990   20.0320 O   0  0  0  0  0  0  0  0  0  0  0  0
  -24.6460  -31.8730   23.0690 C   0  0  0  0  0  0  0  0  0  0  0  0
  -27.2300  -27.4390   19.9140 C   0  0  0  0  0  0  0  0  0  0  0  0
  -23.4270  -30.5130   21.4040 C   0  0  0  0  0  3  0  0  0  0  0  0
  -24.8780  -29.0110   19.9030 C   0  0  0  0  0  0  0  0  0  0  0  0
  -25.9480  -30.8610   21.2020 C   0  0  0  0  0  2  0  0  0  0  0  0
  -26.0380  -29.5070   20.5180 C   0  0  0  0  0  0  0  0  0  0  0  0
  -27.2230  -28.7270   20.5190 C   0  0  0  0  0  3  0  0  0  0  0  0
  -26.0860  -27.0190   19.2160 C   0  0  0  0  0  3  0  0  0  0  0  0
  -24.9130  -27.7780   19.2310 C   0  0  0  0  0  3  0  0  0  0  0  0
  -23.6110  -29.8340   20.0150 C   0  0  0  0  0  2  0  0  0  0  0  0
  -24.6910  -31.1000   21.9430 N   0  0  0  0  0  0  0  0  0  0  0  0
  -23.5640  -32.1290   23.6100 O   0  0  0  0  0  0  0  0  0  0  0  0
  -22.8060  -29.4730   22.3590 C   0  0  0  0  0  0  0  0  0  0  0  0
  -21.4870  -29.2620   22.2280 N   0  0  0  0  0  0  0  0  0  0  0  0
  -23.5110  -28.8460   23.1560 O   0  0  0  0  0  0  0  0  0  0  0  0
  -20.9840  -29.7970   21.5370 H   0  0  0  0  0  0  0  0  0  0  0  0
  -18.1660  -27.9120   22.6690 C   0  0  0  0  0  0  0  0  0  0  0  0
  -20.6980  -28.2760   22.9450 C   0  0  0  0  0  3  0  0  0  0  0  0
  -20.8980  -26.8730   22.3300 C   0  0  0  0  0  2  0  0  0  0  0  0
  -19.8070  -26.5050   21.3100 C   0  0  0  0  0  2  0  0  0  0  0  0
  -18.4280  -26.5860   21.9710 C   0  0  0  0  0  2  0  0  0  0  0  0
  -19.2410  -28.7100   23.1320 C   0  0  0  0  0  0  0  0  0  0  0  0
  -18.9510  -29.9370   23.7820 C   0  0  0  0  0  3  0  0  0  0  0  0
  -17.6200  -30.3790   23.9450 C   0  0  0  0  0  3  0  0  0  0  0  0
  -16.5680  -29.5760   23.4580 C   0  0  0  0  0  3  0  0  0  0  0  0
  -16.8380  -28.3390   22.8420 C   0  0  0  0  0  3  0  0  0  0  0  0
  -25.9280  -32.4960   23.6980 C   0  0  0  0  0  3  0  0  0  0  0  0
  -25.6050  -33.8810   24.0660 N   0  0  0  0  0  0  0  0  0  0  0  0
  -25.8950  -34.9590   23.3260 C   0  0  0  0  0  0  0  0  0  0  0  0
  -26.5440  -34.8960   22.2790 O   0  0  0  0  0  0  0  0  0  0  0  0
  -25.0380  -34.0050   24.8900 H   0  0  0  0  0  0  0  0  0  0  0  0
  -24.1370  -36.7340   23.0320 C   0  0  0  0  0  1  0  0  0  0  0  0
  -25.3820  -36.3210   23.8340 C   0  0  0  0  0  3  0  0  0  0  0  0
  -27.5080  -37.2170   24.6810 C   0  0  0  0  0  1  0  0  0  0  0  0
  -26.3910  -37.3990   23.7610 N   0  0  0  0  0  0  0  0  0  0  0  0
  -25.9620  -38.3010   23.9530 H   0  0  0  0  0  0  0  0  0  0  0  0
  -26.4620  -31.6990   24.9470 C   0  0  1  0  0  0  0  0  0  0  0  0
  -25.3880  -31.4260   26.0200 C   0  0  0  0  0  1  0  0  0  0  0  0
  -27.0560  -30.3400   24.5150 C   0  0  0  0  0  1  0  0  0  0  0  0
  -27.6060  -32.4920   25.6160 C   0  0  0  0  0  1  0  0  0  0  0  0
  1  2  1  0
  1 47  1  0
  3  1  1  0
  4  5  1  0
  4  7  1  0
  5  8  1  0
  6  8  1  0
  6  7  1  0
  7  1  1  0
  9 10  1  0
  9  8  1  0
 11 10  1  0
 12 17  1  0
 13 14  1  0
 13 12  1  0
 15 14  1  0
 15 22  1  0
 15 16  1  0
 17 11  1  0
 17 16  1  0
 18 11  2  0
 19 20  2  0
 20 39  1  0
 21 20  1  0
 21 24  1  0
 22 23  1  0
 22 19  1  0
 23 21  2  0
 24 25  1  0
 25 26  2  0
 27 30  1  0
 27 26  1  0
 28 27  2  0
 29 28  1  0
 29 24  2  0
 30 31  1  0
 31 36  2  0
 31 32  1  0
 32 33  2  0
 33 34  1  0
 34 38  1  0
 35 34  2  0
 36 35  1  0
 37 36  1  0
 39 40  1  0
 40 43  1  0
 40 42  1  0
 41 39  2  0
 44 45  1  0
 44 19  1  0
 46 44  1  0
 48 47  1  0
 49 48  1  0
 50 49  1  0
 51 62  2  0
 52 50  1  0
 52 57  1  0
 53 61  1  0
 53 63  1  0
 54 60  1  0
 54 56  1  0
 55 61  1  0
 56 57  2  0
 56 55  1  0
 58 59  1  0
 58 52  2  0
 59 54  2  0
 60 53  1  0
 61 51  1  0
 63 65  2  0
 64 63  1  0
 66 64  1  0
 67 76  2  0
 67 72  1  0
 68 64  1  0
 68 72  1  0
 69 68  1  0
 70 71  1  0
 70 69  1  0
 71 67  1  0
 72 73  2  0
 73 74  1  0
 75 74  2  0
 76 75  1  0
 77 51  1  0
 77 78  1  0
 77 87  1  0
 78 81  1  0
 79 83  1  0
 79 78  1  0
 80 79  2  0
 83 82  1  0
 85 83  1  0
 85 86  1  0
 85 84  1  0
 87 90  1  1
 87 88  1  0
 89 87  1  0
M  ISO  4  10 100  11 100  49 101  50 101
M  END
>  <TORSDO>  (52) 
F 22

>  <SCORE>  (52) 
-12.662

>  <name>  (52) 
51

>  <ligand_id>  (52) 
51

>  <original_smiles>  (52) 
[H]c1c([H])c([H])c2c(c1[H])C([H])([H])C([H])([H])C([H])([H])C2([H])N([H])C(=O)C1([H])N(C(=O)C([H])(N([H])C(=O)C([H])(N([H])C([H])([H])[H])C([H])([H])[H])C(C([H])([H])[H])(C([H])([H])[H])C([H])([H])[H])C([H])([H])c2c([H])c(OC([H])([H])C([H])([H])C([H])([H])[N+]([H])([H])C3([H])C([H])([H])N(C([H])([H])C([H])([H])C(=O)N4C([H])([H])C([H])([H])C([H])([H])C([H])(n5nc(-c6c([H])c([H])c(Oc7c([H])c([H])c(F)c([H])c7F)c([H])c6[H])c(C(=O)N([H])[H])c5N([H])[H])C4([H])[H])C([H])([H])C3([H])[H])c([H])c([H])c2C1([H])[H]

>  <smiles>  (52) 
[H]c1c([H])c([H])c2c(c1[H])C([H])([H])C([H])([H])C([H])([H])C2([H])N([H])C(=O)C1([H])N(C(=O)C([H])(N([H])C(=O)C([H])(N([H])C([H])([H])[H])C([H])([H])[H])C(C([H])([H])[H])(C([H])([H])[H])C([H])([H])[H])C([H])([H])c2c([H])c(OC([H])([H])C([H])([H])C([H])([H])[N+]([H])([H])C3([H])C([H])([H])N(C([H])([H])C([H])([H])C(=O)N4C([H])([H])C([H])([H])C([H])([H])C([H])(n5nc(-c6c([H])c([H])c(Oc7c([H])c([H])c(F)c([H])c7F)c([H])c6[H])c(C(=O)N([H])[H])c5N([H])[H])C4([H])[H])C([H])([H])C3([H])[H])c([H])c([H])c2C1([H])[H]

$$$$
52:0:0
     RDKit          3D

 88 95  0  0  1  0  0  0  0  0999 V2000
  -29.0120  -21.6880   19.7160 C   0  0  0  0  0  2  0  0  0  0  0  0
  -29.4440  -20.3470   20.4670 N   0  0  0  0  0  4  0  0  0  0  0  0
  -28.6880  -20.1670   21.1090 H   0  0  0  0  0  0  0  0  0  0  0  0
  -30.2400  -20.5730   21.0420 H   0  0  0  0  0  0  0  0  0  0  0  0
  -31.1620  -18.8870   19.2000 C   0  0  0  0  0  1  0  0  0  0  0  0
  -29.7510  -18.9200   19.8020 C   0  0  0  0  0  3  0  0  0  0  0  0
  -29.7320  -16.1140   20.6340 C   0  0  0  0  0  3  0  0  0  0  0  0
  -29.4260  -17.5240   20.6230 C   0  0  0  0  0  0  0  0  0  0  0  0
  -28.4170  -17.9340   21.6990 C   0  0  0  0  0  1  0  0  0  0  0  0
  -30.5440  -14.9750   19.9530 C   0  0  0  0  0  0  0  0  0  0  0  0
  -30.4130  -12.6530   18.9010 C   0  0  0  0  0  2  0  0  0  0  0  0
  -29.3960  -12.6710   17.7310 C   0  0  0  0  0  2  0  0  0  0  0  0
  -27.9530  -12.4550   18.2320 C   0  0  0  0  0  2  0  0  0  0  0  0
  -27.6390  -13.3070   19.4890 C   0  0  0  0  0  3  0  0  0  0  0  0
  -28.7630  -13.1910   20.5370 C   0  0  0  0  0  2  0  0  0  0  0  0
  -30.0010  -13.6800   19.9030 N   0  0  0  0  0  0  0  0  0  0  0  0
  -31.6670  -15.1130   19.4540 O   0  0  0  0  0  0  0  0  0  0  0  0
  -25.3020  -13.8810   20.3650 C   0  0  0  0  0  0  0  0  0  0  0  0
  -24.2570  -13.1030   20.7810 C   0  0  0  0  0  0  0  0  0  0  0  0
  -24.7140  -11.7530   20.7040 C   0  0  0  0  0  0  0  0  0  0  0  0
  -26.3270  -13.0050   20.0530 N   0  0  0  0  0  0  0  0  0  0  0  0
  -25.9860  -11.7170   20.3210 N   0  0  0  0  0  0  0  0  0  0  0  0
  -23.9950  -10.4900   20.9190 C   0  0  0  0  0  0  0  0  0  0  0  0
  -24.4580   -9.5220   21.8380 C   0  0  0  0  0  3  0  0  0  0  0  0
  -23.7390   -8.3240   22.0390 C   0  0  0  0  0  3  0  0  0  0  0  0
  -22.5430   -8.0850   21.3210 C   0  0  0  0  0  0  0  0  0  0  0  0
  -22.1000   -9.0400   20.3900 C   0  0  0  0  0  3  0  0  0  0  0  0
  -22.8200  -10.2290   20.1870 C   0  0  0  0  0  3  0  0  0  0  0  0
  -21.7920   -6.9390   21.4320 O   0  0  0  0  0  0  0  0  0  0  0  0
  -21.7500   -6.2160   22.5970 C   0  0  0  0  0  0  0  0  0  0  0  0
  -21.3400   -6.7940   23.8190 C   0  0  0  0  0  3  0  0  0  0  0  0
  -21.2450   -5.9960   24.9780 C   0  0  0  0  0  3  0  0  0  0  0  0
  -21.5520   -4.6230   24.9150 C   0  0  0  0  0  0  0  0  0  0  0  0
  -21.9560   -4.0460   23.6990 C   0  0  0  0  0  3  0  0  0  0  0  0
  -22.0530   -4.8400   22.5430 C   0  0  0  0  0  0  0  0  0  0  0  0
  -22.4200   -4.2740   21.3670 F   0  0  0  0  0  0  0  0  0  0  0  0
  -21.4550   -3.8550   26.0260 F   0  0  0  0  0  0  0  0  0  0  0  0
  -22.8770  -13.5790   21.1360 C   0  0  0  0  0  0  0  0  0  0  0  0
  -22.1970  -12.8780   22.0350 N   0  0  0  0  0  0  0  0  0  0  0  0
  -22.4130  -14.6100   20.6500 O   0  0  0  0  0  0  0  0  0  0  0  0
  -22.5900  -12.0480   22.4560 H   0  0  0  0  0  0  0  0  0  0  0  0
  -21.2720  -13.1740   22.3070 H   0  0  0  0  0  0  0  0  0  0  0  0
  -25.4620  -15.2540   20.2060 N   0  0  0  0  0  0  0  0  0  0  0  0
  -24.7120  -15.9120   20.3960 H   0  0  0  0  0  0  0  0  0  0  0  0
  -26.3100  -15.7010   19.8790 H   0  0  0  0  0  0  0  0  0  0  0  0
  -28.8670  -23.2200   20.4580 C   0  0  0  0  0  3  0  0  0  0  0  0
  -28.2470  -24.6380   19.7480 C   0  0  0  0  0  3  0  0  0  0  0  0
  -28.2630  -26.1220   20.2700 O   0  0  0  0  0  0  0  0  0  0  0  0
  -24.5840  -31.8210   23.2110 C   0  0  0  0  0  0  0  0  0  0  0  0
  -27.1880  -27.0930   20.1770 C   0  0  0  0  0  0  0  0  0  0  0  0
  -23.3940  -30.4170   21.5740 C   0  0  0  0  0  3  0  0  0  0  0  0
  -24.8450  -28.8390   20.1560 C   0  0  0  0  0  0  0  0  0  0  0  0
  -25.9490  -30.6850   21.4110 C   0  0  0  0  0  2  0  0  0  0  0  0
  -26.0260  -29.2910   20.7580 C   0  0  0  0  0  0  0  0  0  0  0  0
  -27.1950  -28.4340   20.7470 C   0  0  0  0  0  3  0  0  0  0  0  0
  -25.9710  -26.7470   19.5450 C   0  0  0  0  0  3  0  0  0  0  0  0
  -24.8300  -27.5800   19.5390 C   0  0  0  0  0  3  0  0  0  0  0  0
  -23.6170  -29.7360   20.2000 C   0  0  0  0  0  2  0  0  0  0  0  0
  -24.6640  -30.9970   22.1210 N   0  0  0  0  0  0  0  0  0  0  0  0
  -23.4940  -32.1040   23.7330 O   0  0  0  0  0  0  0  0  0  0  0  0
  -22.7100  -29.4140   22.5360 C   0  0  0  0  0  0  0  0  0  0  0  0
  -21.3820  -29.2470   22.4070 N   0  0  0  0  0  0  0  0  0  0  0  0
  -23.3790  -28.7880   23.3630 O   0  0  0  0  0  0  0  0  0  0  0  0
  -20.9010  -29.8060   21.7180 H   0  0  0  0  0  0  0  0  0  0  0  0
  -17.9980  -28.0450   22.8970 C   0  0  0  0  0  0  0  0  0  0  0  0
  -20.5550  -28.3100   23.1740 C   0  0  0  0  0  3  0  0  0  0  0  0
  -20.6590  -26.8770   22.6010 C   0  0  0  0  0  2  0  0  0  0  0  0
  -19.5620  -26.5510   21.5840 C   0  0  0  0  0  2  0  0  0  0  0  0
  -18.1780  -26.6950   22.2230 C   0  0  0  0  0  2  0  0  0  0  0  0
  -19.1140  -28.8110   23.3280 C   0  0  0  0  0  0  0  0  0  0  0  0
  -18.8900  -30.0730   23.9200 C   0  0  0  0  0  3  0  0  0  0  0  0
  -17.5830  -30.5710   24.0840 C   0  0  0  0  0  3  0  0  0  0  0  0
  -16.4820  -29.8020   23.6680 C   0  0  0  0  0  3  0  0  0  0  0  0
  -16.6890  -28.5400   23.0820 C   0  0  0  0  0  3  0  0  0  0  0  0
  -25.8540  -32.4640   23.8450 C   0  0  0  0  0  3  0  0  0  0  0  0
  -25.5340  -33.8610   24.1810 N   0  0  0  0  0  0  0  0  0  0  0  0
  -25.8630  -34.9220   23.4330 C   0  0  0  0  0  0  0  0  0  0  0  0
  -26.5320  -34.8280   22.4000 O   0  0  0  0  0  0  0  0  0  0  0  0
  -24.9390  -34.0060   24.9820 H   0  0  0  0  0  0  0  0  0  0  0  0
  -24.1210  -36.7110   23.1100 C   0  0  0  0  0  1  0  0  0  0  0  0
  -25.3750  -36.3070   23.9020 C   0  0  0  0  0  3  0  0  0  0  0  0
  -27.5150  -37.2000   24.7110 C   0  0  0  0  0  1  0  0  0  0  0  0
  -26.4000  -37.3660   23.7820 N   0  0  0  0  0  0  0  0  0  0  0  0
  -25.9920  -38.2840   23.9380 H   0  0  0  0  0  0  0  0  0  0  0  0
  -26.3610  -31.6960   25.1290 C   0  0  1  0  0  0  0  0  0  0  0  0
  -25.2600  -31.4600   26.1910 C   0  0  0  0  0  1  0  0  0  0  0  0
  -26.9450  -30.3180   24.7460 C   0  0  0  0  0  1  0  0  0  0  0  0
  -27.5060  -32.4940   25.7960 C   0  0  0  0  0  1  0  0  0  0  0  0
  1 46  1  0
  1  2  1  0
  2  4  1  0
  2  3  1  0
  6  5  1  0
  6  2  1  0
  6  8  1  0
  8  7  2  0
  8  9  1  0
 10  7  1  0
 11 16  1  0
 12 13  1  0
 12 11  1  0
 14 13  1  0
 14 21  1  0
 14 15  1  0
 16 10  1  0
 16 15  1  0
 17 10  2  0
 18 19  2  0
 19 38  1  0
 20 19  1  0
 20 23  1  0
 21 22  1  0
 21 18  1  0
 22 20  2  0
 23 24  1  0
 24 25  2  0
 26 29  1  0
 26 25  1  0
 27 26  2  0
 28 27  1  0
 28 23  2  0
 29 30  1  0
 30 31  1  0
 31 32  2  0
 33 32  1  0
 33 37  1  0
 34 33  2  0
 35 30  2  0
 35 34  1  0
 36 35  1  0
 38 39  1  0
 39 42  1  0
 39 41  1  0
 40 38  2  0
 43 18  1  0
 43 44  1  0
 45 43  1  0
 47 48  1  0
 47 46  2  0
 49 60  2  0
 50 48  1  0
 50 55  1  0
 51 59  1  0
 51 61  1  0
 52 58  1  0
 52 54  1  0
 53 59  1  0
 54 53  1  0
 55 54  2  0
 56 50  2  0
 57 56  1  0
 57 52  2  0
 58 51  1  0
 59 49  1  0
 61 63  2  0
 62 61  1  0
 64 62  1  0
 65 74  2  0
 65 70  1  0
 66 62  1  0
 66 70  1  0
 67 66  1  0
 68 69  1  0
 68 67  1  0
 69 65  1  0
 70 71  2  0
 71 72  1  0
 73 72  2  0
 74 73  1  0
 75 49  1  0
 75 76  1  0
 75 85  1  0
 76 79  1  0
 77 81  1  0
 77 76  1  0
 78 77  2  0
 81 80  1  0
 83 81  1  0
 83 84  1  0
 83 82  1  0
 85 88  1  1
 85 86  1  0
 87 85  1  0
M  ISO  4   7 100  10 100  47 101  48 101
M  END
>  <TORSDO>  (53) 
F 21

>  <SCORE>  (53) 
-12.356

>  <name>  (53) 
52

>  <ligand_id>  (53) 
52

>  <original_smiles>  (53) 
[H]C(C(=O)N1C([H])([H])C([H])([H])C([H])([H])C([H])(n2nc(-c3c([H])c([H])c(Oc4c([H])c([H])c(F)c([H])c4F)c([H])c3[H])c(C(=O)N([H])[H])c2N([H])[H])C1([H])[H])=C(C([H])([H])[H])C([H])(C([H])([H])[H])[N+]([H])([H])C([H])([H])C([H])([H])C([H])([H])Oc1c([H])c([H])c2c(c1[H])C([H])([H])N(C(=O)C([H])(N([H])C(=O)C([H])(N([H])C([H])([H])[H])C([H])([H])[H])C(C([H])([H])[H])(C([H])([H])[H])C([H])([H])[H])C([H])(C(=O)N([H])C1([H])c3c([H])c([H])c([H])c([H])c3C([H])([H])C([H])([H])C1([H])[H])C2([H])[H]

>  <smiles>  (53) 
[H]C(C(=O)N1C([H])([H])C([H])([H])C([H])([H])C([H])(n2nc(-c3c([H])c([H])c(Oc4c([H])c([H])c(F)c([H])c4F)c([H])c3[H])c(C(=O)N([H])[H])c2N([H])[H])C1([H])[H])=C(C([H])([H])[H])C([H])(C([H])([H])[H])[N+]([H])([H])C([H])([H])C([H])([H])C([H])([H])Oc1c([H])c([H])c2c(c1[H])C([H])([H])N(C(=O)C([H])(N([H])C(=O)C([H])(N([H])C([H])([H])[H])C([H])([H])[H])C(C([H])([H])[H])(C([H])([H])[H])C([H])([H])[H])C([H])(C(=O)N([H])C1([H])c3c([H])c([H])c([H])c([H])c3C([H])([H])C([H])([H])C1([H])[H])C2([H])[H]

$$$$
53:0:0
     RDKit          3D

 85 93  0  0  1  0  0  0  0  0999 V2000
  -28.1380  -19.7350   20.5050 C   0  0  0  0  0  3  0  0  0  0  0  0
  -27.8240  -21.1270   20.3580 C   0  0  0  0  0  3  0  0  0  0  0  0
  -30.3600  -20.0830   19.8130 C   0  0  0  0  0  3  0  0  0  0  0  0
  -30.1020  -21.7030   20.2670 C   0  0  0  0  0  3  0  0  0  0  0  0
  -29.4990  -18.8380   20.4490 C   0  0  0  0  0  0  0  0  0  0  0  0
  -28.6730  -22.4780   20.0300 C   0  0  0  0  0  0  0  0  0  0  0  0
  -29.4470  -17.0170   20.0540 C   0  0  0  0  0  2  0  0  0  0  0  0
  -30.3850  -15.4810   20.0840 C   0  0  0  0  0  0  0  0  0  0  0  0
  -30.4500  -12.9910   19.2500 C   0  0  0  0  0  2  0  0  0  0  0  0
  -29.5100  -12.7390   18.0380 C   0  0  0  0  0  2  0  0  0  0  0  0
  -28.0740  -12.4380   18.5030 C   0  0  0  0  0  2  0  0  0  0  0  0
  -27.6230  -13.4030   19.6250 C   0  0  0  0  0  3  0  0  0  0  0  0
  -28.6870  -13.5860   20.7250 C   0  0  0  0  0  2  0  0  0  0  0  0
  -29.8970  -14.1290   20.0830 N   0  0  0  0  0  0  0  0  0  0  0  0
  -31.6100  -15.4960   19.8730 O   0  0  0  0  0  0  0  0  0  0  0  0
  -25.2710  -13.9390   20.4440 C   0  0  0  0  0  0  0  0  0  0  0  0
  -24.2210  -13.1540   20.8310 C   0  0  0  0  0  0  0  0  0  0  0  0
  -24.6940  -11.8060   20.7810 C   0  0  0  0  0  0  0  0  0  0  0  0
  -26.3110  -13.0700   20.1650 N   0  0  0  0  0  0  0  0  0  0  0  0
  -25.9790  -11.7810   20.4390 N   0  0  0  0  0  0  0  0  0  0  0  0
  -23.9770  -10.5400   20.9790 C   0  0  0  0  0  0  0  0  0  0  0  0
  -24.4210   -9.5730   21.9090 C   0  0  0  0  0  3  0  0  0  0  0  0
  -23.6990   -8.3740   22.0950 C   0  0  0  0  0  3  0  0  0  0  0  0
  -22.5190   -8.1330   21.3540 C   0  0  0  0  0  0  0  0  0  0  0  0
  -22.0930   -9.0870   20.4140 C   0  0  0  0  0  3  0  0  0  0  0  0
  -22.8150  -10.2780   20.2250 C   0  0  0  0  0  3  0  0  0  0  0  0
  -21.7680   -6.9860   21.4500 O   0  0  0  0  0  0  0  0  0  0  0  0
  -21.7210   -6.2510   22.6080 C   0  0  0  0  0  0  0  0  0  0  0  0
  -21.2610   -6.8050   23.8230 C   0  0  0  0  0  3  0  0  0  0  0  0
  -21.1630   -5.9960   24.9720 C   0  0  0  0  0  3  0  0  0  0  0  0
  -21.5130   -4.6350   24.9080 C   0  0  0  0  0  0  0  0  0  0  0  0
  -21.9660   -4.0800   23.6980 C   0  0  0  0  0  3  0  0  0  0  0  0
  -22.0660   -4.8860   22.5510 C   0  0  0  0  0  0  0  0  0  0  0  0
  -22.4820   -4.3410   21.3820 F   0  0  0  0  0  0  0  0  0  0  0  0
  -21.4120   -3.8550   26.0110 F   0  0  0  0  0  0  0  0  0  0  0  0
  -22.8280  -13.6230   21.1310 C   0  0  0  0  0  0  0  0  0  0  0  0
  -22.1200  -12.9210   22.0090 N   0  0  0  0  0  0  0  0  0  0  0  0
  -22.3770  -14.6490   20.6230 O   0  0  0  0  0  0  0  0  0  0  0  0
  -22.5000  -12.0910   22.4420 H   0  0  0  0  0  0  0  0  0  0  0  0
  -21.1860  -13.2180   22.2520 H   0  0  0  0  0  0  0  0  0  0  0  0
  -25.4230  -15.3120   20.2740 N   0  0  0  0  0  0  0  0  0  0  0  0
  -24.6570  -15.9610   20.4140 H   0  0  0  0  0  0  0  0  0  0  0  0
  -26.2630  -15.7590   19.9290 H   0  0  0  0  0  0  0  0  0  0  0  0
  -28.0840  -24.1750   20.5310 C   0  0  0  0  0  2  0  0  0  0  0  0
  -28.2770  -25.8280   20.2530 O   0  0  0  0  0  0  0  0  0  0  0  0
  -24.6160  -31.8710   23.1790 C   0  0  0  0  0  0  0  0  0  0  0  0
  -27.2540  -26.9420   20.2390 C   0  0  0  0  0  0  0  0  0  0  0  0
  -23.4610  -30.4570   21.5300 C   0  0  0  0  0  3  0  0  0  0  0  0
  -24.9440  -28.8450   20.1440 C   0  0  0  0  0  0  0  0  0  0  0  0
  -26.0320  -30.6730   21.4260 C   0  0  0  0  0  2  0  0  0  0  0  0
  -26.1240  -29.2530   20.7810 C   0  0  0  0  0  0  0  0  0  0  0  0
  -27.2730  -28.3270   20.7930 C   0  0  0  0  0  3  0  0  0  0  0  0
  -26.0390  -26.7020   19.5570 C   0  0  0  0  0  3  0  0  0  0  0  0
  -24.9310  -27.5910   19.5100 C   0  0  0  0  0  3  0  0  0  0  0  0
  -23.7210  -29.7640   20.1630 C   0  0  0  0  0  2  0  0  0  0  0  0
  -24.7240  -31.0300   22.0980 N   0  0  0  0  0  0  0  0  0  0  0  0
  -23.5150  -32.1550   23.6800 O   0  0  0  0  0  0  0  0  0  0  0  0
  -22.7550  -29.4640   22.4920 C   0  0  0  0  0  0  0  0  0  0  0  0
  -21.4260  -29.2960   22.3540 N   0  0  0  0  0  0  0  0  0  0  0  0
  -23.4120  -28.8450   23.3310 O   0  0  0  0  0  0  0  0  0  0  0  0
  -20.9480  -29.8480   21.6550 H   0  0  0  0  0  0  0  0  0  0  0  0
  -18.0410  -28.0800   22.8430 C   0  0  0  0  0  0  0  0  0  0  0  0
  -20.6000  -28.3550   23.1180 C   0  0  0  0  0  3  0  0  0  0  0  0
  -20.7070  -26.9250   22.5410 C   0  0  0  0  0  2  0  0  0  0  0  0
  -19.6120  -26.6010   21.5200 C   0  0  0  0  0  2  0  0  0  0  0  0
  -18.2270  -26.7360   22.1590 C   0  0  0  0  0  2  0  0  0  0  0  0
  -19.1550  -28.8480   23.2780 C   0  0  0  0  0  0  0  0  0  0  0  0
  -18.9250  -30.1030   23.8820 C   0  0  0  0  0  3  0  0  0  0  0  0
  -17.6160  -30.5920   24.0510 C   0  0  0  0  0  3  0  0  0  0  0  0
  -16.5170  -29.8240   23.6280 C   0  0  0  0  0  3  0  0  0  0  0  0
  -16.7310  -28.5690   23.0310 C   0  0  0  0  0  3  0  0  0  0  0  0
  -25.8690  -32.5320   23.8300 C   0  0  0  0  0  3  0  0  0  0  0  0
  -25.5310  -33.9320   24.1500 N   0  0  0  0  0  0  0  0  0  0  0  0
  -25.8700  -34.9940   23.4070 C   0  0  0  0  0  0  0  0  0  0  0  0
  -26.5580  -34.8990   22.3870 O   0  0  0  0  0  0  0  0  0  0  0  0
  -24.9190  -34.0770   24.9390 H   0  0  0  0  0  0  0  0  0  0  0  0
  -24.1430  -36.7900   23.0300 C   0  0  0  0  0  1  0  0  0  0  0  0
  -25.3690  -36.3800   23.8630 C   0  0  0  0  0  3  0  0  0  0  0  0
  -27.4760  -37.2770   24.7510 C   0  0  0  0  0  1  0  0  0  0  0  0
  -26.4000  -37.4390   23.7790 N   0  0  0  0  0  0  0  0  0  0  0  0
  -25.9850  -38.3560   23.9140 H   0  0  0  0  0  0  0  0  0  0  0  0
  -26.3550  -31.7830   25.1320 C   0  0  1  0  0  0  0  0  0  0  0  0
  -25.2360  -31.5530   26.1750 C   0  0  0  0  0  1  0  0  0  0  0  0
  -26.9580  -30.4030   24.7860 C   0  0  0  0  0  1  0  0  0  0  0  0
  -27.4820  -32.5950   25.8130 C   0  0  0  0  0  1  0  0  0  0  0  0
  2  1  2  0
  3  4  1  0
  3  5  2  0
  5  1  1  0
  6  4  2  0
  6  2  1  0
  6 44  1  0
  7  8  1  0
  7  5  1  0
  9 14  1  0
 10 11  1  0
 10  9  1  0
 12 11  1  0
 12 19  1  0
 12 13  1  0
 14  8  1  0
 14 13  1  0
 15  8  2  0
 16 17  2  0
 17 36  1  0
 18 17  1  0
 18 21  1  0
 19 20  1  0
 19 16  1  0
 20 18  2  0
 21 22  1  0
 22 23  2  0
 24 27  1  0
 24 23  1  0
 25 24  2  0
 26 25  1  0
 26 21  2  0
 27 28  1  0
 28 29  1  0
 29 30  2  0
 31 30  1  0
 31 35  1  0
 32 31  2  0
 33 28  2  0
 33 32  1  0
 34 33  1  0
 36 37  1  0
 37 40  1  0
 37 39  1  0
 38 36  2  0
 41 42  1  0
 41 16  1  0
 43 41  1  0
 45 44  1  0
 46 57  2  0
 47 45  1  0
 47 52  1  0
 48 56  1  0
 48 58  1  0
 49 55  1  0
 49 51  1  0
 50 56  1  0
 51 52  2  0
 51 50  1  0
 53 47  2  0
 54 53  1  0
 54 49  2  0
 55 48  1  0
 56 46  1  0
 58 60  2  0
 59 58  1  0
 61 59  1  0
 62 71  2  0
 62 67  1  0
 63 59  1  0
 63 67  1  0
 64 63  1  0
 65 66  1  0
 65 64  1  0
 66 62  1  0
 67 68  2  0
 68 69  1  0
 70 69  2  0
 71 70  1  0
 72 46  1  0
 72 73  1  0
 72 82  1  0
 73 76  1  0
 74 78  1  0
 74 73  1  0
 75 74  2  0
 78 77  1  0
 80 78  1  0
 80 81  1  0
 80 79  1  0
 82 85  1  1
 82 83  1  0
 84 82  1  0
M  ISO  4   7 100   8 100  44 101  45 101
M  END
>  <TORSDO>  (54) 
F 18

>  <SCORE>  (54) 
-16.426

>  <name>  (54) 
53

>  <ligand_id>  (54) 
53

>  <original_smiles>  (54) 
[H]C1=C([H])C([H])(C([H])([H])C(=O)N2C([H])([H])C([H])([H])C([H])([H])C([H])(n3nc(-c4c([H])c([H])c(Oc5c([H])c([H])c(F)c([H])c5F)c([H])c4[H])c(C(=O)N([H])[H])c3N([H])[H])C2([H])[H])C([H])([H])C([H])([H])C1([H])C([H])([H])Oc1c([H])c([H])c2c(c1[H])C([H])([H])N(C(=O)C([H])(N([H])C(=O)C([H])(N([H])C([H])([H])[H])C([H])([H])[H])C(C([H])([H])[H])(C([H])([H])[H])C([H])([H])[H])C([H])(C(=O)N([H])C1([H])c3c([H])c([H])c([H])c([H])c3C([H])([H])C([H])([H])C1([H])[H])C2([H])[H]

>  <smiles>  (54) 
[H]C1=C([H])C([H])(C([H])([H])C(=O)N2C([H])([H])C([H])([H])C([H])([H])C([H])(n3nc(-c4c([H])c([H])c(Oc5c([H])c([H])c(F)c([H])c5F)c([H])c4[H])c(C(=O)N([H])[H])c3N([H])[H])C2([H])[H])C([H])([H])C([H])([H])C1([H])C([H])([H])Oc1c([H])c([H])c2c(c1[H])C([H])([H])N(C(=O)C([H])(N([H])C(=O)C([H])(N([H])C([H])([H])[H])C([H])([H])[H])C(C([H])([H])[H])(C([H])([H])[H])C([H])([H])[H])C([H])(C(=O)N([H])C1([H])c3c([H])c([H])c([H])c([H])c3C([H])([H])C([H])([H])C1([H])[H])C2([H])[H]

$$$$
54:0:0
     RDKit          3D

 84 91  0  0  1  0  0  0  0  0999 V2000
  -28.8220  -22.7650   20.4400 C   0  0  0  0  0  3  0  0  0  0  0  0
  -28.8010  -21.3170   20.0880 C   0  0  0  0  0  3  0  0  0  0  0  0
  -30.9900  -20.2900   21.0570 C   0  0  0  0  0  1  0  0  0  0  0  0
  -29.5650  -19.8400   20.6780 C   0  0  0  0  0  3  0  0  0  0  0  0
  -29.7220  -16.7910   20.6010 C   0  0  0  0  0  2  0  0  0  0  0  0
  -29.8740  -18.1860   20.1230 C   0  0  0  0  0  2  0  0  0  0  0  0
  -30.4370  -15.3620   20.2330 C   0  0  0  0  0  0  0  0  0  0  0  0
  -30.4110  -12.8860   19.4460 C   0  0  0  0  0  2  0  0  0  0  0  0
  -29.5300  -12.6820   18.1880 C   0  0  0  0  0  2  0  0  0  0  0  0
  -28.0680  -12.4140   18.5960 C   0  0  0  0  0  2  0  0  0  0  0  0
  -27.6020  -13.3710   19.7220 C   0  0  0  0  0  3  0  0  0  0  0  0
  -28.6240  -13.5450   20.8640 C   0  0  0  0  0  2  0  0  0  0  0  0
  -29.8730  -14.0460   20.2560 N   0  0  0  0  0  0  0  0  0  0  0  0
  -31.6270  -15.3170   19.8840 O   0  0  0  0  0  0  0  0  0  0  0  0
  -25.2200  -13.9120   20.4410 C   0  0  0  0  0  0  0  0  0  0  0  0
  -24.1610  -13.1300   20.8080 C   0  0  0  0  0  0  0  0  0  0  0  0
  -24.6360  -11.7840   20.7970 C   0  0  0  0  0  0  0  0  0  0  0  0
  -26.2700  -13.0430   20.2150 N   0  0  0  0  0  0  0  0  0  0  0  0
  -25.9300  -11.7550   20.4980 N   0  0  0  0  0  0  0  0  0  0  0  0
  -23.9140  -10.5170   20.9930 C   0  0  0  0  0  0  0  0  0  0  0  0
  -24.3450   -9.5610   21.9380 C   0  0  0  0  0  3  0  0  0  0  0  0
  -23.6190   -8.3630   22.1210 C   0  0  0  0  0  3  0  0  0  0  0  0
  -22.4540   -8.1120   21.3570 C   0  0  0  0  0  0  0  0  0  0  0  0
  -22.0470   -9.0590   20.4010 C   0  0  0  0  0  3  0  0  0  0  0  0
  -22.7720  -10.2470   20.2150 C   0  0  0  0  0  3  0  0  0  0  0  0
  -21.6990   -6.9700   21.4510 O   0  0  0  0  0  0  0  0  0  0  0  0
  -21.6410   -6.2340   22.6080 C   0  0  0  0  0  0  0  0  0  0  0  0
  -21.1940   -6.7960   23.8240 C   0  0  0  0  0  3  0  0  0  0  0  0
  -21.0820   -5.9910   24.9740 C   0  0  0  0  0  3  0  0  0  0  0  0
  -21.4090   -4.6230   24.9110 C   0  0  0  0  0  0  0  0  0  0  0  0
  -21.8510   -4.0610   23.7000 C   0  0  0  0  0  3  0  0  0  0  0  0
  -21.9640   -4.8640   22.5520 C   0  0  0  0  0  0  0  0  0  0  0  0
  -22.3690   -4.3110   21.3840 F   0  0  0  0  0  0  0  0  0  0  0  0
  -21.2970   -3.8470   26.0140 F   0  0  0  0  0  0  0  0  0  0  0  0
  -22.7570  -13.6010   21.0570 C   0  0  0  0  0  0  0  0  0  0  0  0
  -22.0210  -12.9090   21.9220 N   0  0  0  0  0  0  0  0  0  0  0  0
  -22.3220  -14.6190   20.5240 O   0  0  0  0  0  0  0  0  0  0  0  0
  -22.3870  -12.0870   22.3820 H   0  0  0  0  0  0  0  0  0  0  0  0
  -21.0790  -13.2120   22.1300 H   0  0  0  0  0  0  0  0  0  0  0  0
  -25.3740  -15.2850   20.2660 N   0  0  0  0  0  0  0  0  0  0  0  0
  -24.6030  -15.9350   20.3790 H   0  0  0  0  0  0  0  0  0  0  0  0
  -26.2240  -15.7430   19.9610 H   0  0  0  0  0  0  0  0  0  0  0  0
  -28.0040  -24.2460   19.9460 C   0  0  0  0  0  2  0  0  0  0  0  0
  -28.1960  -25.8470   20.3450 O   0  0  0  0  0  0  0  0  0  0  0  0
  -24.6040  -31.8530   23.2360 C   0  0  0  0  0  0  0  0  0  0  0  0
  -27.1910  -26.9580   20.2480 C   0  0  0  0  0  0  0  0  0  0  0  0
  -23.4180  -30.4480   21.5980 C   0  0  0  0  0  3  0  0  0  0  0  0
  -24.8770  -28.8350   20.1880 C   0  0  0  0  0  0  0  0  0  0  0  0
  -25.9850  -30.6640   21.4600 C   0  0  0  0  0  2  0  0  0  0  0  0
  -26.0620  -29.2480   20.8120 C   0  0  0  0  0  0  0  0  0  0  0  0
  -27.2090  -28.3290   20.8210 C   0  0  0  0  0  3  0  0  0  0  0  0
  -25.9800  -26.7100   19.5660 C   0  0  0  0  0  3  0  0  0  0  0  0
  -24.8630  -27.5850   19.5430 C   0  0  0  0  0  3  0  0  0  0  0  0
  -23.6550  -29.7500   20.2280 C   0  0  0  0  0  2  0  0  0  0  0  0
  -24.6900  -31.0170   22.1520 N   0  0  0  0  0  0  0  0  0  0  0  0
  -23.5140  -32.1460   23.7520 O   0  0  0  0  0  0  0  0  0  0  0  0
  -22.7180  -29.4590   22.5730 C   0  0  0  0  0  0  0  0  0  0  0  0
  -21.3880  -29.2970   22.4470 N   0  0  0  0  0  0  0  0  0  0  0  0
  -23.3820  -28.8410   23.4090 O   0  0  0  0  0  0  0  0  0  0  0  0
  -20.9040  -29.8470   21.7510 H   0  0  0  0  0  0  0  0  0  0  0  0
  -18.0040  -28.0820   22.9580 C   0  0  0  0  0  0  0  0  0  0  0  0
  -20.5630  -28.3600   23.2230 C   0  0  0  0  0  3  0  0  0  0  0  0
  -20.6700  -26.9250   22.6580 C   0  0  0  0  0  2  0  0  0  0  0  0
  -19.5720  -26.5920   21.6450 C   0  0  0  0  0  2  0  0  0  0  0  0
  -18.1880  -26.7310   22.2860 C   0  0  0  0  0  2  0  0  0  0  0  0
  -19.1190  -28.8540   23.3830 C   0  0  0  0  0  0  0  0  0  0  0  0
  -18.8900  -30.1140   23.9760 C   0  0  0  0  0  3  0  0  0  0  0  0
  -17.5810  -30.6040   24.1460 C   0  0  0  0  0  3  0  0  0  0  0  0
  -16.4820  -29.8300   23.7340 C   0  0  0  0  0  3  0  0  0  0  0  0
  -16.6950  -28.5710   23.1460 C   0  0  0  0  0  3  0  0  0  0  0  0
  -25.8730  -32.5030   23.8700 C   0  0  0  0  0  3  0  0  0  0  0  0
  -26.3660  -31.7530   25.1700 C   0  0  1  0  0  0  0  0  0  0  0  0
  -25.2590  -31.5450   26.2290 C   0  0  0  0  0  1  0  0  0  0  0  0
  -26.9480  -30.3620   24.8240 C   0  0  0  0  0  1  0  0  0  0  0  0
  -27.5140  -32.5560   25.8330 C   0  0  0  0  0  1  0  0  0  0  0  0
  -25.5570  -33.9070   24.1850 N   0  0  0  0  0  0  0  0  0  0  0  0
  -25.8960  -34.9600   23.4280 C   0  0  0  0  0  0  0  0  0  0  0  0
  -26.5700  -34.8500   22.4000 O   0  0  0  0  0  0  0  0  0  0  0  0
  -24.9600  -34.0650   24.9830 H   0  0  0  0  0  0  0  0  0  0  0  0
  -24.1780  -36.7680   23.0700 C   0  0  0  0  0  1  0  0  0  0  0  0
  -25.4180  -36.3560   23.8810 C   0  0  0  0  0  3  0  0  0  0  0  0
  -27.5530  -37.2410   24.7120 C   0  0  0  0  0  1  0  0  0  0  0  0
  -26.4560  -37.4030   23.7620 N   0  0  0  0  0  0  0  0  0  0  0  0
  -26.0530  -38.3260   23.8930 H   0  0  0  0  0  0  0  0  0  0  0  0
  2  1  2  0
  2  4  1  0
  4  3  1  0
  6  5  1  0
  6  4  1  0
  7 13  1  0
  7  5  1  0
  8 13  1  0
  9 10  1  0
  9  8  1  0
 11 10  1  0
 11 18  1  0
 11 12  1  0
 13 12  1  0
 14  7  2  0
 15 16  2  0
 16 35  1  0
 17 16  1  0
 17 20  1  0
 18 15  1  0
 18 19  1  0
 19 17  2  0
 20 21  1  0
 21 22  2  0
 23 26  1  0
 23 22  1  0
 24 23  2  0
 25 24  1  0
 25 20  2  0
 26 27  1  0
 27 28  1  0
 28 29  2  0
 30 29  1  0
 30 34  1  0
 31 30  2  0
 32 27  2  0
 32 31  1  0
 33 32  1  0
 35 36  1  0
 36 39  1  0
 36 38  1  0
 37 35  2  0
 40 41  1  0
 40 15  1  0
 42 40  1  0
 43 44  1  0
 43  1  1  0
 45 56  2  0
 46 44  1  0
 46 51  1  0
 47 55  1  0
 47 57  1  0
 48 54  1  0
 48 50  1  0
 49 55  1  0
 50 51  2  0
 50 49  1  0
 52 46  2  0
 53 52  1  0
 53 48  2  0
 54 47  1  0
 55 45  1  0
 57 59  2  0
 58 57  1  0
 60 58  1  0
 61 70  2  0
 61 66  1  0
 62 58  1  0
 62 66  1  0
 63 62  1  0
 64 65  1  0
 64 63  1  0
 65 61  1  0
 66 67  2  0
 67 68  1  0
 69 68  2  0
 70 69  1  0
 71 45  1  0
 71 76  1  0
 71 72  1  0
 72 75  1  1
 72 73  1  0
 74 72  1  0
 76 79  1  0
 77 81  1  0
 77 76  1  0
 78 77  2  0
 81 80  1  0
 83 81  1  0
 83 84  1  0
 83 82  1  0
M  ISO  4   5 100   7 100  43 101  44 101
M  END
>  <TORSDO>  (55) 
F 19

>  <SCORE>  (55) 
-15.871

>  <name>  (55) 
54

>  <ligand_id>  (55) 
54

>  <original_smiles>  (55) 
[H]C(C(=O)N1C([H])([H])C([H])([H])C([H])([H])C([H])(n2nc(-c3c([H])c([H])c(Oc4c([H])c([H])c(F)c([H])c4F)c([H])c3[H])c(C(=O)N([H])[H])c2N([H])[H])C1([H])[H])=C([H])C([H])(C([H])=C([H])C([H])([H])Oc1c([H])c([H])c2c(c1[H])C([H])([H])N(C(=O)C([H])(N([H])C(=O)C([H])(N([H])C([H])([H])[H])C([H])([H])[H])C(C([H])([H])[H])(C([H])([H])[H])C([H])([H])[H])C([H])(C(=O)N([H])C1([H])c3c([H])c([H])c([H])c([H])c3C([H])([H])C([H])([H])C1([H])[H])C2([H])[H])C([H])([H])[H]

>  <smiles>  (55) 
[H]C(C(=O)N1C([H])([H])C([H])([H])C([H])([H])C([H])(n2nc(-c3c([H])c([H])c(Oc4c([H])c([H])c(F)c([H])c4F)c([H])c3[H])c(C(=O)N([H])[H])c2N([H])[H])C1([H])[H])=C([H])C([H])(C([H])=C([H])C([H])([H])Oc1c([H])c([H])c2c(c1[H])C([H])([H])N(C(=O)C([H])(N([H])C(=O)C([H])(N([H])C([H])([H])[H])C([H])([H])[H])C(C([H])([H])[H])(C([H])([H])[H])C([H])([H])[H])C([H])(C(=O)N([H])C1([H])c3c([H])c([H])c([H])c([H])c3C([H])([H])C([H])([H])C1([H])[H])C2([H])[H])C([H])([H])[H]

$$$$
55:0:0
     RDKit          3D

 86 94  0  0  1  0  0  0  0  0999 V2000
  -28.7990  -22.3190   20.0290 C   0  0  0  0  0  3  0  0  0  0  0  0
  -29.0000  -23.8330   20.5450 C   0  0  0  0  0  3  0  0  0  0  0  0
  -28.0810  -24.9780   19.9110 C   0  0  0  0  0  3  0  0  0  0  0  0
  -28.2860  -26.4220   20.2260 O   0  0  0  0  0  0  0  0  0  0  0  0
  -24.6210  -31.8850   23.2280 C   0  0  0  0  0  0  0  0  0  0  0  0
  -27.1840  -27.2990   20.1550 C   0  0  0  0  0  0  0  0  0  0  0  0
  -23.3970  -30.4910   21.6000 C   0  0  0  0  0  3  0  0  0  0  0  0
  -24.8300  -28.9380   20.1590 C   0  0  0  0  0  0  0  0  0  0  0  0
  -25.9400  -30.7920   21.4010 C   0  0  0  0  0  2  0  0  0  0  0  0
  -26.0070  -29.4140   20.7540 C   0  0  0  0  0  0  0  0  0  0  0  0
  -27.1850  -28.6050   20.7460 C   0  0  0  0  0  3  0  0  0  0  0  0
  -25.9890  -26.8980   19.5120 C   0  0  0  0  0  3  0  0  0  0  0  0
  -24.8250  -27.6860   19.5290 C   0  0  0  0  0  3  0  0  0  0  0  0
  -23.5990  -29.8200   20.2180 C   0  0  0  0  0  2  0  0  0  0  0  0
  -24.6720  -31.0750   22.1310 N   0  0  0  0  0  0  0  0  0  0  0  0
  -23.5430  -32.1680   23.7710 O   0  0  0  0  0  0  0  0  0  0  0  0
  -22.7420  -29.4750   22.5670 C   0  0  0  0  0  0  0  0  0  0  0  0
  -21.4140  -29.3040   22.4550 N   0  0  0  0  0  0  0  0  0  0  0  0
  -23.4270  -28.8490   23.3790 O   0  0  0  0  0  0  0  0  0  0  0  0
  -20.9210  -29.8660   21.7740 H   0  0  0  0  0  0  0  0  0  0  0  0
  -18.0370  -28.1160   22.9810 C   0  0  0  0  0  0  0  0  0  0  0  0
  -20.5970  -28.3710   23.2330 C   0  0  0  0  0  3  0  0  0  0  0  0
  -20.6920  -26.9360   22.6630 C   0  0  0  0  0  2  0  0  0  0  0  0
  -19.5820  -26.6110   21.6570 C   0  0  0  0  0  2  0  0  0  0  0  0
  -18.2050  -26.7630   22.3110 C   0  0  0  0  0  2  0  0  0  0  0  0
  -19.1600  -28.8770   23.4000 C   0  0  0  0  0  0  0  0  0  0  0  0
  -18.9480  -30.1430   23.9900 C   0  0  0  0  0  3  0  0  0  0  0  0
  -17.6460  -30.6470   24.1630 C   0  0  0  0  0  3  0  0  0  0  0  0
  -16.5360  -29.8830   23.7600 C   0  0  0  0  0  3  0  0  0  0  0  0
  -16.7330  -28.6200   23.1750 C   0  0  0  0  0  3  0  0  0  0  0  0
  -25.9120  -32.5160   23.8390 C   0  0  0  0  0  3  0  0  0  0  0  0
  -25.6030  -33.9110   24.1840 N   0  0  0  0  0  0  0  0  0  0  0  0
  -25.9180  -34.9700   23.4280 C   0  0  0  0  0  0  0  0  0  0  0  0
  -26.5700  -34.8780   22.3840 O   0  0  0  0  0  0  0  0  0  0  0  0
  -25.0250  -34.0590   24.9970 H   0  0  0  0  0  0  0  0  0  0  0  0
  -24.1750  -36.7600   23.1220 C   0  0  0  0  0  1  0  0  0  0  0  0
  -25.4340  -36.3540   23.9050 C   0  0  0  0  0  3  0  0  0  0  0  0
  -27.5830  -37.2390   24.6970 C   0  0  0  0  0  1  0  0  0  0  0  0
  -26.4600  -37.4120   23.7800 N   0  0  0  0  0  0  0  0  0  0  0  0
  -26.0530  -38.3290   23.9460 H   0  0  0  0  0  0  0  0  0  0  0  0
  -26.4440  -31.7370   25.1050 C   0  0  1  0  0  0  0  0  0  0  0  0
  -25.3640  -31.4940   26.1860 C   0  0  0  0  0  1  0  0  0  0  0  0
  -27.0210  -30.3620   24.6990 C   0  0  0  0  0  1  0  0  0  0  0  0
  -27.6030  -32.5290   25.7570 C   0  0  0  0  0  1  0  0  0  0  0  0
  -29.4210  -21.0990   20.8610 C   0  0  0  0  0  3  0  0  0  0  0  0
  -29.2620  -18.6580   20.7420 C   0  0  0  0  0  3  0  0  0  0  0  0
  -28.2220  -17.6770   20.3000 C   0  0  0  0  0  2  0  0  0  0  0  0
  -29.6810  -17.2280   20.2250 C   0  0  0  0  0  3  0  0  0  0  0  0
  -29.5100  -19.7750   20.1490 N   0  0  0  0  0  2  0  0  0  0  0  0
  -30.0640  -15.9760   21.1200 C   0  0  0  0  0  2  0  0  0  0  0  0
  -30.6500  -14.6660   20.4350 C   0  0  0  0  0  0  0  0  0  0  0  0
  -30.3850  -12.4330   19.3510 C   0  0  0  0  0  2  0  0  0  0  0  0
  -29.4470  -12.5680   18.1310 C   0  0  0  0  0  2  0  0  0  0  0  0
  -27.9730  -12.4280   18.5550 C   0  0  0  0  0  2  0  0  0  0  0  0
  -27.6240  -13.2900   19.7980 C   0  0  0  0  0  3  0  0  0  0  0  0
  -28.6810  -13.1250   20.9150 C   0  0  0  0  0  2  0  0  0  0  0  0
  -29.9920  -13.4610   20.3430 N   0  0  0  0  0  0  0  0  0  0  0  0
  -31.7710  -14.7770   19.9290 O   0  0  0  0  0  0  0  0  0  0  0  0
  -25.2330  -13.9070   20.5010 C   0  0  0  0  0  0  0  0  0  0  0  0
  -24.1590  -13.1450   20.8740 C   0  0  0  0  0  0  0  0  0  0  0  0
  -24.6100  -11.7890   20.8540 C   0  0  0  0  0  0  0  0  0  0  0  0
  -26.2720  -13.0190   20.2790 N   0  0  0  0  0  0  0  0  0  0  0  0
  -25.9020  -11.7390   20.5490 N   0  0  0  0  0  0  0  0  0  0  0  0
  -23.8710  -10.5350   21.0530 C   0  0  0  0  0  0  0  0  0  0  0  0
  -24.3050   -9.5590   21.9760 C   0  0  0  0  0  3  0  0  0  0  0  0
  -23.5670   -8.3710   22.1620 C   0  0  0  0  0  3  0  0  0  0  0  0
  -22.3800   -8.1490   21.4240 C   0  0  0  0  0  0  0  0  0  0  0  0
  -21.9650   -9.1140   20.4900 C   0  0  0  0  0  3  0  0  0  0  0  0
  -22.7040  -10.2930   20.3010 C   0  0  0  0  0  3  0  0  0  0  0  0
  -21.6120   -7.0140   21.5210 O   0  0  0  0  0  0  0  0  0  0  0  0
  -21.5840   -6.2580   22.6660 C   0  0  0  0  0  0  0  0  0  0  0  0
  -21.2170   -6.8080   23.9140 C   0  0  0  0  0  3  0  0  0  0  0  0
  -21.1350   -5.9820   25.0520 C   0  0  0  0  0  3  0  0  0  0  0  0
  -21.4100   -4.6050   24.9440 C   0  0  0  0  0  0  0  0  0  0  0  0
  -21.7710   -4.0540   23.7020 C   0  0  0  0  0  3  0  0  0  0  0  0
  -21.8560   -4.8780   22.5650 C   0  0  0  0  0  0  0  0  0  0  0  0
  -22.1820   -4.3380   21.3670 F   0  0  0  0  0  0  0  0  0  0  0  0
  -21.3230   -3.8080   26.0350 F   0  0  0  0  0  0  0  0  0  0  0  0
  -22.7660  -13.6370   21.1400 C   0  0  0  0  0  0  0  0  0  0  0  0
  -22.0290  -12.9540   22.0110 N   0  0  0  0  0  0  0  0  0  0  0  0
  -22.3370  -14.6610   20.6100 O   0  0  0  0  0  0  0  0  0  0  0  0
  -22.3880  -12.1270   22.4620 H   0  0  0  0  0  0  0  0  0  0  0  0
  -21.0940  -13.2660   22.2290 H   0  0  0  0  0  0  0  0  0  0  0  0
  -25.4090  -15.2740   20.3130 N   0  0  0  0  0  0  0  0  0  0  0  0
  -24.6500  -15.9390   20.4160 H   0  0  0  0  0  0  0  0  0  0  0  0
  -26.2690  -15.6990   19.9870 H   0  0  0  0  0  0  0  0  0  0  0  0
  1  2  1  0
  1 45  2  0
  3  4  1  0
  3  2  2  0
  5 16  2  0
  6  4  1  0
  6 11  1  0
  7 15  1  0
  7 17  1  0
  8 14  1  0
  8 10  1  0
  9 15  1  0
 10  9  1  0
 11 10  2  0
 12 13  1  0
 12  6  2  0
 13  8  2  0
 14  7  1  0
 15  5  1  0
 17 19  2  0
 18 17  1  0
 20 18  1  0
 21 30  2  0
 21 26  1  0
 22 18  1  0
 22 26  1  0
 23 22  1  0
 24 25  1  0
 24 23  1  0
 25 21  1  0
 26 27  2  0
 27 28  1  0
 29 28  2  0
 30 29  1  0
 31  5  1  0
 31 32  1  0
 31 41  1  0
 32 35  1  0
 33 37  1  0
 33 32  1  0
 34 33  2  0
 37 36  1  0
 39 37  1  0
 39 40  1  0
 39 38  1  0
 41 44  1  1
 41 42  1  0
 43 41  1  0
 46 49  1  0
 47 46  1  0
 48 47  1  0
 48 46  1  0
 48 50  1  0
 49 45  1  0
 51 50  1  0
 52 57  1  0
 53 54  1  0
 53 52  1  0
 55 54  1  0
 55 62  1  0
 55 56  1  0
 57 51  1  0
 57 56  1  0
 58 51  2  0
 59 60  2  0
 60 79  1  0
 61 60  1  0
 61 64  1  0
 62 59  1  0
 62 63  1  0
 63 61  2  0
 64 65  1  0
 65 66  2  0
 67 70  1  0
 67 66  1  0
 68 67  2  0
 69 68  1  0
 69 64  2  0
 70 71  1  0
 71 72  1  0
 72 73  2  0
 74 73  1  0
 74 78  1  0
 75 74  2  0
 76 71  2  0
 76 75  1  0
 77 76  1  0
 79 80  1  0
 80 83  1  0
 80 82  1  0
 81 79  2  0
 84 85  1  0
 84 59  1  0
 86 84  1  0
M  ISO  4   3 101   4 101  50 100  51 100
M  END
>  <TORSDO>  (56) 
F 21

>  <SCORE>  (56) 
-13.366

>  <name>  (56) 
55

>  <ligand_id>  (56) 
55

>  <original_smiles>  (56) 
[H]c1c([H])c([H])c2c(c1[H])C([H])([H])C([H])([H])C([H])([H])C2([H])N([H])C(=O)C1([H])N(C(=O)C([H])(N([H])C(=O)C([H])(N([H])C([H])([H])[H])C([H])([H])[H])C(C([H])([H])[H])(C([H])([H])[H])C([H])([H])[H])C([H])([H])c2c([H])c(OC([H])([H])C([H])([H])C([H])([H])C([H])([H])N=C3C([H])([H])C3([H])C([H])([H])C(=O)N3C([H])([H])C([H])([H])C([H])([H])C([H])(n4nc(-c5c([H])c([H])c(Oc6c([H])c([H])c(F)c([H])c6F)c([H])c5[H])c(C(=O)N([H])[H])c4N([H])[H])C3([H])[H])c([H])c([H])c2C1([H])[H]

>  <smiles>  (56) 
[H]c1c([H])c([H])c2c(c1[H])C([H])([H])C([H])([H])C([H])([H])C2([H])N([H])C(=O)C1([H])N(C(=O)C([H])(N([H])C(=O)C([H])(N([H])C([H])([H])[H])C([H])([H])[H])C(C([H])([H])[H])(C([H])([H])[H])C([H])([H])[H])C([H])([H])c2c([H])c(OC([H])([H])C([H])([H])C([H])([H])C([H])([H])N=C3C([H])([H])C3([H])C([H])([H])C(=O)N3C([H])([H])C([H])([H])C([H])([H])C([H])(n4nc(-c5c([H])c([H])c(Oc6c([H])c([H])c(F)c([H])c6F)c([H])c5[H])c(C(=O)N([H])[H])c4N([H])[H])C3([H])[H])c([H])c([H])c2C1([H])[H]

$$$$
56:0:0
     RDKit          3D

 91 95  0  0  1  0  0  0  0  0999 V2000
  -27.5110  -17.9070   18.9100 C   0  0  0  0  0  3  0  0  0  0  0  0
  -28.1440  -18.4650   17.6500 C   0  0  0  0  0  1  0  0  0  0  0  0
  -27.4310  -16.4460   18.5920 N   0  0  0  0  0  4  0  0  0  0  0  0
  -27.4470  -19.5110   19.9510 C   0  0  0  0  0  2  0  0  0  0  0  0
  -27.5860  -21.4220   19.5530 C   0  0  0  0  0  1  0  0  0  0  0  0
  -27.3930  -23.2390   20.2940 C   0  0  0  0  0  1  0  0  0  0  0  0
  -27.9200  -24.9530   20.2120 O   0  0  0  0  0  0  0  0  0  0  0  0
  -24.6700  -31.4840   23.1260 C   0  0  0  0  0  0  0  0  0  0  0  0
  -27.1510  -26.2910   20.2210 C   0  0  0  0  0  0  0  0  0  0  0  0
  -23.5720  -30.0630   21.4720 C   0  0  0  0  0  3  0  0  0  0  0  0
  -25.0360  -28.4230   20.1160 C   0  0  0  0  0  0  0  0  0  0  0  0
  -26.1670  -30.1510   21.4970 C   0  0  0  0  0  2  0  0  0  0  0  0
  -26.2210  -28.7280   20.8050 C   0  0  0  0  0  0  0  0  0  0  0  0
  -27.2880  -27.6800   20.8330 C   0  0  0  0  0  3  0  0  0  0  0  0
  -25.9810  -26.2230   19.4670 C   0  0  0  0  0  3  0  0  0  0  0  0
  -24.9600  -27.2030   19.4360 C   0  0  0  0  0  3  0  0  0  0  0  0
  -23.8720  -29.3930   20.1040 C   0  0  0  0  0  2  0  0  0  0  0  0
  -24.8230  -30.6110   22.0730 N   0  0  0  0  0  0  0  0  0  0  0  0
  -23.5530  -31.7760   23.5810 O   0  0  0  0  0  0  0  0  0  0  0  0
  -22.8410  -29.0670   22.4160 C   0  0  0  0  0  0  0  0  0  0  0  0
  -21.5100  -28.9170   22.2780 N   0  0  0  0  0  0  0  0  0  0  0  0
  -23.4870  -28.4320   23.2510 O   0  0  0  0  0  0  0  0  0  0  0  0
  -21.0430  -29.4750   21.5740 H   0  0  0  0  0  0  0  0  0  0  0  0
  -18.0980  -27.7730   22.8090 C   0  0  0  0  0  0  0  0  0  0  0  0
  -20.6690  -27.9860   23.0410 C   0  0  0  0  0  3  0  0  0  0  0  0
  -20.7300  -26.5610   22.4420 C   0  0  0  0  0  2  0  0  0  0  0  0
  -19.6110  -26.2810   21.4340 C   0  0  0  0  0  2  0  0  0  0  0  0
  -18.2400  -26.4380   22.0960 C   0  0  0  0  0  2  0  0  0  0  0  0
  -19.2330  -28.5080   23.2390 C   0  0  0  0  0  0  0  0  0  0  0  0
  -19.0430  -29.7540   23.8720 C   0  0  0  0  0  3  0  0  0  0  0  0
  -17.7480  -30.2640   24.0770 C   0  0  0  0  0  3  0  0  0  0  0  0
  -16.6270  -29.5260   23.6650 C   0  0  0  0  0  3  0  0  0  0  0  0
  -16.8040  -28.2820   23.0350 C   0  0  0  0  0  3  0  0  0  0  0  0
  -25.8920  -32.1790   23.8040 C   0  0  0  0  0  3  0  0  0  0  0  0
  -25.5490  -33.6020   24.0120 N   0  0  0  0  0  0  0  0  0  0  0  0
  -25.9700  -34.6240   23.2550 C   0  0  0  0  0  0  0  0  0  0  0  0
  -26.7450  -34.4750   22.3080 O   0  0  0  0  0  0  0  0  0  0  0  0
  -24.8700  -33.7940   24.7330 H   0  0  0  0  0  0  0  0  0  0  0  0
  -24.3240  -36.4310   22.6430 C   0  0  0  0  0  1  0  0  0  0  0  0
  -25.4570  -36.0400   23.6030 C   0  0  0  0  0  3  0  0  0  0  0  0
  -27.4890  -36.9350   24.6550 C   0  0  0  0  0  1  0  0  0  0  0  0
  -26.5130  -37.0780   23.5790 N   0  0  0  0  0  0  0  0  0  0  0  0
  -26.1060  -38.0070   23.6450 H   0  0  0  0  0  0  0  0  0  0  0  0
  -26.2890  -31.5360   25.1900 C   0  0  1  0  0  0  0  0  0  0  0  0
  -25.1100  -31.4110   26.1860 C   0  0  0  0  0  1  0  0  0  0  0  0
  -26.8960  -30.1260   25.0250 C   0  0  0  0  0  1  0  0  0  0  0  0
  -27.3950  -32.3940   25.8580 C   0  0  0  0  0  1  0  0  0  0  0  0
  -27.3540  -14.6010   18.6070 C   0  0  0  0  0  3  0  0  0  0  0  0
  -31.4850  -15.1460   21.0520 C   0  0  0  0  0  2  0  0  0  0  0  0
  -29.9600  -12.8860   18.8790 C   0  0  0  0  0  3  0  0  0  0  0  0
  -31.4680  -15.0180   17.9870 C   0  0  0  0  0  1  0  0  0  0  0  0
  -30.7070  -13.7640   20.8640 C   0  0  0  0  0  3  0  0  0  0  0  0
  -31.7300  -14.6390   19.6910 C   0  0  0  0  0  3  0  0  0  0  0  0
  -30.1000  -13.6810   17.5320 C   0  0  0  0  0  1  0  0  0  0  0  0
  -28.8820  -13.2320   18.5940 C   0  0  0  0  0  1  0  0  0  0  0  0
  -31.3990  -12.9810   21.9220 C   0  0  0  0  0  3  0  0  0  0  0  0
  -31.4860  -11.4420   20.2220 C   0  0  0  0  0  2  0  0  0  0  0  0
  -31.4400  -12.1850   18.7280 C   0  0  0  0  0  2  0  0  0  0  0  0
  -29.6130  -15.0760   19.4730 C   0  0  0  0  0 15  0  0  0  0  0  0
  -28.4040  -14.0630   21.2390 C   0  0  0  0  0  2  0  0  0  0  0  0
  -29.1000  -12.4590   21.8880 C   0  0  0  0  0  2  0  0  0  0  0  0
  -30.6510  -12.0470   21.5070 N   0  0  0  0  0  0  0  0  0  0  0  0
  -32.6490  -13.0420   22.0190 O   0  0  0  0  0  1  0  0  0  0  0  0
  -25.8120  -14.0660   21.4030 C   0  0  0  0  0  0  0  0  0  0  0  0
  -24.7310  -13.2370   21.3900 C   0  0  0  0  0  0  0  0  0  0  0  0
  -25.1990  -11.8980   21.1560 C   0  0  0  0  0  0  0  0  0  0  0  0
  -26.9550  -13.3610   21.1930 N   0  0  0  0  0  0  0  0  0  0  0  0
  -26.5370  -11.9990   20.9980 N   0  0  0  0  0  0  0  0  0  0  0  0
  -24.3800  -10.6270   21.0550 C   0  0  0  0  0  0  0  0  0  0  0  0
  -24.5890   -9.4860   21.8450 C   0  0  0  0  0  3  0  0  0  0  0  0
  -23.7260   -8.3520   21.7930 C   0  0  0  0  0  3  0  0  0  0  0  0
  -22.6060   -8.3400   20.9230 C   0  0  0  0  0  0  0  0  0  0  0  0
  -22.3900   -9.4780   20.1030 C   0  0  0  0  0  3  0  0  0  0  0  0
  -23.2680  -10.5940   20.1700 C   0  0  0  0  0  3  0  0  0  0  0  0
  -21.7360   -7.2910   20.7690 O   0  0  0  0  0  0  0  0  0  0  0  0
  -21.4580   -6.4090   21.7990 C   0  0  0  0  0  0  0  0  0  0  0  0
  -20.9250   -6.8370   23.0330 C   0  0  0  0  0  3  0  0  0  0  0  0
  -20.6140   -5.8970   24.0300 C   0  0  0  0  0  3  0  0  0  0  0  0
  -20.8160   -4.5290   23.8010 C   0  0  0  0  0  0  0  0  0  0  0  0
  -21.3350   -4.0920   22.5680 C   0  0  0  0  0  3  0  0  0  0  0  0
  -21.6540   -5.0240   21.5710 C   0  0  0  0  0  0  0  0  0  0  0  0
  -22.1330   -4.5950   20.3790 F   0  0  0  0  0  0  0  0  0  0  0  0
  -20.5120   -3.6250   24.7650 F   0  0  0  0  0  0  0  0  0  0  0  0
  -23.3240  -13.7080   21.5270 C   0  0  0  0  0  0  0  0  0  0  0  0
  -22.4890  -12.9490   22.2210 N   0  0  0  0  0  0  0  0  0  0  0  0
  -22.9910  -14.7980   21.0520 O   0  0  0  0  0  0  0  0  0  0  0  0
  -22.7770  -12.0740   22.6170 H   0  0  0  0  0  0  0  0  0  0  0  0
  -21.5220  -13.2670   22.3370 H   0  0  0  0  0  0  0  0  0  0  0  0
  -25.9390  -15.4260   21.5670 N   0  0  0  0  0  0  0  0  0  0  0  0
  -25.0840  -15.9800   21.5940 H   0  0  0  0  0  0  0  0  0  0  0  0
  -26.6990  -15.9260   21.0980 H   0  0  0  0  0  0  0  0  0  0  0  0
  1  2  1  0
  1  4  1  0
  3 48  3  0
  3  1  1  0
  5  4  1  0
  7  9  1  0
  7  6  1  0
  8 19  2  0
  9 14  1  0
 10 18  1  0
 10 20  1  0
 11 13  1  0
 12 18  1  0
 13 14  2  0
 13 12  1  0
 15  9  2  0
 16 15  1  0
 16 11  2  0
 17 11  1  0
 17 10  1  0
 18  8  1  0
 20 22  2  0
 21 20  1  0
 23 21  1  0
 24 33  2  0
 24 29  1  0
 25 21  1  0
 25 29  1  0
 26 25  1  0
 27 28  1  0
 27 26  1  0
 28 24  1  0
 29 30  2  0
 30 31  1  0
 32 31  2  0
 33 32  1  0
 34  8  1  0
 34 35  1  0
 34 44  1  0
 35 38  1  0
 36 40  1  0
 36 35  1  0
 37 36  2  0
 40 39  1  0
 42 40  1  0
 42 43  1  0
 42 41  1  0
 44 47  1  1
 44 45  1  0
 46 44  1  0
 52 49  1  0
 52 56  1  0
 53 51  1  0
 53 52  1  0
 53 49  1  0
 54 50  1  0
 55 50  1  0
 56 63  1  0
 57 62  1  0
 58 50  1  0
 58 57  1  0
 60 61  1  0
 62 61  1  0
 62 56  1  0
 64 89  1  0
 65 64  2  0
 65 84  1  0
 66 65  1  0
 67 60  1  0
 67 64  1  0
 68 66  2  0
 68 67  1  0
 69 66  1  0
 69 70  1  0
 71 70  2  0
 72 71  1  0
 73 74  1  0
 73 72  2  0
 74 69  2  0
 75 72  1  0
 75 76  1  0
 76 77  1  0
 77 78  2  0
 79 78  1  0
 79 83  1  0
 80 79  2  0
 81 76  2  0
 81 80  1  0
 82 81  1  0
 84 85  1  0
 85 88  1  0
 85 87  1  0
 86 84  2  0
 89 90  1  0
 91 89  1  0
M  ISO  4   6 101   7 101  52 100  56 100
M  END
>  <TORSDO>  (57) 
F 21

>  <SCORE>  (57) 
-10.583

>  <name>  (57) 
56

>  <ligand_id>  (57) 
56

>  <original_smiles>  (57) 
[H]c1c([H])c([H])c2c(c1[H])C([H])([H])C([H])([H])C([H])([H])C2([H])N([H])C(=O)C1([H])N(C(=O)C([H])(N([H])C(=O)C([H])(N([H])C([H])([H])[H])C([H])([H])[H])C(C([H])([H])[H])(C([H])([H])[H])C([H])([H])[H])C([H])([H])c2c([H])c(OC([H])([H])C([H])([H])C([H])([H])C(=NC([H])([H])C3([H])C([H])(C(=O)N4C([H])([H])C([H])([H])C([H])([H])C([H])(n5nc(-c6c([H])c([H])c(Oc7c([H])c([H])c(F)c([H])c7F)c([H])c6[H])c(C(=O)N([H])[H])c5N([H])[H])C4([H])[H])C([H])([H])C4([H])C([H])([H])C3([H])C4([H])[H])C([H])([H])[H])c([H])c([H])c2C1([H])[H]

>  <smiles>  (57) 
[H]c1c([H])c([H])c2c(c1[H])C([H])([H])C([H])([H])C([H])([H])C2([H])N([H])C(=O)C1([H])N(C(=O)C([H])(N([H])C(=O)C([H])(N([H])C([H])([H])[H])C([H])([H])[H])C(C([H])([H])[H])(C([H])([H])[H])C([H])([H])[H])C([H])([H])c2c([H])c(OC([H])([H])C([H])([H])C([H])([H])C(=NC([H])([H])C3([H])C([H])(C(=O)N4C([H])([H])C([H])([H])C([H])([H])C([H])(n5nc(-c6c([H])c([H])c(Oc7c([H])c([H])c(F)c([H])c7F)c([H])c6[H])c(C(=O)N([H])[H])c5N([H])[H])C4([H])[H])C([H])([H])C4([H])C([H])([H])C3([H])C4([H])[H])C([H])([H])[H])c([H])c([H])c2C1([H])[H]

$$$$
57:0:0
     RDKit          3D

 93100  0  0  1  0  0  0  0  0999 V2000
  -29.5730  -21.1710   20.8260 C   0  0  0  0  0  3  0  0  0  0  0  0
  -29.5170  -19.8330   20.0650 N   0  0  0  0  0  4  0  0  0  0  0  0
  -28.5350  -19.6350   19.9570 H   0  0  0  0  0  0  0  0  0  0  0  0
  -29.8700  -19.9800   19.1320 H   0  0  0  0  0  0  0  0  0  0  0  0
  -31.6340  -18.4280   20.1520 C   0  0  0  0  0  1  0  0  0  0  0  0
  -30.1600  -18.5460   20.6070 C   0  0  0  0  0  3  0  0  0  0  0  0
  -29.4760  -17.1620   20.1850 C   0  0  0  0  0  2  0  0  0  0  0  0
  -29.8750  -15.8260   20.9790 C   0  0  0  0  0  2  0  0  0  0  0  0
  -30.4970  -14.5840   20.2130 C   0  0  0  0  0  0  0  0  0  0  0  0
  -30.2160  -12.4060   19.0310 C   0  0  0  0  0  2  0  0  0  0  0  0
  -29.2100  -12.5980   17.8750 C   0  0  0  0  0  2  0  0  0  0  0  0
  -27.7600  -12.4170   18.3690 C   0  0  0  0  0  2  0  0  0  0  0  0
  -27.4730  -13.2100   19.6740 C   0  0  0  0  0  3  0  0  0  0  0  0
  -28.5900  -12.9820   20.7160 C   0  0  0  0  0  2  0  0  0  0  0  0
  -29.8640  -13.3700   20.0960 N   0  0  0  0  0  0  0  0  0  0  0  0
  -31.5910  -14.7600   19.6690 O   0  0  0  0  0  0  0  0  0  0  0  0
  -25.1090  -13.7670   20.5110 C   0  0  0  0  0  0  0  0  0  0  0  0
  -24.0680  -12.9760   20.9140 C   0  0  0  0  0  0  0  0  0  0  0  0
  -24.5410  -11.6300   20.8330 C   0  0  0  0  0  0  0  0  0  0  0  0
  -26.1510  -12.9030   20.2120 N   0  0  0  0  0  0  0  0  0  0  0  0
  -25.8150  -11.6110   20.4640 N   0  0  0  0  0  0  0  0  0  0  0  0
  -23.8360  -10.3570   21.0310 C   0  0  0  0  0  0  0  0  0  0  0  0
  -24.3000   -9.3910   21.9510 C   0  0  0  0  0  3  0  0  0  0  0  0
  -23.5930   -8.1830   22.1390 C   0  0  0  0  0  3  0  0  0  0  0  0
  -22.4090   -7.9320   21.4060 C   0  0  0  0  0  0  0  0  0  0  0  0
  -21.9630   -8.8870   20.4750 C   0  0  0  0  0  3  0  0  0  0  0  0
  -22.6700  -10.0860   20.2860 C   0  0  0  0  0  3  0  0  0  0  0  0
  -21.6720   -6.7770   21.5030 O   0  0  0  0  0  0  0  0  0  0  0  0
  -21.6440   -6.0360   22.6580 C   0  0  0  0  0  0  0  0  0  0  0  0
  -21.1810   -6.5750   23.8780 C   0  0  0  0  0  3  0  0  0  0  0  0
  -21.1030   -5.7580   25.0230 C   0  0  0  0  0  3  0  0  0  0  0  0
  -21.4770   -4.4030   24.9500 C   0  0  0  0  0  0  0  0  0  0  0  0
  -21.9320   -3.8630   23.7340 C   0  0  0  0  0  3  0  0  0  0  0  0
  -22.0120   -4.6770   22.5910 C   0  0  0  0  0  0  0  0  0  0  0  0
  -22.4310   -4.1460   21.4160 F   0  0  0  0  0  0  0  0  0  0  0  0
  -21.3950   -3.6160   26.0480 F   0  0  0  0  0  0  0  0  0  0  0  0
  -22.6800  -13.4330   21.2610 C   0  0  0  0  0  0  0  0  0  0  0  0
  -22.0000  -12.7110   22.1450 N   0  0  0  0  0  0  0  0  0  0  0  0
  -22.2100  -14.4660   20.7850 O   0  0  0  0  0  0  0  0  0  0  0  0
  -22.3930  -11.8760   22.5520 H   0  0  0  0  0  0  0  0  0  0  0  0
  -21.0700  -12.9980   22.4190 H   0  0  0  0  0  0  0  0  0  0  0  0
  -25.2520  -15.1420   20.3550 N   0  0  0  0  0  0  0  0  0  0  0  0
  -24.4850  -15.7860   20.5140 H   0  0  0  0  0  0  0  0  0  0  0  0
  -26.0860  -15.5970   20.0040 H   0  0  0  0  0  0  0  0  0  0  0  0
  -30.9160  -22.2700   22.7800 C   0  0  0  0  0  1  0  0  0  0  0  0
  -30.9720  -21.4280   21.4880 C   0  0  0  0  0  3  0  0  0  0  0  0
  -33.4850  -21.7520   20.9400 C   0  0  0  0  0  1  0  0  0  0  0  0
  -32.0300  -21.9520   20.4860 C   0  0  0  0  0  2  0  0  0  0  0  0
  -29.0290  -22.4430   19.9840 C   0  0  0  0  0  2  0  0  0  0  0  0
  -27.7250  -23.8370   21.7370 C   0  0  0  0  0  1  0  0  0  0  0  0
  -28.8040  -23.8950   20.6450 C   0  0  0  0  0  3  0  0  0  0  0  0
  -28.4700  -25.1020   19.6600 C   0  0  0  0  0  2  0  0  0  0  0  0
  -28.3810  -26.4750   20.2200 O   0  0  0  0  0  0  0  0  0  0  0  0
  -24.5700  -31.8340   23.1850 C   0  0  0  0  0  0  0  0  0  0  0  0
  -27.2270  -27.2770   20.1490 C   0  0  0  0  0  0  0  0  0  0  0  0
  -23.3910  -30.4470   21.5160 C   0  0  0  0  0  3  0  0  0  0  0  0
  -24.8600  -28.8970   20.1130 C   0  0  0  0  0  0  0  0  0  0  0  0
  -25.9350  -30.7550   21.3820 C   0  0  0  0  0  2  0  0  0  0  0  0
  -26.0180  -29.3780   20.7330 C   0  0  0  0  0  0  0  0  0  0  0  0
  -27.2000  -28.5790   20.7430 C   0  0  0  0  0  3  0  0  0  0  0  0
  -26.0350  -26.8460   19.5150 C   0  0  0  0  0  3  0  0  0  0  0  0
  -24.8710  -27.6360   19.5010 C   0  0  0  0  0  3  0  0  0  0  0  0
  -23.6270  -29.7770   20.1380 C   0  0  0  0  0  2  0  0  0  0  0  0
  -24.6500  -31.0290   22.0850 N   0  0  0  0  0  0  0  0  0  0  0  0
  -23.4780  -32.1140   23.7000 O   0  0  0  0  0  0  0  0  0  0  0  0
  -22.7070  -29.4290   22.4600 C   0  0  0  0  0  0  0  0  0  0  0  0
  -21.3820  -29.2660   22.3120 N   0  0  0  0  0  0  0  0  0  0  0  0
  -23.3690  -28.7900   23.2830 O   0  0  0  0  0  0  0  0  0  0  0  0
  -20.9090  -29.8330   21.6220 H   0  0  0  0  0  0  0  0  0  0  0  0
  -17.9820  -28.1210   22.7750 C   0  0  0  0  0  0  0  0  0  0  0  0
  -20.5430  -28.3310   23.0640 C   0  0  0  0  0  3  0  0  0  0  0  0
  -20.6240  -26.9070   22.4680 C   0  0  0  0  0  2  0  0  0  0  0  0
  -19.5230  -26.6180   21.4430 C   0  0  0  0  0  2  0  0  0  0  0  0
  -18.1400  -26.7780   22.0800 C   0  0  0  0  0  2  0  0  0  0  0  0
  -19.1110  -28.8570   23.2230 C   0  0  0  0  0  0  0  0  0  0  0  0
  -18.9100  -30.1140   23.8320 C   0  0  0  0  0  3  0  0  0  0  0  0
  -17.6140  -30.6360   23.9960 C   0  0  0  0  0  3  0  0  0  0  0  0
  -16.4980  -29.8970   23.5640 C   0  0  0  0  0  3  0  0  0  0  0  0
  -16.6830  -28.6410   22.9600 C   0  0  0  0  0  3  0  0  0  0  0  0
  -25.8430  -32.4580   23.8330 C   0  0  0  0  0  3  0  0  0  0  0  0
  -26.3310  -31.6800   25.1170 C   0  0  1  0  0  0  0  0  0  0  0  0
  -25.2140  -31.4410   26.1600 C   0  0  0  0  0  1  0  0  0  0  0  0
  -26.9180  -30.3030   24.7320 C   0  0  0  0  0  1  0  0  0  0  0  0
  -27.4690  -32.4680   25.8070 C   0  0  0  0  0  1  0  0  0  0  0  0
  -25.5340  -33.8570   24.1630 N   0  0  0  0  0  0  0  0  0  0  0  0
  -25.8700  -34.9100   23.4080 C   0  0  0  0  0  0  0  0  0  0  0  0
  -26.5450  -34.8070   22.3800 O   0  0  0  0  0  0  0  0  0  0  0  0
  -24.9370  -34.0130   24.9640 H   0  0  0  0  0  0  0  0  0  0  0  0
  -24.1430  -36.7030   23.0520 C   0  0  0  0  0  1  0  0  0  0  0  0
  -25.3830  -36.2990   23.8650 C   0  0  0  0  0  3  0  0  0  0  0  0
  -27.5120  -37.1880   24.7060 C   0  0  0  0  0  1  0  0  0  0  0  0
  -26.4170  -37.3520   23.7540 N   0  0  0  0  0  0  0  0  0  0  0  0
  -26.0090  -38.2720   23.8960 H   0  0  0  0  0  0  0  0  0  0  0  0
  1 49  1  0
  1 46  1  0
  2  6  1  0
  2  1  1  0
  3  2  1  0
  4  2  1  0
  6  5  1  0
  7  6  1  0
  7  8  1  0
  9  8  1  0
 10 15  1  0
 11 12  1  0
 11 10  1  0
 13 12  1  0
 13 20  1  0
 13 14  1  0
 15  9  1  0
 15 14  1  0
 16  9  2  0
 17 18  2  0
 18 37  1  0
 19 18  1  0
 19 22  1  0
 20 21  1  0
 20 17  1  0
 21 19  2  0
 22 23  1  0
 23 24  2  0
 25 28  1  0
 25 24  1  0
 26 25  2  0
 27 26  1  0
 27 22  2  0
 28 29  1  0
 29 30  1  0
 30 31  2  0
 32 31  1  0
 32 36  1  0
 33 32  2  0
 34 29  2  0
 34 33  1  0
 35 34  1  0
 37 38  1  0
 38 41  1  0
 38 40  1  0
 39 37  2  0
 42 17  1  0
 42 43  1  0
 44 42  1  0
 46 45  1  0
 48 47  1  0
 48 46  1  0
 49 51  1  0
 51 50  1  0
 52 53  1  0
 52 51  1  0
 54 65  2  0
 55 53  1  0
 55 60  1  0
 56 64  1  0
 56 66  1  0
 57 63  1  0
 57 59  1  0
 58 64  1  0
 59 60  2  0
 59 58  1  0
 61 55  2  0
 62 61  1  0
 62 57  2  0
 63 56  1  0
 64 54  1  0
 66 68  2  0
 67 66  1  0
 69 67  1  0
 70 79  2  0
 70 75  1  0
 71 67  1  0
 71 75  1  0
 72 71  1  0
 73 74  1  0
 73 72  1  0
 74 70  1  0
 75 76  2  0
 76 77  1  0
 78 77  2  0
 79 78  1  0
 80 54  1  0
 80 85  1  0
 80 81  1  0
 81 84  1  1
 81 82  1  0
 83 81  1  0
 85 88  1  0
 86 90  1  0
 86 85  1  0
 87 86  2  0
 90 89  1  0
 92 90  1  0
 92 93  1  0
 92 91  1  0
M  ISO  4   8 100   9 100  52 101  53 101
M  END
>  <TORSDO>  (58) 
F 25

>  <SCORE>  (58) 
-12.078

>  <name>  (58) 
57

>  <ligand_id>  (58) 
57

>  <original_smiles>  (58) 
[H]c1c([H])c([H])c2c(c1[H])C([H])([H])C([H])([H])C([H])([H])C2([H])N([H])C(=O)C1([H])N(C(=O)C([H])(N([H])C(=O)C([H])(N([H])C([H])([H])[H])C([H])([H])[H])C(C([H])([H])[H])(C([H])([H])[H])C([H])([H])[H])C([H])([H])c2c([H])c(OC([H])([H])C([H])(C([H])([H])[H])C([H])([H])C([H])(C([H])(C([H])([H])[H])C([H])([H])C([H])([H])[H])[N+]([H])([H])C([H])(C([H])([H])[H])C([H])([H])C([H])([H])C(=O)N3C([H])([H])C([H])([H])C([H])([H])C([H])(n4nc(-c5c([H])c([H])c(Oc6c([H])c([H])c(F)c([H])c6F)c([H])c5[H])c(C(=O)N([H])[H])c4N([H])[H])C3([H])[H])c([H])c([H])c2C1([H])[H]

>  <smiles>  (58) 
[H]c1c([H])c([H])c2c(c1[H])C([H])([H])C([H])([H])C([H])([H])C2([H])N([H])C(=O)C1([H])N(C(=O)C([H])(N([H])C(=O)C([H])(N([H])C([H])([H])[H])C([H])([H])[H])C(C([H])([H])[H])(C([H])([H])[H])C([H])([H])[H])C([H])([H])c2c([H])c(OC([H])([H])C([H])(C([H])([H])[H])C([H])([H])C([H])(C([H])(C([H])([H])[H])C([H])([H])C([H])([H])[H])[N+]([H])([H])C([H])(C([H])([H])[H])C([H])([H])C([H])([H])C(=O)N3C([H])([H])C([H])([H])C([H])([H])C([H])(n4nc(-c5c([H])c([H])c(Oc6c([H])c([H])c(F)c([H])c6F)c([H])c5[H])c(C(=O)N([H])[H])c4N([H])[H])C3([H])[H])c([H])c([H])c2C1([H])[H]

$$$$
58:0:0
     RDKit          3D

 89 96  0  0  1  0  0  0  0  0999 V2000
  -27.2170  -21.7400   20.7130 C   0  0  0  0  0  1  0  0  0  0  0  0
  -28.4070  -21.9490   19.7560 C   0  0  0  0  0  3  0  0  0  0  0  0
  -29.4410  -20.7530   19.8220 N   0  0  0  0  0  4  0  0  0  0  0  0
  -30.1460  -21.0020   20.4960 H   0  0  0  0  0  0  0  0  0  0  0  0
  -29.9050  -20.7660   18.9270 H   0  0  0  0  0  0  0  0  0  0  0  0
  -28.7720  -19.0500   21.6090 C   0  0  0  0  0  1  0  0  0  0  0  0
  -29.0680  -19.2420   20.1070 C   0  0  0  0  0  3  0  0  0  0  0  0
  -30.1380  -17.9490   18.1260 C   0  0  0  0  0  1  0  0  0  0  0  0
  -30.0810  -17.9840   19.6620 C   0  0  0  0  0  3  0  0  0  0  0  0
  -29.8460  -16.4230   20.2210 C   0  0  0  0  0  2  0  0  0  0  0  0
  -30.7080  -15.0750   19.8320 C   0  0  0  0  0  0  0  0  0  0  0  0
  -30.5760  -12.7400   18.8770 C   0  0  0  0  0  2  0  0  0  0  0  0
  -29.5620  -12.7360   17.7080 C   0  0  0  0  0  2  0  0  0  0  0  0
  -28.1250  -12.5260   18.2250 C   0  0  0  0  0  2  0  0  0  0  0  0
  -27.7940  -13.4360   19.4360 C   0  0  0  0  0  3  0  0  0  0  0  0
  -28.9140  -13.4090   20.4970 C   0  0  0  0  0  2  0  0  0  0  0  0
  -30.1620  -13.8000   19.8330 N   0  0  0  0  0  0  0  0  0  0  0  0
  -31.8660  -15.1940   19.4150 O   0  0  0  0  0  0  0  0  0  0  0  0
  -25.4730  -14.0180   20.3490 C   0  0  0  0  0  0  0  0  0  0  0  0
  -24.4280  -13.2410   20.7650 C   0  0  0  0  0  0  0  0  0  0  0  0
  -24.8760  -11.8880   20.6620 C   0  0  0  0  0  0  0  0  0  0  0  0
  -26.4880  -13.1390   20.0100 N   0  0  0  0  0  0  0  0  0  0  0  0
  -26.1410  -11.8510   20.2630 N   0  0  0  0  0  0  0  0  0  0  0  0
  -24.1520  -10.6260   20.8610 C   0  0  0  0  0  0  0  0  0  0  0  0
  -24.5660   -9.6800   21.8270 C   0  0  0  0  0  3  0  0  0  0  0  0
  -23.8430   -8.4820   22.0090 C   0  0  0  0  0  3  0  0  0  0  0  0
  -22.6910   -8.2210   21.2290 C   0  0  0  0  0  0  0  0  0  0  0  0
  -22.2970   -9.1550   20.2560 C   0  0  0  0  0  3  0  0  0  0  0  0
  -23.0210  -10.3450   20.0700 C   0  0  0  0  0  3  0  0  0  0  0  0
  -21.9410   -7.0730   21.3210 O   0  0  0  0  0  0  0  0  0  0  0  0
  -21.7730   -6.4190   22.5150 C   0  0  0  0  0  0  0  0  0  0  0  0
  -21.1970   -7.0530   23.6370 C   0  0  0  0  0  3  0  0  0  0  0  0
  -20.9780   -6.3220   24.8230 C   0  0  0  0  0  3  0  0  0  0  0  0
  -21.3220   -4.9590   24.8840 C   0  0  0  0  0  0  0  0  0  0  0  0
  -21.8880   -4.3250   23.7650 C   0  0  0  0  0  3  0  0  0  0  0  0
  -22.1100   -5.0520   22.5830 C   0  0  0  0  0  0  0  0  0  0  0  0
  -22.6360   -4.4310   21.5010 F   0  0  0  0  0  0  0  0  0  0  0  0
  -21.1030   -4.2550   26.0210 F   0  0  0  0  0  0  0  0  0  0  0  0
  -23.0560  -13.7200   21.1440 C   0  0  0  0  0  0  0  0  0  0  0  0
  -22.3850  -13.0130   22.0450 N   0  0  0  0  0  0  0  0  0  0  0  0
  -22.5920  -14.7580   20.6740 O   0  0  0  0  0  0  0  0  0  0  0  0
  -22.7730  -12.1710   22.4470 H   0  0  0  0  0  0  0  0  0  0  0  0
  -21.4690  -13.3210   22.3410 H   0  0  0  0  0  0  0  0  0  0  0  0
  -25.6400  -15.3930   20.2070 N   0  0  0  0  0  0  0  0  0  0  0  0
  -24.8890  -16.0480   20.3890 H   0  0  0  0  0  0  0  0  0  0  0  0
  -26.4630  -15.8370   19.8220 H   0  0  0  0  0  0  0  0  0  0  0  0
  -28.9060  -23.5470   19.8630 C   0  0  0  0  0  3  0  0  0  0  0  0
  -27.8730  -24.8490   19.7170 C   0  0  0  0  0  3  0  0  0  0  0  0
  -28.1840  -26.3520   19.8840 O   0  0  0  0  0  0  0  0  0  0  0  0
  -24.6040  -31.8280   23.2080 C   0  0  0  0  0  0  0  0  0  0  0  0
  -27.1170  -27.3120   19.8900 C   0  0  0  0  0  0  0  0  0  0  0  0
  -23.3590  -30.4870   21.5580 C   0  0  0  0  0  3  0  0  0  0  0  0
  -24.7690  -29.0040   20.0150 C   0  0  0  0  0  0  0  0  0  0  0  0
  -25.8980  -30.8080   21.3040 C   0  0  0  0  0  2  0  0  0  0  0  0
  -25.9660  -29.4490   20.5930 C   0  0  0  0  0  0  0  0  0  0  0  0
  -27.1420  -28.6190   20.5140 C   0  0  0  0  0  3  0  0  0  0  0  0
  -25.8920  -26.9650   19.2780 C   0  0  0  0  0  3  0  0  0  0  0  0
  -24.7430  -27.7760   19.3400 C   0  0  0  0  0  3  0  0  0  0  0  0
  -23.5320  -29.8740   20.1450 C   0  0  0  0  0  2  0  0  0  0  0  0
  -24.6420  -31.0580   22.0800 N   0  0  0  0  0  0  0  0  0  0  0  0
  -23.5370  -32.0720   23.7900 O   0  0  0  0  0  0  0  0  0  0  0  0
  -22.7330  -29.4250   22.4990 C   0  0  0  0  0  0  0  0  0  0  0  0
  -21.4110  -29.2090   22.3880 N   0  0  0  0  0  0  0  0  0  0  0  0
  -23.4410  -28.8000   23.2940 O   0  0  0  0  0  0  0  0  0  0  0  0
  -20.8920  -29.7680   21.7270 H   0  0  0  0  0  0  0  0  0  0  0  0
  -18.0890  -27.8520   22.8780 C   0  0  0  0  0  0  0  0  0  0  0  0
  -20.6350  -28.2240   23.1470 C   0  0  0  0  0  3  0  0  0  0  0  0
  -20.7990  -26.8050   22.5530 C   0  0  0  0  0  2  0  0  0  0  0  0
  -19.7100  -26.4480   21.5350 C   0  0  0  0  0  2  0  0  0  0  0  0
  -18.3250  -26.5230   22.1830 C   0  0  0  0  0  2  0  0  0  0  0  0
  -19.1730  -28.6580   23.3170 C   0  0  0  0  0  0  0  0  0  0  0  0
  -18.8970  -29.9010   23.9290 C   0  0  0  0  0  3  0  0  0  0  0  0
  -17.5710  -30.3390   24.1030 C   0  0  0  0  0  3  0  0  0  0  0  0
  -16.5020  -29.5300   23.6790 C   0  0  0  0  0  3  0  0  0  0  0  0
  -16.7620  -28.2890   23.0730 C   0  0  0  0  0  3  0  0  0  0  0  0
  -25.8980  -32.4570   23.8100 C   0  0  0  0  0  3  0  0  0  0  0  0
  -26.4430  -31.6710   25.0660 C   0  0  1  0  0  0  0  0  0  0  0  0
  -25.3740  -31.4190   26.1550 C   0  0  0  0  0  1  0  0  0  0  0  0
  -27.0170  -30.2970   24.6490 C   0  0  0  0  0  1  0  0  0  0  0  0
  -27.6080  -32.4560   25.7140 C   0  0  0  0  0  1  0  0  0  0  0  0
  -25.5950  -33.8500   24.1710 N   0  0  0  0  0  0  0  0  0  0  0  0
  -25.8770  -34.9150   23.4090 C   0  0  0  0  0  0  0  0  0  0  0  0
  -26.4880  -34.8290   22.3410 O   0  0  0  0  0  0  0  0  0  0  0  0
  -25.0480  -33.9920   25.0080 H   0  0  0  0  0  0  0  0  0  0  0  0
  -24.1060  -36.6900   23.1910 C   0  0  0  0  0  1  0  0  0  0  0  0
  -25.4060  -36.2940   23.9100 C   0  0  0  0  0  3  0  0  0  0  0  0
  -27.5780  -37.2050   24.6030 C   0  0  0  0  0  1  0  0  0  0  0  0
  -26.4140  -37.3620   23.7350 N   0  0  0  0  0  0  0  0  0  0  0  0
  -26.0060  -38.2760   23.9160 H   0  0  0  0  0  0  0  0  0  0  0  0
  2  3  1  0
  2 47  1  0
  2  1  1  0
  3  7  1  0
  3  4  1  0
  5  3  1  0
  7  6  1  0
  9  8  1  0
  9  7  1  0
  9 10  1  0
 11 17  1  0
 11 10  1  0
 12 17  1  0
 13 14  1  0
 13 12  1  0
 15 14  1  0
 15 22  1  0
 15 16  1  0
 17 16  1  0
 18 11  2  0
 19 20  2  0
 20 39  1  0
 21 20  1  0
 21 24  1  0
 22 23  1  0
 22 19  1  0
 23 21  2  0
 24 25  1  0
 25 26  2  0
 27 30  1  0
 27 26  1  0
 28 27  2  0
 29 28  1  0
 29 24  2  0
 30 31  1  0
 31 36  2  0
 31 32  1  0
 32 33  2  0
 33 34  1  0
 34 38  1  0
 35 34  2  0
 36 35  1  0
 37 36  1  0
 39 40  1  0
 40 43  1  0
 40 42  1  0
 41 39  2  0
 44 19  1  0
 44 45  1  0
 46 44  1  0
 48 47  2  0
 48 49  1  0
 49 51  1  0
 50 61  2  0
 51 56  1  0
 52 60  1  0
 52 62  1  0
 53 59  1  0
 53 55  1  0
 54 60  1  0
 55 54  1  0
 56 55  2  0
 57 58  1  0
 57 51  2  0
 58 53  2  0
 59 52  1  0
 60 50  1  0
 62 64  2  0
 63 62  1  0
 65 63  1  0
 66 75  2  0
 66 71  1  0
 67 63  1  0
 67 71  1  0
 68 67  1  0
 69 70  1  0
 69 68  1  0
 70 66  1  0
 71 72  2  0
 72 73  1  0
 74 73  2  0
 75 74  1  0
 76 50  1  0
 76 81  1  0
 76 77  1  0
 77 80  1  1
 77 78  1  0
 79 77  1  0
 81 84  1  0
 82 86  1  0
 82 81  1  0
 83 82  2  0
 86 85  1  0
 88 86  1  0
 88 89  1  0
 88 87  1  0
M  ISO  4  10 100  11 100  48 101  49 101
M  END
>  <TORSDO>  (59) 
F 22

>  <SCORE>  (59) 
-11.107

>  <name>  (59) 
58

>  <ligand_id>  (59) 
58

>  <original_smiles>  (59) 
[H]c1c([H])c([H])c2c(c1[H])C([H])([H])C([H])([H])C([H])([H])C2([H])N([H])C(=O)C1([H])N(C(=O)C([H])(N([H])C(=O)C([H])(N([H])C([H])([H])[H])C([H])([H])[H])C(C([H])([H])[H])(C([H])([H])[H])C([H])([H])[H])C([H])([H])c2c([H])c(OC([H])([H])C([H])([H])C([H])(C([H])([H])[H])[N+]([H])([H])C([H])(C([H])([H])[H])C([H])(C([H])([H])[H])C([H])([H])C(=O)N3C([H])([H])C([H])([H])C([H])([H])C([H])(n4nc(-c5c([H])c([H])c(Oc6c([H])c([H])c(F)c([H])c6F)c([H])c5[H])c(C(=O)N([H])[H])c4N([H])[H])C3([H])[H])c([H])c([H])c2C1([H])[H]

>  <smiles>  (59) 
[H]c1c([H])c([H])c2c(c1[H])C([H])([H])C([H])([H])C([H])([H])C2([H])N([H])C(=O)C1([H])N(C(=O)C([H])(N([H])C(=O)C([H])(N([H])C([H])([H])[H])C([H])([H])[H])C(C([H])([H])[H])(C([H])([H])[H])C([H])([H])[H])C([H])([H])c2c([H])c(OC([H])([H])C([H])([H])C([H])(C([H])([H])[H])[N+]([H])([H])C([H])(C([H])([H])[H])C([H])(C([H])([H])[H])C([H])([H])C(=O)N3C([H])([H])C([H])([H])C([H])([H])C([H])(n4nc(-c5c([H])c([H])c(Oc6c([H])c([H])c(F)c([H])c6F)c([H])c5[H])c(C(=O)N([H])[H])c4N([H])[H])C3([H])[H])c([H])c([H])c2C1([H])[H]

$$$$
59:0:0
     RDKit          3D

 91 99  0  0  1  0  0  0  0  0999 V2000
  -29.3590  -21.2040   20.3800 C   0  0  0  0  0  3  0  0  0  0  0  0
  -31.3700  -21.6140   24.2230 C   0  0  0  0  0  3  0  0  0  0  0  0
  -32.1280  -21.4630   23.0470 C   0  0  0  0  0  3  0  0  0  0  0  0
  -29.9630  -21.6210   24.1590 C   0  0  0  0  0  3  0  0  0  0  0  0
  -31.4800  -21.3220   21.8040 C   0  0  0  0  0  3  0  0  0  0  0  0
  -29.3120  -21.4780   22.9170 C   0  0  0  0  0  3  0  0  0  0  0  0
  -30.0640  -21.3250   21.7300 C   0  0  0  0  0  0  0  0  0  0  0  0
  -27.9800  -19.5690   18.9760 C   0  0  0  0  0  1  0  0  0  0  0  0
  -28.9370  -19.6240   20.1000 N   0  0  1  0  0  4  0  0  0  0  0  0
  -28.3630  -19.4290   20.9060 H   0  0  0  0  0  0  0  0  0  0  0  0
  -29.9190  -18.2850   20.0560 C   0  0  0  0  0  3  0  0  0  0  0  0
  -29.4660  -16.5600   20.1180 C   0  0  0  0  0  3  0  0  0  0  0  0
  -30.3170  -15.0600   19.8850 C   0  0  0  0  0  0  0  0  0  0  0  0
  -30.2570  -12.6160   19.0220 C   0  0  0  0  0  2  0  0  0  0  0  0
  -29.2630  -12.4650   17.8420 C   0  0  0  0  0  2  0  0  0  0  0  0
  -27.8330  -12.2050   18.3550 C   0  0  0  0  0  2  0  0  0  0  0  0
  -27.4600  -13.1490   19.5280 C   0  0  0  0  0  3  0  0  0  0  0  0
  -28.5740  -13.2640   20.5880 C   0  0  0  0  0  2  0  0  0  0  0  0
  -29.7890  -13.7430   19.9050 N   0  0  0  0  0  0  0  0  0  0  0  0
  -31.5060  -15.0910   19.5350 O   0  0  0  0  0  0  0  0  0  0  0  0
  -25.1510  -13.7010   20.4700 C   0  0  0  0  0  0  0  0  0  0  0  0
  -24.1100  -12.9210   20.8920 C   0  0  0  0  0  0  0  0  0  0  0  0
  -24.5590  -11.5690   20.7820 C   0  0  0  0  0  0  0  0  0  0  0  0
  -26.1640  -12.8270   20.1190 N   0  0  0  0  0  0  0  0  0  0  0  0
  -25.8260  -11.5360   20.3760 N   0  0  0  0  0  0  0  0  0  0  0  0
  -23.8320  -10.3070   20.9840 C   0  0  0  0  0  0  0  0  0  0  0  0
  -24.2940   -9.3250   21.8880 C   0  0  0  0  0  3  0  0  0  0  0  0
  -23.5660   -8.1320   22.0830 C   0  0  0  0  0  3  0  0  0  0  0  0
  -22.3630   -7.9110   21.3720 C   0  0  0  0  0  0  0  0  0  0  0  0
  -21.9190   -8.8810   20.4540 C   0  0  0  0  0  3  0  0  0  0  0  0
  -22.6490  -10.0660   20.2590 C   0  0  0  0  0  3  0  0  0  0  0  0
  -21.6050   -6.7700   21.4740 O   0  0  0  0  0  0  0  0  0  0  0  0
  -21.5820   -6.0180   22.6210 C   0  0  0  0  0  0  0  0  0  0  0  0
  -21.1680   -6.5590   23.8570 C   0  0  0  0  0  3  0  0  0  0  0  0
  -21.0960   -5.7350   24.9990 C   0  0  0  0  0  3  0  0  0  0  0  0
  -21.4240   -4.3680   24.9040 C   0  0  0  0  0  0  0  0  0  0  0  0
  -21.8280   -3.8280   23.6710 C   0  0  0  0  0  3  0  0  0  0  0  0
  -21.9040   -4.6480   22.5330 C   0  0  0  0  0  0  0  0  0  0  0  0
  -22.2750   -4.1150   21.3440 F   0  0  0  0  0  0  0  0  0  0  0  0
  -21.3460   -3.5750   25.9980 F   0  0  0  0  0  0  0  0  0  0  0  0
  -22.7390  -13.4000   21.2760 C   0  0  0  0  0  0  0  0  0  0  0  0
  -22.0680  -12.6850   22.1700 N   0  0  0  0  0  0  0  0  0  0  0  0
  -22.2780  -14.4440   20.8170 O   0  0  0  0  0  0  0  0  0  0  0  0
  -22.4560  -11.8400   22.5650 H   0  0  0  0  0  0  0  0  0  0  0  0
  -21.1480  -12.9850   22.4620 H   0  0  0  0  0  0  0  0  0  0  0  0
  -25.3170  -15.0750   20.3240 N   0  0  0  0  0  0  0  0  0  0  0  0
  -24.5650  -15.7290   20.5110 H   0  0  0  0  0  0  0  0  0  0  0  0
  -26.1440  -15.5190   19.9460 H   0  0  0  0  0  0  0  0  0  0  0  0
  -28.4210  -22.6900   20.0740 C   0  0  0  0  0  2  0  0  0  0  0  0
  -28.3630  -24.3170   20.7880 C   0  0  0  0  0  2  0  0  0  0  0  0
  -28.3540  -25.8790   20.3340 O   0  0  0  0  0  0  0  0  0  0  0  0
  -24.6150  -31.7790   23.1780 C   0  0  0  0  0  0  0  0  0  0  0  0
  -27.2750  -26.8880   20.3540 C   0  0  0  0  0  0  0  0  0  0  0  0
  -23.4650  -30.3410   21.5390 C   0  0  0  0  0  3  0  0  0  0  0  0
  -24.9550  -28.7070   20.2070 C   0  0  0  0  0  0  0  0  0  0  0  0
  -26.0300  -30.5730   21.4510 C   0  0  0  0  0  2  0  0  0  0  0  0
  -26.1250  -29.1510   20.8380 C   0  0  0  0  0  0  0  0  0  0  0  0
  -27.2830  -28.2620   20.8790 C   0  0  0  0  0  3  0  0  0  0  0  0
  -26.0710  -26.5710   19.6900 C   0  0  0  0  0  3  0  0  0  0  0  0
  -24.9490  -27.4330   19.6170 C   0  0  0  0  0  3  0  0  0  0  0  0
  -23.7320  -29.6200   20.1910 C   0  0  0  0  0  2  0  0  0  0  0  0
  -24.7240  -30.9250   22.1090 N   0  0  0  0  0  0  0  0  0  0  0  0
  -23.5130  -32.0790   23.6640 O   0  0  0  0  0  0  0  0  0  0  0  0
  -22.7480  -29.3660   22.5090 C   0  0  0  0  0  0  0  0  0  0  0  0
  -21.4170  -29.2270   22.3740 N   0  0  0  0  0  0  0  0  0  0  0  0
  -23.3970  -28.7350   23.3470 O   0  0  0  0  0  0  0  0  0  0  0  0
  -20.9500  -29.7860   21.6730 H   0  0  0  0  0  0  0  0  0  0  0  0
  -17.9980  -28.1340   22.8950 C   0  0  0  0  0  0  0  0  0  0  0  0
  -20.5670  -28.3130   23.1450 C   0  0  0  0  0  3  0  0  0  0  0  0
  -20.6180  -26.8820   22.5610 C   0  0  0  0  0  2  0  0  0  0  0  0
  -19.5000  -26.6020   21.5520 C   0  0  0  0  0  2  0  0  0  0  0  0
  -18.1280  -26.7850   22.2070 C   0  0  0  0  0  2  0  0  0  0  0  0
  -19.1440  -28.8570   23.3210 C   0  0  0  0  0  0  0  0  0  0  0  0
  -18.9690  -30.1190   23.9290 C   0  0  0  0  0  3  0  0  0  0  0  0
  -17.6820  -30.6580   24.1130 C   0  0  0  0  0  3  0  0  0  0  0  0
  -16.5510  -29.9300   23.7050 C   0  0  0  0  0  3  0  0  0  0  0  0
  -16.7100  -28.6690   23.1020 C   0  0  0  0  0  3  0  0  0  0  0  0
  -25.8730  -32.4300   23.8310 C   0  0  0  0  0  3  0  0  0  0  0  0
  -25.5410  -33.8300   24.1480 N   0  0  0  0  0  0  0  0  0  0  0  0
  -25.8710  -34.8860   23.3920 C   0  0  0  0  0  0  0  0  0  0  0  0
  -26.5500  -34.7840   22.3680 O   0  0  0  0  0  0  0  0  0  0  0  0
  -24.9360  -33.9830   24.9410 H   0  0  0  0  0  0  0  0  0  0  0  0
  -24.1290  -36.6650   23.0290 C   0  0  0  0  0  1  0  0  0  0  0  0
  -25.3710  -36.2730   23.8440 C   0  0  0  0  0  3  0  0  0  0  0  0
  -27.4920  -37.1860   24.6820 C   0  0  0  0  0  1  0  0  0  0  0  0
  -26.3940  -37.3360   23.7300 N   0  0  0  0  0  0  0  0  0  0  0  0
  -25.9760  -38.2520   23.8700 H   0  0  0  0  0  0  0  0  0  0  0  0
  -26.3580  -31.6760   25.1320 C   0  0  1  0  0  0  0  0  0  0  0  0
  -25.2350  -31.4440   26.1680 C   0  0  0  0  0  1  0  0  0  0  0  0
  -26.9620  -30.2960   24.7800 C   0  0  0  0  0  1  0  0  0  0  0  0
  -27.4820  -32.4850   25.8200 C   0  0  0  0  0  1  0  0  0  0  0  0
  1 49  1  0
  1  7  1  0
  3  2  2  0
  4  2  1  0
  5  3  1  0
  6  4  2  0
  7  5  2  0
  7  6  1  0
  8  9  1  0
  9  1  1  0
  9 10  1  1
 11  9  1  0
 11 12  2  0
 13 19  1  0
 13 12  1  0
 14 19  1  0
 15 16  1  0
 15 14  1  0
 17 16  1  0
 17 24  1  0
 17 18  1  0
 19 18  1  0
 20 13  2  0
 21 22  2  0
 22 41  1  0
 23 22  1  0
 23 26  1  0
 24 25  1  0
 24 21  1  0
 25 23  2  0
 26 27  1  0
 27 28  2  0
 29 32  1  0
 29 28  1  0
 30 29  2  0
 31 30  1  0
 31 26  2  0
 32 33  1  0
 33 34  1  0
 34 35  2  0
 36 35  1  0
 36 40  1  0
 37 36  2  0
 38 33  2  0
 38 37  1  0
 39 38  1  0
 41 42  1  0
 42 45  1  0
 42 44  1  0
 43 41  2  0
 46 21  1  0
 46 47  1  0
 48 46  1  0
 49 50  1  0
 51 53  1  0
 51 50  1  0
 52 63  2  0
 53 58  1  0
 54 62  1  0
 54 64  1  0
 55 57  1  0
 56 62  1  0
 57 58  2  0
 57 56  1  0
 59 53  2  0
 60 59  1  0
 60 55  2  0
 61 55  1  0
 61 54  1  0
 62 52  1  0
 64 66  2  0
 65 64  1  0
 67 65  1  0
 68 77  2  0
 68 73  1  0
 69 65  1  0
 69 73  1  0
 70 69  1  0
 71 72  1  0
 71 70  1  0
 72 68  1  0
 73 74  2  0
 74 75  1  0
 76 75  2  0
 77 76  1  0
 78 52  1  0
 78 79  1  0
 78 88  1  0
 79 82  1  0
 80 84  1  0
 80 79  1  0
 81 80  2  0
 84 83  1  0
 86 84  1  0
 86 87  1  0
 86 85  1  0
 88 91  1  1
 88 89  1  0
 90 88  1  0
M  ISO  4  12 100  13 100  50 101  51 101
M  END
>  <TORSDO>  (60) 
F 22

>  <SCORE>  (60) 
-14.972

>  <name>  (60) 
59

>  <ligand_id>  (60) 
59

>  <original_smiles>  (60) 
[H]c1c([H])c([H])c(C([H])(C([H])([H])C([H])([H])Oc2c([H])c([H])c3c(c2[H])C([H])([H])N(C(=O)C([H])(N([H])C(=O)C([H])(N([H])C([H])([H])[H])C([H])([H])[H])C(C([H])([H])[H])(C([H])([H])[H])C([H])([H])[H])C([H])(C(=O)N([H])C2([H])c4c([H])c([H])c([H])c([H])c4C([H])([H])C([H])([H])C2([H])[H])C3([H])[H])[N+]([H])(C([H])([H])[H])C([H])([H])C([H])([H])C(=O)N2C([H])([H])C([H])([H])C([H])([H])C([H])(n3nc(-c4c([H])c([H])c(Oc5c([H])c([H])c(F)c([H])c5F)c([H])c4[H])c(C(=O)N([H])[H])c3N([H])[H])C2([H])[H])c([H])c1[H]

>  <smiles>  (60) 
[H]c1c([H])c([H])c(C([H])(C([H])([H])C([H])([H])Oc2c([H])c([H])c3c(c2[H])C([H])([H])N(C(=O)C([H])(N([H])C(=O)C([H])(N([H])C([H])([H])[H])C([H])([H])[H])C(C([H])([H])[H])(C([H])([H])[H])C([H])([H])[H])C([H])(C(=O)N([H])C2([H])c4c([H])c([H])c([H])c([H])c4C([H])([H])C([H])([H])C2([H])[H])C3([H])[H])[N+]([H])(C([H])([H])[H])C([H])([H])C([H])([H])C(=O)N2C([H])([H])C([H])([H])C([H])([H])C([H])(n3nc(-c4c([H])c([H])c(Oc5c([H])c([H])c(F)c([H])c5F)c([H])c4[H])c(C(=O)N([H])[H])c3N([H])[H])C2([H])[H])c([H])c1[H]

$$$$
60:0:0
     RDKit          3D

 91 99  0  0  1  0  0  0  0  0999 V2000
  -30.0650  -21.8610   20.6810 N   0  0  0  0  0  4  0  0  0  0  0  0
  -30.8310  -22.1760   20.1080 H   0  0  0  0  0  0  0  0  0  0  0  0
  -30.3880  -21.8560   21.6360 H   0  0  0  0  0  0  0  0  0  0  0  0
  -28.7990  -19.7190   21.1990 C   0  0  0  0  0  2  0  0  0  0  0  0
  -29.4330  -18.3340   21.3950 C   0  0  0  0  0  2  0  0  0  0  0  0
  -29.7410  -20.4710   20.2470 C   0  0  0  0  0  3  0  0  0  0  0  0
  -30.9650  -19.5310   20.1530 C   0  0  0  0  0  3  0  0  0  0  0  0
  -31.7320  -19.6900   18.8280 C   0  0  0  0  0  1  0  0  0  0  0  0
  -30.3670  -18.1910   20.2790 N   0  0  0  0  0  0  0  0  0  0  0  0
  -31.3130  -17.0800   20.5010 C   0  0  0  0  0  2  0  0  0  0  0  0
  -30.6070  -15.7060   20.7630 C   0  0  0  0  0  2  0  0  0  0  0  0
  -31.1370  -14.4950   19.9470 C   0  0  0  0  0  0  0  0  0  0  0  0
  -30.6870  -12.3300   18.8300 C   0  0  0  0  0  2  0  0  0  0  0  0
  -29.7090  -12.5470   17.6570 C   0  0  0  0  0  2  0  0  0  0  0  0
  -28.2500  -12.4740   18.1470 C   0  0  0  0  0  2  0  0  0  0  0  0
  -27.9960  -13.3500   19.4040 C   0  0  0  0  0  3  0  0  0  0  0  0
  -29.0900  -13.1260   20.4740 C   0  0  0  0  0  2  0  0  0  0  0  0
  -30.3990  -13.3540   19.8460 N   0  0  0  0  0  0  0  0  0  0  0  0
  -32.2110  -14.6190   19.3490 O   0  0  0  0  0  0  0  0  0  0  0  0
  -25.6550  -14.0580   20.2050 C   0  0  0  0  0  0  0  0  0  0  0  0
  -24.5720  -13.3350   20.6250 C   0  0  0  0  0  0  0  0  0  0  0  0
  -24.9720  -11.9650   20.5850 C   0  0  0  0  0  0  0  0  0  0  0  0
  -26.6530  -13.1330   19.9410 N   0  0  0  0  0  0  0  0  0  0  0  0
  -26.2460  -11.8680   20.2250 N   0  0  0  0  0  0  0  0  0  0  0  0
  -24.2010  -10.7370   20.8170 C   0  0  0  0  0  0  0  0  0  0  0  0
  -24.5960   -9.7890   21.7860 C   0  0  0  0  0  3  0  0  0  0  0  0
  -23.8280   -8.6240   22.0040 C   0  0  0  0  0  3  0  0  0  0  0  0
  -22.6510   -8.4000   21.2520 C   0  0  0  0  0  0  0  0  0  0  0  0
  -22.2740   -9.3350   20.2730 C   0  0  0  0  0  3  0  0  0  0  0  0
  -23.0410  -10.4910   20.0540 C   0  0  0  0  0  3  0  0  0  0  0  0
  -21.8560   -7.2860   21.3760 O   0  0  0  0  0  0  0  0  0  0  0  0
  -21.7250   -6.6250   22.5700 C   0  0  0  0  0  0  0  0  0  0  0  0
  -21.2470   -7.2730   23.7320 C   0  0  0  0  0  3  0  0  0  0  0  0
  -21.0630   -6.5390   24.9210 C   0  0  0  0  0  3  0  0  0  0  0  0
  -21.3420   -5.1600   24.9490 C   0  0  0  0  0  0  0  0  0  0  0  0
  -21.8110   -4.5130   23.7930 C   0  0  0  0  0  3  0  0  0  0  0  0
  -21.9980   -5.2440   22.6060 C   0  0  0  0  0  0  0  0  0  0  0  0
  -22.4320   -4.6100   21.4900 F   0  0  0  0  0  0  0  0  0  0  0  0
  -21.1570   -4.4530   26.0900 F   0  0  0  0  0  0  0  0  0  0  0  0
  -23.2090  -13.8740   20.9550 C   0  0  0  0  0  0  0  0  0  0  0  0
  -22.4980  -13.2240   21.8690 N   0  0  0  0  0  0  0  0  0  0  0  0
  -22.7870  -14.9060   20.4350 O   0  0  0  0  0  0  0  0  0  0  0  0
  -22.8550  -12.3910   22.3140 H   0  0  0  0  0  0  0  0  0  0  0  0
  -21.5830  -13.5650   22.1290 H   0  0  0  0  0  0  0  0  0  0  0  0
  -25.8700  -15.4190   20.0100 N   0  0  0  0  0  0  0  0  0  0  0  0
  -25.1370  -16.1090   20.1440 H   0  0  0  0  0  0  0  0  0  0  0  0
  -26.7350  -15.8200   19.6670 H   0  0  0  0  0  0  0  0  0  0  0  0
  -28.9540  -22.8390   20.5100 C   0  0  0  0  0  2  0  0  0  0  0  0
  -29.3730  -24.3370   20.5930 C   0  0  0  0  0  2  0  0  0  0  0  0
  -28.2730  -25.2470   20.0000 C   0  0  0  0  0  2  0  0  0  0  0  0
  -28.4340  -26.6660   20.2100 O   0  0  0  0  0  0  0  0  0  0  0  0
  -24.4960  -31.8070   23.1870 C   0  0  0  0  0  0  0  0  0  0  0  0
  -27.2710  -27.4180   20.1310 C   0  0  0  0  0  0  0  0  0  0  0  0
  -23.3510  -30.4050   21.5030 C   0  0  0  0  0  3  0  0  0  0  0  0
  -24.8610  -28.9140   20.0900 C   0  0  0  0  0  0  0  0  0  0  0  0
  -25.8790  -30.7970   21.3720 C   0  0  0  0  0  2  0  0  0  0  0  0
  -25.9990  -29.4340   20.7180 C   0  0  0  0  0  0  0  0  0  0  0  0
  -27.2060  -28.6940   20.7370 C   0  0  0  0  0  3  0  0  0  0  0  0
  -26.1140  -26.9320   19.4690 C   0  0  0  0  0  3  0  0  0  0  0  0
  -24.9160  -27.6640   19.4540 C   0  0  0  0  0  3  0  0  0  0  0  0
  -23.6040  -29.7540   20.1190 C   0  0  0  0  0  2  0  0  0  0  0  0
  -24.5920  -31.0170   22.0790 N   0  0  0  0  0  0  0  0  0  0  0  0
  -23.3980  -32.0570   23.7020 O   0  0  0  0  0  0  0  0  0  0  0  0
  -22.6930  -29.3620   22.4350 C   0  0  0  0  0  0  0  0  0  0  0  0
  -21.3790  -29.1480   22.2630 N   0  0  0  0  0  0  0  0  0  0  0  0
  -23.3640  -28.7490   23.2710 O   0  0  0  0  0  0  0  0  0  0  0  0
  -20.8980  -29.6990   21.5660 H   0  0  0  0  0  0  0  0  0  0  0  0
  -18.0210  -27.8580   22.6260 C   0  0  0  0  0  0  0  0  0  0  0  0
  -20.5560  -28.1870   23.0020 C   0  0  0  0  0  3  0  0  0  0  0  0
  -20.7220  -26.7590   22.4320 C   0  0  0  0  0  2  0  0  0  0  0  0
  -19.6720  -26.4050   21.3760 C   0  0  0  0  0  2  0  0  0  0  0  0
  -18.2620  -26.5130   21.9620 C   0  0  0  0  0  2  0  0  0  0  0  0
  -19.0990  -28.6520   23.1010 C   0  0  0  0  0  0  0  0  0  0  0  0
  -18.8210  -29.9080   23.6790 C   0  0  0  0  0  3  0  0  0  0  0  0
  -17.4970  -30.3750   23.7870 C   0  0  0  0  0  3  0  0  0  0  0  0
  -16.4330  -29.5790   23.3290 C   0  0  0  0  0  3  0  0  0  0  0  0
  -16.6950  -28.3220   22.7560 C   0  0  0  0  0  3  0  0  0  0  0  0
  -25.7570  -32.4510   23.8420 C   0  0  0  0  0  3  0  0  0  0  0  0
  -25.4280  -33.8450   24.1610 N   0  0  0  0  0  0  0  0  0  0  0  0
  -25.7600  -34.8980   23.4020 C   0  0  0  0  0  0  0  0  0  0  0  0
  -26.4470  -34.7990   22.3830 O   0  0  0  0  0  0  0  0  0  0  0  0
  -24.8250  -33.9980   24.9570 H   0  0  0  0  0  0  0  0  0  0  0  0
  -24.0080  -36.6590   23.0140 C   0  0  0  0  0  1  0  0  0  0  0  0
  -25.2470  -36.2820   23.8420 C   0  0  0  0  0  3  0  0  0  0  0  0
  -27.3570  -37.2080   24.6910 C   0  0  0  0  0  1  0  0  0  0  0  0
  -26.2650  -37.3500   23.7310 N   0  0  0  0  0  0  0  0  0  0  0  0
  -25.8430  -38.2650   23.8620 H   0  0  0  0  0  0  0  0  0  0  0  0
  -26.2470  -31.6810   25.1300 C   0  0  1  0  0  0  0  0  0  0  0  0
  -25.1270  -31.4260   26.1640 C   0  0  0  0  0  1  0  0  0  0  0  0
  -26.8570  -30.3140   24.7460 C   0  0  0  0  0  1  0  0  0  0  0  0
  -27.3690  -32.4870   25.8260 C   0  0  0  0  0  1  0  0  0  0  0  0
  1  3  1  0
  2  1  1  0
  4  5  1  0
  6  1  1  0
  6  4  1  0
  7  8  1  0
  7  6  1  0
  7  9  1  0
  9 10  1  0
  9  5  1  0
 10 11  1  0
 12 11  1  0
 13 18  1  0
 14 15  1  0
 14 13  1  0
 16 15  1  0
 16 23  1  0
 16 17  1  0
 18 12  1  0
 18 17  1  0
 19 12  2  0
 20 21  2  0
 21 40  1  0
 22 21  1  0
 22 25  1  0
 23 20  1  0
 23 24  1  0
 24 22  2  0
 25 26  1  0
 26 27  2  0
 28 31  1  0
 28 27  1  0
 29 28  2  0
 30 29  1  0
 30 25  2  0
 31 32  1  0
 32 37  2  0
 32 33  1  0
 33 34  2  0
 34 35  1  0
 35 39  1  0
 36 35  2  0
 37 36  1  0
 38 37  1  0
 40 41  1  0
 41 44  1  0
 41 43  1  0
 42 40  2  0
 45 46  1  0
 45 20  1  0
 47 45  1  0
 48 49  1  0
 48  1  1  0
 50 51  1  0
 50 49  1  0
 52 63  2  0
 53 51  1  0
 53 58  1  0
 54 62  1  0
 54 64  1  0
 55 61  1  0
 55 57  1  0
 56 62  1  0
 57 58  2  0
 57 56  1  0
 59 53  2  0
 60 59  1  0
 60 55  2  0
 61 54  1  0
 62 52  1  0
 64 66  2  0
 65 64  1  0
 67 65  1  0
 68 77  2  0
 68 73  1  0
 69 65  1  0
 69 73  1  0
 70 69  1  0
 71 72  1  0
 71 70  1  0
 72 68  1  0
 73 74  2  0
 74 75  1  0
 76 75  2  0
 77 76  1  0
 78 52  1  0
 78 79  1  0
 78 88  1  0
 79 82  1  0
 80 84  1  0
 80 79  1  0
 81 80  2  0
 84 83  1  0
 86 84  1  0
 86 87  1  0
 86 85  1  0
 88 91  1  1
 88 89  1  0
 90 88  1  0
M  ISO  4  11 100  12 100  50 101  51 101
M  END
>  <TORSDO>  (61) 
F 22

>  <SCORE>  (61) 
-11.888

>  <name>  (61) 
60

>  <ligand_id>  (61) 
60

>  <original_smiles>  (61) 
[H]c1c([H])c([H])c2c(c1[H])C([H])([H])C([H])([H])C([H])([H])C2([H])N([H])C(=O)C1([H])N(C(=O)C([H])(N([H])C(=O)C([H])(N([H])C([H])([H])[H])C([H])([H])[H])C(C([H])([H])[H])(C([H])([H])[H])C([H])([H])[H])C([H])([H])c2c([H])c(OC([H])([H])C([H])([H])C([H])([H])[N+]([H])([H])C3([H])C([H])([H])C([H])([H])N(C([H])([H])C([H])([H])C(=O)N4C([H])([H])C([H])([H])C([H])([H])C([H])(n5nc(-c6c([H])c([H])c(Oc7c([H])c([H])c(F)c([H])c7F)c([H])c6[H])c(C(=O)N([H])[H])c5N([H])[H])C4([H])[H])C3([H])C([H])([H])[H])c([H])c([H])c2C1([H])[H]

>  <smiles>  (61) 
[H]c1c([H])c([H])c2c(c1[H])C([H])([H])C([H])([H])C([H])([H])C2([H])N([H])C(=O)C1([H])N(C(=O)C([H])(N([H])C(=O)C([H])(N([H])C([H])([H])[H])C([H])([H])[H])C(C([H])([H])[H])(C([H])([H])[H])C([H])([H])[H])C([H])([H])c2c([H])c(OC([H])([H])C([H])([H])C([H])([H])[N+]([H])([H])C3([H])C([H])([H])C([H])([H])N(C([H])([H])C([H])([H])C(=O)N4C([H])([H])C([H])([H])C([H])([H])C([H])(n5nc(-c6c([H])c([H])c(Oc7c([H])c([H])c(F)c([H])c7F)c([H])c6[H])c(C(=O)N([H])[H])c5N([H])[H])C4([H])[H])C3([H])C([H])([H])[H])c([H])c([H])c2C1([H])[H]

$$$$
61:0:0
     RDKit          3D

 98108  0  0  1  0  0  0  0  0999 V2000
  -29.2100  -24.2380   18.1360 C   0  0  0  0  0  0  0  0  0  0  0  0
  -31.5220  -20.0220   18.4210 C   0  0  0  0  0  2  0  0  0  0  0  0
  -31.7950  -22.2030   19.8390 C   0  0  0  0  0  2  0  0  0  0  0  0
  -30.7320  -22.2120   17.5070 C   0  0  0  0  0  2  0  0  0  0  0  0
  -31.5170  -18.9090   19.4960 C   0  0  0  0  0  2  0  0  0  0  0  0
  -29.5380  -19.9170   20.5160 C   0  0  0  0  0  2  0  0  0  0  0  0
  -28.6190  -23.8140   19.5030 C   0  0  0  0  0  3  0  0  0  0  0  0
  -29.5820  -21.2270   19.5610 C   0  0  0  0  0  3  0  0  0  0  0  0
  -29.4070  -22.6530   20.2660 C   0  0  0  0  0  3  0  0  0  0  0  0
  -30.9230  -21.4050   18.8340 C   0  0  1  0  0  0  0  0  0  0  0  0
  -30.8570  -23.0930   20.6950 C   0  0  1  0  0  0  0  0  0  0  0  0
  -31.0480  -22.8010   22.1880 C   0  0  0  0  0  1  0  0  0  0  0  0
  -31.2360  -24.6040   20.5160 C   0  0  0  0  0  1  0  0  0  0  0  0
  -30.2370  -23.6000   17.5430 N   0  0  0  0  0  0  0  0  0  0  0  0
  -30.1600  -18.6120   20.0240 N   0  0  2  0  0  4  0  0  0  0  0  0
  -28.8000  -25.2670   17.6050 O   0  0  0  0  0  0  0  0  0  0  0  0
  -30.6620  -24.1760   16.8290 H   0  0  0  0  0  0  0  0  0  0  0  0
  -29.6010  -18.2920   19.2460 H   0  0  0  0  0  0  0  0  0  0  0  0
  -28.0750  -25.0390   20.4090 C   0  0  0  0  0  2  0  0  0  0  0  0
  -28.2750  -26.4780   20.1220 O   0  0  0  0  0  0  0  0  0  0  0  0
  -24.5270  -31.8240   23.2020 C   0  0  0  0  0  0  0  0  0  0  0  0
  -27.1450  -27.2970   20.1210 C   0  0  0  0  0  0  0  0  0  0  0  0
  -23.3260  -30.4370   21.5400 C   0  0  0  0  0  3  0  0  0  0  0  0
  -24.7810  -28.8890   20.1120 C   0  0  0  0  0  0  0  0  0  0  0  0
  -25.8660  -30.7320   21.3980 C   0  0  0  0  0  2  0  0  0  0  0  0
  -25.9370  -29.3630   20.7450 C   0  0  0  0  0  0  0  0  0  0  0  0
  -27.1230  -28.5810   20.7430 C   0  0  0  0  0  3  0  0  0  0  0  0
  -25.9730  -26.8630   19.4730 C   0  0  0  0  0  3  0  0  0  0  0  0
  -24.8020  -27.6490   19.4500 C   0  0  0  0  0  3  0  0  0  0  0  0
  -23.5530  -29.7700   20.1560 C   0  0  0  0  0  2  0  0  0  0  0  0
  -24.5880  -31.0220   22.1000 N   0  0  0  0  0  0  0  0  0  0  0  0
  -23.4450  -32.1060   23.7350 O   0  0  0  0  0  0  0  0  0  0  0  0
  -22.6500  -29.4240   22.4970 C   0  0  0  0  0  0  0  0  0  0  0  0
  -21.3180  -29.2760   22.3850 N   0  0  0  0  0  0  0  0  0  0  0  0
  -23.3220  -28.7750   23.3040 O   0  0  0  0  0  0  0  0  0  0  0  0
  -20.8290  -29.8620   21.7230 H   0  0  0  0  0  0  0  0  0  0  0  0
  -17.9220  -28.1370   22.9040 C   0  0  0  0  0  0  0  0  0  0  0  0
  -20.4880  -28.3410   23.1490 C   0  0  0  0  0  3  0  0  0  0  0  0
  -20.5530  -26.9180   22.5470 C   0  0  0  0  0  2  0  0  0  0  0  0
  -19.4330  -26.6350   21.5390 C   0  0  0  0  0  2  0  0  0  0  0  0
  -18.0630  -26.7970   22.2010 C   0  0  0  0  0  2  0  0  0  0  0  0
  -19.0600  -28.8700   23.3310 C   0  0  0  0  0  0  0  0  0  0  0  0
  -18.8710  -30.1290   23.9440 C   0  0  0  0  0  3  0  0  0  0  0  0
  -17.5790  -30.6510   24.1370 C   0  0  0  0  0  3  0  0  0  0  0  0
  -16.4550  -29.9140   23.7260 C   0  0  0  0  0  3  0  0  0  0  0  0
  -16.6290  -28.6590   23.1140 C   0  0  0  0  0  3  0  0  0  0  0  0
  -25.8160  -32.4450   23.8260 C   0  0  0  0  0  3  0  0  0  0  0  0
  -26.3180  -31.6790   25.1150 C   0  0  1  0  0  0  0  0  0  0  0  0
  -25.2180  -31.4580   26.1780 C   0  0  0  0  0  1  0  0  0  0  0  0
  -26.8930  -30.2910   24.7450 C   0  0  0  0  0  1  0  0  0  0  0  0
  -27.4710  -32.4680   25.7800 C   0  0  0  0  0  1  0  0  0  0  0  0
  -25.5210  -33.8480   24.1470 N   0  0  0  0  0  0  0  0  0  0  0  0
  -25.8690  -34.9020   23.3950 C   0  0  0  0  0  0  0  0  0  0  0  0
  -26.5500  -34.7970   22.3700 O   0  0  0  0  0  0  0  0  0  0  0  0
  -24.9340  -34.0000   24.9540 H   0  0  0  0  0  0  0  0  0  0  0  0
  -24.1680  -36.7220   23.0130 C   0  0  0  0  0  1  0  0  0  0  0  0
  -25.3810  -36.2900   23.8520 C   0  0  0  0  0  3  0  0  0  0  0  0
  -27.5230  -37.1330   24.7230 C   0  0  0  0  0  1  0  0  0  0  0  0
  -26.4150  -37.3490   23.7970 N   0  0  0  0  0  0  0  0  0  0  0  0
  -26.0020  -38.2520   24.0170 H   0  0  0  0  0  0  0  0  0  0  0  0
  -30.2080  -17.4740   21.0640 C   0  0  0  0  0  2  0  0  0  0  0  0
  -29.6470  -15.9870   20.7780 C   0  0  0  0  0  2  0  0  0  0  0  0
  -30.5290  -14.7200   20.3590 C   0  0  0  0  0  0  0  0  0  0  0  0
  -30.3690  -12.4670   19.2890 C   0  0  0  0  0  2  0  0  0  0  0  0
  -29.3960  -12.5640   18.0890 C   0  0  0  0  0  2  0  0  0  0  0  0
  -27.9320  -12.3740   18.5350 C   0  0  0  0  0  2  0  0  0  0  0  0
  -27.5770  -13.2290   19.7770 C   0  0  0  0  0  3  0  0  0  0  0  0
  -28.6570  -13.0990   20.8720 C   0  0  0  0  0  2  0  0  0  0  0  0
  -29.9530  -13.4730   20.2870 N   0  0  0  0  0  0  0  0  0  0  0  0
  -31.6840  -14.8920   19.9540 O   0  0  0  0  0  0  0  0  0  0  0  0
  -25.2030  -13.8100   20.5670 C   0  0  0  0  0  0  0  0  0  0  0  0
  -24.1470  -13.0350   20.9400 C   0  0  0  0  0  0  0  0  0  0  0  0
  -24.6040  -11.6830   20.8760 C   0  0  0  0  0  0  0  0  0  0  0  0
  -26.2420  -12.9360   20.2900 N   0  0  0  0  0  0  0  0  0  0  0  0
  -25.8880  -11.6500   20.5390 N   0  0  0  0  0  0  0  0  0  0  0  0
  -23.8820  -10.4190   21.0600 C   0  0  0  0  0  0  0  0  0  0  0  0
  -24.3120   -9.4490   21.9940 C   0  0  0  0  0  3  0  0  0  0  0  0
  -23.5900   -8.2490   22.1640 C   0  0  0  0  0  3  0  0  0  0  0  0
  -22.4220   -8.0090   21.4010 C   0  0  0  0  0  0  0  0  0  0  0  0
  -22.0120   -8.9660   20.4550 C   0  0  0  0  0  3  0  0  0  0  0  0
  -22.7350  -10.1580   20.2850 C   0  0  0  0  0  3  0  0  0  0  0  0
  -21.6710   -6.8630   21.4820 O   0  0  0  0  0  0  0  0  0  0  0  0
  -21.6040   -6.1260   22.6370 C   0  0  0  0  0  0  0  0  0  0  0  0
  -21.1270   -6.6780   23.8460 C   0  0  0  0  0  3  0  0  0  0  0  0
  -21.0130   -5.8670   24.9940 C   0  0  0  0  0  3  0  0  0  0  0  0
  -21.3630   -4.5050   24.9310 C   0  0  0  0  0  0  0  0  0  0  0  0
  -21.8320   -3.9510   23.7280 C   0  0  0  0  0  3  0  0  0  0  0  0
  -21.9500   -4.7610   22.5810 C   0  0  0  0  0  0  0  0  0  0  0  0
  -22.3840   -4.2190   21.4180 F   0  0  0  0  0  0  0  0  0  0  0  0
  -21.2440   -3.7230   26.0300 F   0  0  0  0  0  0  0  0  0  0  0  0
  -22.7530  -13.5030   21.2480 C   0  0  0  0  0  0  0  0  0  0  0  0
  -22.0400  -12.7920   22.1090 N   0  0  0  0  0  0  0  0  0  0  0  0
  -22.3070  -14.5410   20.7530 O   0  0  0  0  0  0  0  0  0  0  0  0
  -22.4130  -11.9480   22.5250 H   0  0  0  0  0  0  0  0  0  0  0  0
  -21.1050  -13.0890   22.3590 H   0  0  0  0  0  0  0  0  0  0  0  0
  -25.3670  -15.1890   20.4120 N   0  0  0  0  0  0  0  0  0  0  0  0
  -24.6030  -15.8440   20.5330 H   0  0  0  0  0  0  0  0  0  0  0  0
  -26.2100  -15.6220   20.0590 H   0  0  0  0  0  0  0  0  0  0  0  0
  1  7  1  0
 10  2  1  6
  2  5  1  0
  3 11  1  0
  4 14  1  0
  5 15  1  0
  7  9  1  0
  7 19  1  0
  8  9  1  0
  8  6  1  0
  9 11  1  0
 10  4  1  0
 10  8  1  0
 10  3  1  0
 11 12  1  1
 13 11  1  0
 14  1  1  0
 15  6  1  0
 15 61  1  0
 16  1  2  0
 17 14  1  0
 15 18  1  6
 20 19  1  0
 21 32  2  0
 22 20  1  0
 22 27  1  0
 23 31  1  0
 23 33  1  0
 24 30  1  0
 24 26  1  0
 25 31  1  0
 26 25  1  0
 27 26  2  0
 28 22  2  0
 29 28  1  0
 29 24  2  0
 30 23  1  0
 31 21  1  0
 33 35  2  0
 34 33  1  0
 36 34  1  0
 37 46  2  0
 37 42  1  0
 38 34  1  0
 38 42  1  0
 39 38  1  0
 40 41  1  0
 40 39  1  0
 41 37  1  0
 42 43  2  0
 43 44  1  0
 45 44  2  0
 46 45  1  0
 47 21  1  0
 47 52  1  0
 47 48  1  0
 48 51  1  1
 48 49  1  0
 50 48  1  0
 52 55  1  0
 53 57  1  0
 53 52  1  0
 54 53  2  0
 57 56  1  0
 59 57  1  0
 59 60  1  0
 59 58  1  0
 62 61  1  0
 63 62  1  0
 64 69  1  0
 65 66  1  0
 65 64  1  0
 67 66  1  0
 67 74  1  0
 67 68  1  0
 69 63  1  0
 69 68  1  0
 70 63  2  0
 71 72  2  0
 72 91  1  0
 73 72  1  0
 73 76  1  0
 74 75  1  0
 74 71  1  0
 75 73  2  0
 76 77  1  0
 77 78  2  0
 79 82  1  0
 79 78  1  0
 80 79  2  0
 81 80  1  0
 81 76  2  0
 82 83  1  0
 83 84  1  0
 84 85  2  0
 86 85  1  0
 86 90  1  0
 87 86  2  0
 88 83  2  0
 88 87  1  0
 89 88  1  0
 91 92  1  0
 92 95  1  0
 92 94  1  0
 93 91  2  0
 96 97  1  0
 96 71  1  0
 98 96  1  0
M  ISO  4  19 101  20 101  62 100  63 100
M  END
>  <TORSDO>  (62) 
F 19

>  <SCORE>  (62) 
-14.248

>  <name>  (62) 
61

>  <ligand_id>  (62) 
61

>  <original_smiles>  (62) 
[H]c1c([H])c([H])c2c(c1[H])C([H])([H])C([H])([H])C([H])([H])C2([H])N([H])C(=O)C1([H])N(C(=O)C([H])(N([H])C(=O)C([H])(N([H])C([H])([H])[H])C([H])([H])[H])C(C([H])([H])[H])(C([H])([H])[H])C([H])([H])[H])C([H])([H])c2c([H])c(OC([H])([H])C3([H])C(=O)N([H])C([H])([H])C45C([H])([H])C(C([H])([H])[H])(C([H])([H])[H])C3([H])C4([H])C([H])([H])[N+]([H])(C([H])([H])C([H])([H])C(=O)N3C([H])([H])C([H])([H])C([H])([H])C([H])(n4nc(-c6c([H])c([H])c(Oc7c([H])c([H])c(F)c([H])c7F)c([H])c6[H])c(C(=O)N([H])[H])c4N([H])[H])C3([H])[H])C([H])([H])C5([H])[H])c([H])c([H])c2C1([H])[H]

>  <smiles>  (62) 
[H]c1c([H])c([H])c2c(c1[H])C([H])([H])C([H])([H])C([H])([H])C2([H])N([H])C(=O)C1([H])N(C(=O)C([H])(N([H])C(=O)C([H])(N([H])C([H])([H])[H])C([H])([H])[H])C(C([H])([H])[H])(C([H])([H])[H])C([H])([H])[H])C([H])([H])c2c([H])c(OC([H])([H])C3([H])C(=O)N([H])C([H])([H])C45C([H])([H])C(C([H])([H])[H])(C([H])([H])[H])C3([H])C4([H])C([H])([H])[N+]([H])(C([H])([H])C([H])([H])C(=O)N3C([H])([H])C([H])([H])C([H])([H])C([H])(n4nc(-c6c([H])c([H])c(Oc7c([H])c([H])c(F)c([H])c7F)c([H])c6[H])c(C(=O)N([H])[H])c4N([H])[H])C3([H])[H])C([H])([H])C5([H])[H])c([H])c([H])c2C1([H])[H]

$$$$
62:0:0
     RDKit          3D

 93102  0  0  1  0  0  0  0  0999 V2000
  -28.9380  -18.3360   18.2920 C   0  0  0  0  0  3  0  0  0  0  0  0
  -29.1750  -19.6630   18.7060 C   0  0  0  0  0  3  0  0  0  0  0  0
  -29.3760  -17.2410   19.0640 C   0  0  0  0  0  3  0  0  0  0  0  0
  -29.8250  -19.9440   19.9250 C   0  0  0  0  0  0  0  0  0  0  0  0
  -30.2320  -18.8030   20.7270 C   0  0  0  0  0  0  0  0  0  0  0  0
  -30.0480  -17.4240   20.2900 C   0  0  0  0  0  0  0  0  0  0  0  0
  -30.8810  -19.0800   22.0750 C   0  0  0  0  0  2  0  0  0  0  0  0
  -30.5360  -20.4690   22.6330 C   0  0  0  0  0  2  0  0  0  0  0  0
  -30.8880  -21.5870   21.6420 C   0  0  0  0  0  2  0  0  0  0  0  0
  -30.1650  -21.4610   20.2730 C   0  0  0  0  0  3  0  0  0  0  0  0
  -29.0750  -22.5200   20.0910 N   0  0  0  0  0  4  0  0  0  0  0  0
  -28.3310  -22.3060   20.7380 H   0  0  0  0  0  0  0  0  0  0  0  0
  -28.6970  -22.3840   19.1680 H   0  0  0  0  0  0  0  0  0  0  0  0
  -29.4320  -24.0120   20.2090 C   0  0  0  0  0  3  0  0  0  0  0  0
  -28.3240  -25.0760   19.7530 C   0  0  0  0  0  3  0  0  0  0  0  0
  -28.4810  -26.5270   20.0590 O   0  0  0  0  0  0  0  0  0  0  0  0
  -24.5970  -31.7790   23.1670 C   0  0  0  0  0  0  0  0  0  0  0  0
  -27.3450  -27.3610   20.0060 C   0  0  0  0  0  0  0  0  0  0  0  0
  -23.4420  -30.4030   21.4740 C   0  0  0  0  0  3  0  0  0  0  0  0
  -24.9420  -28.9270   20.0170 C   0  0  0  0  0  0  0  0  0  0  0  0
  -25.9770  -30.7750   21.3370 C   0  0  0  0  0  2  0  0  0  0  0  0
  -26.0920  -29.4190   20.6460 C   0  0  0  0  0  0  0  0  0  0  0  0
  -27.2930  -28.6460   20.6350 C   0  0  0  0  0  3  0  0  0  0  0  0
  -26.1700  -26.9360   19.3400 C   0  0  0  0  0  3  0  0  0  0  0  0
  -24.9840  -27.6930   19.3520 C   0  0  0  0  0  3  0  0  0  0  0  0
  -23.6840  -29.7700   20.0780 C   0  0  0  0  0  2  0  0  0  0  0  0
  -24.6890  -31.0030   22.0470 N   0  0  0  0  0  0  0  0  0  0  0  0
  -23.5020  -32.0190   23.6970 O   0  0  0  0  0  0  0  0  0  0  0  0
  -22.7880  -29.3460   22.3960 C   0  0  0  0  0  0  0  0  0  0  0  0
  -21.4650  -29.1560   22.2550 N   0  0  0  0  0  0  0  0  0  0  0  0
  -23.4720  -28.7040   23.1990 O   0  0  0  0  0  0  0  0  0  0  0  0
  -20.9720  -29.7270   21.5810 H   0  0  0  0  0  0  0  0  0  0  0  0
  -18.1040  -27.8910   22.6860 C   0  0  0  0  0  0  0  0  0  0  0  0
  -20.6550  -28.1830   22.9900 C   0  0  0  0  0  3  0  0  0  0  0  0
  -20.7870  -26.7710   22.3740 C   0  0  0  0  0  2  0  0  0  0  0  0
  -19.7000  -26.4600   21.3400 C   0  0  0  0  0  2  0  0  0  0  0  0
  -18.3090  -26.5660   21.9720 C   0  0  0  0  0  2  0  0  0  0  0  0
  -19.2060  -28.6580   23.1490 C   0  0  0  0  0  0  0  0  0  0  0  0
  -18.9610  -29.9000   23.7740 C   0  0  0  0  0  3  0  0  0  0  0  0
  -17.6460  -30.3740   23.9440 C   0  0  0  0  0  3  0  0  0  0  0  0
  -16.5590  -29.6020   23.4980 C   0  0  0  0  0  3  0  0  0  0  0  0
  -16.7880  -28.3640   22.8730 C   0  0  0  0  0  3  0  0  0  0  0  0
  -25.8600  -32.4190   23.8230 C   0  0  0  0  0  3  0  0  0  0  0  0
  -26.3550  -31.6430   25.1050 C   0  0  1  0  0  0  0  0  0  0  0  0
  -25.2430  -31.3930   26.1500 C   0  0  0  0  0  1  0  0  0  0  0  0
  -26.9550  -30.2710   24.7210 C   0  0  0  0  0  1  0  0  0  0  0  0
  -27.4820  -32.4440   25.8000 C   0  0  0  0  0  1  0  0  0  0  0  0
  -25.5260  -33.8100   24.1580 N   0  0  0  0  0  0  0  0  0  0  0  0
  -25.8500  -34.8740   23.4110 C   0  0  0  0  0  0  0  0  0  0  0  0
  -26.5320  -34.7880   22.3850 O   0  0  0  0  0  0  0  0  0  0  0  0
  -24.9200  -33.9510   24.9530 H   0  0  0  0  0  0  0  0  0  0  0  0
  -24.0940  -36.6430   23.0690 C   0  0  0  0  0  1  0  0  0  0  0  0
  -25.3420  -36.2520   23.8770 C   0  0  0  0  0  3  0  0  0  0  0  0
  -27.4600  -37.1710   24.7140 C   0  0  0  0  0  1  0  0  0  0  0  0
  -26.3580  -37.3230   23.7690 N   0  0  0  0  0  0  0  0  0  0  0  0
  -25.9350  -38.2350   23.9200 H   0  0  0  0  0  0  0  0  0  0  0  0
  -30.4460  -16.1330   21.1250 C   0  0  0  0  0  2  0  0  0  0  0  0
  -31.0570  -14.8340   20.4130 C   0  0  0  0  0  0  0  0  0  0  0  0
  -30.7810  -12.6140   19.2920 C   0  0  0  0  0  2  0  0  0  0  0  0
  -29.8410  -12.7670   18.0750 C   0  0  0  0  0  2  0  0  0  0  0  0
  -28.3740  -12.6150   18.5060 C   0  0  0  0  0  2  0  0  0  0  0  0
  -28.0330  -13.4710   19.7560 C   0  0  0  0  0  3  0  0  0  0  0  0
  -29.0850  -13.2890   20.8720 C   0  0  0  0  0  2  0  0  0  0  0  0
  -30.3940  -13.6320   20.2960 N   0  0  0  0  0  0  0  0  0  0  0  0
  -32.1870  -14.9400   19.9220 O   0  0  0  0  0  0  0  0  0  0  0  0
  -25.6530  -14.1170   20.4650 C   0  0  0  0  0  0  0  0  0  0  0  0
  -24.5650  -13.3660   20.8190 C   0  0  0  0  0  0  0  0  0  0  0  0
  -24.9960  -12.0050   20.7750 C   0  0  0  0  0  0  0  0  0  0  0  0
  -26.6770  -13.2150   20.2310 N   0  0  0  0  0  0  0  0  0  0  0  0
  -26.2860  -11.9370   20.4720 N   0  0  0  0  0  0  0  0  0  0  0  0
  -24.2400  -10.7580   20.9530 C   0  0  0  0  0  0  0  0  0  0  0  0
  -24.6310   -9.7870   21.8990 C   0  0  0  0  0  3  0  0  0  0  0  0
  -23.8760   -8.6070   22.0690 C   0  0  0  0  0  3  0  0  0  0  0  0
  -22.7170   -8.3890   21.2870 C   0  0  0  0  0  0  0  0  0  0  0  0
  -22.3460   -9.3480   20.3270 C   0  0  0  0  0  3  0  0  0  0  0  0
  -23.1010  -10.5200   20.1580 C   0  0  0  0  0  3  0  0  0  0  0  0
  -21.9350   -7.2620   21.3620 O   0  0  0  0  0  0  0  0  0  0  0  0
  -21.7930   -6.5600   22.5330 C   0  0  0  0  0  0  0  0  0  0  0  0
  -21.2910   -7.1620   23.7050 C   0  0  0  0  0  3  0  0  0  0  0  0
  -21.0880   -6.3890   24.8660 C   0  0  0  0  0  3  0  0  0  0  0  0
  -21.3860   -5.0130   24.8560 C   0  0  0  0  0  0  0  0  0  0  0  0
  -21.8870   -4.4100   23.6880 C   0  0  0  0  0  3  0  0  0  0  0  0
  -22.0860   -5.1810   22.5300 C   0  0  0  0  0  0  0  0  0  0  0  0
  -22.5460   -4.5880   21.4020 F   0  0  0  0  0  0  0  0  0  0  0  0
  -21.1860   -4.2700   25.9690 F   0  0  0  0  0  0  0  0  0  0  0  0
  -23.1780  -13.8710   21.0920 C   0  0  0  0  0  0  0  0  0  0  0  0
  -22.4470  -13.1930   21.9720 N   0  0  0  0  0  0  0  0  0  0  0  0
  -22.7540  -14.8960   20.5620 O   0  0  0  0  0  0  0  0  0  0  0  0
  -22.8170  -12.3670   22.4200 H   0  0  0  0  0  0  0  0  0  0  0  0
  -21.5120  -13.4990   22.2030 H   0  0  0  0  0  0  0  0  0  0  0  0
  -25.8540  -15.4840   20.3020 N   0  0  0  0  0  0  0  0  0  0  0  0
  -25.1070  -16.1610   20.4120 H   0  0  0  0  0  0  0  0  0  0  0  0
  -26.7270  -15.9000   19.9970 H   0  0  0  0  0  0  0  0  0  0  0  0
  1  2  2  0
  1  3  1  0
  2  4  1  0
  3  6  2  0
  4 10  1  0
  4  5  2  0
  5  7  1  0
  6  5  1  0
  6 57  1  0
  7  8  1  0
  9  8  1  0
 10 11  1  0
 10  9  1  0
 11 14  1  0
 11 12  1  0
 13 11  1  0
 15 16  1  0
 15 14  2  0
 17 28  2  0
 18 16  1  0
 18 23  1  0
 19 27  1  0
 19 29  1  0
 20 26  1  0
 20 22  1  0
 21 27  1  0
 22 21  1  0
 23 22  2  0
 24 25  1  0
 24 18  2  0
 25 20  2  0
 26 19  1  0
 27 17  1  0
 29 31  2  0
 30 29  1  0
 32 30  1  0
 33 42  2  0
 33 38  1  0
 34 30  1  0
 34 38  1  0
 35 34  1  0
 36 37  1  0
 36 35  1  0
 37 33  1  0
 38 39  2  0
 39 40  1  0
 41 40  2  0
 42 41  1  0
 43 17  1  0
 43 48  1  0
 43 44  1  0
 44 47  1  1
 44 45  1  0
 46 44  1  0
 48 51  1  0
 49 53  1  0
 49 48  1  0
 50 49  2  0
 53 52  1  0
 55 53  1  0
 55 56  1  0
 55 54  1  0
 58 57  1  0
 59 64  1  0
 60 61  1  0
 60 59  1  0
 62 61  1  0
 62 69  1  0
 62 63  1  0
 64 58  1  0
 64 63  1  0
 65 58  2  0
 66 67  2  0
 67 86  1  0
 68 67  1  0
 68 71  1  0
 69 66  1  0
 69 70  1  0
 70 68  2  0
 71 72  1  0
 72 73  2  0
 74 77  1  0
 74 73  1  0
 75 74  2  0
 76 75  1  0
 76 71  2  0
 77 78  1  0
 78 79  1  0
 79 80  2  0
 81 80  1  0
 81 85  1  0
 82 81  2  0
 83 78  2  0
 83 82  1  0
 84 83  1  0
 86 87  1  0
 87 90  1  0
 87 89  1  0
 88 86  2  0
 91 92  1  0
 91 66  1  0
 93 91  1  0
M  ISO  4  15 101  16 101  57 100  58 100
M  END
>  <TORSDO>  (63) 
F 20

>  <SCORE>  (63) 
-13.709

>  <name>  (63) 
62

>  <ligand_id>  (63) 
62

>  <original_smiles>  (63) 
[H]c1c([H])c([H])c2c(c1[H])C([H])([H])C([H])([H])C([H])([H])C2([H])N([H])C(=O)C1([H])N(C(=O)C([H])(N([H])C(=O)C([H])(N([H])C([H])([H])[H])C([H])([H])[H])C(C([H])([H])[H])(C([H])([H])[H])C([H])([H])[H])C([H])([H])c2c([H])c(OC([H])([H])C([H])([H])[N+]([H])([H])C3([H])c4c([H])c([H])c([H])c(C([H])([H])C(=O)N5C([H])([H])C([H])([H])C([H])([H])C([H])(n6nc(-c7c([H])c([H])c(Oc8c([H])c([H])c(F)c([H])c8F)c([H])c7[H])c(C(=O)N([H])[H])c6N([H])[H])C5([H])[H])c4C([H])([H])C([H])([H])C3([H])[H])c([H])c([H])c2C1([H])[H]

>  <smiles>  (63) 
[H]c1c([H])c([H])c2c(c1[H])C([H])([H])C([H])([H])C([H])([H])C2([H])N([H])C(=O)C1([H])N(C(=O)C([H])(N([H])C(=O)C([H])(N([H])C([H])([H])[H])C([H])([H])[H])C(C([H])([H])[H])(C([H])([H])[H])C([H])([H])[H])C([H])([H])c2c([H])c(OC([H])([H])C([H])([H])[N+]([H])([H])C3([H])c4c([H])c([H])c([H])c(C([H])([H])C(=O)N5C([H])([H])C([H])([H])C([H])([H])C([H])(n6nc(-c7c([H])c([H])c(Oc8c([H])c([H])c(F)c([H])c8F)c([H])c7[H])c(C(=O)N([H])[H])c6N([H])[H])C5([H])[H])c4C([H])([H])C([H])([H])C3([H])[H])c([H])c([H])c2C1([H])[H]

$$$$
63:0:0
     RDKit          3D

 92 99  0  0  1  0  0  0  0  0999 V2000
  -28.9600  -21.8430   19.7430 C   0  0  0  0  0  3  0  0  0  0  0  0
  -28.9560  -23.0790   17.4480 C   0  0  0  0  0  1  0  0  0  0  0  0
  -30.9660  -21.7770   18.0900 C   0  0  0  0  0  1  0  0  0  0  0  0
  -28.8290  -20.6280   17.4400 C   0  0  0  0  0  1  0  0  0  0  0  0
  -29.4230  -21.8290   18.2210 C   0  0  1  0  0  0  0  0  0  0  0  0
  -29.6500  -20.5610   20.5350 C   0  0  0  0  0  0  0  0  0  0  0  0
  -29.5290  -19.1830   20.1890 N   0  0  0  0  0  0  0  0  0  0  0  0
  -30.3690  -20.8680   21.4850 O   0  0  0  0  0  0  0  0  0  0  0  0
  -28.8670  -19.0330   19.4400 H   0  0  0  0  0  0  0  0  0  0  0  0
  -30.5380  -17.8480   22.0940 C   0  0  0  0  0  1  0  0  0  0  0  0
  -31.7380  -18.1020   19.9090 C   0  0  0  0  0  1  0  0  0  0  0  0
  -30.3580  -17.8850   20.5620 C   0  0  2  0  0  0  0  0  0  0  0  0
  -29.8160  -16.3430   20.1540 C   0  0  0  0  0  2  0  0  0  0  0  0
  -30.6730  -14.9160   20.1510 C   0  0  0  0  0  0  0  0  0  0  0  0
  -30.5220  -12.5660   19.2440 C   0  0  0  0  0  2  0  0  0  0  0  0
  -29.5610  -12.5690   18.0330 C   0  0  0  0  0  2  0  0  0  0  0  0
  -28.1010  -12.3780   18.4910 C   0  0  0  0  0  2  0  0  0  0  0  0
  -27.7350  -13.2930   19.6880 C   0  0  0  0  0  3  0  0  0  0  0  0
  -28.8160  -13.2750   20.7860 C   0  0  0  0  0  2  0  0  0  0  0  0
  -30.0910  -13.6520   20.1650 N   0  0  0  0  0  0  0  0  0  0  0  0
  -31.8760  -14.9540   19.8750 O   0  0  0  0  0  0  0  0  0  0  0  0
  -25.3810  -13.8820   20.5070 C   0  0  0  0  0  0  0  0  0  0  0  0
  -24.3200  -13.1100   20.8930 C   0  0  0  0  0  0  0  0  0  0  0  0
  -24.7680  -11.7550   20.8240 C   0  0  0  0  0  0  0  0  0  0  0  0
  -26.4080  -12.9970   20.2200 N   0  0  0  0  0  0  0  0  0  0  0  0
  -26.0500  -11.7120   20.4760 N   0  0  0  0  0  0  0  0  0  0  0  0
  -24.0340  -10.4980   21.0150 C   0  0  0  0  0  0  0  0  0  0  0  0
  -24.4670   -9.5200   21.9370 C   0  0  0  0  0  3  0  0  0  0  0  0
  -23.7330   -8.3270   22.1150 C   0  0  0  0  0  3  0  0  0  0  0  0
  -22.5500   -8.1040   21.3700 C   0  0  0  0  0  0  0  0  0  0  0  0
  -22.1350   -9.0710   20.4370 C   0  0  0  0  0  3  0  0  0  0  0  0
  -22.8700  -10.2540   20.2580 C   0  0  0  0  0  3  0  0  0  0  0  0
  -21.7880   -6.9640   21.4570 O   0  0  0  0  0  0  0  0  0  0  0  0
  -21.7250   -6.2260   22.6110 C   0  0  0  0  0  0  0  0  0  0  0  0
  -21.2660   -6.7790   23.8270 C   0  0  0  0  0  3  0  0  0  0  0  0
  -21.1530   -5.9670   24.9710 C   0  0  0  0  0  3  0  0  0  0  0  0
  -21.4900   -4.6010   24.9030 C   0  0  0  0  0  0  0  0  0  0  0  0
  -21.9410   -4.0460   23.6920 C   0  0  0  0  0  3  0  0  0  0  0  0
  -22.0560   -4.8560   22.5490 C   0  0  0  0  0  0  0  0  0  0  0  0
  -22.4730   -4.3140   21.3790 F   0  0  0  0  0  0  0  0  0  0  0  0
  -21.3740   -3.8170   26.0010 F   0  0  0  0  0  0  0  0  0  0  0  0
  -22.9360  -13.5960   21.2110 C   0  0  0  0  0  0  0  0  0  0  0  0
  -22.2250  -12.8890   22.0820 N   0  0  0  0  0  0  0  0  0  0  0  0
  -22.4960  -14.6370   20.7250 O   0  0  0  0  0  0  0  0  0  0  0  0
  -22.5950  -12.0480   22.4970 H   0  0  0  0  0  0  0  0  0  0  0  0
  -21.2950  -13.1930   22.3370 H   0  0  0  0  0  0  0  0  0  0  0  0
  -25.5560  -15.2530   20.3530 N   0  0  0  0  0  0  0  0  0  0  0  0
  -24.8030  -15.9150   20.5010 H   0  0  0  0  0  0  0  0  0  0  0  0
  -26.4020  -15.6890   20.0090 H   0  0  0  0  0  0  0  0  0  0  0  0
  -29.0570  -23.4090   20.3860 C   0  0  0  0  0  3  0  0  0  0  0  0
  -28.0160  -24.6940   20.0900 C   0  0  0  0  0  3  0  0  0  0  0  0
  -28.2630  -26.2000   20.3350 O   0  0  0  0  0  0  0  0  0  0  0  0
  -24.6320  -31.8990   23.2060 C   0  0  0  0  0  0  0  0  0  0  0  0
  -27.1980  -27.1600   20.2410 C   0  0  0  0  0  0  0  0  0  0  0  0
  -23.4230  -30.4770   21.5960 C   0  0  0  0  0  3  0  0  0  0  0  0
  -24.8640  -28.8810   20.1900 C   0  0  0  0  0  0  0  0  0  0  0  0
  -25.9730  -30.7430   21.4140 C   0  0  0  0  0  2  0  0  0  0  0  0
  -26.0430  -29.3440   20.7850 C   0  0  0  0  0  0  0  0  0  0  0  0
  -27.2110  -28.4980   20.7950 C   0  0  0  0  0  3  0  0  0  0  0  0
  -25.9910  -26.7920   19.6020 C   0  0  0  0  0  3  0  0  0  0  0  0
  -24.8480  -27.6170   19.5840 C   0  0  0  0  0  3  0  0  0  0  0  0
  -23.6340  -29.7740   20.2280 C   0  0  0  0  0  2  0  0  0  0  0  0
  -24.6950  -31.0620   22.1260 N   0  0  0  0  0  0  0  0  0  0  0  0
  -23.5490  -32.1940   23.7330 O   0  0  0  0  0  0  0  0  0  0  0  0
  -22.7490  -29.4850   22.5790 C   0  0  0  0  0  0  0  0  0  0  0  0
  -21.4220  -29.3080   22.4530 N   0  0  0  0  0  0  0  0  0  0  0  0
  -23.4220  -28.8790   23.4160 O   0  0  0  0  0  0  0  0  0  0  0  0
  -20.9380  -29.8450   21.7480 H   0  0  0  0  0  0  0  0  0  0  0  0
  -18.0390  -28.1330   22.9930 C   0  0  0  0  0  0  0  0  0  0  0  0
  -20.6010  -28.3860   23.2420 C   0  0  0  0  0  3  0  0  0  0  0  0
  -20.6930  -26.9460   22.6870 C   0  0  0  0  0  2  0  0  0  0  0  0
  -19.5840  -26.6130   21.6850 C   0  0  0  0  0  2  0  0  0  0  0  0
  -18.2060  -26.7740   22.3340 C   0  0  0  0  0  2  0  0  0  0  0  0
  -19.1640  -28.8970   23.4040 C   0  0  0  0  0  0  0  0  0  0  0  0
  -18.9520  -30.1680   23.9800 C   0  0  0  0  0  3  0  0  0  0  0  0
  -17.6510  -30.6750   24.1500 C   0  0  0  0  0  3  0  0  0  0  0  0
  -16.5410  -29.9080   23.7540 C   0  0  0  0  0  3  0  0  0  0  0  0
  -16.7360  -28.6390   23.1810 C   0  0  0  0  0  3  0  0  0  0  0  0
  -25.9160  -32.5400   23.8160 C   0  0  0  0  0  3  0  0  0  0  0  0
  -25.6010  -33.9370   24.1520 N   0  0  0  0  0  0  0  0  0  0  0  0
  -25.9140  -34.9960   23.3920 C   0  0  0  0  0  0  0  0  0  0  0  0
  -26.5700  -34.8980   22.3510 O   0  0  0  0  0  0  0  0  0  0  0  0
  -25.0170  -34.0850   24.9620 H   0  0  0  0  0  0  0  0  0  0  0  0
  -24.1830  -36.7920   23.0600 C   0  0  0  0  0  1  0  0  0  0  0  0
  -25.4290  -36.3810   23.8630 C   0  0  0  0  0  3  0  0  0  0  0  0
  -27.5590  -37.2690   24.7010 C   0  0  0  0  0  1  0  0  0  0  0  0
  -26.4610  -37.4370   23.7540 N   0  0  0  0  0  0  0  0  0  0  0  0
  -26.0530  -38.3560   23.9000 H   0  0  0  0  0  0  0  0  0  0  0  0
  -26.4470  -31.7740   25.0910 C   0  0  1  0  0  0  0  0  0  0  0  0
  -25.3610  -31.5280   26.1650 C   0  0  0  0  0  1  0  0  0  0  0  0
  -27.0410  -30.4010   24.7010 C   0  0  0  0  0  1  0  0  0  0  0  0
  -27.5940  -32.5790   25.7440 C   0  0  0  0  0  1  0  0  0  0  0  0
  1 50  1  0
  1  6  1  0
  5  2  1  6
  3  5  1  0
  4  5  1  0
  5  1  1  0
  6  8  2  0
  7  6  1  0
  7 12  1  0
  9  7  1  0
 12 11  1  6
 12 10  1  0
 13 12  1  0
 14 13  1  0
 14 20  1  0
 15 20  1  0
 16 17  1  0
 16 15  1  0
 18 17  1  0
 18 25  1  0
 18 19  1  0
 20 19  1  0
 21 14  2  0
 22 23  2  0
 23 42  1  0
 24 23  1  0
 24 27  1  0
 25 26  1  0
 25 22  1  0
 26 24  2  0
 27 28  1  0
 28 29  2  0
 30 33  1  0
 30 29  1  0
 31 30  2  0
 32 31  1  0
 32 27  2  0
 33 34  1  0
 34 35  1  0
 35 36  2  0
 37 36  1  0
 37 41  1  0
 38 37  2  0
 39 34  2  0
 39 38  1  0
 40 39  1  0
 42 43  1  0
 43 46  1  0
 43 45  1  0
 44 42  2  0
 47 48  1  0
 47 22  1  0
 49 47  1  0
 51 52  1  0
 51 50  2  0
 53 64  2  0
 54 52  1  0
 54 59  1  0
 55 63  1  0
 55 65  1  0
 56 62  1  0
 56 58  1  0
 57 63  1  0
 58 59  2  0
 58 57  1  0
 60 54  2  0
 61 60  1  0
 61 56  2  0
 62 55  1  0
 63 53  1  0
 65 67  2  0
 66 65  1  0
 68 66  1  0
 69 78  2  0
 69 74  1  0
 70 66  1  0
 70 74  1  0
 71 70  1  0
 72 73  1  0
 72 71  1  0
 73 69  1  0
 74 75  2  0
 75 76  1  0
 77 76  2  0
 78 77  1  0
 79 53  1  0
 79 80  1  0
 79 89  1  0
 80 83  1  0
 81 85  1  0
 81 80  1  0
 82 81  2  0
 85 84  1  0
 87 85  1  0
 87 88  1  0
 87 86  1  0
 89 92  1  1
 89 90  1  0
 91 89  1  0
M  ISO  4  13 100  14 100  51 101  52 101
M  END
>  <TORSDO>  (64) 
F 22

>  <SCORE>  (64) 
-13.698

>  <name>  (64) 
63

>  <ligand_id>  (64) 
63

>  <original_smiles>  (64) 
[H]c1c([H])c([H])c2c(c1[H])C([H])([H])C([H])([H])C([H])([H])C2([H])N([H])C(=O)C1([H])N(C(=O)C([H])(N([H])C(=O)C([H])(N([H])C([H])([H])[H])C([H])([H])[H])C(C([H])([H])[H])(C([H])([H])[H])C([H])([H])[H])C([H])([H])c2c([H])c(OC([H])([H])C([H])([H])C([H])(C(=O)N([H])C(C([H])([H])[H])(C([H])([H])[H])C([H])([H])C(=O)N3C([H])([H])C([H])([H])C([H])([H])C([H])(n4nc(-c5c([H])c([H])c(Oc6c([H])c([H])c(F)c([H])c6F)c([H])c5[H])c(C(=O)N([H])[H])c4N([H])[H])C3([H])[H])C(C([H])([H])[H])(C([H])([H])[H])C([H])([H])[H])c([H])c([H])c2C1([H])[H]

>  <smiles>  (64) 
[H]c1c([H])c([H])c2c(c1[H])C([H])([H])C([H])([H])C([H])([H])C2([H])N([H])C(=O)C1([H])N(C(=O)C([H])(N([H])C(=O)C([H])(N([H])C([H])([H])[H])C([H])([H])[H])C(C([H])([H])[H])(C([H])([H])[H])C([H])([H])[H])C([H])([H])c2c([H])c(OC([H])([H])C([H])([H])C([H])(C(=O)N([H])C(C([H])([H])[H])(C([H])([H])[H])C([H])([H])C(=O)N3C([H])([H])C([H])([H])C([H])([H])C([H])(n4nc(-c5c([H])c([H])c(Oc6c([H])c([H])c(F)c([H])c6F)c([H])c5[H])c(C(=O)N([H])[H])c4N([H])[H])C3([H])[H])C(C([H])([H])[H])(C([H])([H])[H])C([H])([H])[H])c([H])c([H])c2C1([H])[H]

$$$$
64:0:0
     RDKit          3D

 94101  0  0  1  0  0  0  0  0999 V2000
  -29.2160  -21.3270   19.9050 C   0  0  0  0  0  0  0  0  0  0  0  0
  -29.1390  -22.5990   20.4410 N   0  0  0  0  0  0  0  0  0  0  0  0
  -28.7640  -21.0840   18.7850 O   0  0  0  0  0  0  0  0  0  0  0  0
  -29.5110  -22.6880   21.3780 H   0  0  0  0  0  0  0  0  0  0  0  0
  -31.3890  -20.6880   20.9350 C   0  0  0  0  0  1  0  0  0  0  0  0
  -29.9550  -20.1530   20.6900 C   0  0  0  0  0  3  0  0  0  0  0  0
  -30.0210  -18.7700   20.0170 N   0  0  0  0  0  4  0  0  0  0  0  0
  -30.8010  -18.7790   19.3810 H   0  0  0  0  0  0  0  0  0  0  0  0
  -29.1990  -18.7750   19.4300 H   0  0  0  0  0  0  0  0  0  0  0  0
  -30.0040  -17.4250   20.7910 C   0  0  0  0  0  3  0  0  0  0  0  0
  -30.7550  -18.1240   23.2000 C   0  0  0  0  0  1  0  0  0  0  0  0
  -30.9180  -15.7920   22.5700 C   0  0  0  0  0  1  0  0  0  0  0  0
  -32.5050  -17.4140   21.5140 C   0  0  0  0  0  1  0  0  0  0  0  0
  -31.0450  -17.2200   21.9720 C   0  0  1  0  0  0  0  0  0  0  0  0
  -29.6630  -16.0820   19.9290 C   0  0  0  0  0  2  0  0  0  0  0  0
  -30.5450  -14.7540   19.6960 C   0  0  0  0  0  0  0  0  0  0  0  0
  -30.2680  -12.5130   18.6350 C   0  0  0  0  0  2  0  0  0  0  0  0
  -29.2320  -12.6700   17.4950 C   0  0  0  0  0  2  0  0  0  0  0  0
  -27.7920  -12.5130   18.0290 C   0  0  0  0  0  2  0  0  0  0  0  0
  -27.5400  -13.3540   19.3070 C   0  0  0  0  0  3  0  0  0  0  0  0
  -28.6800  -13.1600   20.3320 C   0  0  0  0  0  2  0  0  0  0  0  0
  -29.9460  -13.5140   19.6730 N   0  0  0  0  0  0  0  0  0  0  0  0
  -31.7020  -14.8740   19.2810 O   0  0  0  0  0  0  0  0  0  0  0  0
  -25.2170  -13.9850   20.2040 C   0  0  0  0  0  0  0  0  0  0  0  0
  -24.1710  -13.2250   20.6510 C   0  0  0  0  0  0  0  0  0  0  0  0
  -24.6120  -11.8680   20.5850 C   0  0  0  0  0  0  0  0  0  0  0  0
  -26.2290  -13.0900   19.8910 N   0  0  0  0  0  0  0  0  0  0  0  0
  -25.8760  -11.8130   20.1830 N   0  0  0  0  0  0  0  0  0  0  0  0
  -23.8860  -10.6140   20.8270 C   0  0  0  0  0  0  0  0  0  0  0  0
  -24.3420   -9.6670   21.7700 C   0  0  0  0  0  3  0  0  0  0  0  0
  -23.6170   -8.4780   21.9980 C   0  0  0  0  0  3  0  0  0  0  0  0
  -22.4220   -8.2280   21.2830 C   0  0  0  0  0  0  0  0  0  0  0  0
  -21.9840   -9.1640   20.3280 C   0  0  0  0  0  3  0  0  0  0  0  0
  -22.7100  -10.3440   20.1000 C   0  0  0  0  0  3  0  0  0  0  0  0
  -21.6660   -7.0880   21.4190 O   0  0  0  0  0  0  0  0  0  0  0  0
  -21.6090   -6.3990   22.6040 C   0  0  0  0  0  0  0  0  0  0  0  0
  -21.1840   -7.0130   23.8020 C   0  0  0  0  0  3  0  0  0  0  0  0
  -21.0750   -6.2510   24.9830 C   0  0  0  0  0  3  0  0  0  0  0  0
  -21.3800   -4.8770   24.9650 C   0  0  0  0  0  0  0  0  0  0  0  0
  -21.7980   -4.2640   23.7710 C   0  0  0  0  0  3  0  0  0  0  0  0
  -21.9100   -5.0230   22.5930 C   0  0  0  0  0  0  0  0  0  0  0  0
  -22.2930   -4.4220   21.4400 F   0  0  0  0  0  0  0  0  0  0  0  0
  -21.2680   -4.1430   26.0970 F   0  0  0  0  0  0  0  0  0  0  0  0
  -22.8020  -13.7190   21.0220 C   0  0  0  0  0  0  0  0  0  0  0  0
  -22.1390  -13.0460   21.9560 N   0  0  0  0  0  0  0  0  0  0  0  0
  -22.3310  -14.7380   20.5170 O   0  0  0  0  0  0  0  0  0  0  0  0
  -22.5340  -12.2210   22.3840 H   0  0  0  0  0  0  0  0  0  0  0  0
  -21.2240  -13.3590   22.2480 H   0  0  0  0  0  0  0  0  0  0  0  0
  -25.3850  -15.3530   20.0140 N   0  0  0  0  0  0  0  0  0  0  0  0
  -24.6310  -16.0120   20.1720 H   0  0  0  0  0  0  0  0  0  0  0  0
  -26.1990  -15.7790   19.5890 H   0  0  0  0  0  0  0  0  0  0  0  0
  -28.7450  -23.9150   19.7900 C   0  0  0  0  0  2  0  0  0  0  0  0
  -28.3040  -25.1380   20.7370 C   0  0  0  0  0  2  0  0  0  0  0  0
  -28.4400  -26.5530   20.2900 O   0  0  0  0  0  0  0  0  0  0  0  0
  -24.6390  -31.9340   23.3030 C   0  0  0  0  0  0  0  0  0  0  0  0
  -27.3080  -27.3840   20.2850 C   0  0  0  0  0  0  0  0  0  0  0  0
  -23.4580  -30.5290   21.6500 C   0  0  0  0  0  3  0  0  0  0  0  0
  -24.9310  -28.9790   20.2440 C   0  0  0  0  0  0  0  0  0  0  0  0
  -25.9960  -30.8630   21.4890 C   0  0  0  0  0  2  0  0  0  0  0  0
  -26.0920  -29.4820   20.8480 C   0  0  0  0  0  0  0  0  0  0  0  0
  -27.2860  -28.6980   20.8510 C   0  0  0  0  0  3  0  0  0  0  0  0
  -26.1260  -26.9290   19.6670 C   0  0  0  0  0  3  0  0  0  0  0  0
  -24.9510  -27.7080   19.6430 C   0  0  0  0  0  3  0  0  0  0  0  0
  -23.6900  -29.8480   20.2740 C   0  0  0  0  0  2  0  0  0  0  0  0
  -24.7160  -31.1270   22.2050 N   0  0  0  0  0  0  0  0  0  0  0  0
  -23.5500  -32.2060   23.8280 O   0  0  0  0  0  0  0  0  0  0  0  0
  -22.7900  -29.5120   22.6070 C   0  0  0  0  0  0  0  0  0  0  0  0
  -21.4680  -29.3200   22.4580 N   0  0  0  0  0  0  0  0  0  0  0  0
  -23.4610  -28.8980   23.4390 O   0  0  0  0  0  0  0  0  0  0  0  0
  -20.9850  -29.8690   21.7610 H   0  0  0  0  0  0  0  0  0  0  0  0
  -18.1000  -28.0740   22.8930 C   0  0  0  0  0  0  0  0  0  0  0  0
  -20.6470  -28.3780   23.2200 C   0  0  0  0  0  3  0  0  0  0  0  0
  -20.7840  -26.9420   22.6630 C   0  0  0  0  0  2  0  0  0  0  0  0
  -19.7120  -26.5910   21.6270 C   0  0  0  0  0  2  0  0  0  0  0  0
  -18.3140  -26.7200   22.2360 C   0  0  0  0  0  2  0  0  0  0  0  0
  -19.1960  -28.8580   23.3420 C   0  0  0  0  0  0  0  0  0  0  0  0
  -18.9440  -30.1230   23.9150 C   0  0  0  0  0  3  0  0  0  0  0  0
  -17.6280  -30.6050   24.0470 C   0  0  0  0  0  3  0  0  0  0  0  0
  -16.5460  -29.8180   23.6140 C   0  0  0  0  0  3  0  0  0  0  0  0
  -16.7820  -28.5550   23.0440 C   0  0  0  0  0  3  0  0  0  0  0  0
  -25.9120  -32.5740   23.9380 C   0  0  0  0  0  3  0  0  0  0  0  0
  -25.5880  -33.9650   24.2830 N   0  0  0  0  0  0  0  0  0  0  0  0
  -25.9060  -35.0300   23.5350 C   0  0  0  0  0  0  0  0  0  0  0  0
  -26.5730  -34.9440   22.5010 O   0  0  0  0  0  0  0  0  0  0  0  0
  -24.9940  -34.1050   25.0870 H   0  0  0  0  0  0  0  0  0  0  0  0
  -24.1560  -36.8070   23.2070 C   0  0  0  0  0  1  0  0  0  0  0  0
  -25.4050  -36.4090   24.0090 C   0  0  0  0  0  3  0  0  0  0  0  0
  -27.5330  -37.3090   24.8390 C   0  0  0  0  0  1  0  0  0  0  0  0
  -26.4250  -37.4740   23.9030 N   0  0  0  0  0  0  0  0  0  0  0  0
  -26.0090  -38.3880   24.0600 H   0  0  0  0  0  0  0  0  0  0  0  0
  -26.4300  -31.7940   25.2090 C   0  0  1  0  0  0  0  0  0  0  0  0
  -25.3320  -31.5230   26.2640 C   0  0  0  0  0  1  0  0  0  0  0  0
  -27.0420  -30.4330   24.8050 C   0  0  0  0  0  1  0  0  0  0  0  0
  -27.5600  -32.5990   25.8940 C   0  0  0  0  0  1  0  0  0  0  0  0
  1  2  1  0
  1  6  1  0
  2  4  1  0
  3  1  2  0
  6  5  1  0
  7  6  1  0
  7 10  1  0
  8  7  1  0
  9  7  1  0
 10 15  1  0
 10 14  1  0
 14 13  1  6
 14 12  1  0
 14 11  1  0
 16 15  1  0
 17 22  1  0
 18 19  1  0
 18 17  1  0
 20 19  1  0
 20 27  1  0
 20 21  1  0
 22 16  1  0
 22 21  1  0
 23 16  2  0
 24 25  2  0
 25 44  1  0
 26 25  1  0
 26 29  1  0
 27 28  1  0
 27 24  1  0
 28 26  2  0
 29 30  1  0
 30 31  2  0
 32 35  1  0
 32 31  1  0
 33 32  2  0
 34 33  1  0
 34 29  2  0
 35 36  1  0
 36 37  1  0
 37 38  2  0
 39 38  1  0
 39 43  1  0
 40 39  2  0
 41 36  2  0
 41 40  1  0
 42 41  1  0
 44 45  1  0
 45 48  1  0
 45 47  1  0
 46 44  2  0
 49 50  1  0
 49 24  1  0
 51 49  1  0
 52  2  1  0
 52 53  1  0
 54 53  1  0
 55 66  2  0
 56 54  1  0
 56 61  1  0
 57 65  1  0
 57 67  1  0
 58 64  1  0
 58 60  1  0
 59 65  1  0
 60 61  2  0
 60 59  1  0
 62 56  2  0
 63 62  1  0
 63 58  2  0
 64 57  1  0
 65 55  1  0
 67 69  2  0
 68 67  1  0
 70 68  1  0
 71 80  2  0
 71 76  1  0
 72 68  1  0
 72 76  1  0
 73 72  1  0
 74 75  1  0
 74 73  1  0
 75 71  1  0
 76 77  2  0
 77 78  1  0
 79 78  2  0
 80 79  1  0
 81 55  1  0
 81 82  1  0
 81 91  1  0
 82 85  1  0
 83 87  1  0
 83 82  1  0
 84 83  2  0
 87 86  1  0
 89 87  1  0
 89 90  1  0
 89 88  1  0
 91 94  1  1
 91 92  1  0
 93 91  1  0
M  ISO  4  15 100  16 100  53 101  54 101
M  END
>  <TORSDO>  (65) 
F 23

>  <SCORE>  (65) 
-10.617

>  <name>  (65) 
64

>  <ligand_id>  (65) 
64

>  <original_smiles>  (65) 
[H]c1c([H])c([H])c2c(c1[H])C([H])([H])C([H])([H])C([H])([H])C2([H])N([H])C(=O)C1([H])N(C(=O)C([H])(N([H])C(=O)C([H])(N([H])C([H])([H])[H])C([H])([H])[H])C(C([H])([H])[H])(C([H])([H])[H])C([H])([H])[H])C([H])([H])c2c([H])c(OC([H])([H])C([H])([H])N([H])C(=O)C([H])(C([H])([H])[H])[N+]([H])([H])C([H])(C([H])([H])C(=O)N3C([H])([H])C([H])([H])C([H])([H])C([H])(n4nc(-c5c([H])c([H])c(Oc6c([H])c([H])c(F)c([H])c6F)c([H])c5[H])c(C(=O)N([H])[H])c4N([H])[H])C3([H])[H])C(C([H])([H])[H])(C([H])([H])[H])C([H])([H])[H])c([H])c([H])c2C1([H])[H]

>  <smiles>  (65) 
[H]c1c([H])c([H])c2c(c1[H])C([H])([H])C([H])([H])C([H])([H])C2([H])N([H])C(=O)C1([H])N(C(=O)C([H])(N([H])C(=O)C([H])(N([H])C([H])([H])[H])C([H])([H])[H])C(C([H])([H])[H])(C([H])([H])[H])C([H])([H])[H])C([H])([H])c2c([H])c(OC([H])([H])C([H])([H])N([H])C(=O)C([H])(C([H])([H])[H])[N+]([H])([H])C([H])(C([H])([H])C(=O)N3C([H])([H])C([H])([H])C([H])([H])C([H])(n4nc(-c5c([H])c([H])c(Oc6c([H])c([H])c(F)c([H])c6F)c([H])c5[H])c(C(=O)N([H])[H])c4N([H])[H])C3([H])[H])C(C([H])([H])[H])(C([H])([H])[H])C([H])([H])[H])c([H])c([H])c2C1([H])[H]

$$$$
65:0:0
     RDKit          3D

 84 87  0  0  1  0  0  0  0  0999 V2000
  -27.9730  -21.2950   21.5090 C   0  0  0  0  0  3  0  0  0  0  0  0
  -28.7070  -21.4740   20.4000 C   0  0  0  0  0  3  0  0  0  0  0  0
  -31.0350  -19.9800   20.4240 C   0  0  0  0  0  1  0  0  0  0  0  0
  -29.5940  -19.7080   19.9740 C   0  0  0  0  0  1  0  0  0  0  0  0
  -30.2440  -16.2820   20.0280 C   0  0  0  0  0  0  0  0  0  0  0  0
  -30.4500  -13.6350   19.2170 C   0  0  0  0  0  2  0  0  0  0  0  0
  -29.5790  -13.0180   18.0670 C   0  0  0  0  0  2  0  0  0  0  0  0
  -28.2090  -12.5540   18.5810 C   0  0  0  0  0  2  0  0  0  0  0  0
  -27.6590  -13.5700   19.5990 C   0  0  0  0  0  3  0  0  0  0  0  0
  -28.6890  -14.0680   20.6580 C   0  0  0  0  0  2  0  0  0  0  0  0
  -29.7630  -14.8410   19.9490 N   0  0  0  0  0  0  0  0  0  0  0  0
  -31.4780  -16.1400   19.8350 O   0  0  0  0  0  0  0  0  0  0  0  0
  -29.5150  -17.7800   20.1390 N   0  0  0  0  0  2  0  0  0  0  0  0
  -28.5420  -17.5620   20.2980 H   0  0  0  0  0  0  0  0  0  0  0  0
  -25.3260  -14.0330   20.4540 C   0  0  0  0  0  0  0  0  0  0  0  0
  -24.2880  -13.2340   20.8370 C   0  0  0  0  0  0  0  0  0  0  0  0
  -24.7720  -11.8900   20.7670 C   0  0  0  0  0  0  0  0  0  0  0  0
  -26.3740  -13.1820   20.1640 N   0  0  0  0  0  0  0  0  0  0  0  0
  -26.0580  -11.8820   20.4150 N   0  0  0  0  0  0  0  0  0  0  0  0
  -24.0570  -10.6170   20.9570 C   0  0  0  0  0  0  0  0  0  0  0  0
  -24.4920   -9.6540   21.8940 C   0  0  0  0  0  3  0  0  0  0  0  0
  -23.7700   -8.4530   22.0770 C   0  0  0  0  0  3  0  0  0  0  0  0
  -22.5990   -8.2070   21.3220 C   0  0  0  0  0  0  0  0  0  0  0  0
  -22.1830   -9.1580   20.3740 C   0  0  0  0  0  3  0  0  0  0  0  0
  -22.9040  -10.3490   20.1900 C   0  0  0  0  0  3  0  0  0  0  0  0
  -21.8500   -7.0580   21.4130 O   0  0  0  0  0  0  0  0  0  0  0  0
  -21.7760   -6.3360   22.5770 C   0  0  0  0  0  0  0  0  0  0  0  0
  -21.2800   -6.9020   23.7720 C   0  0  0  0  0  3  0  0  0  0  0  0
  -21.1550   -6.1060   24.9280 C   0  0  0  0  0  3  0  0  0  0  0  0
  -21.5140   -4.7450   24.8890 C   0  0  0  0  0  0  0  0  0  0  0  0
  -22.0020   -4.1800   23.6990 C   0  0  0  0  0  3  0  0  0  0  0  0
  -22.1290   -4.9720   22.5460 C   0  0  0  0  0  0  0  0  0  0  0  0
  -22.5800   -4.4160   21.3940 F   0  0  0  0  0  0  0  0  0  0  0  0
  -21.3880   -3.9780   25.9980 F   0  0  0  0  0  0  0  0  0  0  0  0
  -22.8950  -13.6930   21.1500 C   0  0  0  0  0  0  0  0  0  0  0  0
  -22.1910  -12.9750   22.0170 N   0  0  0  0  0  0  0  0  0  0  0  0
  -22.4400  -14.7240   20.6560 O   0  0  0  0  0  0  0  0  0  0  0  0
  -22.5740  -12.1410   22.4390 H   0  0  0  0  0  0  0  0  0  0  0  0
  -21.2570  -13.2670   22.2690 H   0  0  0  0  0  0  0  0  0  0  0  0
  -25.4600  -15.4080   20.2890 N   0  0  0  0  0  0  0  0  0  0  0  0
  -24.6800  -16.0430   20.4240 H   0  0  0  0  0  0  0  0  0  0  0  0
  -26.2790  -15.8590   19.9030 H   0  0  0  0  0  0  0  0  0  0  0  0
  -28.4600  -23.3900   19.8060 C   0  0  0  0  0 15  0  0  0  0  0  0
  -28.2130  -25.2230   20.3240 O   0  0  0  0  0  1  0  0  0  0  0  0
  -24.6930  -31.8830   23.1220 C   0  0  0  0  0  0  0  0  0  0  0  0
  -27.2780  -26.5680   20.1810 C   0  0  0  0  0  0  0  0  0  0  0  0
  -23.5340  -30.4540   21.4940 C   0  0  0  0  0  3  0  0  0  0  0  0
  -25.0070  -28.7590   20.1010 C   0  0  0  0  0  0  0  0  0  0  0  0
  -26.1230  -30.5390   21.4110 C   0  0  0  0  0  2  0  0  0  0  0  0
  -26.1980  -29.0730   20.7620 C   0  0  0  0  0  0  0  0  0  0  0  0
  -27.2940  -28.0100   20.7730 C   0  0  0  0  0  3  0  0  0  0  0  0
  -26.0510  -26.5470   19.4420 C   0  0  0  0  0  3  0  0  0  0  0  0
  -24.9900  -27.5270   19.4160 C   0  0  0  0  0  3  0  0  0  0  0  0
  -23.8000  -29.7310   20.1350 C   0  0  0  0  0  2  0  0  0  0  0  0
  -24.8090  -31.0010   22.0600 N   0  0  0  0  0  0  0  0  0  0  0  0
  -23.5890  -32.1850   23.6140 O   0  0  0  0  0  0  0  0  0  0  0  0
  -22.8000  -29.5010   22.4790 C   0  0  0  0  0  0  0  0  0  0  0  0
  -21.4650  -29.3540   22.3600 N   0  0  0  0  0  0  0  0  0  0  0  0
  -23.4500  -28.8890   23.3300 O   0  0  0  0  0  0  0  0  0  0  0  0
  -20.9860  -29.9000   21.6560 H   0  0  0  0  0  0  0  0  0  0  0  0
  -18.0790  -28.1300   22.9020 C   0  0  0  0  0  0  0  0  0  0  0  0
  -20.6400  -28.4180   23.1390 C   0  0  0  0  0  3  0  0  0  0  0  0
  -20.7440  -26.9840   22.5680 C   0  0  0  0  0  2  0  0  0  0  0  0
  -19.6360  -26.6550   21.5610 C   0  0  0  0  0  2  0  0  0  0  0  0
  -18.2590  -26.7860   22.2160 C   0  0  0  0  0  2  0  0  0  0  0  0
  -19.1950  -28.9040   23.3210 C   0  0  0  0  0  0  0  0  0  0  0  0
  -18.9670  -30.1550   23.9310 C   0  0  0  0  0  3  0  0  0  0  0  0
  -17.6570  -30.6370   24.1220 C   0  0  0  0  0  3  0  0  0  0  0  0
  -16.5580  -29.8630   23.7160 C   0  0  0  0  0  3  0  0  0  0  0  0
  -16.7680  -28.6110   23.1120 C   0  0  0  0  0  3  0  0  0  0  0  0
  -25.9350  -32.5660   23.7730 C   0  0  0  0  0  3  0  0  0  0  0  0
  -25.5840  -33.9660   24.1040 N   0  0  0  0  0  0  0  0  0  0  0  0
  -25.9170  -35.0460   23.3820 C   0  0  0  0  0  0  0  0  0  0  0  0
  -26.6040  -34.9690   22.3610 O   0  0  0  0  0  0  0  0  0  0  0  0
  -24.9720  -34.0960   24.8960 H   0  0  0  0  0  0  0  0  0  0  0  0
  -24.1860  -36.8500   23.0530 C   0  0  0  0  0  1  0  0  0  0  0  0
  -25.4190  -36.4260   23.8660 C   0  0  0  0  0  3  0  0  0  0  0  0
  -27.5330  -37.3210   24.7450 C   0  0  0  0  0  1  0  0  0  0  0  0
  -26.4450  -37.4900   23.7860 N   0  0  0  0  0  0  0  0  0  0  0  0
  -26.0290  -38.4050   23.9350 H   0  0  0  0  0  0  0  0  0  0  0  0
  -26.4300  -31.8290   25.0790 C   0  0  1  0  0  0  0  0  0  0  0  0
  -25.3160  -31.5980   26.1280 C   0  0  0  0  0  1  0  0  0  0  0  0
  -27.0400  -30.4500   24.7450 C   0  0  0  0  0  1  0  0  0  0  0  0
  -27.5560  -32.6510   25.7510 C   0  0  0  0  0  1  0  0  0  0  0  0
  2  1  3  0
  4  3  1  0
  5 13  1  0
  6 11  1  0
  7  8  1  0
  7  6  1  0
  9  8  1  0
  9 18  1  0
  9 10  1  0
 11  5  1  0
 11 10  1  0
 12  5  2  0
 13 14  1  0
 15 16  2  0
 16 35  1  0
 17 16  1  0
 17 20  1  0
 18 19  1  0
 18 15  1  0
 19 17  2  0
 20 21  1  0
 21 22  2  0
 23 26  1  0
 23 22  1  0
 24 23  2  0
 25 24  1  0
 25 20  2  0
 26 27  1  0
 27 28  1  0
 28 29  2  0
 30 29  1  0
 30 34  1  0
 31 30  2  0
 32 27  2  0
 32 31  1  0
 33 32  1  0
 35 36  1  0
 36 39  1  0
 36 38  1  0
 37 35  2  0
 40 41  1  0
 40 15  1  0
 42 40  1  0
 45 56  2  0
 46 44  1  0
 46 51  1  0
 47 55  1  0
 47 57  1  0
 48 54  1  0
 48 50  1  0
 49 55  1  0
 50 51  2  0
 50 49  1  0
 52 46  2  0
 53 52  1  0
 53 48  2  0
 54 47  1  0
 55 45  1  0
 57 59  2  0
 58 57  1  0
 60 58  1  0
 61 70  2  0
 61 66  1  0
 62 58  1  0
 62 66  1  0
 63 62  1  0
 64 65  1  0
 64 63  1  0
 65 61  1  0
 66 67  2  0
 67 68  1  0
 69 68  2  0
 70 69  1  0
 71 45  1  0
 71 72  1  0
 71 81  1  0
 72 75  1  0
 73 77  1  0
 73 72  1  0
 74 73  2  0
 77 76  1  0
 79 77  1  0
 79 80  1  0
 79 78  1  0
 81 84  1  1
 81 82  1  0
 83 81  1  0
M  ISO  4   5 100  13 100  43 101  44 101
M  END
>  <TORSDO>  (66) 
F 18

>  <SCORE>  (66) 
-15.992

>  <name>  (66) 
65

>  <ligand_id>  (66) 
65

>  <original_smiles>  (66) 
[H]C([H])=C(C([H])([H])Oc1c([H])c([H])c2c(c1[H])C([H])([H])N(C(=O)C([H])(N([H])C(=O)C([H])(N([H])C([H])([H])[H])C([H])([H])[H])C(C([H])([H])[H])(C([H])([H])[H])C([H])([H])[H])C([H])(C(=O)N([H])C1([H])c3c([H])c([H])c([H])c([H])c3C([H])([H])C([H])([H])C1([H])[H])C2([H])[H])C([H])(N([H])C(=O)N1C([H])([H])C([H])([H])C([H])([H])C([H])(n2nc(-c3c([H])c([H])c(Oc4c([H])c([H])c(F)c([H])c4F)c([H])c3[H])c(C(=O)N([H])[H])c2N([H])[H])C1([H])[H])C([H])([H])[H]

>  <smiles>  (66) 
[H]C([H])=C(C([H])([H])Oc1c([H])c([H])c2c(c1[H])C([H])([H])N(C(=O)C([H])(N([H])C(=O)C([H])(N([H])C([H])([H])[H])C([H])([H])[H])C(C([H])([H])[H])(C([H])([H])[H])C([H])([H])[H])C([H])(C(=O)N([H])C1([H])c3c([H])c([H])c([H])c([H])c3C([H])([H])C([H])([H])C1([H])[H])C2([H])[H])C([H])(N([H])C(=O)N1C([H])([H])C([H])([H])C([H])([H])C([H])(n2nc(-c3c([H])c([H])c(Oc4c([H])c([H])c(F)c([H])c4F)c([H])c3[H])c(C(=O)N([H])[H])c2N([H])[H])C1([H])[H])C([H])([H])[H]

$$$$
66:0:0
     RDKit          3D

 88 95  0  0  1  0  0  0  0  0999 V2000
  -28.6930  -21.2100   20.3020 C   0  0  0  0  0  3  0  0  0  0  0  0
  -28.0500  -22.3830   20.0200 C   0  0  0  0  0  3  0  0  0  0  0  0
  -29.5030  -20.7290   21.4670 C   0  0  0  0  0  0  0  0  0  0  0  0
  -29.7450  -21.7140   22.5820 C   0  0  0  0  0  1  0  0  0  0  0  0
  -30.0340  -19.5490   21.5740 N   0  0  0  0  0  0  0  0  0  0  0  0
  -29.8790  -18.4940   20.5630 C   0  0  0  0  0  2  0  0  0  0  0  0
  -30.7990  -17.2360   20.7680 C   0  0  0  0  0  2  0  0  0  0  0  0
  -30.0310  -15.8550   20.7310 C   0  0  0  0  0  2  0  0  0  0  0  0
  -30.7890  -14.5870   20.2260 C   0  0  0  0  0  0  0  0  0  0  0  0
  -30.4560  -12.4330   19.0470 C   0  0  0  0  0  2  0  0  0  0  0  0
  -29.4680  -12.6700   17.8850 C   0  0  0  0  0  2  0  0  0  0  0  0
  -28.0110  -12.5340   18.3640 C   0  0  0  0  0  2  0  0  0  0  0  0
  -27.7290  -13.3470   19.6490 C   0  0  0  0  0  3  0  0  0  0  0  0
  -28.8210  -13.0840   20.7120 C   0  0  0  0  0  2  0  0  0  0  0  0
  -30.1230  -13.3990   20.1110 N   0  0  0  0  0  0  0  0  0  0  0  0
  -31.9290  -14.7300   19.7740 O   0  0  0  0  0  0  0  0  0  0  0  0
  -25.3470  -13.9740   20.4050 C   0  0  0  0  0  0  0  0  0  0  0  0
  -24.2810  -13.2150   20.7960 C   0  0  0  0  0  0  0  0  0  0  0  0
  -24.7310  -11.8570   20.7580 C   0  0  0  0  0  0  0  0  0  0  0  0
  -26.3860  -13.0870   20.1610 N   0  0  0  0  0  0  0  0  0  0  0  0
  -26.0140  -11.8090   20.4220 N   0  0  0  0  0  0  0  0  0  0  0  0
  -24.0020  -10.6020   20.9610 C   0  0  0  0  0  0  0  0  0  0  0  0
  -24.4430   -9.6350   21.8900 C   0  0  0  0  0  3  0  0  0  0  0  0
  -23.7110   -8.4430   22.0860 C   0  0  0  0  0  3  0  0  0  0  0  0
  -22.5250   -8.2090   21.3500 C   0  0  0  0  0  0  0  0  0  0  0  0
  -22.1020   -9.1670   20.4100 C   0  0  0  0  0  3  0  0  0  0  0  0
  -22.8330  -10.3500   20.2120 C   0  0  0  0  0  3  0  0  0  0  0  0
  -21.7610   -7.0720   21.4540 O   0  0  0  0  0  0  0  0  0  0  0  0
  -21.7200   -6.3410   22.6150 C   0  0  0  0  0  0  0  0  0  0  0  0
  -21.3120   -6.9090   23.8410 C   0  0  0  0  0  3  0  0  0  0  0  0
  -21.2160   -6.1010   24.9940 C   0  0  0  0  0  3  0  0  0  0  0  0
  -21.5200   -4.7290   24.9190 C   0  0  0  0  0  0  0  0  0  0  0  0
  -21.9220   -4.1610   23.6970 C   0  0  0  0  0  3  0  0  0  0  0  0
  -22.0210   -4.9670   22.5490 C   0  0  0  0  0  0  0  0  0  0  0  0
  -22.3880   -4.4110   21.3690 F   0  0  0  0  0  0  0  0  0  0  0  0
  -21.4220   -3.9520   26.0250 F   0  0  0  0  0  0  0  0  0  0  0  0
  -22.8930  -13.7010   21.0970 C   0  0  0  0  0  0  0  0  0  0  0  0
  -22.1810  -13.0110   21.9810 N   0  0  0  0  0  0  0  0  0  0  0  0
  -22.4510  -14.7280   20.5830 O   0  0  0  0  0  0  0  0  0  0  0  0
  -22.5570  -12.1880   22.4270 H   0  0  0  0  0  0  0  0  0  0  0  0
  -21.2470  -13.3080   22.2190 H   0  0  0  0  0  0  0  0  0  0  0  0
  -25.5140  -15.3450   20.2220 N   0  0  0  0  0  0  0  0  0  0  0  0
  -24.7370  -15.9880   20.3200 H   0  0  0  0  0  0  0  0  0  0  0  0
  -26.3630  -15.7960   19.9050 H   0  0  0  0  0  0  0  0  0  0  0  0
  -27.7760  -23.7460   20.7110 C   0  0  0  0  0  2  0  0  0  0  0  0
  -28.9480  -24.5990   21.2710 C   0  0  0  0  0  2  0  0  0  0  0  0
  -28.7030  -26.1390   21.3290 C   0  0  0  0  0  2  0  0  0  0  0  0
  -28.4100  -26.7350   20.0660 O   0  0  0  0  0  0  0  0  0  0  0  0
  -24.5810  -31.8880   23.1970 C   0  0  0  0  0  0  0  0  0  0  0  0
  -27.2610  -27.4910   20.0860 C   0  0  0  0  0  0  0  0  0  0  0  0
  -23.3900  -30.4850   21.5450 C   0  0  0  0  0  3  0  0  0  0  0  0
  -24.8550  -28.9600   20.1140 C   0  0  0  0  0  0  0  0  0  0  0  0
  -25.9110  -30.8670   21.3470 C   0  0  0  0  0  2  0  0  0  0  0  0
  -26.0030  -29.4910   20.7180 C   0  0  0  0  0  0  0  0  0  0  0  0
  -27.2090  -28.7570   20.7150 C   0  0  0  0  0  3  0  0  0  0  0  0
  -26.0990  -26.9760   19.4730 C   0  0  0  0  0  3  0  0  0  0  0  0
  -24.8960  -27.6990   19.4860 C   0  0  0  0  0  3  0  0  0  0  0  0
  -23.6010  -29.8020   20.1650 C   0  0  0  0  0  2  0  0  0  0  0  0
  -24.6450  -31.0940   22.0900 N   0  0  0  0  0  0  0  0  0  0  0  0
  -23.4990  -32.1510   23.7370 O   0  0  0  0  0  0  0  0  0  0  0  0
  -22.7370  -29.4590   22.4960 C   0  0  0  0  0  0  0  0  0  0  0  0
  -21.4130  -29.2720   22.3630 N   0  0  0  0  0  0  0  0  0  0  0  0
  -23.4190  -28.8410   23.3170 O   0  0  0  0  0  0  0  0  0  0  0  0
  -20.9250  -29.8020   21.6570 H   0  0  0  0  0  0  0  0  0  0  0  0
  -18.0420  -28.0680   22.8040 C   0  0  0  0  0  0  0  0  0  0  0  0
  -20.5950  -28.3300   23.1220 C   0  0  0  0  0  3  0  0  0  0  0  0
  -20.7170  -26.9090   22.5240 C   0  0  0  0  0  2  0  0  0  0  0  0
  -19.6300  -26.6030   21.4880 C   0  0  0  0  0  2  0  0  0  0  0  0
  -18.2390  -26.7230   22.1190 C   0  0  0  0  0  2  0  0  0  0  0  0
  -19.1490  -28.8260   23.2690 C   0  0  0  0  0  0  0  0  0  0  0  0
  -18.9150  -30.0800   23.8730 C   0  0  0  0  0  3  0  0  0  0  0  0
  -17.6060  -30.5790   24.0200 C   0  0  0  0  0  3  0  0  0  0  0  0
  -16.5190  -29.8230   23.5600 C   0  0  0  0  0  3  0  0  0  0  0  0
  -16.7340  -28.5710   22.9560 C   0  0  0  0  0  3  0  0  0  0  0  0
  -25.8620  -32.5130   23.8260 C   0  0  0  0  0  3  0  0  0  0  0  0
  -25.5530  -33.9130   24.1560 N   0  0  0  0  0  0  0  0  0  0  0  0
  -25.9020  -34.9630   23.4090 C   0  0  0  0  0  0  0  0  0  0  0  0
  -26.5850  -34.8620   22.3820 O   0  0  0  0  0  0  0  0  0  0  0  0
  -24.9570  -34.0620   24.9570 H   0  0  0  0  0  0  0  0  0  0  0  0
  -24.1830  -36.7600   23.0400 C   0  0  0  0  0  1  0  0  0  0  0  0
  -25.4140  -36.3520   23.8660 C   0  0  0  0  0  3  0  0  0  0  0  0
  -27.5410  -37.2270   24.7300 C   0  0  0  0  0  1  0  0  0  0  0  0
  -26.4520  -37.4010   23.7730 N   0  0  0  0  0  0  0  0  0  0  0  0
  -26.0480  -38.3260   23.9070 H   0  0  0  0  0  0  0  0  0  0  0  0
  -26.3830  -31.7300   25.0940 C   0  0  1  0  0  0  0  0  0  0  0  0
  -25.2900  -31.4780   26.1590 C   0  0  0  0  0  1  0  0  0  0  0  0
  -26.9670  -30.3560   24.6820 C   0  0  0  0  0  1  0  0  0  0  0  0
  -27.5330  -32.5180   25.7640 C   0  0  0  0  0  1  0  0  0  0  0  0
  1  3  1  0
  2  1  2  0
  2 45  1  0
  3  5  2  0
  3  4  1  0
  6  7  1  0
  6  5  1  0
  8  7  1  0
  9  8  1  0
 10 15  1  0
 11 12  1  0
 11 10  1  0
 13 12  1  0
 13 20  1  0
 13 14  1  0
 15  9  1  0
 15 14  1  0
 16  9  2  0
 17 18  2  0
 18 37  1  0
 19 18  1  0
 19 22  1  0
 20 17  1  0
 20 21  1  0
 21 19  2  0
 22 23  1  0
 23 24  2  0
 25 28  1  0
 25 24  1  0
 26 25  2  0
 27 26  1  0
 27 22  2  0
 28 29  1  0
 29 30  1  0
 30 31  2  0
 32 31  1  0
 32 36  1  0
 33 32  2  0
 34 29  2  0
 34 33  1  0
 35 34  1  0
 37 38  1  0
 38 41  1  0
 38 40  1  0
 39 37  2  0
 42 43  1  0
 42 17  1  0
 44 42  1  0
 45 46  1  0
 46 47  1  0
 48 50  1  0
 48 47  1  0
 49 60  2  0
 50 55  1  0
 51 59  1  0
 51 61  1  0
 52 58  1  0
 52 54  1  0
 53 59  1  0
 54 53  1  0
 55 54  2  0
 56 57  1  0
 56 50  2  0
 57 52  2  0
 58 51  1  0
 59 49  1  0
 61 63  2  0
 62 61  1  0
 64 62  1  0
 65 74  2  0
 65 70  1  0
 66 62  1  0
 66 70  1  0
 67 66  1  0
 68 69  1  0
 68 67  1  0
 69 65  1  0
 70 71  2  0
 71 72  1  0
 73 72  2  0
 74 73  1  0
 75 49  1  0
 75 76  1  0
 75 85  1  0
 76 79  1  0
 77 81  1  0
 77 76  1  0
 78 77  2  0
 81 80  1  0
 83 81  1  0
 83 84  1  0
 83 82  1  0
 85 88  1  1
 85 86  1  0
 87 85  1  0
M  ISO  4   8 100   9 100  47 101  48 101
M  END
>  <TORSDO>  (67) 
F 23

>  <SCORE>  (67) 
-12.671

>  <name>  (67) 
66

>  <ligand_id>  (67) 
66

>  <original_smiles>  (67) 
[H]C(C(=NC([H])([H])C([H])([H])C([H])([H])C(=O)N1C([H])([H])C([H])([H])C([H])([H])C([H])(n2nc(-c3c([H])c([H])c(Oc4c([H])c([H])c(F)c([H])c4F)c([H])c3[H])c(C(=O)N([H])[H])c2N([H])[H])C1([H])[H])C([H])([H])[H])=C([H])C([H])([H])C([H])([H])C([H])([H])Oc1c([H])c([H])c2c(c1[H])C([H])([H])N(C(=O)C([H])(N([H])C(=O)C([H])(N([H])C([H])([H])[H])C([H])([H])[H])C(C([H])([H])[H])(C([H])([H])[H])C([H])([H])[H])C([H])(C(=O)N([H])C1([H])c3c([H])c([H])c([H])c([H])c3C([H])([H])C([H])([H])C1([H])[H])C2([H])[H]

>  <smiles>  (67) 
[H]C(C(=NC([H])([H])C([H])([H])C([H])([H])C(=O)N1C([H])([H])C([H])([H])C([H])([H])C([H])(n2nc(-c3c([H])c([H])c(Oc4c([H])c([H])c(F)c([H])c4F)c([H])c3[H])c(C(=O)N([H])[H])c2N([H])[H])C1([H])[H])C([H])([H])[H])=C([H])C([H])([H])C([H])([H])C([H])([H])Oc1c([H])c([H])c2c(c1[H])C([H])([H])N(C(=O)C([H])(N([H])C(=O)C([H])(N([H])C([H])([H])[H])C([H])([H])[H])C(C([H])([H])[H])(C([H])([H])[H])C([H])([H])[H])C([H])(C(=O)N([H])C1([H])c3c([H])c([H])c([H])c([H])c3C([H])([H])C([H])([H])C1([H])[H])C2([H])[H]

$$$$
67:0:0
     RDKit          3D

 89 96  0  0  1  0  0  0  0  0999 V2000
  -29.0090  -19.7930   19.4870 C   0  0  0  0  0  3  0  0  0  0  0  0
  -28.3530  -19.2130   18.2600 C   0  0  0  0  0  1  0  0  0  0  0  0
  -30.1710  -19.4550   21.6090 C   0  0  0  0  0  1  0  0  0  0  0  0
  -29.7900  -18.9440   20.2840 N   0  0  0  0  0  0  0  0  0  0  0  0
  -28.6970  -21.1550   19.6050 N   0  0  0  0  0  0  0  0  0  0  0  0
  -28.0760  -21.4340   18.8560 H   0  0  0  0  0  0  0  0  0  0  0  0
  -30.8180  -17.4860   18.4070 C   0  0  0  0  0  1  0  0  0  0  0  0
  -30.4290  -17.5700   19.9020 C   0  0  0  0  0  3  0  0  0  0  0  0
  -29.8800  -16.1660   20.5040 C   0  0  0  0  0  2  0  0  0  0  0  0
  -30.6910  -14.8030   20.2220 C   0  0  0  0  0  0  0  0  0  0  0  0
  -30.4840  -12.5480   19.1750 C   0  0  0  0  0  2  0  0  0  0  0  0
  -29.5320  -12.6810   17.9640 C   0  0  0  0  0  2  0  0  0  0  0  0
  -28.0610  -12.5080   18.3970 C   0  0  0  0  0  2  0  0  0  0  0  0
  -27.7100  -13.3460   19.6560 C   0  0  0  0  0  3  0  0  0  0  0  0
  -28.7860  -13.2230   20.7560 C   0  0  0  0  0  2  0  0  0  0  0  0
  -30.0810  -13.5720   20.1630 N   0  0  0  0  0  0  0  0  0  0  0  0
  -31.8780  -14.8900   19.8970 O   0  0  0  0  0  0  0  0  0  0  0  0
  -25.3320  -13.9170   20.4270 C   0  0  0  0  0  0  0  0  0  0  0  0
  -24.2790  -13.1350   20.8120 C   0  0  0  0  0  0  0  0  0  0  0  0
  -24.7510  -11.7870   20.7730 C   0  0  0  0  0  0  0  0  0  0  0  0
  -26.3770  -13.0460   20.1680 N   0  0  0  0  0  0  0  0  0  0  0  0
  -26.0370  -11.7600   20.4390 N   0  0  0  0  0  0  0  0  0  0  0  0
  -24.0360  -10.5200   20.9710 C   0  0  0  0  0  0  0  0  0  0  0  0
  -24.4780   -9.5630   21.9110 C   0  0  0  0  0  3  0  0  0  0  0  0
  -23.7620   -8.3610   22.0990 C   0  0  0  0  0  3  0  0  0  0  0  0
  -22.5900   -8.1080   21.3460 C   0  0  0  0  0  0  0  0  0  0  0  0
  -22.1670   -9.0550   20.3970 C   0  0  0  0  0  3  0  0  0  0  0  0
  -22.8830  -10.2480   20.2070 C   0  0  0  0  0  3  0  0  0  0  0  0
  -21.8450   -6.9580   21.4430 O   0  0  0  0  0  0  0  0  0  0  0  0
  -21.7920   -6.2290   22.6050 C   0  0  0  0  0  0  0  0  0  0  0  0
  -21.3320   -6.7900   23.8160 C   0  0  0  0  0  3  0  0  0  0  0  0
  -21.2260   -5.9880   24.9690 C   0  0  0  0  0  3  0  0  0  0  0  0
  -21.5730   -4.6250   24.9120 C   0  0  0  0  0  0  0  0  0  0  0  0
  -22.0270   -4.0620   23.7060 C   0  0  0  0  0  3  0  0  0  0  0  0
  -22.1330   -4.8620   22.5550 C   0  0  0  0  0  0  0  0  0  0  0  0
  -22.5510   -4.3100   21.3900 F   0  0  0  0  0  0  0  0  0  0  0  0
  -21.4650   -3.8520   26.0170 F   0  0  0  0  0  0  0  0  0  0  0  0
  -22.8810  -13.6010   21.1040 C   0  0  0  0  0  0  0  0  0  0  0  0
  -22.1670  -12.8980   21.9750 N   0  0  0  0  0  0  0  0  0  0  0  0
  -22.4300  -14.6260   20.5920 O   0  0  0  0  0  0  0  0  0  0  0  0
  -22.5450  -12.0710   22.4130 H   0  0  0  0  0  0  0  0  0  0  0  0
  -21.2290  -13.1940   22.2080 H   0  0  0  0  0  0  0  0  0  0  0  0
  -25.4830  -15.2900   20.2540 N   0  0  0  0  0  0  0  0  0  0  0  0
  -24.7100  -15.9340   20.3850 H   0  0  0  0  0  0  0  0  0  0  0  0
  -26.3250  -15.7450   19.9290 H   0  0  0  0  0  0  0  0  0  0  0  0
  -28.9360  -22.3790   20.4870 C   0  0  0  0  0  2  0  0  0  0  0  0
  -28.7370  -23.8240   19.7760 C   0  0  0  0  0  3  0  0  0  0  0  0
  -28.2560  -25.0940   20.6420 C   0  0  0  0  0  3  0  0  0  0  0  0
  -28.3800  -26.4980   20.1430 O   0  0  0  0  0  0  0  0  0  0  0  0
  -24.5790  -31.8750   23.1900 C   0  0  0  0  0  0  0  0  0  0  0  0
  -27.2510  -27.3340   20.1490 C   0  0  0  0  0  0  0  0  0  0  0  0
  -23.3990  -30.4730   21.5350 C   0  0  0  0  0  3  0  0  0  0  0  0
  -24.8720  -28.9270   20.1230 C   0  0  0  0  0  0  0  0  0  0  0  0
  -25.9360  -30.8080   21.3700 C   0  0  0  0  0  2  0  0  0  0  0  0
  -26.0320  -29.4280   20.7280 C   0  0  0  0  0  0  0  0  0  0  0  0
  -27.2260  -28.6420   20.7270 C   0  0  0  0  0  3  0  0  0  0  0  0
  -26.0680  -26.8820   19.5280 C   0  0  0  0  0  3  0  0  0  0  0  0
  -24.8910  -27.6600   19.5160 C   0  0  0  0  0  3  0  0  0  0  0  0
  -23.6300  -29.7950   20.1580 C   0  0  0  0  0  2  0  0  0  0  0  0
  -24.6580  -31.0690   22.0900 N   0  0  0  0  0  0  0  0  0  0  0  0
  -23.4890  -32.1430   23.7170 O   0  0  0  0  0  0  0  0  0  0  0  0
  -22.7340  -29.4530   22.4890 C   0  0  0  0  0  0  0  0  0  0  0  0
  -21.4070  -29.2790   22.3590 N   0  0  0  0  0  0  0  0  0  0  0  0
  -23.4100  -28.8180   23.3040 O   0  0  0  0  0  0  0  0  0  0  0  0
  -20.9210  -29.8430   21.6770 H   0  0  0  0  0  0  0  0  0  0  0  0
  -18.0240  -28.1000   22.8650 C   0  0  0  0  0  0  0  0  0  0  0  0
  -20.5850  -28.3380   23.1220 C   0  0  0  0  0  3  0  0  0  0  0  0
  -20.6760  -26.9140   22.5250 C   0  0  0  0  0  2  0  0  0  0  0  0
  -19.5650  -26.6150   21.5130 C   0  0  0  0  0  2  0  0  0  0  0  0
  -18.1870  -26.7600   22.1670 C   0  0  0  0  0  2  0  0  0  0  0  0
  -19.1500  -28.8480   23.2990 C   0  0  0  0  0  0  0  0  0  0  0  0
  -18.9450  -30.1030   23.9120 C   0  0  0  0  0  3  0  0  0  0  0  0
  -17.6450  -30.6110   24.0950 C   0  0  0  0  0  3  0  0  0  0  0  0
  -16.5320  -29.8610   23.6770 C   0  0  0  0  0  3  0  0  0  0  0  0
  -16.7230  -28.6080   23.0670 C   0  0  0  0  0  3  0  0  0  0  0  0
  -25.8520  -32.5160   23.8260 C   0  0  0  0  0  3  0  0  0  0  0  0
  -25.5290  -33.9090   24.1620 N   0  0  0  0  0  0  0  0  0  0  0  0
  -25.8540  -34.9690   23.4100 C   0  0  0  0  0  0  0  0  0  0  0  0
  -26.5280  -34.8760   22.3800 O   0  0  0  0  0  0  0  0  0  0  0  0
  -24.9320  -34.0540   24.9630 H   0  0  0  0  0  0  0  0  0  0  0  0
  -24.1160  -36.7530   23.0570 C   0  0  0  0  0  1  0  0  0  0  0  0
  -25.3560  -36.3520   23.8720 C   0  0  0  0  0  3  0  0  0  0  0  0
  -27.4780  -37.2480   24.7250 C   0  0  0  0  0  1  0  0  0  0  0  0
  -26.3830  -37.4120   23.7720 N   0  0  0  0  0  0  0  0  0  0  0  0
  -25.9700  -38.3280   23.9190 H   0  0  0  0  0  0  0  0  0  0  0  0
  -26.3610  -31.7420   25.1040 C   0  0  1  0  0  0  0  0  0  0  0  0
  -25.2590  -31.4930   26.1600 C   0  0  0  0  0  1  0  0  0  0  0  0
  -26.9580  -30.3700   24.7100 C   0  0  0  0  0  1  0  0  0  0  0  0
  -27.5030  -32.5390   25.7780 C   0  0  0  0  0  1  0  0  0  0  0  0
  1  2  1  0
  1  5  1  0
  1  4  1  0
  4  3  1  0
  5 46  1  0
  6  5  1  0
  8  7  1  0
  8  4  1  0
  8  9  1  0
 10  9  1  0
 11 16  1  0
 12 13  1  0
 12 11  1  0
 14 13  1  0
 14 21  1  0
 14 15  1  0
 16 10  1  0
 16 15  1  0
 17 10  2  0
 18 19  2  0
 19 38  1  0
 20 19  1  0
 20 23  1  0
 21 18  1  0
 21 22  1  0
 22 20  2  0
 23 24  1  0
 24 25  2  0
 26 29  1  0
 26 25  1  0
 27 26  2  0
 28 27  1  0
 28 23  2  0
 29 30  1  0
 30 31  1  0
 31 32  2  0
 33 32  1  0
 33 37  1  0
 34 33  2  0
 35 30  2  0
 35 34  1  0
 36 35  1  0
 38 39  1  0
 39 42  1  0
 39 41  1  0
 40 38  2  0
 43 44  1  0
 43 18  1  0
 45 43  1  0
 47 46  1  0
 47 48  2  0
 49 51  1  0
 49 48  1  0
 50 61  2  0
 51 56  1  0
 52 60  1  0
 52 62  1  0
 53 59  1  0
 53 55  1  0
 54 60  1  0
 55 54  1  0
 56 55  2  0
 57 51  2  0
 58 57  1  0
 58 53  2  0
 59 52  1  0
 60 50  1  0
 62 64  2  0
 63 62  1  0
 65 63  1  0
 66 75  2  0
 66 71  1  0
 67 63  1  0
 67 71  1  0
 68 67  1  0
 69 70  1  0
 69 68  1  0
 70 66  1  0
 71 72  2  0
 72 73  1  0
 74 73  2  0
 75 74  1  0
 76 50  1  0
 76 77  1  0
 76 86  1  0
 77 80  1  0
 78 82  1  0
 78 77  1  0
 79 78  2  0
 82 81  1  0
 84 82  1  0
 84 85  1  0
 84 83  1  0
 86 89  1  1
 86 87  1  0
 88 86  1  0
M  ISO  4   9 100  10 100  48 101  49 101
M  END
>  <TORSDO>  (68) 
F 21

>  <SCORE>  (68) 
-13.293

>  <name>  (68) 
67

>  <ligand_id>  (68) 
67

>  <original_smiles>  (68) 
[H]c1c([H])c([H])c2c(c1[H])C([H])([H])C([H])([H])C([H])([H])C2([H])N([H])C(=O)C1([H])N(C(=O)C([H])(N([H])C(=O)C([H])(N([H])C([H])([H])[H])C([H])([H])[H])C(C([H])([H])[H])(C([H])([H])[H])C([H])([H])[H])C([H])([H])c2c([H])c(OC([H])([H])C([H])([H])C([H])([H])[N+]([H])=C(N(C([H])([H])[H])C([H])(C([H])([H])[H])C([H])([H])C(=O)N3C([H])([H])C([H])([H])C([H])([H])C([H])(n4nc(-c5c([H])c([H])c(Oc6c([H])c([H])c(F)c([H])c6F)c([H])c5[H])c(C(=O)N([H])[H])c4N([H])[H])C3([H])[H])C([H])([H])[H])c([H])c([H])c2C1([H])[H]

>  <smiles>  (68) 
[H]c1c([H])c([H])c2c(c1[H])C([H])([H])C([H])([H])C([H])([H])C2([H])N([H])C(=O)C1([H])N(C(=O)C([H])(N([H])C(=O)C([H])(N([H])C([H])([H])[H])C([H])([H])[H])C(C([H])([H])[H])(C([H])([H])[H])C([H])([H])[H])C([H])([H])c2c([H])c(OC([H])([H])C([H])([H])C([H])([H])[N+]([H])=C(N(C([H])([H])[H])C([H])(C([H])([H])[H])C([H])([H])C(=O)N3C([H])([H])C([H])([H])C([H])([H])C([H])(n4nc(-c5c([H])c([H])c(Oc6c([H])c([H])c(F)c([H])c6F)c([H])c5[H])c(C(=O)N([H])[H])c4N([H])[H])C3([H])[H])C([H])([H])[H])c([H])c([H])c2C1([H])[H]

$$$$
68:0:0
     RDKit          3D

 99107  0  0  1  0  0  0  0  0999 V2000
  -30.8460  -19.8060   21.2240 C   0  0  0  0  0  3  0  0  0  0  0  0
  -30.4370  -17.3150   20.9170 C   0  0  0  0  0  0  0  0  0  0  0  0
  -30.5100  -18.4340   21.6660 N   0  0  0  0  0  0  0  0  0  0  0  0
  -30.4300  -17.3750   19.6850 O   0  0  0  0  0  0  0  0  0  0  0  0
  -30.4340  -18.3070   22.6650 H   0  0  0  0  0  0  0  0  0  0  0  0
  -30.3020  -15.9680   21.6850 C   0  0  0  0  0  2  0  0  0  0  0  0
  -31.0280  -14.7760   20.9770 C   0  0  0  0  0  0  0  0  0  0  0  0
  -30.8680  -12.5440   19.9020 C   0  0  0  0  0  2  0  0  0  0  0  0
  -30.0260  -12.6450   18.6130 C   0  0  0  0  0  2  0  0  0  0  0  0
  -28.5210  -12.5150   18.9200 C   0  0  0  0  0  2  0  0  0  0  0  0
  -28.0720  -13.4260   20.0950 C   0  0  0  0  0  3  0  0  0  0  0  0
  -29.0280  -13.2650   21.2960 C   0  0  0  0  0  2  0  0  0  0  0  0
  -30.3880  -13.5790   20.8300 N   0  0  0  0  0  0  0  0  0  0  0  0
  -32.1760  -14.9320   20.5440 O   0  0  0  0  0  0  0  0  0  0  0  0
  -25.6300  -14.0700   20.5890 C   0  0  0  0  0  0  0  0  0  0  0  0
  -24.5270  -13.3140   20.8850 C   0  0  0  0  0  0  0  0  0  0  0  0
  -24.9740  -11.9580   20.9180 C   0  0  0  0  0  0  0  0  0  0  0  0
  -26.6810  -13.1740   20.4650 N   0  0  0  0  0  0  0  0  0  0  0  0
  -26.2840  -11.8990   20.7170 N   0  0  0  0  0  0  0  0  0  0  0  0
  -24.2210  -10.7070   21.0740 C   0  0  0  0  0  0  0  0  0  0  0  0
  -24.5840   -9.7400   22.0360 C   0  0  0  0  0  3  0  0  0  0  0  0
  -23.8330   -8.5530   22.1800 C   0  0  0  0  0  3  0  0  0  0  0  0
  -22.7040   -8.3260   21.3590 C   0  0  0  0  0  0  0  0  0  0  0  0
  -22.3590   -9.2800   20.3850 C   0  0  0  0  0  3  0  0  0  0  0  0
  -23.1120  -10.4570   20.2400 C   0  0  0  0  0  3  0  0  0  0  0  0
  -21.9310   -7.1910   21.4100 O   0  0  0  0  0  0  0  0  0  0  0  0
  -21.8100   -6.4520   22.5590 C   0  0  0  0  0  0  0  0  0  0  0  0
  -21.3580   -7.0260   23.7670 C   0  0  0  0  0  3  0  0  0  0  0  0
  -21.1810   -6.2180   24.9080 C   0  0  0  0  0  3  0  0  0  0  0  0
  -21.4460   -4.8360   24.8400 C   0  0  0  0  0  0  0  0  0  0  0  0
  -21.8930   -4.2630   23.6370 C   0  0  0  0  0  3  0  0  0  0  0  0
  -22.0700   -5.0690   22.4990 C   0  0  0  0  0  0  0  0  0  0  0  0
  -22.4790   -4.5070   21.3360 F   0  0  0  0  0  0  0  0  0  0  0  0
  -21.2700   -4.0580   25.9340 F   0  0  0  0  0  0  0  0  0  0  0  0
  -23.1180  -13.8100   21.0370 C   0  0  0  0  0  0  0  0  0  0  0  0
  -22.3210  -13.1440   21.8670 N   0  0  0  0  0  0  0  0  0  0  0  0
  -22.7290  -14.8220   20.4560 O   0  0  0  0  0  0  0  0  0  0  0  0
  -22.6480  -12.3250   22.3560 H   0  0  0  0  0  0  0  0  0  0  0  0
  -21.3730  -13.4580   22.0150 H   0  0  0  0  0  0  0  0  0  0  0  0
  -25.8250  -15.4340   20.3990 N   0  0  0  0  0  0  0  0  0  0  0  0
  -25.0620  -16.1010   20.4300 H   0  0  0  0  0  0  0  0  0  0  0  0
  -26.7060  -15.8510   20.1260 H   0  0  0  0  0  0  0  0  0  0  0  0
  -28.7740  -20.7440   22.4570 C   0  0  0  0  0  1  0  0  0  0  0  0
  -29.6020  -20.7600   21.1490 C   0  0  0  0  0  3  0  0  0  0  0  0
  -29.9650  -22.1540   20.7200 N   0  0  0  0  0  4  0  0  0  0  0  0
  -30.6350  -22.5360   21.3690 H   0  0  0  0  0  0  0  0  0  0  0  0
  -30.4210  -22.0870   19.8240 H   0  0  0  0  0  0  0  0  0  0  0  0
  -28.8390  -23.1240   20.5700 C   0  0  0  0  0  2  0  0  0  0  0  0
  -29.2490  -24.5840   20.2130 C   0  0  0  0  0  2  0  0  0  0  0  0
  -27.9980  -25.4330   19.8780 C   0  0  0  0  0  2  0  0  0  0  0  0
  -28.1960  -26.8570   19.7660 O   0  0  0  0  0  0  0  0  0  0  0  0
  -24.6000  -31.9790   23.1650 C   0  0  0  0  0  0  0  0  0  0  0  0
  -27.0390  -27.6210   19.8030 C   0  0  0  0  0  0  0  0  0  0  0  0
  -23.2960  -30.6360   21.5530 C   0  0  0  0  0  3  0  0  0  0  0  0
  -24.6590  -29.1530   19.9910 C   0  0  0  0  0  0  0  0  0  0  0  0
  -25.8120  -30.9940   21.2230 C   0  0  0  0  0  2  0  0  0  0  0  0
  -25.8560  -29.6470   20.5290 C   0  0  0  0  0  0  0  0  0  0  0  0
  -27.0490  -28.8920   20.4250 C   0  0  0  0  0  3  0  0  0  0  0  0
  -25.8190  -27.1520   19.2540 C   0  0  0  0  0  3  0  0  0  0  0  0
  -24.6370  -27.9060   19.3490 C   0  0  0  0  0  3  0  0  0  0  0  0
  -23.4220  -30.0090   20.1400 C   0  0  0  0  0  2  0  0  0  0  0  0
  -24.5940  -31.2130   22.0390 N   0  0  0  0  0  0  0  0  0  0  0  0
  -23.5490  -32.2380   23.7680 O   0  0  0  0  0  0  0  0  0  0  0  0
  -22.6970  -29.5800   22.5110 C   0  0  0  0  0  0  0  0  0  0  0  0
  -21.3740  -29.3690   22.4130 N   0  0  0  0  0  0  0  0  0  0  0  0
  -23.4160  -28.9590   23.2980 O   0  0  0  0  0  0  0  0  0  0  0  0
  -20.8550  -29.9210   21.7460 H   0  0  0  0  0  0  0  0  0  0  0  0
  -18.0560  -28.0290   22.9150 C   0  0  0  0  0  0  0  0  0  0  0  0
  -20.5990  -28.4000   23.1870 C   0  0  0  0  0  3  0  0  0  0  0  0
  -20.7670  -26.9730   22.6160 C   0  0  0  0  0  2  0  0  0  0  0  0
  -19.6800  -26.5950   21.6040 C   0  0  0  0  0  2  0  0  0  0  0  0
  -18.2920  -26.6840   22.2450 C   0  0  0  0  0  2  0  0  0  0  0  0
  -19.1390  -28.8410   23.3420 C   0  0  0  0  0  0  0  0  0  0  0  0
  -18.8650  -30.0980   23.9240 C   0  0  0  0  0  3  0  0  0  0  0  0
  -17.5400  -30.5430   24.0840 C   0  0  0  0  0  3  0  0  0  0  0  0
  -16.4700  -29.7280   23.6740 C   0  0  0  0  0  3  0  0  0  0  0  0
  -16.7300  -28.4720   23.0960 C   0  0  0  0  0  3  0  0  0  0  0  0
  -25.9200  -32.5860   23.7350 C   0  0  0  0  0  3  0  0  0  0  0  0
  -26.5150  -31.7600   24.9410 C   0  0  1  0  0  0  0  0  0  0  0  0
  -25.4920  -31.4700   26.0630 C   0  0  0  0  0  1  0  0  0  0  0  0
  -27.0710  -30.4030   24.4490 C   0  0  0  0  0  1  0  0  0  0  0  0
  -27.7050  -32.5280   25.5630 C   0  0  0  0  0  1  0  0  0  0  0  0
  -25.6280  -33.9660   24.1410 N   0  0  0  0  0  0  0  0  0  0  0  0
  -25.9580  -35.0540   23.4330 C   0  0  0  0  0  0  0  0  0  0  0  0
  -26.6110  -35.0020   22.3880 O   0  0  0  0  0  0  0  0  0  0  0  0
  -25.0560  -34.0850   24.9630 H   0  0  0  0  0  0  0  0  0  0  0  0
  -24.2430  -36.8770   23.2010 C   0  0  0  0  0  1  0  0  0  0  0  0
  -25.4900  -36.4170   23.9730 C   0  0  0  0  0  3  0  0  0  0  0  0
  -27.6460  -37.2330   24.8200 C   0  0  0  0  0  1  0  0  0  0  0  0
  -26.5320  -37.4650   23.9050 N   0  0  0  0  0  0  0  0  0  0  0  0
  -26.1380  -38.3770   24.1140 H   0  0  0  0  0  0  0  0  0  0  0  0
  -31.9760  -20.3540   22.1340 C   0  0  0  0  0  2  0  0  0  0  0  0
  -35.8620  -20.6380   20.1910 C   0  0  0  0  0  3  0  0  0  0  0  0
  -35.5230  -19.5020   20.9460 C   0  0  0  0  0  3  0  0  0  0  0  0
  -34.9410  -21.6950   20.0610 C   0  0  0  0  0  3  0  0  0  0  0  0
  -34.2630  -19.4210   21.5660 C   0  0  0  0  0  3  0  0  0  0  0  0
  -33.6750  -21.6240   20.6800 C   0  0  0  0  0  0  0  0  0  0  0  0
  -33.3270  -20.4730   21.4360 C   0  0  0  0  0  0  0  0  0  0  0  0
  -32.7220  -22.8020   20.5300 C   0  0  0  0  0  1  0  0  0  0  0  0
  1  3  1  0
  1 92  1  0
  2  3  1  0
  2  6  1  0
  3  5  1  0
  4  2  2  0
  7  6  1  0
  8 13  1  0
  9 10  1  0
  9  8  1  0
 11 10  1  0
 11 18  1  0
 11 12  1  0
 13  7  1  0
 13 12  1  0
 14  7  2  0
 15 16  2  0
 16 17  1  0
 16 35  1  0
 17 20  1  0
 18 15  1  0
 18 19  1  0
 19 17  2  0
 20 21  1  0
 21 22  2  0
 23 26  1  0
 23 22  1  0
 24 23  2  0
 25 24  1  0
 25 20  2  0
 26 27  1  0
 27 28  1  0
 28 29  2  0
 30 29  1  0
 30 34  1  0
 31 30  2  0
 32 27  2  0
 32 31  1  0
 33 32  1  0
 35 36  1  0
 36 39  1  0
 36 38  1  0
 37 35  2  0
 40 41  1  0
 40 15  1  0
 42 40  1  0
 44  1  1  0
 44 43  1  0
 45 44  1  0
 45 46  1  0
 47 45  1  0
 48 45  1  0
 49 48  1  0
 50 49  1  0
 51 53  1  0
 51 50  1  0
 52 63  2  0
 53 58  1  0
 54 62  1  0
 54 64  1  0
 55 61  1  0
 55 57  1  0
 56 62  1  0
 57 56  1  0
 58 57  2  0
 59 60  1  0
 59 53  2  0
 60 55  2  0
 61 54  1  0
 62 52  1  0
 64 66  2  0
 65 64  1  0
 67 65  1  0
 68 77  2  0
 68 73  1  0
 69 65  1  0
 69 73  1  0
 70 69  1  0
 71 72  1  0
 71 70  1  0
 72 68  1  0
 73 74  2  0
 74 75  1  0
 76 75  2  0
 77 76  1  0
 78 52  1  0
 78 83  1  0
 78 79  1  0
 79 82  1  1
 79 80  1  0
 81 79  1  0
 83 86  1  0
 84 88  1  0
 84 83  1  0
 85 84  2  0
 88 87  1  0
 90 88  1  0
 90 91  1  0
 90 89  1  0
 93 94  1  0
 94 96  2  0
 95 93  2  0
 95 97  1  0
 97 98  2  0
 98 96  1  0
 98 92  1  0
 99 97  1  0
M  ISO  4   6 100   7 100  50 101  51 101
M  END
>  <TORSDO>  (69) 
F 25

>  <SCORE>  (69) 
-10.899

>  <name>  (69) 
68

>  <ligand_id>  (69) 
68

>  <original_smiles>  (69) 
[H]c1c([H])c([H])c(C([H])([H])C([H])(N([H])C(=O)C([H])([H])C(=O)N2C([H])([H])C([H])([H])C([H])([H])C([H])(n3nc(-c4c([H])c([H])c(Oc5c([H])c([H])c(F)c([H])c5F)c([H])c4[H])c(C(=O)N([H])[H])c3N([H])[H])C2([H])[H])C([H])(C([H])([H])[H])[N+]([H])([H])C([H])([H])C([H])([H])C([H])([H])Oc2c([H])c([H])c3c(c2[H])C([H])([H])N(C(=O)C([H])(N([H])C(=O)C([H])(N([H])C([H])([H])[H])C([H])([H])[H])C(C([H])([H])[H])(C([H])([H])[H])C([H])([H])[H])C([H])(C(=O)N([H])C2([H])c4c([H])c([H])c([H])c([H])c4C([H])([H])C([H])([H])C2([H])[H])C3([H])[H])c(C([H])([H])[H])c1[H]

>  <smiles>  (69) 
[H]c1c([H])c([H])c(C([H])([H])C([H])(N([H])C(=O)C([H])([H])C(=O)N2C([H])([H])C([H])([H])C([H])([H])C([H])(n3nc(-c4c([H])c([H])c(Oc5c([H])c([H])c(F)c([H])c5F)c([H])c4[H])c(C(=O)N([H])[H])c3N([H])[H])C2([H])[H])C([H])(C([H])([H])[H])[N+]([H])([H])C([H])([H])C([H])([H])C([H])([H])Oc2c([H])c([H])c3c(c2[H])C([H])([H])N(C(=O)C([H])(N([H])C(=O)C([H])(N([H])C([H])([H])[H])C([H])([H])[H])C(C([H])([H])[H])(C([H])([H])[H])C([H])([H])[H])C([H])(C(=O)N([H])C2([H])c4c([H])c([H])c([H])c([H])c4C([H])([H])C([H])([H])C2([H])[H])C3([H])[H])c(C([H])([H])[H])c1[H]

$$$$
69:0:0
     RDKit          3D

 89 96  0  0  1  0  0  0  0  0999 V2000
  -29.4030  -21.1750   20.8500 N   0  0  0  0  0  4  0  0  0  0  0  0
  -28.6580  -20.9540   21.4920 H   0  0  0  0  0  0  0  0  0  0  0  0
  -30.1820  -21.4810   21.4090 H   0  0  0  0  0  0  0  0  0  0  0  0
  -31.1050  -20.0730   19.3500 C   0  0  0  0  0  1  0  0  0  0  0  0
  -29.8110  -19.8650   20.1670 C   0  0  0  0  0  3  0  0  0  0  0  0
  -30.8010  -18.9000   22.3650 C   0  0  0  0  0  1  0  0  0  0  0  0
  -29.9370  -18.5720   21.1310 C   0  0  0  0  0  3  0  0  0  0  0  0
  -30.0130  -15.9270   20.7230 C   0  0  0  0  0  3  0  0  0  0  0  0
  -30.4890  -17.2120   20.5490 C   0  0  0  0  0  3  0  0  0  0  0  0
  -30.7230  -14.7100   20.2080 C   0  0  0  0  0  0  0  0  0  0  0  0
  -30.3960  -12.5050   19.0970 C   0  0  0  0  0  2  0  0  0  0  0  0
  -29.4220  -12.6800   17.9120 C   0  0  0  0  0  2  0  0  0  0  0  0
  -27.9590  -12.5440   18.3750 C   0  0  0  0  0  2  0  0  0  0  0  0
  -27.6590  -13.3700   19.6560 C   0  0  0  0  0  3  0  0  0  0  0  0
  -28.7500  -13.1710   20.7280 C   0  0  0  0  0  2  0  0  0  0  0  0
  -30.0450  -13.5140   20.1220 N   0  0  0  0  0  0  0  0  0  0  0  0
  -31.8690  -14.7830   19.7550 O   0  0  0  0  0  0  0  0  0  0  0  0
  -25.2920  -13.9780   20.4430 C   0  0  0  0  0  0  0  0  0  0  0  0
  -24.2290  -13.2100   20.8380 C   0  0  0  0  0  0  0  0  0  0  0  0
  -24.6810  -11.8560   20.7890 C   0  0  0  0  0  0  0  0  0  0  0  0
  -26.3230  -13.0930   20.1760 N   0  0  0  0  0  0  0  0  0  0  0  0
  -25.9640  -11.8110   20.4450 N   0  0  0  0  0  0  0  0  0  0  0  0
  -23.9500  -10.5980   20.9940 C   0  0  0  0  0  0  0  0  0  0  0  0
  -24.4030   -9.6220   21.9080 C   0  0  0  0  0  3  0  0  0  0  0  0
  -23.6740   -8.4290   22.1030 C   0  0  0  0  0  3  0  0  0  0  0  0
  -22.4770   -8.2040   21.3820 C   0  0  0  0  0  0  0  0  0  0  0  0
  -22.0420   -9.1680   20.4560 C   0  0  0  0  0  3  0  0  0  0  0  0
  -22.7730  -10.3530   20.2600 C   0  0  0  0  0  3  0  0  0  0  0  0
  -21.7170   -7.0630   21.4860 O   0  0  0  0  0  0  0  0  0  0  0  0
  -21.6960   -6.3140   22.6340 C   0  0  0  0  0  0  0  0  0  0  0  0
  -21.3200   -6.8660   23.8780 C   0  0  0  0  0  3  0  0  0  0  0  0
  -21.2470   -6.0440   25.0200 C   0  0  0  0  0  3  0  0  0  0  0  0
  -21.5370   -4.6700   24.9200 C   0  0  0  0  0  0  0  0  0  0  0  0
  -21.9060   -4.1170   23.6810 C   0  0  0  0  0  3  0  0  0  0  0  0
  -21.9820   -4.9370   22.5410 C   0  0  0  0  0  0  0  0  0  0  0  0
  -22.3170   -4.3950   21.3460 F   0  0  0  0  0  0  0  0  0  0  0  0
  -21.4590   -3.8790   26.0140 F   0  0  0  0  0  0  0  0  0  0  0  0
  -22.8440  -13.6970   21.1480 C   0  0  0  0  0  0  0  0  0  0  0  0
  -22.1350  -13.0060   22.0340 N   0  0  0  0  0  0  0  0  0  0  0  0
  -22.3980  -14.7260   20.6410 O   0  0  0  0  0  0  0  0  0  0  0  0
  -22.5080  -12.1750   22.4700 H   0  0  0  0  0  0  0  0  0  0  0  0
  -21.2050  -13.3150   22.2820 H   0  0  0  0  0  0  0  0  0  0  0  0
  -25.4620  -15.3470   20.2650 N   0  0  0  0  0  0  0  0  0  0  0  0
  -24.7080  -16.0110   20.4030 H   0  0  0  0  0  0  0  0  0  0  0  0
  -26.3100  -15.7780   19.9180 H   0  0  0  0  0  0  0  0  0  0  0  0
  -28.9060  -22.3580   20.0190 C   0  0  0  0  0  2  0  0  0  0  0  0
  -28.9480  -23.8330   20.6640 C   0  0  0  0  0  3  0  0  0  0  0  0
  -28.1390  -24.9920   19.9150 C   0  0  0  0  0  3  0  0  0  0  0  0
  -28.2780  -26.4310   20.2950 O   0  0  0  0  0  0  0  0  0  0  0  0
  -24.5860  -31.8930   23.2550 C   0  0  0  0  0  0  0  0  0  0  0  0
  -27.1720  -27.3030   20.2040 C   0  0  0  0  0  0  0  0  0  0  0  0
  -23.3760  -30.5020   21.6150 C   0  0  0  0  0  3  0  0  0  0  0  0
  -24.8190  -28.9480   20.1860 C   0  0  0  0  0  0  0  0  0  0  0  0
  -25.9190  -30.7970   21.4400 C   0  0  0  0  0  2  0  0  0  0  0  0
  -25.9890  -29.4180   20.7930 C   0  0  0  0  0  0  0  0  0  0  0  0
  -27.1650  -28.6060   20.7970 C   0  0  0  0  0  3  0  0  0  0  0  0
  -25.9830  -26.9070   19.5440 C   0  0  0  0  0  3  0  0  0  0  0  0
  -24.8200  -27.6970   19.5520 C   0  0  0  0  0  3  0  0  0  0  0  0
  -23.5870  -29.8270   20.2340 C   0  0  0  0  0  2  0  0  0  0  0  0
  -24.6450  -31.0830   22.1580 N   0  0  0  0  0  0  0  0  0  0  0  0
  -23.5040  -32.1770   23.7880 O   0  0  0  0  0  0  0  0  0  0  0  0
  -22.7060  -29.4880   22.5730 C   0  0  0  0  0  0  0  0  0  0  0  0
  -21.3800  -29.3110   22.4390 N   0  0  0  0  0  0  0  0  0  0  0  0
  -23.3790  -28.8630   23.3970 O   0  0  0  0  0  0  0  0  0  0  0  0
  -20.8960  -29.8670   21.7470 H   0  0  0  0  0  0  0  0  0  0  0  0
  -18.0010  -28.1120   22.9140 C   0  0  0  0  0  0  0  0  0  0  0  0
  -20.5550  -28.3790   23.2100 C   0  0  0  0  0  3  0  0  0  0  0  0
  -20.6660  -26.9430   22.6490 C   0  0  0  0  0  2  0  0  0  0  0  0
  -19.5770  -26.6080   21.6260 C   0  0  0  0  0  2  0  0  0  0  0  0
  -18.1880  -26.7570   22.2530 C   0  0  0  0  0  2  0  0  0  0  0  0
  -19.1140  -28.8810   23.3490 C   0  0  0  0  0  0  0  0  0  0  0  0
  -18.8840  -30.1490   23.9270 C   0  0  0  0  0  3  0  0  0  0  0  0
  -17.5770  -30.6480   24.0730 C   0  0  0  0  0  3  0  0  0  0  0  0
  -16.4780  -29.8770   23.6540 C   0  0  0  0  0  3  0  0  0  0  0  0
  -16.6920  -28.6110   23.0800 C   0  0  0  0  0  3  0  0  0  0  0  0
  -25.8720  -32.5180   23.8770 C   0  0  0  0  0  3  0  0  0  0  0  0
  -26.3840  -31.7440   25.1520 C   0  0  1  0  0  0  0  0  0  0  0  0
  -25.2890  -31.5140   26.2200 C   0  0  0  0  0  1  0  0  0  0  0  0
  -26.9590  -30.3620   24.7640 C   0  0  0  0  0  1  0  0  0  0  0  0
  -27.5390  -32.5320   25.8140 C   0  0  0  0  0  1  0  0  0  0  0  0
  -25.5670  -33.9180   24.2100 N   0  0  0  0  0  0  0  0  0  0  0  0
  -25.9000  -34.9700   23.4520 C   0  0  0  0  0  0  0  0  0  0  0  0
  -26.5670  -34.8680   22.4190 O   0  0  0  0  0  0  0  0  0  0  0  0
  -24.9710  -34.0710   25.0110 H   0  0  0  0  0  0  0  0  0  0  0  0
  -24.1750  -36.7700   23.1150 C   0  0  0  0  0  1  0  0  0  0  0  0
  -25.4220  -36.3590   23.9160 C   0  0  0  0  0  3  0  0  0  0  0  0
  -27.5650  -37.2370   24.7320 C   0  0  0  0  0  1  0  0  0  0  0  0
  -26.4560  -37.4100   23.7970 N   0  0  0  0  0  0  0  0  0  0  0  0
  -26.0540  -38.3300   23.9500 H   0  0  0  0  0  0  0  0  0  0  0  0
  1  3  1  0
  1  2  1  0
  5  4  1  0
  5  1  1  0
  5  7  1  0
  7  6  1  0
  9  8  2  0
  9  7  1  0
 10  8  1  0
 11 16  1  0
 12 13  1  0
 12 11  1  0
 14 13  1  0
 14 21  1  0
 14 15  1  0
 16 10  1  0
 16 15  1  0
 17 10  2  0
 18 19  2  0
 19 38  1  0
 20 19  1  0
 20 23  1  0
 21 18  1  0
 21 22  1  0
 22 20  2  0
 23 24  1  0
 24 25  2  0
 26 29  1  0
 26 25  1  0
 27 26  2  0
 28 27  1  0
 28 23  2  0
 29 30  1  0
 30 31  1  0
 31 32  2  0
 33 32  1  0
 33 37  1  0
 34 33  2  0
 35 30  2  0
 35 34  1  0
 36 35  1  0
 38 39  1  0
 39 42  1  0
 39 41  1  0
 40 38  2  0
 43 44  1  0
 43 18  1  0
 45 43  1  0
 46 47  1  0
 46  1  1  0
 48 49  1  0
 48 47  2  0
 50 61  2  0
 51 49  1  0
 51 56  1  0
 52 60  1  0
 52 62  1  0
 53 59  1  0
 53 55  1  0
 54 60  1  0
 55 56  2  0
 55 54  1  0
 57 58  1  0
 57 51  2  0
 58 53  2  0
 59 52  1  0
 60 50  1  0
 62 64  2  0
 63 62  1  0
 65 63  1  0
 66 75  2  0
 66 71  1  0
 67 63  1  0
 67 71  1  0
 68 67  1  0
 69 70  1  0
 69 68  1  0
 70 66  1  0
 71 72  2  0
 72 73  1  0
 74 73  2  0
 75 74  1  0
 76 50  1  0
 76 81  1  0
 76 77  1  0
 77 80  1  1
 77 78  1  0
 79 77  1  0
 81 84  1  0
 82 86  1  0
 82 81  1  0
 83 82  2  0
 86 85  1  0
 88 86  1  0
 88 89  1  0
 88 87  1  0
M  ISO  4   8 100  10 100  48 101  49 101
M  END
>  <TORSDO>  (70) 
F 22

>  <SCORE>  (70) 
-12.828

>  <name>  (70) 
69

>  <ligand_id>  (70) 
69

>  <original_smiles>  (70) 
[H]C(C(=O)N1C([H])([H])C([H])([H])C([H])([H])C([H])(n2nc(-c3c([H])c([H])c(Oc4c([H])c([H])c(F)c([H])c4F)c([H])c3[H])c(C(=O)N([H])[H])c2N([H])[H])C1([H])[H])=C([H])C([H])(C([H])([H])[H])C([H])(C([H])([H])[H])[N+]([H])([H])C([H])([H])C([H])([H])C([H])([H])Oc1c([H])c([H])c2c(c1[H])C([H])([H])N(C(=O)C([H])(N([H])C(=O)C([H])(N([H])C([H])([H])[H])C([H])([H])[H])C(C([H])([H])[H])(C([H])([H])[H])C([H])([H])[H])C([H])(C(=O)N([H])C1([H])c3c([H])c([H])c([H])c([H])c3C([H])([H])C([H])([H])C1([H])[H])C2([H])[H]

>  <smiles>  (70) 
[H]C(C(=O)N1C([H])([H])C([H])([H])C([H])([H])C([H])(n2nc(-c3c([H])c([H])c(Oc4c([H])c([H])c(F)c([H])c4F)c([H])c3[H])c(C(=O)N([H])[H])c2N([H])[H])C1([H])[H])=C([H])C([H])(C([H])([H])[H])C([H])(C([H])([H])[H])[N+]([H])([H])C([H])([H])C([H])([H])C([H])([H])Oc1c([H])c([H])c2c(c1[H])C([H])([H])N(C(=O)C([H])(N([H])C(=O)C([H])(N([H])C([H])([H])[H])C([H])([H])[H])C(C([H])([H])[H])(C([H])([H])[H])C([H])([H])[H])C([H])(C(=O)N([H])C1([H])c3c([H])c([H])c([H])c([H])c3C([H])([H])C([H])([H])C1([H])[H])C2([H])[H]

$$$$
70:0:0
     RDKit          3D

 86 92  0  0  1  0  0  0  0  0999 V2000
  -26.8720  -21.0600   18.1630 C   0  0  0  0  0  2  0  0  0  0  0  0
  -28.2530  -21.0800   17.5040 C   0  0  0  0  0  2  0  0  0  0  0  0
  -27.1420  -20.9420   19.6730 C   0  0  0  0  0  2  0  0  0  0  0  0
  -29.2870  -18.9180   18.5880 C   0  0  0  0  0  2  0  0  0  0  0  0
  -29.2740  -19.7630   20.7330 C   0  0  0  0  0  2  0  0  0  0  0  0
  -29.7000  -18.0860   19.9130 C   0  0  0  0  0  2  0  0  0  0  0  0
  -29.2030  -20.6190   18.6090 C   0  0  0  0  0  3  0  0  0  0  0  0
  -28.6150  -21.3730   19.9200 C   0  0  0  0  0  3  0  0  0  0  0  0
  -30.3330  -16.1690   20.0080 C   0  0  0  0  0  2  0  0  0  0  0  0
  -30.5390  -13.5190   19.2780 C   0  0  0  0  0  2  0  0  0  0  0  0
  -29.6740  -12.9260   18.1160 C   0  0  0  0  0  2  0  0  0  0  0  0
  -28.2960  -12.4800   18.6190 C   0  0  0  0  0  2  0  0  0  0  0  0
  -27.7360  -13.5070   19.6210 C   0  0  0  0  0  3  0  0  0  0  0  0
  -28.7540  -14.0090   20.6810 C   0  0  0  0  0  2  0  0  0  0  0  0
  -29.8570  -14.7360   19.9800 N   0  0  0  0  0  0  0  0  0  0  0  0
  -31.5700  -15.9880   19.8850 O   0  0  0  0  0  1  0  0  0  0  0  0
  -25.4100  -13.9690   20.5000 C   0  0  0  0  0  0  0  0  0  0  0  0
  -24.3730  -13.1670   20.8800 C   0  0  0  0  0  0  0  0  0  0  0  0
  -24.8560  -11.8240   20.7940 C   0  0  0  0  0  0  0  0  0  0  0  0
  -26.4530  -13.1190   20.1910 N   0  0  0  0  0  0  0  0  0  0  0  0
  -26.1390  -11.8170   20.4340 N   0  0  0  0  0  0  0  0  0  0  0  0
  -24.1420  -10.5500   20.9740 C   0  0  0  0  0  0  0  0  0  0  0  0
  -24.5620   -9.5920   21.9230 C   0  0  0  0  0  3  0  0  0  0  0  0
  -23.8410   -8.3890   22.0960 C   0  0  0  0  0  3  0  0  0  0  0  0
  -22.6860   -8.1360   21.3180 C   0  0  0  0  0  0  0  0  0  0  0  0
  -22.2840   -9.0820   20.3600 C   0  0  0  0  0  3  0  0  0  0  0  0
  -23.0060  -10.2760   20.1870 C   0  0  0  0  0  3  0  0  0  0  0  0
  -21.9400   -6.9840   21.3980 O   0  0  0  0  0  0  0  0  0  0  0  0
  -21.8060   -6.2920   22.5750 C   0  0  0  0  0  0  0  0  0  0  0  0
  -21.2370   -6.8820   23.7250 C   0  0  0  0  0  3  0  0  0  0  0  0
  -21.0550   -6.1140   24.8930 C   0  0  0  0  0  3  0  0  0  0  0  0
  -21.4300   -4.7570   24.9100 C   0  0  0  0  0  0  0  0  0  0  0  0
  -21.9910   -4.1660   23.7640 C   0  0  0  0  0  3  0  0  0  0  0  0
  -22.1750   -4.9310   22.5990 C   0  0  0  0  0  0  0  0  0  0  0  0
  -22.6950   -4.3520   21.4910 F   0  0  0  0  0  0  0  0  0  0  0  0
  -21.2490   -4.0170   26.0290 F   0  0  0  0  0  0  0  0  0  0  0  0
  -22.9810  -13.6240   21.2010 C   0  0  0  0  0  0  0  0  0  0  0  0
  -22.2850  -12.9040   22.0720 N   0  0  0  0  0  0  0  0  0  0  0  0
  -22.5230  -14.6590   20.7180 O   0  0  0  0  0  0  0  0  0  0  0  0
  -22.6710  -12.0670   22.4840 H   0  0  0  0  0  0  0  0  0  0  0  0
  -21.3520  -13.1920   22.3290 H   0  0  0  0  0  0  0  0  0  0  0  0
  -25.5500  -15.3460   20.3540 N   0  0  0  0  0  0  0  0  0  0  0  0
  -24.7820  -15.9880   20.5160 H   0  0  0  0  0  0  0  0  0  0  0  0
  -26.3870  -15.8070   20.0210 H   0  0  0  0  0  0  0  0  0  0  0  0
  -28.0850  -23.4230   20.1610 C   0  0  0  0  0 15  0  0  0  0  0  0
  -28.2260  -25.2970   20.0470 O   0  0  0  0  0  1  0  0  0  0  0  0
  -24.7440  -31.8540   23.0680 C   0  0  0  0  0  0  0  0  0  0  0  0
  -27.2670  -26.6080   20.0570 C   0  0  0  0  0  0  0  0  0  0  0  0
  -23.5580  -30.4480   21.4450 C   0  0  0  0  0  3  0  0  0  0  0  0
  -25.0040  -28.7710   20.0250 C   0  0  0  0  0  0  0  0  0  0  0  0
  -26.1440  -30.5460   21.3170 C   0  0  0  0  0  2  0  0  0  0  0  0
  -26.2110  -29.0910   20.6570 C   0  0  0  0  0  0  0  0  0  0  0  0
  -27.3150  -28.0480   20.6290 C   0  0  0  0  0  3  0  0  0  0  0  0
  -26.0170  -26.5590   19.3690 C   0  0  0  0  0  3  0  0  0  0  0  0
  -24.9590  -27.5350   19.3540 C   0  0  0  0  0  3  0  0  0  0  0  0
  -23.7990  -29.7400   20.0760 C   0  0  0  0  0  2  0  0  0  0  0  0
  -24.8430  -30.9880   21.9950 N   0  0  0  0  0  0  0  0  0  0  0  0
  -23.6500  -32.1520   23.5820 O   0  0  0  0  0  0  0  0  0  0  0  0
  -22.8400  -29.4790   22.4270 C   0  0  0  0  0  0  0  0  0  0  0  0
  -21.5070  -29.3210   22.3130 N   0  0  0  0  0  0  0  0  0  0  0  0
  -23.5010  -28.8660   23.2680 O   0  0  0  0  0  0  0  0  0  0  0  0
  -21.0190  -29.8660   21.6160 H   0  0  0  0  0  0  0  0  0  0  0  0
  -18.1310  -28.0760   22.8720 C   0  0  0  0  0  0  0  0  0  0  0  0
  -20.6930  -28.3760   23.0940 C   0  0  0  0  0  3  0  0  0  0  0  0
  -20.7990  -26.9450   22.5160 C   0  0  0  0  0  2  0  0  0  0  0  0
  -19.6880  -26.6150   21.5150 C   0  0  0  0  0  2  0  0  0  0  0  0
  -18.3140  -26.7370   22.1800 C   0  0  0  0  0  2  0  0  0  0  0  0
  -19.2470  -28.8540   23.2860 C   0  0  0  0  0  0  0  0  0  0  0  0
  -19.0170  -30.1030   23.9020 C   0  0  0  0  0  3  0  0  0  0  0  0
  -17.7060  -30.5780   24.1030 C   0  0  0  0  0  3  0  0  0  0  0  0
  -16.6070  -29.8010   23.6990 C   0  0  0  0  0  3  0  0  0  0  0  0
  -16.8200  -28.5510   23.0900 C   0  0  0  0  0  3  0  0  0  0  0  0
  -25.9990  -32.5260   23.7070 C   0  0  0  0  0  3  0  0  0  0  0  0
  -25.6470  -33.9120   24.0850 N   0  0  0  0  0  0  0  0  0  0  0  0
  -25.9350  -35.0090   23.3710 C   0  0  0  0  0  0  0  0  0  0  0  0
  -26.5750  -34.9640   22.3180 O   0  0  0  0  0  0  0  0  0  0  0  0
  -25.0700  -34.0180   24.9060 H   0  0  0  0  0  0  0  0  0  0  0  0
  -24.1630  -36.7920   23.1600 C   0  0  0  0  0  1  0  0  0  0  0  0
  -25.4420  -36.3730   23.9040 C   0  0  0  0  0  3  0  0  0  0  0  0
  -27.5820  -37.2840   24.6990 C   0  0  0  0  0  1  0  0  0  0  0  0
  -26.4480  -37.4530   23.7940 N   0  0  0  0  0  0  0  0  0  0  0  0
  -26.0270  -38.3590   23.9800 H   0  0  0  0  0  0  0  0  0  0  0  0
  -26.5300  -31.7540   24.9780 C   0  0  1  0  0  0  0  0  0  0  0  0
  -25.4460  -31.4890   26.0490 C   0  0  0  0  0  1  0  0  0  0  0  0
  -27.1370  -30.3880   24.5890 C   0  0  0  0  0  1  0  0  0  0  0  0
  -27.6710  -32.5610   25.6420 C   0  0  0  0  0  1  0  0  0  0  0  0
  1  3  1  0
  2  1  1  0
  4  7  1  0
  4  6  1  0
  6  5  1  0
  7  2  1  0
  7  8  1  0
  8  3  1  0
  8  5  1  0
 10 15  1  0
 11 12  1  0
 11 10  1  0
 13 12  1  0
 13 20  1  0
 13 14  1  0
 15  9  1  0
 15 14  1  0
 16  9  1  0
 17 18  2  0
 18 37  1  0
 19 18  1  0
 19 22  1  0
 20 21  1  0
 20 17  1  0
 21 19  2  0
 22 23  1  0
 23 24  2  0
 25 28  1  0
 25 24  1  0
 26 25  2  0
 27 26  1  0
 27 22  2  0
 28 29  1  0
 29 34  2  0
 29 30  1  0
 30 31  2  0
 31 32  1  0
 32 36  1  0
 33 32  2  0
 34 33  1  0
 35 34  1  0
 37 38  1  0
 38 41  1  0
 38 40  1  0
 39 37  2  0
 42 17  1  0
 42 43  1  0
 44 42  1  0
 46 48  1  0
 47 58  2  0
 48 53  1  0
 49 57  1  0
 49 59  1  0
 50 56  1  0
 50 52  1  0
 51 57  1  0
 52 51  1  0
 53 52  2  0
 54 48  2  0
 55 54  1  0
 55 50  2  0
 56 49  1  0
 57 47  1  0
 59 61  2  0
 60 59  1  0
 62 60  1  0
 63 72  2  0
 63 68  1  0
 64 60  1  0
 64 68  1  0
 65 64  1  0
 66 67  1  0
 66 65  1  0
 67 63  1  0
 68 69  2  0
 69 70  1  0
 71 70  2  0
 72 71  1  0
 73 47  1  0
 73 74  1  0
 73 83  1  0
 74 77  1  0
 75 79  1  0
 75 74  1  0
 76 75  2  0
 79 78  1  0
 81 79  1  0
 81 82  1  0
 81 80  1  0
 83 86  1  1
 83 84  1  0
 85 83  1  0
M  ISO  4   6 100   9 100  45 101  46 101
M  END
>  <TORSDO>  (71) 
F 17

>  <SCORE>  (71) 
-16.124

>  <name>  (71) 
70

>  <ligand_id>  (71) 
70

>  <original_smiles>  (71) 
[H]c1c([H])c([H])c2c(c1[H])C([H])([H])C([H])([H])C([H])([H])C2([H])N([H])C(=O)C1([H])N(C(=O)C([H])(N([H])C(=O)C([H])(N([H])C([H])([H])[H])C([H])([H])[H])C(C([H])([H])[H])(C([H])([H])[H])C([H])([H])[H])C([H])([H])c2c([H])c(OC([H])([H])C34C([H])([H])C([H])([H])C([H])([H])C3([H])C([H])([H])C([H])(C(=O)N3C([H])([H])C([H])([H])C([H])([H])C([H])(n5nc(-c6c([H])c([H])c(Oc7c([H])c([H])c(F)c([H])c7F)c([H])c6[H])c(C(=O)N([H])[H])c5N([H])[H])C3([H])[H])C4([H])[H])c([H])c([H])c2C1([H])[H]

>  <smiles>  (71) 
[H]c1c([H])c([H])c2c(c1[H])C([H])([H])C([H])([H])C([H])([H])C2([H])N([H])C(=O)C1([H])N(C(=O)C([H])(N([H])C(=O)C([H])(N([H])C([H])([H])[H])C([H])([H])[H])C(C([H])([H])[H])(C([H])([H])[H])C([H])([H])[H])C([H])([H])c2c([H])c(OC([H])([H])C34C([H])([H])C([H])([H])C([H])([H])C3([H])C([H])([H])C([H])(C(=O)N3C([H])([H])C([H])([H])C([H])([H])C([H])(n5nc(-c6c([H])c([H])c(Oc7c([H])c([H])c(F)c([H])c7F)c([H])c6[H])c(C(=O)N([H])[H])c5N([H])[H])C3([H])[H])C4([H])[H])c([H])c([H])c2C1([H])[H]

$$$$
71:0:0
     RDKit          3D

 90 97  0  0  1  0  0  0  0  0999 V2000
  -29.1440  -19.0450   19.9140 C   0  0  0  0  0  0  0  0  0  0  0  0
  -29.3990  -20.4250   20.1800 N   0  0  0  0  0  0  0  0  0  0  0  0
  -27.9820  -18.7090   19.6820 O   0  0  0  0  0  0  0  0  0  0  0  0
  -30.3740  -20.6310   20.3570 H   0  0  0  0  0  0  0  0  0  0  0  0
  -28.4380  -21.6850   20.3010 C   0  0  0  0  0  2  0  0  0  0  0  0
  -28.8870  -23.3060   20.5290 C   0  0  0  0  0  3  0  0  0  0  0  0
  -27.8560  -24.6460   20.3730 C   0  0  0  0  0  3  0  0  0  0  0  0
  -28.1490  -26.1740   20.5520 O   0  0  0  0  0  0  0  0  0  0  0  0
  -24.5970  -32.0120   23.3390 C   0  0  0  0  0  0  0  0  0  0  0  0
  -27.1130  -27.1760   20.4460 C   0  0  0  0  0  0  0  0  0  0  0  0
  -23.3800  -30.5890   21.7380 C   0  0  0  0  0  3  0  0  0  0  0  0
  -24.8080  -28.9570   20.3570 C   0  0  0  0  0  0  0  0  0  0  0  0
  -25.9380  -30.8130   21.5710 C   0  0  0  0  0  2  0  0  0  0  0  0
  -25.9940  -29.4030   20.9560 C   0  0  0  0  0  0  0  0  0  0  0  0
  -27.1460  -28.5280   20.9820 C   0  0  0  0  0  3  0  0  0  0  0  0
  -25.9030  -26.8360   19.8010 C   0  0  0  0  0  3  0  0  0  0  0  0
  -24.7780  -27.6880   19.7620 C   0  0  0  0  0  3  0  0  0  0  0  0
  -23.5930  -29.8720   20.3780 C   0  0  0  0  0  2  0  0  0  0  0  0
  -24.6590  -31.1610   22.2700 N   0  0  0  0  0  0  0  0  0  0  0  0
  -23.5150  -32.3260   23.8570 O   0  0  0  0  0  0  0  0  0  0  0  0
  -22.6860  -29.6180   22.7270 C   0  0  0  0  0  0  0  0  0  0  0  0
  -21.3730  -29.3920   22.5450 N   0  0  0  0  0  0  0  0  0  0  0  0
  -23.3340  -29.0680   23.6200 O   0  0  0  0  0  0  0  0  0  0  0  0
  -20.9060  -29.8870   21.7990 H   0  0  0  0  0  0  0  0  0  0  0  0
  -18.0290  -28.0470   22.9040 C   0  0  0  0  0  0  0  0  0  0  0  0
  -20.5430  -28.4760   23.3320 C   0  0  0  0  0  3  0  0  0  0  0  0
  -20.7600  -27.0100   22.8910 C   0  0  0  0  0  2  0  0  0  0  0  0
  -19.7580  -26.5440   21.8310 C   0  0  0  0  0  2  0  0  0  0  0  0
  -18.3250  -26.6600   22.3590 C   0  0  0  0  0  2  0  0  0  0  0  0
  -19.0700  -28.9050   23.3460 C   0  0  0  0  0  0  0  0  0  0  0  0
  -18.7410  -30.1960   23.8150 C   0  0  0  0  0  3  0  0  0  0  0  0
  -17.4020  -30.6320   23.8460 C   0  0  0  0  0  3  0  0  0  0  0  0
  -16.3740  -29.7730   23.4210 C   0  0  0  0  0  3  0  0  0  0  0  0
  -16.6870  -28.4830   22.9550 C   0  0  0  0  0  3  0  0  0  0  0  0
  -25.8830  -32.6480   23.9500 C   0  0  0  0  0  3  0  0  0  0  0  0
  -25.5870  -34.0580   24.2500 N   0  0  0  0  0  0  0  0  0  0  0  0
  -25.8990  -35.0910   23.4550 C   0  0  0  0  0  0  0  0  0  0  0  0
  -26.5300  -34.9560   22.4040 O   0  0  0  0  0  0  0  0  0  0  0  0
  -25.0210  -34.2370   25.0670 H   0  0  0  0  0  0  0  0  0  0  0  0
  -24.1560  -36.8790   23.1340 C   0  0  0  0  0  1  0  0  0  0  0  0
  -25.4360  -36.4960   23.8940 C   0  0  0  0  0  3  0  0  0  0  0  0
  -27.6020  -37.4130   24.5990 C   0  0  0  0  0  1  0  0  0  0  0  0
  -26.4620  -37.5420   23.6940 N   0  0  0  0  0  0  0  0  0  0  0  0
  -26.0620  -38.4680   23.8200 H   0  0  0  0  0  0  0  0  0  0  0  0
  -26.3830  -31.9040   25.2500 C   0  0  1  0  0  0  0  0  0  0  0  0
  -25.2740  -31.6750   26.3030 C   0  0  0  0  0  1  0  0  0  0  0  0
  -26.9860  -30.5250   24.8980 C   0  0  0  0  0  1  0  0  0  0  0  0
  -27.5160  -32.7210   25.9170 C   0  0  0  0  0  1  0  0  0  0  0  0
  -30.2620  -17.8090   19.8990 C   0  0  0  0  0  3  0  0  0  0  0  0
  -30.6780  -15.0740   19.6010 C   0  0  0  0  0  0  0  0  0  0  0  0
  -30.4930  -12.6830   18.7670 C   0  0  0  0  0  2  0  0  0  0  0  0
  -29.4330  -12.5710   17.6480 C   0  0  0  0  0  2  0  0  0  0  0  0
  -28.0290  -12.3630   18.2450 C   0  0  0  0  0  2  0  0  0  0  0  0
  -27.7380  -13.3290   19.4230 C   0  0  0  0  0  3  0  0  0  0  0  0
  -28.9080  -13.4040   20.4250 C   0  0  0  0  0  2  0  0  0  0  0  0
  -30.0940  -13.8090   19.6600 N   0  0  0  0  0  0  0  0  0  0  0  0
  -31.8410  -15.1300   19.1860 O   0  0  0  0  0  0  0  0  0  0  0  0
  -29.9200  -16.2560   19.8330 N   0  0  0  0  0  0  0  0  0  0  0  0
  -28.9550  -16.0710   20.0580 H   0  0  0  0  0  0  0  0  0  0  0  0
  -25.5020  -13.9180   20.5170 C   0  0  0  0  0  0  0  0  0  0  0  0
  -24.4680  -13.1480   20.9740 C   0  0  0  0  0  0  0  0  0  0  0  0
  -24.8730  -11.7910   20.7880 C   0  0  0  0  0  0  0  0  0  0  0  0
  -26.4690  -13.0310   20.0770 N   0  0  0  0  0  0  0  0  0  0  0  0
  -26.1100  -11.7410   20.3050 N   0  0  0  0  0  0  0  0  0  0  0  0
  -24.1300  -10.5400   20.9860 C   0  0  0  0  0  0  0  0  0  0  0  0
  -24.5920   -9.5360   21.8660 C   0  0  0  0  0  3  0  0  0  0  0  0
  -23.8480   -8.3520   22.0560 C   0  0  0  0  0  3  0  0  0  0  0  0
  -22.6270   -8.1620   21.3660 C   0  0  0  0  0  0  0  0  0  0  0  0
  -22.1830   -9.1530   20.4740 C   0  0  0  0  0  3  0  0  0  0  0  0
  -22.9270  -10.3290   20.2830 C   0  0  0  0  0  3  0  0  0  0  0  0
  -21.8500   -7.0330   21.4680 O   0  0  0  0  0  0  0  0  0  0  0  0
  -21.7760   -6.3130   22.6350 C   0  0  0  0  0  0  0  0  0  0  0  0
  -21.2870   -6.8840   23.8310 C   0  0  0  0  0  3  0  0  0  0  0  0
  -21.1620   -6.0900   24.9890 C   0  0  0  0  0  3  0  0  0  0  0  0
  -21.5130   -4.7270   24.9510 C   0  0  0  0  0  0  0  0  0  0  0  0
  -21.9950   -4.1570   23.7590 C   0  0  0  0  0  3  0  0  0  0  0  0
  -22.1230   -4.9480   22.6030 C   0  0  0  0  0  0  0  0  0  0  0  0
  -22.5670   -4.3880   21.4520 F   0  0  0  0  0  0  0  0  0  0  0  0
  -21.3870   -3.9630   26.0600 F   0  0  0  0  0  0  0  0  0  0  0  0
  -23.1380  -13.6440   21.4610 C   0  0  0  0  0  0  0  0  0  0  0  0
  -22.5040  -12.9110   22.3690 N   0  0  0  0  0  0  0  0  0  0  0  0
  -22.6740  -14.7150   21.0710 O   0  0  0  0  0  0  0  0  0  0  0  0
  -22.8940  -12.0430   22.7040 H   0  0  0  0  0  0  0  0  0  0  0  0
  -21.6160  -13.2230   22.7340 H   0  0  0  0  0  0  0  0  0  0  0  0
  -25.6890  -15.2940   20.4110 N   0  0  0  0  0  0  0  0  0  0  0  0
  -24.9630  -15.9550   20.6690 H   0  0  0  0  0  0  0  0  0  0  0  0
  -26.4800  -15.7360   19.9620 H   0  0  0  0  0  0  0  0  0  0  0  0
  -30.8750  -17.3870   22.3620 C   0  0  0  0  0  1  0  0  0  0  0  0
  -32.7380  -17.6200   20.6690 C   0  0  0  0  0  1  0  0  0  0  0  0
  -31.3030  -18.0400   21.0340 C   0  0  0  0  0  3  0  0  0  0  0  0
  1  2  1  0
  2  5  1  0
  2  4  1  0
  3  1  2  0
  5  6  1  0
  7  6  2  0
  7  8  1  0
  9 20  2  0
 10  8  1  0
 10 15  1  0
 11 19  1  0
 11 21  1  0
 12 18  1  0
 12 14  1  0
 13 19  1  0
 14 15  2  0
 14 13  1  0
 16 10  2  0
 17 16  1  0
 17 12  2  0
 18 11  1  0
 19  9  1  0
 21 23  2  0
 22 21  1  0
 24 22  1  0
 25 34  2  0
 25 30  1  0
 26 22  1  0
 26 30  1  0
 27 26  1  0
 28 29  1  0
 28 27  1  0
 29 25  1  0
 30 31  2  0
 31 32  1  0
 33 32  2  0
 34 33  1  0
 35  9  1  0
 35 36  1  0
 35 45  1  0
 36 39  1  0
 37 41  1  0
 37 36  1  0
 38 37  2  0
 41 40  1  0
 43 44  1  0
 43 41  1  0
 43 42  1  0
 45 48  1  1
 45 46  1  0
 47 45  1  0
 49  1  1  0
 49 90  1  0
 50 56  1  0
 50 58  1  0
 51 56  1  0
 52 53  1  0
 52 51  1  0
 54 53  1  0
 54 63  1  0
 54 55  1  0
 56 55  1  0
 57 50  2  0
 58 49  1  0
 58 59  1  0
 60 61  2  0
 61 80  1  0
 62 61  1  0
 62 65  1  0
 63 64  1  0
 63 60  1  0
 64 62  2  0
 65 66  1  0
 66 67  2  0
 68 71  1  0
 68 67  1  0
 69 68  2  0
 70 69  1  0
 70 65  2  0
 71 72  1  0
 72 73  1  0
 73 74  2  0
 75 74  1  0
 75 79  1  0
 76 75  2  0
 77 72  2  0
 77 76  1  0
 78 77  1  0
 80 81  1  0
 81 83  1  0
 81 84  1  0
 82 80  2  0
 85 60  1  0
 85 86  1  0
 87 85  1  0
 89 90  1  0
 90 88  1  0
M  ISO  4   7 101   8 101  50 100  58 100
M  END
>  <TORSDO>  (72) 
F 21

>  <SCORE>  (72) 
-13.755

>  <name>  (72) 
71

>  <ligand_id>  (72) 
71

>  <original_smiles>  (72) 
[H]c1c([H])c([H])c2c(c1[H])C([H])([H])C([H])([H])C([H])([H])C2([H])N([H])C(=O)C1([H])N(C(=O)C([H])(N([H])C(=O)C([H])(N([H])C([H])([H])[H])C([H])([H])[H])C(C([H])([H])[H])(C([H])([H])[H])C([H])([H])[H])C([H])([H])c2c([H])c(OC([H])([H])C([H])([H])C([H])([H])N([H])C(=O)C([H])(N([H])C(=O)N3C([H])([H])C([H])([H])C([H])([H])C([H])(n4nc(-c5c([H])c([H])c(Oc6c([H])c([H])c(F)c([H])c6F)c([H])c5[H])c(C(=O)N([H])[H])c4N([H])[H])C3([H])[H])C([H])(C([H])([H])[H])C([H])([H])[H])c([H])c([H])c2C1([H])[H]

>  <smiles>  (72) 
[H]c1c([H])c([H])c2c(c1[H])C([H])([H])C([H])([H])C([H])([H])C2([H])N([H])C(=O)C1([H])N(C(=O)C([H])(N([H])C(=O)C([H])(N([H])C([H])([H])[H])C([H])([H])[H])C(C([H])([H])[H])(C([H])([H])[H])C([H])([H])[H])C([H])([H])c2c([H])c(OC([H])([H])C([H])([H])C([H])([H])N([H])C(=O)C([H])(N([H])C(=O)N3C([H])([H])C([H])([H])C([H])([H])C([H])(n4nc(-c5c([H])c([H])c(Oc6c([H])c([H])c(F)c([H])c6F)c([H])c5[H])c(C(=O)N([H])[H])c4N([H])[H])C3([H])[H])C([H])(C([H])([H])[H])C([H])([H])[H])c([H])c([H])c2C1([H])[H]

$$$$
72:0:0
     RDKit          3D

 89 97  0  0  1  0  0  0  0  0999 V2000
  -28.1850  -21.9200   18.2610 C   0  0  0  0  0  2  0  0  0  0  0  0
  -28.9090  -21.9160   19.3970 C   0  0  0  0  0  3  0  0  0  0  0  0
  -28.3000  -20.8420   17.2000 C   0  0  0  0  0  2  0  0  0  0  0  0
  -29.7450  -20.2930   17.0600 C   0  0  0  0  0  2  0  0  0  0  0  0
  -30.6510  -20.4890   18.3030 C   0  0  0  0  0  2  0  0  0  0  0  0
  -29.8370  -20.5630   19.6120 C   0  0  0  0  0  3  0  0  0  0  0  0
  -28.4920  -18.9870   21.2410 C   0  0  0  0  0  1  0  0  0  0  0  0
  -29.2440  -19.0030   19.9020 C   0  0  0  0  0  3  0  0  0  0  0  0
  -29.8180  -16.2610   20.0120 C   0  0  0  0  0  3  0  0  0  0  0  0
  -30.1400  -17.6210   19.7750 C   0  0  0  0  0  3  0  0  0  0  0  0
  -30.6830  -14.9900   19.8180 C   0  0  0  0  0  0  0  0  0  0  0  0
  -30.4970  -12.6360   18.9200 C   0  0  0  0  0  2  0  0  0  0  0  0
  -29.4840  -12.6510   17.7500 C   0  0  0  0  0  2  0  0  0  0  0  0
  -28.0440  -12.4600   18.2720 C   0  0  0  0  0  2  0  0  0  0  0  0
  -27.7360  -13.3540   19.5020 C   0  0  0  0  0  3  0  0  0  0  0  0
  -28.8700  -13.3240   20.5480 C   0  0  0  0  0  2  0  0  0  0  0  0
  -30.1040  -13.7210   19.8610 N   0  0  0  0  0  0  0  0  0  0  0  0
  -31.8640  -15.0420   19.4560 O   0  0  0  0  0  0  0  0  0  0  0  0
  -25.4290  -13.9310   20.4500 C   0  0  0  0  0  0  0  0  0  0  0  0
  -24.3850  -13.1540   20.8700 C   0  0  0  0  0  0  0  0  0  0  0  0
  -24.8240  -11.8000   20.7470 C   0  0  0  0  0  0  0  0  0  0  0  0
  -26.4370  -13.0490   20.0920 N   0  0  0  0  0  0  0  0  0  0  0  0
  -26.0870  -11.7600   20.3340 N   0  0  0  0  0  0  0  0  0  0  0  0
  -24.0930  -10.5420   20.9410 C   0  0  0  0  0  0  0  0  0  0  0  0
  -24.5320   -9.5650   21.8620 C   0  0  0  0  0  3  0  0  0  0  0  0
  -23.7970   -8.3730   22.0430 C   0  0  0  0  0  3  0  0  0  0  0  0
  -22.6120   -8.1490   21.3030 C   0  0  0  0  0  0  0  0  0  0  0  0
  -22.1920   -9.1140   20.3720 C   0  0  0  0  0  3  0  0  0  0  0  0
  -22.9260  -10.2970   20.1900 C   0  0  0  0  0  3  0  0  0  0  0  0
  -21.8470   -7.0120   21.3980 O   0  0  0  0  0  0  0  0  0  0  0  0
  -21.7440   -6.3070   22.5710 C   0  0  0  0  0  0  0  0  0  0  0  0
  -21.2210   -6.8900   23.7460 C   0  0  0  0  0  3  0  0  0  0  0  0
  -21.0670   -6.1100   24.9100 C   0  0  0  0  0  3  0  0  0  0  0  0
  -21.4270   -4.7490   24.9010 C   0  0  0  0  0  0  0  0  0  0  0  0
  -21.9410   -4.1650   23.7290 C   0  0  0  0  0  3  0  0  0  0  0  0
  -22.0970   -4.9430   22.5670 C   0  0  0  0  0  0  0  0  0  0  0  0
  -22.5750   -4.3700   21.4360 F   0  0  0  0  0  0  0  0  0  0  0  0
  -21.2710   -3.9980   26.0150 F   0  0  0  0  0  0  0  0  0  0  0  0
  -23.0230  -13.6380   21.2670 C   0  0  0  0  0  0  0  0  0  0  0  0
  -22.3560  -12.9200   22.1650 N   0  0  0  0  0  0  0  0  0  0  0  0
  -22.5600  -14.6870   20.8200 O   0  0  0  0  0  0  0  0  0  0  0  0
  -22.7470  -12.0740   22.5490 H   0  0  0  0  0  0  0  0  0  0  0  0
  -21.4440  -13.2240   22.4780 H   0  0  0  0  0  0  0  0  0  0  0  0
  -25.5960  -15.3070   20.3220 N   0  0  0  0  0  0  0  0  0  0  0  0
  -24.8410  -15.9540   20.5260 H   0  0  0  0  0  0  0  0  0  0  0  0
  -26.4140  -15.7580   19.9350 H   0  0  0  0  0  0  0  0  0  0  0  0
  -29.0950  -23.3830   20.1160 C   0  0  0  0  0  3  0  0  0  0  0  0
  -28.1520  -24.7420   19.7680 C   0  0  0  0  0  3  0  0  0  0  0  0
  -28.3550  -26.2240   20.1960 O   0  0  0  0  0  0  0  0  0  0  0  0
  -24.6400  -31.7920   23.2480 C   0  0  0  0  0  0  0  0  0  0  0  0
  -27.2990  -27.2010   20.1140 C   0  0  0  0  0  0  0  0  0  0  0  0
  -23.4760  -30.4450   21.5440 C   0  0  0  0  0  3  0  0  0  0  0  0
  -24.9590  -28.9250   20.0950 C   0  0  0  0  0  0  0  0  0  0  0  0
  -26.0320  -30.7300   21.4350 C   0  0  0  0  0  2  0  0  0  0  0  0
  -26.1250  -29.3620   20.7370 C   0  0  0  0  0  0  0  0  0  0  0  0
  -27.2980  -28.5160   20.7330 C   0  0  0  0  0  3  0  0  0  0  0  0
  -26.1100  -26.8720   19.4250 C   0  0  0  0  0  3  0  0  0  0  0  0
  -24.9640  -27.6950   19.4250 C   0  0  0  0  0  3  0  0  0  0  0  0
  -23.7250  -29.8130   20.1490 C   0  0  0  0  0  2  0  0  0  0  0  0
  -24.7340  -31.0090   22.1320 N   0  0  0  0  0  0  0  0  0  0  0  0
  -23.5430  -32.0560   23.7640 O   0  0  0  0  0  0  0  0  0  0  0  0
  -22.7870  -29.4060   22.4610 C   0  0  0  0  0  0  0  0  0  0  0  0
  -21.4650  -29.2200   22.2940 N   0  0  0  0  0  0  0  0  0  0  0  0
  -23.4450  -28.7640   23.2840 O   0  0  0  0  0  0  0  0  0  0  0  0
  -20.9900  -29.7850   21.6030 H   0  0  0  0  0  0  0  0  0  0  0  0
  -18.0860  -27.9790   22.6870 C   0  0  0  0  0  0  0  0  0  0  0  0
  -20.6360  -28.2560   23.0210 C   0  0  0  0  0  3  0  0  0  0  0  0
  -20.7660  -26.8410   22.4110 C   0  0  0  0  0  2  0  0  0  0  0  0
  -19.6920  -26.5360   21.3620 C   0  0  0  0  0  2  0  0  0  0  0  0
  -18.2940  -26.6510   21.9760 C   0  0  0  0  0  2  0  0  0  0  0  0
  -19.1870  -28.7390   23.1640 C   0  0  0  0  0  0  0  0  0  0  0  0
  -18.9420  -29.9820   23.7880 C   0  0  0  0  0  3  0  0  0  0  0  0
  -17.6290  -30.4650   23.9390 C   0  0  0  0  0  3  0  0  0  0  0  0
  -16.5410  -29.7000   23.4780 C   0  0  0  0  0  3  0  0  0  0  0  0
  -16.7710  -28.4590   22.8590 C   0  0  0  0  0  3  0  0  0  0  0  0
  -25.9030  -32.4130   23.9160 C   0  0  0  0  0  3  0  0  0  0  0  0
  -26.3620  -31.6390   25.2150 C   0  0  1  0  0  0  0  0  0  0  0  0
  -25.2260  -31.4140   26.2380 C   0  0  0  0  0  1  0  0  0  0  0  0
  -26.9460  -30.2540   24.8550 C   0  0  0  0  0  1  0  0  0  0  0  0
  -27.4950  -32.4240   25.9180 C   0  0  0  0  0  1  0  0  0  0  0  0
  -25.5930  -33.8160   24.2360 N   0  0  0  0  0  0  0  0  0  0  0  0
  -25.9250  -34.8660   23.4750 C   0  0  0  0  0  0  0  0  0  0  0  0
  -26.5900  -34.7570   22.4410 O   0  0  0  0  0  0  0  0  0  0  0  0
  -24.9940  -33.9730   25.0330 H   0  0  0  0  0  0  0  0  0  0  0  0
  -24.1830  -36.6560   23.1490 C   0  0  0  0  0  1  0  0  0  0  0  0
  -25.4450  -36.2590   23.9310 C   0  0  0  0  0  3  0  0  0  0  0  0
  -27.5900  -37.1700   24.7080 C   0  0  0  0  0  1  0  0  0  0  0  0
  -26.4710  -37.3150   23.7810 N   0  0  0  0  0  0  0  0  0  0  0  0
  -26.0650  -38.2360   23.9150 H   0  0  0  0  0  0  0  0  0  0  0  0
  1  2  1  0
  2  6  1  0
  2 47  1  0
  3  1  1  0
  4  3  1  0
  4  5  1  0
  5  6  1  0
  6  8  1  0
  8  7  1  0
 10  8  1  0
 10  9  2  0
 11 17  1  0
 11  9  1  0
 12 17  1  0
 13 14  1  0
 13 12  1  0
 15 14  1  0
 15 22  1  0
 15 16  1  0
 17 16  1  0
 18 11  2  0
 19 20  2  0
 20 39  1  0
 21 20  1  0
 21 24  1  0
 22 23  1  0
 22 19  1  0
 23 21  2  0
 24 25  1  0
 25 26  2  0
 27 30  1  0
 27 26  1  0
 28 27  2  0
 29 28  1  0
 29 24  2  0
 30 31  1  0
 31 32  1  0
 32 33  2  0
 34 33  1  0
 34 38  1  0
 35 34  2  0
 36 31  2  0
 36 35  1  0
 37 36  1  0
 39 40  1  0
 40 43  1  0
 40 42  1  0
 41 39  2  0
 44 19  1  0
 44 45  1  0
 46 44  1  0
 48 47  2  0
 48 49  1  0
 50 61  2  0
 51 49  1  0
 51 56  1  0
 52 60  1  0
 52 62  1  0
 53 59  1  0
 53 55  1  0
 54 60  1  0
 55 54  1  0
 56 55  2  0
 57 58  1  0
 57 51  2  0
 58 53  2  0
 59 52  1  0
 60 50  1  0
 62 64  2  0
 63 62  1  0
 65 63  1  0
 66 75  2  0
 66 71  1  0
 67 63  1  0
 67 71  1  0
 68 67  1  0
 69 70  1  0
 69 68  1  0
 70 66  1  0
 71 72  2  0
 72 73  1  0
 74 73  2  0
 75 74  1  0
 76 50  1  0
 76 81  1  0
 76 77  1  0
 77 80  1  1
 77 78  1  0
 79 77  1  0
 81 84  1  0
 82 86  1  0
 82 81  1  0
 83 82  2  0
 86 85  1  0
 88 89  1  0
 88 86  1  0
 88 87  1  0
M  ISO  4   9 100  11 100  48 101  49 101
M  END
>  <TORSDO>  (73) 
F 20

>  <SCORE>  (73) 
-12.771

>  <name>  (73) 
72

>  <ligand_id>  (73) 
72

>  <original_smiles>  (73) 
[H]C(C(=O)N1C([H])([H])C([H])([H])C([H])([H])C([H])(n2nc(-c3c([H])c([H])c(Oc4c([H])c([H])c(F)c([H])c4F)c([H])c3[H])c(C(=O)N([H])[H])c2N([H])[H])C1([H])[H])=C([H])C([H])(C([H])([H])[H])C1([H])C(C([H])([H])C([H])([H])Oc2c([H])c([H])c3c(c2[H])C([H])([H])N(C(=O)C([H])(N([H])C(=O)C([H])(N([H])C([H])([H])[H])C([H])([H])[H])C(C([H])([H])[H])(C([H])([H])[H])C([H])([H])[H])C([H])(C(=O)N([H])C2([H])c4c([H])c([H])c([H])c([H])c4C([H])([H])C([H])([H])C2([H])[H])C3([H])[H])=C([H])C([H])([H])C([H])([H])C1([H])[H]

>  <smiles>  (73) 
[H]C(C(=O)N1C([H])([H])C([H])([H])C([H])([H])C([H])(n2nc(-c3c([H])c([H])c(Oc4c([H])c([H])c(F)c([H])c4F)c([H])c3[H])c(C(=O)N([H])[H])c2N([H])[H])C1([H])[H])=C([H])C([H])(C([H])([H])[H])C1([H])C(C([H])([H])C([H])([H])Oc2c([H])c([H])c3c(c2[H])C([H])([H])N(C(=O)C([H])(N([H])C(=O)C([H])(N([H])C([H])([H])[H])C([H])([H])[H])C(C([H])([H])[H])(C([H])([H])[H])C([H])([H])[H])C([H])(C(=O)N([H])C2([H])c4c([H])c([H])c([H])c([H])c4C([H])([H])C([H])([H])C2([H])[H])C3([H])[H])=C([H])C([H])([H])C([H])([H])C1([H])[H]

$$$$
73:0:0
     RDKit          3D

 92 91  0  0  1  0  0  0  0  0999 V2000
  -28.5850  -18.7340   19.9240 C   0  0  0  0  0  1  0  0  0  0  0  0
  -29.3720  -12.1830   22.7490 C   0  0  0  0  0  2  0  0  0  0  0  0
  -30.1290  -11.5340   21.6770 C   0  0  0  0  0  2  0  0  0  0  0  0
  -29.2760  -12.9260   19.7280 C   0  0  0  0  0  2  0  0  0  0  0  0
  -28.7630  -15.1220   18.9070 C   0  0  0  0  0  2  0  0  0  0  0  0
  -28.3920  -12.8270   21.7870 C   0  0  0  0  0  2  0  0  0  0  0  0
  -30.1560  -12.8090   20.8480 C   0  0  0  0  0  2  0  0  0  0  0  0
  -28.4530  -16.1000   19.7280 C   0  0  0  0  0  2  0  0  0  0  0  0
  -28.9750  -13.6630   20.3160 N   0  0  0  0  0  2  0  0  0  0  0  0
  -29.6540  -18.7260   20.9860 N   0  0  0  0  0  4  0  0  0  0  0  0
  -29.8190  -19.6860   21.2510 H   0  0  0  0  0  0  0  0  0  0  0  0
  -29.2850  -18.2700   21.8040 H   0  0  0  0  0  0  0  0  0  0  0  0
  -30.9980  -18.1360   20.6300 C   0  0  0  0  0  2  0  0  0  0  0  0
  -31.6760  -17.1090   21.6420 C   0  0  0  0  0  2  0  0  0  0  0  0
  -31.7650  -15.6600   21.0910 C   0  0  0  0  0  0  0  0  0  0  0  0
  -31.3430  -14.3090   18.8230 C   0  0  0  0  0 15  0  0  0  0  0  0
  -29.9410  -13.4210   17.3240 C   0  0  0  0  0 15  0  0  0  0  0  0
  -27.8450  -13.3740   17.9190 C   0  0  0  0  0 15  0  0  0  0  0  0
  -27.1080  -14.3930   19.6650 C   0  0  0  0  0  2  0  0  0  0  0  0
  -28.7380  -15.4130   21.4120 C   0  0  0  0  0  1  0  0  0  0  0  0
  -30.7180  -15.3070   20.5360 N   0  0  0  0  0  1  0  0  0  0  0  0
  -32.7960  -15.0760   20.7790 O   0  0  0  0  0  0  0  0  0  0  0  0
  -25.0550  -14.2050   20.6240 C   0  0  0  0  0  0  0  0  0  0  0  0
  -24.1170  -13.2860   20.8380 C   0  0  0  0  0  0  0  0  0  0  0  0
  -24.6850  -11.9830   20.7030 C   0  0  0  0  0  0  0  0  0  0  0  0
  -26.0750  -13.5220   20.1650 N   0  0  0  0  0  0  0  0  0  0  0  0
  -25.9150  -12.1330   20.2140 N   0  0  0  0  0  0  0  0  0  0  0  0
  -24.0230  -10.6730   20.8950 C   0  0  0  0  0  0  0  0  0  0  0  0
  -24.4240   -9.7200   21.8640 C   0  0  0  0  0  3  0  0  0  0  0  0
  -23.6570   -8.5470   22.0800 C   0  0  0  0  0  3  0  0  0  0  0  0
  -22.4760   -8.3190   21.3310 C   0  0  0  0  0  0  0  0  0  0  0  0
  -22.1020   -9.2550   20.3520 C   0  0  0  0  0  3  0  0  0  0  0  0
  -22.8690  -10.4120   20.1350 C   0  0  0  0  0  3  0  0  0  0  0  0
  -21.6770   -7.2030   21.4390 O   0  0  0  0  0  0  0  0  0  0  0  0
  -21.5940   -6.4740   22.5970 C   0  0  0  0  0  0  0  0  0  0  0  0
  -21.2100   -7.0600   23.8230 C   0  0  0  0  0  3  0  0  0  0  0  0
  -21.0660   -6.2560   24.9720 C   0  0  0  0  0  3  0  0  0  0  0  0
  -21.2970   -4.8700   24.8970 C   0  0  0  0  0  0  0  0  0  0  0  0
  -21.6690   -4.2830   23.6740 C   0  0  0  0  0  3  0  0  0  0  0  0
  -21.8120   -5.0840   22.5280 C   0  0  0  0  0  0  0  0  0  0  0  0
  -22.1480   -4.5100   21.3470 F   0  0  0  0  0  0  0  0  0  0  0  0
  -21.1560   -4.0950   25.9980 F   0  0  0  0  0  0  0  0  0  0  0  0
  -22.7230  -13.7060   21.0060 C   0  0  0  0  0  0  0  0  0  0  0  0
  -21.9980  -13.0340   21.8770 N   0  0  0  0  0  0  0  0  0  0  0  0
  -22.3140  -14.6990   20.4030 O   0  0  0  0  0  0  0  0  0  0  0  0
  -22.3820  -12.2490   22.3790 H   0  0  0  0  0  0  0  0  0  0  0  0
  -21.0380  -13.3010   22.0460 H   0  0  0  0  0  0  0  0  0  0  0  0
  -25.0990  -15.6000   20.6850 N   0  0  0  0  0  0  0  0  0  0  0  0
  -24.2970  -16.1620   20.9470 H   0  0  0  0  0  0  0  0  0  0  0  0
  -25.9120  -16.1510   20.4470 H   0  0  0  0  0  0  0  0  0  0  0  0
  -27.8280  -21.3040   19.9470 C   0  0  0  0  0 15  0  0  0  0  0  0
  -27.8670  -23.6800   20.0560 O   0  0  0  0  0 15  0  0  0  0  0  0
  -24.8170  -31.5670   22.9370 C   0  0  0  0  0  0  0  0  0  0  0  0
  -27.1090  -25.4190   20.0880 C   0  0  0  0  0  3  0  0  0  0  0  0
  -23.6540  -30.1130   21.3560 C   0  0  0  0  0  3  0  0  0  0  0  0
  -25.0510  -28.1940   20.0290 C   0  0  0  0  0  0  0  0  0  0  0  0
  -26.2520  -29.8820   21.3560 C   0  0  0  0  0  2  0  0  0  0  0  0
  -26.2650  -28.3190   20.7110 C   0  0  0  0  0  0  0  0  0  0  0  0
  -27.2270  -27.0040   20.6820 C   0  0  0  0  0  3  0  0  0  0  0  0
  -25.8900  -25.8030   19.3550 C   0  0  0  0  0  3  0  0  0  0  0  0
  -24.9700  -26.9650   19.3270 C   0  0  0  0  0  3  0  0  0  0  0  0
  -23.9210  -29.3020   20.0330 C   0  0  0  0  0  2  0  0  0  0  0  0
  -24.9530  -30.5830   21.9350 N   0  0  0  0  0  0  0  0  0  0  0  0
  -23.7060  -31.9310   23.3800 O   0  0  0  0  0  0  0  0  0  0  0  0
  -22.8390  -29.2650   22.3760 C   0  0  0  0  0  0  0  0  0  0  0  0
  -21.4930  -29.2050   22.2790 N   0  0  0  0  0  0  0  0  0  0  0  0
  -23.4490  -28.6420   23.2450 O   0  0  0  0  0  0  0  0  0  0  0  0
  -21.0350  -29.7540   21.5660 H   0  0  0  0  0  0  0  0  0  0  0  0
  -18.0620  -28.1200   22.9080 C   0  0  0  0  0  0  0  0  0  0  0  0
  -20.6400  -28.3110   23.0820 C   0  0  0  0  0  3  0  0  0  0  0  0
  -20.6690  -26.8720   22.5140 C   0  0  0  0  0  2  0  0  0  0  0  0
  -19.5310  -26.5930   21.5260 C   0  0  0  0  0  2  0  0  0  0  0  0
  -18.1730  -26.7750   22.2080 C   0  0  0  0  0  2  0  0  0  0  0  0
  -19.2170  -28.8500   23.2990 C   0  0  0  0  0  0  0  0  0  0  0  0
  -19.0490  -30.1030   23.9270 C   0  0  0  0  0  3  0  0  0  0  0  0
  -17.7640  -30.6300   24.1540 C   0  0  0  0  0  3  0  0  0  0  0  0
  -16.6250  -29.9000   23.7710 C   0  0  0  0  0  3  0  0  0  0  0  0
  -16.7750  -28.6450   23.1540 C   0  0  0  0  0  3  0  0  0  0  0  0
  -26.0280  -32.3020   23.6070 C   0  0  0  0  0  3  0  0  0  0  0  0
  -25.6440  -33.6980   23.9700 N   0  0  0  0  0  0  0  0  0  0  0  0
  -25.9850  -34.8170   23.3080 C   0  0  0  0  0  0  0  0  0  0  0  0
  -26.6830  -34.7890   22.2940 O   0  0  0  0  0  0  0  0  0  0  0  0
  -25.0160  -33.7900   24.7530 H   0  0  0  0  0  0  0  0  0  0  0  0
  -24.2370  -36.6320   23.0610 C   0  0  0  0  0  1  0  0  0  0  0  0
  -25.4820  -36.1820   23.8460 C   0  0  0  0  0  3  0  0  0  0  0  0
  -27.5990  -37.0750   24.7320 C   0  0  0  0  0  1  0  0  0  0  0  0
  -26.4980  -37.2610   23.7900 N   0  0  0  0  0  0  0  0  0  0  0  0
  -26.0730  -38.1660   23.9750 H   0  0  0  0  0  0  0  0  0  0  0  0
  -26.5280  -31.5750   24.9180 C   0  0  1  0  0  0  0  0  0  0  0  0
  -25.4230  -31.3470   25.9780 C   0  0  0  0  0  1  0  0  0  0  0  0
  -27.1380  -30.1980   24.5910 C   0  0  0  0  0  1  0  0  0  0  0  0
  -27.6570  -32.3990   25.5830 C   0  0  0  0  0  1  0  0  0  0  0  0
  1 10  1  0
  3  2  1  0
  4  9  1  0
  4  7  1  0
  5 19  1  0
  5  8  1  0
  6  2  1  0
  7  3  1  0
  8 20  1  0
  9  6  1  0
 10 11  1  0
 10 12  1  0
 13 10  1  0
 13 14  1  0
 15 14  1  0
 19 26  1  0
 21 15  1  0
 22 15  2  0
 23 48  1  0
 23 24  2  0
 24 43  1  0
 25 24  1  0
 25 28  1  0
 26 27  1  0
 26 23  1  0
 27 25  2  0
 28 29  1  0
 29 30  2  0
 31 34  1  0
 31 30  1  0
 32 31  2  0
 33 32  1  0
 33 28  2  0
 34 35  1  0
 35 36  1  0
 36 37  2  0
 38 37  1  0
 38 42  1  0
 39 38  2  0
 40 35  2  0
 40 39  1  0
 41 40  1  0
 43 44  1  0
 44 47  1  0
 44 46  1  0
 45 43  2  0
 48 49  1  0
 50 48  1  0
 53 64  2  0
 54 59  1  0
 55 63  1  0
 55 65  1  0
 56 62  1  0
 56 58  1  0
 57 63  1  0
 58 57  1  0
 59 58  2  0
 60 54  2  0
 61 60  1  0
 61 56  2  0
 62 55  1  0
 63 53  1  0
 65 67  2  0
 66 65  1  0
 68 66  1  0
 69 78  2  0
 69 74  1  0
 70 66  1  0
 70 74  1  0
 71 70  1  0
 72 73  1  0
 72 71  1  0
 73 69  1  0
 74 75  2  0
 75 76  1  0
 77 76  2  0
 78 77  1  0
 79 53  1  0
 79 80  1  0
 79 89  1  0
 80 83  1  0
 81 85  1  0
 81 80  1  0
 82 81  2  0
 85 84  1  0
 87 85  1  0
 87 88  1  0
 87 86  1  0
 89 92  1  1
 89 90  1  0
 91 89  1  0
M  ISO  4  14 100  15 100  51 101  52 101
M  END
>  <TORSDO>  (74) 
F 21

>  <SCORE>  (74) 
-12.100

>  <name>  (74) 
73

>  <ligand_id>  (74) 
73

>  <original_smiles>  (74) 
[H]c1c([H])c([H])c2c(c1[H])C([H])([H])C([H])([H])C([H])([H])C2([H])N([H])C(=O)C1([H])N(C(=O)C([H])(N([H])C(=O)C([H])(N([H])C([H])([H])[H])C([H])([H])[H])C(C([H])([H])[H])(C([H])([H])[H])C([H])([H])[H])C([H])([H])c2c([H])c(OC([H])([H])C([H])(C3([H])N4C([H])([H])C([H])([H])C([H])([H])C4([H])C([H])([H])C3([H])[H])[N+]([H])([H])C([H])([H])C([H])([H])C(=O)N3C([H])([H])C([H])([H])C([H])([H])C([H])(n4nc(-c5c([H])c([H])c(Oc6c([H])c([H])c(F)c([H])c6F)c([H])c5[H])c(C(=O)N([H])[H])c4N([H])[H])C3([H])[H])c([H])c([H])c2C1([H])[H]

>  <smiles>  (74) 
[H]c1c([H])c([H])c2c(c1[H])C([H])([H])C([H])([H])C([H])([H])C2([H])N([H])C(=O)C1([H])N(C(=O)C([H])(N([H])C(=O)C([H])(N([H])C([H])([H])[H])C([H])([H])[H])C(C([H])([H])[H])(C([H])([H])[H])C([H])([H])[H])C([H])([H])c2c([H])c(OC([H])([H])C([H])(C3([H])N4C([H])([H])C([H])([H])C([H])([H])C4([H])C([H])([H])C3([H])[H])[N+]([H])([H])C([H])([H])C([H])([H])C(=O)N3C([H])([H])C([H])([H])C([H])([H])C([H])(n4nc(-c5c([H])c([H])c(Oc6c([H])c([H])c(F)c([H])c6F)c([H])c5[H])c(C(=O)N([H])[H])c4N([H])[H])C3([H])[H])c([H])c([H])c2C1([H])[H]

$$$$
74:0:0
     RDKit          3D

 86 94  0  0  1  0  0  0  0  0999 V2000
  -29.5920  -19.1290   20.3280 C   0  0  0  0  0  0  0  0  0  0  0  0
  -27.6850  -21.2720   18.1910 C   0  0  0  0  0  2  0  0  0  0  0  0
  -28.8360  -22.2350   18.5150 C   0  0  0  0  0  2  0  0  0  0  0  0
  -27.5540  -20.2870   19.3720 C   0  0  0  0  0  2  0  0  0  0  0  0
  -28.9420  -22.2100   20.0390 C   0  0  0  0  0  3  0  0  0  0  0  0
  -28.7640  -20.4470   20.1720 N   0  0  0  0  0  0  0  0  0  0  0  0
  -30.7730  -19.3480   20.6030 O   0  0  0  0  0  0  0  0  0  0  0  0
  -29.2440  -17.3000   20.2330 C   0  0  0  0  0  2  0  0  0  0  0  0
  -30.1850  -15.6800   20.1640 C   0  0  0  0  0  0  0  0  0  0  0  0
  -30.3280  -13.1360   19.3460 C   0  0  0  0  0  2  0  0  0  0  0  0
  -29.4170  -12.7700   18.1360 C   0  0  0  0  0  2  0  0  0  0  0  0
  -27.9890  -12.4280   18.5920 C   0  0  0  0  0  2  0  0  0  0  0  0
  -27.4970  -13.4110   19.6770 C   0  0  0  0  0  3  0  0  0  0  0  0
  -28.5410  -13.6760   20.7840 C   0  0  0  0  0  2  0  0  0  0  0  0
  -29.7240  -14.2920   20.1440 N   0  0  0  0  0  0  0  0  0  0  0  0
  -31.4160  -15.6510   19.9590 O   0  0  0  0  0  0  0  0  0  0  0  0
  -25.1440  -13.9370   20.4850 C   0  0  0  0  0  0  0  0  0  0  0  0
  -24.0910  -13.1520   20.8630 C   0  0  0  0  0  0  0  0  0  0  0  0
  -24.5650  -11.8030   20.8160 C   0  0  0  0  0  0  0  0  0  0  0  0
  -26.1850  -13.0680   20.2130 N   0  0  0  0  0  0  0  0  0  0  0  0
  -25.8520  -11.7770   20.4830 N   0  0  0  0  0  0  0  0  0  0  0  0
  -23.8430  -10.5380   21.0080 C   0  0  0  0  0  0  0  0  0  0  0  0
  -24.2790   -9.5700   21.9400 C   0  0  0  0  0  3  0  0  0  0  0  0
  -23.5540   -8.3710   22.1220 C   0  0  0  0  0  3  0  0  0  0  0  0
  -22.3790   -8.1310   21.3710 C   0  0  0  0  0  0  0  0  0  0  0  0
  -21.9600   -9.0890   20.4300 C   0  0  0  0  0  3  0  0  0  0  0  0
  -22.6870  -10.2790   20.2460 C   0  0  0  0  0  3  0  0  0  0  0  0
  -21.6260   -6.9840   21.4600 O   0  0  0  0  0  0  0  0  0  0  0  0
  -21.5730   -6.2470   22.6160 C   0  0  0  0  0  0  0  0  0  0  0  0
  -21.1180   -6.8010   23.8330 C   0  0  0  0  0  3  0  0  0  0  0  0
  -21.0110   -5.9910   24.9810 C   0  0  0  0  0  3  0  0  0  0  0  0
  -21.3500   -4.6260   24.9140 C   0  0  0  0  0  0  0  0  0  0  0  0
  -21.7990   -4.0720   23.7020 C   0  0  0  0  0  3  0  0  0  0  0  0
  -21.9060   -4.8800   22.5560 C   0  0  0  0  0  0  0  0  0  0  0  0
  -22.3170   -4.3340   21.3860 F   0  0  0  0  0  0  0  0  0  0  0  0
  -21.2420   -3.8450   26.0140 F   0  0  0  0  0  0  0  0  0  0  0  0
  -22.6950  -13.6250   21.1440 C   0  0  0  0  0  0  0  0  0  0  0  0
  -21.9750  -12.9320   22.0210 N   0  0  0  0  0  0  0  0  0  0  0  0
  -22.2510  -14.6460   20.6250 O   0  0  0  0  0  0  0  0  0  0  0  0
  -22.3400  -12.1030   22.4650 H   0  0  0  0  0  0  0  0  0  0  0  0
  -21.0410  -13.2380   22.2530 H   0  0  0  0  0  0  0  0  0  0  0  0
  -25.3050  -15.3090   20.3160 N   0  0  0  0  0  0  0  0  0  0  0  0
  -24.5510  -15.9690   20.4720 H   0  0  0  0  0  0  0  0  0  0  0  0
  -26.1410  -15.7440   19.9520 H   0  0  0  0  0  0  0  0  0  0  0  0
  -28.0270  -23.8620   20.4660 C   0  0  0  0  0  2  0  0  0  0  0  0
  -28.1980  -25.6050   20.3200 O   0  0  0  0  0  0  0  0  0  0  0  0
  -24.6860  -31.9020   23.2030 C   0  0  0  0  0  0  0  0  0  0  0  0
  -27.2120  -26.7990   20.2930 C   0  0  0  0  0  0  0  0  0  0  0  0
  -23.4990  -30.4840   21.5870 C   0  0  0  0  0  3  0  0  0  0  0  0
  -24.9460  -28.8190   20.2010 C   0  0  0  0  0  0  0  0  0  0  0  0
  -26.0780  -30.6310   21.4610 C   0  0  0  0  0  2  0  0  0  0  0  0
  -26.1420  -29.1890   20.8280 C   0  0  0  0  0  0  0  0  0  0  0  0
  -27.2630  -28.2080   20.8370 C   0  0  0  0  0  3  0  0  0  0  0  0
  -25.9810  -26.6310   19.6140 C   0  0  0  0  0  3  0  0  0  0  0  0
  -24.9030  -27.5640   19.5710 C   0  0  0  0  0  3  0  0  0  0  0  0
  -23.7400  -29.7710   20.2250 C   0  0  0  0  0  2  0  0  0  0  0  0
  -24.7780  -31.0390   22.1340 N   0  0  0  0  0  0  0  0  0  0  0  0
  -23.5930  -32.2070   23.7110 O   0  0  0  0  0  0  0  0  0  0  0  0
  -22.7870  -29.5170   22.5690 C   0  0  0  0  0  0  0  0  0  0  0  0
  -21.4540  -29.3580   22.4450 N   0  0  0  0  0  0  0  0  0  0  0  0
  -23.4420  -28.9030   23.4140 O   0  0  0  0  0  0  0  0  0  0  0  0
  -20.9740  -29.9030   21.7430 H   0  0  0  0  0  0  0  0  0  0  0  0
  -18.0660  -28.1530   22.9710 C   0  0  0  0  0  0  0  0  0  0  0  0
  -20.6270  -28.4320   23.2290 C   0  0  0  0  0  3  0  0  0  0  0  0
  -20.7300  -26.9900   22.6770 C   0  0  0  0  0  2  0  0  0  0  0  0
  -19.6290  -26.6500   21.6680 C   0  0  0  0  0  2  0  0  0  0  0  0
  -18.2480  -26.7970   22.3110 C   0  0  0  0  0  2  0  0  0  0  0  0
  -19.1830  -28.9270   23.3890 C   0  0  0  0  0  0  0  0  0  0  0  0
  -18.9550  -30.1920   23.9740 C   0  0  0  0  0  3  0  0  0  0  0  0
  -17.6450  -30.6840   24.1410 C   0  0  0  0  0  3  0  0  0  0  0  0
  -16.5450  -29.9070   23.7360 C   0  0  0  0  0  3  0  0  0  0  0  0
  -16.7570  -28.6450   23.1550 C   0  0  0  0  0  3  0  0  0  0  0  0
  -25.9500  -32.5610   23.8360 C   0  0  0  0  0  3  0  0  0  0  0  0
  -25.6190  -33.9590   24.1730 N   0  0  0  0  0  0  0  0  0  0  0  0
  -25.9330  -35.0290   23.4280 C   0  0  0  0  0  0  0  0  0  0  0  0
  -26.5930  -34.9410   22.3900 O   0  0  0  0  0  0  0  0  0  0  0  0
  -25.0330  -34.0990   24.9830 H   0  0  0  0  0  0  0  0  0  0  0  0
  -24.1890  -36.8210   23.1270 C   0  0  0  0  0  1  0  0  0  0  0  0
  -25.4470  -36.4130   23.9100 C   0  0  0  0  0  3  0  0  0  0  0  0
  -27.5870  -37.3160   24.7130 C   0  0  0  0  0  1  0  0  0  0  0  0
  -26.4700  -37.4760   23.7850 N   0  0  0  0  0  0  0  0  0  0  0  0
  -26.0580  -38.3920   23.9410 H   0  0  0  0  0  0  0  0  0  0  0  0
  -26.4590  -31.8060   25.1270 C   0  0  1  0  0  0  0  0  0  0  0  0
  -25.3610  -31.5770   26.1930 C   0  0  0  0  0  1  0  0  0  0  0  0
  -27.0480  -30.4240   24.7650 C   0  0  0  0  0  1  0  0  0  0  0  0
  -27.6060  -32.6100   25.7840 C   0  0  0  0  0  1  0  0  0  0  0  0
  1  7  2  0
  2  3  1  0
  2  4  1  0
  3  5  1  0
  4  6  1  0
  5  6  1  0
  5 45  1  0
  6  1  1  0
  8  1  1  0
  9  8  1  0
 10 15  1  0
 11 12  1  0
 11 10  1  0
 13 12  1  0
 13 20  1  0
 13 14  1  0
 15  9  1  0
 15 14  1  0
 16  9  2  0
 17 18  2  0
 18 37  1  0
 19 18  1  0
 19 22  1  0
 20 21  1  0
 20 17  1  0
 21 19  2  0
 22 23  1  0
 23 24  2  0
 25 28  1  0
 25 24  1  0
 26 25  2  0
 27 26  1  0
 27 22  2  0
 28 29  1  0
 29 30  1  0
 30 31  2  0
 32 31  1  0
 32 36  1  0
 33 32  2  0
 34 29  2  0
 34 33  1  0
 35 34  1  0
 37 38  1  0
 38 41  1  0
 38 40  1  0
 39 37  2  0
 42 43  1  0
 42 17  1  0
 44 42  1  0
 46 45  1  0
 47 58  2  0
 48 46  1  0
 48 53  1  0
 49 57  1  0
 49 59  1  0
 50 56  1  0
 50 52  1  0
 51 57  1  0
 52 53  2  0
 52 51  1  0
 54 48  2  0
 55 54  1  0
 55 50  2  0
 56 49  1  0
 57 47  1  0
 59 61  2  0
 60 59  1  0
 62 60  1  0
 63 72  2  0
 63 68  1  0
 64 60  1  0
 64 68  1  0
 65 64  1  0
 66 67  1  0
 66 65  1  0
 67 63  1  0
 68 69  2  0
 69 70  1  0
 71 70  2  0
 72 71  1  0
 73 47  1  0
 73 74  1  0
 73 83  1  0
 74 77  1  0
 75 79  1  0
 75 74  1  0
 76 75  2  0
 79 78  1  0
 81 79  1  0
 81 82  1  0
 81 80  1  0
 83 86  1  1
 83 84  1  0
 85 83  1  0
M  ISO  4   8 100   9 100  45 101  46 101
M  END
>  <TORSDO>  (75) 
F 18

>  <SCORE>  (75) 
-16.572

>  <name>  (75) 
74

>  <ligand_id>  (75) 
74

>  <original_smiles>  (75) 
[H]c1c([H])c([H])c2c(c1[H])C([H])([H])C([H])([H])C([H])([H])C2([H])N([H])C(=O)C1([H])N(C(=O)C([H])(N([H])C(=O)C([H])(N([H])C([H])([H])[H])C([H])([H])[H])C(C([H])([H])[H])(C([H])([H])[H])C([H])([H])[H])C([H])([H])c2c([H])c(OC([H])([H])C3([H])N(C(=O)C([H])([H])C(=O)N4C([H])([H])C([H])([H])C([H])([H])C([H])(n5nc(-c6c([H])c([H])c(Oc7c([H])c([H])c(F)c([H])c7F)c([H])c6[H])c(C(=O)N([H])[H])c5N([H])[H])C4([H])[H])C([H])([H])C([H])([H])C3([H])[H])c([H])c([H])c2C1([H])[H]

>  <smiles>  (75) 
[H]c1c([H])c([H])c2c(c1[H])C([H])([H])C([H])([H])C([H])([H])C2([H])N([H])C(=O)C1([H])N(C(=O)C([H])(N([H])C(=O)C([H])(N([H])C([H])([H])[H])C([H])([H])[H])C(C([H])([H])[H])(C([H])([H])[H])C([H])([H])[H])C([H])([H])c2c([H])c(OC([H])([H])C3([H])N(C(=O)C([H])([H])C(=O)N4C([H])([H])C([H])([H])C([H])([H])C([H])(n5nc(-c6c([H])c([H])c(Oc7c([H])c([H])c(F)c([H])c7F)c([H])c6[H])c(C(=O)N([H])[H])c5N([H])[H])C4([H])[H])C([H])([H])C([H])([H])C3([H])[H])c([H])c([H])c2C1([H])[H]

$$$$
75:0:0
     RDKit          3D

 86 93  0  0  1  0  0  0  0  0999 V2000
  -28.1920  -22.4140   20.6420 C   0  0  0  0  0  3  0  0  0  0  0  0
  -27.8670  -23.7570   20.4200 C   0  0  0  0  0  3  0  0  0  0  0  0
  -29.3030  -21.3620   20.3910 C   0  0  0  0  0  0  0  0  0  0  0  0
  -30.7060  -21.8990   20.1670 C   0  0  0  0  0  1  0  0  0  0  0  0
  -29.0540  -20.0650   20.5090 N   0  0  0  0  0  0  0  0  0  0  0  0
  -30.0660  -18.9310   20.6950 C   0  0  0  0  0  2  0  0  0  0  0  0
  -29.6920  -17.4310   20.1720 C   0  0  0  0  0  2  0  0  0  0  0  0
  -29.9820  -16.0890   21.0510 C   0  0  0  0  0  2  0  0  0  0  0  0
  -30.5840  -14.7440   20.4040 C   0  0  0  0  0  0  0  0  0  0  0  0
  -30.3530  -12.4630   19.3900 C   0  0  0  0  0  2  0  0  0  0  0  0
  -29.4410  -12.5750   18.1490 C   0  0  0  0  0  2  0  0  0  0  0  0
  -27.9620  -12.4060   18.5610 C   0  0  0  0  0  2  0  0  0  0  0  0
  -27.5890  -13.2790   19.7950 C   0  0  0  0  0  3  0  0  0  0  0  0
  -28.6400  -13.1690   20.9250 C   0  0  0  0  0  2  0  0  0  0  0  0
  -29.9470  -13.5180   20.3520 N   0  0  0  0  0  0  0  0  0  0  0  0
  -31.7040  -14.8410   19.8960 O   0  0  0  0  0  0  0  0  0  0  0  0
  -25.1980  -13.8810   20.5090 C   0  0  0  0  0  0  0  0  0  0  0  0
  -24.1260  -13.1170   20.8750 C   0  0  0  0  0  0  0  0  0  0  0  0
  -24.5820  -11.7610   20.8550 C   0  0  0  0  0  0  0  0  0  0  0  0
  -26.2390  -12.9970   20.2750 N   0  0  0  0  0  0  0  0  0  0  0  0
  -25.8720  -11.7190   20.5410 N   0  0  0  0  0  0  0  0  0  0  0  0
  -23.8490  -10.5040   21.0480 C   0  0  0  0  0  0  0  0  0  0  0  0
  -24.2880   -9.5290   21.9710 C   0  0  0  0  0  3  0  0  0  0  0  0
  -23.5530   -8.3390   22.1580 C   0  0  0  0  0  3  0  0  0  0  0  0
  -22.3690   -8.1120   21.4170 C   0  0  0  0  0  0  0  0  0  0  0  0
  -21.9460   -9.0790   20.4870 C   0  0  0  0  0  3  0  0  0  0  0  0
  -22.6800  -10.2610   20.3010 C   0  0  0  0  0  3  0  0  0  0  0  0
  -21.6100   -6.9720   21.5120 O   0  0  0  0  0  0  0  0  0  0  0  0
  -21.5880   -6.2110   22.6560 C   0  0  0  0  0  0  0  0  0  0  0  0
  -21.2250   -6.7530   23.9090 C   0  0  0  0  0  3  0  0  0  0  0  0
  -21.1550   -5.9200   25.0440 C   0  0  0  0  0  3  0  0  0  0  0  0
  -21.4330   -4.5460   24.9250 C   0  0  0  0  0  0  0  0  0  0  0  0
  -21.7840   -4.0010   23.6790 C   0  0  0  0  0  3  0  0  0  0  0  0
  -21.8610   -4.8310   22.5470 C   0  0  0  0  0  0  0  0  0  0  0  0
  -22.1850   -4.2970   21.3450 F   0  0  0  0  0  0  0  0  0  0  0  0
  -21.3550   -3.7460   26.0140 F   0  0  0  0  0  0  0  0  0  0  0  0
  -22.7330  -13.6070   21.1410 C   0  0  0  0  0  0  0  0  0  0  0  0
  -21.9950  -12.9250   22.0080 N   0  0  0  0  0  0  0  0  0  0  0  0
  -22.3050  -14.6350   20.6150 O   0  0  0  0  0  0  0  0  0  0  0  0
  -22.3470  -12.0950   22.4620 H   0  0  0  0  0  0  0  0  0  0  0  0
  -21.0580  -13.2430   22.2220 H   0  0  0  0  0  0  0  0  0  0  0  0
  -25.3760  -15.2510   20.3380 N   0  0  0  0  0  0  0  0  0  0  0  0
  -24.6350  -15.9150   20.5250 H   0  0  0  0  0  0  0  0  0  0  0  0
  -26.2480  -15.6930   20.0730 H   0  0  0  0  0  0  0  0  0  0  0  0
  -28.4210  -25.0180   19.6470 C   0  0  0  0  0  2  0  0  0  0  0  0
  -28.3290  -26.3970   20.2470 O   0  0  0  0  0  0  0  0  0  0  0  0
  -24.6270  -31.8830   23.2250 C   0  0  0  0  0  0  0  0  0  0  0  0
  -27.2080  -27.2600   20.1660 C   0  0  0  0  0  0  0  0  0  0  0  0
  -23.4150  -30.4830   21.5910 C   0  0  0  0  0  3  0  0  0  0  0  0
  -24.8560  -28.9190   20.1610 C   0  0  0  0  0  0  0  0  0  0  0  0
  -25.9610  -30.7790   21.4070 C   0  0  0  0  0  2  0  0  0  0  0  0
  -26.0320  -29.3980   20.7520 C   0  0  0  0  0  0  0  0  0  0  0  0
  -27.2060  -28.5780   20.7420 C   0  0  0  0  0  3  0  0  0  0  0  0
  -26.0000  -26.8380   19.5650 C   0  0  0  0  0  3  0  0  0  0  0  0
  -24.8460  -27.6470   19.5630 C   0  0  0  0  0  3  0  0  0  0  0  0
  -23.6280  -29.8060   20.2100 C   0  0  0  0  0  2  0  0  0  0  0  0
  -24.6860  -31.0700   22.1290 N   0  0  0  0  0  0  0  0  0  0  0  0
  -23.5450  -32.1700   23.7600 O   0  0  0  0  0  0  0  0  0  0  0  0
  -22.7560  -29.4710   22.5600 C   0  0  0  0  0  0  0  0  0  0  0  0
  -21.4270  -29.2970   22.4450 N   0  0  0  0  0  0  0  0  0  0  0  0
  -23.4360  -28.8480   23.3790 O   0  0  0  0  0  0  0  0  0  0  0  0
  -20.9340  -29.8630   21.7670 H   0  0  0  0  0  0  0  0  0  0  0  0
  -18.0530  -28.0910   22.9510 C   0  0  0  0  0  0  0  0  0  0  0  0
  -20.6090  -28.3630   23.2240 C   0  0  0  0  0  3  0  0  0  0  0  0
  -20.7130  -26.9250   22.6600 C   0  0  0  0  0  2  0  0  0  0  0  0
  -19.6170  -26.5950   21.6420 C   0  0  0  0  0  2  0  0  0  0  0  0
  -18.2360  -26.7350   22.2860 C   0  0  0  0  0  2  0  0  0  0  0  0
  -19.1670  -28.8610   23.3780 C   0  0  0  0  0  0  0  0  0  0  0  0
  -18.9420  -30.1240   23.9660 C   0  0  0  0  0  3  0  0  0  0  0  0
  -17.6350  -30.6200   24.1250 C   0  0  0  0  0  3  0  0  0  0  0  0
  -16.5340  -29.8490   23.7080 C   0  0  0  0  0  3  0  0  0  0  0  0
  -16.7440  -28.5840   23.1290 C   0  0  0  0  0  3  0  0  0  0  0  0
  -25.9160  -32.5150   23.8410 C   0  0  0  0  0  3  0  0  0  0  0  0
  -25.6030  -33.9110   24.1820 N   0  0  0  0  0  0  0  0  0  0  0  0
  -25.9270  -34.9700   23.4310 C   0  0  0  0  0  0  0  0  0  0  0  0
  -26.5860  -34.8780   22.3920 O   0  0  0  0  0  0  0  0  0  0  0  0
  -25.0080  -34.0580   24.9840 H   0  0  0  0  0  0  0  0  0  0  0  0
  -24.1860  -36.7590   23.1160 C   0  0  0  0  0  1  0  0  0  0  0  0
  -25.4430  -36.3560   23.9050 C   0  0  0  0  0  3  0  0  0  0  0  0
  -27.5890  -37.2400   24.7040 C   0  0  0  0  0  1  0  0  0  0  0  0
  -26.4690  -37.4120   23.7820 N   0  0  0  0  0  0  0  0  0  0  0  0
  -26.0630  -38.3300   23.9420 H   0  0  0  0  0  0  0  0  0  0  0  0
  -26.4440  -31.7390   25.1080 C   0  0  1  0  0  0  0  0  0  0  0  0
  -25.3610  -31.5000   26.1860 C   0  0  0  0  0  1  0  0  0  0  0  0
  -27.0210  -30.3600   24.7090 C   0  0  0  0  0  1  0  0  0  0  0  0
  -27.6020  -32.5300   25.7590 C   0  0  0  0  0  1  0  0  0  0  0  0
  2  1  2  0
  3  5  2  0
  3  1  1  0
  4  3  1  0
  5  6  1  0
  7  6  1  0
  7  8  1  0
  9  8  1  0
 10 15  1  0
 11 12  1  0
 11 10  1  0
 13 12  1  0
 13 20  1  0
 13 14  1  0
 15  9  1  0
 15 14  1  0
 16  9  2  0
 17 18  2  0
 18 37  1  0
 19 18  1  0
 19 22  1  0
 20 17  1  0
 20 21  1  0
 21 19  2  0
 22 23  1  0
 23 24  2  0
 25 28  1  0
 25 24  1  0
 26 25  2  0
 27 26  1  0
 27 22  2  0
 28 29  1  0
 29 30  1  0
 30 31  2  0
 32 31  1  0
 32 36  1  0
 33 32  2  0
 34 29  2  0
 34 33  1  0
 35 34  1  0
 37 38  1  0
 38 41  1  0
 38 40  1  0
 39 37  2  0
 42 17  1  0
 42 43  1  0
 44 42  1  0
 45 46  1  0
 45  2  1  0
 47 58  2  0
 48 46  1  0
 48 53  1  0
 49 57  1  0
 49 59  1  0
 50 56  1  0
 50 52  1  0
 51 57  1  0
 52 51  1  0
 53 52  2  0
 54 48  2  0
 55 54  1  0
 55 50  2  0
 56 49  1  0
 57 47  1  0
 59 61  2  0
 60 59  1  0
 62 60  1  0
 63 72  2  0
 63 68  1  0
 64 60  1  0
 64 68  1  0
 65 64  1  0
 66 67  1  0
 66 65  1  0
 67 63  1  0
 68 69  2  0
 69 70  1  0
 71 70  2  0
 72 71  1  0
 73 47  1  0
 73 74  1  0
 73 83  1  0
 74 77  1  0
 75 79  1  0
 75 74  1  0
 76 75  2  0
 79 78  1  0
 81 79  1  0
 81 82  1  0
 81 80  1  0
 83 86  1  1
 83 84  1  0
 85 83  1  0
M  ISO  4   8 100   9 100  45 101  46 101
M  END
>  <TORSDO>  (76) 
F 21

>  <SCORE>  (76) 
-13.349

>  <name>  (76) 
75

>  <ligand_id>  (76) 
75

>  <original_smiles>  (76) 
[H]C(C(=NC([H])([H])C([H])([H])C([H])([H])C(=O)N1C([H])([H])C([H])([H])C([H])([H])C([H])(n2nc(-c3c([H])c([H])c(Oc4c([H])c([H])c(F)c([H])c4F)c([H])c3[H])c(C(=O)N([H])[H])c2N([H])[H])C1([H])[H])C([H])([H])[H])=C([H])C([H])([H])Oc1c([H])c([H])c2c(c1[H])C([H])([H])N(C(=O)C([H])(N([H])C(=O)C([H])(N([H])C([H])([H])[H])C([H])([H])[H])C(C([H])([H])[H])(C([H])([H])[H])C([H])([H])[H])C([H])(C(=O)N([H])C1([H])c3c([H])c([H])c([H])c([H])c3C([H])([H])C([H])([H])C1([H])[H])C2([H])[H]

>  <smiles>  (76) 
[H]C(C(=NC([H])([H])C([H])([H])C([H])([H])C(=O)N1C([H])([H])C([H])([H])C([H])([H])C([H])(n2nc(-c3c([H])c([H])c(Oc4c([H])c([H])c(F)c([H])c4F)c([H])c3[H])c(C(=O)N([H])[H])c2N([H])[H])C1([H])[H])C([H])([H])[H])=C([H])C([H])([H])Oc1c([H])c([H])c2c(c1[H])C([H])([H])N(C(=O)C([H])(N([H])C(=O)C([H])(N([H])C([H])([H])[H])C([H])([H])[H])C(C([H])([H])[H])(C([H])([H])[H])C([H])([H])[H])C([H])(C(=O)N([H])C1([H])c3c([H])c([H])c([H])c([H])c3C([H])([H])C([H])([H])C1([H])[H])C2([H])[H]

$$$$
76:0:0
     RDKit          3D

 90 99  0  0  1  0  0  0  0  0999 V2000
  -30.7890  -23.7350   20.0550 C   0  0  0  0  0  2  0  0  0  0  0  0
  -29.9010  -24.7210   19.2560 C   0  0  0  0  0  2  0  0  0  0  0  0
  -31.3560  -21.2320   20.4730 C   0  0  0  0  0  2  0  0  0  0  0  0
  -27.9800  -23.3330   20.3090 C   0  0  0  0  0  2  0  0  0  0  0  0
  -31.0170  -19.7450   20.1520 C   0  0  0  0  0  2  0  0  0  0  0  0
  -28.6230  -20.4060   20.2940 C   0  0  0  0  0  2  0  0  0  0  0  0
  -30.3520  -22.2580   19.8850 C   0  0  0  0  0  3  0  0  0  0  0  0
  -28.9950  -22.0200   20.5500 C   0  0  0  0  0  3  0  0  0  0  0  0
  -28.4310  -24.8400   19.7330 C   0  0  0  0  0  3  0  0  0  0  0  0
  -29.6790  -19.2800   20.6260 N   0  0  1  0  0  4  0  0  0  0  0  0
  -29.7210  -19.2730   21.6340 H   0  0  0  0  0  0  0  0  0  0  0  0
  -28.2910  -26.2620   20.3370 O   0  0  0  0  0  0  0  0  0  0  0  0
  -24.6400  -31.8870   23.2800 C   0  0  0  0  0  0  0  0  0  0  0  0
  -27.2090  -27.2010   20.2150 C   0  0  0  0  0  0  0  0  0  0  0  0
  -23.4320  -30.5020   21.6340 C   0  0  0  0  0  3  0  0  0  0  0  0
  -24.8750  -28.9300   20.1940 C   0  0  0  0  0  0  0  0  0  0  0  0
  -25.9830  -30.7680   21.4650 C   0  0  0  0  0  2  0  0  0  0  0  0
  -26.0510  -29.3810   20.8040 C   0  0  0  0  0  0  0  0  0  0  0  0
  -27.2130  -28.5280   20.8020 C   0  0  0  0  0  3  0  0  0  0  0  0
  -26.0080  -26.8410   19.5660 C   0  0  0  0  0  3  0  0  0  0  0  0
  -24.8650  -27.6750   19.5610 C   0  0  0  0  0  3  0  0  0  0  0  0
  -23.6470  -29.8270   20.2510 C   0  0  0  0  0  2  0  0  0  0  0  0
  -24.7040  -31.0750   22.1820 N   0  0  0  0  0  0  0  0  0  0  0  0
  -23.5560  -32.1720   23.8120 O   0  0  0  0  0  0  0  0  0  0  0  0
  -22.7550  -29.4930   22.5940 C   0  0  0  0  0  0  0  0  0  0  0  0
  -21.4290  -29.3110   22.4540 N   0  0  0  0  0  0  0  0  0  0  0  0
  -23.4230  -28.8760   23.4270 O   0  0  0  0  0  0  0  0  0  0  0  0
  -20.9460  -29.8620   21.7580 H   0  0  0  0  0  0  0  0  0  0  0  0
  -18.0550  -28.0770   22.9150 C   0  0  0  0  0  0  0  0  0  0  0  0
  -20.6070  -28.3710   23.2200 C   0  0  0  0  0  3  0  0  0  0  0  0
  -20.7330  -26.9360   22.6580 C   0  0  0  0  0  2  0  0  0  0  0  0
  -19.6510  -26.5930   21.6280 C   0  0  0  0  0  2  0  0  0  0  0  0
  -18.2580  -26.7260   22.2500 C   0  0  0  0  0  2  0  0  0  0  0  0
  -19.1590  -28.8560   23.3560 C   0  0  0  0  0  0  0  0  0  0  0  0
  -18.9150  -30.1190   23.9380 C   0  0  0  0  0  3  0  0  0  0  0  0
  -17.6010  -30.6030   24.0840 C   0  0  0  0  0  3  0  0  0  0  0  0
  -16.5120  -29.8220   23.6590 C   0  0  0  0  0  3  0  0  0  0  0  0
  -16.7410  -28.5610   23.0790 C   0  0  0  0  0  3  0  0  0  0  0  0
  -25.9210  -32.5160   23.9090 C   0  0  0  0  0  3  0  0  0  0  0  0
  -25.6200  -33.9190   24.2330 N   0  0  0  0  0  0  0  0  0  0  0  0
  -25.9620  -34.9700   23.4750 C   0  0  0  0  0  0  0  0  0  0  0  0
  -26.6320  -34.8590   22.4440 O   0  0  0  0  0  0  0  0  0  0  0  0
  -25.0250  -34.0790   25.0320 H   0  0  0  0  0  0  0  0  0  0  0  0
  -24.2550  -36.7840   23.1150 C   0  0  0  0  0  1  0  0  0  0  0  0
  -25.4890  -36.3640   23.9320 C   0  0  0  0  0  3  0  0  0  0  0  0
  -27.6260  -37.2310   24.7760 C   0  0  0  0  0  1  0  0  0  0  0  0
  -26.5330  -37.4060   23.8230 N   0  0  0  0  0  0  0  0  0  0  0  0
  -26.1360  -38.3310   23.9610 H   0  0  0  0  0  0  0  0  0  0  0  0
  -26.4200  -31.7500   25.1970 C   0  0  1  0  0  0  0  0  0  0  0  0
  -25.3160  -31.5320   26.2580 C   0  0  0  0  0  1  0  0  0  0  0  0
  -26.9940  -30.3640   24.8250 C   0  0  0  0  0  1  0  0  0  0  0  0
  -27.5730  -32.5390   25.8620 C   0  0  0  0  0  1  0  0  0  0  0  0
  -29.4430  -17.7600   20.1990 C   0  0  0  0  0  2  0  0  0  0  0  0
  -29.9030  -16.4090   21.0970 C   0  0  0  0  0  2  0  0  0  0  0  0
  -30.5870  -14.9960   20.5560 C   0  0  0  0  0  0  0  0  0  0  0  0
  -30.4900  -12.6540   19.5830 C   0  0  0  0  0  2  0  0  0  0  0  0
  -29.5950  -12.6480   18.3210 C   0  0  0  0  0  2  0  0  0  0  0  0
  -28.1190  -12.4340   18.7050 C   0  0  0  0  0  2  0  0  0  0  0  0
  -27.6830  -13.3370   19.8890 C   0  0  0  0  0  3  0  0  0  0  0  0
  -28.7050  -13.3180   21.0460 C   0  0  0  0  0  2  0  0  0  0  0  0
  -30.0010  -13.7300   20.4950 N   0  0  0  0  0  0  0  0  0  0  0  0
  -31.7570  -15.0640   20.1620 O   0  0  0  0  0  0  0  0  0  0  0  0
  -25.2730  -13.8980   20.5420 C   0  0  0  0  0  0  0  0  0  0  0  0
  -24.2050  -13.1160   20.8840 C   0  0  0  0  0  0  0  0  0  0  0  0
  -24.6820  -11.7700   20.8810 C   0  0  0  0  0  0  0  0  0  0  0  0
  -26.3310  -13.0290   20.3440 N   0  0  0  0  0  0  0  0  0  0  0  0
  -25.9830  -11.7440   20.6130 N   0  0  0  0  0  0  0  0  0  0  0  0
  -23.9620  -10.5020   21.0600 C   0  0  0  0  0  0  0  0  0  0  0  0
  -24.3660   -9.5500   22.0220 C   0  0  0  0  0  3  0  0  0  0  0  0
  -23.6440   -8.3490   22.1880 C   0  0  0  0  0  3  0  0  0  0  0  0
  -22.5010   -8.0910   21.3930 C   0  0  0  0  0  0  0  0  0  0  0  0
  -22.1170   -9.0310   20.4210 C   0  0  0  0  0  3  0  0  0  0  0  0
  -22.8410  -10.2240   20.2520 C   0  0  0  0  0  3  0  0  0  0  0  0
  -21.7540   -6.9400   21.4660 O   0  0  0  0  0  0  0  0  0  0  0  0
  -21.6600   -6.2160   22.6280 C   0  0  0  0  0  0  0  0  0  0  0  0
  -21.1540   -6.7810   23.8190 C   0  0  0  0  0  3  0  0  0  0  0  0
  -21.0090   -5.9820   24.9710 C   0  0  0  0  0  3  0  0  0  0  0  0
  -21.3590   -4.6200   24.9310 C   0  0  0  0  0  0  0  0  0  0  0  0
  -21.8580   -4.0540   23.7450 C   0  0  0  0  0  3  0  0  0  0  0  0
  -22.0050   -4.8510   22.5960 C   0  0  0  0  0  0  0  0  0  0  0  0
  -22.4660   -4.2950   21.4490 F   0  0  0  0  0  0  0  0  0  0  0  0
  -21.2140   -3.8500   26.0350 F   0  0  0  0  0  0  0  0  0  0  0  0
  -22.7950  -13.5820   21.1050 C   0  0  0  0  0  0  0  0  0  0  0  0
  -22.0420  -12.8820   21.9470 N   0  0  0  0  0  0  0  0  0  0  0  0
  -22.3690  -14.6040   20.5680 O   0  0  0  0  0  0  0  0  0  0  0  0
  -22.4000  -12.0570   22.4040 H   0  0  0  0  0  0  0  0  0  0  0  0
  -21.0950  -13.1760   22.1360 H   0  0  0  0  0  0  0  0  0  0  0  0
  -25.4290  -15.2690   20.3570 N   0  0  0  0  0  0  0  0  0  0  0  0
  -24.6520  -15.9160   20.4340 H   0  0  0  0  0  0  0  0  0  0  0  0
  -26.2830  -15.7110   20.0410 H   0  0  0  0  0  0  0  0  0  0  0  0
  2  9  1  0
  2  1  1  0
  4  8  1  0
  5  3  1  0
  5 10  1  0
  6 10  1  0
  7  1  1  0
  7  3  1  0
  7  8  1  0
  8  6  1  0
  9  4  1  0
  9 12  1  0
 10 11  1  1
 13 24  2  0
 14 12  1  0
 14 19  1  0
 15 23  1  0
 15 25  1  0
 16 22  1  0
 16 18  1  0
 17 23  1  0
 18 17  1  0
 19 18  2  0
 20 14  2  0
 21 20  1  0
 21 16  2  0
 22 15  1  0
 23 13  1  0
 25 27  2  0
 26 25  1  0
 28 26  1  0
 29 38  2  0
 29 34  1  0
 30 26  1  0
 30 34  1  0
 31 30  1  0
 32 33  1  0
 32 31  1  0
 33 29  1  0
 34 35  2  0
 35 36  1  0
 37 36  2  0
 38 37  1  0
 39 13  1  0
 39 40  1  0
 39 49  1  0
 40 43  1  0
 41 45  1  0
 41 40  1  0
 42 41  2  0
 45 44  1  0
 47 45  1  0
 47 48  1  0
 47 46  1  0
 49 52  1  1
 49 50  1  0
 51 49  1  0
 53 10  1  0
 53 54  1  0
 55 54  1  0
 56 61  1  0
 57 58  1  0
 57 56  1  0
 59 58  1  0
 59 66  1  0
 59 60  1  0
 61 55  1  0
 61 60  1  0
 62 55  2  0
 63 64  2  0
 64 83  1  0
 65 64  1  0
 65 68  1  0
 66 63  1  0
 66 67  1  0
 67 65  2  0
 68 69  1  0
 69 70  2  0
 71 74  1  0
 71 70  1  0
 72 71  2  0
 73 72  1  0
 73 68  2  0
 74 75  1  0
 75 76  1  0
 76 77  2  0
 78 77  1  0
 78 82  1  0
 79 78  2  0
 80 75  2  0
 80 79  1  0
 81 80  1  0
 83 84  1  0
 84 87  1  0
 84 86  1  0
 85 83  2  0
 88 89  1  0
 88 63  1  0
 90 88  1  0
M  ISO  4   9 101  12 101  54 100  55 100
M  END
>  <TORSDO>  (77) 
F 18

>  <SCORE>  (77) 
-14.707

>  <name>  (77) 
76

>  <ligand_id>  (77) 
76

>  <original_smiles>  (77) 
[H]c1c([H])c([H])c2c(c1[H])C([H])([H])C([H])([H])C([H])([H])C2([H])N([H])C(=O)C1([H])N(C(=O)C([H])(N([H])C(=O)C([H])(N([H])C([H])([H])[H])C([H])([H])[H])C(C([H])([H])[H])(C([H])([H])[H])C([H])([H])[H])C([H])([H])c2c([H])c(OC3([H])C([H])([H])C([H])([H])C4([H])C([H])([H])C([H])([H])[N+]([H])(C([H])([H])C([H])([H])C(=O)N5C([H])([H])C([H])([H])C([H])([H])C([H])(n6nc(-c7c([H])c([H])c(Oc8c([H])c([H])c(F)c([H])c8F)c([H])c7[H])c(C(=O)N([H])[H])c6N([H])[H])C5([H])[H])C([H])([H])C4([H])C3([H])[H])c([H])c([H])c2C1([H])[H]

>  <smiles>  (77) 
[H]c1c([H])c([H])c2c(c1[H])C([H])([H])C([H])([H])C([H])([H])C2([H])N([H])C(=O)C1([H])N(C(=O)C([H])(N([H])C(=O)C([H])(N([H])C([H])([H])[H])C([H])([H])[H])C(C([H])([H])[H])(C([H])([H])[H])C([H])([H])[H])C([H])([H])c2c([H])c(OC3([H])C([H])([H])C([H])([H])C4([H])C([H])([H])C([H])([H])[N+]([H])(C([H])([H])C([H])([H])C(=O)N5C([H])([H])C([H])([H])C([H])([H])C([H])(n6nc(-c7c([H])c([H])c(Oc8c([H])c([H])c(F)c([H])c8F)c([H])c7[H])c(C(=O)N([H])[H])c6N([H])[H])C5([H])[H])C([H])([H])C4([H])C3([H])[H])c([H])c([H])c2C1([H])[H]

$$$$
77:0:0
     RDKit          3D

 96104  0  0  1  0  0  0  0  0999 V2000
  -30.7040  -23.4320   23.6630 C   0  0  0  0  0  2  0  0  0  0  0  0
  -31.0530  -22.1460   22.9220 C   0  0  0  0  0  2  0  0  0  0  0  0
  -29.8490  -24.2330   22.6630 C   0  0  0  0  0  2  0  0  0  0  0  0
  -29.7750  -21.8380   22.1360 C   0  0  0  0  0  3  0  0  0  0  0  0
  -29.2640  -23.2190   21.6500 C   0  0  0  0  0  3  0  0  0  0  0  0
  -27.0580  -23.8520   20.8310 C   0  0  0  0  0  0  0  0  0  0  0  0
  -25.5600  -23.7610   21.0620 C   0  0  0  0  0  1  0  0  0  0  0  0
  -27.8070  -23.2500   21.6800 N   0  0  0  0  0  0  0  0  0  0  0  0
  -27.4630  -24.6400   19.5570 C   0  0  0  0  0  2  0  0  0  0  0  0
  -27.6410  -26.0570   19.7420 O   0  0  0  0  0  0  0  0  0  0  0  0
  -24.6380  -31.3310   23.4060 C   0  0  0  0  0  0  0  0  0  0  0  0
  -26.5520  -26.9060   19.8060 C   0  0  0  0  0  0  0  0  0  0  0  0
  -23.1930  -30.2650   21.7040 C   0  0  0  0  0  3  0  0  0  0  0  0
  -24.3750  -28.7000   20.0770 C   0  0  0  0  0  0  0  0  0  0  0  0
  -25.7410  -30.3060   21.4260 C   0  0  0  0  0  2  0  0  0  0  0  0
  -25.6160  -29.0170   20.6370 C   0  0  0  0  0  0  0  0  0  0  0  0
  -26.7070  -28.1340   20.4880 C   0  0  0  0  0  3  0  0  0  0  0  0
  -25.2910  -26.6090   19.2360 C   0  0  0  0  0  3  0  0  0  0  0  0
  -24.2070  -27.4960   19.3730 C   0  0  0  0  0  3  0  0  0  0  0  0
  -23.2560  -29.6940   20.2640 C   0  0  0  0  0  2  0  0  0  0  0  0
  -24.5440  -30.6460   22.2320 N   0  0  0  0  0  0  0  0  0  0  0  0
  -23.6270  -31.6860   24.0250 O   0  0  0  0  0  0  0  0  0  0  0  0
  -22.4520  -29.2480   22.5980 C   0  0  0  0  0  0  0  0  0  0  0  0
  -21.1140  -29.2090   22.4790 N   0  0  0  0  0  0  0  0  0  0  0  0
  -23.0770  -28.5000   23.3540 O   0  0  0  0  0  0  0  0  0  0  0  0
  -20.6720  -29.8660   21.8510 H   0  0  0  0  0  0  0  0  0  0  0  0
  -17.6450  -28.3220   22.9470 C   0  0  0  0  0  0  0  0  0  0  0  0
  -20.2170  -28.3030   23.1950 C   0  0  0  0  0  3  0  0  0  0  0  0
  -20.1650  -26.9140   22.5190 C   0  0  0  0  0  2  0  0  0  0  0  0
  -19.0280  -26.7760   21.5010 C   0  0  0  0  0  2  0  0  0  0  0  0
  -17.6750  -27.0130   22.1750 C   0  0  0  0  0  2  0  0  0  0  0  0
  -18.8370  -28.9350   23.4120 C   0  0  0  0  0  0  0  0  0  0  0  0
  -18.7530  -30.1700   24.0930 C   0  0  0  0  0  3  0  0  0  0  0  0
  -17.5070  -30.7900   24.3030 C   0  0  0  0  0  3  0  0  0  0  0  0
  -16.3260  -30.1680   23.8580 C   0  0  0  0  0  3  0  0  0  0  0  0
  -16.3980  -28.9320   23.1920 C   0  0  0  0  0  3  0  0  0  0  0  0
  -26.0220  -31.7230   24.0130 C   0  0  0  0  0  3  0  0  0  0  0  0
  -25.9530  -33.1420   24.3820 N   0  0  0  0  0  0  0  0  0  0  0  0
  -26.4580  -34.1440   23.6500 C   0  0  0  0  0  0  0  0  0  0  0  0
  -27.1030  -33.9590   22.6140 O   0  0  0  0  0  0  0  0  0  0  0  0
  -25.3900  -33.3780   25.1870 H   0  0  0  0  0  0  0  0  0  0  0  0
  -25.0590  -36.2130   23.3590 C   0  0  0  0  0  1  0  0  0  0  0  0
  -26.2140  -35.5800   24.1490 C   0  0  0  0  0  3  0  0  0  0  0  0
  -28.4600  -36.0810   25.0150 C   0  0  0  0  0  1  0  0  0  0  0  0
  -27.4110  -36.4440   24.0650 N   0  0  0  0  0  0  0  0  0  0  0  0
  -27.1620  -37.4160   24.2230 H   0  0  0  0  0  0  0  0  0  0  0  0
  -26.4410  -30.8420   25.2550 C   0  0  1  0  0  0  0  0  0  0  0  0
  -25.3470  -30.7440   26.3440 C   0  0  0  0  0  1  0  0  0  0  0  0
  -26.8020  -29.3990   24.8240 C   0  0  0  0  0  1  0  0  0  0  0  0
  -27.7070  -31.4400   25.9180 C   0  0  0  0  0  1  0  0  0  0  0  0
  -30.0050  -20.8160   21.0300 C   0  0  0  0  0  3  0  0  0  0  0  0
  -29.6500  -19.5190   21.1050 C   0  0  0  0  0  3  0  0  0  0  0  0
  -31.3300  -17.9220   20.2860 C   0  0  0  0  0  1  0  0  0  0  0  0
  -29.9160  -18.4840   20.0190 C   0  0  0  0  0  3  0  0  0  0  0  0
  -28.8070  -17.4670   19.9400 N   0  0  1  0  0  4  0  0  0  0  0  0
  -28.4440  -17.3510   20.8770 H   0  0  0  0  0  0  0  0  0  0  0  0
  -27.1570  -19.3580   19.2350 C   0  0  0  0  0  1  0  0  0  0  0  0
  -27.6430  -17.9000   19.0890 C   0  0  0  0  0  2  0  0  0  0  0  0
  -29.2490  -16.1030   19.4960 C   0  0  0  0  0  2  0  0  0  0  0  0
  -29.7440  -15.1550   20.6240 C   0  0  0  0  0  2  0  0  0  0  0  0
  -30.4680  -13.9210   20.0320 C   0  0  0  0  0  0  0  0  0  0  0  0
  -30.2370  -11.6890   19.0100 C   0  0  0  0  0  2  0  0  0  0  0  0
  -29.2130  -11.7850   17.8610 C   0  0  0  0  0  2  0  0  0  0  0  0
  -27.7740  -11.6040   18.3830 C   0  0  0  0  0  2  0  0  0  0  0  0
  -27.4710  -12.5110   19.6040 C   0  0  0  0  0  3  0  0  0  0  0  0
  -28.5910  -12.3660   20.6560 C   0  0  0  0  0  2  0  0  0  0  0  0
  -29.8710  -12.7020   20.0150 N   0  0  0  0  0  0  0  0  0  0  0  0
  -31.5450  -14.1300   19.4630 O   0  0  0  0  0  0  0  0  0  0  0  0
  -25.1070  -13.0950   20.4420 C   0  0  0  0  0  0  0  0  0  0  0  0
  -24.0860  -12.3090   20.9080 C   0  0  0  0  0  0  0  0  0  0  0  0
  -24.5820  -10.9710   20.8980 C   0  0  0  0  0  0  0  0  0  0  0  0
  -26.1570  -12.2290   20.1750 N   0  0  0  0  0  0  0  0  0  0  0  0
  -25.8480  -10.9500   20.5040 N   0  0  0  0  0  0  0  0  0  0  0  0
  -23.9070   -9.6960   21.1800 C   0  0  0  0  0  0  0  0  0  0  0  0
  -24.3670   -8.8210   22.1890 C   0  0  0  0  0  3  0  0  0  0  0  0
  -23.6880   -7.6110   22.4500 C   0  0  0  0  0  3  0  0  0  0  0  0
  -22.5340   -7.2730   21.7060 C   0  0  0  0  0  0  0  0  0  0  0  0
  -22.0980   -8.1340   20.6840 C   0  0  0  0  0  3  0  0  0  0  0  0
  -22.7780   -9.3360   20.4200 C   0  0  0  0  0  3  0  0  0  0  0  0
  -21.8240   -6.1080   21.8730 O   0  0  0  0  0  0  0  0  0  0  0  0
  -21.7420   -5.4850   23.0930 C   0  0  0  0  0  0  0  0  0  0  0  0
  -21.1500   -6.1120   24.2100 C   0  0  0  0  0  3  0  0  0  0  0  0
  -21.0210   -5.4120   25.4250 C   0  0  0  0  0  3  0  0  0  0  0  0
  -21.4780   -4.0850   25.5250 C   0  0  0  0  0  0  0  0  0  0  0  0
  -22.0640   -3.4560   24.4120 C   0  0  0  0  0  3  0  0  0  0  0  0
  -22.1940   -4.1540   23.1990 C   0  0  0  0  0  0  0  0  0  0  0  0
  -22.7410   -3.5370   22.1250 F   0  0  0  0  0  0  0  0  0  0  0  0
  -21.3480   -3.4070   26.6890 F   0  0  0  0  0  0  0  0  0  0  0  0
  -22.6950  -12.7610   21.2510 C   0  0  0  0  0  0  0  0  0  0  0  0
  -22.0430  -12.0730   22.1830 N   0  0  0  0  0  0  0  0  0  0  0  0
  -22.1940  -13.7540   20.7260 O   0  0  0  0  0  0  0  0  0  0  0  0
  -22.4590  -11.2650   22.6220 H   0  0  0  0  0  0  0  0  0  0  0  0
  -21.1130  -12.3550   22.4570 H   0  0  0  0  0  0  0  0  0  0  0  0
  -25.2200  -14.4610   20.2040 N   0  0  0  0  0  0  0  0  0  0  0  0
  -24.4330  -15.0930   20.3090 H   0  0  0  0  0  0  0  0  0  0  0  0
  -26.0120  -14.8950   19.7520 H   0  0  0  0  0  0  0  0  0  0  0  0
  2  1  1  0
  3  1  1  0
  4 51  1  0
  4  2  1  0
  5  8  1  0
  5  4  1  0
  5  3  1  0
  6  7  1  0
  6  8  2  0
  9 10  1  0
  9  6  1  0
 10 12  1  0
 11 22  2  0
 12 17  1  0
 13 21  1  0
 13 23  1  0
 14 20  1  0
 14 16  1  0
 15 21  1  0
 16 15  1  0
 17 16  2  0
 18 19  1  0
 18 12  2  0
 19 14  2  0
 20 13  1  0
 21 11  1  0
 23 25  2  0
 24 23  1  0
 26 24  1  0
 27 36  2  0
 27 32  1  0
 28 24  1  0
 28 32  1  0
 29 28  1  0
 30 31  1  0
 30 29  1  0
 31 27  1  0
 32 33  2  0
 33 34  1  0
 35 34  2  0
 36 35  1  0
 37 11  1  0
 37 38  1  0
 37 47  1  0
 38 41  1  0
 39 43  1  0
 39 38  1  0
 40 39  2  0
 43 42  1  0
 45 43  1  0
 45 46  1  0
 45 44  1  0
 47 50  1  1
 47 48  1  0
 49 47  1  0
 51 52  2  0
 54 53  1  0
 54 52  1  0
 55 54  1  0
 55 56  1  1
 58 57  1  0
 58 55  1  0
 59 55  1  0
 59 60  1  0
 61 60  1  0
 62 67  1  0
 63 64  1  0
 63 62  1  0
 65 64  1  0
 65 72  1  0
 65 66  1  0
 67 61  1  0
 67 66  1  0
 68 61  2  0
 69 70  2  0
 70 89  1  0
 71 70  1  0
 71 74  1  0
 72 69  1  0
 72 73  1  0
 73 71  2  0
 74 75  1  0
 75 76  2  0
 77 80  1  0
 77 76  1  0
 78 77  2  0
 79 78  1  0
 79 74  2  0
 80 81  1  0
 81 86  2  0
 81 82  1  0
 82 83  2  0
 83 84  1  0
 84 88  1  0
 85 84  2  0
 86 85  1  0
 87 86  1  0
 89 90  1  0
 90 93  1  0
 90 92  1  0
 91 89  2  0
 94 95  1  0
 94 69  1  0
 96 94  1  0
M  ISO  4   9 101  10 101  60 100  61 100
M  END
>  <TORSDO>  (78) 
F 24

>  <SCORE>  (78) 
-9.193

>  <name>  (78) 
77

>  <ligand_id>  (78) 
77

>  <original_smiles>  (78) 
[H]C(=C([H])C([H])(C([H])([H])[H])[N+]([H])(C([H])([H])C([H])([H])[H])C([H])([H])C([H])([H])C(=O)N1C([H])([H])C([H])([H])C([H])([H])C([H])(n2nc(-c3c([H])c([H])c(Oc4c([H])c([H])c(F)c([H])c4F)c([H])c3[H])c(C(=O)N([H])[H])c2N([H])[H])C1([H])[H])C1([H])C([H])([H])C([H])([H])C([H])([H])C1([H])N=C(C([H])([H])[H])C([H])([H])Oc1c([H])c([H])c2c(c1[H])C([H])([H])N(C(=O)C([H])(N([H])C(=O)C([H])(N([H])C([H])([H])[H])C([H])([H])[H])C(C([H])([H])[H])(C([H])([H])[H])C([H])([H])[H])C([H])(C(=O)N([H])C1([H])c3c([H])c([H])c([H])c([H])c3C([H])([H])C([H])([H])C1([H])[H])C2([H])[H]

>  <smiles>  (78) 
[H]C(=C([H])C([H])(C([H])([H])[H])[N+]([H])(C([H])([H])C([H])([H])[H])C([H])([H])C([H])([H])C(=O)N1C([H])([H])C([H])([H])C([H])([H])C([H])(n2nc(-c3c([H])c([H])c(Oc4c([H])c([H])c(F)c([H])c4F)c([H])c3[H])c(C(=O)N([H])[H])c2N([H])[H])C1([H])[H])C1([H])C([H])([H])C([H])([H])C([H])([H])C1([H])N=C(C([H])([H])[H])C([H])([H])Oc1c([H])c([H])c2c(c1[H])C([H])([H])N(C(=O)C([H])(N([H])C(=O)C([H])(N([H])C([H])([H])[H])C([H])([H])[H])C(C([H])([H])[H])(C([H])([H])[H])C([H])([H])[H])C([H])(C(=O)N([H])C1([H])c3c([H])c([H])c([H])c([H])c3C([H])([H])C([H])([H])C1([H])[H])C2([H])[H]

$$$$
78:0:0
     RDKit          3D

 95102  0  0  1  0  0  0  0  0999 V2000
  -30.5930  -21.8600   22.7890 C   0  0  0  0  0  1  0  0  0  0  0  0
  -28.5900  -20.6600   21.7880 C   0  0  0  0  0  1  0  0  0  0  0  0
  -30.0640  -21.0930   21.5570 C   0  0  1  0  0  0  0  0  0  0  0  0
  -30.1170  -22.1120   20.4730 N   0  0  0  0  0  0  0  0  0  0  0  0
  -31.0500  -22.5170   20.4460 H   0  0  0  0  0  0  0  0  0  0  0  0
  -29.1200  -23.2160   20.5300 C   0  0  0  0  0  2  0  0  0  0  0  0
  -29.6190  -24.6670   20.2300 C   0  0  0  0  0  2  0  0  0  0  0  0
  -28.5090  -25.7190   20.5480 C   0  0  0  0  0  2  0  0  0  0  0  0
  -28.7030  -27.0870   20.0880 O   0  0  0  0  0  0  0  0  0  0  0  0
  -24.6420  -31.9860   23.3700 C   0  0  0  0  0  0  0  0  0  0  0  0
  -27.5410  -27.8450   20.0730 C   0  0  0  0  0  0  0  0  0  0  0  0
  -23.5370  -30.6510   21.6090 C   0  0  0  0  0  3  0  0  0  0  0  0
  -25.0890  -29.2830   20.1160 C   0  0  0  0  0  0  0  0  0  0  0  0
  -26.0530  -31.1210   21.5020 C   0  0  0  0  0  2  0  0  0  0  0  0
  -26.2170  -29.8000   20.7710 C   0  0  0  0  0  0  0  0  0  0  0  0
  -27.4470  -29.0910   20.7450 C   0  0  0  0  0  3  0  0  0  0  0  0
  -26.4000  -27.3700   19.3870 C   0  0  0  0  0  3  0  0  0  0  0  0
  -25.1800  -28.0670   19.4180 C   0  0  0  0  0  3  0  0  0  0  0  0
  -23.8090  -30.0870   20.1900 C   0  0  0  0  0  2  0  0  0  0  0  0
  -24.7600  -31.2640   22.2200 N   0  0  0  0  0  0  0  0  0  0  0  0
  -23.5390  -32.1740   23.9030 O   0  0  0  0  0  0  0  0  0  0  0  0
  -22.9120  -29.5360   22.4790 C   0  0  0  0  0  0  0  0  0  0  0  0
  -21.6020  -29.2980   22.2940 N   0  0  0  0  0  0  0  0  0  0  0  0
  -23.6000  -28.8930   23.2760 O   0  0  0  0  0  0  0  0  0  0  0  0
  -21.1030  -29.8750   21.6340 H   0  0  0  0  0  0  0  0  0  0  0  0
  -18.2790  -27.9090   22.5970 C   0  0  0  0  0  0  0  0  0  0  0  0
  -20.8090  -28.2740   22.9750 C   0  0  0  0  0  3  0  0  0  0  0  0
  -21.0050  -26.8890   22.3180 C   0  0  0  0  0  2  0  0  0  0  0  0
  -19.9560  -26.5780   21.2460 C   0  0  0  0  0  2  0  0  0  0  0  0
  -18.5470  -26.6130   21.8480 C   0  0  0  0  0  2  0  0  0  0  0  0
  -19.3430  -28.6960   23.1110 C   0  0  0  0  0  0  0  0  0  0  0  0
  -19.0440  -29.9070   23.7700 C   0  0  0  0  0  3  0  0  0  0  0  0
  -17.7120  -30.3340   23.9230 C   0  0  0  0  0  3  0  0  0  0  0  0
  -16.6600  -29.5450   23.4260 C   0  0  0  0  0  3  0  0  0  0  0  0
  -16.9440  -28.3350   22.7680 C   0  0  0  0  0  3  0  0  0  0  0  0
  -25.8870  -32.6290   24.0590 C   0  0  0  0  0  3  0  0  0  0  0  0
  -26.3390  -31.8620   25.3620 C   0  0  1  0  0  0  0  0  0  0  0  0
  -25.1890  -31.5940   26.3610 C   0  0  0  0  0  1  0  0  0  0  0  0
  -26.9740  -30.4990   24.9990 C   0  0  0  0  0  1  0  0  0  0  0  0
  -27.4230  -32.6790   26.1010 C   0  0  0  0  0  1  0  0  0  0  0  0
  -25.5460  -34.0230   24.3730 N   0  0  0  0  0  0  0  0  0  0  0  0
  -25.9090  -35.0790   23.6310 C   0  0  0  0  0  0  0  0  0  0  0  0
  -26.6390  -34.9820   22.6400 O   0  0  0  0  0  0  0  0  0  0  0  0
  -24.9000  -34.1670   25.1330 H   0  0  0  0  0  0  0  0  0  0  0  0
  -24.1810  -36.8530   23.1840 C   0  0  0  0  0  1  0  0  0  0  0  0
  -25.3830  -36.4620   24.0590 C   0  0  0  0  0  3  0  0  0  0  0  0
  -27.4580  -37.3780   25.0030 C   0  0  0  0  0  1  0  0  0  0  0  0
  -26.4060  -37.5290   24.0000 N   0  0  0  0  0  0  0  0  0  0  0  0
  -25.9780  -38.4430   24.1280 H   0  0  0  0  0  0  0  0  0  0  0  0
  -30.9880  -19.8260   21.2000 C   0  0  0  0  0  3  0  0  0  0  0  0
  -30.1750  -18.6980   20.6430 N   0  0  0  0  0  4  0  0  0  0  0  0
  -29.4780  -18.4370   21.3210 H   0  0  0  0  0  0  0  0  0  0  0  0
  -29.6770  -19.1200   19.8730 H   0  0  0  0  0  0  0  0  0  0  0  0
  -30.5610  -17.3110   18.6210 C   0  0  0  0  0  1  0  0  0  0  0  0
  -30.8840  -17.4740   20.1200 C   0  0  0  0  0  3  0  0  0  0  0  0
  -30.5770  -16.1560   20.9400 C   0  0  0  0  0  2  0  0  0  0  0  0
  -31.3060  -14.8530   20.4650 C   0  0  0  0  0  0  0  0  0  0  0  0
  -31.0690  -12.5930   19.4750 C   0  0  0  0  0  2  0  0  0  0  0  0
  -30.1670  -12.6930   18.2260 C   0  0  0  0  0  2  0  0  0  0  0  0
  -28.6780  -12.5820   18.6100 C   0  0  0  0  0  2  0  0  0  0  0  0
  -28.2980  -13.5090   19.7950 C   0  0  0  0  0  3  0  0  0  0  0  0
  -29.3160  -13.3810   20.9510 C   0  0  0  0  0  2  0  0  0  0  0  0
  -30.6540  -13.6550   20.4090 N   0  0  0  0  0  0  0  0  0  0  0  0
  -32.4580  -14.9670   20.0370 O   0  0  0  0  0  0  0  0  0  0  0  0
  -25.9070  -14.1850   20.4550 C   0  0  0  0  0  0  0  0  0  0  0  0
  -24.8080  -13.4460   20.7990 C   0  0  0  0  0  0  0  0  0  0  0  0
  -25.2270  -12.0800   20.7740 C   0  0  0  0  0  0  0  0  0  0  0  0
  -26.9300  -13.2730   20.2450 N   0  0  0  0  0  0  0  0  0  0  0  0
  -26.5230  -12.0020   20.4940 N   0  0  0  0  0  0  0  0  0  0  0  0
  -24.4580  -10.8410   20.9440 C   0  0  0  0  0  0  0  0  0  0  0  0
  -24.8160   -9.8770   21.9130 C   0  0  0  0  0  3  0  0  0  0  0  0
  -24.0510   -8.7020   22.0700 C   0  0  0  0  0  3  0  0  0  0  0  0
  -22.9140   -8.4820   21.2570 C   0  0  0  0  0  0  0  0  0  0  0  0
  -22.5770   -9.4320   20.2770 C   0  0  0  0  0  3  0  0  0  0  0  0
  -23.3420  -10.5990   20.1190 C   0  0  0  0  0  3  0  0  0  0  0  0
  -22.1270   -7.3570   21.3200 O   0  0  0  0  0  0  0  0  0  0  0  0
  -21.9560   -6.6630   22.4910 C   0  0  0  0  0  0  0  0  0  0  0  0
  -21.4300   -7.2770   23.6500 C   0  0  0  0  0  3  0  0  0  0  0  0
  -21.2060   -6.5110   24.8110 C   0  0  0  0  0  3  0  0  0  0  0  0
  -21.4960   -5.1340   24.8140 C   0  0  0  0  0  0  0  0  0  0  0  0
  -22.0120   -4.5200   23.6610 C   0  0  0  0  0  3  0  0  0  0  0  0
  -22.2380   -5.2830   22.5010 C   0  0  0  0  0  0  0  0  0  0  0  0
  -22.7170   -4.6830   21.3850 F   0  0  0  0  0  0  0  0  0  0  0  0
  -21.2720   -4.3960   25.9280 F   0  0  0  0  0  0  0  0  0  0  0  0
  -23.4190  -13.9650   21.0410 C   0  0  0  0  0  0  0  0  0  0  0  0
  -22.6540  -13.2930   21.8940 N   0  0  0  0  0  0  0  0  0  0  0  0
  -23.0220  -15.0020   20.5100 O   0  0  0  0  0  0  0  0  0  0  0  0
  -22.9880  -12.4540   22.3460 H   0  0  0  0  0  0  0  0  0  0  0  0
  -21.7220  -13.6230   22.0990 H   0  0  0  0  0  0  0  0  0  0  0  0
  -26.1180  -15.5510   20.2820 N   0  0  0  0  0  0  0  0  0  0  0  0
  -25.3650  -16.2260   20.3600 H   0  0  0  0  0  0  0  0  0  0  0  0
  -26.9770  -15.9540   19.9330 H   0  0  0  0  0  0  0  0  0  0  0  0
  -31.3320  -18.8630   23.6490 C   0  0  0  0  0  1  0  0  0  0  0  0
  -33.2540  -20.1010   22.5320 C   0  0  0  0  0  1  0  0  0  0  0  0
  -31.9690  -19.2770   22.3100 C   0  0  0  0  0  3  0  0  0  0  0  0
  3  2  1  1
  3  1  1  0
  4  6  1  0
  4  3  1  0
  5  4  1  0
  7  6  1  0
  7  8  1  0
  9  8  1  0
 10 21  2  0
 11  9  1  0
 11 16  1  0
 12 20  1  0
 12 22  1  0
 13 19  1  0
 13 15  1  0
 14 20  1  0
 15 14  1  0
 16 15  2  0
 17 18  1  0
 17 11  2  0
 18 13  2  0
 19 12  1  0
 20 10  1  0
 22 24  2  0
 23 22  1  0
 25 23  1  0
 26 35  2  0
 26 31  1  0
 27 23  1  0
 27 31  1  0
 28 27  1  0
 29 30  1  0
 29 28  1  0
 30 26  1  0
 31 32  2  0
 32 33  1  0
 34 33  2  0
 35 34  1  0
 36 10  1  0
 36 41  1  0
 36 37  1  0
 37 40  1  1
 37 38  1  0
 39 37  1  0
 41 44  1  0
 42 46  1  0
 42 41  1  0
 43 42  2  0
 46 45  1  0
 48 46  1  0
 48 49  1  0
 48 47  1  0
 50  3  1  0
 50 95  1  0
 51 50  1  0
 51 52  1  0
 53 51  1  0
 55 54  1  0
 55 51  1  0
 55 56  1  0
 57 56  1  0
 58 63  1  0
 59 60  1  0
 59 58  1  0
 61 60  1  0
 61 68  1  0
 61 62  1  0
 63 57  1  0
 63 62  1  0
 64 57  2  0
 65 66  2  0
 66 85  1  0
 67 66  1  0
 67 70  1  0
 68 65  1  0
 68 69  1  0
 69 67  2  0
 70 71  1  0
 71 72  2  0
 73 76  1  0
 73 72  1  0
 74 73  2  0
 75 74  1  0
 75 70  2  0
 76 77  1  0
 77 82  2  0
 77 78  1  0
 78 79  2  0
 79 80  1  0
 80 84  1  0
 81 80  2  0
 82 81  1  0
 83 82  1  0
 85 86  1  0
 86 89  1  0
 86 88  1  0
 87 85  2  0
 90 91  1  0
 90 65  1  0
 92 90  1  0
 95 94  1  0
 95 93  1  0
M  ISO  4   8 101   9 101  56 100  57 100
M  END
>  <TORSDO>  (79) 
F 25

>  <SCORE>  (79) 
-10.773

>  <name>  (79) 
78

>  <ligand_id>  (79) 
78

>  <original_smiles>  (79) 
[H]c1c([H])c([H])c2c(c1[H])C([H])([H])C([H])([H])C([H])([H])C2([H])N([H])C(=O)C1([H])N(C(=O)C([H])(N([H])C(=O)C([H])(N([H])C([H])([H])[H])C([H])([H])[H])C(C([H])([H])[H])(C([H])([H])[H])C([H])([H])[H])C([H])([H])c2c([H])c(OC([H])([H])C([H])([H])C([H])([H])N([H])C(C([H])([H])[H])(C([H])([H])[H])C([H])(C([H])(C([H])([H])[H])C([H])([H])[H])[N+]([H])([H])C([H])(C([H])([H])[H])C([H])([H])C(=O)N3C([H])([H])C([H])([H])C([H])([H])C([H])(n4nc(-c5c([H])c([H])c(Oc6c([H])c([H])c(F)c([H])c6F)c([H])c5[H])c(C(=O)N([H])[H])c4N([H])[H])C3([H])[H])c([H])c([H])c2C1([H])[H]

>  <smiles>  (79) 
[H]c1c([H])c([H])c2c(c1[H])C([H])([H])C([H])([H])C([H])([H])C2([H])N([H])C(=O)C1([H])N(C(=O)C([H])(N([H])C(=O)C([H])(N([H])C([H])([H])[H])C([H])([H])[H])C(C([H])([H])[H])(C([H])([H])[H])C([H])([H])[H])C([H])([H])c2c([H])c(OC([H])([H])C([H])([H])C([H])([H])N([H])C(C([H])([H])[H])(C([H])([H])[H])C([H])(C([H])(C([H])([H])[H])C([H])([H])[H])[N+]([H])([H])C([H])(C([H])([H])[H])C([H])([H])C(=O)N3C([H])([H])C([H])([H])C([H])([H])C([H])(n4nc(-c5c([H])c([H])c(Oc6c([H])c([H])c(F)c([H])c6F)c([H])c5[H])c(C(=O)N([H])[H])c4N([H])[H])C3([H])[H])c([H])c([H])c2C1([H])[H]

$$$$
79:0:0
     RDKit          3D

 89 97  0  0  1  0  0  0  0  0999 V2000
  -30.1280  -17.8720   21.1360 C   0  0  0  0  0  0  0  0  0  0  0  0
  -29.7360  -16.6470   20.5140 C   0  0  0  0  0  0  0  0  0  0  0  0
  -29.3190  -18.9990   20.5910 C   0  0  0  0  0  0  0  0  0  0  0  0
  -31.2110  -18.0470   22.1660 C   0  0  0  0  0  1  0  0  0  0  0  0
  -28.1290  -16.4260   18.5050 C   0  0  0  0  0  1  0  0  0  0  0  0
  -28.4940  -18.4720   19.7000 N   0  0  0  0  0  0  0  0  0  0  0  0
  -28.7740  -17.1180   19.6040 N   0  0  0  0  0  0  0  0  0  0  0  0
  -29.3880  -20.4610   20.8770 N   0  0  0  0  0  0  0  0  0  0  0  0
  -30.0820  -20.6970   21.5810 H   0  0  0  0  0  0  0  0  0  0  0  0
  -30.4540  -15.1700   20.4950 C   0  0  0  0  0  0  0  0  0  0  0  0
  -30.3580  -12.8050   19.5600 C   0  0  0  0  0  2  0  0  0  0  0  0
  -29.4450  -12.7020   18.3170 C   0  0  0  0  0  2  0  0  0  0  0  0
  -27.9760  -12.4910   18.7310 C   0  0  0  0  0  2  0  0  0  0  0  0
  -27.5360  -13.4050   19.9050 C   0  0  0  0  0  3  0  0  0  0  0  0
  -28.5820  -13.4750   21.0320 C   0  0  0  0  0  2  0  0  0  0  0  0
  -29.8480  -13.9080   20.4300 N   0  0  0  0  0  0  0  0  0  0  0  0
  -31.6800  -15.1590   20.3290 O   0  0  0  0  0  0  0  0  0  0  0  0
  -25.1530  -13.9440   20.6500 C   0  0  0  0  0  0  0  0  0  0  0  0
  -24.0960  -13.1510   20.9970 C   0  0  0  0  0  0  0  0  0  0  0  0
  -24.5790  -11.8060   20.9510 C   0  0  0  0  0  0  0  0  0  0  0  0
  -26.2070  -13.0810   20.4000 N   0  0  0  0  0  0  0  0  0  0  0  0
  -25.8720  -11.7900   20.6510 N   0  0  0  0  0  0  0  0  0  0  0  0
  -23.8690  -10.5320   21.1170 C   0  0  0  0  0  0  0  0  0  0  0  0
  -24.2890   -9.5670   22.0580 C   0  0  0  0  0  3  0  0  0  0  0  0
  -23.5760   -8.3570   22.2110 C   0  0  0  0  0  3  0  0  0  0  0  0
  -22.4310   -8.1050   21.4200 C   0  0  0  0  0  0  0  0  0  0  0  0
  -22.0310   -9.0580   20.4670 C   0  0  0  0  0  3  0  0  0  0  0  0
  -22.7450  -10.2580   20.3130 C   0  0  0  0  0  3  0  0  0  0  0  0
  -21.6930   -6.9470   21.4830 O   0  0  0  0  0  0  0  0  0  0  0  0
  -21.6010   -6.2130   22.6380 C   0  0  0  0  0  0  0  0  0  0  0  0
  -21.0640   -6.7570   23.8240 C   0  0  0  0  0  3  0  0  0  0  0  0
  -20.9210   -5.9470   24.9690 C   0  0  0  0  0  3  0  0  0  0  0  0
  -21.3090   -4.5940   24.9270 C   0  0  0  0  0  0  0  0  0  0  0  0
  -21.8390   -4.0490   23.7440 C   0  0  0  0  0  3  0  0  0  0  0  0
  -21.9820   -4.8570   22.6030 C   0  0  0  0  0  0  0  0  0  0  0  0
  -22.4750   -4.3210   21.4600 F   0  0  0  0  0  0  0  0  0  0  0  0
  -21.1650   -3.8120   26.0230 F   0  0  0  0  0  0  0  0  0  0  0  0
  -22.6910  -13.6030   21.2650 C   0  0  0  0  0  0  0  0  0  0  0  0
  -21.9680  -12.8800   22.1120 N   0  0  0  0  0  0  0  0  0  0  0  0
  -22.2440  -14.6330   20.7590 O   0  0  0  0  0  0  0  0  0  0  0  0
  -22.3470  -12.0440   22.5330 H   0  0  0  0  0  0  0  0  0  0  0  0
  -21.0260  -13.1620   22.3430 H   0  0  0  0  0  0  0  0  0  0  0  0
  -25.3080  -15.3200   20.4970 N   0  0  0  0  0  0  0  0  0  0  0  0
  -24.5450  -15.9760   20.6270 H   0  0  0  0  0  0  0  0  0  0  0  0
  -26.1700  -15.7730   20.2260 H   0  0  0  0  0  0  0  0  0  0  0  0
  -28.5080  -21.6830   20.4110 C   0  0  0  0  0  3  0  0  0  0  0  0
  -28.8420  -23.3350   20.7240 C   0  0  0  0  0  3  0  0  0  0  0  0
  -27.8930  -24.6910   20.2890 C   0  0  0  0  0  2  0  0  0  0  0  0
  -28.1500  -26.2310   20.5070 O   0  0  0  0  0  0  0  0  0  0  0  0
  -24.5540  -32.0620   23.2890 C   0  0  0  0  0  0  0  0  0  0  0  0
  -27.1150  -27.2420   20.3870 C   0  0  0  0  0  0  0  0  0  0  0  0
  -23.3560  -30.6440   21.6670 C   0  0  0  0  0  3  0  0  0  0  0  0
  -24.8060  -29.0260   20.2850 C   0  0  0  0  0  0  0  0  0  0  0  0
  -25.9160  -30.8770   21.5250 C   0  0  0  0  0  2  0  0  0  0  0  0
  -25.9830  -29.4690   20.9010 C   0  0  0  0  0  0  0  0  0  0  0  0
  -27.1370  -28.5940   20.9330 C   0  0  0  0  0  3  0  0  0  0  0  0
  -25.9170  -26.9120   19.7170 C   0  0  0  0  0  3  0  0  0  0  0  0
  -24.7890  -27.7630   19.6730 C   0  0  0  0  0  3  0  0  0  0  0  0
  -23.5840  -29.9350   20.3050 C   0  0  0  0  0  2  0  0  0  0  0  0
  -24.6280  -31.2190   22.2140 N   0  0  0  0  0  0  0  0  0  0  0  0
  -23.4650  -32.3670   23.8010 O   0  0  0  0  0  0  0  0  0  0  0  0
  -22.6600  -29.6660   22.6450 C   0  0  0  0  0  0  0  0  0  0  0  0
  -21.3410  -29.4680   22.4800 N   0  0  0  0  0  0  0  0  0  0  0  0
  -23.3130  -29.0860   23.5180 O   0  0  0  0  0  0  0  0  0  0  0  0
  -20.8690  -29.9890   21.7530 H   0  0  0  0  0  0  0  0  0  0  0  0
  -17.9720  -28.2070   22.8960 C   0  0  0  0  0  0  0  0  0  0  0  0
  -20.5090  -28.5480   23.2610 C   0  0  0  0  0  3  0  0  0  0  0  0
  -20.6670  -27.0920   22.7630 C   0  0  0  0  0  2  0  0  0  0  0  0
  -19.6260  -26.7000   21.7130 C   0  0  0  0  0  2  0  0  0  0  0  0
  -18.2130  -26.8340   22.2880 C   0  0  0  0  0  2  0  0  0  0  0  0
  -19.0510  -29.0180   23.3370 C   0  0  0  0  0  0  0  0  0  0  0  0
  -18.7750  -30.2990   23.8630 C   0  0  0  0  0  3  0  0  0  0  0  0
  -17.4510  -30.7680   23.9580 C   0  0  0  0  0  3  0  0  0  0  0  0
  -16.3860  -29.9550   23.5320 C   0  0  0  0  0  3  0  0  0  0  0  0
  -16.6470  -28.6780   23.0050 C   0  0  0  0  0  3  0  0  0  0  0  0
  -25.8310  -32.7010   23.9140 C   0  0  0  0  0  3  0  0  0  0  0  0
  -26.3200  -31.9600   25.2210 C   0  0  1  0  0  0  0  0  0  0  0  0
  -25.2030  -31.7470   26.2710 C   0  0  0  0  0  1  0  0  0  0  0  0
  -26.9080  -30.5720   24.8790 C   0  0  0  0  0  1  0  0  0  0  0  0
  -27.4580  -32.7690   25.8870 C   0  0  0  0  0  1  0  0  0  0  0  0
  -25.5270  -34.1110   24.2090 N   0  0  0  0  0  0  0  0  0  0  0  0
  -25.8690  -35.1460   23.4310 C   0  0  0  0  0  0  0  0  0  0  0  0
  -26.5390  -35.0170   22.4040 O   0  0  0  0  0  0  0  0  0  0  0  0
  -24.9290  -34.2850   25.0020 H   0  0  0  0  0  0  0  0  0  0  0  0
  -24.1580  -36.9510   23.0420 C   0  0  0  0  0  1  0  0  0  0  0  0
  -25.3950  -36.5500   23.8610 C   0  0  0  0  0  3  0  0  0  0  0  0
  -27.5300  -37.4440   24.6840 C   0  0  0  0  0  1  0  0  0  0  0  0
  -26.4380  -37.5920   23.7250 N   0  0  0  0  0  0  0  0  0  0  0  0
  -26.0370  -38.5190   23.8400 H   0  0  0  0  0  0  0  0  0  0  0  0
  1  4  1  0
  2  1  2  0
  3  8  1  0
  3  1  1  0
  5  7  1  0
  6  3  2  0
  7  6  1  0
  7  2  1  0
  8  9  1  0
 10  2  1  0
 11 16  1  0
 12 13  1  0
 12 11  1  0
 14 13  1  0
 14 21  1  0
 14 15  1  0
 16 10  1  0
 16 15  1  0
 17 10  2  0
 18 19  2  0
 19 38  1  0
 20 19  1  0
 20 23  1  0
 21 18  1  0
 21 22  1  0
 22 20  2  0
 23 24  1  0
 24 25  2  0
 26 29  1  0
 26 25  1  0
 27 26  2  0
 28 27  1  0
 28 23  2  0
 29 30  1  0
 30 31  1  0
 31 32  2  0
 33 32  1  0
 33 37  1  0
 34 33  2  0
 35 30  2  0
 35 34  1  0
 36 35  1  0
 38 39  1  0
 39 42  1  0
 39 41  1  0
 40 38  2  0
 43 44  1  0
 43 18  1  0
 45 43  1  0
 46 47  2  0
 46  8  1  0
 48 49  1  0
 48 47  1  0
 50 61  2  0
 51 49  1  0
 51 56  1  0
 52 60  1  0
 52 62  1  0
 53 59  1  0
 53 55  1  0
 54 60  1  0
 55 56  2  0
 55 54  1  0
 57 51  2  0
 58 57  1  0
 58 53  2  0
 59 52  1  0
 60 50  1  0
 62 64  2  0
 63 62  1  0
 65 63  1  0
 66 75  2  0
 66 71  1  0
 67 63  1  0
 67 71  1  0
 68 67  1  0
 69 70  1  0
 69 68  1  0
 70 66  1  0
 71 72  2  0
 72 73  1  0
 74 73  2  0
 75 74  1  0
 76 50  1  0
 76 81  1  0
 76 77  1  0
 77 80  1  1
 77 78  1  0
 79 77  1  0
 81 84  1  0
 82 86  1  0
 82 81  1  0
 83 82  2  0
 86 85  1  0
 88 89  1  0
 88 86  1  0
 88 87  1  0
M  ISO  4   2 100  10 100  48 101  49 101
M  END
>  <TORSDO>  (80) 
F 19

>  <SCORE>  (80) 
-14.934

>  <name>  (80) 
79

>  <ligand_id>  (80) 
79

>  <original_smiles>  (80) 
[H]c1c([H])c([H])c2c(c1[H])C([H])([H])C([H])([H])C([H])([H])C2([H])N([H])C(=O)C1([H])N(C(=O)C([H])(N([H])C(=O)C([H])(N([H])C([H])([H])[H])C([H])([H])[H])C(C([H])([H])[H])(C([H])([H])[H])C([H])([H])[H])C([H])([H])c2c([H])c(OC([H])([H])C([H])([H])C([H])([H])N([H])c3nn(C([H])([H])[H])c(C(=O)N4C([H])([H])C([H])([H])C([H])([H])C([H])(n5nc(-c6c([H])c([H])c(Oc7c([H])c([H])c(F)c([H])c7F)c([H])c6[H])c(C(=O)N([H])[H])c5N([H])[H])C4([H])[H])c3C([H])([H])[H])c([H])c([H])c2C1([H])[H]

>  <smiles>  (80) 
[H]c1c([H])c([H])c2c(c1[H])C([H])([H])C([H])([H])C([H])([H])C2([H])N([H])C(=O)C1([H])N(C(=O)C([H])(N([H])C(=O)C([H])(N([H])C([H])([H])[H])C([H])([H])[H])C(C([H])([H])[H])(C([H])([H])[H])C([H])([H])[H])C([H])([H])c2c([H])c(OC([H])([H])C([H])([H])C([H])([H])N([H])c3nn(C([H])([H])[H])c(C(=O)N4C([H])([H])C([H])([H])C([H])([H])C([H])(n5nc(-c6c([H])c([H])c(Oc7c([H])c([H])c(F)c([H])c7F)c([H])c6[H])c(C(=O)N([H])[H])c5N([H])[H])C4([H])[H])c3C([H])([H])[H])c([H])c([H])c2C1([H])[H]

$$$$
80:0:0
     RDKit          3D

 88 95  0  0  1  0  0  0  0  0999 V2000
  -28.4880  -22.2100   20.1340 C   0  0  0  0  0  2  0  0  0  0  0  0
  -29.2150  -19.6780   20.3210 C   0  0  0  0  0  0  0  0  0  0  0  0
  -29.3630  -21.0370   20.5610 N   0  0  0  0  0  0  0  0  0  0  0  0
  -28.2980  -19.2530   19.6170 O   0  0  0  0  0  0  0  0  0  0  0  0
  -30.1530  -21.2850   21.1440 H   0  0  0  0  0  0  0  0  0  0  0  0
  -30.2190  -18.8110   21.0080 C   0  0  0  0  0  3  0  0  0  0  0  0
  -30.4380  -17.4360   21.1270 C   0  0  0  0  0  0  0  0  0  0  0  0
  -31.5900  -17.0410   22.0470 C   0  0  0  0  0  1  0  0  0  0  0  0
  -29.7220  -16.1420   20.5400 C   0  0  0  0  0  2  0  0  0  0  0  0
  -30.4980  -14.7600   20.2260 C   0  0  0  0  0  0  0  0  0  0  0  0
  -30.2750  -12.4780   19.2280 C   0  0  0  0  0  2  0  0  0  0  0  0
  -29.3060  -12.5750   18.0290 C   0  0  0  0  0  2  0  0  0  0  0  0
  -27.8460  -12.4030   18.4900 C   0  0  0  0  0  2  0  0  0  0  0  0
  -27.5080  -13.2780   19.7280 C   0  0  0  0  0  3  0  0  0  0  0  0
  -28.5980  -13.1760   20.8170 C   0  0  0  0  0  2  0  0  0  0  0  0
  -29.8840  -13.5260   20.2020 N   0  0  0  0  0  0  0  0  0  0  0  0
  -31.6590  -14.8420   19.8160 O   0  0  0  0  0  0  0  0  0  0  0  0
  -25.1450  -13.8570   20.5400 C   0  0  0  0  0  0  0  0  0  0  0  0
  -24.0900  -13.0780   20.9330 C   0  0  0  0  0  0  0  0  0  0  0  0
  -24.5500  -11.7270   20.8670 C   0  0  0  0  0  0  0  0  0  0  0  0
  -26.1790  -12.9820   20.2560 N   0  0  0  0  0  0  0  0  0  0  0  0
  -25.8310  -11.6940   20.5140 N   0  0  0  0  0  0  0  0  0  0  0  0
  -23.8290  -10.4630   21.0620 C   0  0  0  0  0  0  0  0  0  0  0  0
  -24.2830   -9.4860   21.9750 C   0  0  0  0  0  3  0  0  0  0  0  0
  -23.5610   -8.2880   22.1600 C   0  0  0  0  0  3  0  0  0  0  0  0
  -22.3700   -8.0570   21.4320 C   0  0  0  0  0  0  0  0  0  0  0  0
  -21.9340   -9.0220   20.5060 C   0  0  0  0  0  3  0  0  0  0  0  0
  -22.6570  -10.2120   20.3190 C   0  0  0  0  0  3  0  0  0  0  0  0
  -21.6180   -6.9110   21.5260 O   0  0  0  0  0  0  0  0  0  0  0  0
  -21.5930   -6.1570   22.6720 C   0  0  0  0  0  0  0  0  0  0  0  0
  -21.1840   -6.6970   23.9110 C   0  0  0  0  0  3  0  0  0  0  0  0
  -21.1080   -5.8690   25.0490 C   0  0  0  0  0  3  0  0  0  0  0  0
  -21.4320   -4.5030   24.9500 C   0  0  0  0  0  0  0  0  0  0  0  0
  -21.8340   -3.9630   23.7160 C   0  0  0  0  0  3  0  0  0  0  0  0
  -21.9110   -4.7870   22.5800 C   0  0  0  0  0  0  0  0  0  0  0  0
  -22.2800   -4.2570   21.3890 F   0  0  0  0  0  0  0  0  0  0  0  0
  -21.3520   -3.7060   26.0410 F   0  0  0  0  0  0  0  0  0  0  0  0
  -22.7030  -13.5520   21.2570 C   0  0  0  0  0  0  0  0  0  0  0  0
  -22.0030  -12.8430   22.1360 N   0  0  0  0  0  0  0  0  0  0  0  0
  -22.2490  -14.5850   20.7660 O   0  0  0  0  0  0  0  0  0  0  0  0
  -22.3840  -12.0070   22.5550 H   0  0  0  0  0  0  0  0  0  0  0  0
  -21.0730  -13.1410   22.3930 H   0  0  0  0  0  0  0  0  0  0  0  0
  -25.3050  -15.2310   20.3790 N   0  0  0  0  0  0  0  0  0  0  0  0
  -24.5460  -15.8850   20.5280 H   0  0  0  0  0  0  0  0  0  0  0  0
  -26.1520  -15.6760   20.0460 H   0  0  0  0  0  0  0  0  0  0  0  0
  -28.9360  -23.7360   20.4630 C   0  0  0  0  0  3  0  0  0  0  0  0
  -27.9550  -24.9420   20.0200 C   0  0  0  0  0  3  0  0  0  0  0  0
  -28.2240  -26.3990   20.2860 O   0  0  0  0  0  0  0  0  0  0  0  0
  -24.5870  -31.9220   23.2810 C   0  0  0  0  0  0  0  0  0  0  0  0
  -27.1410  -27.3090   20.2120 C   0  0  0  0  0  0  0  0  0  0  0  0
  -23.3690  -30.5370   21.6440 C   0  0  0  0  0  3  0  0  0  0  0  0
  -24.8010  -28.9790   20.2070 C   0  0  0  0  0  0  0  0  0  0  0  0
  -25.9150  -30.8230   21.4590 C   0  0  0  0  0  2  0  0  0  0  0  0
  -25.9800  -29.4440   20.8040 C   0  0  0  0  0  0  0  0  0  0  0  0
  -27.1530  -28.6220   20.7960 C   0  0  0  0  0  3  0  0  0  0  0  0
  -25.9390  -26.9200   19.5750 C   0  0  0  0  0  3  0  0  0  0  0  0
  -24.7860  -27.7250   19.5820 C   0  0  0  0  0  3  0  0  0  0  0  0
  -23.5750  -29.8670   20.2610 C   0  0  0  0  0  2  0  0  0  0  0  0
  -24.6440  -31.1120   22.1830 N   0  0  0  0  0  0  0  0  0  0  0  0
  -23.5070  -32.2090   23.8180 O   0  0  0  0  0  0  0  0  0  0  0  0
  -22.6980  -29.5240   22.6030 C   0  0  0  0  0  0  0  0  0  0  0  0
  -21.3720  -29.3510   22.4750 N   0  0  0  0  0  0  0  0  0  0  0  0
  -23.3730  -28.8960   23.4240 O   0  0  0  0  0  0  0  0  0  0  0  0
  -20.8850  -29.9090   21.7870 H   0  0  0  0  0  0  0  0  0  0  0  0
  -17.9890  -28.1660   22.9750 C   0  0  0  0  0  0  0  0  0  0  0  0
  -20.5480  -28.4170   23.2470 C   0  0  0  0  0  3  0  0  0  0  0  0
  -20.6460  -26.9840   22.6750 C   0  0  0  0  0  2  0  0  0  0  0  0
  -19.5440  -26.6620   21.6610 C   0  0  0  0  0  2  0  0  0  0  0  0
  -18.1610  -26.8140   22.3030 C   0  0  0  0  0  2  0  0  0  0  0  0
  -19.1100  -28.9250   23.4050 C   0  0  0  0  0  0  0  0  0  0  0  0
  -18.8950  -30.1900   23.9940 C   0  0  0  0  0  3  0  0  0  0  0  0
  -17.5920  -30.6960   24.1580 C   0  0  0  0  0  3  0  0  0  0  0  0
  -16.4850  -29.9340   23.7440 C   0  0  0  0  0  3  0  0  0  0  0  0
  -16.6840  -28.6700   23.1600 C   0  0  0  0  0  3  0  0  0  0  0  0
  -25.8760  -32.5460   23.9000 C   0  0  0  0  0  3  0  0  0  0  0  0
  -25.5770  -33.9470   24.2300 N   0  0  0  0  0  0  0  0  0  0  0  0
  -25.8900  -34.9960   23.4580 C   0  0  0  0  0  0  0  0  0  0  0  0
  -26.5290  -34.8860   22.4080 O   0  0  0  0  0  0  0  0  0  0  0  0
  -25.0060  -34.1080   25.0480 H   0  0  0  0  0  0  0  0  0  0  0  0
  -24.1440  -36.7840   23.1630 C   0  0  0  0  0  1  0  0  0  0  0  0
  -25.4190  -36.3880   23.9240 C   0  0  0  0  0  3  0  0  0  0  0  0
  -27.5830  -37.2880   24.6580 C   0  0  0  0  0  1  0  0  0  0  0  0
  -26.4430  -37.4420   23.7570 N   0  0  0  0  0  0  0  0  0  0  0  0
  -26.0400  -38.3630   23.9110 H   0  0  0  0  0  0  0  0  0  0  0  0
  -26.3880  -31.7730   25.1780 C   0  0  1  0  0  0  0  0  0  0  0  0
  -25.2940  -31.5450   26.2470 C   0  0  0  0  0  1  0  0  0  0  0  0
  -26.9610  -30.3900   24.7900 C   0  0  0  0  0  1  0  0  0  0  0  0
  -27.5440  -32.5600   25.8370 C   0  0  0  0  0  1  0  0  0  0  0  0
  1 46  1  0
  1  3  1  0
  2  3  1  0
  2  6  1  0
  3  5  1  0
  4  2  2  0
  6  7  2  0
  7  8  1  0
  9  7  1  0
 10  9  1  0
 11 16  1  0
 12 13  1  0
 12 11  1  0
 14 13  1  0
 14 21  1  0
 14 15  1  0
 16 10  1  0
 16 15  1  0
 17 10  2  0
 18 19  2  0
 19 38  1  0
 20 19  1  0
 20 23  1  0
 21 22  1  0
 21 18  1  0
 22 20  2  0
 23 24  1  0
 24 25  2  0
 26 29  1  0
 26 25  1  0
 27 26  2  0
 28 27  1  0
 28 23  2  0
 29 30  1  0
 30 31  1  0
 31 32  2  0
 33 32  1  0
 33 37  1  0
 34 33  2  0
 35 30  2  0
 35 34  1  0
 36 35  1  0
 38 39  1  0
 39 42  1  0
 39 41  1  0
 40 38  2  0
 43 44  1  0
 43 18  1  0
 45 43  1  0
 47 48  1  0
 47 46  2  0
 49 60  2  0
 50 48  1  0
 50 55  1  0
 51 59  1  0
 51 61  1  0
 52 58  1  0
 52 54  1  0
 53 59  1  0
 54 53  1  0
 55 54  2  0
 56 57  1  0
 56 50  2  0
 57 52  2  0
 58 51  1  0
 59 49  1  0
 61 63  2  0
 62 61  1  0
 64 62  1  0
 65 74  2  0
 65 70  1  0
 66 62  1  0
 66 70  1  0
 67 66  1  0
 68 69  1  0
 68 67  1  0
 69 65  1  0
 70 71  2  0
 71 72  1  0
 73 72  2  0
 74 73  1  0
 75 49  1  0
 75 76  1  0
 75 85  1  0
 76 79  1  0
 77 81  1  0
 77 76  1  0
 78 77  2  0
 81 80  1  0
 83 84  1  0
 83 81  1  0
 83 82  1  0
 85 88  1  1
 85 86  1  0
 87 85  1  0
M  ISO  4   9 100  10 100  47 101  48 101
M  END
>  <TORSDO>  (81) 
F 21

>  <SCORE>  (81) 
-12.947

>  <name>  (81) 
80

>  <ligand_id>  (81) 
80

>  <original_smiles>  (81) 
[H]C(C(=O)N([H])C([H])([H])C([H])([H])C([H])([H])Oc1c([H])c([H])c2c(c1[H])C([H])([H])N(C(=O)C([H])(N([H])C(=O)C([H])(N([H])C([H])([H])[H])C([H])([H])[H])C(C([H])([H])[H])(C([H])([H])[H])C([H])([H])[H])C([H])(C(=O)N([H])C1([H])c3c([H])c([H])c([H])c([H])c3C([H])([H])C([H])([H])C1([H])[H])C2([H])[H])=C(C([H])([H])[H])C([H])([H])C(=O)N1C([H])([H])C([H])([H])C([H])([H])C([H])(n2nc(-c3c([H])c([H])c(Oc4c([H])c([H])c(F)c([H])c4F)c([H])c3[H])c(C(=O)N([H])[H])c2N([H])[H])C1([H])[H]

>  <smiles>  (81) 
[H]C(C(=O)N([H])C([H])([H])C([H])([H])C([H])([H])Oc1c([H])c([H])c2c(c1[H])C([H])([H])N(C(=O)C([H])(N([H])C(=O)C([H])(N([H])C([H])([H])[H])C([H])([H])[H])C(C([H])([H])[H])(C([H])([H])[H])C([H])([H])[H])C([H])(C(=O)N([H])C1([H])c3c([H])c([H])c([H])c([H])c3C([H])([H])C([H])([H])C1([H])[H])C2([H])[H])=C(C([H])([H])[H])C([H])([H])C(=O)N1C([H])([H])C([H])([H])C([H])([H])C([H])(n2nc(-c3c([H])c([H])c(Oc4c([H])c([H])c(F)c([H])c4F)c([H])c3[H])c(C(=O)N([H])[H])c2N([H])[H])C1([H])[H]

$$$$
81:0:0
     RDKit          3D

 82 87  0  0  1  0  0  0  0  0999 V2000
  -28.1640  -25.2660   20.3530 O   0  0  0  0  0  0  0  0  0  0  0  0
  -24.6780  -31.8030   23.1540 C   0  0  0  0  0  0  0  0  0  0  0  0
  -27.2150  -26.5560   20.2260 C   0  0  0  0  0  0  0  0  0  0  0  0
  -23.5020  -30.3810   21.5320 C   0  0  0  0  0  3  0  0  0  0  0  0
  -24.9560  -28.6920   20.1400 C   0  0  0  0  0  0  0  0  0  0  0  0
  -26.0860  -30.4810   21.4320 C   0  0  0  0  0  2  0  0  0  0  0  0
  -26.1510  -29.0240   20.7870 C   0  0  0  0  0  0  0  0  0  0  0  0
  -27.2510  -27.9870   20.7980 C   0  0  0  0  0  3  0  0  0  0  0  0
  -25.9880  -26.4840   19.5050 C   0  0  0  0  0  3  0  0  0  0  0  0
  -24.9240  -27.4520   19.4740 C   0  0  0  0  0  3  0  0  0  0  0  0
  -23.7520  -29.6590   20.1730 C   0  0  0  0  0  2  0  0  0  0  0  0
  -24.7810  -30.9270   22.0910 N   0  0  0  0  0  0  0  0  0  0  0  0
  -23.5820  -32.1110   23.6530 O   0  0  0  0  0  0  0  0  0  0  0  0
  -22.7720  -29.4270   22.5180 C   0  0  0  0  0  0  0  0  0  0  0  0
  -21.4360  -29.2870   22.4040 N   0  0  0  0  0  0  0  0  0  0  0  0
  -23.4240  -28.8080   23.3620 O   0  0  0  0  0  0  0  0  0  0  0  0
  -20.9570  -29.8360   21.7040 H   0  0  0  0  0  0  0  0  0  0  0  0
  -18.0450  -28.0830   22.9470 C   0  0  0  0  0  0  0  0  0  0  0  0
  -20.6080  -28.3590   23.1890 C   0  0  0  0  0  3  0  0  0  0  0  0
  -20.7050  -26.9210   22.6290 C   0  0  0  0  0  2  0  0  0  0  0  0
  -19.5990  -26.5900   21.6210 C   0  0  0  0  0  2  0  0  0  0  0  0
  -18.2210  -26.7340   22.2720 C   0  0  0  0  0  2  0  0  0  0  0  0
  -19.1650  -28.8550   23.3620 C   0  0  0  0  0  0  0  0  0  0  0  0
  -18.9420  -30.1130   23.9600 C   0  0  0  0  0  3  0  0  0  0  0  0
  -17.6350  -30.6040   24.1420 C   0  0  0  0  0  3  0  0  0  0  0  0
  -16.5320  -29.8330   23.7380 C   0  0  0  0  0  3  0  0  0  0  0  0
  -16.7380  -28.5740   23.1460 C   0  0  0  0  0  3  0  0  0  0  0  0
  -25.9320  -32.4710   23.7960 C   0  0  0  0  0  3  0  0  0  0  0  0
  -25.5910  -33.8690   24.1410 N   0  0  0  0  0  0  0  0  0  0  0  0
  -25.9040  -34.9480   23.4080 C   0  0  0  0  0  0  0  0  0  0  0  0
  -26.5610  -34.8730   22.3680 O   0  0  0  0  0  0  0  0  0  0  0  0
  -25.0010  -33.9990   24.9490 H   0  0  0  0  0  0  0  0  0  0  0  0
  -24.1430  -36.7350   23.1420 C   0  0  0  0  0  1  0  0  0  0  0  0
  -25.4140  -36.3270   23.9050 C   0  0  0  0  0  3  0  0  0  0  0  0
  -27.5620  -37.2360   24.6790 C   0  0  0  0  0  1  0  0  0  0  0  0
  -26.4280  -37.3980   23.7740 N   0  0  0  0  0  0  0  0  0  0  0  0
  -26.0130  -38.3100   23.9450 H   0  0  0  0  0  0  0  0  0  0  0  0
  -26.4390  -31.7190   25.0890 C   0  0  1  0  0  0  0  0  0  0  0  0
  -25.3380  -31.4920   26.1520 C   0  0  0  0  0  1  0  0  0  0  0  0
  -27.0320  -30.3380   24.7360 C   0  0  0  0  0  1  0  0  0  0  0  0
  -27.5810  -32.5260   25.7510 C   0  0  0  0  0  1  0  0  0  0  0  0
  -28.2720  -23.4530   19.9520 C   0  0  0  0  0  1  0  0  0  0  0  0
  -28.6900  -21.5350   20.5790 C   0  0  0  0  0 15  0  0  0  0  0  0
  -28.6510  -18.5190   19.4200 C   0  0  0  0  0  2  0  0  0  0  0  0
  -29.3710  -17.7050   20.5150 C   0  0  0  0  0  2  0  0  0  0  0  0
  -29.3780  -19.6800   20.1130 C   0  0  0  0  0  1  0  0  0  0  0  0
  -30.1600  -15.9300   20.1950 C   0  0  0  0  0  0  0  0  0  0  0  0
  -30.3450  -13.3000   19.4470 C   0  0  0  0  0  2  0  0  0  0  0  0
  -29.4940  -12.8010   18.2340 C   0  0  0  0  0  2  0  0  0  0  0  0
  -28.0820  -12.3970   18.6720 C   0  0  0  0  0  2  0  0  0  0  0  0
  -27.5280  -13.4120   19.6940 C   0  0  0  0  0  3  0  0  0  0  0  0
  -28.5260  -13.8200   20.8090 C   0  0  0  0  0  2  0  0  0  0  0  0
  -29.6900  -14.5050   20.1790 N   0  0  0  0  0  0  0  0  0  0  0  0
  -31.3800  -15.8100   19.9380 O   0  0  0  0  0  0  0  0  0  0  0  0
  -25.1560  -13.9140   20.4250 C   0  0  0  0  0  0  0  0  0  0  0  0
  -24.1010  -13.1300   20.7890 C   0  0  0  0  0  0  0  0  0  0  0  0
  -24.5850  -11.7840   20.7860 C   0  0  0  0  0  0  0  0  0  0  0  0
  -26.2120  -13.0520   20.2060 N   0  0  0  0  0  0  0  0  0  0  0  0
  -25.8840  -11.7630   20.4890 N   0  0  0  0  0  0  0  0  0  0  0  0
  -23.8640  -10.5180   20.9880 C   0  0  0  0  0  0  0  0  0  0  0  0
  -24.2880   -9.5660   21.9400 C   0  0  0  0  0  3  0  0  0  0  0  0
  -23.5610   -8.3710   22.1320 C   0  0  0  0  0  3  0  0  0  0  0  0
  -22.3940   -8.1190   21.3720 C   0  0  0  0  0  0  0  0  0  0  0  0
  -21.9880   -9.0590   20.4080 C   0  0  0  0  0  3  0  0  0  0  0  0
  -22.7160  -10.2460   20.2150 C   0  0  0  0  0  3  0  0  0  0  0  0
  -21.6400   -6.9740   21.4700 O   0  0  0  0  0  0  0  0  0  0  0  0
  -21.5870   -6.2450   22.6320 C   0  0  0  0  0  0  0  0  0  0  0  0
  -21.1650   -6.8170   23.8510 C   0  0  0  0  0  3  0  0  0  0  0  0
  -21.0590   -6.0150   25.0050 C   0  0  0  0  0  3  0  0  0  0  0  0
  -21.3620   -4.6420   24.9400 C   0  0  0  0  0  0  0  0  0  0  0  0
  -21.7760   -4.0690   23.7250 C   0  0  0  0  0  3  0  0  0  0  0  0
  -21.8850   -4.8680   22.5730 C   0  0  0  0  0  0  0  0  0  0  0  0
  -22.2620   -4.3070   21.4000 F   0  0  0  0  0  0  0  0  0  0  0  0
  -21.2530   -3.8690   26.0460 F   0  0  0  0  0  0  0  0  0  0  0  0
  -22.6950  -13.5980   21.0250 C   0  0  0  0  0  0  0  0  0  0  0  0
  -21.9610  -12.9160   21.8960 N   0  0  0  0  0  0  0  0  0  0  0  0
  -22.2600  -14.6080   20.4730 O   0  0  0  0  0  0  0  0  0  0  0  0
  -22.3280  -12.1010   22.3630 H   0  0  0  0  0  0  0  0  0  0  0  0
  -21.0170  -13.2140   22.0970 H   0  0  0  0  0  0  0  0  0  0  0  0
  -25.3050  -15.2840   20.2280 N   0  0  0  0  0  0  0  0  0  0  0  0
  -24.5310  -15.9310   20.3250 H   0  0  0  0  0  0  0  0  0  0  0  0
  -26.1580  -15.7310   19.9140 H   0  0  0  0  0  0  0  0  0  0  0  0
  2 13  2  0
  3  1  1  0
  3  8  1  0
  4 12  1  0
  4 14  1  0
  5 11  1  0
  5  7  1  0
  6 12  1  0
  7  8  2  0
  7  6  1  0
  9  3  2  0
 10  9  1  0
 10  5  2  0
 11  4  1  0
 12  2  1  0
 14 16  2  0
 15 14  1  0
 17 15  1  0
 18 27  2  0
 18 23  1  0
 19 15  1  0
 19 23  1  0
 20 19  1  0
 21 22  1  0
 21 20  1  0
 22 18  1  0
 23 24  2  0
 24 25  1  0
 26 25  2  0
 27 26  1  0
 28  2  1  0
 28 29  1  0
 28 38  1  0
 29 32  1  0
 30 34  1  0
 30 29  1  0
 31 30  2  0
 34 33  1  0
 36 34  1  0
 36 37  1  0
 36 35  1  0
 38 41  1  1
 38 39  1  0
 40 38  1  0
 42  1  1  0
 44 46  1  0
 44 45  1  0
 47 45  1  0
 48 53  1  0
 49 50  1  0
 49 48  1  0
 51 50  1  0
 51 58  1  0
 51 52  1  0
 53 47  1  0
 53 52  1  0
 54 47  2  0
 55 56  2  0
 56 75  1  0
 57 56  1  0
 57 60  1  0
 58 55  1  0
 58 59  1  0
 59 57  2  0
 60 61  1  0
 61 62  2  0
 63 66  1  0
 63 62  1  0
 64 63  2  0
 65 64  1  0
 65 60  2  0
 66 67  1  0
 67 68  1  0
 68 69  2  0
 70 69  1  0
 70 74  1  0
 71 70  2  0
 72 67  2  0
 72 71  1  0
 73 72  1  0
 75 76  1  0
 76 79  1  0
 76 78  1  0
 77 75  2  0
 80 81  1  0
 80 55  1  0
 82 80  1  0
M  ISO  4   1 101  42 101  45 100  47 100
M  END
>  <TORSDO>  (82) 
F 18

>  <SCORE>  (82) 
-16.103

>  <name>  (82) 
81

>  <ligand_id>  (82) 
81

>  <original_smiles>  (82) 
[H]c1c([H])c([H])c2c(c1[H])C([H])([H])C([H])([H])C([H])([H])C2([H])N([H])C(=O)C1([H])N(C(=O)C([H])(N([H])C(=O)C([H])(N([H])C([H])([H])[H])C([H])([H])[H])C(C([H])([H])[H])(C([H])([H])[H])C([H])([H])[H])C([H])([H])c2c([H])c(OC([H])([H])C([H])([H])C3([H])C([H])([H])C3([H])C(=O)N3C([H])([H])C([H])([H])C([H])([H])C([H])(n4nc(-c5c([H])c([H])c(Oc6c([H])c([H])c(F)c([H])c6F)c([H])c5[H])c(C(=O)N([H])[H])c4N([H])[H])C3([H])[H])c([H])c([H])c2C1([H])[H]

>  <smiles>  (82) 
[H]c1c([H])c([H])c2c(c1[H])C([H])([H])C([H])([H])C([H])([H])C2([H])N([H])C(=O)C1([H])N(C(=O)C([H])(N([H])C(=O)C([H])(N([H])C([H])([H])[H])C([H])([H])[H])C(C([H])([H])[H])(C([H])([H])[H])C([H])([H])[H])C([H])([H])c2c([H])c(OC([H])([H])C([H])([H])C3([H])C([H])([H])C3([H])C(=O)N3C([H])([H])C([H])([H])C([H])([H])C([H])(n4nc(-c5c([H])c([H])c(Oc6c([H])c([H])c(F)c([H])c6F)c([H])c5[H])c(C(=O)N([H])[H])c4N([H])[H])C3([H])[H])c([H])c([H])c2C1([H])[H]

$$$$
82:0:0
     RDKit          3D

 89 98  0  0  1  0  0  0  0  0999 V2000
  -31.0870  -18.5360   20.3730 C   0  0  0  0  0  3  0  0  0  0  0  0
  -31.2860  -19.9610   20.3460 C   0  0  0  0  0  3  0  0  0  0  0  0
  -28.7460  -18.9630   20.3610 C   0  0  0  0  0  3  0  0  0  0  0  0
  -27.9840  -21.7180   20.2740 C   0  0  0  0  0  3  0  0  0  0  0  0
  -28.8810  -20.4630   20.3220 C   0  0  0  0  0  0  0  0  0  0  0  0
  -29.8090  -17.9130   20.3820 C   0  0  0  0  0  0  0  0  0  0  0  0
  -30.2270  -20.9200   20.3180 C   0  0  0  0  0  0  0  0  0  0  0  0
  -28.5510  -23.0450   20.2240 C   0  0  0  0  0  0  0  0  0  0  0  0
  -30.3020  -22.7560   20.2640 S   0  0  0  0  0  0  0  0  0  0  0  0
  -30.4470  -15.1530   20.2920 C   0  0  0  0  0  0  0  0  0  0  0  0
  -30.3890  -12.7650   19.3610 C   0  0  0  0  0  2  0  0  0  0  0  0
  -29.4600  -12.6570   18.1280 C   0  0  0  0  0  2  0  0  0  0  0  0
  -28.0020  -12.4130   18.5600 C   0  0  0  0  0  2  0  0  0  0  0  0
  -27.5720  -13.3440   19.7220 C   0  0  0  0  0  3  0  0  0  0  0  0
  -28.6240  -13.4050   20.8500 C   0  0  0  0  0  2  0  0  0  0  0  0
  -29.8770  -13.8680   20.2370 N   0  0  0  0  0  0  0  0  0  0  0  0
  -31.6580  -15.2020   20.0370 O   0  0  0  0  0  0  0  0  0  0  0  0
  -29.6340  -16.3490   20.4270 N   0  0  0  0  0  0  0  0  0  0  0  0
  -28.6730  -16.0780   20.5650 H   0  0  0  0  0  0  0  0  0  0  0  0
  -25.1840  -13.8960   20.4490 C   0  0  0  0  0  0  0  0  0  0  0  0
  -24.1270  -13.1120   20.8190 C   0  0  0  0  0  0  0  0  0  0  0  0
  -24.6070  -11.7660   20.8000 C   0  0  0  0  0  0  0  0  0  0  0  0
  -26.2380  -13.0280   20.2200 N   0  0  0  0  0  0  0  0  0  0  0  0
  -25.9010  -11.7420   20.4980 N   0  0  0  0  0  0  0  0  0  0  0  0
  -23.8920  -10.4980   20.9930 C   0  0  0  0  0  0  0  0  0  0  0  0
  -24.3220   -9.5430   21.9420 C   0  0  0  0  0  3  0  0  0  0  0  0
  -23.6030   -8.3400   22.1240 C   0  0  0  0  0  3  0  0  0  0  0  0
  -22.4410   -8.0850   21.3570 C   0  0  0  0  0  0  0  0  0  0  0  0
  -22.0320   -9.0280   20.3980 C   0  0  0  0  0  3  0  0  0  0  0  0
  -22.7510  -10.2210   20.2140 C   0  0  0  0  0  3  0  0  0  0  0  0
  -21.6960   -6.9350   21.4460 O   0  0  0  0  0  0  0  0  0  0  0  0
  -21.6300   -6.2080   22.6090 C   0  0  0  0  0  0  0  0  0  0  0  0
  -21.1490   -6.7690   23.8110 C   0  0  0  0  0  3  0  0  0  0  0  0
  -21.0340   -5.9680   24.9650 C   0  0  0  0  0  3  0  0  0  0  0  0
  -21.3880   -4.6070   24.9160 C   0  0  0  0  0  0  0  0  0  0  0  0
  -21.8620   -4.0450   23.7180 C   0  0  0  0  0  3  0  0  0  0  0  0
  -21.9790   -4.8430   22.5670 C   0  0  0  0  0  0  0  0  0  0  0  0
  -22.4160   -4.2910   21.4090 F   0  0  0  0  0  0  0  0  0  0  0  0
  -21.2700   -3.8350   26.0220 F   0  0  0  0  0  0  0  0  0  0  0  0
  -22.7230  -13.5770   21.0740 C   0  0  0  0  0  0  0  0  0  0  0  0
  -21.9970  -12.8830   21.9440 N   0  0  0  0  0  0  0  0  0  0  0  0
  -22.2790  -14.5910   20.5380 O   0  0  0  0  0  0  0  0  0  0  0  0
  -22.3700  -12.0620   22.3980 H   0  0  0  0  0  0  0  0  0  0  0  0
  -21.0540  -13.1770   22.1580 H   0  0  0  0  0  0  0  0  0  0  0  0
  -25.3320  -15.2670   20.2590 N   0  0  0  0  0  0  0  0  0  0  0  0
  -24.5500  -15.9070   20.3480 H   0  0  0  0  0  0  0  0  0  0  0  0
  -26.1560  -15.7060   19.8720 H   0  0  0  0  0  0  0  0  0  0  0  0
  -27.7360  -24.5120   19.9910 C   0  0  0  0  0  2  0  0  0  0  0  0
  -28.1620  -26.0260   20.2660 O   0  0  0  0  0  0  0  0  0  0  0  0
  -24.6310  -31.8850   23.2690 C   0  0  0  0  0  0  0  0  0  0  0  0
  -27.1640  -27.1030   20.1970 C   0  0  0  0  0  0  0  0  0  0  0  0
  -23.4210  -30.5040   21.6300 C   0  0  0  0  0  3  0  0  0  0  0  0
  -24.8590  -28.9310   20.1840 C   0  0  0  0  0  0  0  0  0  0  0  0
  -25.9830  -30.7370   21.4630 C   0  0  0  0  0  2  0  0  0  0  0  0
  -26.0480  -29.3420   20.7980 C   0  0  0  0  0  0  0  0  0  0  0  0
  -27.1990  -28.4470   20.7870 C   0  0  0  0  0  3  0  0  0  0  0  0
  -25.9450  -26.8320   19.5290 C   0  0  0  0  0  3  0  0  0  0  0  0
  -24.8270  -27.6930   19.5300 C   0  0  0  0  0  3  0  0  0  0  0  0
  -23.6380  -29.8390   20.2460 C   0  0  0  0  0  2  0  0  0  0  0  0
  -24.7000  -31.0650   22.1750 N   0  0  0  0  0  0  0  0  0  0  0  0
  -23.5470  -32.1720   23.8010 O   0  0  0  0  0  0  0  0  0  0  0  0
  -22.7410  -29.4940   22.5900 C   0  0  0  0  0  0  0  0  0  0  0  0
  -21.4110  -29.3210   22.4640 N   0  0  0  0  0  0  0  0  0  0  0  0
  -23.4110  -28.8700   23.4150 O   0  0  0  0  0  0  0  0  0  0  0  0
  -20.9250  -29.8770   21.7750 H   0  0  0  0  0  0  0  0  0  0  0  0
  -18.0360  -28.0940   22.9590 C   0  0  0  0  0  0  0  0  0  0  0  0
  -20.5930  -28.3800   23.2340 C   0  0  0  0  0  3  0  0  0  0  0  0
  -20.7070  -26.9460   22.6640 C   0  0  0  0  0  2  0  0  0  0  0  0
  -19.6110  -26.6120   21.6460 C   0  0  0  0  0  2  0  0  0  0  0  0
  -18.2260  -26.7460   22.2840 C   0  0  0  0  0  2  0  0  0  0  0  0
  -19.1470  -28.8680   23.3900 C   0  0  0  0  0  0  0  0  0  0  0  0
  -18.9130  -30.1270   23.9840 C   0  0  0  0  0  3  0  0  0  0  0  0
  -17.6020  -30.6150   24.1480 C   0  0  0  0  0  3  0  0  0  0  0  0
  -16.5060  -29.8380   23.7310 C   0  0  0  0  0  3  0  0  0  0  0  0
  -16.7240  -28.5810   23.1430 C   0  0  0  0  0  3  0  0  0  0  0  0
  -25.9110  -32.5190   23.8940 C   0  0  0  0  0  3  0  0  0  0  0  0
  -25.6060  -33.9230   24.2170 N   0  0  0  0  0  0  0  0  0  0  0  0
  -25.9210  -34.9720   23.4460 C   0  0  0  0  0  0  0  0  0  0  0  0
  -26.5630  -34.8610   22.3980 O   0  0  0  0  0  0  0  0  0  0  0  0
  -25.0320  -34.0840   25.0320 H   0  0  0  0  0  0  0  0  0  0  0  0
  -24.1760  -36.7630   23.1460 C   0  0  0  0  0  1  0  0  0  0  0  0
  -25.4510  -36.3670   23.9090 C   0  0  0  0  0  3  0  0  0  0  0  0
  -27.6140  -37.2700   24.6440 C   0  0  0  0  0  1  0  0  0  0  0  0
  -26.4760  -37.4210   23.7400 N   0  0  0  0  0  0  0  0  0  0  0  0
  -26.0740  -38.3420   23.8870 H   0  0  0  0  0  0  0  0  0  0  0  0
  -26.4110  -31.7580   25.1840 C   0  0  1  0  0  0  0  0  0  0  0  0
  -25.3080  -31.5420   26.2470 C   0  0  0  0  0  1  0  0  0  0  0  0
  -26.9840  -30.3700   24.8190 C   0  0  0  0  0  1  0  0  0  0  0  0
  -27.5640  -32.5500   25.8440 C   0  0  0  0  0  1  0  0  0  0  0  0
  1  6  1  0
  2  1  2  0
  3  6  2  0
  4  5  1  0
  5  3  1  0
  6 18  1  0
  7  5  2  0
  7  2  1  0
  8  9  1  0
  8  4  2  0
  9  7  1  0
 10 18  1  0
 11 16  1  0
 12 13  1  0
 12 11  1  0
 14 13  1  0
 14 23  1  0
 14 15  1  0
 16 10  1  0
 16 15  1  0
 17 10  2  0
 18 19  1  0
 20 21  2  0
 21 40  1  0
 22 21  1  0
 22 25  1  0
 23 20  1  0
 23 24  1  0
 24 22  2  0
 25 26  1  0
 26 27  2  0
 28 31  1  0
 28 27  1  0
 29 28  2  0
 30 29  1  0
 30 25  2  0
 31 32  1  0
 32 33  1  0
 33 34  2  0
 35 34  1  0
 35 39  1  0
 36 35  2  0
 37 32  2  0
 37 36  1  0
 38 37  1  0
 40 41  1  0
 41 44  1  0
 41 43  1  0
 42 40  2  0
 45 46  1  0
 45 20  1  0
 47 45  1  0
 48  8  1  0
 48 49  1  0
 50 61  2  0
 51 49  1  0
 51 56  1  0
 52 60  1  0
 52 62  1  0
 53 59  1  0
 53 55  1  0
 54 60  1  0
 55 54  1  0
 56 55  2  0
 57 58  1  0
 57 51  2  0
 58 53  2  0
 59 52  1  0
 60 50  1  0
 62 64  2  0
 63 62  1  0
 65 63  1  0
 66 75  2  0
 66 71  1  0
 67 63  1  0
 67 71  1  0
 68 67  1  0
 69 70  1  0
 69 68  1  0
 70 66  1  0
 71 72  2  0
 72 73  1  0
 74 73  2  0
 75 74  1  0
 76 50  1  0
 76 77  1  0
 76 86  1  0
 77 80  1  0
 78 82  1  0
 78 77  1  0
 79 78  2  0
 82 81  1  0
 84 85  1  0
 84 82  1  0
 84 83  1  0
 86 89  1  1
 86 87  1  0
 88 86  1  0
M  ISO  4  10 100  18 100  48 101  49 101
M  END
>  <TORSDO>  (83) 
F 17

>  <SCORE>  (83) 
-15.791

>  <name>  (83) 
82

>  <ligand_id>  (83) 
82

>  <original_smiles>  (83) 
[H]c1c([H])c([H])c2c(c1[H])C([H])([H])C([H])([H])C([H])([H])C2([H])N([H])C(=O)C1([H])N(C(=O)C([H])(N([H])C(=O)C([H])(N([H])C([H])([H])[H])C([H])([H])[H])C(C([H])([H])[H])(C([H])([H])[H])C([H])([H])[H])C([H])([H])c2c([H])c(OC([H])([H])c3sc4c([H])c([H])c(N([H])C(=O)N5C([H])([H])C([H])([H])C([H])([H])C([H])(n6nc(-c7c([H])c([H])c(Oc8c([H])c([H])c(F)c([H])c8F)c([H])c7[H])c(C(=O)N([H])[H])c6N([H])[H])C5([H])[H])c([H])c4c3[H])c([H])c([H])c2C1([H])[H]

>  <smiles>  (83) 
[H]c1c([H])c([H])c2c(c1[H])C([H])([H])C([H])([H])C([H])([H])C2([H])N([H])C(=O)C1([H])N(C(=O)C([H])(N([H])C(=O)C([H])(N([H])C([H])([H])[H])C([H])([H])[H])C(C([H])([H])[H])(C([H])([H])[H])C([H])([H])[H])C([H])([H])c2c([H])c(OC([H])([H])c3sc4c([H])c([H])c(N([H])C(=O)N5C([H])([H])C([H])([H])C([H])([H])C([H])(n6nc(-c7c([H])c([H])c(Oc8c([H])c([H])c(F)c([H])c8F)c([H])c7[H])c(C(=O)N([H])[H])c6N([H])[H])C5([H])[H])c([H])c4c3[H])c([H])c([H])c2C1([H])[H]

$$$$
83:0:0
     RDKit          3D

 89 96  0  0  1  0  0  0  0  0999 V2000
  -29.5570  -20.5050   19.9620 C   0  0  0  0  0  3  0  0  0  0  0  0
  -30.1540  -17.8590   20.4130 C   0  0  0  0  0  0  0  0  0  0  0  0
  -29.3290  -19.0170   20.4440 N   0  0  0  0  0  0  0  0  0  0  0  0
  -31.3400  -18.0150   20.1220 O   0  0  0  0  0  0  0  0  0  0  0  0
  -28.3810  -18.8340   20.7500 H   0  0  0  0  0  0  0  0  0  0  0  0
  -29.6490  -16.3260   20.7640 C   0  0  0  0  0  2  0  0  0  0  0  0
  -30.5270  -14.9630   20.3990 C   0  0  0  0  0  0  0  0  0  0  0  0
  -30.4340  -12.6370   19.3890 C   0  0  0  0  0  2  0  0  0  0  0  0
  -29.5110  -12.6590   18.1470 C   0  0  0  0  0  2  0  0  0  0  0  0
  -28.0390  -12.4440   18.5540 C   0  0  0  0  0  2  0  0  0  0  0  0
  -27.6260  -13.3300   19.7580 C   0  0  0  0  0  3  0  0  0  0  0  0
  -28.6700  -13.2860   20.8940 C   0  0  0  0  0  2  0  0  0  0  0  0
  -29.9630  -13.6920   20.3290 N   0  0  0  0  0  0  0  0  0  0  0  0
  -31.7170  -15.0460   20.0740 O   0  0  0  0  0  0  0  0  0  0  0  0
  -25.2250  -13.8910   20.4500 C   0  0  0  0  0  0  0  0  0  0  0  0
  -24.1630  -13.1070   20.8100 C   0  0  0  0  0  0  0  0  0  0  0  0
  -24.6430  -11.7620   20.8000 C   0  0  0  0  0  0  0  0  0  0  0  0
  -26.2820  -13.0230   20.2350 N   0  0  0  0  0  0  0  0  0  0  0  0
  -25.9400  -11.7370   20.5110 N   0  0  0  0  0  0  0  0  0  0  0  0
  -23.9280  -10.4920   20.9910 C   0  0  0  0  0  0  0  0  0  0  0  0
  -24.3440   -9.5470   21.9540 C   0  0  0  0  0  3  0  0  0  0  0  0
  -23.6280   -8.3440   22.1310 C   0  0  0  0  0  3  0  0  0  0  0  0
  -22.4810   -8.0770   21.3460 C   0  0  0  0  0  0  0  0  0  0  0  0
  -22.0860   -9.0120   20.3720 C   0  0  0  0  0  3  0  0  0  0  0  0
  -22.8030  -10.2060   20.1930 C   0  0  0  0  0  3  0  0  0  0  0  0
  -21.7400   -6.9240   21.4300 O   0  0  0  0  0  0  0  0  0  0  0  0
  -21.6560   -6.2060   22.5960 C   0  0  0  0  0  0  0  0  0  0  0  0
  -21.1590   -6.7740   23.7880 C   0  0  0  0  0  3  0  0  0  0  0  0
  -21.0250   -5.9810   24.9450 C   0  0  0  0  0  3  0  0  0  0  0  0
  -21.3800   -4.6180   24.9100 C   0  0  0  0  0  0  0  0  0  0  0  0
  -21.8690   -4.0490   23.7220 C   0  0  0  0  0  3  0  0  0  0  0  0
  -22.0040   -4.8390   22.5670 C   0  0  0  0  0  0  0  0  0  0  0  0
  -22.4570   -4.2810   21.4190 F   0  0  0  0  0  0  0  0  0  0  0  0
  -21.2440   -3.8540   26.0180 F   0  0  0  0  0  0  0  0  0  0  0  0
  -22.7550  -13.5700   21.0510 C   0  0  0  0  0  0  0  0  0  0  0  0
  -22.0180  -12.8710   21.9070 N   0  0  0  0  0  0  0  0  0  0  0  0
  -22.3170  -14.5880   20.5160 O   0  0  0  0  0  0  0  0  0  0  0  0
  -22.3850  -12.0480   22.3620 H   0  0  0  0  0  0  0  0  0  0  0  0
  -21.0740  -13.1640   22.1110 H   0  0  0  0  0  0  0  0  0  0  0  0
  -25.3750  -15.2620   20.2630 N   0  0  0  0  0  0  0  0  0  0  0  0
  -24.5970  -15.9060   20.3550 H   0  0  0  0  0  0  0  0  0  0  0  0
  -26.2220  -15.7080   19.9350 H   0  0  0  0  0  0  0  0  0  0  0  0
  -30.5020  -19.8540   17.6230 C   0  0  0  0  0  1  0  0  0  0  0  0
  -28.0070  -20.0460   17.9500 C   0  0  0  0  0  1  0  0  0  0  0  0
  -29.3850  -20.5550   18.4130 C   0  0  0  0  0  3  0  0  0  0  0  0
  -28.7340  -21.8330   20.5960 C   0  0  0  0  0  2  0  0  0  0  0  0
  -28.9830  -23.4420   20.1520 C   0  0  0  0  0  3  0  0  0  0  0  0
  -28.0260  -24.7440   20.5920 C   0  0  0  0  0  3  0  0  0  0  0  0
  -28.2760  -26.2470   20.3020 O   0  0  0  0  0  0  0  0  0  0  0  0
  -24.5840  -31.8900   23.2620 C   0  0  0  0  0  0  0  0  0  0  0  0
  -27.2020  -27.2010   20.2630 C   0  0  0  0  0  0  0  0  0  0  0  0
  -23.3990  -30.4870   21.6180 C   0  0  0  0  0  3  0  0  0  0  0  0
  -24.8620  -28.9160   20.2080 C   0  0  0  0  0  0  0  0  0  0  0  0
  -25.9510  -30.7690   21.4670 C   0  0  0  0  0  2  0  0  0  0  0  0
  -26.0350  -29.3760   20.8220 C   0  0  0  0  0  0  0  0  0  0  0  0
  -27.2080  -28.5340   20.8310 C   0  0  0  0  0  3  0  0  0  0  0  0
  -26.0060  -26.8390   19.6050 C   0  0  0  0  0  3  0  0  0  0  0  0
  -24.8600  -27.6600   19.5840 C   0  0  0  0  0  3  0  0  0  0  0  0
  -23.6310  -29.8060   20.2420 C   0  0  0  0  0  2  0  0  0  0  0  0
  -24.6640  -31.0690   22.1710 N   0  0  0  0  0  0  0  0  0  0  0  0
  -23.4940  -32.1700   23.7830 O   0  0  0  0  0  0  0  0  0  0  0  0
  -22.7190  -29.4770   22.5770 C   0  0  0  0  0  0  0  0  0  0  0  0
  -21.3960  -29.2920   22.4330 N   0  0  0  0  0  0  0  0  0  0  0  0
  -23.3870  -28.8640   23.4140 O   0  0  0  0  0  0  0  0  0  0  0  0
  -20.9130  -29.8380   21.7330 H   0  0  0  0  0  0  0  0  0  0  0  0
  -18.0190  -28.0660   22.8970 C   0  0  0  0  0  0  0  0  0  0  0  0
  -20.5720  -28.3530   23.1990 C   0  0  0  0  0  3  0  0  0  0  0  0
  -20.6940  -26.9180   22.6370 C   0  0  0  0  0  2  0  0  0  0  0  0
  -19.6100  -26.5770   21.6090 C   0  0  0  0  0  2  0  0  0  0  0  0
  -18.2180  -26.7130   22.2330 C   0  0  0  0  0  2  0  0  0  0  0  0
  -19.1250  -28.8420   23.3360 C   0  0  0  0  0  0  0  0  0  0  0  0
  -18.8840  -30.1060   23.9180 C   0  0  0  0  0  3  0  0  0  0  0  0
  -17.5720  -30.5940   24.0650 C   0  0  0  0  0  3  0  0  0  0  0  0
  -16.4810  -29.8150   23.6410 C   0  0  0  0  0  3  0  0  0  0  0  0
  -16.7060  -28.5530   23.0620 C   0  0  0  0  0  3  0  0  0  0  0  0
  -25.8570  -32.5310   23.8950 C   0  0  0  0  0  3  0  0  0  0  0  0
  -25.5450  -33.9350   24.2020 N   0  0  0  0  0  0  0  0  0  0  0  0
  -25.8910  -34.9790   23.4380 C   0  0  0  0  0  0  0  0  0  0  0  0
  -26.5730  -34.8620   22.4170 O   0  0  0  0  0  0  0  0  0  0  0  0
  -24.9400  -34.1000   24.9930 H   0  0  0  0  0  0  0  0  0  0  0  0
  -24.1800  -36.7820   23.0410 C   0  0  0  0  0  1  0  0  0  0  0  0
  -25.4050  -36.3760   23.8760 C   0  0  0  0  0  3  0  0  0  0  0  0
  -27.5290  -37.2600   24.7350 C   0  0  0  0  0  1  0  0  0  0  0  0
  -26.4460  -37.4220   23.7690 N   0  0  0  0  0  0  0  0  0  0  0  0
  -26.0430  -38.3460   23.8970 H   0  0  0  0  0  0  0  0  0  0  0  0
  -26.3480  -31.7790   25.1940 C   0  0  1  0  0  0  0  0  0  0  0  0
  -25.2360  -31.5650   26.2470 C   0  0  0  0  0  1  0  0  0  0  0  0
  -26.9320  -30.3920   24.8400 C   0  0  0  0  0  1  0  0  0  0  0  0
  -27.4910  -32.5810   25.8610 C   0  0  0  0  0  1  0  0  0  0  0  0
  1  3  1  0
  1 46  1  0
  2  3  1  0
  2  6  1  0
  3  5  1  0
  4  2  2  0
  7  6  1  0
  8 13  1  0
  9 10  1  0
  9  8  1  0
 11 10  1  0
 11 18  1  0
 11 12  1  0
 13  7  1  0
 13 12  1  0
 14  7  2  0
 15 16  2  0
 16 35  1  0
 17 16  1  0
 17 20  1  0
 18 15  1  0
 18 19  1  0
 19 17  2  0
 20 21  1  0
 21 22  2  0
 23 26  1  0
 23 22  1  0
 24 23  2  0
 25 24  1  0
 25 20  2  0
 26 27  1  0
 27 28  1  0
 28 29  2  0
 30 29  1  0
 30 34  1  0
 31 30  2  0
 32 27  2  0
 32 31  1  0
 33 32  1  0
 35 36  1  0
 36 39  1  0
 36 38  1  0
 37 35  2  0
 40 41  1  0
 40 15  1  0
 42 40  1  0
 43 45  1  0
 44 45  1  0
 45  1  1  0
 47 48  2  0
 47 46  1  0
 49 48  1  0
 50 61  2  0
 51 49  1  0
 51 56  1  0
 52 60  1  0
 52 62  1  0
 53 59  1  0
 53 55  1  0
 54 60  1  0
 55 56  2  0
 55 54  1  0
 57 51  2  0
 58 57  1  0
 58 53  2  0
 59 52  1  0
 60 50  1  0
 62 64  2  0
 63 62  1  0
 65 63  1  0
 66 75  2  0
 66 71  1  0
 67 63  1  0
 67 71  1  0
 68 67  1  0
 69 70  1  0
 69 68  1  0
 70 66  1  0
 71 72  2  0
 72 73  1  0
 74 73  2  0
 75 74  1  0
 76 50  1  0
 76 77  1  0
 76 86  1  0
 77 80  1  0
 78 82  1  0
 78 77  1  0
 79 78  2  0
 82 81  1  0
 84 82  1  0
 84 85  1  0
 84 83  1  0
 86 89  1  1
 86 87  1  0
 88 86  1  0
M  ISO  4   6 100   7 100  48 101  49 101
M  END
>  <TORSDO>  (84) 
F 22

>  <SCORE>  (84) 
-13.129

>  <name>  (84) 
83

>  <ligand_id>  (84) 
83

>  <original_smiles>  (84) 
[H]c1c([H])c([H])c2c(c1[H])C([H])([H])C([H])([H])C([H])([H])C2([H])N([H])C(=O)C1([H])N(C(=O)C([H])(N([H])C(=O)C([H])(N([H])C([H])([H])[H])C([H])([H])[H])C(C([H])([H])[H])(C([H])([H])[H])C([H])([H])[H])C([H])([H])c2c([H])c(OC([H])([H])C([H])([H])C([H])([H])C([H])(N([H])C(=O)C([H])([H])C(=O)N3C([H])([H])C([H])([H])C([H])([H])C([H])(n4nc(-c5c([H])c([H])c(Oc6c([H])c([H])c(F)c([H])c6F)c([H])c5[H])c(C(=O)N([H])[H])c4N([H])[H])C3([H])[H])C([H])(C([H])([H])[H])C([H])([H])[H])c([H])c([H])c2C1([H])[H]

>  <smiles>  (84) 
[H]c1c([H])c([H])c2c(c1[H])C([H])([H])C([H])([H])C([H])([H])C2([H])N([H])C(=O)C1([H])N(C(=O)C([H])(N([H])C(=O)C([H])(N([H])C([H])([H])[H])C([H])([H])[H])C(C([H])([H])[H])(C([H])([H])[H])C([H])([H])[H])C([H])([H])c2c([H])c(OC([H])([H])C([H])([H])C([H])([H])C([H])(N([H])C(=O)C([H])([H])C(=O)N3C([H])([H])C([H])([H])C([H])([H])C([H])(n4nc(-c5c([H])c([H])c(Oc6c([H])c([H])c(F)c([H])c6F)c([H])c5[H])c(C(=O)N([H])[H])c4N([H])[H])C3([H])[H])C([H])(C([H])([H])[H])C([H])([H])[H])c([H])c([H])c2C1([H])[H]

$$$$
84:0:0
     RDKit          3D

 87 95  0  0  1  0  0  0  0  0999 V2000
  -28.9900  -22.6190   21.8690 C   0  0  0  0  0  0  0  0  0  0  0  0
  -28.9420  -22.8630   20.3500 C   0  0  0  0  0  3  0  0  0  0  0  0
  -28.6930  -21.1130   20.3620 C   0  0  0  0  0  3  0  0  0  0  0  0
  -28.5710  -21.3010   21.8120 N   0  0  0  0  0  0  0  0  0  0  0  0
  -29.2410  -23.2980   22.8430 O   0  0  0  0  0  0  0  0  0  0  0  0
  -28.3780  -20.6470   22.5610 H   0  0  0  0  0  0  0  0  0  0  0  0
  -29.6500  -19.6080   20.1720 C   0  0  0  0  0  2  0  0  0  0  0  0
  -29.4150  -16.5380   20.5530 C   0  0  0  0  0  3  0  0  0  0  0  0
  -29.1760  -18.0000   20.5430 C   0  0  0  0  0  3  0  0  0  0  0  0
  -30.3640  -15.2790   20.2170 C   0  0  0  0  0  0  0  0  0  0  0  0
  -30.3680  -12.8540   19.2940 C   0  0  0  0  0  2  0  0  0  0  0  0
  -29.4070  -12.7120   18.0830 C   0  0  0  0  0  2  0  0  0  0  0  0
  -27.9600  -12.4510   18.5450 C   0  0  0  0  0  2  0  0  0  0  0  0
  -27.5510  -13.3720   19.7190 C   0  0  0  0  0  3  0  0  0  0  0  0
  -28.6310  -13.4240   20.8210 C   0  0  0  0  0  2  0  0  0  0  0  0
  -29.8590  -13.9480   20.1960 N   0  0  0  0  0  0  0  0  0  0  0  0
  -31.5550  -15.3470   19.8790 O   0  0  0  0  0  0  0  0  0  0  0  0
  -25.1980  -13.9270   20.5400 C   0  0  0  0  0  0  0  0  0  0  0  0
  -24.1420  -13.1460   20.9210 C   0  0  0  0  0  0  0  0  0  0  0  0
  -24.6020  -11.7960   20.8490 C   0  0  0  0  0  0  0  0  0  0  0  0
  -26.2310  -13.0530   20.2500 N   0  0  0  0  0  0  0  0  0  0  0  0
  -25.8860  -11.7640   20.5020 N   0  0  0  0  0  0  0  0  0  0  0  0
  -23.8760  -10.5330   21.0300 C   0  0  0  0  0  0  0  0  0  0  0  0
  -24.3070   -9.5570   21.9560 C   0  0  0  0  0  3  0  0  0  0  0  0
  -23.5770   -8.3600   22.1260 C   0  0  0  0  0  3  0  0  0  0  0  0
  -22.4020   -8.1310   21.3710 C   0  0  0  0  0  0  0  0  0  0  0  0
  -21.9890   -9.0950   20.4350 C   0  0  0  0  0  3  0  0  0  0  0  0
  -22.7190  -10.2830   20.2620 C   0  0  0  0  0  3  0  0  0  0  0  0
  -21.6440   -6.9870   21.4520 O   0  0  0  0  0  0  0  0  0  0  0  0
  -21.5710   -6.2520   22.6090 C   0  0  0  0  0  0  0  0  0  0  0  0
  -21.0930   -6.8080   23.8150 C   0  0  0  0  0  3  0  0  0  0  0  0
  -20.9680   -5.9990   24.9620 C   0  0  0  0  0  3  0  0  0  0  0  0
  -21.3100   -4.6350   24.9050 C   0  0  0  0  0  0  0  0  0  0  0  0
  -21.7820   -4.0780   23.7020 C   0  0  0  0  0  3  0  0  0  0  0  0
  -21.9090   -4.8850   22.5570 C   0  0  0  0  0  0  0  0  0  0  0  0
  -22.3420   -4.3380   21.3960 F   0  0  0  0  0  0  0  0  0  0  0  0
  -21.1840   -3.8560   26.0040 F   0  0  0  0  0  0  0  0  0  0  0  0
  -22.7540  -13.6230   21.2360 C   0  0  0  0  0  0  0  0  0  0  0  0
  -22.0430  -12.9110   22.1030 N   0  0  0  0  0  0  0  0  0  0  0  0
  -22.3110  -14.6630   20.7500 O   0  0  0  0  0  0  0  0  0  0  0  0
  -22.4170  -12.0720   22.5210 H   0  0  0  0  0  0  0  0  0  0  0  0
  -21.1130  -13.2120   22.3550 H   0  0  0  0  0  0  0  0  0  0  0  0
  -25.3590  -15.3010   20.3880 N   0  0  0  0  0  0  0  0  0  0  0  0
  -24.5930  -15.9520   20.5250 H   0  0  0  0  0  0  0  0  0  0  0  0
  -26.1900  -15.7430   20.0130 H   0  0  0  0  0  0  0  0  0  0  0  0
  -27.9600  -24.3420   20.0950 C   0  0  0  0  0  2  0  0  0  0  0  0
  -28.2000  -25.9530   20.2730 O   0  0  0  0  0  0  0  0  0  0  0  0
  -24.6270  -31.8800   23.2180 C   0  0  0  0  0  0  0  0  0  0  0  0
  -27.1790  -27.0270   20.2020 C   0  0  0  0  0  0  0  0  0  0  0  0
  -23.4280  -30.4870   21.5790 C   0  0  0  0  0  3  0  0  0  0  0  0
  -24.8740  -28.8840   20.1560 C   0  0  0  0  0  0  0  0  0  0  0  0
  -25.9920  -30.7040   21.4280 C   0  0  0  0  0  2  0  0  0  0  0  0
  -26.0610  -29.2970   20.7730 C   0  0  0  0  0  0  0  0  0  0  0  0
  -27.2080  -28.3890   20.7700 C   0  0  0  0  0  3  0  0  0  0  0  0
  -25.9610  -26.7550   19.5380 C   0  0  0  0  0  3  0  0  0  0  0  0
  -24.8460  -27.6320   19.5190 C   0  0  0  0  0  3  0  0  0  0  0  0
  -23.6540  -29.8030   20.2030 C   0  0  0  0  0  2  0  0  0  0  0  0
  -24.7040  -31.0500   22.1290 N   0  0  0  0  0  0  0  0  0  0  0  0
  -23.5380  -32.1720   23.7400 O   0  0  0  0  0  0  0  0  0  0  0  0
  -22.7340  -29.4920   22.5450 C   0  0  0  0  0  0  0  0  0  0  0  0
  -21.4030  -29.3310   22.4210 N   0  0  0  0  0  0  0  0  0  0  0  0
  -23.3980  -28.8650   23.3740 O   0  0  0  0  0  0  0  0  0  0  0  0
  -20.9200  -29.8880   21.7310 H   0  0  0  0  0  0  0  0  0  0  0  0
  -18.0160  -28.1400   22.9380 C   0  0  0  0  0  0  0  0  0  0  0  0
  -20.5780  -28.3960   23.1920 C   0  0  0  0  0  3  0  0  0  0  0  0
  -20.6710  -26.9640   22.6140 C   0  0  0  0  0  2  0  0  0  0  0  0
  -19.5630  -26.6490   21.6030 C   0  0  0  0  0  2  0  0  0  0  0  0
  -18.1850  -26.7950   22.2530 C   0  0  0  0  0  2  0  0  0  0  0  0
  -19.1390  -28.8980   23.3640 C   0  0  0  0  0  0  0  0  0  0  0  0
  -18.9240  -30.1560   23.9690 C   0  0  0  0  0  3  0  0  0  0  0  0
  -17.6200  -30.6570   24.1460 C   0  0  0  0  0  3  0  0  0  0  0  0
  -16.5130  -29.8970   23.7340 C   0  0  0  0  0  3  0  0  0  0  0  0
  -16.7110  -28.6400   23.1360 C   0  0  0  0  0  3  0  0  0  0  0  0
  -25.9000  -32.5180   23.8510 C   0  0  0  0  0  3  0  0  0  0  0  0
  -26.4020  -31.7530   25.1370 C   0  0  1  0  0  0  0  0  0  0  0  0
  -25.3010  -31.5250   26.1990 C   0  0  0  0  0  1  0  0  0  0  0  0
  -26.9840  -30.3700   24.7640 C   0  0  0  0  0  1  0  0  0  0  0  0
  -27.5500  -32.5460   25.8040 C   0  0  0  0  0  1  0  0  0  0  0  0
  -25.5860  -33.9190   24.1860 N   0  0  0  0  0  0  0  0  0  0  0  0
  -25.9070  -34.9790   23.4320 C   0  0  0  0  0  0  0  0  0  0  0  0
  -26.5620  -34.8810   22.3910 O   0  0  0  0  0  0  0  0  0  0  0  0
  -25.0010  -34.0680   24.9940 H   0  0  0  0  0  0  0  0  0  0  0  0
  -24.1700  -36.7760   23.1260 C   0  0  0  0  0  1  0  0  0  0  0  0
  -25.4300  -36.3670   23.9060 C   0  0  0  0  0  3  0  0  0  0  0  0
  -27.5790  -37.2600   24.6950 C   0  0  0  0  0  1  0  0  0  0  0  0
  -26.4590  -37.4230   23.7720 N   0  0  0  0  0  0  0  0  0  0  0  0
  -26.0530  -38.3420   23.9240 H   0  0  0  0  0  0  0  0  0  0  0  0
  1  5  2  0
  2 46  1  0
  2  3  1  0
  2  1  1  0
  3  7  1  0
  3  4  1  0
  4  1  1  0
  4  6  1  0
  7  9  1  0
  9  8  2  0
 10  8  1  0
 11 16  1  0
 12 13  1  0
 12 11  1  0
 14 13  1  0
 14 21  1  0
 14 15  1  0
 16 10  1  0
 16 15  1  0
 17 10  2  0
 18 19  2  0
 19 38  1  0
 20 19  1  0
 20 23  1  0
 21 22  1  0
 21 18  1  0
 22 20  2  0
 23 24  1  0
 24 25  2  0
 26 29  1  0
 26 25  1  0
 27 26  2  0
 28 27  1  0
 28 23  2  0
 29 30  1  0
 30 31  1  0
 31 32  2  0
 33 32  1  0
 33 37  1  0
 34 33  2  0
 35 30  2  0
 35 34  1  0
 36 35  1  0
 38 39  1  0
 39 42  1  0
 39 41  1  0
 40 38  2  0
 43 44  1  0
 43 18  1  0
 45 43  1  0
 46 47  1  0
 48 59  2  0
 49 47  1  0
 49 54  1  0
 50 58  1  0
 50 60  1  0
 51 57  1  0
 51 53  1  0
 52 58  1  0
 53 52  1  0
 54 53  2  0
 55 49  2  0
 56 55  1  0
 56 51  2  0
 57 50  1  0
 58 48  1  0
 60 62  2  0
 61 60  1  0
 63 61  1  0
 64 73  2  0
 64 69  1  0
 65 61  1  0
 65 69  1  0
 66 65  1  0
 67 68  1  0
 67 66  1  0
 68 64  1  0
 69 70  2  0
 70 71  1  0
 72 71  2  0
 73 72  1  0
 74 48  1  0
 74 79  1  0
 74 75  1  0
 75 78  1  1
 75 76  1  0
 77 75  1  0
 79 82  1  0
 80 84  1  0
 80 79  1  0
 81 80  2  0
 84 83  1  0
 86 84  1  0
 86 87  1  0
 86 85  1  0
M  ISO  4   8 100  10 100  46 101  47 101
M  END
>  <TORSDO>  (85) 
F 19

>  <SCORE>  (85) 
-15.721

>  <name>  (85) 
84

>  <ligand_id>  (85) 
84

>  <original_smiles>  (85) 
[H]C(C(=O)N1C([H])([H])C([H])([H])C([H])([H])C([H])(n2nc(-c3c([H])c([H])c(Oc4c([H])c([H])c(F)c([H])c4F)c([H])c3[H])c(C(=O)N([H])[H])c2N([H])[H])C1([H])[H])=C([H])C([H])([H])C1([H])N([H])C(=O)C1([H])C([H])([H])Oc1c([H])c([H])c2c(c1[H])C([H])([H])N(C(=O)C([H])(N([H])C(=O)C([H])(N([H])C([H])([H])[H])C([H])([H])[H])C(C([H])([H])[H])(C([H])([H])[H])C([H])([H])[H])C([H])(C(=O)N([H])C1([H])c3c([H])c([H])c([H])c([H])c3C([H])([H])C([H])([H])C1([H])[H])C2([H])[H]

>  <smiles>  (85) 
[H]C(C(=O)N1C([H])([H])C([H])([H])C([H])([H])C([H])(n2nc(-c3c([H])c([H])c(Oc4c([H])c([H])c(F)c([H])c4F)c([H])c3[H])c(C(=O)N([H])[H])c2N([H])[H])C1([H])[H])=C([H])C([H])([H])C1([H])N([H])C(=O)C1([H])C([H])([H])Oc1c([H])c([H])c2c(c1[H])C([H])([H])N(C(=O)C([H])(N([H])C(=O)C([H])(N([H])C([H])([H])[H])C([H])([H])[H])C(C([H])([H])[H])(C([H])([H])[H])C([H])([H])[H])C([H])(C(=O)N([H])C1([H])c3c([H])c([H])c([H])c([H])c3C([H])([H])C([H])([H])C1([H])[H])C2([H])[H]

$$$$
85:0:0
     RDKit          3D

 82 86  0  0  1  0  0  0  0  0999 V2000
  -28.1950  -25.0660   20.2230 O   0  0  0  0  0  1  0  0  0  0  0  0
  -24.7130  -31.7650   23.1270 C   0  0  0  0  0  0  0  0  0  0  0  0
  -27.2360  -26.3970   20.2550 C   0  0  0  0  0  0  0  0  0  0  0  0
  -23.5520  -30.3540   21.4890 C   0  0  0  0  0  3  0  0  0  0  0  0
  -25.0100  -28.6270   20.1370 C   0  0  0  0  0  0  0  0  0  0  0  0
  -26.1450  -30.3990   21.4360 C   0  0  0  0  0  2  0  0  0  0  0  0
  -26.2060  -28.9270   20.7980 C   0  0  0  0  0  0  0  0  0  0  0  0
  -27.2930  -27.8540   20.8080 C   0  0  0  0  0  3  0  0  0  0  0  0
  -26.0000  -26.3830   19.5360 C   0  0  0  0  0  3  0  0  0  0  0  0
  -24.9630  -27.3830   19.4800 C   0  0  0  0  0  3  0  0  0  0  0  0
  -23.8230  -29.6210   20.1400 C   0  0  0  0  0  2  0  0  0  0  0  0
  -24.8300  -30.8800   22.0690 N   0  0  0  0  0  0  0  0  0  0  0  0
  -23.6080  -32.0870   23.6030 O   0  0  0  0  0  0  0  0  0  0  0  0
  -22.7890  -29.4140   22.4640 C   0  0  0  0  0  0  0  0  0  0  0  0
  -21.4510  -29.3000   22.3380 N   0  0  0  0  0  0  0  0  0  0  0  0
  -23.4190  -28.7780   23.3130 O   0  0  0  0  0  0  0  0  0  0  0  0
  -20.9890  -29.8610   21.6360 H   0  0  0  0  0  0  0  0  0  0  0  0
  -18.0360  -28.1440   22.8440 C   0  0  0  0  0  0  0  0  0  0  0  0
  -20.6010  -28.3810   23.1090 C   0  0  0  0  0  3  0  0  0  0  0  0
  -20.6810  -26.9440   22.5410 C   0  0  0  0  0  2  0  0  0  0  0  0
  -19.5790  -26.6360   21.5220 C   0  0  0  0  0  2  0  0  0  0  0  0
  -18.1970  -26.7960   22.1610 C   0  0  0  0  0  2  0  0  0  0  0  0
  -19.1630  -28.8950   23.2740 C   0  0  0  0  0  0  0  0  0  0  0  0
  -18.9530  -30.1530   23.8790 C   0  0  0  0  0  3  0  0  0  0  0  0
  -17.6520  -30.6610   24.0540 C   0  0  0  0  0  3  0  0  0  0  0  0
  -16.5400  -29.9090   23.6360 C   0  0  0  0  0  3  0  0  0  0  0  0
  -16.7330  -28.6510   23.0370 C   0  0  0  0  0  3  0  0  0  0  0  0
  -25.9560  -32.4300   23.7930 C   0  0  0  0  0  3  0  0  0  0  0  0
  -25.6020  -33.8140   24.1780 N   0  0  0  0  0  0  0  0  0  0  0  0
  -25.9160  -34.9190   23.4880 C   0  0  0  0  0  0  0  0  0  0  0  0
  -26.5840  -34.8830   22.4530 O   0  0  0  0  0  0  0  0  0  0  0  0
  -25.0020  -33.9130   24.9840 H   0  0  0  0  0  0  0  0  0  0  0  0
  -24.1500  -36.7080   23.2660 C   0  0  0  0  0  1  0  0  0  0  0  0
  -25.4160  -36.2800   24.0260 C   0  0  0  0  0  3  0  0  0  0  0  0
  -27.5550  -37.1700   24.8470 C   0  0  0  0  0  1  0  0  0  0  0  0
  -26.4260  -37.3590   23.9410 N   0  0  0  0  0  0  0  0  0  0  0  0
  -26.0060  -38.2620   24.1420 H   0  0  0  0  0  0  0  0  0  0  0  0
  -26.4640  -31.6460   25.0670 C   0  0  1  0  0  0  0  0  0  0  0  0
  -25.3630  -31.3860   26.1230 C   0  0  0  0  0  1  0  0  0  0  0  0
  -27.0630  -30.2770   24.6780 C   0  0  0  0  0  1  0  0  0  0  0  0
  -27.6030  -32.4390   25.7510 C   0  0  0  0  0  1  0  0  0  0  0  0
  -28.2650  -23.1700   20.5350 C   0  0  0  0  0 15  0  0  0  0  0  0
  -29.5190  -21.5020   18.6560 C   0  0  0  0  0  1  0  0  0  0  0  0
  -28.7290  -21.1800   19.9290 C   0  0  0  0  0  1  0  0  0  0  0  0
  -29.3330  -17.7170   20.1520 C   0  0  0  0  0  2  0  0  0  0  0  0
  -29.4440  -19.3330   20.3500 C   0  0  0  0  0  1  0  0  0  0  0  0
  -30.1400  -16.0690   20.2880 C   0  0  0  0  0  0  0  0  0  0  0  0
  -30.3900  -13.4040   19.5480 C   0  0  0  0  0  2  0  0  0  0  0  0
  -29.5700  -12.7720   18.3710 C   0  0  0  0  0  2  0  0  0  0  0  0
  -28.1780  -12.3210   18.8290 C   0  0  0  0  0  2  0  0  0  0  0  0
  -27.5790  -13.3580   19.7980 C   0  0  0  0  0  3  0  0  0  0  0  0
  -28.5580  -13.8790   20.8850 C   0  0  0  0  0  2  0  0  0  0  0  0
  -29.6730  -14.6250   20.2140 N   0  0  0  0  0  0  0  0  0  0  0  0
  -31.3850  -15.9020   20.2420 O   0  0  0  0  0  0  0  0  0  0  0  0
  -25.2260  -13.8360   20.5840 C   0  0  0  0  0  0  0  0  0  0  0  0
  -24.1690  -13.0440   20.9300 C   0  0  0  0  0  0  0  0  0  0  0  0
  -24.6460  -11.6980   20.8740 C   0  0  0  0  0  0  0  0  0  0  0  0
  -26.2750  -12.9790   20.3240 N   0  0  0  0  0  0  0  0  0  0  0  0
  -25.9420  -11.6800   20.5640 N   0  0  0  0  0  0  0  0  0  0  0  0
  -23.9170  -10.4300   21.0370 C   0  0  0  0  0  0  0  0  0  0  0  0
  -24.3690   -9.4210   21.9160 C   0  0  0  0  0  3  0  0  0  0  0  0
  -23.6330   -8.2260   22.0750 C   0  0  0  0  0  3  0  0  0  0  0  0
  -22.4310   -8.0300   21.3540 C   0  0  0  0  0  0  0  0  0  0  0  0
  -21.9970   -9.0280   20.4640 C   0  0  0  0  0  3  0  0  0  0  0  0
  -22.7320  -10.2140   20.3030 C   0  0  0  0  0  3  0  0  0  0  0  0
  -21.6660   -6.8900   21.4240 O   0  0  0  0  0  0  0  0  0  0  0  0
  -21.6870   -6.0750   22.5280 C   0  0  0  0  0  0  0  0  0  0  0  0
  -21.4020   -6.5650   23.8210 C   0  0  0  0  0  3  0  0  0  0  0  0
  -21.3660   -5.6800   24.9170 C   0  0  0  0  0  3  0  0  0  0  0  0
  -21.6040   -4.3060   24.7220 C   0  0  0  0  0  0  0  0  0  0  0  0
  -21.8820   -3.8160   23.4340 C   0  0  0  0  0  3  0  0  0  0  0  0
  -21.9200   -4.6970   22.3400 C   0  0  0  0  0  0  0  0  0  0  0  0
  -22.1660   -4.2160   21.0980 F   0  0  0  0  0  0  0  0  0  0  0  0
  -21.5630   -3.4540   25.7730 F   0  0  0  0  0  0  0  0  0  0  0  0
  -22.7690  -13.5140   21.1940 C   0  0  0  0  0  0  0  0  0  0  0  0
  -22.0380  -12.8100   22.0490 N   0  0  0  0  0  0  0  0  0  0  0  0
  -22.3350  -14.5430   20.6770 O   0  0  0  0  0  0  0  0  0  0  0  0
  -22.4040  -11.9780   22.4880 H   0  0  0  0  0  0  0  0  0  0  0  0
  -21.0980  -13.1070   22.2690 H   0  0  0  0  0  0  0  0  0  0  0  0
  -25.3790  -15.2110   20.4320 N   0  0  0  0  0  0  0  0  0  0  0  0
  -24.6080  -15.8580   20.5580 H   0  0  0  0  0  0  0  0  0  0  0  0
  -26.2300  -15.6640   20.1240 H   0  0  0  0  0  0  0  0  0  0  0  0
  1  3  1  0
  2 13  2  0
  3  8  1  0
  4 12  1  0
  4 14  1  0
  5 11  1  0
  5  7  1  0
  6 12  1  0
  7  8  2  0
  7  6  1  0
  9  3  2  0
 10  9  1  0
 10  5  2  0
 11  4  1  0
 12  2  1  0
 14 16  2  0
 15 14  1  0
 17 15  1  0
 18 27  2  0
 18 23  1  0
 19 15  1  0
 19 23  1  0
 20 19  1  0
 21 22  1  0
 21 20  1  0
 22 18  1  0
 23 24  2  0
 24 25  1  0
 26 25  2  0
 27 26  1  0
 28  2  1  0
 28 29  1  0
 28 38  1  0
 29 32  1  0
 30 34  1  0
 30 29  1  0
 31 30  2  0
 34 33  1  0
 36 34  1  0
 36 37  1  0
 36 35  1  0
 38 41  1  1
 38 39  1  0
 40 38  1  0
 43 44  1  0
 45 47  1  0
 45 46  1  0
 48 53  1  0
 49 50  1  0
 49 48  1  0
 51 50  1  0
 51 58  1  0
 51 52  1  0
 53 47  1  0
 53 52  1  0
 54 47  2  0
 55 56  2  0
 56 75  1  0
 57 56  1  0
 57 60  1  0
 58 59  1  0
 58 55  1  0
 59 57  2  0
 60 61  1  0
 61 62  2  0
 63 66  1  0
 63 62  1  0
 64 63  2  0
 65 64  1  0
 65 60  2  0
 66 67  1  0
 67 68  1  0
 68 69  2  0
 70 69  1  0
 70 74  1  0
 71 70  2  0
 72 67  2  0
 72 71  1  0
 73 72  1  0
 75 76  1  0
 76 79  1  0
 76 78  1  0
 77 75  2  0
 80 81  1  0
 80 55  1  0
 82 80  1  0
M  ISO  4   1 101  42 101  45 100  47 100
M  END
>  <TORSDO>  (86) 
F 18

>  <SCORE>  (86) 
-15.872

>  <name>  (86) 
85

>  <ligand_id>  (86) 
85

>  <original_smiles>  (86) 
[H]C(C(=O)N1C([H])([H])C([H])([H])C([H])([H])C([H])(n2nc(-c3c([H])c([H])c(Oc4c([H])c([H])c(F)c([H])c4F)c([H])c3[H])c(C(=O)N([H])[H])c2N([H])[H])C1([H])[H])=C([H])C([H])(C([H])([H])[H])C([H])([H])Oc1c([H])c([H])c2c(c1[H])C([H])([H])N(C(=O)C([H])(N([H])C(=O)C([H])(N([H])C([H])([H])[H])C([H])([H])[H])C(C([H])([H])[H])(C([H])([H])[H])C([H])([H])[H])C([H])(C(=O)N([H])C1([H])c3c([H])c([H])c([H])c([H])c3C([H])([H])C([H])([H])C1([H])[H])C2([H])[H]

>  <smiles>  (86) 
[H]C(C(=O)N1C([H])([H])C([H])([H])C([H])([H])C([H])(n2nc(-c3c([H])c([H])c(Oc4c([H])c([H])c(F)c([H])c4F)c([H])c3[H])c(C(=O)N([H])[H])c2N([H])[H])C1([H])[H])=C([H])C([H])(C([H])([H])[H])C([H])([H])Oc1c([H])c([H])c2c(c1[H])C([H])([H])N(C(=O)C([H])(N([H])C(=O)C([H])(N([H])C([H])([H])[H])C([H])([H])[H])C(C([H])([H])[H])(C([H])([H])[H])C([H])([H])[H])C([H])(C(=O)N([H])C1([H])c3c([H])c([H])c([H])c([H])c3C([H])([H])C([H])([H])C1([H])[H])C2([H])[H]

$$$$
86:0:0
     RDKit          3D

 85 92  0  0  1  0  0  0  0  0999 V2000
  -28.1290  -23.1150   20.3640 C   0  0  0  0  0  2  0  0  0  0  0  0
  -29.2320  -21.8140   20.4840 C   0  0  0  0  0  2  0  0  0  0  0  0
  -29.5180  -18.9770   20.6740 C   0  0  0  0  0  3  0  0  0  0  0  0
  -29.1070  -20.2020   20.0570 C   0  0  0  0  0  3  0  0  0  0  0  0
  -29.6940  -17.4470   20.1440 C   0  0  0  0  0  3  0  0  0  0  0  0
  -29.7470  -17.4180   18.6220 C   0  0  0  0  0  1  0  0  0  0  0  0
  -29.8600  -16.2980   20.8670 N   0  0  0  0  0  2  0  0  0  0  0  0
  -30.5300  -15.0360   20.4380 C   0  0  0  0  0  0  0  0  0  0  0  0
  -30.3910  -12.6620   19.5240 C   0  0  0  0  0  2  0  0  0  0  0  0
  -29.5090  -12.6330   18.2550 C   0  0  0  0  0  2  0  0  0  0  0  0
  -28.0260  -12.4480   18.6250 C   0  0  0  0  0  2  0  0  0  0  0  0
  -27.5970  -13.3500   19.8130 C   0  0  0  0  0  3  0  0  0  0  0  0
  -28.6220  -13.3740   20.9670 C   0  0  0  0  0  2  0  0  0  0  0  0
  -29.9120  -13.7780   20.3980 N   0  0  0  0  0  0  0  0  0  0  0  0
  -31.6980  -15.0430   20.0380 O   0  0  0  0  0  0  0  0  0  0  0  0
  -25.1990  -13.9150   20.4790 C   0  0  0  0  0  0  0  0  0  0  0  0
  -24.1270  -13.1410   20.8260 C   0  0  0  0  0  0  0  0  0  0  0  0
  -24.5980  -11.7900   20.8290 C   0  0  0  0  0  0  0  0  0  0  0  0
  -26.2520  -13.0390   20.2800 N   0  0  0  0  0  0  0  0  0  0  0  0
  -25.8980  -11.7550   20.5550 N   0  0  0  0  0  0  0  0  0  0  0  0
  -23.8680  -10.5280   21.0180 C   0  0  0  0  0  0  0  0  0  0  0  0
  -24.2810   -9.5710   21.9700 C   0  0  0  0  0  3  0  0  0  0  0  0
  -23.5480   -8.3760   22.1480 C   0  0  0  0  0  3  0  0  0  0  0  0
  -22.3890   -8.1320   21.3750 C   0  0  0  0  0  0  0  0  0  0  0  0
  -21.9940   -9.0790   20.4120 C   0  0  0  0  0  3  0  0  0  0  0  0
  -22.7270  -10.2650   20.2340 C   0  0  0  0  0  3  0  0  0  0  0  0
  -21.6300   -6.9900   21.4610 O   0  0  0  0  0  0  0  0  0  0  0  0
  -21.5650   -6.2530   22.6160 C   0  0  0  0  0  0  0  0  0  0  0  0
  -21.1270   -6.8170   23.8340 C   0  0  0  0  0  3  0  0  0  0  0  0
  -21.0080   -6.0080   24.9820 C   0  0  0  0  0  3  0  0  0  0  0  0
  -21.3140   -4.6360   24.9120 C   0  0  0  0  0  0  0  0  0  0  0  0
  -21.7410   -4.0710   23.6970 C   0  0  0  0  0  3  0  0  0  0  0  0
  -21.8630   -4.8770   22.5520 C   0  0  0  0  0  0  0  0  0  0  0  0
  -22.2550   -4.3230   21.3790 F   0  0  0  0  0  0  0  0  0  0  0  0
  -21.1930   -3.8570   26.0120 F   0  0  0  0  0  0  0  0  0  0  0  0
  -22.7230  -13.6190   21.0500 C   0  0  0  0  0  0  0  0  0  0  0  0
  -21.9720  -12.9330   21.9070 N   0  0  0  0  0  0  0  0  0  0  0  0
  -22.2980  -14.6340   20.5000 O   0  0  0  0  0  0  0  0  0  0  0  0
  -22.3290  -12.1130   22.3730 H   0  0  0  0  0  0  0  0  0  0  0  0
  -21.0270  -13.2320   22.0980 H   0  0  0  0  0  0  0  0  0  0  0  0
  -25.3680  -15.2850   20.2880 N   0  0  0  0  0  0  0  0  0  0  0  0
  -24.6110  -15.9540   20.3800 H   0  0  0  0  0  0  0  0  0  0  0  0
  -26.2480  -15.7150   20.0320 H   0  0  0  0  0  0  0  0  0  0  0  0
  -28.3710  -24.6940   19.7420 C   0  0  0  0  0  2  0  0  0  0  0  0
  -28.2520  -26.1560   20.3140 O   0  0  0  0  0  0  0  0  0  0  0  0
  -24.6150  -31.8660   23.2210 C   0  0  0  0  0  0  0  0  0  0  0  0
  -27.1860  -27.1270   20.1810 C   0  0  0  0  0  0  0  0  0  0  0  0
  -23.4110  -30.4580   21.5940 C   0  0  0  0  0  3  0  0  0  0  0  0
  -24.8540  -28.8810   20.1550 C   0  0  0  0  0  0  0  0  0  0  0  0
  -25.9620  -30.7260   21.4100 C   0  0  0  0  0  2  0  0  0  0  0  0
  -26.0330  -29.3300   20.7590 C   0  0  0  0  0  0  0  0  0  0  0  0
  -27.1940  -28.4660   20.7560 C   0  0  0  0  0  3  0  0  0  0  0  0
  -25.9810  -26.7830   19.5320 C   0  0  0  0  0  3  0  0  0  0  0  0
  -24.8420  -27.6240   19.5260 C   0  0  0  0  0  3  0  0  0  0  0  0
  -23.6230  -29.7780   20.2130 C   0  0  0  0  0  2  0  0  0  0  0  0
  -24.6840  -31.0400   22.1300 N   0  0  0  0  0  0  0  0  0  0  0  0
  -23.5300  -32.1490   23.7540 O   0  0  0  0  0  0  0  0  0  0  0  0
  -22.7410  -29.4540   22.5640 C   0  0  0  0  0  0  0  0  0  0  0  0
  -21.4130  -29.2810   22.4470 N   0  0  0  0  0  0  0  0  0  0  0  0
  -23.4200  -28.8340   23.3870 O   0  0  0  0  0  0  0  0  0  0  0  0
  -20.9220  -29.8340   21.7590 H   0  0  0  0  0  0  0  0  0  0  0  0
  -18.0390  -28.0630   22.9660 C   0  0  0  0  0  0  0  0  0  0  0  0
  -20.5970  -28.3420   23.2240 C   0  0  0  0  0  3  0  0  0  0  0  0
  -20.7050  -26.9080   22.6550 C   0  0  0  0  0  2  0  0  0  0  0  0
  -19.6030  -26.5740   21.6450 C   0  0  0  0  0  2  0  0  0  0  0  0
  -18.2220  -26.7140   22.2920 C   0  0  0  0  0  2  0  0  0  0  0  0
  -19.1550  -28.8360   23.3880 C   0  0  0  0  0  0  0  0  0  0  0  0
  -18.9280  -30.0970   23.9770 C   0  0  0  0  0  3  0  0  0  0  0  0
  -17.6190  -30.5890   24.1460 C   0  0  0  0  0  3  0  0  0  0  0  0
  -16.5190  -29.8130   23.7390 C   0  0  0  0  0  3  0  0  0  0  0  0
  -16.7300  -28.5530   23.1550 C   0  0  0  0  0  3  0  0  0  0  0  0
  -25.8930  -32.5090   23.8400 C   0  0  0  0  0  3  0  0  0  0  0  0
  -26.4140  -31.7440   25.1190 C   0  0  1  0  0  0  0  0  0  0  0  0
  -25.3240  -31.5100   26.1920 C   0  0  0  0  0  1  0  0  0  0  0  0
  -26.9970  -30.3660   24.7330 C   0  0  0  0  0  1  0  0  0  0  0  0
  -27.5650  -32.5420   25.7760 C   0  0  0  0  0  1  0  0  0  0  0  0
  -25.5770  -33.9070   24.1780 N   0  0  0  0  0  0  0  0  0  0  0  0
  -25.8990  -34.9680   23.4260 C   0  0  0  0  0  0  0  0  0  0  0  0
  -26.5610  -34.8740   22.3900 O   0  0  0  0  0  0  0  0  0  0  0  0
  -24.9900  -34.0540   24.9850 H   0  0  0  0  0  0  0  0  0  0  0  0
  -24.1600  -36.7610   23.1010 C   0  0  0  0  0  1  0  0  0  0  0  0
  -25.4120  -36.3540   23.8970 C   0  0  0  0  0  3  0  0  0  0  0  0
  -27.5500  -37.2410   24.7140 C   0  0  0  0  0  1  0  0  0  0  0  0
  -26.4390  -37.4110   23.7820 N   0  0  0  0  0  0  0  0  0  0  0  0
  -26.0300  -38.3280   23.9390 H   0  0  0  0  0  0  0  0  0  0  0  0
  1  2  1  0
  4  2  1  0
  4  3  2  0
  5  6  1  0
  5  3  1  0
  5  7  1  0
  8  7  1  0
  9 14  1  0
 10 11  1  0
 10  9  1  0
 12 11  1  0
 12 19  1  0
 12 13  1  0
 14  8  1  0
 14 13  1  0
 15  8  2  0
 16 17  2  0
 17 18  1  0
 17 36  1  0
 18 21  1  0
 19 16  1  0
 19 20  1  0
 20 18  2  0
 21 22  1  0
 22 23  2  0
 24 27  1  0
 24 23  1  0
 25 24  2  0
 26 25  1  0
 26 21  2  0
 27 28  1  0
 28 29  1  0
 29 30  2  0
 31 30  1  0
 31 35  1  0
 32 31  2  0
 33 28  2  0
 33 32  1  0
 34 33  1  0
 36 37  1  0
 37 40  1  0
 37 39  1  0
 38 36  2  0
 41 42  1  0
 41 16  1  0
 43 41  1  0
 44 45  1  0
 44  1  1  0
 46 57  2  0
 47 45  1  0
 47 52  1  0
 48 56  1  0
 48 58  1  0
 49 55  1  0
 49 51  1  0
 50 56  1  0
 51 50  1  0
 52 51  2  0
 53 47  2  0
 54 53  1  0
 54 49  2  0
 55 48  1  0
 56 46  1  0
 58 60  2  0
 59 58  1  0
 61 59  1  0
 62 71  2  0
 62 67  1  0
 63 59  1  0
 63 67  1  0
 64 63  1  0
 65 66  1  0
 65 64  1  0
 66 62  1  0
 67 68  2  0
 68 69  1  0
 70 69  2  0
 71 70  1  0
 72 46  1  0
 72 77  1  0
 72 73  1  0
 73 76  1  1
 73 74  1  0
 75 73  1  0
 77 80  1  0
 78 82  1  0
 78 77  1  0
 79 78  2  0
 82 81  1  0
 84 82  1  0
 84 85  1  0
 84 83  1  0
M  ISO  4   7 100   8 100  44 101  45 101
M  END
>  <TORSDO>  (87) 
F 20

>  <SCORE>  (87) 
-14.651

>  <name>  (87) 
86

>  <ligand_id>  (87) 
86

>  <original_smiles>  (87) 
[H]C(C(=NC(=O)N1C([H])([H])C([H])([H])C([H])([H])C([H])(n2nc(-c3c([H])c([H])c(Oc4c([H])c([H])c(F)c([H])c4F)c([H])c3[H])c(C(=O)N([H])[H])c2N([H])[H])C1([H])[H])C([H])([H])[H])=C([H])C([H])([H])C([H])([H])C([H])([H])Oc1c([H])c([H])c2c(c1[H])C([H])([H])N(C(=O)C([H])(N([H])C(=O)C([H])(N([H])C([H])([H])[H])C([H])([H])[H])C(C([H])([H])[H])(C([H])([H])[H])C([H])([H])[H])C([H])(C(=O)N([H])C1([H])c3c([H])c([H])c([H])c([H])c3C([H])([H])C([H])([H])C1([H])[H])C2([H])[H]

>  <smiles>  (87) 
[H]C(C(=NC(=O)N1C([H])([H])C([H])([H])C([H])([H])C([H])(n2nc(-c3c([H])c([H])c(Oc4c([H])c([H])c(F)c([H])c4F)c([H])c3[H])c(C(=O)N([H])[H])c2N([H])[H])C1([H])[H])C([H])([H])[H])=C([H])C([H])([H])C([H])([H])C([H])([H])Oc1c([H])c([H])c2c(c1[H])C([H])([H])N(C(=O)C([H])(N([H])C(=O)C([H])(N([H])C([H])([H])[H])C([H])([H])[H])C(C([H])([H])[H])(C([H])([H])[H])C([H])([H])[H])C([H])(C(=O)N([H])C1([H])c3c([H])c([H])c([H])c([H])c3C([H])([H])C([H])([H])C1([H])[H])C2([H])[H]

$$$$
87:0:0
     RDKit          3D

 90 97  0  0  1  0  0  0  0  0999 V2000
  -29.9440  -20.7960   20.1400 C   0  0  0  0  0  0  0  0  0  0  0  0
  -30.4240  -18.0900   19.6100 C   0  0  0  0  0  0  0  0  0  0  0  0
  -30.7310  -19.4660   19.7820 N   0  0  0  0  0  4  0  0  0  0  0  0
  -29.3670  -17.7820   19.0590 O   0  0  0  0  0  0  0  0  0  0  0  0
  -31.6930  -19.5560   20.0820 H   0  0  0  0  0  0  0  0  0  0  0  0
  -30.8840  -16.7250   21.7740 C   0  0  0  0  0  1  0  0  0  0  0  0
  -31.3020  -16.8680   20.2980 C   0  0  0  0  0  3  0  0  0  0  0  0
  -31.6520  -15.3970   19.5930 C   0  0  0  0  0  0  0  0  0  0  0  0
  -31.3080  -13.0230   18.7440 C   0  0  0  0  0  2  0  0  0  0  0  0
  -30.2950  -12.9820   17.5770 C   0  0  0  0  0  2  0  0  0  0  0  0
  -28.8610  -12.8530   18.1160 C   0  0  0  0  0  2  0  0  0  0  0  0
  -28.5840  -13.8450   19.2740 C   0  0  0  0  0  3  0  0  0  0  0  0
  -29.7110  -13.8420   20.3260 C   0  0  0  0  0  2  0  0  0  0  0  0
  -30.9670  -14.1760   19.6360 N   0  0  0  0  0  0  0  0  0  0  0  0
  -32.7400  -15.3540   19.0030 O   0  0  0  0  0  0  0  0  0  0  0  0
  -26.3540  -14.5740   20.2960 C   0  0  0  0  0  0  0  0  0  0  0  0
  -25.2570  -13.8710   20.7100 C   0  0  0  0  0  0  0  0  0  0  0  0
  -25.5780  -12.4900   20.5240 C   0  0  0  0  0  0  0  0  0  0  0  0
  -27.2750  -13.6280   19.8790 N   0  0  0  0  0  0  0  0  0  0  0  0
  -26.8230  -12.3630   20.0800 N   0  0  0  0  0  0  0  0  0  0  0  0
  -24.7490  -11.2880   20.6890 C   0  0  0  0  0  0  0  0  0  0  0  0
  -25.1180  -10.2510   21.5750 C   0  0  0  0  0  3  0  0  0  0  0  0
  -24.2940   -9.1160   21.7300 C   0  0  0  0  0  3  0  0  0  0  0  0
  -23.0870   -9.0080   20.9990 C   0  0  0  0  0  0  0  0  0  0  0  0
  -22.7360  -10.0310   20.1010 C   0  0  0  0  0  3  0  0  0  0  0  0
  -23.5590  -11.1590   19.9440 C   0  0  0  0  0  3  0  0  0  0  0  0
  -22.2380   -7.9300   21.0670 O   0  0  0  0  0  0  0  0  0  0  0  0
  -22.0490   -7.2330   22.2330 C   0  0  0  0  0  0  0  0  0  0  0  0
  -21.5630   -7.8570   23.4030 C   0  0  0  0  0  3  0  0  0  0  0  0
  -21.3180   -7.0900   24.5600 C   0  0  0  0  0  3  0  0  0  0  0  0
  -21.5490   -5.7010   24.5480 C   0  0  0  0  0  0  0  0  0  0  0  0
  -22.0270   -5.0770   23.3820 C   0  0  0  0  0  3  0  0  0  0  0  0
  -22.2740   -5.8420   22.2270 C   0  0  0  0  0  0  0  0  0  0  0  0
  -22.7150   -5.2320   21.1000 F   0  0  0  0  0  0  0  0  0  0  0  0
  -21.3070   -4.9620   25.6550 F   0  0  0  0  0  0  0  0  0  0  0  0
  -23.9470  -14.4480   21.1620 C   0  0  0  0  0  0  0  0  0  0  0  0
  -23.2470  -13.7580   22.0560 N   0  0  0  0  0  0  0  0  0  0  0  0
  -23.5590  -15.5430   20.7570 O   0  0  0  0  0  0  0  0  0  0  0  0
  -23.5770  -12.8680   22.4020 H   0  0  0  0  0  0  0  0  0  0  0  0
  -22.3720  -14.1250   22.4000 H   0  0  0  0  0  0  0  0  0  0  0  0
  -26.6420  -15.9340   20.2170 N   0  0  0  0  0  0  0  0  0  0  0  0
  -25.9720  -16.6470   20.4850 H   0  0  0  0  0  0  0  0  0  0  0  0
  -27.5140  -16.3230   19.8760 H   0  0  0  0  0  0  0  0  0  0  0  0
  -27.5370  -20.0980   20.4080 C   0  0  0  0  0  2  0  0  0  0  0  0
  -28.7080  -20.4540   20.9640 C   0  0  0  0  0  0  0  0  0  0  0  0
  -28.8670  -20.5650   22.4690 C   0  0  0  0  0  1  0  0  0  0  0  0
  -29.6990  -22.1880   19.2240 C   0  0  0  0  0  2  0  0  0  0  0  0
  -29.4570  -23.7280   19.8900 C   0  0  0  0  0  3  0  0  0  0  0  0
  -28.6640  -25.0410   19.1940 C   0  0  0  0  0  3  0  0  0  0  0  0
  -28.6840  -26.5360   19.6410 O   0  0  0  0  0  0  0  0  0  0  0  0
  -24.5940  -31.6520   22.9980 C   0  0  0  0  0  0  0  0  0  0  0  0
  -27.5420  -27.4200   19.6150 C   0  0  0  0  0  0  0  0  0  0  0  0
  -23.5020  -30.2750   21.2690 C   0  0  0  0  0  3  0  0  0  0  0  0
  -25.0670  -28.9440   19.7220 C   0  0  0  0  0  0  0  0  0  0  0  0
  -26.0200  -30.7770   21.1100 C   0  0  0  0  0  2  0  0  0  0  0  0
  -26.2060  -29.4470   20.3600 C   0  0  0  0  0  0  0  0  0  0  0  0
  -27.4400  -28.6980   20.2990 C   0  0  0  0  0  3  0  0  0  0  0  0
  -26.3720  -27.0320   18.9240 C   0  0  0  0  0  3  0  0  0  0  0  0
  -25.1600  -27.7510   18.9900 C   0  0  0  0  0  3  0  0  0  0  0  0
  -23.7650  -29.7210   19.8420 C   0  0  0  0  0  2  0  0  0  0  0  0
  -24.7230  -30.9210   21.8480 N   0  0  0  0  0  0  0  0  0  0  0  0
  -23.4940  -31.7990   23.5510 O   0  0  0  0  0  0  0  0  0  0  0  0
  -22.9290  -29.1440   22.1590 C   0  0  0  0  0  0  0  0  0  0  0  0
  -21.6240  -28.8540   22.0160 N   0  0  0  0  0  0  0  0  0  0  0  0
  -23.6610  -28.5360   22.9430 O   0  0  0  0  0  0  0  0  0  0  0  0
  -21.0840  -29.4060   21.3630 H   0  0  0  0  0  0  0  0  0  0  0  0
  -18.3800  -27.2910   22.4150 C   0  0  0  0  0  0  0  0  0  0  0  0
  -20.8990  -27.7910   22.7190 C   0  0  0  0  0  3  0  0  0  0  0  0
  -21.1450  -26.4150   22.0570 C   0  0  0  0  0  2  0  0  0  0  0  0
  -20.0820  -26.0480   21.0160 C   0  0  0  0  0  2  0  0  0  0  0  0
  -18.6930  -26.0130   21.6570 C   0  0  0  0  0  2  0  0  0  0  0  0
  -19.4160  -28.1340   22.9010 C   0  0  0  0  0  0  0  0  0  0  0  0
  -19.0700  -29.3260   23.5720 C   0  0  0  0  0  3  0  0  0  0  0  0
  -17.7200  -29.6790   23.7620 C   0  0  0  0  0  3  0  0  0  0  0  0
  -16.6990  -28.8360   23.2910 C   0  0  0  0  0  3  0  0  0  0  0  0
  -17.0300  -27.6430   22.6240 C   0  0  0  0  0  3  0  0  0  0  0  0
  -25.8190  -32.3520   23.6600 C   0  0  0  0  0  3  0  0  0  0  0  0
  -25.4090  -33.7170   24.0280 N   0  0  0  0  0  0  0  0  0  0  0  0
  -25.6930  -34.8180   23.3200 C   0  0  0  0  0  0  0  0  0  0  0  0
  -26.3970  -34.7960   22.3070 O   0  0  0  0  0  0  0  0  0  0  0  0
  -24.7830  -33.8020   24.8160 H   0  0  0  0  0  0  0  0  0  0  0  0
  -23.8640  -36.5140   22.9870 C   0  0  0  0  0  1  0  0  0  0  0  0
  -25.1080  -36.1570   23.8150 C   0  0  0  0  0  3  0  0  0  0  0  0
  -27.1600  -37.1470   24.7360 C   0  0  0  0  0  1  0  0  0  0  0  0
  -26.0750  -37.2760   23.7660 N   0  0  0  0  0  0  0  0  0  0  0  0
  -25.6080  -38.1640   23.9300 H   0  0  0  0  0  0  0  0  0  0  0  0
  -26.3630  -31.5810   24.9250 C   0  0  1  0  0  0  0  0  0  0  0  0
  -25.2710  -31.2430   25.9670 C   0  0  0  0  0  1  0  0  0  0  0  0
  -27.0430  -30.2550   24.5120 C   0  0  0  0  0  1  0  0  0  0  0  0
  -27.4480  -32.4310   25.6290 C   0  0  0  0  0  1  0  0  0  0  0  0
  1 45  1  0
  2  3  1  0
  2  7  1  0
  3  5  1  0
  3  1  2  3
  4  2  2  0
  7  6  1  0
  8 14  1  0
  8  7  1  0
  9 14  1  0
 10 11  1  0
 10  9  1  0
 12 11  1  0
 12 19  1  0
 12 13  1  0
 14 13  1  0
 15  8  2  0
 16 17  2  0
 17 36  1  0
 18 21  1  0
 18 17  1  0
 19 20  1  0
 19 16  1  0
 20 18  2  0
 21 22  1  0
 22 23  2  0
 24 27  1  0
 24 23  1  0
 25 24  2  0
 26 25  1  0
 26 21  2  0
 27 28  1  0
 28 29  1  0
 29 30  2  0
 31 30  1  0
 31 35  1  0
 32 31  2  0
 33 28  2  0
 33 32  1  0
 34 33  1  0
 36 37  1  0
 37 40  1  0
 37 39  1  0
 38 36  2  0
 41 16  1  0
 41 42  1  0
 43 41  1  0
 44 45  2  0
 45 46  1  0
 47 48  1  0
 47  1  1  0
 49 50  1  0
 49 48  2  0
 51 62  2  0
 52 50  1  0
 52 57  1  0
 53 61  1  0
 53 63  1  0
 54 60  1  0
 54 56  1  0
 55 61  1  0
 56 55  1  0
 57 56  2  0
 58 59  1  0
 58 52  2  0
 59 54  2  0
 60 53  1  0
 61 51  1  0
 63 65  2  0
 64 63  1  0
 66 64  1  0
 67 76  2  0
 67 72  1  0
 68 64  1  0
 68 72  1  0
 69 68  1  0
 70 71  1  0
 70 69  1  0
 71 67  1  0
 72 73  2  0
 73 74  1  0
 75 74  2  0
 76 75  1  0
 77 51  1  0
 77 78  1  0
 77 87  1  0
 78 81  1  0
 79 83  1  0
 79 78  1  0
 80 79  2  0
 83 82  1  0
 85 83  1  0
 85 86  1  0
 85 84  1  0
 87 90  1  1
 87 88  1  0
 89 87  1  0
M  ISO  4   7 100   8 100  49 101  50 101
M  END
>  <TORSDO>  (88) 
F 22

>  <SCORE>  (88) 
-9.502

>  <name>  (88) 
87

>  <ligand_id>  (88) 
87

>  <original_smiles>  (88) 
[H]C([H])=C(C([H])([H])[H])C([H])(N([H])C(=O)C([H])(C(=O)N1C([H])([H])C([H])([H])C([H])([H])C([H])(n2nc(-c3c([H])c([H])c(Oc4c([H])c([H])c(F)c([H])c4F)c([H])c3[H])c(C(=O)N([H])[H])c2N([H])[H])C1([H])[H])C([H])([H])[H])C([H])([H])C([H])([H])C([H])([H])Oc1c([H])c([H])c2c(c1[H])C([H])([H])N(C(=O)C([H])(N([H])C(=O)C([H])(N([H])C([H])([H])[H])C([H])([H])[H])C(C([H])([H])[H])(C([H])([H])[H])C([H])([H])[H])C([H])(C(=O)N([H])C1([H])c3c([H])c([H])c([H])c([H])c3C([H])([H])C([H])([H])C1([H])[H])C2([H])[H]

>  <smiles>  (88) 
[H]C([H])=C(C([H])([H])[H])C([H])(N([H])C(=O)C([H])(C(=O)N1C([H])([H])C([H])([H])C([H])([H])C([H])(n2nc(-c3c([H])c([H])c(Oc4c([H])c([H])c(F)c([H])c4F)c([H])c3[H])c(C(=O)N([H])[H])c2N([H])[H])C1([H])[H])C([H])([H])[H])C([H])([H])C([H])([H])C([H])([H])Oc1c([H])c([H])c2c(c1[H])C([H])([H])N(C(=O)C([H])(N([H])C(=O)C([H])(N([H])C([H])([H])[H])C([H])([H])[H])C(C([H])([H])[H])(C([H])([H])[H])C([H])([H])[H])C([H])(C(=O)N([H])C1([H])c3c([H])c([H])c([H])c([H])c3C([H])([H])C([H])([H])C1([H])[H])C2([H])[H]

$$$$
88:0:0
     RDKit          3D

 91 99  0  0  1  0  0  0  0  0999 V2000
  -26.7050  -20.0570   19.1580 C   0  0  0  0  0  2  0  0  0  0  0  0
  -27.1690  -19.2470   20.3800 C   0  0  0  0  0  2  0  0  0  0  0  0
  -27.9780  -20.7350   18.6320 C   0  0  0  0  0  2  0  0  0  0  0  0
  -28.6710  -19.5660   20.5660 C   0  0  0  0  0  3  0  0  0  0  0  0
  -28.8420  -20.9120   19.8220 N   0  0  2  0  0  4  0  0  0  0  0  0
  -29.8030  -21.0020   19.5280 H   0  0  0  0  0  0  0  0  0  0  0  0
  -30.6820  -18.4790   19.3970 C   0  0  0  0  0  2  0  0  0  0  0  0
  -29.5790  -18.3060   20.1430 C   0  0  0  0  0  0  0  0  0  0  0  0
  -29.2080  -16.8190   20.5870 C   0  0  0  0  0  2  0  0  0  0  0  0
  -30.7450  -14.6730   20.0870 C   0  0  0  0  0  0  0  0  0  0  0  0
  -30.4050  -12.4200   19.0660 C   0  0  0  0  0  2  0  0  0  0  0  0
  -29.4370  -12.5110   17.8690 C   0  0  0  0  0  2  0  0  0  0  0  0
  -27.9850  -12.3580   18.3590 C   0  0  0  0  0  2  0  0  0  0  0  0
  -27.6730  -13.2620   19.5830 C   0  0  0  0  0  3  0  0  0  0  0  0
  -28.7650  -13.1760   20.6680 C   0  0  0  0  0  2  0  0  0  0  0  0
  -30.0490  -13.4890   20.0330 N   0  0  0  0  0  0  0  0  0  0  0  0
  -31.8620  -14.7440   19.5690 O   0  0  0  0  0  0  0  0  0  0  0  0
  -30.3010  -15.7770   20.7810 N   0  0  0  0  0  0  0  0  0  0  0  0
  -31.1250  -16.2510   21.1250 H   0  0  0  0  0  0  0  0  0  0  0  0
  -25.3490  -13.8830   20.4720 C   0  0  0  0  0  0  0  0  0  0  0  0
  -24.2910  -13.1190   20.8860 C   0  0  0  0  0  0  0  0  0  0  0  0
  -24.7220  -11.7610   20.7890 C   0  0  0  0  0  0  0  0  0  0  0  0
  -26.3540  -12.9880   20.1420 N   0  0  0  0  0  0  0  0  0  0  0  0
  -25.9880  -11.7050   20.3940 N   0  0  0  0  0  0  0  0  0  0  0  0
  -23.9800  -10.5080   20.9860 C   0  0  0  0  0  0  0  0  0  0  0  0
  -24.4190   -9.5230   21.9000 C   0  0  0  0  0  3  0  0  0  0  0  0
  -23.6760   -8.3350   22.0860 C   0  0  0  0  0  3  0  0  0  0  0  0
  -22.4800   -8.1290   21.3580 C   0  0  0  0  0  0  0  0  0  0  0  0
  -22.0620   -9.1000   20.4320 C   0  0  0  0  0  3  0  0  0  0  0  0
  -22.8050  -10.2770   20.2430 C   0  0  0  0  0  3  0  0  0  0  0  0
  -21.7050   -6.9990   21.4570 O   0  0  0  0  0  0  0  0  0  0  0  0
  -21.6410   -6.2670   22.6150 C   0  0  0  0  0  0  0  0  0  0  0  0
  -21.2070   -6.8350   23.8340 C   0  0  0  0  0  3  0  0  0  0  0  0
  -21.0910   -6.0310   24.9850 C   0  0  0  0  0  3  0  0  0  0  0  0
  -21.3990   -4.6580   24.9180 C   0  0  0  0  0  0  0  0  0  0  0  0
  -21.8280   -4.0890   23.7060 C   0  0  0  0  0  3  0  0  0  0  0  0
  -21.9450   -4.8910   22.5570 C   0  0  0  0  0  0  0  0  0  0  0  0
  -22.3370   -4.3340   21.3870 F   0  0  0  0  0  0  0  0  0  0  0  0
  -21.2800   -3.8840   26.0220 F   0  0  0  0  0  0  0  0  0  0  0  0
  -22.9220  -13.6170   21.2470 C   0  0  0  0  0  0  0  0  0  0  0  0
  -22.2230  -12.9190   22.1350 N   0  0  0  0  0  0  0  0  0  0  0  0
  -22.4800  -14.6630   20.7730 O   0  0  0  0  0  0  0  0  0  0  0  0
  -22.5840  -12.0730   22.5460 H   0  0  0  0  0  0  0  0  0  0  0  0
  -21.3000  -13.2360   22.4030 H   0  0  0  0  0  0  0  0  0  0  0  0
  -25.5310  -15.2550   20.3270 N   0  0  0  0  0  0  0  0  0  0  0  0
  -24.7820  -15.9140   20.5080 H   0  0  0  0  0  0  0  0  0  0  0  0
  -26.3600  -15.6880   19.9470 H   0  0  0  0  0  0  0  0  0  0  0  0
  -28.5040  -22.2240   20.5780 C   0  0  0  0  0  2  0  0  0  0  0  0
  -28.6280  -23.6710   19.8350 C   0  0  0  0  0  3  0  0  0  0  0  0
  -28.1380  -25.0140   20.5900 C   0  0  0  0  0  3  0  0  0  0  0  0
  -28.3460  -26.3960   20.0430 O   0  0  0  0  0  0  0  0  0  0  0  0
  -24.5430  -31.7740   23.1010 C   0  0  0  0  0  0  0  0  0  0  0  0
  -27.2450  -27.2700   20.0170 C   0  0  0  0  0  0  0  0  0  0  0  0
  -23.3820  -30.3820   21.4240 C   0  0  0  0  0  3  0  0  0  0  0  0
  -24.8730  -28.8660   19.9940 C   0  0  0  0  0  0  0  0  0  0  0  0
  -25.9190  -30.7240   21.2860 C   0  0  0  0  0  2  0  0  0  0  0  0
  -26.0280  -29.3550   20.6210 C   0  0  0  0  0  0  0  0  0  0  0  0
  -27.2210  -28.5650   20.6260 C   0  0  0  0  0  3  0  0  0  0  0  0
  -26.0740  -26.8450   19.3550 C   0  0  0  0  0  3  0  0  0  0  0  0
  -24.8970  -27.6190   19.3530 C   0  0  0  0  0  3  0  0  0  0  0  0
  -23.6280  -29.7280   20.0370 C   0  0  0  0  0  2  0  0  0  0  0  0
  -24.6320  -30.9770   21.9950 N   0  0  0  0  0  0  0  0  0  0  0  0
  -23.4480  -32.0330   23.6220 O   0  0  0  0  0  0  0  0  0  0  0  0
  -22.7250  -29.3400   22.3610 C   0  0  0  0  0  0  0  0  0  0  0  0
  -21.3970  -29.1730   22.2440 N   0  0  0  0  0  0  0  0  0  0  0  0
  -23.4080  -28.6900   23.1580 O   0  0  0  0  0  0  0  0  0  0  0  0
  -20.9030  -29.7580   21.5840 H   0  0  0  0  0  0  0  0  0  0  0  0
  -18.0160  -27.9890   22.7750 C   0  0  0  0  0  0  0  0  0  0  0  0
  -20.5840  -28.2100   22.9900 C   0  0  0  0  0  3  0  0  0  0  0  0
  -20.6620  -26.8070   22.3450 C   0  0  0  0  0  2  0  0  0  0  0  0
  -19.5180  -26.5300   21.3630 C   0  0  0  0  0  2  0  0  0  0  0  0
  -18.1670  -26.6520   22.0730 C   0  0  0  0  0  2  0  0  0  0  0  0
  -19.1540  -28.7220   23.2050 C   0  0  0  0  0  0  0  0  0  0  0  0
  -18.9620  -29.9650   23.8460 C   0  0  0  0  0  3  0  0  0  0  0  0
  -17.6670  -30.4740   24.0540 C   0  0  0  0  0  3  0  0  0  0  0  0
  -16.5430  -29.7390   23.6330 C   0  0  0  0  0  3  0  0  0  0  0  0
  -16.7190  -28.4970   22.9990 C   0  0  0  0  0  3  0  0  0  0  0  0
  -25.8080  -32.4180   23.7460 C   0  0  0  0  0  3  0  0  0  0  0  0
  -25.4700  -33.8030   24.1060 N   0  0  0  0  0  0  0  0  0  0  0  0
  -25.7800  -34.8780   23.3700 C   0  0  0  0  0  0  0  0  0  0  0  0
  -26.4520  -34.8120   22.3370 O   0  0  0  0  0  0  0  0  0  0  0  0
  -24.8730  -33.9260   24.9090 H   0  0  0  0  0  0  0  0  0  0  0  0
  -24.0150  -36.6440   23.0560 C   0  0  0  0  0  1  0  0  0  0  0  0
  -25.2650  -36.2460   23.8570 C   0  0  0  0  0  3  0  0  0  0  0  0
  -27.3790  -37.1600   24.7120 C   0  0  0  0  0  1  0  0  0  0  0  0
  -26.2760  -37.3230   23.7690 N   0  0  0  0  0  0  0  0  0  0  0  0
  -25.8490  -38.2300   23.9370 H   0  0  0  0  0  0  0  0  0  0  0  0
  -26.3330  -31.6260   25.0080 C   0  0  1  0  0  0  0  0  0  0  0  0
  -25.2380  -31.3470   26.0630 C   0  0  0  0  0  1  0  0  0  0  0  0
  -26.9420  -30.2670   24.5900 C   0  0  0  0  0  1  0  0  0  0  0  0
  -27.4660  -32.4250   25.6950 C   0  0  0  0  0  1  0  0  0  0  0  0
  1  2  1  0
  2  4  1  0
  3  1  1  0
  3  5  1  0
  4  8  1  0
  5  4  1  0
  5 48  1  0
  5  6  1  6
  7  8  2  0
  8  9  1  0
  9 18  1  0
 10 18  1  0
 11 16  1  0
 12 13  1  0
 12 11  1  0
 14 13  1  0
 14 23  1  0
 14 15  1  0
 16 10  1  0
 16 15  1  0
 17 10  2  0
 18 19  1  0
 20 21  2  0
 21 40  1  0
 22 21  1  0
 22 25  1  0
 23 24  1  0
 23 20  1  0
 24 22  2  0
 25 26  1  0
 26 27  2  0
 28 31  1  0
 28 27  1  0
 29 28  2  0
 30 29  1  0
 30 25  2  0
 31 32  1  0
 32 33  1  0
 33 34  2  0
 35 34  1  0
 35 39  1  0
 36 35  2  0
 37 32  2  0
 37 36  1  0
 38 37  1  0
 40 41  1  0
 41 44  1  0
 41 43  1  0
 42 40  2  0
 45 20  1  0
 45 46  1  0
 47 45  1  0
 49 48  1  0
 49 50  2  0
 51 50  1  0
 52 63  2  0
 53 51  1  0
 53 58  1  0
 54 62  1  0
 54 64  1  0
 55 61  1  0
 55 57  1  0
 56 62  1  0
 57 58  2  0
 57 56  1  0
 59 53  2  0
 60 59  1  0
 60 55  2  0
 61 54  1  0
 62 52  1  0
 64 66  2  0
 65 64  1  0
 67 65  1  0
 68 77  2  0
 68 73  1  0
 69 65  1  0
 69 73  1  0
 70 69  1  0
 71 72  1  0
 71 70  1  0
 72 68  1  0
 73 74  2  0
 74 75  1  0
 76 75  2  0
 77 76  1  0
 78 52  1  0
 78 79  1  0
 78 88  1  0
 79 82  1  0
 80 84  1  0
 80 79  1  0
 81 80  2  0
 84 83  1  0
 86 84  1  0
 86 87  1  0
 86 85  1  0
 88 91  1  1
 88 89  1  0
 90 88  1  0
M  ISO  4  10 100  18 100  50 101  51 101
M  END
>  <TORSDO>  (89) 
F 21

>  <SCORE>  (89) 
-12.741

>  <name>  (89) 
88

>  <ligand_id>  (89) 
88

>  <original_smiles>  (89) 
[H]C([H])=C(C([H])([H])N([H])C(=O)N1C([H])([H])C([H])([H])C([H])([H])C([H])(n2nc(-c3c([H])c([H])c(Oc4c([H])c([H])c(F)c([H])c4F)c([H])c3[H])c(C(=O)N([H])[H])c2N([H])[H])C1([H])[H])C1([H])C([H])([H])C([H])([H])C([H])([H])[N+]1([H])C([H])([H])C([H])([H])C([H])([H])Oc1c([H])c([H])c2c(c1[H])C([H])([H])N(C(=O)C([H])(N([H])C(=O)C([H])(N([H])C([H])([H])[H])C([H])([H])[H])C(C([H])([H])[H])(C([H])([H])[H])C([H])([H])[H])C([H])(C(=O)N([H])C1([H])c3c([H])c([H])c([H])c([H])c3C([H])([H])C([H])([H])C1([H])[H])C2([H])[H]

>  <smiles>  (89) 
[H]C([H])=C(C([H])([H])N([H])C(=O)N1C([H])([H])C([H])([H])C([H])([H])C([H])(n2nc(-c3c([H])c([H])c(Oc4c([H])c([H])c(F)c([H])c4F)c([H])c3[H])c(C(=O)N([H])[H])c2N([H])[H])C1([H])[H])C1([H])C([H])([H])C([H])([H])C([H])([H])[N+]1([H])C([H])([H])C([H])([H])C([H])([H])Oc1c([H])c([H])c2c(c1[H])C([H])([H])N(C(=O)C([H])(N([H])C(=O)C([H])(N([H])C([H])([H])[H])C([H])([H])[H])C(C([H])([H])[H])(C([H])([H])[H])C([H])([H])[H])C([H])(C(=O)N([H])C1([H])c3c([H])c([H])c([H])c([H])c3C([H])([H])C([H])([H])C1([H])[H])C2([H])[H]

$$$$
89:0:0
     RDKit          3D

 86 94  0  0  1  0  0  0  0  0999 V2000
  -29.2440  -22.1820   19.7620 C   0  0  0  0  0  3  0  0  0  0  0  0
  -29.9650  -19.1560   19.4590 C   0  0  0  0  0  0  0  0  0  0  0  0
  -27.3370  -18.5110   20.0850 C   0  0  0  0  0  2  0  0  0  0  0  0
  -28.3470  -17.3530   20.3960 C   0  0  0  0  0  2  0  0  0  0  0  0
  -27.8210  -19.9840   20.3470 C   0  0  0  0  0  2  0  0  0  0  0  0
  -29.5750  -17.3600   19.4610 C   0  0  0  0  0  3  0  0  0  0  0  0
  -29.0880  -20.4040   19.7190 N   0  0  0  0  0  0  0  0  0  0  0  0
  -31.1340  -19.4050   19.1580 O   0  0  0  0  0  0  0  0  0  0  0  0
  -30.5160  -15.7280   19.4340 C   0  0  0  0  0  0  0  0  0  0  0  0
  -30.7010  -13.1090   18.8790 C   0  0  0  0  0  2  0  0  0  0  0  0
  -29.7490  -12.5850   17.7620 C   0  0  0  0  0  2  0  0  0  0  0  0
  -28.3580  -12.2440   18.3230 C   0  0  0  0  0  2  0  0  0  0  0  0
  -27.8820  -13.3240   19.3210 C   0  0  0  0  0  3  0  0  0  0  0  0
  -28.9670  -13.7400   20.3380 C   0  0  0  0  0  2  0  0  0  0  0  0
  -30.0940  -14.3310   19.5770 N   0  0  0  0  0  0  0  0  0  0  0  0
  -31.7300  -15.6970   19.1470 O   0  0  0  0  0  0  0  0  0  0  0  0
  -25.6330  -13.8910   20.3560 C   0  0  0  0  0  0  0  0  0  0  0  0
  -24.5850  -13.1270   20.7840 C   0  0  0  0  0  0  0  0  0  0  0  0
  -24.9940  -11.7670   20.6250 C   0  0  0  0  0  0  0  0  0  0  0  0
  -26.6090  -13.0000   19.9510 N   0  0  0  0  0  0  0  0  0  0  0  0
  -26.2460  -11.7110   20.1790 N   0  0  0  0  0  0  0  0  0  0  0  0
  -24.2370  -10.5210   20.8150 C   0  0  0  0  0  0  0  0  0  0  0  0
  -24.6400   -9.5440   21.7520 C   0  0  0  0  0  3  0  0  0  0  0  0
  -23.8810   -8.3670   21.9320 C   0  0  0  0  0  3  0  0  0  0  0  0
  -22.7050   -8.1570   21.1720 C   0  0  0  0  0  0  0  0  0  0  0  0
  -22.3210   -9.1220   20.2240 C   0  0  0  0  0  3  0  0  0  0  0  0
  -23.0800  -10.2900   20.0430 C   0  0  0  0  0  3  0  0  0  0  0  0
  -21.9200   -7.0320   21.2610 O   0  0  0  0  0  0  0  0  0  0  0  0
  -21.7430   -6.3680   22.4480 C   0  0  0  0  0  0  0  0  0  0  0  0
  -21.1930   -7.0050   23.5820 C   0  0  0  0  0  3  0  0  0  0  0  0
  -20.9630   -6.2680   24.7610 C   0  0  0  0  0  3  0  0  0  0  0  0
  -21.2740   -4.8960   24.8060 C   0  0  0  0  0  0  0  0  0  0  0  0
  -21.8150   -4.2590   23.6760 C   0  0  0  0  0  3  0  0  0  0  0  0
  -22.0470   -4.9930   22.5000 C   0  0  0  0  0  0  0  0  0  0  0  0
  -22.5490   -4.3700   21.4070 F   0  0  0  0  0  0  0  0  0  0  0  0
  -21.0460   -4.1860   25.9360 F   0  0  0  0  0  0  0  0  0  0  0  0
  -23.2410  -13.6350   21.2160 C   0  0  0  0  0  0  0  0  0  0  0  0
  -22.5800  -12.9250   22.1250 N   0  0  0  0  0  0  0  0  0  0  0  0
  -22.7900  -14.6950   20.7860 O   0  0  0  0  0  0  0  0  0  0  0  0
  -22.9630  -12.0670   22.4940 H   0  0  0  0  0  0  0  0  0  0  0  0
  -21.6820  -13.2440   22.4560 H   0  0  0  0  0  0  0  0  0  0  0  0
  -25.8320  -15.2640   20.2470 N   0  0  0  0  0  0  0  0  0  0  0  0
  -25.1070  -15.9330   20.4820 H   0  0  0  0  0  0  0  0  0  0  0  0
  -26.6610  -15.6950   19.8600 H   0  0  0  0  0  0  0  0  0  0  0  0
  -28.1920  -23.8100   19.9270 C   0  0  0  0  0  3  0  0  0  0  0  0
  -28.3520  -25.5650   20.0330 O   0  0  0  0  0  0  0  0  0  0  0  0
  -24.8040  -31.7610   23.1200 C   0  0  0  0  0  0  0  0  0  0  0  0
  -27.3600  -26.7630   20.0290 C   0  0  0  0  0  0  0  0  0  0  0  0
  -23.6240  -30.3950   21.4520 C   0  0  0  0  0  3  0  0  0  0  0  0
  -25.0800  -28.7820   20.0100 C   0  0  0  0  0  0  0  0  0  0  0  0
  -26.2030  -30.5520   21.3370 C   0  0  0  0  0  2  0  0  0  0  0  0
  -26.2740  -29.1340   20.6500 C   0  0  0  0  0  0  0  0  0  0  0  0
  -27.3990  -28.1540   20.6250 C   0  0  0  0  0  3  0  0  0  0  0  0
  -26.1270  -26.6180   19.3410 C   0  0  0  0  0  3  0  0  0  0  0  0
  -25.0450  -27.5510   19.3310 C   0  0  0  0  0  3  0  0  0  0  0  0
  -23.8700  -29.7270   20.0680 C   0  0  0  0  0  2  0  0  0  0  0  0
  -24.9010  -30.9340   22.0220 N   0  0  0  0  0  0  0  0  0  0  0  0
  -23.7090  -32.0460   23.6350 O   0  0  0  0  0  0  0  0  0  0  0  0
  -22.9090  -29.3950   22.4000 C   0  0  0  0  0  0  0  0  0  0  0  0
  -21.5800  -29.2280   22.2580 N   0  0  0  0  0  0  0  0  0  0  0  0
  -23.5620  -28.7680   23.2360 O   0  0  0  0  0  0  0  0  0  0  0  0
  -21.1020  -29.7850   21.5630 H   0  0  0  0  0  0  0  0  0  0  0  0
  -18.1980  -27.9840   22.7300 C   0  0  0  0  0  0  0  0  0  0  0  0
  -20.7550  -28.2700   23.0060 C   0  0  0  0  0  3  0  0  0  0  0  0
  -20.8690  -26.8500   22.4060 C   0  0  0  0  0  2  0  0  0  0  0  0
  -19.7750  -26.5380   21.3800 C   0  0  0  0  0  2  0  0  0  0  0  0
  -18.3890  -26.6540   22.0210 C   0  0  0  0  0  2  0  0  0  0  0  0
  -19.3070  -28.7500   23.1780 C   0  0  0  0  0  0  0  0  0  0  0  0
  -19.0700  -29.9930   23.8060 C   0  0  0  0  0  3  0  0  0  0  0  0
  -17.7580  -30.4700   23.9860 C   0  0  0  0  0  3  0  0  0  0  0  0
  -16.6640  -29.7030   23.5500 C   0  0  0  0  0  3  0  0  0  0  0  0
  -16.8850  -28.4610   22.9290 C   0  0  0  0  0  3  0  0  0  0  0  0
  -26.0640  -32.4020   23.7790 C   0  0  0  0  0  3  0  0  0  0  0  0
  -25.7340  -33.7920   24.1490 N   0  0  0  0  0  0  0  0  0  0  0  0
  -26.0440  -34.8780   23.4270 C   0  0  0  0  0  0  0  0  0  0  0  0
  -26.6950  -34.8140   22.3810 O   0  0  0  0  0  0  0  0  0  0  0  0
  -25.1510  -33.9130   24.9630 H   0  0  0  0  0  0  0  0  0  0  0  0
  -24.2890  -36.6710   23.1880 C   0  0  0  0  0  1  0  0  0  0  0  0
  -25.5600  -36.2510   23.9430 C   0  0  0  0  0  3  0  0  0  0  0  0
  -27.7070  -37.1450   24.7360 C   0  0  0  0  0  1  0  0  0  0  0  0
  -26.5780  -37.3190   23.8260 N   0  0  0  0  0  0  0  0  0  0  0  0
  -26.1650  -38.2310   24.0040 H   0  0  0  0  0  0  0  0  0  0  0  0
  -26.5610  -31.6140   25.0540 C   0  0  1  0  0  0  0  0  0  0  0  0
  -25.4520  -31.3540   26.1010 C   0  0  0  0  0  1  0  0  0  0  0  0
  -27.1600  -30.2440   24.6630 C   0  0  0  0  0  1  0  0  0  0  0  0
  -27.6970  -32.4040   25.7470 C   0  0  0  0  0  1  0  0  0  0  0  0
  1 45  2  0
  2  6  1  0
  2  7  1  0
  3  5  1  0
  3  4  1  0
  6  9  1  0
  6  4  1  0
  7  1  1  0
  7  5  1  0
  8  2  2  0
  9 15  1  0
 10 15  1  0
 11 12  1  0
 11 10  1  0
 13 12  1  0
 13 20  1  0
 13 14  1  0
 15 14  1  0
 16  9  2  0
 17 18  2  0
 18 37  1  0
 19 18  1  0
 19 22  1  0
 20 21  1  0
 20 17  1  0
 21 19  2  0
 22 23  1  0
 23 24  2  0
 25 28  1  0
 25 24  1  0
 26 25  2  0
 27 26  1  0
 27 22  2  0
 28 29  1  0
 29 34  2  0
 29 30  1  0
 30 31  2  0
 31 32  1  0
 32 36  1  0
 33 32  2  0
 34 33  1  0
 35 34  1  0
 37 38  1  0
 38 41  1  0
 38 40  1  0
 39 37  2  0
 42 17  1  0
 42 43  1  0
 44 42  1  0
 45 46  1  0
 47 58  2  0
 48 46  1  0
 48 53  1  0
 49 57  1  0
 49 59  1  0
 50 56  1  0
 50 52  1  0
 51 57  1  0
 52 51  1  0
 53 52  2  0
 54 48  2  0
 55 54  1  0
 55 50  2  0
 56 49  1  0
 57 47  1  0
 59 61  2  0
 60 59  1  0
 62 60  1  0
 63 72  2  0
 63 68  1  0
 64 60  1  0
 64 68  1  0
 65 64  1  0
 66 67  1  0
 66 65  1  0
 67 63  1  0
 68 69  2  0
 69 70  1  0
 71 70  2  0
 72 71  1  0
 73 47  1  0
 73 74  1  0
 73 83  1  0
 74 77  1  0
 75 79  1  0
 75 74  1  0
 76 75  2  0
 79 78  1  0
 81 79  1  0
 81 82  1  0
 81 80  1  0
 83 86  1  1
 83 84  1  0
 85 83  1  0
M  ISO  4   6 100   9 100  45 101  46 101
M  END
>  <TORSDO>  (90) 
F 18

>  <SCORE>  (90) 
-15.900

>  <name>  (90) 
89

>  <ligand_id>  (90) 
89

>  <original_smiles>  (90) 
[H]c1c([H])c([H])c2c(c1[H])C([H])([H])C([H])([H])C([H])([H])C2([H])N([H])C(=O)C1([H])N(C(=O)C([H])(N([H])C(=O)C([H])(N([H])C([H])([H])[H])C([H])([H])[H])C(C([H])([H])[H])(C([H])([H])[H])C([H])([H])[H])C([H])([H])c2c([H])c(OC([H])([H])C([H])([H])N3C(=O)C([H])(C(=O)N4C([H])([H])C([H])([H])C([H])([H])C([H])(n5nc(-c6c([H])c([H])c(Oc7c([H])c([H])c(F)c([H])c7F)c([H])c6[H])c(C(=O)N([H])[H])c5N([H])[H])C4([H])[H])C([H])([H])C([H])([H])C3([H])[H])c([H])c([H])c2C1([H])[H]

>  <smiles>  (90) 
[H]c1c([H])c([H])c2c(c1[H])C([H])([H])C([H])([H])C([H])([H])C2([H])N([H])C(=O)C1([H])N(C(=O)C([H])(N([H])C(=O)C([H])(N([H])C([H])([H])[H])C([H])([H])[H])C(C([H])([H])[H])(C([H])([H])[H])C([H])([H])[H])C([H])([H])c2c([H])c(OC([H])([H])C([H])([H])N3C(=O)C([H])(C(=O)N4C([H])([H])C([H])([H])C([H])([H])C([H])(n5nc(-c6c([H])c([H])c(Oc7c([H])c([H])c(F)c([H])c7F)c([H])c6[H])c(C(=O)N([H])[H])c5N([H])[H])C4([H])[H])C([H])([H])C([H])([H])C3([H])[H])c([H])c([H])c2C1([H])[H]

$$$$
90:0:0
     RDKit          3D

 90 98  0  0  1  0  0  0  0  0999 V2000
  -28.8630  -23.8760   19.8300 C   0  0  0  0  0  0  0  0  0  0  0  0
  -29.5440  -24.2900   18.7530 N   0  0  0  0  0  4  0  0  0  0  0  0
  -28.8540  -22.5230   20.1790 N   0  0  0  0  0  0  0  0  0  0  0  0
  -29.5530  -25.2780   18.5480 H   0  0  0  0  0  0  0  0  0  0  0  0
  -30.0450  -23.6640   18.1450 H   0  0  0  0  0  0  0  0  0  0  0  0
  -28.3340  -22.2740   21.0090 H   0  0  0  0  0  0  0  0  0  0  0  0
  -28.6200  -20.3580   18.7820 C   0  0  0  0  0  2  0  0  0  0  0  0
  -29.7380  -19.7890   19.6230 C   0  0  0  0  0  3  0  0  0  0  0  0
  -29.5380  -21.3760   19.4280 C   0  0  0  0  0  3  0  0  0  0  0  0
  -29.4300  -18.7420   20.7570 C   0  0  0  0  0  2  0  0  0  0  0  0
  -29.8010  -15.8640   20.9440 C   0  0  0  0  0  3  0  0  0  0  0  0
  -29.8970  -17.2120   20.5670 C   0  0  0  0  0  3  0  0  0  0  0  0
  -30.5750  -14.7090   20.3650 C   0  0  0  0  0  0  0  0  0  0  0  0
  -30.3800  -12.4540   19.3020 C   0  0  0  0  0  2  0  0  0  0  0  0
  -29.4300  -12.5680   18.0850 C   0  0  0  0  0  2  0  0  0  0  0  0
  -27.9570  -12.4070   18.5140 C   0  0  0  0  0  2  0  0  0  0  0  0
  -27.6040  -13.2610   19.7590 C   0  0  0  0  0  3  0  0  0  0  0  0
  -28.6640  -13.0830   20.8640 C   0  0  0  0  0  2  0  0  0  0  0  0
  -29.9650  -13.4720   20.2970 N   0  0  0  0  0  0  0  0  0  0  0  0
  -31.7130  -14.8430   19.9020 O   0  0  0  0  0  0  0  0  0  0  0  0
  -25.2130  -13.8650   20.4800 C   0  0  0  0  0  0  0  0  0  0  0  0
  -24.1460  -13.0940   20.8560 C   0  0  0  0  0  0  0  0  0  0  0  0
  -24.6080  -11.7420   20.8310 C   0  0  0  0  0  0  0  0  0  0  0  0
  -26.2550  -12.9810   20.2470 N   0  0  0  0  0  0  0  0  0  0  0  0
  -25.8960  -11.7010   20.5180 N   0  0  0  0  0  0  0  0  0  0  0  0
  -23.8800  -10.4820   21.0320 C   0  0  0  0  0  0  0  0  0  0  0  0
  -24.3270   -9.5080   21.9530 C   0  0  0  0  0  3  0  0  0  0  0  0
  -23.5990   -8.3130   22.1390 C   0  0  0  0  0  3  0  0  0  0  0  0
  -22.4120   -8.0830   21.4050 C   0  0  0  0  0  0  0  0  0  0  0  0
  -21.9840   -9.0460   20.4740 C   0  0  0  0  0  3  0  0  0  0  0  0
  -22.7120  -10.2310   20.2850 C   0  0  0  0  0  3  0  0  0  0  0  0
  -21.6550   -6.9400   21.5010 O   0  0  0  0  0  0  0  0  0  0  0  0
  -21.6390   -6.1810   22.6440 C   0  0  0  0  0  0  0  0  0  0  0  0
  -21.2690   -6.7240   23.8940 C   0  0  0  0  0  3  0  0  0  0  0  0
  -21.1980   -5.8940   25.0300 C   0  0  0  0  0  3  0  0  0  0  0  0
  -21.4870   -4.5210   24.9180 C   0  0  0  0  0  0  0  0  0  0  0  0
  -21.8500   -3.9770   23.6730 C   0  0  0  0  0  3  0  0  0  0  0  0
  -21.9220   -4.8050   22.5390 C   0  0  0  0  0  0  0  0  0  0  0  0
  -22.2520   -4.2720   21.3380 F   0  0  0  0  0  0  0  0  0  0  0  0
  -21.4130   -3.7200   26.0070 F   0  0  0  0  0  0  0  0  0  0  0  0
  -22.7510  -13.5760   21.1320 C   0  0  0  0  0  0  0  0  0  0  0  0
  -22.0230  -12.8860   22.0030 N   0  0  0  0  0  0  0  0  0  0  0  0
  -22.3130  -14.6010   20.6100 O   0  0  0  0  0  0  0  0  0  0  0  0
  -22.3880  -12.0580   22.4510 H   0  0  0  0  0  0  0  0  0  0  0  0
  -21.0860  -13.1920   22.2290 H   0  0  0  0  0  0  0  0  0  0  0  0
  -25.3800  -15.2350   20.2970 N   0  0  0  0  0  0  0  0  0  0  0  0
  -24.6190  -15.8940   20.4170 H   0  0  0  0  0  0  0  0  0  0  0  0
  -26.2380  -15.6710   19.9850 H   0  0  0  0  0  0  0  0  0  0  0  0
  -28.1200  -25.0100   20.6010 C   0  0  0  0  0  2  0  0  0  0  0  0
  -28.3280  -26.4290   20.1630 O   0  0  0  0  0  0  0  0  0  0  0  0
  -24.6180  -31.8730   23.2040 C   0  0  0  0  0  0  0  0  0  0  0  0
  -27.2200  -27.2950   20.1510 C   0  0  0  0  0  0  0  0  0  0  0  0
  -23.4110  -30.4720   21.5650 C   0  0  0  0  0  3  0  0  0  0  0  0
  -24.8590  -28.9170   20.1380 C   0  0  0  0  0  0  0  0  0  0  0  0
  -25.9510  -30.7880   21.3780 C   0  0  0  0  0  2  0  0  0  0  0  0
  -26.0300  -29.4040   20.7360 C   0  0  0  0  0  0  0  0  0  0  0  0
  -27.2150  -28.6040   20.7320 C   0  0  0  0  0  3  0  0  0  0  0  0
  -26.0290  -26.8690   19.5240 C   0  0  0  0  0  3  0  0  0  0  0  0
  -24.8620  -27.6570   19.5240 C   0  0  0  0  0  3  0  0  0  0  0  0
  -23.6240  -29.7960   20.1850 C   0  0  0  0  0  2  0  0  0  0  0  0
  -24.6790  -31.0640   22.1060 N   0  0  0  0  0  0  0  0  0  0  0  0
  -23.5350  -32.1500   23.7400 O   0  0  0  0  0  0  0  0  0  0  0  0
  -22.7500  -29.4590   22.5290 C   0  0  0  0  0  0  0  0  0  0  0  0
  -21.4230  -29.2840   22.4050 N   0  0  0  0  0  0  0  0  0  0  0  0
  -23.4300  -28.8300   23.3450 O   0  0  0  0  0  0  0  0  0  0  0  0
  -20.9320  -29.8420   21.7210 H   0  0  0  0  0  0  0  0  0  0  0  0
  -18.0460  -28.0860   22.9090 C   0  0  0  0  0  0  0  0  0  0  0  0
  -20.6050  -28.3470   23.1790 C   0  0  0  0  0  3  0  0  0  0  0  0
  -20.7070  -26.9150   22.6060 C   0  0  0  0  0  2  0  0  0  0  0  0
  -19.6060  -26.5900   21.5920 C   0  0  0  0  0  2  0  0  0  0  0  0
  -18.2240  -26.7350   22.2360 C   0  0  0  0  0  2  0  0  0  0  0  0
  -19.1640  -28.8500   23.3360 C   0  0  0  0  0  0  0  0  0  0  0  0
  -18.9460  -30.1130   23.9270 C   0  0  0  0  0  3  0  0  0  0  0  0
  -17.6410  -30.6150   24.0940 C   0  0  0  0  0  3  0  0  0  0  0  0
  -16.5360  -29.8470   23.6810 C   0  0  0  0  0  3  0  0  0  0  0  0
  -16.7390  -28.5860   23.0940 C   0  0  0  0  0  3  0  0  0  0  0  0
  -25.9020  -32.5070   23.8240 C   0  0  0  0  0  3  0  0  0  0  0  0
  -26.4280  -31.7260   25.0910 C   0  0  1  0  0  0  0  0  0  0  0  0
  -25.3430  -31.4820   26.1660 C   0  0  0  0  0  1  0  0  0  0  0  0
  -27.0100  -30.3520   24.6880 C   0  0  0  0  0  1  0  0  0  0  0  0
  -27.5810  -32.5180   25.7530 C   0  0  0  0  0  1  0  0  0  0  0  0
  -25.5890  -33.9000   24.1680 N   0  0  0  0  0  0  0  0  0  0  0  0
  -25.9100  -34.9610   23.4180 C   0  0  0  0  0  0  0  0  0  0  0  0
  -26.5720  -34.8710   22.3790 O   0  0  0  0  0  0  0  0  0  0  0  0
  -25.0030  -34.0450   24.9790 H   0  0  0  0  0  0  0  0  0  0  0  0
  -24.1690  -36.7490   23.0970 C   0  0  0  0  0  1  0  0  0  0  0  0
  -25.4220  -36.3440   23.8920 C   0  0  0  0  0  3  0  0  0  0  0  0
  -27.5610  -37.2300   24.7060 C   0  0  0  0  0  1  0  0  0  0  0  0
  -26.4470  -37.4030   23.7760 N   0  0  0  0  0  0  0  0  0  0  0  0
  -26.0380  -38.3180   23.9390 H   0  0  0  0  0  0  0  0  0  0  0  0
  1  3  1  0
  1 49  1  0
  2  1  2  0
  3  6  1  0
  4  2  1  0
  5  2  1  0
  7  9  1  0
  7  8  1  0
  8 10  1  0
  9  8  1  0
  9  3  1  0
 12 10  1  0
 12 11  2  0
 13 11  1  0
 14 19  1  0
 15 16  1  0
 15 14  1  0
 17 16  1  0
 17 24  1  0
 17 18  1  0
 19 13  1  0
 19 18  1  0
 20 13  2  0
 21 22  2  0
 22 41  1  0
 23 22  1  0
 23 26  1  0
 24 21  1  0
 24 25  1  0
 25 23  2  0
 26 27  1  0
 27 28  2  0
 29 32  1  0
 29 28  1  0
 30 29  2  0
 31 30  1  0
 31 26  2  0
 32 33  1  0
 33 34  1  0
 34 35  2  0
 36 35  1  0
 36 40  1  0
 37 36  2  0
 38 33  2  0
 38 37  1  0
 39 38  1  0
 41 42  1  0
 42 45  1  0
 42 44  1  0
 43 41  2  0
 46 47  1  0
 46 21  1  0
 48 46  1  0
 50 49  1  0
 51 62  2  0
 52 50  1  0
 52 57  1  0
 53 61  1  0
 53 63  1  0
 54 60  1  0
 54 56  1  0
 55 61  1  0
 56 55  1  0
 57 56  2  0
 58 52  2  0
 59 58  1  0
 59 54  2  0
 60 53  1  0
 61 51  1  0
 63 65  2  0
 64 63  1  0
 66 64  1  0
 67 76  2  0
 67 72  1  0
 68 64  1  0
 68 72  1  0
 69 68  1  0
 70 71  1  0
 70 69  1  0
 71 67  1  0
 72 73  2  0
 73 74  1  0
 75 74  2  0
 76 75  1  0
 77 51  1  0
 77 82  1  0
 77 78  1  0
 78 81  1  1
 78 79  1  0
 80 78  1  0
 82 85  1  0
 83 87  1  0
 83 82  1  0
 84 83  2  0
 87 86  1  0
 89 87  1  0
 89 90  1  0
 89 88  1  0
M  ISO  4  11 100  13 100  49 101  50 101
M  END
>  <TORSDO>  (91) 
F 20

>  <SCORE>  (91) 
-13.665

>  <name>  (91) 
90

>  <ligand_id>  (91) 
90

>  <original_smiles>  (91) 
[H]C(C(=O)N1C([H])([H])C([H])([H])C([H])([H])C([H])(n2nc(-c3c([H])c([H])c(Oc4c([H])c([H])c(F)c([H])c4F)c([H])c3[H])c(C(=O)N([H])[H])c2N([H])[H])C1([H])[H])=C([H])C([H])([H])C1([H])C([H])([H])C1([H])[N+]([H])=C(N([H])[H])C([H])([H])Oc1c([H])c([H])c2c(c1[H])C([H])([H])N(C(=O)C([H])(N([H])C(=O)C([H])(N([H])C([H])([H])[H])C([H])([H])[H])C(C([H])([H])[H])(C([H])([H])[H])C([H])([H])[H])C([H])(C(=O)N([H])C1([H])c3c([H])c([H])c([H])c([H])c3C([H])([H])C([H])([H])C1([H])[H])C2([H])[H]

>  <smiles>  (91) 
[H]C(C(=O)N1C([H])([H])C([H])([H])C([H])([H])C([H])(n2nc(-c3c([H])c([H])c(Oc4c([H])c([H])c(F)c([H])c4F)c([H])c3[H])c(C(=O)N([H])[H])c2N([H])[H])C1([H])[H])=C([H])C([H])([H])C1([H])C([H])([H])C1([H])[N+]([H])=C(N([H])[H])C([H])([H])Oc1c([H])c([H])c2c(c1[H])C([H])([H])N(C(=O)C([H])(N([H])C(=O)C([H])(N([H])C([H])([H])[H])C([H])([H])[H])C(C([H])([H])[H])(C([H])([H])[H])C([H])([H])[H])C([H])(C(=O)N([H])C1([H])c3c([H])c([H])c([H])c([H])c3C([H])([H])C([H])([H])C1([H])[H])C2([H])[H]

$$$$
91:0:0
     RDKit          3D

 93102  0  0  1  0  0  0  0  0999 V2000
  -29.8110  -23.5240   17.4740 C   0  0  0  0  0  2  0  0  0  0  0  0
  -29.9710  -21.9900   17.3890 C   0  0  0  0  0  2  0  0  0  0  0  0
  -27.6350  -21.3400   18.4130 C   0  0  0  0  0  2  0  0  0  0  0  0
  -27.3050  -21.7890   19.8500 C   0  0  0  0  0  2  0  0  0  0  0  0
  -29.9380  -24.1670   18.8720 C   0  0  0  0  0  2  0  0  0  0  0  0
  -29.6340  -21.3060   19.8310 C   0  0  0  0  0  3  0  0  0  0  0  0
  -29.1630  -21.1070   18.3760 C   0  0  0  0  0  3  0  0  0  0  0  0
  -28.6090  -22.4210   20.3580 C   0  0  0  0  0  3  0  0  0  0  0  0
  -28.6890  -23.9310   19.7500 C   0  0  0  0  0  3  0  0  0  0  0  0
  -29.8880  -19.9130   20.5980 C   0  0  0  0  0  3  0  0  0  0  0  0
  -30.7690  -20.0980   21.8180 C   0  0  0  0  0  1  0  0  0  0  0  0
  -29.5430  -18.7190   20.1750 N   0  0  0  0  0  2  0  0  0  0  0  0
  -31.0320  -17.4360   18.8090 C   0  0  0  0  0  1  0  0  0  0  0  0
  -30.4590  -17.5100   20.2420 C   0  0  0  0  0  3  0  0  0  0  0  0
  -29.8270  -16.0890   20.6860 C   0  0  0  0  0  2  0  0  0  0  0  0
  -30.6440  -14.7250   20.4520 C   0  0  0  0  0  0  0  0  0  0  0  0
  -30.4440  -12.4730   19.4100 C   0  0  0  0  0  2  0  0  0  0  0  0
  -29.5300  -12.5940   18.1680 C   0  0  0  0  0  2  0  0  0  0  0  0
  -28.0500  -12.4280   18.5640 C   0  0  0  0  0  2  0  0  0  0  0  0
  -27.6580  -13.3090   19.7790 C   0  0  0  0  0  3  0  0  0  0  0  0
  -28.6900  -13.1930   20.9220 C   0  0  0  0  0  2  0  0  0  0  0  0
  -30.0150  -13.5060   20.3760 N   0  0  0  0  0  0  0  0  0  0  0  0
  -31.8450  -14.7920   20.1780 O   0  0  0  0  0  0  0  0  0  0  0  0
  -25.2580  -13.9180   20.4500 C   0  0  0  0  0  0  0  0  0  0  0  0
  -24.1820  -13.1500   20.8070 C   0  0  0  0  0  0  0  0  0  0  0  0
  -24.6450  -11.7990   20.8090 C   0  0  0  0  0  0  0  0  0  0  0  0
  -26.3040  -13.0330   20.2470 N   0  0  0  0  0  0  0  0  0  0  0  0
  -25.9410  -11.7550   20.5270 N   0  0  0  0  0  0  0  0  0  0  0  0
  -23.9150  -10.5380   21.0010 C   0  0  0  0  0  0  0  0  0  0  0  0
  -24.3300   -9.5810   21.9540 C   0  0  0  0  0  3  0  0  0  0  0  0
  -23.5980   -8.3870   22.1320 C   0  0  0  0  0  3  0  0  0  0  0  0
  -22.4400   -8.1410   21.3580 C   0  0  0  0  0  0  0  0  0  0  0  0
  -22.0460   -9.0880   20.3950 C   0  0  0  0  0  3  0  0  0  0  0  0
  -22.7770  -10.2730   20.2150 C   0  0  0  0  0  3  0  0  0  0  0  0
  -21.6830   -6.9970   21.4440 O   0  0  0  0  0  0  0  0  0  0  0  0
  -21.6160   -6.2650   22.6020 C   0  0  0  0  0  0  0  0  0  0  0  0
  -21.1800   -6.8330   23.8180 C   0  0  0  0  0  3  0  0  0  0  0  0
  -21.0590   -6.0280   24.9690 C   0  0  0  0  0  3  0  0  0  0  0  0
  -21.3660   -4.6550   24.9020 C   0  0  0  0  0  0  0  0  0  0  0  0
  -21.7960   -4.0860   23.6910 C   0  0  0  0  0  3  0  0  0  0  0  0
  -21.9180   -4.8890   22.5440 C   0  0  0  0  0  0  0  0  0  0  0  0
  -22.3130   -4.3320   21.3720 F   0  0  0  0  0  0  0  0  0  0  0  0
  -21.2430   -3.8780   26.0040 F   0  0  0  0  0  0  0  0  0  0  0  0
  -22.7790  -13.6320   21.0390 C   0  0  0  0  0  0  0  0  0  0  0  0
  -22.0320  -12.9460   21.8960 N   0  0  0  0  0  0  0  0  0  0  0  0
  -22.3550  -14.6510   20.4950 O   0  0  0  0  0  0  0  0  0  0  0  0
  -22.3910  -12.1240   22.3560 H   0  0  0  0  0  0  0  0  0  0  0  0
  -21.0900  -13.2500   22.0980 H   0  0  0  0  0  0  0  0  0  0  0  0
  -25.4330  -15.2860   20.2610 N   0  0  0  0  0  0  0  0  0  0  0  0
  -24.6760  -15.9540   20.3520 H   0  0  0  0  0  0  0  0  0  0  0  0
  -26.3020  -15.7120   19.9650 H   0  0  0  0  0  0  0  0  0  0  0  0
  -28.3960  -25.1760   20.7080 C   0  0  0  0  0  2  0  0  0  0  0  0
  -28.4640  -26.5530   20.1620 O   0  0  0  0  0  0  0  0  0  0  0  0
  -24.6910  -31.8930   23.2150 C   0  0  0  0  0  0  0  0  0  0  0  0
  -27.3190  -27.3580   20.1680 C   0  0  0  0  0  0  0  0  0  0  0  0
  -23.4850  -30.4850   21.5810 C   0  0  0  0  0  3  0  0  0  0  0  0
  -24.9360  -28.9300   20.1600 C   0  0  0  0  0  0  0  0  0  0  0  0
  -26.0190  -30.8220   21.3830 C   0  0  0  0  0  2  0  0  0  0  0  0
  -26.1050  -29.4430   20.7410 C   0  0  0  0  0  0  0  0  0  0  0  0
  -27.3020  -28.6700   20.7260 C   0  0  0  0  0  3  0  0  0  0  0  0
  -26.1300  -26.8820   19.5770 C   0  0  0  0  0  3  0  0  0  0  0  0
  -24.9500  -27.6540   19.5710 C   0  0  0  0  0  3  0  0  0  0  0  0
  -23.6960  -29.8020   20.2040 C   0  0  0  0  0  2  0  0  0  0  0  0
  -24.7500  -31.0850   22.1160 N   0  0  0  0  0  0  0  0  0  0  0  0
  -23.6090  -32.1630   23.7580 O   0  0  0  0  0  0  0  0  0  0  0  0
  -22.8340  -29.4670   22.5470 C   0  0  0  0  0  0  0  0  0  0  0  0
  -21.5080  -29.2840   22.4270 N   0  0  0  0  0  0  0  0  0  0  0  0
  -23.5190  -28.8450   23.3630 O   0  0  0  0  0  0  0  0  0  0  0  0
  -21.0140  -29.8440   21.7450 H   0  0  0  0  0  0  0  0  0  0  0  0
  -18.1380  -28.0690   22.9370 C   0  0  0  0  0  0  0  0  0  0  0  0
  -20.6960  -28.3440   23.2010 C   0  0  0  0  0  3  0  0  0  0  0  0
  -20.8030  -26.9100   22.6290 C   0  0  0  0  0  2  0  0  0  0  0  0
  -19.7000  -26.5780   21.6180 C   0  0  0  0  0  2  0  0  0  0  0  0
  -18.3190  -26.7180   22.2650 C   0  0  0  0  0  2  0  0  0  0  0  0
  -19.2540  -28.8380   23.3620 C   0  0  0  0  0  0  0  0  0  0  0  0
  -19.0290  -30.1020   23.9490 C   0  0  0  0  0  3  0  0  0  0  0  0
  -17.7220  -30.5960   24.1170 C   0  0  0  0  0  3  0  0  0  0  0  0
  -16.6200  -29.8220   23.7110 C   0  0  0  0  0  3  0  0  0  0  0  0
  -16.8300  -28.5620   23.1240 C   0  0  0  0  0  3  0  0  0  0  0  0
  -25.9730  -32.5300   23.8340 C   0  0  0  0  0  3  0  0  0  0  0  0
  -26.5040  -31.7580   25.1050 C   0  0  1  0  0  0  0  0  0  0  0  0
  -25.4220  -31.5120   26.1830 C   0  0  0  0  0  1  0  0  0  0  0  0
  -27.0930  -30.3850   24.7060 C   0  0  0  0  0  1  0  0  0  0  0  0
  -27.6550  -32.5580   25.7600 C   0  0  0  0  0  1  0  0  0  0  0  0
  -25.6590  -33.9250   24.1720 N   0  0  0  0  0  0  0  0  0  0  0  0
  -25.9800  -34.9840   23.4170 C   0  0  0  0  0  0  0  0  0  0  0  0
  -26.6430  -34.8880   22.3810 O   0  0  0  0  0  0  0  0  0  0  0  0
  -25.0700  -34.0730   24.9780 H   0  0  0  0  0  0  0  0  0  0  0  0
  -24.2410  -36.7710   23.0840 C   0  0  0  0  0  1  0  0  0  0  0  0
  -25.4890  -36.3680   23.8860 C   0  0  0  0  0  3  0  0  0  0  0  0
  -27.6240  -37.2570   24.7080 C   0  0  0  0  0  1  0  0  0  0  0  0
  -26.5150  -37.4260   23.7730 N   0  0  0  0  0  0  0  0  0  0  0  0
  -26.1070  -38.3430   23.9290 H   0  0  0  0  0  0  0  0  0  0  0  0
  1  5  1  0
  2  1  1  0
  3  4  1  0
  5  9  1  0
  6  8  1  0
  6 10  1  0
  7  2  1  0
  7  3  1  0
  7  6  1  0
  8  4  1  0
  9  8  1  0
  9 52  1  0
 10 11  1  0
 12 14  1  0
 12 10  1  0
 14 13  1  0
 14 15  1  0
 16 15  1  0
 17 22  1  0
 18 19  1  0
 18 17  1  0
 20 19  1  0
 20 27  1  0
 20 21  1  0
 22 16  1  0
 22 21  1  0
 23 16  2  0
 24 25  2  0
 25 26  1  0
 25 44  1  0
 26 29  1  0
 27 24  1  0
 27 28  1  0
 28 26  2  0
 29 30  1  0
 30 31  2  0
 32 35  1  0
 32 31  1  0
 33 32  2  0
 34 33  1  0
 34 29  2  0
 35 36  1  0
 36 37  1  0
 37 38  2  0
 39 38  1  0
 39 43  1  0
 40 39  2  0
 41 36  2  0
 41 40  1  0
 42 41  1  0
 44 45  1  0
 45 48  1  0
 45 47  1  0
 46 44  2  0
 49 50  1  0
 49 24  1  0
 51 49  1  0
 53 55  1  0
 53 52  1  0
 54 65  2  0
 55 60  1  0
 56 64  1  0
 56 66  1  0
 57 63  1  0
 57 59  1  0
 58 64  1  0
 59 58  1  0
 60 59  2  0
 61 55  2  0
 62 61  1  0
 62 57  2  0
 63 56  1  0
 64 54  1  0
 66 68  2  0
 67 66  1  0
 69 67  1  0
 70 79  2  0
 70 75  1  0
 71 67  1  0
 71 75  1  0
 72 71  1  0
 73 74  1  0
 73 72  1  0
 74 70  1  0
 75 76  2  0
 76 77  1  0
 78 77  2  0
 79 78  1  0
 80 54  1  0
 80 85  1  0
 80 81  1  0
 81 84  1  1
 81 82  1  0
 83 81  1  0
 85 88  1  0
 86 90  1  0
 86 85  1  0
 87 86  2  0
 90 89  1  0
 92 90  1  0
 92 93  1  0
 92 91  1  0
M  ISO  4  15 100  16 100  52 101  53 101
M  END
>  <TORSDO>  (92) 
F 20

>  <SCORE>  (92) 
-13.947

>  <name>  (92) 
91

>  <ligand_id>  (92) 
91

>  <original_smiles>  (92) 
[H]c1c([H])c([H])c2c(c1[H])C([H])([H])C([H])([H])C([H])([H])C2([H])N([H])C(=O)C1([H])N(C(=O)C([H])(N([H])C(=O)C([H])(N([H])C([H])([H])[H])C([H])([H])[H])C(C([H])([H])[H])(C([H])([H])[H])C([H])([H])[H])C([H])([H])c2c([H])c(OC([H])([H])C3([H])C([H])([H])C([H])([H])C([H])([H])C4([H])C([H])([H])C([H])([H])C3([H])C4([H])C(=NC([H])(C([H])([H])[H])C([H])([H])C(=O)N3C([H])([H])C([H])([H])C([H])([H])C([H])(n4nc(-c5c([H])c([H])c(Oc6c([H])c([H])c(F)c([H])c6F)c([H])c5[H])c(C(=O)N([H])[H])c4N([H])[H])C3([H])[H])C([H])([H])[H])c([H])c([H])c2C1([H])[H]

>  <smiles>  (92) 
[H]c1c([H])c([H])c2c(c1[H])C([H])([H])C([H])([H])C([H])([H])C2([H])N([H])C(=O)C1([H])N(C(=O)C([H])(N([H])C(=O)C([H])(N([H])C([H])([H])[H])C([H])([H])[H])C(C([H])([H])[H])(C([H])([H])[H])C([H])([H])[H])C([H])([H])c2c([H])c(OC([H])([H])C3([H])C([H])([H])C([H])([H])C([H])([H])C4([H])C([H])([H])C([H])([H])C3([H])C4([H])C(=NC([H])(C([H])([H])[H])C([H])([H])C(=O)N3C([H])([H])C([H])([H])C([H])([H])C([H])(n4nc(-c5c([H])c([H])c(Oc6c([H])c([H])c(F)c([H])c6F)c([H])c5[H])c(C(=O)N([H])[H])c4N([H])[H])C3([H])[H])C([H])([H])[H])c([H])c([H])c2C1([H])[H]

$$$$
92:0:0
     RDKit          3D

 82 86  0  0  1  0  0  0  0  0999 V2000
  -28.1950  -25.0660   20.2230 O   0  0  0  0  0  1  0  0  0  0  0  0
  -24.7130  -31.7650   23.1270 C   0  0  0  0  0  0  0  0  0  0  0  0
  -27.2360  -26.3970   20.2550 C   0  0  0  0  0  0  0  0  0  0  0  0
  -23.5520  -30.3540   21.4890 C   0  0  0  0  0  3  0  0  0  0  0  0
  -25.0100  -28.6270   20.1370 C   0  0  0  0  0  0  0  0  0  0  0  0
  -26.1450  -30.3990   21.4360 C   0  0  0  0  0  2  0  0  0  0  0  0
  -26.2060  -28.9270   20.7980 C   0  0  0  0  0  0  0  0  0  0  0  0
  -27.2930  -27.8540   20.8080 C   0  0  0  0  0  3  0  0  0  0  0  0
  -26.0000  -26.3830   19.5360 C   0  0  0  0  0  3  0  0  0  0  0  0
  -24.9630  -27.3830   19.4800 C   0  0  0  0  0  3  0  0  0  0  0  0
  -23.8230  -29.6210   20.1400 C   0  0  0  0  0  2  0  0  0  0  0  0
  -24.8300  -30.8800   22.0690 N   0  0  0  0  0  0  0  0  0  0  0  0
  -23.6080  -32.0870   23.6030 O   0  0  0  0  0  0  0  0  0  0  0  0
  -22.7890  -29.4140   22.4640 C   0  0  0  0  0  0  0  0  0  0  0  0
  -21.4510  -29.3000   22.3380 N   0  0  0  0  0  0  0  0  0  0  0  0
  -23.4190  -28.7780   23.3130 O   0  0  0  0  0  0  0  0  0  0  0  0
  -20.9890  -29.8610   21.6360 H   0  0  0  0  0  0  0  0  0  0  0  0
  -18.0360  -28.1440   22.8440 C   0  0  0  0  0  0  0  0  0  0  0  0
  -20.6010  -28.3810   23.1090 C   0  0  0  0  0  3  0  0  0  0  0  0
  -20.6810  -26.9440   22.5410 C   0  0  0  0  0  2  0  0  0  0  0  0
  -19.5790  -26.6360   21.5220 C   0  0  0  0  0  2  0  0  0  0  0  0
  -18.1970  -26.7960   22.1610 C   0  0  0  0  0  2  0  0  0  0  0  0
  -19.1630  -28.8950   23.2740 C   0  0  0  0  0  0  0  0  0  0  0  0
  -18.9530  -30.1530   23.8790 C   0  0  0  0  0  3  0  0  0  0  0  0
  -17.6520  -30.6610   24.0540 C   0  0  0  0  0  3  0  0  0  0  0  0
  -16.5400  -29.9090   23.6360 C   0  0  0  0  0  3  0  0  0  0  0  0
  -16.7330  -28.6510   23.0370 C   0  0  0  0  0  3  0  0  0  0  0  0
  -25.9560  -32.4300   23.7930 C   0  0  0  0  0  3  0  0  0  0  0  0
  -25.6020  -33.8140   24.1780 N   0  0  0  0  0  0  0  0  0  0  0  0
  -25.9160  -34.9190   23.4880 C   0  0  0  0  0  0  0  0  0  0  0  0
  -26.5840  -34.8830   22.4530 O   0  0  0  0  0  0  0  0  0  0  0  0
  -25.0020  -33.9130   24.9840 H   0  0  0  0  0  0  0  0  0  0  0  0
  -24.1500  -36.7080   23.2660 C   0  0  0  0  0  1  0  0  0  0  0  0
  -25.4160  -36.2800   24.0260 C   0  0  0  0  0  3  0  0  0  0  0  0
  -27.5550  -37.1700   24.8470 C   0  0  0  0  0  1  0  0  0  0  0  0
  -26.4260  -37.3590   23.9410 N   0  0  0  0  0  0  0  0  0  0  0  0
  -26.0060  -38.2620   24.1420 H   0  0  0  0  0  0  0  0  0  0  0  0
  -26.4640  -31.6460   25.0670 C   0  0  1  0  0  0  0  0  0  0  0  0
  -25.3630  -31.3860   26.1230 C   0  0  0  0  0  1  0  0  0  0  0  0
  -27.0630  -30.2770   24.6780 C   0  0  0  0  0  1  0  0  0  0  0  0
  -27.6030  -32.4390   25.7510 C   0  0  0  0  0  1  0  0  0  0  0  0
  -28.2650  -23.1700   20.5350 C   0  0  0  0  0 15  0  0  0  0  0  0
  -29.5190  -21.5020   18.6560 C   0  0  0  0  0  1  0  0  0  0  0  0
  -28.7290  -21.1800   19.9290 C   0  0  0  0  0  1  0  0  0  0  0  0
  -29.3330  -17.7170   20.1520 C   0  0  0  0  0  2  0  0  0  0  0  0
  -29.4440  -19.3330   20.3500 C   0  0  0  0  0  1  0  0  0  0  0  0
  -30.1400  -16.0690   20.2880 C   0  0  0  0  0  0  0  0  0  0  0  0
  -30.3900  -13.4040   19.5480 C   0  0  0  0  0  2  0  0  0  0  0  0
  -29.5700  -12.7720   18.3710 C   0  0  0  0  0  2  0  0  0  0  0  0
  -28.1780  -12.3210   18.8290 C   0  0  0  0  0  2  0  0  0  0  0  0
  -27.5790  -13.3580   19.7980 C   0  0  0  0  0  3  0  0  0  0  0  0
  -28.5580  -13.8790   20.8850 C   0  0  0  0  0  2  0  0  0  0  0  0
  -29.6730  -14.6250   20.2140 N   0  0  0  0  0  0  0  0  0  0  0  0
  -31.3850  -15.9020   20.2420 O   0  0  0  0  0  0  0  0  0  0  0  0
  -25.2260  -13.8360   20.5840 C   0  0  0  0  0  0  0  0  0  0  0  0
  -24.1690  -13.0440   20.9300 C   0  0  0  0  0  0  0  0  0  0  0  0
  -24.6460  -11.6980   20.8740 C   0  0  0  0  0  0  0  0  0  0  0  0
  -26.2750  -12.9790   20.3240 N   0  0  0  0  0  0  0  0  0  0  0  0
  -25.9420  -11.6800   20.5640 N   0  0  0  0  0  0  0  0  0  0  0  0
  -23.9170  -10.4300   21.0370 C   0  0  0  0  0  0  0  0  0  0  0  0
  -24.3690   -9.4210   21.9160 C   0  0  0  0  0  3  0  0  0  0  0  0
  -23.6330   -8.2260   22.0750 C   0  0  0  0  0  3  0  0  0  0  0  0
  -22.4310   -8.0300   21.3540 C   0  0  0  0  0  0  0  0  0  0  0  0
  -21.9970   -9.0280   20.4640 C   0  0  0  0  0  3  0  0  0  0  0  0
  -22.7320  -10.2140   20.3030 C   0  0  0  0  0  3  0  0  0  0  0  0
  -21.6660   -6.8900   21.4240 O   0  0  0  0  0  0  0  0  0  0  0  0
  -21.6870   -6.0750   22.5280 C   0  0  0  0  0  0  0  0  0  0  0  0
  -21.4020   -6.5650   23.8210 C   0  0  0  0  0  3  0  0  0  0  0  0
  -21.3660   -5.6800   24.9170 C   0  0  0  0  0  3  0  0  0  0  0  0
  -21.6040   -4.3060   24.7220 C   0  0  0  0  0  0  0  0  0  0  0  0
  -21.8820   -3.8160   23.4340 C   0  0  0  0  0  3  0  0  0  0  0  0
  -21.9200   -4.6970   22.3400 C   0  0  0  0  0  0  0  0  0  0  0  0
  -22.1660   -4.2160   21.0980 F   0  0  0  0  0  0  0  0  0  0  0  0
  -21.5630   -3.4540   25.7730 F   0  0  0  0  0  0  0  0  0  0  0  0
  -22.7690  -13.5140   21.1940 C   0  0  0  0  0  0  0  0  0  0  0  0
  -22.0380  -12.8100   22.0490 N   0  0  0  0  0  0  0  0  0  0  0  0
  -22.3350  -14.5430   20.6770 O   0  0  0  0  0  0  0  0  0  0  0  0
  -22.4040  -11.9780   22.4880 H   0  0  0  0  0  0  0  0  0  0  0  0
  -21.0980  -13.1070   22.2690 H   0  0  0  0  0  0  0  0  0  0  0  0
  -25.3790  -15.2110   20.4320 N   0  0  0  0  0  0  0  0  0  0  0  0
  -24.6080  -15.8580   20.5580 H   0  0  0  0  0  0  0  0  0  0  0  0
  -26.2300  -15.6640   20.1240 H   0  0  0  0  0  0  0  0  0  0  0  0
  1  3  1  0
  2 13  2  0
  3  8  1  0
  4 12  1  0
  4 14  1  0
  5 11  1  0
  5  7  1  0
  6 12  1  0
  7  8  2  0
  7  6  1  0
  9  3  2  0
 10  9  1  0
 10  5  2  0
 11  4  1  0
 12  2  1  0
 14 16  2  0
 15 14  1  0
 17 15  1  0
 18 27  2  0
 18 23  1  0
 19 15  1  0
 19 23  1  0
 20 19  1  0
 21 22  1  0
 21 20  1  0
 22 18  1  0
 23 24  2  0
 24 25  1  0
 26 25  2  0
 27 26  1  0
 28  2  1  0
 28 29  1  0
 28 38  1  0
 29 32  1  0
 30 34  1  0
 30 29  1  0
 31 30  2  0
 34 33  1  0
 36 34  1  0
 36 37  1  0
 36 35  1  0
 38 41  1  1
 38 39  1  0
 40 38  1  0
 43 44  1  0
 45 47  1  0
 45 46  1  0
 48 53  1  0
 49 50  1  0
 49 48  1  0
 51 50  1  0
 51 58  1  0
 51 52  1  0
 53 47  1  0
 53 52  1  0
 54 47  2  0
 55 56  2  0
 56 75  1  0
 57 56  1  0
 57 60  1  0
 58 59  1  0
 58 55  1  0
 59 57  2  0
 60 61  1  0
 61 62  2  0
 63 66  1  0
 63 62  1  0
 64 63  2  0
 65 64  1  0
 65 60  2  0
 66 67  1  0
 67 68  1  0
 68 69  2  0
 70 69  1  0
 70 74  1  0
 71 70  2  0
 72 67  2  0
 72 71  1  0
 73 72  1  0
 75 76  1  0
 76 79  1  0
 76 78  1  0
 77 75  2  0
 80 81  1  0
 80 55  1  0
 82 80  1  0
M  ISO  4   1 101  42 101  45 100  47 100
M  END
>  <TORSDO>  (93) 
F 18

>  <SCORE>  (93) 
-15.872

>  <name>  (93) 
92

>  <ligand_id>  (93) 
92

>  <original_smiles>  (93) 
[H]C(C(=O)N1C([H])([H])C([H])([H])C([H])([H])C([H])(n2nc(-c3c([H])c([H])c(Oc4c([H])c([H])c(F)c([H])c4F)c([H])c3[H])c(C(=O)N([H])[H])c2N([H])[H])C1([H])[H])=C([H])C([H])(C([H])([H])[H])C([H])([H])Oc1c([H])c([H])c2c(c1[H])C([H])([H])N(C(=O)C([H])(N([H])C(=O)C([H])(N([H])C([H])([H])[H])C([H])([H])[H])C(C([H])([H])[H])(C([H])([H])[H])C([H])([H])[H])C([H])(C(=O)N([H])C1([H])c3c([H])c([H])c([H])c([H])c3C([H])([H])C([H])([H])C1([H])[H])C2([H])[H]

>  <smiles>  (93) 
[H]C(C(=O)N1C([H])([H])C([H])([H])C([H])([H])C([H])(n2nc(-c3c([H])c([H])c(Oc4c([H])c([H])c(F)c([H])c4F)c([H])c3[H])c(C(=O)N([H])[H])c2N([H])[H])C1([H])[H])=C([H])C([H])(C([H])([H])[H])C([H])([H])Oc1c([H])c([H])c2c(c1[H])C([H])([H])N(C(=O)C([H])(N([H])C(=O)C([H])(N([H])C([H])([H])[H])C([H])([H])[H])C(C([H])([H])[H])(C([H])([H])[H])C([H])([H])[H])C([H])(C(=O)N([H])C1([H])c3c([H])c([H])c([H])c([H])c3C([H])([H])C([H])([H])C1([H])[H])C2([H])[H]

$$$$
93:0:0
     RDKit          3D

 93101  0  0  1  0  0  0  0  0999 V2000
  -29.5440  -20.7930   20.6150 C   0  0  0  0  0  0  0  0  0  0  0  0
  -27.8040  -23.8790   18.9670 C   0  0  0  0  0  2  0  0  0  0  0  0
  -27.8760  -22.3260   19.2380 C   0  0  0  0  0  2  0  0  0  0  0  0
  -29.0780  -23.4670   20.8660 C   0  0  0  0  0  2  0  0  0  0  0  0
  -28.0370  -24.6160   20.3040 C   0  0  0  0  0  3  0  0  0  0  0  0
  -28.9070  -22.0420   20.2550 N   0  0  0  0  0  0  0  0  0  0  0  0
  -30.2260  -20.8220   21.6420 O   0  0  0  0  0  0  0  0  0  0  0  0
  -28.2540  -26.1770   20.3040 O   0  0  0  0  0  0  0  0  0  0  0  0
  -24.6130  -31.9130   23.2440 C   0  0  0  0  0  0  0  0  0  0  0  0
  -27.1870  -27.1580   20.2500 C   0  0  0  0  0  0  0  0  0  0  0  0
  -23.4130  -30.5040   21.6160 C   0  0  0  0  0  3  0  0  0  0  0  0
  -24.8590  -28.9160   20.2050 C   0  0  0  0  0  0  0  0  0  0  0  0
  -25.9680  -30.7650   21.4470 C   0  0  0  0  0  2  0  0  0  0  0  0
  -26.0420  -29.3660   20.8060 C   0  0  0  0  0  0  0  0  0  0  0  0
  -27.2080  -28.5060   20.8050 C   0  0  0  0  0  3  0  0  0  0  0  0
  -25.9720  -26.8130   19.6210 C   0  0  0  0  0  3  0  0  0  0  0  0
  -24.8380  -27.6540   19.5970 C   0  0  0  0  0  3  0  0  0  0  0  0
  -23.6340  -29.8170   20.2430 C   0  0  0  0  0  2  0  0  0  0  0  0
  -24.6850  -31.0830   22.1570 N   0  0  0  0  0  0  0  0  0  0  0  0
  -23.5270  -32.2010   23.7690 O   0  0  0  0  0  0  0  0  0  0  0  0
  -22.7330  -29.5050   22.5870 C   0  0  0  0  0  0  0  0  0  0  0  0
  -21.4050  -29.3340   22.4620 N   0  0  0  0  0  0  0  0  0  0  0  0
  -23.4040  -28.8860   23.4160 O   0  0  0  0  0  0  0  0  0  0  0  0
  -20.9190  -29.8850   21.7680 H   0  0  0  0  0  0  0  0  0  0  0  0
  -18.0250  -28.1340   22.9720 C   0  0  0  0  0  0  0  0  0  0  0  0
  -20.5830  -28.4040   23.2410 C   0  0  0  0  0  3  0  0  0  0  0  0
  -20.6880  -26.9660   22.6810 C   0  0  0  0  0  2  0  0  0  0  0  0
  -19.5880  -26.6300   21.6680 C   0  0  0  0  0  2  0  0  0  0  0  0
  -18.2060  -26.7790   22.3090 C   0  0  0  0  0  2  0  0  0  0  0  0
  -19.1410  -28.9030   23.3960 C   0  0  0  0  0  0  0  0  0  0  0  0
  -18.9160  -30.1700   23.9770 C   0  0  0  0  0  3  0  0  0  0  0  0
  -17.6100  -30.6670   24.1390 C   0  0  0  0  0  3  0  0  0  0  0  0
  -16.5090  -29.8950   23.7300 C   0  0  0  0  0  3  0  0  0  0  0  0
  -16.7160  -28.6300   23.1530 C   0  0  0  0  0  3  0  0  0  0  0  0
  -25.8910  -32.5530   23.8660 C   0  0  0  0  0  3  0  0  0  0  0  0
  -26.4010  -31.7940   25.1520 C   0  0  1  0  0  0  0  0  0  0  0  0
  -25.3040  -31.5710   26.2190 C   0  0  0  0  0  1  0  0  0  0  0  0
  -26.9840  -30.4120   24.7810 C   0  0  0  0  0  1  0  0  0  0  0  0
  -27.5500  -32.5950   25.8100 C   0  0  0  0  0  1  0  0  0  0  0  0
  -25.5780  -33.9550   24.1890 N   0  0  0  0  0  0  0  0  0  0  0  0
  -25.9070  -35.0070   23.4280 C   0  0  0  0  0  0  0  0  0  0  0  0
  -26.5720  -34.9020   22.3950 O   0  0  0  0  0  0  0  0  0  0  0  0
  -24.9870  -34.1110   24.9920 H   0  0  0  0  0  0  0  0  0  0  0  0
  -24.1790  -36.8050   23.0800 C   0  0  0  0  0  1  0  0  0  0  0  0
  -25.4240  -36.3990   23.8860 C   0  0  0  0  0  3  0  0  0  0  0  0
  -27.5610  -37.2860   24.7070 C   0  0  0  0  0  1  0  0  0  0  0  0
  -26.4570  -37.4510   23.7660 N   0  0  0  0  0  0  0  0  0  0  0  0
  -26.0520  -38.3720   23.9100 H   0  0  0  0  0  0  0  0  0  0  0  0
  -29.5680  -19.2950   19.8390 C   0  0  0  0  0  3  0  0  0  0  0  0
  -30.1190  -20.4330   17.5210 C   0  0  0  0  0  1  0  0  0  0  0  0
  -30.3960  -18.0060   17.7540 C   0  0  0  0  0  1  0  0  0  0  0  0
  -31.9800  -19.5660   18.9210 C   0  0  0  0  0  1  0  0  0  0  0  0
  -30.4940  -19.3380   18.5450 C   0  0  2  0  0  0  0  0  0  0  0  0
  -30.0240  -17.9570   20.5920 N   0  0  0  0  0  4  0  0  0  0  0  0
  -29.1440  -18.1130   21.0540 H   0  0  0  0  0  0  0  0  0  0  0  0
  -30.2060  -17.7400   19.6230 H   0  0  0  0  0  0  0  0  0  0  0  0
  -29.5500  -16.4270   20.5800 C   0  0  0  0  0  2  0  0  0  0  0  0
  -30.4630  -15.0450   20.3230 C   0  0  0  0  0  0  0  0  0  0  0  0
  -30.4120  -12.6800   19.3810 C   0  0  0  0  0  2  0  0  0  0  0  0
  -29.4790  -12.6530   18.1420 C   0  0  0  0  0  2  0  0  0  0  0  0
  -28.0100  -12.4330   18.5550 C   0  0  0  0  0  2  0  0  0  0  0  0
  -27.5940  -13.3380   19.7420 C   0  0  0  0  0  3  0  0  0  0  0  0
  -28.6430  -13.3280   20.8710 C   0  0  0  0  0  2  0  0  0  0  0  0
  -29.9270  -13.7540   20.2980 N   0  0  0  0  0  0  0  0  0  0  0  0
  -31.6540  -15.1500   20.0080 O   0  0  0  0  0  0  0  0  0  0  0  0
  -25.2080  -13.9060   20.4750 C   0  0  0  0  0  0  0  0  0  0  0  0
  -24.1470  -13.1260   20.8470 C   0  0  0  0  0  0  0  0  0  0  0  0
  -24.6200  -11.7780   20.8220 C   0  0  0  0  0  0  0  0  0  0  0  0
  -26.2560  -13.0330   20.2370 N   0  0  0  0  0  0  0  0  0  0  0  0
  -25.9130  -11.7480   20.5130 N   0  0  0  0  0  0  0  0  0  0  0  0
  -23.9000  -10.5120   21.0150 C   0  0  0  0  0  0  0  0  0  0  0  0
  -24.3320   -9.5520   21.9560 C   0  0  0  0  0  3  0  0  0  0  0  0
  -23.6100   -8.3530   22.1370 C   0  0  0  0  0  3  0  0  0  0  0  0
  -22.4440   -8.1040   21.3760 C   0  0  0  0  0  0  0  0  0  0  0  0
  -22.0320   -9.0530   20.4240 C   0  0  0  0  0  3  0  0  0  0  0  0
  -22.7530  -10.2440   20.2410 C   0  0  0  0  0  3  0  0  0  0  0  0
  -21.6950   -6.9550   21.4650 O   0  0  0  0  0  0  0  0  0  0  0  0
  -21.6410   -6.2200   22.6210 C   0  0  0  0  0  0  0  0  0  0  0  0
  -21.1960   -6.7770   23.8390 C   0  0  0  0  0  3  0  0  0  0  0  0
  -21.0900   -5.9670   24.9870 C   0  0  0  0  0  3  0  0  0  0  0  0
  -21.4170   -4.5990   24.9180 C   0  0  0  0  0  0  0  0  0  0  0  0
  -21.8540   -4.0410   23.7040 C   0  0  0  0  0  3  0  0  0  0  0  0
  -21.9630   -4.8490   22.5580 C   0  0  0  0  0  0  0  0  0  0  0  0
  -22.3630   -4.3000   21.3860 F   0  0  0  0  0  0  0  0  0  0  0  0
  -21.3080   -3.8190   26.0190 F   0  0  0  0  0  0  0  0  0  0  0  0
  -22.7470  -13.5960   21.1090 C   0  0  0  0  0  0  0  0  0  0  0  0
  -22.0160  -12.8960   21.9700 N   0  0  0  0  0  0  0  0  0  0  0  0
  -22.3070  -14.6200   20.5860 O   0  0  0  0  0  0  0  0  0  0  0  0
  -22.3850  -12.0690   22.4150 H   0  0  0  0  0  0  0  0  0  0  0  0
  -21.0750  -13.1920   22.1880 H   0  0  0  0  0  0  0  0  0  0  0  0
  -25.3620  -15.2770   20.2920 N   0  0  0  0  0  0  0  0  0  0  0  0
  -24.5800  -15.9170   20.3830 H   0  0  0  0  0  0  0  0  0  0  0  0
  -26.1850  -15.7120   19.8990 H   0  0  0  0  0  0  0  0  0  0  0  0
  1  7  2  0
  2  3  1  0
  2  5  1  0
  3  6  1  0
  5  8  1  0
  5  4  1  0
  6  1  1  0
  6  4  1  0
  9 20  2  0
 10  8  1  0
 10 15  1  0
 11 19  1  0
 11 21  1  0
 12 18  1  0
 12 14  1  0
 13 19  1  0
 14 13  1  0
 15 14  2  0
 16 10  2  0
 17 16  1  0
 17 12  2  0
 18 11  1  0
 19  9  1  0
 21 23  2  0
 22 21  1  0
 24 22  1  0
 25 34  2  0
 25 30  1  0
 26 22  1  0
 26 30  1  0
 27 26  1  0
 28 29  1  0
 28 27  1  0
 29 25  1  0
 30 31  2  0
 31 32  1  0
 33 32  2  0
 34 33  1  0
 35  9  1  0
 35 40  1  0
 35 36  1  0
 36 39  1  1
 36 37  1  0
 38 36  1  0
 40 43  1  0
 41 45  1  0
 41 40  1  0
 42 41  2  0
 45 44  1  0
 47 45  1  0
 47 48  1  0
 47 46  1  0
 49 54  1  0
 49  1  1  0
 53 50  1  6
 51 53  1  0
 53 52  1  0
 53 49  1  0
 54 55  1  0
 56 54  1  0
 57 54  1  0
 58 57  1  0
 59 64  1  0
 60 61  1  0
 60 59  1  0
 62 61  1  0
 62 69  1  0
 62 63  1  0
 64 58  1  0
 64 63  1  0
 65 58  2  0
 66 67  2  0
 67 86  1  0
 68 67  1  0
 68 71  1  0
 69 66  1  0
 69 70  1  0
 70 68  2  0
 71 72  1  0
 72 73  2  0
 74 77  1  0
 74 73  1  0
 75 74  2  0
 76 75  1  0
 76 71  2  0
 77 78  1  0
 78 79  1  0
 79 80  2  0
 81 80  1  0
 81 85  1  0
 82 81  2  0
 83 78  2  0
 83 82  1  0
 84 83  1  0
 86 87  1  0
 87 90  1  0
 87 89  1  0
 88 86  2  0
 91 92  1  0
 91 66  1  0
 93 91  1  0
M  ISO  4   5 101   8 101  57 100  58 100
M  END
>  <TORSDO>  (94) 
F 20

>  <SCORE>  (94) 
-13.951

>  <name>  (94) 
93

>  <ligand_id>  (94) 
93

>  <original_smiles>  (94) 
[H]c1c([H])c([H])c2c(c1[H])C([H])([H])C([H])([H])C([H])([H])C2([H])N([H])C(=O)C1([H])N(C(=O)C([H])(N([H])C(=O)C([H])(N([H])C([H])([H])[H])C([H])([H])[H])C(C([H])([H])[H])(C([H])([H])[H])C([H])([H])[H])C([H])([H])c2c([H])c(OC3([H])C([H])([H])N(C(=O)C([H])(C(C([H])([H])[H])(C([H])([H])[H])C([H])([H])[H])[N+]([H])([H])C([H])([H])C(=O)N4C([H])([H])C([H])([H])C([H])([H])C([H])(n5nc(-c6c([H])c([H])c(Oc7c([H])c([H])c(F)c([H])c7F)c([H])c6[H])c(C(=O)N([H])[H])c5N([H])[H])C4([H])[H])C([H])([H])C3([H])[H])c([H])c([H])c2C1([H])[H]

>  <smiles>  (94) 
[H]c1c([H])c([H])c2c(c1[H])C([H])([H])C([H])([H])C([H])([H])C2([H])N([H])C(=O)C1([H])N(C(=O)C([H])(N([H])C(=O)C([H])(N([H])C([H])([H])[H])C([H])([H])[H])C(C([H])([H])[H])(C([H])([H])[H])C([H])([H])[H])C([H])([H])c2c([H])c(OC3([H])C([H])([H])N(C(=O)C([H])(C(C([H])([H])[H])(C([H])([H])[H])C([H])([H])[H])[N+]([H])([H])C([H])([H])C(=O)N4C([H])([H])C([H])([H])C([H])([H])C([H])(n5nc(-c6c([H])c([H])c(Oc7c([H])c([H])c(F)c([H])c7F)c([H])c6[H])c(C(=O)N([H])[H])c5N([H])[H])C4([H])[H])C([H])([H])C3([H])[H])c([H])c([H])c2C1([H])[H]

$$$$
